0:0
     RDKit          3D

 54 57  0  0  0  0  0  0  0  0999 V2000
   64.1120   32.5130   48.5400 C   0  0  0  0  0  0  0  0  0  0  0  0
   62.8460   33.2120   48.1470 C   0  0  0  0  0  0  0  0  0  0  0  0
   61.9200   33.5960   49.1250 C   0  0  0  0  0  0  0  0  0  0  0  0
   60.7020   34.1800   48.7600 C   0  0  0  0  0  0  0  0  0  0  0  0
   60.4030   34.4050   47.4060 C   0  0  0  0  0  0  0  0  0  0  0  0
   59.1200   34.9350   47.0190 N   0  0  0  0  0  0  0  0  0  0  0  0
   58.4120   33.9330   46.2820 C   0  0  0  0  0  0  0  0  0  0  0  0
   58.3900   32.5520   46.3020 C   0  0  0  0  0  0  0  0  0  0  0  0
   59.1210   31.5520   47.0150 N   0  0  0  0  0  0  0  0  0  0  0  0
   59.8210   30.4860   46.3100 C   0  0  0  0  0  0  0  0  0  0  0  0
   58.9190   29.2860   46.2070 C   0  0  0  0  0  0  0  0  0  0  0  0
   57.9510   29.2120   45.1950 C   0  0  0  0  0  0  0  0  0  0  0  0
   57.0340   28.1580   45.1710 C   0  0  0  0  0  0  0  0  0  0  0  0
   57.0630   27.1630   46.1650 C   0  0  0  0  0  0  0  0  0  0  0  0
   56.0540   26.0780   46.1710 C   0  0  0  0  0  0  0  0  0  0  0  0
   54.8410   26.3460   45.9760 O   0  0  0  0  0  0  0  0  0  0  0  0
   56.4530   24.7280   46.4420 N   0  0  0  0  0  0  0  0  0  0  0  0
   56.9750   23.7840   45.4970 C   0  0  0  0  0  0  0  0  0  0  0  0
   58.2800   23.2730   45.6220 C   0  0  0  0  0  0  0  0  0  0  0  0
   58.7400   22.2880   44.7480 C   0  0  0  0  0  0  0  0  0  0  0  0
   57.9060   21.7990   43.7420 C   0  0  0  0  0  0  0  0  0  0  0  0
   56.6090   22.2970   43.6070 C   0  0  0  0  0  0  0  0  0  0  0  0
   56.1330   23.2850   44.4810 C   0  0  0  0  0  0  0  0  0  0  0  0
   54.7990   23.7880   44.3130 N   0  0  0  0  0  0  0  0  0  0  0  0
   58.0410   27.2370   47.1730 C   0  0  0  0  0  0  0  0  0  0  0  0
   58.9570   28.2920   47.1950 C   0  0  0  0  0  0  0  0  0  0  0  0
   57.3420   32.5580   45.3980 C   0  0  0  0  0  0  0  0  0  0  0  0
   56.6480   31.6750   44.8300 O   0  0  0  0  0  0  0  0  0  0  0  0
   57.3650   33.9370   45.3810 C   0  0  0  0  0  0  0  0  0  0  0  0
   56.6940   34.8300   44.8010 O   0  0  0  0  0  0  0  0  0  0  0  0
   61.3360   34.0230   46.4280 C   0  0  0  0  0  0  0  0  0  0  0  0
   62.5480   33.4290   46.7970 C   0  0  0  0  0  0  0  0  0  0  0  0
   64.1837   32.4734   49.6370 H   0  0  0  0  0  0  0  0  0  0  0  0
   64.1067   31.4900   48.1358 H   0  0  0  0  0  0  0  0  0  0  0  0
   64.9749   33.0625   48.1358 H   0  0  0  0  0  0  0  0  0  0  0  0
   62.1520   33.4372   50.1885 H   0  0  0  0  0  0  0  0  0  0  0  0
   59.9760   34.4639   49.5361 H   0  0  0  0  0  0  0  0  0  0  0  0
   59.2460   35.7830   46.4190 H   0  0  0  0  0  0  0  0  0  0  0  0
   58.5550   35.2030   47.8570 H   0  0  0  0  0  0  0  0  0  0  0  0
   58.9000   31.4120   48.0270 H   0  0  0  0  0  0  0  0  0  0  0  0
   60.0935   30.8292   45.3011 H   0  0  0  0  0  0  0  0  0  0  0  0
   60.7341   30.2160   46.8607 H   0  0  0  0  0  0  0  0  0  0  0  0
   57.9134   29.9878   44.4160 H   0  0  0  0  0  0  0  0  0  0  0  0
   56.2835   28.1059   44.3685 H   0  0  0  0  0  0  0  0  0  0  0  0
   58.9419   23.6528   46.4142 H   0  0  0  0  0  0  0  0  0  0  0  0
   59.7625   21.8959   44.8521 H   0  0  0  0  0  0  0  0  0  0  0  0
   58.2706   21.0210   43.0552 H   0  0  0  0  0  0  0  0  0  0  0  0
   55.9560   21.9120   42.8099 H   0  0  0  0  0  0  0  0  0  0  0  0
   54.4030   24.4790   44.9890 H   0  0  0  0  0  0  0  0  0  0  0  0
   54.1900   23.4780   43.5250 H   0  0  0  0  0  0  0  0  0  0  0  0
   58.0851   26.4590   47.9494 H   0  0  0  0  0  0  0  0  0  0  0  0
   59.7128   28.3430   47.9926 H   0  0  0  0  0  0  0  0  0  0  0  0
   61.1123   34.1920   45.3643 H   0  0  0  0  0  0  0  0  0  0  0  0
   63.2699   33.1312   46.0223 H   0  0  0  0  0  0  0  0  0  0  0  0
  1  2  1  0
  2  3  2  0
  3  4  1  0
  4  5  2  0
  5  6  1  0
  6  7  1  0
  7  8  2  0
  8  9  1  0
  9 10  1  0
 10 11  1  0
 11 12  2  0
 12 13  1  0
 13 14  2  0
 14 15  1  0
 15 16  2  0
 15 17  1  0
 17 18  1  0
 18 19  2  0
 19 20  1  0
 20 21  2  0
 21 22  1  0
 22 23  2  0
 23 24  1  0
 14 25  1  0
 25 26  2  0
  8 27  1  0
 27 28  2  0
 27 29  1  0
 29 30  2  0
  5 31  1  0
 31 32  2  0
 32  2  1  0
 29  7  1  0
 26 11  1  0
 23 18  1  0
  1 33  1  0
  1 34  1  0
  1 35  1  0
  3 36  1  0
  4 37  1  0
  6 38  1  0
  6 39  1  0
  9 40  1  0
 10 41  1  0
 10 42  1  0
 12 43  1  0
 13 44  1  0
 19 45  1  0
 20 46  1  0
 21 47  1  0
 22 48  1  0
 24 49  1  0
 24 50  1  0
 25 51  1  0
 26 52  1  0
 31 53  1  0
 32 54  1  0
M  CHG  2   6   1  17  -1
M  END
>  <UniqueID>  (1) 
1

>  <SMILES>  (1) 
Cc1ccc([NH2+]c2c(NCc3ccc(C(=O)[N-]c4ccccc4N)cc3)c(=O)c2=O)cc1

>  <Energy>  (1) 
47.28306947153499

>  <Genealogy>  (1) 
Cc1ccc([NH2+]c2c(NCc3ccc(C(=O)[N-]c4ccccc4N)cc3)c(=O)c2=O)cc1 (protonated)
Cc1ccc([NH2+]c2c(NCc3ccc(C(=O)[N-]c4ccccc4N)cc3)c(=O)c2=O)cc1 (3D coordinates assigned)
Cc1ccc([NH2+]c2c(NCc3ccc(C(=O)[N-]c4ccccc4N)cc3)c(=O)c2=O)cc1 (optimized conformer: 47.28306947153499 kcal/mol)

>  <smiles>  (1) 
Cc1ccc(Nc2c(NCc3ccc(C(=O)Nc4ccccc4N)cc3)c(=O)c2=O)cc1

>  <score_type>  (1) 
oracle

>  <origin>  (1) 
adg

>  <m_score__min__energy>  (1) 
-9.6899999999999995

>  <m_primary>  (1) 
energy

$$$$
1:0
     RDKit          3D

 50 52  0  0  0  0  0  0  0  0999 V2000
   59.2970   34.6290   45.4000 C   0  0  0  0  0  0  0  0  0  0  0  0
   57.9950   34.0220   44.9210 C   0  0  0  0  0  0  0  0  0  0  0  0
   58.2190   32.8970   43.9570 C   0  0  0  0  0  0  0  0  0  0  0  0
   57.3070   31.7620   44.1560 C   0  0  0  0  0  0  0  0  0  0  0  0
   56.2590   31.9360   44.8660 O   0  0  0  0  0  0  0  0  0  0  0  0
   57.6020   30.5050   43.5640 N   0  0  0  0  0  0  0  0  0  0  0  0
   56.7370   29.3580   43.7310 C   0  0  0  0  0  0  0  0  0  0  0  0
   56.5560   29.0090   45.1980 C   0  0  0  0  0  0  0  0  0  0  0  0
   57.8490   29.0960   45.8960 C   0  0  0  0  0  0  0  0  0  0  0  0
   58.4380   30.2980   46.1820 N   0  0  0  0  0  0  0  0  0  0  0  0
   59.5980   30.0790   46.8010 C   0  0  0  0  0  0  0  0  0  0  0  0
   60.5170   31.1120   47.2670 C   0  0  0  0  0  0  0  0  0  0  0  0
   61.8660   30.9500   47.1680 C   0  0  0  0  0  0  0  0  0  0  0  0
   62.7760   31.8960   47.5920 C   0  0  0  0  0  0  0  0  0  0  0  0
   62.3240   33.0750   48.1480 C   0  0  0  0  0  0  0  0  0  0  0  0
   63.2090   34.0230   48.5730 F   0  0  0  0  0  0  0  0  0  0  0  0
   60.9520   33.2510   48.2530 C   0  0  0  0  0  0  0  0  0  0  0  0
   60.5100   34.5450   48.8620 C   0  0  0  0  0  0  0  0  0  0  0  0
   60.0470   32.2930   47.8230 C   0  0  0  0  0  0  0  0  0  0  0  0
   59.7300   28.7460   46.8990 N   0  0  0  0  0  0  0  0  0  0  0  0
   58.6770   28.1050   46.3570 C   0  0  0  0  0  0  0  0  0  0  0  0
   58.5580   26.6640   46.3260 C   0  0  0  0  0  0  0  0  0  0  0  0
   57.3150   26.1250   46.6840 C   0  0  0  0  0  0  0  0  0  0  0  0
   57.1250   24.7580   46.6710 C   0  0  0  0  0  0  0  0  0  0  0  0
   58.0880   23.8860   46.3290 N   0  0  0  0  0  0  0  0  0  0  0  0
   59.2900   24.3730   45.9820 C   0  0  0  0  0  0  0  0  0  0  0  0
   59.5080   25.7610   45.9850 C   0  0  0  0  0  0  0  0  0  0  0  0
   59.3149   34.6374   46.4998 H   0  0  0  0  0  0  0  0  0  0  0  0
   60.1404   34.0313   45.0241 H   0  0  0  0  0  0  0  0  0  0  0  0
   59.3814   35.6593   45.0241 H   0  0  0  0  0  0  0  0  0  0  0  0
   57.4410   33.6390   45.7907 H   0  0  0  0  0  0  0  0  0  0  0  0
   57.4267   34.8066   44.4000 H   0  0  0  0  0  0  0  0  0  0  0  0
   58.0789   33.2809   42.9357 H   0  0  0  0  0  0  0  0  0  0  0  0
   59.2399   32.5245   44.1272 H   0  0  0  0  0  0  0  0  0  0  0  0
   58.4720   30.3920   42.9860 H   0  0  0  0  0  0  0  0  0  0  0  0
   55.7537   29.5846   43.2931 H   0  0  0  0  0  0  0  0  0  0  0  0
   57.2008   28.4982   43.2254 H   0  0  0  0  0  0  0  0  0  0  0  0
   55.8461   29.7136   45.6558 H   0  0  0  0  0  0  0  0  0  0  0  0
   56.1673   27.9833   45.2814 H   0  0  0  0  0  0  0  0  0  0  0  0
   62.2490   30.0176   46.7276 H   0  0  0  0  0  0  0  0  0  0  0  0
   63.8554   31.7115   47.4875 H   0  0  0  0  0  0  0  0  0  0  0  0
   60.5381   34.4627   49.9586 H   0  0  0  0  0  0  0  0  0  0  0  0
   61.1835   35.3519   48.5375 H   0  0  0  0  0  0  0  0  0  0  0  0
   59.4836   34.7713   48.5375 H   0  0  0  0  0  0  0  0  0  0  0  0
   58.9655   32.4677   47.9218 H   0  0  0  0  0  0  0  0  0  0  0  0
   60.5950   28.3430   47.3670 H   0  0  0  0  0  0  0  0  0  0  0  0
   56.4902   26.7918   46.9756 H   0  0  0  0  0  0  0  0  0  0  0  0
   56.1379   24.3637   46.9542 H   0  0  0  0  0  0  0  0  0  0  0  0
   60.1015   23.6876   45.6963 H   0  0  0  0  0  0  0  0  0  0  0  0
   60.5017   26.1335   45.6954 H   0  0  0  0  0  0  0  0  0  0  0  0
  1  2  1  0
  2  3  1  0
  3  4  1  0
  4  5  2  0
  4  6  1  0
  6  7  1  0
  7  8  1  0
  8  9  1  0
  9 10  1  0
 10 11  2  0
 11 12  1  0
 12 13  2  0
 13 14  1  0
 14 15  2  0
 15 16  1  0
 15 17  1  0
 17 18  1  0
 17 19  2  0
 11 20  1  0
 20 21  1  0
 21 22  1  0
 22 23  2  0
 23 24  1  0
 24 25  2  0
 25 26  1  0
 26 27  2  0
 21  9  2  0
 27 22  1  0
 19 12  1  0
  1 28  1  0
  1 29  1  0
  1 30  1  0
  2 31  1  0
  2 32  1  0
  3 33  1  0
  3 34  1  0
  6 35  1  0
  7 36  1  0
  7 37  1  0
  8 38  1  0
  8 39  1  0
 13 40  1  0
 14 41  1  0
 18 42  1  0
 18 43  1  0
 18 44  1  0
 19 45  1  0
 20 46  1  0
 23 47  1  0
 24 48  1  0
 26 49  1  0
 27 50  1  0
M  END
>  <smiles>  (2) 
CCCC(=O)NCCc1nc(-c2ccc(F)c(C)c2)[nH]c1-c1ccncc1

>  <score_type>  (2) 
oracle

>  <origin>  (2) 
adg

>  <m_score__min__energy>  (2) 
-7.9199999999999999

>  <m_primary>  (2) 
energy

$$$$
2:0
     RDKit          3D

 31 32  0  0  0  0  0  0  0  0999 V2000
   54.6030   26.1400   45.9860 N   0  0  0  0  0  0  0  0  0  0  0  0
   56.0600   25.2290   46.1710 S   0  0  0  0  0  0  0  0  0  0  0  0
   56.1090   24.1370   45.1410 O   0  0  0  0  0  0  0  0  0  0  0  0
   56.0840   24.6080   47.5410 O   0  0  0  0  0  0  0  0  0  0  0  0
   57.4460   26.2970   45.9610 C   0  0  0  0  0  0  0  0  0  0  0  0
   58.6170   26.1070   46.7070 C   0  0  0  0  0  0  0  0  0  0  0  0
   59.6960   26.9780   46.5450 C   0  0  0  0  0  0  0  0  0  0  0  0
   59.6060   28.0510   45.6540 C   0  0  0  0  0  0  0  0  0  0  0  0
   58.4340   28.2640   44.9130 C   0  0  0  0  0  0  0  0  0  0  0  0
   58.3540   29.3990   44.0330 N   0  0  0  0  0  0  0  0  0  0  0  0
   57.1420   30.6350   44.1700 S   0  0  0  0  0  0  0  0  0  0  0  0
   55.9410   30.0670   44.8730 O   0  0  0  0  0  0  0  0  0  0  0  0
   56.7380   31.0890   42.7950 O   0  0  0  0  0  0  0  0  0  0  0  0
   57.7830   32.0160   45.0560 C   0  0  0  0  0  0  0  0  0  0  0  0
   57.0220   33.1860   45.1980 C   0  0  0  0  0  0  0  0  0  0  0  0
   57.5210   34.2610   45.9400 C   0  0  0  0  0  0  0  0  0  0  0  0
   58.7800   34.1750   46.5410 C   0  0  0  0  0  0  0  0  0  0  0  0
   59.5450   33.0120   46.3970 C   0  0  0  0  0  0  0  0  0  0  0  0
   61.2610   32.8890   47.2250 Br  0  0  0  0  0  0  0  0  0  0  0  0
   59.0500   31.9370   45.6520 C   0  0  0  0  0  0  0  0  0  0  0  0
   57.3610   27.3650   45.0600 C   0  0  0  0  0  0  0  0  0  0  0  0
   54.7760   27.0830   46.4010 H   0  0  0  0  0  0  0  0  0  0  0  0
   58.6860   25.2721   47.4198 H   0  0  0  0  0  0  0  0  0  0  0  0
   60.6199   26.8192   47.1205 H   0  0  0  0  0  0  0  0  0  0  0  0
   60.4602   28.7334   45.5329 H   0  0  0  0  0  0  0  0  0  0  0  0
   59.1240   29.5650   43.3460 H   0  0  0  0  0  0  0  0  0  0  0  0
   56.0315   33.2578   44.7250 H   0  0  0  0  0  0  0  0  0  0  0  0
   56.9214   35.1765   46.0510 H   0  0  0  0  0  0  0  0  0  0  0  0
   59.1692   35.0208   47.1267 H   0  0  0  0  0  0  0  0  0  0  0  0
   59.6562   31.0268   45.5331 H   0  0  0  0  0  0  0  0  0  0  0  0
   56.4481   27.5028   44.4620 H   0  0  0  0  0  0  0  0  0  0  0  0
  1  2  1  0
  2  3  2  0
  2  4  2  0
  2  5  1  0
  5  6  2  0
  6  7  1  0
  7  8  2  0
  8  9  1  0
  9 10  1  0
 10 11  1  0
 11 12  2  0
 11 13  2  0
 11 14  1  0
 14 15  2  0
 15 16  1  0
 16 17  2  0
 17 18  1  0
 18 19  1  0
 18 20  2  0
  9 21  2  0
 21  5  1  0
 20 14  1  0
  1 22  1  0
  6 23  1  0
  7 24  1  0
  8 25  1  0
 10 26  1  0
 15 27  1  0
 16 28  1  0
 17 29  1  0
 20 30  1  0
 21 31  1  0
M  CHG  1   1  -1
M  END
>  <UniqueID>  (3) 
2

>  <SMILES>  (3) 
[NH-]S(=O)(=O)c1cccc(NS(=O)(=O)c2cccc(Br)c2)c1

>  <Energy>  (3) 
32.678947464598025

>  <Genealogy>  (3) 
[NH-]S(=O)(=O)c1cccc(NS(=O)(=O)c2cccc(Br)c2)c1 (protonated)
[NH-]S(=O)(=O)c1cccc(NS(=O)(=O)c2cccc(Br)c2)c1 (3D coordinates assigned)
[NH-]S(=O)(=O)c1cccc(NS(=O)(=O)c2cccc(Br)c2)c1 (optimized conformer: 32.678947464598025 kcal/mol)

>  <smiles>  (3) 
NS(=O)(=O)c1cccc(NS(=O)(=O)c2cccc(Br)c2)c1

>  <score_type>  (3) 
oracle

>  <origin>  (3) 
adg

>  <m_score__min__energy>  (3) 
-12.66

>  <m_primary>  (3) 
energy

$$$$
3:0
     RDKit          3D

 28 29  0  0  0  0  0  0  0  0999 V2000
   59.6940   34.4800   54.4010 C   0  0  0  0  0  0  0  0  0  0  0  0
   59.0550   33.2530   53.9430 N   0  0  0  0  0  0  0  0  0  0  0  0
   58.0730   33.2620   52.8950 C   0  0  0  0  0  0  0  0  0  0  0  0
   57.7460   34.3540   52.3550 O   0  0  0  0  0  0  0  0  0  0  0  0
   57.4320   32.0190   52.4330 C   0  0  0  0  0  0  0  0  0  0  0  0
   57.9120   31.1300   51.4950 C   0  0  0  0  0  0  0  0  0  0  0  0
   57.0260   30.1300   51.3470 N   0  0  0  0  0  0  0  0  0  0  0  0
   56.0370   30.4390   52.2120 C   0  0  0  0  0  0  0  0  0  0  0  0
   54.7900   29.6250   52.3500 C   0  0  0  0  0  0  0  0  0  0  0  0
   53.5820   30.5130   52.2480 C   0  0  0  0  0  0  0  0  0  0  0  0
   52.7740   30.7430   53.3740 C   0  0  0  0  0  0  0  0  0  0  0  0
   51.6700   31.5980   53.2880 C   0  0  0  0  0  0  0  0  0  0  0  0
   51.3720   32.2370   52.0810 C   0  0  0  0  0  0  0  0  0  0  0  0
   50.2750   33.0850   51.9960 O   0  0  0  0  0  0  0  0  0  0  0  0
   52.1790   32.0230   50.9590 C   0  0  0  0  0  0  0  0  0  0  0  0
   53.2830   31.1700   51.0420 C   0  0  0  0  0  0  0  0  0  0  0  0
   56.2400   31.5910   52.8850 N   0  0  0  0  0  0  0  0  0  0  0  0
   59.7042   34.4996   55.5008 H   0  0  0  0  0  0  0  0  0  0  0  0
   60.7267   34.5184   54.0240 H   0  0  0  0  0  0  0  0  0  0  0  0
   59.1335   35.3481   54.0240 H   0  0  0  0  0  0  0  0  0  0  0  0
   59.3300   32.3560   54.4000 H   0  0  0  0  0  0  0  0  0  0  0  0
   58.8657   31.2238   50.9550 H   0  0  0  0  0  0  0  0  0  0  0  0
   54.7566   28.8713   51.5494 H   0  0  0  0  0  0  0  0  0  0  0  0
   54.7905   29.1277   53.3312 H   0  0  0  0  0  0  0  0  0  0  0  0
   53.0105   30.2485   54.3277 H   0  0  0  0  0  0  0  0  0  0  0  0
   51.0360   31.7675   54.1708 H   0  0  0  0  0  0  0  0  0  0  0  0
   51.9445   32.5268   50.0097 H   0  0  0  0  0  0  0  0  0  0  0  0
   53.9206   31.0121   50.1597 H   0  0  0  0  0  0  0  0  0  0  0  0
  1  2  1  0
  2  3  1  0
  3  4  2  0
  3  5  1  0
  5  6  2  0
  6  7  1  0
  7  8  1  0
  8  9  1  0
  9 10  1  0
 10 11  2  0
 11 12  1  0
 12 13  2  0
 13 14  1  0
 13 15  1  0
 15 16  2  0
  8 17  2  0
 17  5  1  0
 16 10  1  0
  1 18  1  0
  1 19  1  0
  1 20  1  0
  2 21  1  0
  6 22  1  0
  9 23  1  0
  9 24  1  0
 11 25  1  0
 12 26  1  0
 15 27  1  0
 16 28  1  0
M  CHG  2   7  -1  14  -1
M  END
>  <UniqueID>  (4) 
3

>  <SMILES>  (4) 
CNC(=O)c1c[n-]c(Cc2ccc([O-])cc2)n1

>  <Energy>  (4) 
50.515358746836

>  <Genealogy>  (4) 
CNC(=O)c1c[n-]c(Cc2ccc([O-])cc2)n1 (protonated)
CNC(=O)c1c[n-]c(Cc2ccc([O-])cc2)n1 (3D coordinates assigned)
CNC(=O)c1c[n-]c(Cc2ccc([O-])cc2)n1 (optimized conformer: 50.515358746836 kcal/mol)

>  <smiles>  (4) 
CNC(=O)c1c[nH]c(Cc2ccc(O)cc2)n1

>  <score_type>  (4) 
oracle

>  <origin>  (4) 
adg

>  <m_score__min__energy>  (4) 
-11.08

>  <m_primary>  (4) 
energy

$$$$
4:0
     RDKit          3D

 41 44  0  0  0  0  0  0  0  0999 V2000
   54.8130   25.8710   45.7900 N   0  0  0  0  0  0  0  0  0  0  0  0
   55.5120   24.9150   46.3250 C   0  0  0  0  0  0  0  0  0  0  0  0
   54.9470   23.7630   46.7510 N   0  0  0  0  0  0  0  0  0  0  0  0
   55.7010   22.8140   47.2920 C   0  0  0  0  0  0  0  0  0  0  0  0
   57.0430   22.9560   47.4380 N   0  0  0  0  0  0  0  0  0  0  0  0
   57.6250   24.1020   47.0170 C   0  0  0  0  0  0  0  0  0  0  0  0
   56.8800   25.1230   46.4460 C   0  0  0  0  0  0  0  0  0  0  0  0
   57.4800   26.3700   45.9830 C   0  0  0  0  0  0  0  0  0  0  0  0
   57.7700   27.3460   46.9170 C   0  0  0  0  0  0  0  0  0  0  0  0
   58.3380   28.5440   46.5250 C   0  0  0  0  0  0  0  0  0  0  0  0
   58.6410   28.8320   45.2170 C   0  0  0  0  0  0  0  0  0  0  0  0
   59.2440   30.0680   44.7210 C   0  0  0  0  0  0  0  0  0  0  0  0
   58.7610   31.2730   45.4080 N   0  0  0  0  0  0  0  0  0  0  0  0
   57.4660   31.7170   45.0170 C   0  0  0  0  0  0  0  0  0  0  0  0
   56.5990   30.8510   44.6690 O   0  0  0  0  0  0  0  0  0  0  0  0
   57.0700   33.1510   44.9960 C   0  0  0  0  0  0  0  0  0  0  0  0
   57.4330   33.8140   46.6510 S   0  0  0  0  0  0  0  0  0  0  0  0
   59.0460   33.0930   47.0330 C   0  0  0  0  0  0  0  0  0  0  0  0
   59.7810   33.7440   47.9990 C   0  0  0  0  0  0  0  0  0  0  0  0
   61.0280   33.2830   48.3690 C   0  0  0  0  0  0  0  0  0  0  0  0
   61.4870   32.1530   47.7290 C   0  0  0  0  0  0  0  0  0  0  0  0
   60.7480   31.5020   46.7620 C   0  0  0  0  0  0  0  0  0  0  0  0
   59.5000   31.9590   46.3860 C   0  0  0  0  0  0  0  0  0  0  0  0
   58.3450   27.8410   44.2850 C   0  0  0  0  0  0  0  0  0  0  0  0
   57.7730   26.6310   44.6690 C   0  0  0  0  0  0  0  0  0  0  0  0
   54.1250   26.3410   46.4090 H   0  0  0  0  0  0  0  0  0  0  0  0
   53.9000   23.6270   46.6490 H   0  0  0  0  0  0  0  0  0  0  0  0
   55.2234   21.8835   47.6326 H   0  0  0  0  0  0  0  0  0  0  0  0
   58.7120   24.2269   47.1298 H   0  0  0  0  0  0  0  0  0  0  0  0
   57.5475   27.1687   47.9796 H   0  0  0  0  0  0  0  0  0  0  0  0
   58.5567   29.2992   47.2943 H   0  0  0  0  0  0  0  0  0  0  0  0
   60.3336   30.0028   44.8573 H   0  0  0  0  0  0  0  0  0  0  0  0
   58.9606   30.1639   43.6625 H   0  0  0  0  0  0  0  0  0  0  0  0
   57.6490   33.6936   44.2342 H   0  0  0  0  0  0  0  0  0  0  0  0
   56.0045   33.2650   44.7476 H   0  0  0  0  0  0  0  0  0  0  0  0
   59.3689   34.6425   48.4815 H   0  0  0  0  0  0  0  0  0  0  0  0
   61.6265   33.7934   49.1379 H   0  0  0  0  0  0  0  0  0  0  0  0
   62.4768   31.7556   47.9979 H   0  0  0  0  0  0  0  0  0  0  0  0
   61.1606   30.6025   46.2818 H   0  0  0  0  0  0  0  0  0  0  0  0
   58.5678   28.0177   43.2224 H   0  0  0  0  0  0  0  0  0  0  0  0
   57.5523   25.8711   43.9049 H   0  0  0  0  0  0  0  0  0  0  0  0
  1  2  2  3
  2  3  1  0
  3  4  1  0
  4  5  2  0
  5  6  1  0
  6  7  2  0
  7  8  1  0
  8  9  2  0
  9 10  1  0
 10 11  2  0
 11 12  1  0
 12 13  1  0
 13 14  1  0
 14 15  2  0
 14 16  1  0
 16 17  1  0
 17 18  1  0
 18 19  2  0
 19 20  1  0
 20 21  2  0
 21 22  1  0
 22 23  2  0
 11 24  1  0
 24 25  2  0
  7  2  1  0
 25  8  1  0
 23 13  1  0
 23 18  1  0
  1 26  1  0
  3 27  1  0
  4 28  1  0
  6 29  1  0
  9 30  1  0
 10 31  1  0
 12 32  1  0
 12 33  1  0
 16 34  1  0
 16 35  1  0
 19 36  1  0
 20 37  1  0
 21 38  1  0
 22 39  1  0
 24 40  1  0
 25 41  1  0
M  END
>  <smiles>  (5) 
N=c1[nH]cncc1-c1ccc(CN2C(=O)CSc3ccccc32)cc1

>  <score_type>  (5) 
oracle

>  <origin>  (5) 
adg

>  <m_score__min__energy>  (5) 
-8.8399999999999999

>  <m_primary>  (5) 
energy

$$$$
5:0
     RDKit          3D

 41 43  0  0  0  0  0  0  0  0999 V2000
   55.1510   28.9650   44.4950 N   0  0  0  0  0  0  0  0  0  0  0  0
   56.4970   29.9950   44.1580 S   0  0  0  0  0  0  0  0  0  0  0  0
   56.8320   29.9180   42.6950 O   0  0  0  0  0  0  0  0  0  0  0  0
   56.1400   31.4160   44.4970 O   0  0  0  0  0  0  0  0  0  0  0  0
   57.8820   29.4860   45.1180 C   0  0  0  0  0  0  0  0  0  0  0  0
   58.8460   28.6300   44.5690 C   0  0  0  0  0  0  0  0  0  0  0  0
   59.9310   28.2100   45.3400 C   0  0  0  0  0  0  0  0  0  0  0  0
   60.0650   28.6440   46.6620 C   0  0  0  0  0  0  0  0  0  0  0  0
   59.1120   29.5140   47.2220 C   0  0  0  0  0  0  0  0  0  0  0  0
   59.2090   29.9530   48.5870 N   0  0  0  0  0  0  0  0  0  0  0  0
   60.3500   29.7260   49.4280 C   0  0  0  0  0  0  0  0  0  0  0  0
   61.4260   29.2790   48.9470 O   0  0  0  0  0  0  0  0  0  0  0  0
   60.2880   30.0890   50.8800 C   0  0  0  0  0  0  0  0  0  0  0  0
   59.0690   30.7710   51.1690 O   0  0  0  0  0  0  0  0  0  0  0  0
   58.9240   32.1610   51.0750 C   0  0  0  0  0  0  0  0  0  0  0  0
   58.5660   32.8350   52.0790 O   0  0  0  0  0  0  0  0  0  0  0  0
   59.1950   32.8250   49.7880 C   0  0  0  0  0  0  0  0  0  0  0  0
   60.3660   33.5750   49.5870 C   0  0  0  0  0  0  0  0  0  0  0  0
   60.5900   34.1890   48.3520 C   0  0  0  0  0  0  0  0  0  0  0  0
   59.6490   34.0520   47.3250 C   0  0  0  0  0  0  0  0  0  0  0  0
   59.8430   34.6540   46.0730 C   0  0  0  0  0  0  0  0  0  0  0  0
   58.8830   34.4970   45.0670 C   0  0  0  0  0  0  0  0  0  0  0  0
   57.7310   33.7420   45.3060 C   0  0  0  0  0  0  0  0  0  0  0  0
   57.5300   33.1380   46.5510 C   0  0  0  0  0  0  0  0  0  0  0  0
   58.4840   33.2890   47.5630 C   0  0  0  0  0  0  0  0  0  0  0  0
   58.2930   32.7040   48.7760 N   0  0  0  0  0  0  0  0  0  0  0  0
   58.0120   29.9120   46.4470 C   0  0  0  0  0  0  0  0  0  0  0  0
   54.6760   29.3500   45.3420 H   0  0  0  0  0  0  0  0  0  0  0  0
   58.7474   28.2883   43.5281 H   0  0  0  0  0  0  0  0  0  0  0  0
   60.6833   27.5351   44.9058 H   0  0  0  0  0  0  0  0  0  0  0  0
   60.9187   28.3040   47.2666 H   0  0  0  0  0  0  0  0  0  0  0  0
   58.4420   30.5570   48.9630 H   0  0  0  0  0  0  0  0  0  0  0  0
   60.3432   29.1724   51.4857 H   0  0  0  0  0  0  0  0  0  0  0  0
   61.1333   30.7509   51.1194 H   0  0  0  0  0  0  0  0  0  0  0  0
   61.1025   33.6783   50.3975 H   0  0  0  0  0  0  0  0  0  0  0  0
   61.5038   34.7787   48.1873 H   0  0  0  0  0  0  0  0  0  0  0  0
   60.7485   35.2487   45.8822 H   0  0  0  0  0  0  0  0  0  0  0  0
   59.0353   34.9691   44.0852 H   0  0  0  0  0  0  0  0  0  0  0  0
   56.9797   33.6226   44.5115 H   0  0  0  0  0  0  0  0  0  0  0  0
   56.6223   32.5445   46.7346 H   0  0  0  0  0  0  0  0  0  0  0  0
   57.2439   30.5650   46.8870 H   0  0  0  0  0  0  0  0  0  0  0  0
  1  2  1  0
  2  3  2  0
  2  4  2  0
  2  5  1  0
  5  6  2  0
  6  7  1  0
  7  8  2  0
  8  9  1  0
  9 10  1  0
 10 11  1  0
 11 12  2  0
 11 13  1  0
 13 14  1  0
 14 15  1  0
 15 16  2  0
 15 17  1  0
 17 18  2  0
 18 19  1  0
 19 20  2  0
 20 21  1  0
 21 22  2  0
 22 23  1  0
 23 24  2  0
 24 25  1  0
 25 26  2  0
  9 27  2  0
 27  5  1  0
 26 17  1  0
 25 20  1  0
  1 28  1  0
  6 29  1  0
  7 30  1  0
  8 31  1  0
 10 32  1  0
 13 33  1  0
 13 34  1  0
 18 35  1  0
 19 36  1  0
 21 37  1  0
 22 38  1  0
 23 39  1  0
 24 40  1  0
 27 41  1  0
M  CHG  1   1  -1
M  END
>  <UniqueID>  (6) 
4

>  <SMILES>  (6) 
[NH-]S(=O)(=O)c1cccc(NC(=O)COC(=O)c2ccc3ccccc3n2)c1

>  <Energy>  (6) 
46.8459264880818

>  <Genealogy>  (6) 
[NH-]S(=O)(=O)c1cccc(NC(=O)COC(=O)c2ccc3ccccc3n2)c1 (protonated)
[NH-]S(=O)(=O)c1cccc(NC(=O)COC(=O)c2ccc3ccccc3n2)c1 (3D coordinates assigned)
[NH-]S(=O)(=O)c1cccc(NC(=O)COC(=O)c2ccc3ccccc3n2)c1 (optimized conformer: 46.8459264880818 kcal/mol)

>  <smiles>  (6) 
NS(=O)(=O)c1cccc(NC(=O)COC(=O)c2ccc3ccccc3n2)c1

>  <score_type>  (6) 
oracle

>  <origin>  (6) 
adg

>  <m_score__min__energy>  (6) 
-12.470000000000001

>  <m_primary>  (6) 
energy

$$$$
6:0
     RDKit          3D

 47 51  0  0  0  0  0  0  0  0999 V2000
   55.4270   29.6650   44.8640 O   0  0  0  0  0  0  0  0  0  0  0  0
   56.6350   29.8700   43.9960 S   0  0  0  0  0  0  0  0  0  0  0  0
   56.2000   29.9490   42.5610 O   0  0  0  0  0  0  0  0  0  0  0  0
   57.7060   28.5190   44.1900 N   0  0  0  0  0  0  0  0  0  0  0  0
   58.3790   28.1670   45.4060 C   0  0  0  0  0  0  0  0  0  0  0  0
   58.2200   26.9070   46.0110 C   0  0  0  0  0  0  0  0  0  0  0  0
   58.8920   26.6090   47.1970 C   0  0  0  0  0  0  0  0  0  0  0  0
   59.7230   27.5590   47.7950 C   0  0  0  0  0  0  0  0  0  0  0  0
   59.8890   28.8290   47.2100 C   0  0  0  0  0  0  0  0  0  0  0  0
   60.7730   29.8530   47.8220 C   0  0  0  0  0  0  0  0  0  0  0  0
   61.1170   29.8210   49.1880 C   0  0  0  0  0  0  0  0  0  0  0  0
   61.9270   30.7840   49.7070 N   0  0  0  0  0  0  0  0  0  0  0  0
   62.4120   31.7900   48.9290 C   0  0  0  0  0  0  0  0  0  0  0  0
   63.2460   32.7840   49.4630 C   0  0  0  0  0  0  0  0  0  0  0  0
   63.7260   33.8080   48.6400 C   0  0  0  0  0  0  0  0  0  0  0  0
   63.3780   33.8460   47.2860 C   0  0  0  0  0  0  0  0  0  0  0  0
   62.5460   32.8600   46.7460 C   0  0  0  0  0  0  0  0  0  0  0  0
   62.0630   31.8320   47.5630 C   0  0  0  0  0  0  0  0  0  0  0  0
   61.2560   30.8670   47.0530 N   0  0  0  0  0  0  0  0  0  0  0  0
   59.2170   29.1150   46.0080 C   0  0  0  0  0  0  0  0  0  0  0  0
   57.4640   31.3630   44.4220 C   0  0  0  0  0  0  0  0  0  0  0  0
   57.8480   32.2600   43.4160 C   0  0  0  0  0  0  0  0  0  0  0  0
   58.5180   33.4430   43.7410 C   0  0  0  0  0  0  0  0  0  0  0  0
   58.8080   33.7430   45.0790 C   0  0  0  0  0  0  0  0  0  0  0  0
   59.4820   34.9280   45.4170 C   0  0  0  0  0  0  0  0  0  0  0  0
   59.7650   35.2160   46.7560 C   0  0  0  0  0  0  0  0  0  0  0  0
   59.3790   34.3280   47.7640 C   0  0  0  0  0  0  0  0  0  0  0  0
   58.7070   33.1450   47.4400 C   0  0  0  0  0  0  0  0  0  0  0  0
   58.4180   32.8430   46.1000 C   0  0  0  0  0  0  0  0  0  0  0  0
   57.7450   31.6590   45.7630 C   0  0  0  0  0  0  0  0  0  0  0  0
   57.5643   26.1549   45.5480 H   0  0  0  0  0  0  0  0  0  0  0  0
   58.7666   25.6207   47.6634 H   0  0  0  0  0  0  0  0  0  0  0  0
   60.2509   27.3137   48.7284 H   0  0  0  0  0  0  0  0  0  0  0  0
   60.7314   29.0187   49.8343 H   0  0  0  0  0  0  0  0  0  0  0  0
   62.1660   30.7420   50.7240 H   0  0  0  0  0  0  0  0  0  0  0  0
   63.5220   32.7580   50.5275 H   0  0  0  0  0  0  0  0  0  0  0  0
   64.3800   34.5867   49.0595 H   0  0  0  0  0  0  0  0  0  0  0  0
   63.7597   34.6536   46.6440 H   0  0  0  0  0  0  0  0  0  0  0  0
   62.2719   32.8926   45.6812 H   0  0  0  0  0  0  0  0  0  0  0  0
   59.3514   30.0981   45.5332 H   0  0  0  0  0  0  0  0  0  0  0  0
   57.6208   32.0317   42.3642 H   0  0  0  0  0  0  0  0  0  0  0  0
   58.8183   34.1401   42.9448 H   0  0  0  0  0  0  0  0  0  0  0  0
   59.7876   35.6304   44.6276 H   0  0  0  0  0  0  0  0  0  0  0  0
   60.2934   36.1449   47.0168 H   0  0  0  0  0  0  0  0  0  0  0  0
   59.6044   34.5603   48.8153 H   0  0  0  0  0  0  0  0  0  0  0  0
   58.4043   32.4498   48.2369 H   0  0  0  0  0  0  0  0  0  0  0  0
   57.4366   30.9601   46.5544 H   0  0  0  0  0  0  0  0  0  0  0  0
  1  2  2  0
  2  3  2  0
  2  4  1  0
  4  5  1  0
  5  6  2  0
  6  7  1  0
  7  8  2  0
  8  9  1  0
  9 10  1  0
 10 11  2  0
 11 12  1  0
 12 13  2  0
 13 14  1  0
 14 15  2  0
 15 16  1  0
 16 17  2  0
 17 18  1  0
 18 19  2  0
  9 20  2  0
  2 21  1  0
 21 22  2  0
 22 23  1  0
 23 24  2  0
 24 25  1  0
 25 26  2  0
 26 27  1  0
 27 28  2  0
 28 29  1  0
 29 30  2  0
 20  5  1  0
 30 21  1  0
 19 10  1  0
 29 24  1  0
 18 13  1  0
  6 31  1  0
  7 32  1  0
  8 33  1  0
 11 34  1  0
 12 35  1  0
 14 36  1  0
 15 37  1  0
 16 38  1  0
 17 39  1  0
 20 40  1  0
 22 41  1  0
 23 42  1  0
 25 43  1  0
 26 44  1  0
 27 45  1  0
 28 46  1  0
 30 47  1  0
M  CHG  2   4  -1  12   1
M  END
>  <UniqueID>  (7) 
5

>  <SMILES>  (7) 
O=S(=O)([N-]c1cccc(-c2c[nH+]c3ccccc3n2)c1)c1ccc2ccccc2c1

>  <Energy>  (7) 
67.4450854904931

>  <Genealogy>  (7) 
O=S(=O)([N-]c1cccc(-c2c[nH+]c3ccccc3n2)c1)c1ccc2ccccc2c1 (protonated)
O=S(=O)([N-]c1cccc(-c2c[nH+]c3ccccc3n2)c1)c1ccc2ccccc2c1 (3D coordinates assigned)
O=S(=O)([N-]c1cccc(-c2c[nH+]c3ccccc3n2)c1)c1ccc2ccccc2c1 (optimized conformer: 67.4450854904931 kcal/mol)

>  <smiles>  (7) 
O=S(=O)(Nc1cccc(-c2cnc3ccccc3n2)c1)c1ccc2ccccc2c1

>  <score_type>  (7) 
oracle

>  <origin>  (7) 
adg

>  <m_score__min__energy>  (7) 
-10.65

>  <m_primary>  (7) 
energy

$$$$
7:0
     RDKit          3D

 70 74  0  0  0  0  0  0  0  0999 V2000
   55.8910   27.5590   45.6240 O   0  0  0  0  0  0  0  0  0  0  0  0
   56.3930   26.4970   46.0810 C   0  0  0  0  0  0  0  0  0  0  0  0
   55.5810   25.3170   46.1380 N   0  0  0  0  0  0  0  0  0  0  0  0
   55.8600   24.0730   45.4790 C   0  0  0  0  0  0  0  0  0  0  0  0
   55.7840   22.8430   46.1590 C   0  0  0  0  0  0  0  0  0  0  0  0
   56.0700   21.6500   45.4880 C   0  0  0  0  0  0  0  0  0  0  0  0
   56.4490   21.6760   44.1440 C   0  0  0  0  0  0  0  0  0  0  0  0
   56.5520   22.8970   43.4700 C   0  0  0  0  0  0  0  0  0  0  0  0
   56.2660   24.0920   44.1390 C   0  0  0  0  0  0  0  0  0  0  0  0
   57.7850   26.5090   46.5810 C   0  0  0  0  0  0  0  0  0  0  0  0
   58.7270   25.5890   46.0930 C   0  0  0  0  0  0  0  0  0  0  0  0
   60.0520   25.6350   46.5340 C   0  0  0  0  0  0  0  0  0  0  0  0
   60.4480   26.6000   47.4610 C   0  0  0  0  0  0  0  0  0  0  0  0
   59.5150   27.5140   47.9690 C   0  0  0  0  0  0  0  0  0  0  0  0
   60.0400   28.7960   49.0560 S   0  0  0  0  0  0  0  0  0  0  0  0
   61.4870   28.5840   49.4010 O   0  0  0  0  0  0  0  0  0  0  0  0
   59.2330   28.7530   50.3260 O   0  0  0  0  0  0  0  0  0  0  0  0
   59.8380   30.3330   48.2570 N   0  0  0  0  0  0  0  0  0  0  0  0
   59.0000   31.2280   49.0800 C   0  0  0  0  0  0  0  0  0  0  0  0
   59.1050   32.6930   48.6120 C   0  0  0  0  0  0  0  0  0  0  0  0
   59.5680   32.7410   47.2090 N   0  0  0  0  0  0  0  0  0  0  0  0
   59.4090   34.1020   46.6080 C   0  0  0  0  0  0  0  0  0  0  0  0
   57.9240   34.5510   46.6540 C   0  0  0  0  0  0  0  0  0  0  0  0
   57.0190   33.6450   45.7850 C   0  0  0  0  0  0  0  0  0  0  0  0
   57.8110   32.6530   45.0320 N   0  0  0  0  0  0  0  0  0  0  0  0
   56.9520   31.7760   44.2140 C   0  0  0  0  0  0  0  0  0  0  0  0
   57.5800   30.4120   44.1070 C   0  0  0  0  0  0  0  0  0  0  0  0
   58.7800   30.1380   44.7870 C   0  0  0  0  0  0  0  0  0  0  0  0
   59.3820   28.8820   44.6730 C   0  0  0  0  0  0  0  0  0  0  0  0
   58.7900   27.8900   43.8850 C   0  0  0  0  0  0  0  0  0  0  0  0
   57.5960   28.1550   43.2090 C   0  0  0  0  0  0  0  0  0  0  0  0
   56.9920   29.4110   43.3160 C   0  0  0  0  0  0  0  0  0  0  0  0
   58.8570   33.3120   44.2200 C   0  0  0  0  0  0  0  0  0  0  0  0
   59.8060   34.1570   45.1060 C   0  0  0  0  0  0  0  0  0  0  0  0
   60.9570   32.2160   47.1390 C   0  0  0  0  0  0  0  0  0  0  0  0
   61.1460   30.9480   47.9980 C   0  0  0  0  0  0  0  0  0  0  0  0
   58.1830   27.4580   47.5370 C   0  0  0  0  0  0  0  0  0  0  0  0
   55.4989   22.8202   47.2212 H   0  0  0  0  0  0  0  0  0  0  0  0
   55.9964   20.6897   46.0194 H   0  0  0  0  0  0  0  0  0  0  0  0
   56.6665   20.7361   43.6156 H   0  0  0  0  0  0  0  0  0  0  0  0
   56.8579   22.9179   42.4136 H   0  0  0  0  0  0  0  0  0  0  0  0
   56.3606   25.0516   43.6096 H   0  0  0  0  0  0  0  0  0  0  0  0
   58.4203   24.8284   45.3599 H   0  0  0  0  0  0  0  0  0  0  0  0
   60.7841   24.9094   46.1499 H   0  0  0  0  0  0  0  0  0  0  0  0
   61.4955   26.6434   47.7939 H   0  0  0  0  0  0  0  0  0  0  0  0
   57.9515   30.9037   49.0055 H   0  0  0  0  0  0  0  0  0  0  0  0
   59.3555   31.1726   50.1195 H   0  0  0  0  0  0  0  0  0  0  0  0
   58.1173   33.1714   48.6867 H   0  0  0  0  0  0  0  0  0  0  0  0
   59.8256   33.2261   49.2496 H   0  0  0  0  0  0  0  0  0  0  0  0
   60.0695   34.7511   47.2016 H   0  0  0  0  0  0  0  0  0  0  0  0
   57.5725   34.5103   47.6955 H   0  0  0  0  0  0  0  0  0  0  0  0
   57.8652   35.5743   46.2548 H   0  0  0  0  0  0  0  0  0  0  0  0
   56.3105   33.1151   46.4386 H   0  0  0  0  0  0  0  0  0  0  0  0
   56.4853   34.2806   45.0631 H   0  0  0  0  0  0  0  0  0  0  0  0
   55.9629   31.6876   44.6871 H   0  0  0  0  0  0  0  0  0  0  0  0
   56.8416   32.2075   43.2082 H   0  0  0  0  0  0  0  0  0  0  0  0
   59.2464   30.9149   45.4107 H   0  0  0  0  0  0  0  0  0  0  0  0
   60.3226   28.6734   45.2038 H   0  0  0  0  0  0  0  0  0  0  0  0
   59.2641   26.9013   43.7973 H   0  0  0  0  0  0  0  0  0  0  0  0
   57.1303   27.3732   42.5911 H   0  0  0  0  0  0  0  0  0  0  0  0
   56.0539   29.6161   42.7795 H   0  0  0  0  0  0  0  0  0  0  0  0
   59.4443   32.5420   43.6984 H   0  0  0  0  0  0  0  0  0  0  0  0
   58.3666   33.9818   43.4982 H   0  0  0  0  0  0  0  0  0  0  0  0
   60.8305   33.7719   44.9958 H   0  0  0  0  0  0  0  0  0  0  0  0
   59.7348   35.2037   44.7754 H   0  0  0  0  0  0  0  0  0  0  0  0
   61.1912   31.9726   46.0921 H   0  0  0  0  0  0  0  0  0  0  0  0
   61.6310   32.9921   47.5305 H   0  0  0  0  0  0  0  0  0  0  0  0
   61.7873   30.2335   47.4610 H   0  0  0  0  0  0  0  0  0  0  0  0
   61.6193   31.2193   48.9532 H   0  0  0  0  0  0  0  0  0  0  0  0
   57.4446   28.1616   47.9491 H   0  0  0  0  0  0  0  0  0  0  0  0
  1  2  2  0
  2  3  1  0
  3  4  1  0
  4  5  2  0
  5  6  1  0
  6  7  2  0
  7  8  1  0
  8  9  2  0
  2 10  1  0
 10 11  2  0
 11 12  1  0
 12 13  2  0
 13 14  1  0
 14 15  1  0
 15 16  2  0
 15 17  2  0
 15 18  1  0
 18 19  1  0
 19 20  1  0
 20 21  1  0
 21 22  1  0
 22 23  1  0
 23 24  1  0
 24 25  1  0
 25 26  1  0
 26 27  1  0
 27 28  2  0
 28 29  1  0
 29 30  2  0
 30 31  1  0
 31 32  2  0
 25 33  1  0
 33 34  1  0
 21 35  1  0
 35 36  1  0
 14 37  2  0
  9  4  1  0
 37 10  1  0
 36 18  1  0
 34 22  1  0
 32 27  1  0
  5 38  1  0
  6 39  1  0
  7 40  1  0
  8 41  1  0
  9 42  1  0
 11 43  1  0
 12 44  1  0
 13 45  1  0
 19 46  1  0
 19 47  1  0
 20 48  1  0
 20 49  1  0
 22 50  1  0
 23 51  1  0
 23 52  1  0
 24 53  1  0
 24 54  1  0
 26 55  1  0
 26 56  1  0
 28 57  1  0
 29 58  1  0
 30 59  1  0
 31 60  1  0
 32 61  1  0
 33 62  1  0
 33 63  1  0
 34 64  1  0
 34 65  1  0
 35 66  1  0
 35 67  1  0
 36 68  1  0
 36 69  1  0
 37 70  1  0
M  CHG  1   3  -1
M  END
>  <UniqueID>  (8) 
6

>  <SMILES>  (8) 
O=C([N-]c1ccccc1)c1cccc(S(=O)(=O)N2CCN(C3CCN(Cc4ccccc4)CC3)CC2)c1

>  <Energy>  (8) 
97.49673341598985

>  <Genealogy>  (8) 
O=C([N-]c1ccccc1)c1cccc(S(=O)(=O)N2CCN(C3CCN(Cc4ccccc4)CC3)CC2)c1 (protonated)
O=C([N-]c1ccccc1)c1cccc(S(=O)(=O)N2CCN(C3CCN(Cc4ccccc4)CC3)CC2)c1 (3D coordinates assigned)
O=C([N-]c1ccccc1)c1cccc(S(=O)(=O)N2CCN(C3CCN(Cc4ccccc4)CC3)CC2)c1 (nonaromatic ring conformer: 97.49673341598985 kcal/mol)

>  <smiles>  (8) 
O=C(Nc1ccccc1)c1cccc(S(=O)(=O)N2CCN(C3CCN(Cc4ccccc4)CC3)CC2)c1

>  <score_type>  (8) 
oracle

>  <origin>  (8) 
adg

>  <m_score__min__energy>  (8) 
-12.550000000000001

>  <m_primary>  (8) 
energy

$$$$
8:0
     RDKit          3D

 44 46  0  0  0  0  0  0  0  0999 V2000
   60.7060   34.2530   49.9890 O   0  0  0  0  0  0  0  0  0  0  0  0
   60.9450   33.8070   48.8330 C   0  0  0  0  0  0  0  0  0  0  0  0
   62.2770   33.1400   48.5980 C   0  0  0  0  0  0  0  0  0  0  0  0
   62.1980   31.6160   48.7680 C   0  0  0  0  0  0  0  0  0  0  0  0
   61.9610   30.8940   47.4330 C   0  0  0  0  0  0  0  0  0  0  0  0
   60.6770   31.3790   46.7480 C   0  0  0  0  0  0  0  0  0  0  0  0
   60.2450   30.4580   45.7440 O   0  0  0  0  0  0  0  0  0  0  0  0
   58.9470   30.3650   45.2100 C   0  0  0  0  0  0  0  0  0  0  0  0
   58.4160   31.3760   44.3830 C   0  0  0  0  0  0  0  0  0  0  0  0
   57.1250   31.2690   43.8650 C   0  0  0  0  0  0  0  0  0  0  0  0
   56.3400   30.1580   44.1610 C   0  0  0  0  0  0  0  0  0  0  0  0
   56.8370   29.1430   44.9790 C   0  0  0  0  0  0  0  0  0  0  0  0
   56.0680   28.0910   45.2460 O   0  0  0  0  0  0  0  0  0  0  0  0
   56.4630   27.0790   46.0130 C   0  0  0  0  0  0  0  0  0  0  0  0
   55.5400   25.9590   46.2530 C   0  0  0  0  0  0  0  0  0  0  0  0
   54.3450   26.0350   45.8600 O   0  0  0  0  0  0  0  0  0  0  0  0
   55.9690   24.8120   46.9110 O   0  0  0  0  0  0  0  0  0  0  0  0
   57.7440   27.0920   46.5790 C   0  0  0  0  0  0  0  0  0  0  0  0
   58.5920   28.1710   46.3300 C   0  0  0  0  0  0  0  0  0  0  0  0
   59.7440   28.1710   46.8420 O   0  0  0  0  0  0  0  0  0  0  0  0
   58.1460   29.2340   45.5140 C   0  0  0  0  0  0  0  0  0  0  0  0
   59.9270   33.9830   47.7580 C   0  0  0  0  0  0  0  0  0  0  0  0
   60.2030   34.7160   46.5840 C   0  0  0  0  0  0  0  0  0  0  0  0
   59.2270   34.8650   45.5930 C   0  0  0  0  0  0  0  0  0  0  0  0
   57.9670   34.2890   45.7560 C   0  0  0  0  0  0  0  0  0  0  0  0
   57.6790   33.5600   46.9100 C   0  0  0  0  0  0  0  0  0  0  0  0
   58.6490   33.4060   47.9040 C   0  0  0  0  0  0  0  0  0  0  0  0
   62.6111   33.3659   47.5746 H   0  0  0  0  0  0  0  0  0  0  0  0
   62.9862   33.5277   49.3441 H   0  0  0  0  0  0  0  0  0  0  0  0
   63.1439   31.2585   49.2009 H   0  0  0  0  0  0  0  0  0  0  0  0
   61.3462   31.3938   49.4276 H   0  0  0  0  0  0  0  0  0  0  0  0
   62.8151   31.0860   46.7670 H   0  0  0  0  0  0  0  0  0  0  0  0
   61.8560   29.8184   47.6379 H   0  0  0  0  0  0  0  0  0  0  0  0
   59.8847   31.4828   47.5040 H   0  0  0  0  0  0  0  0  0  0  0  0
   60.8841   32.3461   46.2664 H   0  0  0  0  0  0  0  0  0  0  0  0
   59.0265   32.2591   44.1435 H   0  0  0  0  0  0  0  0  0  0  0  0
   56.7258   32.0657   43.2201 H   0  0  0  0  0  0  0  0  0  0  0  0
   55.3234   30.0801   43.7481 H   0  0  0  0  0  0  0  0  0  0  0  0
   58.0784   26.2586   47.2143 H   0  0  0  0  0  0  0  0  0  0  0  0
   61.1937   35.1739   46.4471 H   0  0  0  0  0  0  0  0  0  0  0  0
   59.4539   35.4383   44.6821 H   0  0  0  0  0  0  0  0  0  0  0  0
   57.2014   34.4095   44.9754 H   0  0  0  0  0  0  0  0  0  0  0  0
   56.6856   33.1052   47.0378 H   0  0  0  0  0  0  0  0  0  0  0  0
   58.4129   32.8285   48.8099 H   0  0  0  0  0  0  0  0  0  0  0  0
  1  2  2  0
  2  3  1  0
  3  4  1  0
  4  5  1  0
  5  6  1  0
  6  7  1  0
  7  8  1  0
  8  9  2  0
  9 10  1  0
 10 11  2  0
 11 12  1  0
 12 13  1  0
 13 14  1  0
 14 15  1  0
 15 16  2  0
 15 17  1  0
 14 18  2  0
 18 19  1  0
 19 20  2  0
 19 21  1  0
  2 22  1  0
 22 23  2  0
 23 24  1  0
 24 25  2  0
 25 26  1  0
 26 27  2  0
 21  8  1  0
 27 22  1  0
 21 12  2  0
  3 28  1  0
  3 29  1  0
  4 30  1  0
  4 31  1  0
  5 32  1  0
  5 33  1  0
  6 34  1  0
  6 35  1  0
  9 36  1  0
 10 37  1  0
 11 38  1  0
 18 39  1  0
 23 40  1  0
 24 41  1  0
 25 42  1  0
 26 43  1  0
 27 44  1  0
M  CHG  1  17  -1
M  END
>  <UniqueID>  (9) 
7

>  <SMILES>  (9) 
O=C(CCCCOc1cccc2oc(C(=O)[O-])cc(=O)c12)c1ccccc1

>  <Energy>  (9) 
49.12576098605187

>  <Genealogy>  (9) 
O=C(CCCCOc1cccc2oc(C(=O)[O-])cc(=O)c12)c1ccccc1 (protonated)
O=C(CCCCOc1cccc2oc(C(=O)[O-])cc(=O)c12)c1ccccc1 (3D coordinates assigned)
O=C(CCCCOc1cccc2oc(C(=O)[O-])cc(=O)c12)c1ccccc1 (optimized conformer: 49.12576098605187 kcal/mol)

>  <smiles>  (9) 
O=C(CCCCOc1cccc2oc(C(=O)O)cc(=O)c12)c1ccccc1

>  <score_type>  (9) 
oracle

>  <origin>  (9) 
adg

>  <m_score__min__energy>  (9) 
-10.779999999999999

>  <m_primary>  (9) 
energy

$$$$
9:0
     RDKit          3D

 38 40  0  0  0  0  0  0  0  0999 V2000
   58.1250   28.2400   46.2310 O   0  0  0  0  0  0  0  0  0  0  0  0
   56.9990   28.0180   45.7160 C   0  0  0  0  0  0  0  0  0  0  0  0
   56.2320   29.1310   45.2330 N   0  0  0  0  0  0  0  0  0  0  0  0
   56.7220   30.2080   44.4200 C   0  0  0  0  0  0  0  0  0  0  0  0
   56.6450   30.1660   43.0170 C   0  0  0  0  0  0  0  0  0  0  0  0
   57.1480   31.2240   42.2550 C   0  0  0  0  0  0  0  0  0  0  0  0
   57.7400   32.3230   42.8840 C   0  0  0  0  0  0  0  0  0  0  0  0
   57.8330   32.3660   44.2810 C   0  0  0  0  0  0  0  0  0  0  0  0
   58.6110   33.7360   45.0700 S   0  0  0  0  0  0  0  0  0  0  0  0
   59.7040   34.2650   44.1820 O   0  0  0  0  0  0  0  0  0  0  0  0
   57.5950   34.8190   45.3070 O   0  0  0  0  0  0  0  0  0  0  0  0
   59.2790   33.2100   46.5820 N   0  0  0  0  0  0  0  0  0  0  0  0
   60.6800   32.9670   46.8050 C   0  0  0  0  0  0  0  0  0  0  0  0
   61.6040   33.9890   46.5230 C   0  0  0  0  0  0  0  0  0  0  0  0
   62.9720   33.7850   46.7270 C   0  0  0  0  0  0  0  0  0  0  0  0
   63.4320   32.5600   47.2140 C   0  0  0  0  0  0  0  0  0  0  0  0
   62.5260   31.5370   47.4970 C   0  0  0  0  0  0  0  0  0  0  0  0
   61.1560   31.7350   47.2950 C   0  0  0  0  0  0  0  0  0  0  0  0
   57.3370   31.3000   45.0440 C   0  0  0  0  0  0  0  0  0  0  0  0
   56.4920   26.6310   45.6720 C   0  0  0  0  0  0  0  0  0  0  0  0
   57.3010   25.5600   45.2650 C   0  0  0  0  0  0  0  0  0  0  0  0
   56.7650   24.2740   45.2320 C   0  0  0  0  0  0  0  0  0  0  0  0
   55.4310   24.0850   45.5860 C   0  0  0  0  0  0  0  0  0  0  0  0
   54.9210   22.9350   45.5610 O   0  0  0  0  0  0  0  0  0  0  0  0
   54.6780   25.1540   45.9540 N   0  0  0  0  0  0  0  0  0  0  0  0
   55.1910   26.3860   45.9930 N   0  0  0  0  0  0  0  0  0  0  0  0
   56.1880   29.2987   42.5180 H   0  0  0  0  0  0  0  0  0  0  0  0
   57.0779   31.1919   41.1577 H   0  0  0  0  0  0  0  0  0  0  0  0
   58.1332   33.1549   42.2813 H   0  0  0  0  0  0  0  0  0  0  0  0
   58.6070   33.0480   47.3650 H   0  0  0  0  0  0  0  0  0  0  0  0
   61.2477   34.9563   46.1390 H   0  0  0  0  0  0  0  0  0  0  0  0
   63.6868   34.5906   46.5035 H   0  0  0  0  0  0  0  0  0  0  0  0
   64.5086   32.4013   47.3746 H   0  0  0  0  0  0  0  0  0  0  0  0
   62.8901   30.5723   47.8800 H   0  0  0  0  0  0  0  0  0  0  0  0
   60.4469   30.9247   47.5199 H   0  0  0  0  0  0  0  0  0  0  0  0
   57.4315   31.3215   46.1397 H   0  0  0  0  0  0  0  0  0  0  0  0
   58.3478   25.7333   44.9748 H   0  0  0  0  0  0  0  0  0  0  0  0
   57.3876   23.4188   44.9302 H   0  0  0  0  0  0  0  0  0  0  0  0
  1  2  2  0
  2  3  1  0
  3  4  1  0
  4  5  2  0
  5  6  1  0
  6  7  2  0
  7  8  1  0
  8  9  1  0
  9 10  2  0
  9 11  2  0
  9 12  1  0
 12 13  1  0
 13 14  2  0
 14 15  1  0
 15 16  2  0
 16 17  1  0
 17 18  2  0
  8 19  2  0
  2 20  1  0
 20 21  1  0
 21 22  2  0
 22 23  1  0
 23 24  2  0
 23 25  1  0
 25 26  1  0
 19  4  1  0
 26 20  2  0
 18 13  1  0
  5 27  1  0
  6 28  1  0
  7 29  1  0
 12 30  1  0
 14 31  1  0
 15 32  1  0
 16 33  1  0
 17 34  1  0
 18 35  1  0
 19 36  1  0
 21 37  1  0
 22 38  1  0
M  CHG  2   3  -1  25  -1
M  END
>  <UniqueID>  (10) 
8

>  <SMILES>  (10) 
O=C([N-]c1cccc(S(=O)(=O)Nc2ccccc2)c1)c1ccc(=O)[n-]n1

>  <Energy>  (10) 
52.337823400972

>  <Genealogy>  (10) 
O=C([N-]c1cccc(S(=O)(=O)Nc2ccccc2)c1)c1ccc(=O)[n-]n1 (protonated)
O=C([N-]c1cccc(S(=O)(=O)Nc2ccccc2)c1)c1ccc(=O)[n-]n1 (3D coordinates assigned)
O=C([N-]c1cccc(S(=O)(=O)Nc2ccccc2)c1)c1ccc(=O)[n-]n1 (optimized conformer: 52.337823400972 kcal/mol)

>  <smiles>  (10) 
O=C(Nc1cccc(S(=O)(=O)Nc2ccccc2)c1)c1ccc(=O)[nH]n1

>  <score_type>  (10) 
oracle

>  <origin>  (10) 
adg

>  <m_score__min__energy>  (10) 
-13.07

>  <m_primary>  (10) 
energy

$$$$
10:0
     RDKit          3D

 43 45  0  0  0  0  0  0  0  0999 V2000
   54.5480   29.5610   43.3630 O   0  0  0  0  0  0  0  0  0  0  0  0
   55.5380   29.7030   44.1280 C   0  0  0  0  0  0  0  0  0  0  0  0
   55.7000   28.7810   45.2170 N   0  0  0  0  0  0  0  0  0  0  0  0
   56.9060   28.0840   45.5630 C   0  0  0  0  0  0  0  0  0  0  0  0
   56.8790   26.8810   46.2930 C   0  0  0  0  0  0  0  0  0  0  0  0
   58.0730   26.2290   46.6150 C   0  0  0  0  0  0  0  0  0  0  0  0
   59.2960   26.7610   46.2000 C   0  0  0  0  0  0  0  0  0  0  0  0
   59.3280   27.9440   45.4540 C   0  0  0  0  0  0  0  0  0  0  0  0
   61.0000   28.6670   44.8790 Br  0  0  0  0  0  0  0  0  0  0  0  0
   58.1350   28.5980   45.1310 C   0  0  0  0  0  0  0  0  0  0  0  0
   56.5260   30.7730   43.8490 C   0  0  0  0  0  0  0  0  0  0  0  0
   57.0180   30.9540   42.5440 C   0  0  0  0  0  0  0  0  0  0  0  0
   57.9520   31.9590   42.2750 C   0  0  0  0  0  0  0  0  0  0  0  0
   58.4040   32.7900   43.3010 C   0  0  0  0  0  0  0  0  0  0  0  0
   57.9290   32.6180   44.6060 C   0  0  0  0  0  0  0  0  0  0  0  0
   58.5150   33.6600   45.9020 S   0  0  0  0  0  0  0  0  0  0  0  0
   57.4290   33.8560   46.9240 O   0  0  0  0  0  0  0  0  0  0  0  0
   58.8560   35.0010   45.3160 O   0  0  0  0  0  0  0  0  0  0  0  0
   59.9450   32.9780   46.6500 N   0  0  0  0  0  0  0  0  0  0  0  0
   59.9240   31.5020   46.6520 C   0  0  0  0  0  0  0  0  0  0  0  0
   58.9420   30.9170   47.6840 C   0  0  0  0  0  0  0  0  0  0  0  0
   58.9250   31.6960   49.0110 C   0  0  0  0  0  0  0  0  0  0  0  0
   60.1420   32.6070   49.1540 C   0  0  0  0  0  0  0  0  0  0  0  0
   60.2230   33.5910   47.9730 C   0  0  0  0  0  0  0  0  0  0  0  0
   57.0040   31.6020   44.8800 C   0  0  0  0  0  0  0  0  0  0  0  0
   55.9168   26.4530   46.6107 H   0  0  0  0  0  0  0  0  0  0  0  0
   58.0493   25.2954   47.1962 H   0  0  0  0  0  0  0  0  0  0  0  0
   60.2345   26.2495   46.4599 H   0  0  0  0  0  0  0  0  0  0  0  0
   58.1620   29.5216   44.5341 H   0  0  0  0  0  0  0  0  0  0  0  0
   56.6663   30.3018   41.7310 H   0  0  0  0  0  0  0  0  0  0  0  0
   58.3317   32.0951   41.2516 H   0  0  0  0  0  0  0  0  0  0  0  0
   59.1355   33.5822   43.0834 H   0  0  0  0  0  0  0  0  0  0  0  0
   59.6294   31.1540   45.6509 H   0  0  0  0  0  0  0  0  0  0  0  0
   60.9326   31.1583   46.9250 H   0  0  0  0  0  0  0  0  0  0  0  0
   57.9297   30.9362   47.2539 H   0  0  0  0  0  0  0  0  0  0  0  0
   59.2748   29.8930   47.9093 H   0  0  0  0  0  0  0  0  0  0  0  0
   58.0140   32.3113   49.0502 H   0  0  0  0  0  0  0  0  0  0  0  0
   58.9475   30.9665   49.8340 H   0  0  0  0  0  0  0  0  0  0  0  0
   60.0605   33.1746   50.0927 H   0  0  0  0  0  0  0  0  0  0  0  0
   61.0505   31.9869   49.1623 H   0  0  0  0  0  0  0  0  0  0  0  0
   59.4903   34.3938   48.1420 H   0  0  0  0  0  0  0  0  0  0  0  0
   61.2589   33.9596   47.9392 H   0  0  0  0  0  0  0  0  0  0  0  0
   56.6486   31.4513   45.9100 H   0  0  0  0  0  0  0  0  0  0  0  0
  1  2  2  0
  2  3  1  0
  3  4  1  0
  4  5  2  0
  5  6  1  0
  6  7  2  0
  7  8  1  0
  8  9  1  0
  8 10  2  0
  2 11  1  0
 11 12  2  0
 12 13  1  0
 13 14  2  0
 14 15  1  0
 15 16  1  0
 16 17  2  0
 16 18  2  0
 16 19  1  0
 19 20  1  0
 20 21  1  0
 21 22  1  0
 22 23  1  0
 23 24  1  0
 15 25  2  0
 10  4  1  0
 25 11  1  0
 24 19  1  0
  5 26  1  0
  6 27  1  0
  7 28  1  0
 10 29  1  0
 12 30  1  0
 13 31  1  0
 14 32  1  0
 20 33  1  0
 20 34  1  0
 21 35  1  0
 21 36  1  0
 22 37  1  0
 22 38  1  0
 23 39  1  0
 23 40  1  0
 24 41  1  0
 24 42  1  0
 25 43  1  0
M  CHG  1   3  -1
M  END
>  <UniqueID>  (11) 
9

>  <SMILES>  (11) 
O=C([N-]c1cccc(Br)c1)c1cccc(S(=O)(=O)N2CCCCC2)c1

>  <Energy>  (11) 
57.22209953774474

>  <Genealogy>  (11) 
O=C([N-]c1cccc(Br)c1)c1cccc(S(=O)(=O)N2CCCCC2)c1 (protonated)
O=C([N-]c1cccc(Br)c1)c1cccc(S(=O)(=O)N2CCCCC2)c1 (3D coordinates assigned)
O=C([N-]c1cccc(Br)c1)c1cccc(S(=O)(=O)N2CCCCC2)c1 (nonaromatic ring conformer: 57.22209953774474 kcal/mol)

>  <smiles>  (11) 
O=C(Nc1cccc(Br)c1)c1cccc(S(=O)(=O)N2CCCCC2)c1

>  <score_type>  (11) 
oracle

>  <origin>  (11) 
adg

>  <m_score__min__energy>  (11) 
-11.19

>  <m_primary>  (11) 
energy

$$$$
11:0
     RDKit          3D

 47 49  0  0  0  0  0  0  0  0999 V2000
   52.6100   23.9190   44.3060 C   0  0  0  0  0  0  0  0  0  0  0  0
   54.0580   23.5700   44.4870 C   0  0  0  0  0  0  0  0  0  0  0  0
   54.8750   23.3490   43.3740 C   0  0  0  0  0  0  0  0  0  0  0  0
   56.2310   23.0640   43.5410 C   0  0  0  0  0  0  0  0  0  0  0  0
   56.7980   23.0050   44.8250 C   0  0  0  0  0  0  0  0  0  0  0  0
   58.2700   22.7120   44.9580 C   0  0  0  0  0  0  0  0  0  0  0  0
   55.9810   23.2500   45.9560 C   0  0  0  0  0  0  0  0  0  0  0  0
   56.6310   23.2070   47.6030 S   0  0  0  0  0  0  0  0  0  0  0  0
   57.3920   21.9290   47.8260 O   0  0  0  0  0  0  0  0  0  0  0  0
   55.4960   23.2820   48.5860 O   0  0  0  0  0  0  0  0  0  0  0  0
   57.7040   24.5510   47.8250 N   0  0  0  0  0  0  0  0  0  0  0  0
   57.7380   25.7250   47.0030 C   0  0  0  0  0  0  0  0  0  0  0  0
   58.9730   26.3350   46.7560 C   0  0  0  0  0  0  0  0  0  0  0  0
   59.0540   27.4800   45.9570 C   0  0  0  0  0  0  0  0  0  0  0  0
   57.8870   28.0430   45.4080 C   0  0  0  0  0  0  0  0  0  0  0  0
   57.9220   29.2060   44.5680 N   0  0  0  0  0  0  0  0  0  0  0  0
   57.8660   30.5750   44.9890 C   0  0  0  0  0  0  0  0  0  0  0  0
   56.7890   31.2240   44.9070 O   0  0  0  0  0  0  0  0  0  0  0  0
   59.0730   31.2220   45.4170 N   0  0  0  0  0  0  0  0  0  0  0  0
   59.1210   32.5220   46.0320 C   0  0  0  0  0  0  0  0  0  0  0  0
   59.1710   33.6650   45.2200 C   0  0  0  0  0  0  0  0  0  0  0  0
   59.2370   34.9380   45.7930 C   0  0  0  0  0  0  0  0  0  0  0  0
   59.2720   35.0800   47.1820 C   0  0  0  0  0  0  0  0  0  0  0  0
   59.2470   33.9470   48.0000 C   0  0  0  0  0  0  0  0  0  0  0  0
   59.1760   32.6720   47.4310 C   0  0  0  0  0  0  0  0  0  0  0  0
   56.6550   27.4210   45.6390 C   0  0  0  0  0  0  0  0  0  0  0  0
   56.5750   26.2760   46.4350 C   0  0  0  0  0  0  0  0  0  0  0  0
   54.6170   23.5340   45.7720 C   0  0  0  0  0  0  0  0  0  0  0  0
   52.1345   24.0336   45.2913 H   0  0  0  0  0  0  0  0  0  0  0  0
   52.5274   24.8628   43.7470 H   0  0  0  0  0  0  0  0  0  0  0  0
   52.1065   23.1165   43.7470 H   0  0  0  0  0  0  0  0  0  0  0  0
   54.4470   23.4000   42.3620 H   0  0  0  0  0  0  0  0  0  0  0  0
   56.8622   22.8837   42.6583 H   0  0  0  0  0  0  0  0  0  0  0  0
   58.5384   22.6586   46.0234 H   0  0  0  0  0  0  0  0  0  0  0  0
   58.4978   21.7509   44.4738 H   0  0  0  0  0  0  0  0  0  0  0  0
   58.8484   23.5126   44.4738 H   0  0  0  0  0  0  0  0  0  0  0  0
   59.8882   25.9102   47.1942 H   0  0  0  0  0  0  0  0  0  0  0  0
   60.0323   27.9416   45.7572 H   0  0  0  0  0  0  0  0  0  0  0  0
   59.9780   30.7420   45.2060 H   0  0  0  0  0  0  0  0  0  0  0  0
   59.1582   33.5585   44.1252 H   0  0  0  0  0  0  0  0  0  0  0  0
   59.2614   35.8295   45.1491 H   0  0  0  0  0  0  0  0  0  0  0  0
   59.3192   36.0827   47.6318 H   0  0  0  0  0  0  0  0  0  0  0  0
   59.2833   34.0587   49.0937 H   0  0  0  0  0  0  0  0  0  0  0  0
   59.1631   31.7828   48.0785 H   0  0  0  0  0  0  0  0  0  0  0  0
   55.7414   27.8375   45.1897 H   0  0  0  0  0  0  0  0  0  0  0  0
   55.5988   25.8033   46.6184 H   0  0  0  0  0  0  0  0  0  0  0  0
   53.9802   23.7305   46.6471 H   0  0  0  0  0  0  0  0  0  0  0  0
  1  2  1  0
  2  3  2  0
  3  4  1  0
  4  5  2  0
  5  6  1  0
  5  7  1  0
  7  8  1  0
  8  9  2  0
  8 10  2  0
  8 11  1  0
 11 12  1  0
 12 13  2  0
 13 14  1  0
 14 15  2  0
 15 16  1  0
 16 17  1  0
 17 18  2  0
 17 19  1  0
 19 20  1  0
 20 21  2  0
 21 22  1  0
 22 23  2  0
 23 24  1  0
 24 25  2  0
 15 26  1  0
 26 27  2  0
  7 28  2  0
 28  2  1  0
 27 12  1  0
 25 20  1  0
  1 29  1  0
  1 30  1  0
  1 31  1  0
  3 32  1  0
  4 33  1  0
  6 34  1  0
  6 35  1  0
  6 36  1  0
 13 37  1  0
 14 38  1  0
 19 39  1  0
 21 40  1  0
 22 41  1  0
 23 42  1  0
 24 43  1  0
 25 44  1  0
 26 45  1  0
 27 46  1  0
 28 47  1  0
M  CHG  2  11  -1  16  -1
M  END
>  <UniqueID>  (12) 
10

>  <SMILES>  (12) 
Cc1ccc(C)c(S(=O)(=O)[N-]c2ccc([N-]C(=O)Nc3ccccc3)cc2)c1

>  <Energy>  (12) 
60.730594741719116

>  <Genealogy>  (12) 
Cc1ccc(C)c(S(=O)(=O)[N-]c2ccc([N-]C(=O)Nc3ccccc3)cc2)c1 (protonated)
Cc1ccc(C)c(S(=O)(=O)[N-]c2ccc([N-]C(=O)Nc3ccccc3)cc2)c1 (3D coordinates assigned)
Cc1ccc(C)c(S(=O)(=O)[N-]c2ccc([N-]C(=O)Nc3ccccc3)cc2)c1 (optimized conformer: 60.730594741719116 kcal/mol)

>  <smiles>  (12) 
Cc1ccc(C)c(S(=O)(=O)Nc2ccc(NC(=O)Nc3ccccc3)cc2)c1

>  <score_type>  (12) 
oracle

>  <origin>  (12) 
adg

>  <m_score__min__energy>  (12) 
-11.390000000000001

>  <m_primary>  (12) 
energy

$$$$
12:0
     RDKit          3D

 37 38  0  0  0  0  0  0  0  0999 V2000
   58.4630   33.5770   45.4880 C   0  0  0  0  0  0  0  0  0  0  0  0
   58.8570   32.3270   46.2300 C   0  0  0  0  0  0  0  0  0  0  0  0
   59.4330   32.4390   47.5070 C   0  0  0  0  0  0  0  0  0  0  0  0
   59.7980   31.2990   48.2240 C   0  0  0  0  0  0  0  0  0  0  0  0
   59.5800   30.0320   47.6810 C   0  0  0  0  0  0  0  0  0  0  0  0
   60.0210   28.6010   48.5950 Cl  0  0  0  0  0  0  0  0  0  0  0  0
   59.0090   29.9040   46.4120 C   0  0  0  0  0  0  0  0  0  0  0  0
   58.6490   31.0440   45.6710 C   0  0  0  0  0  0  0  0  0  0  0  0
   58.0750   30.8980   44.3580 N   0  0  0  0  0  0  0  0  0  0  0  0
   56.6770   31.2300   44.0720 C   0  0  0  0  0  0  0  0  0  0  0  0
   55.8500   29.9560   43.8620 C   0  0  0  0  0  0  0  0  0  0  0  0
   56.2210   28.9220   44.8270 N   0  0  0  0  0  0  0  0  0  0  0  0
   57.3220   28.0260   44.6100 C   0  0  0  0  0  0  0  0  0  0  0  0
   58.1270   28.2390   43.6620 O   0  0  0  0  0  0  0  0  0  0  0  0
   57.4860   26.8100   45.4380 C   0  0  0  0  0  0  0  0  0  0  0  0
   58.7740   26.2700   45.6070 C   0  0  0  0  0  0  0  0  0  0  0  0
   58.9610   25.0910   46.3320 C   0  0  0  0  0  0  0  0  0  0  0  0
   57.8680   24.4460   46.9120 C   0  0  0  0  0  0  0  0  0  0  0  0
   56.5870   24.9880   46.7800 C   0  0  0  0  0  0  0  0  0  0  0  0
   56.3910   26.1700   46.0570 C   0  0  0  0  0  0  0  0  0  0  0  0
   55.1120   26.7120   45.9920 O   0  0  0  0  0  0  0  0  0  0  0  0
   58.2135   34.3686   46.2099 H   0  0  0  0  0  0  0  0  0  0  0  0
   59.3005   33.9077   44.8561 H   0  0  0  0  0  0  0  0  0  0  0  0
   57.5873   33.3677   44.8561 H   0  0  0  0  0  0  0  0  0  0  0  0
   59.5976   33.4344   47.9453 H   0  0  0  0  0  0  0  0  0  0  0  0
   60.2580   31.3990   49.2182 H   0  0  0  0  0  0  0  0  0  0  0  0
   58.8396   28.9029   45.9889 H   0  0  0  0  0  0  0  0  0  0  0  0
   58.5690   30.3030   43.6550 H   0  0  0  0  0  0  0  0  0  0  0  0
   56.2599   31.7961   44.9179 H   0  0  0  0  0  0  0  0  0  0  0  0
   56.6374   31.8331   43.1529 H   0  0  0  0  0  0  0  0  0  0  0  0
   54.7835   30.1958   43.9847 H   0  0  0  0  0  0  0  0  0  0  0  0
   56.0468   29.5750   42.8490 H   0  0  0  0  0  0  0  0  0  0  0  0
   55.5790   28.7690   45.6350 H   0  0  0  0  0  0  0  0  0  0  0  0
   59.6416   26.7810   45.1641 H   0  0  0  0  0  0  0  0  0  0  0  0
   59.9710   24.6704   46.4459 H   0  0  0  0  0  0  0  0  0  0  0  0
   58.0148   23.5112   47.4729 H   0  0  0  0  0  0  0  0  0  0  0  0
   55.7283   24.4831   47.2467 H   0  0  0  0  0  0  0  0  0  0  0  0
  1  2  1  0
  2  3  2  0
  3  4  1  0
  4  5  2  0
  5  6  1  0
  5  7  1  0
  7  8  2  0
  8  9  1  0
  9 10  1  0
 10 11  1  0
 11 12  1  0
 12 13  1  0
 13 14  2  0
 13 15  1  0
 15 16  2  0
 16 17  1  0
 17 18  2  0
 18 19  1  0
 19 20  2  0
 20 21  1  0
  8  2  1  0
 20 15  1  0
  1 22  1  0
  1 23  1  0
  1 24  1  0
  3 25  1  0
  4 26  1  0
  7 27  1  0
  9 28  1  0
 10 29  1  0
 10 30  1  0
 11 31  1  0
 11 32  1  0
 12 33  1  0
 16 34  1  0
 17 35  1  0
 18 36  1  0
 19 37  1  0
M  CHG  1  21  -1
M  END
>  <UniqueID>  (13) 
11

>  <SMILES>  (13) 
Cc1ccc(Cl)cc1NCCNC(=O)c1ccccc1[O-]

>  <Energy>  (13) 
36.545101931841025

>  <Genealogy>  (13) 
Cc1ccc(Cl)cc1NCCNC(=O)c1ccccc1[O-] (protonated)
Cc1ccc(Cl)cc1NCCNC(=O)c1ccccc1[O-] (3D coordinates assigned)
Cc1ccc(Cl)cc1NCCNC(=O)c1ccccc1[O-] (optimized conformer: 36.545101931841025 kcal/mol)

>  <smiles>  (13) 
Cc1ccc(Cl)cc1NCCNC(=O)c1ccccc1O

>  <score_type>  (13) 
oracle

>  <origin>  (13) 
adg

>  <m_score__min__energy>  (13) 
-11.73

>  <m_primary>  (13) 
energy

$$$$
13:0
     RDKit          3D

 42 44  0  0  0  0  0  0  0  0999 V2000
   64.5830   32.8950   49.0370 C   0  0  0  0  0  0  0  0  0  0  0  0
   63.3490   33.3280   48.3190 C   0  0  0  0  0  0  0  0  0  0  0  0
   62.1600   33.7150   48.9010 C   0  0  0  0  0  0  0  0  0  0  0  0
   61.3640   34.0460   47.8180 C   0  0  0  0  0  0  0  0  0  0  0  0
   59.9730   34.5240   47.8580 C   0  0  0  0  0  0  0  0  0  0  0  0
   59.5050   34.9670   48.9410 O   0  0  0  0  0  0  0  0  0  0  0  0
   59.1380   34.5330   46.6910 N   0  0  0  0  0  0  0  0  0  0  0  0
   58.7020   33.3850   45.9530 C   0  0  0  0  0  0  0  0  0  0  0  0
   58.9150   32.1130   46.4950 C   0  0  0  0  0  0  0  0  0  0  0  0
   58.5280   30.9710   45.7920 C   0  0  0  0  0  0  0  0  0  0  0  0
   57.9180   31.0760   44.5340 C   0  0  0  0  0  0  0  0  0  0  0  0
   57.5030   29.8800   43.8500 N   0  0  0  0  0  0  0  0  0  0  0  0
   56.7920   28.8240   44.5000 C   0  0  0  0  0  0  0  0  0  0  0  0
   55.5950   28.9990   44.8650 O   0  0  0  0  0  0  0  0  0  0  0  0
   57.3990   27.5280   44.6100 N   0  0  0  0  0  0  0  0  0  0  0  0
   56.8530   26.4560   45.3940 C   0  0  0  0  0  0  0  0  0  0  0  0
   56.0250   26.7040   46.3130 O   0  0  0  0  0  0  0  0  0  0  0  0
   57.3400   25.0810   45.1980 C   0  0  0  0  0  0  0  0  0  0  0  0
   56.5320   24.1190   44.5610 C   0  0  0  0  0  0  0  0  0  0  0  0
   55.2940   24.4420   44.1110 F   0  0  0  0  0  0  0  0  0  0  0  0
   56.9880   22.8050   44.4150 C   0  0  0  0  0  0  0  0  0  0  0  0
   58.2450   22.4390   44.9000 C   0  0  0  0  0  0  0  0  0  0  0  0
   59.0760   23.3960   45.4960 C   0  0  0  0  0  0  0  0  0  0  0  0
   58.6200   24.7120   45.6570 C   0  0  0  0  0  0  0  0  0  0  0  0
   59.4490   25.6290   46.2230 F   0  0  0  0  0  0  0  0  0  0  0  0
   57.7170   32.3560   43.9820 C   0  0  0  0  0  0  0  0  0  0  0  0
   58.1190   33.4990   44.6800 C   0  0  0  0  0  0  0  0  0  0  0  0
   62.0530   33.8440   46.6750 N   0  0  0  0  0  0  0  0  0  0  0  0
   63.2390   33.4230   47.0140 O   0  0  0  0  0  0  0  0  0  0  0  0
   64.4153   32.9538   50.1225 H   0  0  0  0  0  0  0  0  0  0  0  0
   64.8244   31.8585   48.7589 H   0  0  0  0  0  0  0  0  0  0  0  0
   65.4191   33.5534   48.7589 H   0  0  0  0  0  0  0  0  0  0  0  0
   61.9051   33.7518   49.9704 H   0  0  0  0  0  0  0  0  0  0  0  0
   59.3906   32.0122   47.4817 H   0  0  0  0  0  0  0  0  0  0  0  0
   58.7036   29.9773   46.2299 H   0  0  0  0  0  0  0  0  0  0  0  0
   57.9630   29.6470   42.9420 H   0  0  0  0  0  0  0  0  0  0  0  0
   58.3210   27.3750   44.1400 H   0  0  0  0  0  0  0  0  0  0  0  0
   56.3540   22.0571   43.9162 H   0  0  0  0  0  0  0  0  0  0  0  0
   58.5837   21.3960   44.8138 H   0  0  0  0  0  0  0  0  0  0  0  0
   60.0837   23.1159   45.8368 H   0  0  0  0  0  0  0  0  0  0  0  0
   57.2408   32.4572   42.9956 H   0  0  0  0  0  0  0  0  0  0  0  0
   57.9780   34.4927   44.2299 H   0  0  0  0  0  0  0  0  0  0  0  0
  1  2  1  0
  2  3  2  0
  3  4  1  0
  4  5  1  0
  5  6  2  0
  5  7  1  0
  7  8  1  0
  8  9  2  0
  9 10  1  0
 10 11  2  0
 11 12  1  0
 12 13  1  0
 13 14  2  0
 13 15  1  0
 15 16  1  0
 16 17  2  0
 16 18  1  0
 18 19  2  0
 19 20  1  0
 19 21  1  0
 21 22  2  0
 22 23  1  0
 23 24  2  0
 24 25  1  0
 11 26  1  0
 26 27  2  0
  4 28  2  0
 28 29  1  0
 29  2  1  0
 27  8  1  0
 24 18  1  0
  1 30  1  0
  1 31  1  0
  1 32  1  0
  3 33  1  0
  9 34  1  0
 10 35  1  0
 12 36  1  0
 15 37  1  0
 21 38  1  0
 22 39  1  0
 23 40  1  0
 26 41  1  0
 27 42  1  0
M  CHG  1   7  -1
M  END
>  <UniqueID>  (14) 
12

>  <SMILES>  (14) 
Cc1cc(C(=O)[N-]c2ccc(NC(=O)NC(=O)c3c(F)cccc3F)cc2)no1

>  <Energy>  (14) 
91.82580363369422

>  <Genealogy>  (14) 
Cc1cc(C(=O)[N-]c2ccc(NC(=O)NC(=O)c3c(F)cccc3F)cc2)no1 (protonated)
Cc1cc(C(=O)[N-]c2ccc(NC(=O)NC(=O)c3c(F)cccc3F)cc2)no1 (3D coordinates assigned)
Cc1cc(C(=O)[N-]c2ccc(NC(=O)NC(=O)c3c(F)cccc3F)cc2)no1 (optimized conformer: 91.82580363369422 kcal/mol)

>  <smiles>  (14) 
Cc1cc(C(=O)Nc2ccc(NC(=O)NC(=O)c3c(F)cccc3F)cc2)no1

>  <score_type>  (14) 
oracle

>  <origin>  (14) 
adg

>  <m_score__min__energy>  (14) 
-9.9199999999999999

>  <m_primary>  (14) 
energy

$$$$
14:0
     RDKit          3D

 24 25  0  0  0  0  0  0  0  0999 V2000
   59.1540   33.4290   48.2100 C   0  0  0  0  0  0  0  0  0  0  0  0
   59.5130   34.3590   47.2340 C   0  0  0  0  0  0  0  0  0  0  0  0
   58.9600   34.2730   45.9570 C   0  0  0  0  0  0  0  0  0  0  0  0
   58.0500   33.2450   45.6660 C   0  0  0  0  0  0  0  0  0  0  0  0
   57.4070   33.1600   44.3060 C   0  0  0  0  0  0  0  0  0  0  0  0
   57.7000   31.8180   43.6250 C   0  0  0  0  0  0  0  0  0  0  0  0
   57.0230   30.6810   44.3300 C   0  0  0  0  0  0  0  0  0  0  0  0
   55.7580   30.2080   44.0740 C   0  0  0  0  0  0  0  0  0  0  0  0
   55.5280   29.1400   44.8560 N   0  0  0  0  0  0  0  0  0  0  0  0
   56.6720   28.9940   45.5600 C   0  0  0  0  0  0  0  0  0  0  0  0
   57.6140   29.9130   45.2620 N   0  0  0  0  0  0  0  0  0  0  0  0
   57.7070   32.3520   46.6420 N   0  0  0  0  0  0  0  0  0  0  0  0
   58.2410   32.4240   47.8920 C   0  0  0  0  0  0  0  0  0  0  0  0
   59.5865   33.4878   49.2197 H   0  0  0  0  0  0  0  0  0  0  0  0
   60.2306   35.1582   47.4714 H   0  0  0  0  0  0  0  0  0  0  0  0
   59.2349   35.0053   45.1835 H   0  0  0  0  0  0  0  0  0  0  0  0
   56.3186   33.2730   44.4182 H   0  0  0  0  0  0  0  0  0  0  0  0
   57.8231   33.9619   43.6784 H   0  0  0  0  0  0  0  0  0  0  0  0
   57.3401   31.8588   42.5863 H   0  0  0  0  0  0  0  0  0  0  0  0
   58.7859   31.6454   43.6584 H   0  0  0  0  0  0  0  0  0  0  0  0
   55.0500   30.6341   43.3479 H   0  0  0  0  0  0  0  0  0  0  0  0
   56.8215   28.2000   46.3065 H   0  0  0  0  0  0  0  0  0  0  0  0
   57.0180   31.5940   46.4330 H   0  0  0  0  0  0  0  0  0  0  0  0
   57.9511   31.6862   48.6546 H   0  0  0  0  0  0  0  0  0  0  0  0
  1  2  2  0
  2  3  1  0
  3  4  2  0
  4  5  1  0
  5  6  1  0
  6  7  1  0
  7  8  2  0
  8  9  1  0
  9 10  1  0
 10 11  2  0
  4 12  1  0
 12 13  2  0
 13  1  1  0
 11  7  1  0
  1 14  1  0
  2 15  1  0
  3 16  1  0
  5 17  1  0
  5 18  1  0
  6 19  1  0
  6 20  1  0
  8 21  1  0
 10 22  1  0
 12 23  1  0
 13 24  1  0
M  CHG  2   9  -1  12   1
M  END
>  <UniqueID>  (15) 
13

>  <SMILES>  (15) 
c1ccc(CCc2c[n-]cn2)[nH+]c1

>  <Energy>  (15) 
47.523295025902065

>  <Genealogy>  (15) 
c1ccc(CCc2c[n-]cn2)[nH+]c1 (protonated)
c1ccc(CCc2c[n-]cn2)[nH+]c1 (3D coordinates assigned)
c1ccc(CCc2c[n-]cn2)[nH+]c1 (optimized conformer: 47.523295025902065 kcal/mol)

>  <smiles>  (15) 
c1ccc(CCc2c[nH]cn2)nc1

>  <score_type>  (15) 
oracle

>  <origin>  (15) 
adg

>  <m_score__min__energy>  (15) 
-5.5599999999999996

>  <m_primary>  (15) 
energy

$$$$
15:0
     RDKit          3D

 36 39  0  0  0  0  0  0  0  0999 V2000
   55.4410   29.0850   44.9850 O   0  0  0  0  0  0  0  0  0  0  0  0
   56.7010   29.0020   44.9600 C   0  0  0  0  0  0  0  0  0  0  0  0
   57.4570   30.2620   44.6270 C   0  0  0  0  0  0  0  0  0  0  0  0
   58.7440   30.3890   45.4020 C   0  0  0  0  0  0  0  0  0  0  0  0
   58.9180   31.4330   46.3260 C   0  0  0  0  0  0  0  0  0  0  0  0
   60.1100   31.5520   47.0630 C   0  0  0  0  0  0  0  0  0  0  0  0
   60.2830   32.6260   48.0090 N   0  0  0  0  0  0  0  0  0  0  0  0
   59.5960   32.8050   49.1580 C   0  0  0  0  0  0  0  0  0  0  0  0
   60.0390   33.9440   49.8000 C   0  0  0  0  0  0  0  0  0  0  0  0
   61.0360   34.4790   49.0100 C   0  0  0  0  0  0  0  0  0  0  0  0
   61.1620   33.6470   47.9160 C   0  0  0  0  0  0  0  0  0  0  0  0
   61.1270   30.6040   46.8650 C   0  0  0  0  0  0  0  0  0  0  0  0
   60.9590   29.5620   45.9510 C   0  0  0  0  0  0  0  0  0  0  0  0
   59.7750   29.4520   45.2040 C   0  0  0  0  0  0  0  0  0  0  0  0
   59.5780   28.3410   44.3100 N   0  0  0  0  0  0  0  0  0  0  0  0
   58.7060   27.3740   44.9330 C   0  0  0  0  0  0  0  0  0  0  0  0
   59.2200   26.1030   45.2570 C   0  0  0  0  0  0  0  0  0  0  0  0
   58.4110   25.1320   45.8420 C   0  0  0  0  0  0  0  0  0  0  0  0
   57.0750   25.4090   46.1200 C   0  0  0  0  0  0  0  0  0  0  0  0
   55.9730   24.0740   46.9240 Br  0  0  0  0  0  0  0  0  0  0  0  0
   56.5460   26.6650   45.8160 C   0  0  0  0  0  0  0  0  0  0  0  0
   57.3400   27.6710   45.2270 C   0  0  0  0  0  0  0  0  0  0  0  0
   57.6920   30.2581   43.5524 H   0  0  0  0  0  0  0  0  0  0  0  0
   56.8186   31.1151   44.9001 H   0  0  0  0  0  0  0  0  0  0  0  0
   58.1119   32.1665   46.4749 H   0  0  0  0  0  0  0  0  0  0  0  0
   58.8007   32.1411   49.5277 H   0  0  0  0  0  0  0  0  0  0  0  0
   59.6695   34.3465   50.7547 H   0  0  0  0  0  0  0  0  0  0  0  0
   61.6170   35.3908   49.2127 H   0  0  0  0  0  0  0  0  0  0  0  0
   61.8735   33.7939   47.0901 H   0  0  0  0  0  0  0  0  0  0  0  0
   62.0644   30.6831   47.4351 H   0  0  0  0  0  0  0  0  0  0  0  0
   61.7607   28.8212   45.8149 H   0  0  0  0  0  0  0  0  0  0  0  0
   60.5020   27.9110   44.0660 H   0  0  0  0  0  0  0  0  0  0  0  0
   59.1670   28.6530   43.4020 H   0  0  0  0  0  0  0  0  0  0  0  0
   60.2749   25.8744   45.0450 H   0  0  0  0  0  0  0  0  0  0  0  0
   58.8285   24.1437   46.0851 H   0  0  0  0  0  0  0  0  0  0  0  0
   55.4896   26.8739   46.0402 H   0  0  0  0  0  0  0  0  0  0  0  0
  1  2  2  0
  2  3  1  0
  3  4  1  0
  4  5  2  0
  5  6  1  0
  6  7  1  0
  7  8  1  0
  8  9  2  0
  9 10  1  0
 10 11  2  0
  6 12  2  0
 12 13  1  0
 13 14  2  0
 14 15  1  0
 15 16  1  0
 16 17  2  0
 17 18  1  0
 18 19  2  0
 19 20  1  0
 19 21  1  0
 21 22  2  0
 22  2  1  0
 14  4  1  0
 22 16  1  0
 11  7  1  0
  3 23  1  0
  3 24  1  0
  5 25  1  0
  8 26  1  0
  9 27  1  0
 10 28  1  0
 11 29  1  0
 12 30  1  0
 13 31  1  0
 15 32  1  0
 15 33  1  0
 17 34  1  0
 18 35  1  0
 21 36  1  0
M  CHG  1  15   1
M  END
>  <UniqueID>  (16) 
14

>  <SMILES>  (16) 
O=C1Cc2cc(-n3cccc3)ccc2[NH2+]c2ccc(Br)cc21

>  <Energy>  (16) 
81.27342589701264

>  <Genealogy>  (16) 
O=C1Cc2cc(-n3cccc3)ccc2[NH2+]c2ccc(Br)cc21 (protonated)
O=C1Cc2cc(-n3cccc3)ccc2[NH2+]c2ccc(Br)cc21 (3D coordinates assigned)
O=C1Cc2cc(-n3cccc3)ccc2[NH2+]c2ccc(Br)cc21 (nonaromatic ring conformer: 81.27342589701264 kcal/mol)

>  <smiles>  (16) 
O=C1Cc2cc(-n3cccc3)ccc2Nc2ccc(Br)cc21

>  <score_type>  (16) 
oracle

>  <origin>  (16) 
adg

>  <m_score__min__energy>  (16) 
-4.79

>  <m_primary>  (16) 
energy

$$$$
16:0
     RDKit          3D

 53 56  0  0  0  0  0  0  0  0999 V2000
   58.1230   27.2910   43.9220 C   0  0  0  0  0  0  0  0  0  0  0  0
   58.1410   27.0070   45.4200 C   0  0  0  0  0  0  0  0  0  0  0  0
   59.0480   27.9750   46.1330 C   0  0  0  0  0  0  0  0  0  0  0  0
   59.9330   28.7830   45.4040 C   0  0  0  0  0  0  0  0  0  0  0  0
   60.7660   29.6870   46.0650 C   0  0  0  0  0  0  0  0  0  0  0  0
   60.7070   29.8070   47.4560 C   0  0  0  0  0  0  0  0  0  0  0  0
   59.8020   29.0390   48.1960 C   0  0  0  0  0  0  0  0  0  0  0  0
   59.7760   29.1930   49.6220 N   0  0  0  0  0  0  0  0  0  0  0  0
   59.0770   30.2030   50.3610 C   0  0  0  0  0  0  0  0  0  0  0  0
   57.8690   30.0440   50.6880 O   0  0  0  0  0  0  0  0  0  0  0  0
   59.7640   31.4990   50.6600 C   0  0  0  0  0  0  0  0  0  0  0  0
   60.0690   32.2240   49.4030 N   0  0  0  0  0  0  0  0  0  0  0  0
   59.0180   32.6720   48.6320 C   0  0  0  0  0  0  0  0  0  0  0  0
   57.8300   32.4760   49.0200 O   0  0  0  0  0  0  0  0  0  0  0  0
   59.2340   33.3350   47.4490 N   0  0  0  0  0  0  0  0  0  0  0  0
   58.0770   33.7540   46.6250 C   0  0  0  0  0  0  0  0  0  0  0  0
   57.9370   32.8720   45.4060 C   0  0  0  0  0  0  0  0  0  0  0  0
   57.9560   33.4410   44.1200 C   0  0  0  0  0  0  0  0  0  0  0  0
   57.8020   32.6350   42.9880 C   0  0  0  0  0  0  0  0  0  0  0  0
   57.6290   31.2570   43.1270 C   0  0  0  0  0  0  0  0  0  0  0  0
   57.6130   30.6810   44.4000 C   0  0  0  0  0  0  0  0  0  0  0  0
   57.7670   31.4800   45.5370 C   0  0  0  0  0  0  0  0  0  0  0  0
   57.7610   30.8930   46.7590 F   0  0  0  0  0  0  0  0  0  0  0  0
   60.5120   33.5940   47.0320 C   0  0  0  0  0  0  0  0  0  0  0  0
   60.7140   34.2230   45.9540 O   0  0  0  0  0  0  0  0  0  0  0  0
   61.6060   33.1800   47.8010 C   0  0  0  0  0  0  0  0  0  0  0  0
   62.9270   33.4470   47.3860 C   0  0  0  0  0  0  0  0  0  0  0  0
   64.0080   33.0480   48.1680 C   0  0  0  0  0  0  0  0  0  0  0  0
   63.7880   32.3860   49.3720 C   0  0  0  0  0  0  0  0  0  0  0  0
   62.4880   32.1130   49.7980 C   0  0  0  0  0  0  0  0  0  0  0  0
   61.3660   32.4920   49.0160 C   0  0  0  0  0  0  0  0  0  0  0  0
   58.9830   28.1070   47.5310 C   0  0  0  0  0  0  0  0  0  0  0  0
   58.0542   28.3761   43.7553 H   0  0  0  0  0  0  0  0  0  0  0  0
   59.0472   26.9077   43.4650 H   0  0  0  0  0  0  0  0  0  0  0  0
   57.2545   26.7941   43.4650 H   0  0  0  0  0  0  0  0  0  0  0  0
   57.1208   27.1068   45.8190 H   0  0  0  0  0  0  0  0  0  0  0  0
   58.5153   25.9855   45.5824 H   0  0  0  0  0  0  0  0  0  0  0  0
   59.9706   28.7039   44.3075 H   0  0  0  0  0  0  0  0  0  0  0  0
   61.4702   30.3061   45.4899 H   0  0  0  0  0  0  0  0  0  0  0  0
   61.3768   30.5102   47.9725 H   0  0  0  0  0  0  0  0  0  0  0  0
   59.1081   32.1207   51.2871 H   0  0  0  0  0  0  0  0  0  0  0  0
   60.7055   31.2902   51.1891 H   0  0  0  0  0  0  0  0  0  0  0  0
   57.1601   33.6828   47.2285 H   0  0  0  0  0  0  0  0  0  0  0  0
   58.2382   34.7902   46.2930 H   0  0  0  0  0  0  0  0  0  0  0  0
   58.0928   34.5263   44.0041 H   0  0  0  0  0  0  0  0  0  0  0  0
   57.8172   33.0879   41.9857 H   0  0  0  0  0  0  0  0  0  0  0  0
   57.5054   30.6250   42.2352 H   0  0  0  0  0  0  0  0  0  0  0  0
   57.4787   29.5946   44.5080 H   0  0  0  0  0  0  0  0  0  0  0  0
   63.1049   33.9745   46.4373 H   0  0  0  0  0  0  0  0  0  0  0  0
   65.0352   33.2560   47.8341 H   0  0  0  0  0  0  0  0  0  0  0  0
   64.6432   32.0765   49.9908 H   0  0  0  0  0  0  0  0  0  0  0  0
   62.3300   31.5955   50.7557 H   0  0  0  0  0  0  0  0  0  0  0  0
   58.2886   27.4788   48.1083 H   0  0  0  0  0  0  0  0  0  0  0  0
  1  2  1  0
  2  3  1  0
  3  4  2  0
  4  5  1  0
  5  6  2  0
  6  7  1  0
  7  8  1  0
  8  9  1  0
  9 10  2  0
  9 11  1  0
 11 12  1  0
 12 13  1  0
 13 14  2  0
 13 15  1  0
 15 16  1  0
 16 17  1  0
 17 18  2  0
 18 19  1  0
 19 20  2  0
 20 21  1  0
 21 22  2  0
 22 23  1  0
 15 24  1  0
 24 25  2  0
 24 26  1  0
 26 27  2  0
 27 28  1  0
 28 29  2  0
 29 30  1  0
 30 31  2  0
  7 32  2  0
 32  3  1  0
 31 12  1  0
 22 17  1  0
 31 26  1  0
  1 33  1  0
  1 34  1  0
  1 35  1  0
  2 36  1  0
  2 37  1  0
  4 38  1  0
  5 39  1  0
  6 40  1  0
 11 41  1  0
 11 42  1  0
 16 43  1  0
 16 44  1  0
 18 45  1  0
 19 46  1  0
 20 47  1  0
 21 48  1  0
 27 49  1  0
 28 50  1  0
 29 51  1  0
 30 52  1  0
 32 53  1  0
M  CHG  1   8  -1
M  END
>  <UniqueID>  (17) 
15

>  <SMILES>  (17) 
CCc1cccc([N-]C(=O)Cn2c(=O)n(Cc3ccccc3F)c(=O)c3ccccc32)c1

>  <Energy>  (17) 
72.89101481819505

>  <Genealogy>  (17) 
CCc1cccc([N-]C(=O)Cn2c(=O)n(Cc3ccccc3F)c(=O)c3ccccc32)c1 (protonated)
CCc1cccc([N-]C(=O)Cn2c(=O)n(Cc3ccccc3F)c(=O)c3ccccc32)c1 (3D coordinates assigned)
CCc1cccc([N-]C(=O)Cn2c(=O)n(Cc3ccccc3F)c(=O)c3ccccc32)c1 (optimized conformer: 72.89101481819505 kcal/mol)

>  <smiles>  (17) 
CCc1cccc(NC(=O)Cn2c(=O)n(Cc3ccccc3F)c(=O)c3ccccc32)c1

>  <score_type>  (17) 
oracle

>  <origin>  (17) 
adg

>  <m_score__min__energy>  (17) 
-10.699999999999999

>  <m_primary>  (17) 
energy

$$$$
17:0
     RDKit          3D

 54 58  0  0  0  0  0  0  0  0999 V2000
   50.0510   33.6020   54.3030 O   0  0  0  0  0  0  0  0  0  0  0  0
   50.5950   32.8020   53.4970 C   0  0  0  0  0  0  0  0  0  0  0  0
   50.3340   32.8090   52.1690 N   0  0  0  0  0  0  0  0  0  0  0  0
   51.0530   31.8430   51.5380 C   0  0  0  0  0  0  0  0  0  0  0  0
   50.9940   31.5890   50.1660 C   0  0  0  0  0  0  0  0  0  0  0  0
   50.1740   32.3500   49.3380 O   0  0  0  0  0  0  0  0  0  0  0  0
   51.7710   30.5490   49.6340 C   0  0  0  0  0  0  0  0  0  0  0  0
   52.5950   29.7750   50.4730 C   0  0  0  0  0  0  0  0  0  0  0  0
   52.6710   30.0420   51.8560 C   0  0  0  0  0  0  0  0  0  0  0  0
   53.5350   29.1930   52.7520 C   0  0  0  0  0  0  0  0  0  0  0  0
   54.7620   28.6520   52.0110 C   0  0  0  0  0  0  0  0  0  0  0  0
   55.9940   29.1210   52.6630 N   0  0  0  0  0  0  0  0  0  0  0  0
   55.8800   30.5110   53.1280 C   0  0  0  0  0  0  0  0  0  0  0  0
   57.2630   31.1390   53.3540 C   0  0  0  0  0  0  0  0  0  0  0  0
   58.1270   31.0440   52.1210 C   0  0  0  0  0  0  0  0  0  0  0  0
   57.8540   31.8420   50.9990 C   0  0  0  0  0  0  0  0  0  0  0  0
   58.6310   31.7250   49.8430 C   0  0  0  0  0  0  0  0  0  0  0  0
   59.6760   30.7870   49.7790 C   0  0  0  0  0  0  0  0  0  0  0  0
   60.5110   30.6590   48.5630 C   0  0  0  0  0  0  0  0  0  0  0  0
   61.7810   31.1750   48.3970 C   0  0  0  0  0  0  0  0  0  0  0  0
   62.1910   30.9550   47.1350 N   0  0  0  0  0  0  0  0  0  0  0  0
   61.2360   30.3100   46.4850 N   0  0  0  0  0  0  0  0  0  0  0  0
   60.2010   30.1100   47.3240 C   0  0  0  0  0  0  0  0  0  0  0  0
   58.9950   29.3510   46.9330 C   0  0  0  0  0  0  0  0  0  0  0  0
   58.1250   29.8790   45.9640 C   0  0  0  0  0  0  0  0  0  0  0  0
   56.9910   29.1650   45.5690 C   0  0  0  0  0  0  0  0  0  0  0  0
   56.7240   27.9100   46.1220 C   0  0  0  0  0  0  0  0  0  0  0  0
   55.5960   27.2000   45.7270 O   0  0  0  0  0  0  0  0  0  0  0  0
   57.5950   27.3660   47.0690 C   0  0  0  0  0  0  0  0  0  0  0  0
   58.7310   28.0780   47.4700 C   0  0  0  0  0  0  0  0  0  0  0  0
   59.9520   29.9970   50.9070 C   0  0  0  0  0  0  0  0  0  0  0  0
   59.1810   30.1210   52.0670 C   0  0  0  0  0  0  0  0  0  0  0  0
   51.8740   31.0790   52.3600 C   0  0  0  0  0  0  0  0  0  0  0  0
   51.7100   31.6180   53.9480 S   0  0  0  0  0  0  0  0  0  0  0  0
   51.7362   30.3371   48.5552 H   0  0  0  0  0  0  0  0  0  0  0  0
   53.1866   28.9523   50.0450 H   0  0  0  0  0  0  0  0  0  0  0  0
   53.8729   29.8027   53.6030 H   0  0  0  0  0  0  0  0  0  0  0  0
   52.9359   28.3360   53.0935 H   0  0  0  0  0  0  0  0  0  0  0  0
   54.7394   27.5523   52.0243 H   0  0  0  0  0  0  0  0  0  0  0  0
   54.7440   29.0144   50.9726 H   0  0  0  0  0  0  0  0  0  0  0  0
   56.1650   28.5160   53.5010 H   0  0  0  0  0  0  0  0  0  0  0  0
   55.3389   31.0986   52.3717 H   0  0  0  0  0  0  0  0  0  0  0  0
   55.3370   30.5136   54.0846 H   0  0  0  0  0  0  0  0  0  0  0  0
   57.1343   32.1990   53.6184 H   0  0  0  0  0  0  0  0  0  0  0  0
   57.7614   30.5882   54.1653 H   0  0  0  0  0  0  0  0  0  0  0  0
   57.0241   32.5633   51.0296 H   0  0  0  0  0  0  0  0  0  0  0  0
   58.4233   32.3713   48.9775 H   0  0  0  0  0  0  0  0  0  0  0  0
   62.3662   31.6863   49.1755 H   0  0  0  0  0  0  0  0  0  0  0  0
   58.3380   30.8599   45.5140 H   0  0  0  0  0  0  0  0  0  0  0  0
   56.3068   29.5919   44.8209 H   0  0  0  0  0  0  0  0  0  0  0  0
   57.3874   26.3757   47.5005 H   0  0  0  0  0  0  0  0  0  0  0  0
   59.4199   27.6407   48.2077 H   0  0  0  0  0  0  0  0  0  0  0  0
   60.7813   29.2749   50.8777 H   0  0  0  0  0  0  0  0  0  0  0  0
   59.4025   29.4914   52.9413 H   0  0  0  0  0  0  0  0  0  0  0  0
  1  2  2  0
  2  3  1  0
  3  4  1  0
  4  5  2  0
  5  6  1  0
  5  7  1  0
  7  8  2  0
  8  9  1  0
  9 10  1  0
 10 11  1  0
 11 12  1  0
 12 13  1  0
 13 14  1  0
 14 15  1  0
 15 16  2  0
 16 17  1  0
 17 18  2  0
 18 19  1  0
 19 20  2  0
 20 21  1  0
 21 22  1  0
 22 23  2  0
 23 24  1  0
 24 25  2  0
 25 26  1  0
 26 27  2  0
 27 28  1  0
 27 29  1  0
 29 30  2  0
 18 31  1  0
 31 32  2  0
  9 33  2  0
 33 34  1  0
 34  2  1  0
 33  4  1  0
 32 15  1  0
 23 19  1  0
 30 24  1  0
  7 35  1  0
  8 36  1  0
 10 37  1  0
 10 38  1  0
 11 39  1  0
 11 40  1  0
 12 41  1  0
 13 42  1  0
 13 43  1  0
 14 44  1  0
 14 45  1  0
 16 46  1  0
 17 47  1  0
 20 48  1  0
 25 49  1  0
 26 50  1  0
 29 51  1  0
 30 52  1  0
 31 53  1  0
 32 54  1  0
M  CHG  4   3  -1   6  -1  21  -1  28  -1
M  END
>  <UniqueID>  (18) 
16

>  <SMILES>  (18) 
O=c1[n-]c2c([O-])ccc(CCNCCc3ccc(-c4c[n-]nc4-c4ccc([O-])cc4)cc3)c2s1

>  <Energy>  (18) 
126.2890441684332

>  <Genealogy>  (18) 
O=c1[n-]c2c([O-])ccc(CCNCCc3ccc(-c4c[n-]nc4-c4ccc([O-])cc4)cc3)c2s1 (protonated)
O=c1[n-]c2c([O-])ccc(CCNCCc3ccc(-c4c[n-]nc4-c4ccc([O-])cc4)cc3)c2s1 (3D coordinates assigned)
O=c1[n-]c2c([O-])ccc(CCNCCc3ccc(-c4c[n-]nc4-c4ccc([O-])cc4)cc3)c2s1 (optimized conformer: 126.2890441684332 kcal/mol)

>  <smiles>  (18) 
O=c1[nH]c2c(O)ccc(CCNCCc3ccc(-c4c[nH]nc4-c4ccc(O)cc4)cc3)c2s1

>  <score_type>  (18) 
oracle

>  <origin>  (18) 
adg

>  <m_score__min__energy>  (18) 
-20.280000000000001

>  <m_primary>  (18) 
energy

$$$$
18:0
     RDKit          3D

 52 55  0  0  0  0  0  0  0  0999 V2000
   57.8040   22.0570   46.5350 O   0  0  0  0  0  0  0  0  0  0  0  0
   56.8950   22.9260   46.6200 C   0  0  0  0  0  0  0  0  0  0  0  0
   55.6040   22.5240   47.0980 N   0  0  0  0  0  0  0  0  0  0  0  0
   55.2410   22.2990   48.4680 C   0  0  0  0  0  0  0  0  0  0  0  0
   53.9570   22.6680   48.8880 C   0  0  0  0  0  0  0  0  0  0  0  0
   53.5540   22.4560   50.2090 C   0  0  0  0  0  0  0  0  0  0  0  0
   54.4390   21.8860   51.1270 C   0  0  0  0  0  0  0  0  0  0  0  0
   53.9320   21.6130   52.7840 Cl  0  0  0  0  0  0  0  0  0  0  0  0
   55.7340   21.5440   50.7280 C   0  0  0  0  0  0  0  0  0  0  0  0
   56.1480   21.7620   49.4040 C   0  0  0  0  0  0  0  0  0  0  0  0
   57.4590   21.4680   49.0330 O   0  0  0  0  0  0  0  0  0  0  0  0
   57.2000   24.3330   46.2670 C   0  0  0  0  0  0  0  0  0  0  0  0
   58.4920   24.6980   45.8580 C   0  0  0  0  0  0  0  0  0  0  0  0
   58.7740   26.0200   45.5130 C   0  0  0  0  0  0  0  0  0  0  0  0
   57.7580   26.9880   45.5840 C   0  0  0  0  0  0  0  0  0  0  0  0
   58.0060   28.3640   45.2260 N   0  0  0  0  0  0  0  0  0  0  0  0
   58.6680   29.2580   46.1840 C   0  0  0  0  0  0  0  0  0  0  0  0
   59.3890   30.3880   45.4360 C   0  0  0  0  0  0  0  0  0  0  0  0
   58.5020   31.1470   44.5240 N   0  0  0  0  0  0  0  0  0  0  0  0
   58.0810   32.7070   45.1950 S   0  0  0  0  0  0  0  0  0  0  0  0
   56.6620   32.6740   45.6920 O   0  0  0  0  0  0  0  0  0  0  0  0
   58.1730   33.7520   44.1180 O   0  0  0  0  0  0  0  0  0  0  0  0
   59.1540   33.1470   46.5270 C   0  0  0  0  0  0  0  0  0  0  0  0
   58.6240   33.4800   47.7820 C   0  0  0  0  0  0  0  0  0  0  0  0
   59.4740   33.8540   48.8270 C   0  0  0  0  0  0  0  0  0  0  0  0
   60.8560   33.8940   48.6270 C   0  0  0  0  0  0  0  0  0  0  0  0
   61.3920   33.5550   47.3800 C   0  0  0  0  0  0  0  0  0  0  0  0
   63.2810   33.6110   47.1060 Br  0  0  0  0  0  0  0  0  0  0  0  0
   60.5440   33.1780   46.3340 C   0  0  0  0  0  0  0  0  0  0  0  0
   57.2820   30.4290   44.0960 C   0  0  0  0  0  0  0  0  0  0  0  0
   57.5170   28.9210   43.9570 C   0  0  0  0  0  0  0  0  0  0  0  0
   56.5200   26.6150   46.0120 N   0  0  0  0  0  0  0  0  0  0  0  0
   56.2210   25.3340   46.3520 C   0  0  0  0  0  0  0  0  0  0  0  0
   53.2601   23.1284   48.1722 H   0  0  0  0  0  0  0  0  0  0  0  0
   52.5392   22.7382   50.5261 H   0  0  0  0  0  0  0  0  0  0  0  0
   56.4320   21.1021   51.4543 H   0  0  0  0  0  0  0  0  0  0  0  0
   57.7610   21.5060   48.0660 H   0  0  0  0  0  0  0  0  0  0  0  0
   59.2859   23.9382   45.8092 H   0  0  0  0  0  0  0  0  0  0  0  0
   59.7859   26.3029   45.1873 H   0  0  0  0  0  0  0  0  0  0  0  0
   57.9148   29.6906   46.8590 H   0  0  0  0  0  0  0  0  0  0  0  0
   59.4038   28.6830   46.7654 H   0  0  0  0  0  0  0  0  0  0  0  0
   59.8073   31.0855   46.1766 H   0  0  0  0  0  0  0  0  0  0  0  0
   60.1703   29.9222   44.8174 H   0  0  0  0  0  0  0  0  0  0  0  0
   57.5366   33.4468   47.9446 H   0  0  0  0  0  0  0  0  0  0  0  0
   59.0537   34.1173   49.8088 H   0  0  0  0  0  0  0  0  0  0  0  0
   61.5226   34.1920   49.4497 H   0  0  0  0  0  0  0  0  0  0  0  0
   60.9677   32.9047   45.3564 H   0  0  0  0  0  0  0  0  0  0  0  0
   56.4917   30.5971   44.8424 H   0  0  0  0  0  0  0  0  0  0  0  0
   56.9898   30.8178   43.1094 H   0  0  0  0  0  0  0  0  0  0  0  0
   56.5712   28.4295   43.6850 H   0  0  0  0  0  0  0  0  0  0  0  0
   58.2701   28.7459   43.1745 H   0  0  0  0  0  0  0  0  0  0  0  0
   55.2071   25.0808   46.6953 H   0  0  0  0  0  0  0  0  0  0  0  0
  1  2  2  0
  2  3  1  0
  3  4  1  0
  4  5  2  0
  5  6  1  0
  6  7  2  0
  7  8  1  0
  7  9  1  0
  9 10  2  0
 10 11  1  0
  2 12  1  0
 12 13  2  0
 13 14  1  0
 14 15  2  0
 15 16  1  0
 16 17  1  0
 17 18  1  0
 18 19  1  0
 19 20  1  0
 20 21  2  0
 20 22  2  0
 20 23  1  0
 23 24  2  0
 24 25  1  0
 25 26  2  0
 26 27  1  0
 27 28  1  0
 27 29  2  0
 19 30  1  0
 30 31  1  0
 15 32  1  0
 32 33  2  0
 10  4  1  0
 33 12  1  0
 31 16  1  0
 29 23  1  0
  5 34  1  0
  6 35  1  0
  9 36  1  0
 11 37  1  0
 13 38  1  0
 14 39  1  0
 17 40  1  0
 17 41  1  0
 18 42  1  0
 18 43  1  0
 24 44  1  0
 25 45  1  0
 26 46  1  0
 29 47  1  0
 30 48  1  0
 30 49  1  0
 31 50  1  0
 31 51  1  0
 33 52  1  0
M  CHG  1   3  -1
M  END
>  <UniqueID>  (19) 
17

>  <SMILES>  (19) 
O=C([N-]c1ccc(Cl)cc1O)c1ccc(N2CCN(S(=O)(=O)c3cccc(Br)c3)CC2)nc1

>  <Energy>  (19) 
70.6012813868655

>  <Genealogy>  (19) 
O=C([N-]c1ccc(Cl)cc1O)c1ccc(N2CCN(S(=O)(=O)c3cccc(Br)c3)CC2)nc1 (protonated)
O=C([N-]c1ccc(Cl)cc1O)c1ccc(N2CCN(S(=O)(=O)c3cccc(Br)c3)CC2)nc1 (3D coordinates assigned)
O=C([N-]c1ccc(Cl)cc1O)c1ccc(N2CCN(S(=O)(=O)c3cccc(Br)c3)CC2)nc1 (nonaromatic ring conformer: 70.6012813868655 kcal/mol)

>  <smiles>  (19) 
O=C(Nc1ccc(Cl)cc1O)c1ccc(N2CCN(S(=O)(=O)c3cccc(Br)c3)CC2)nc1

>  <score_type>  (19) 
oracle

>  <origin>  (19) 
adg

>  <m_score__min__energy>  (19) 
-10.41

>  <m_primary>  (19) 
energy

$$$$
19:0
     RDKit          3D

 45 48  0  0  0  0  0  0  0  0999 V2000
   56.2720   21.4560   42.2540 N   0  0  0  0  0  0  0  0  0  0  0  0
   56.9170   22.2100   43.0670 C   0  0  0  0  0  0  0  0  0  0  0  0
   57.7700   21.6540   43.9450 N   0  0  0  0  0  0  0  0  0  0  0  0
   58.4840   22.3940   44.8340 C   0  0  0  0  0  0  0  0  0  0  0  0
   59.2610   21.7620   45.6180 N   0  0  0  0  0  0  0  0  0  0  0  0
   58.2940   23.7470   44.7940 C   0  0  0  0  0  0  0  0  0  0  0  0
   58.9920   24.5430   45.6710 C   0  0  0  0  0  0  0  0  0  0  0  0
   58.7780   25.8670   45.6020 N   0  0  0  0  0  0  0  0  0  0  0  0
   57.9370   26.4230   44.7350 C   0  0  0  0  0  0  0  0  0  0  0  0
   57.6900   27.8230   44.6380 N   0  0  0  0  0  0  0  0  0  0  0  0
   57.6750   28.5340   43.3750 C   0  0  0  0  0  0  0  0  0  0  0  0
   56.8550   29.7840   43.6000 C   0  0  0  0  0  0  0  0  0  0  0  0
   57.5600   30.6520   44.5080 N   0  0  0  0  0  0  0  0  0  0  0  0
   56.8250   31.8280   44.8490 C   0  0  0  0  0  0  0  0  0  0  0  0
   57.7970   32.8240   45.3890 C   0  0  0  0  0  0  0  0  0  0  0  0
   58.4890   33.6230   44.4830 C   0  0  0  0  0  0  0  0  0  0  0  0
   59.4100   34.5720   44.8980 C   0  0  0  0  0  0  0  0  0  0  0  0
   59.6560   34.7410   46.2280 C   0  0  0  0  0  0  0  0  0  0  0  0
   58.9750   33.9520   47.1510 C   0  0  0  0  0  0  0  0  0  0  0  0
   58.0490   32.9980   46.7160 C   0  0  0  0  0  0  0  0  0  0  0  0
   58.1470   29.9530   45.6240 C   0  0  0  0  0  0  0  0  0  0  0  0
   57.4320   28.6390   45.8330 C   0  0  0  0  0  0  0  0  0  0  0  0
   57.2710   25.6270   43.8940 N   0  0  0  0  0  0  0  0  0  0  0  0
   57.4210   24.2990   43.8940 C   0  0  0  0  0  0  0  0  0  0  0  0
   56.7400   23.5450   43.0390 N   0  0  0  0  0  0  0  0  0  0  0  0
   56.0550   21.7850   41.2950 H   0  0  0  0  0  0  0  0  0  0  0  0
   57.8710   20.6120   43.9270 H   0  0  0  0  0  0  0  0  0  0  0  0
   59.6290   20.8170   45.4910 H   0  0  0  0  0  0  0  0  0  0  0  0
   59.6962   24.1135   46.3987 H   0  0  0  0  0  0  0  0  0  0  0  0
   58.6996   28.7997   43.0755 H   0  0  0  0  0  0  0  0  0  0  0  0
   57.2468   27.9146   42.5731 H   0  0  0  0  0  0  0  0  0  0  0  0
   56.7004   30.3008   42.6414 H   0  0  0  0  0  0  0  0  0  0  0  0
   55.8779   29.5147   44.0275 H   0  0  0  0  0  0  0  0  0  0  0  0
   56.3294   32.2337   43.9546 H   0  0  0  0  0  0  0  0  0  0  0  0
   56.0509   31.5980   45.5959 H   0  0  0  0  0  0  0  0  0  0  0  0
   58.2994   33.4975   43.4068 H   0  0  0  0  0  0  0  0  0  0  0  0
   59.9408   35.1869   44.1563 H   0  0  0  0  0  0  0  0  0  0  0  0
   60.3842   35.4921   46.5681 H   0  0  0  0  0  0  0  0  0  0  0  0
   59.1659   34.0793   48.2268 H   0  0  0  0  0  0  0  0  0  0  0  0
   57.5176   32.3805   47.4552 H   0  0  0  0  0  0  0  0  0  0  0  0
   59.2105   29.7621   45.4177 H   0  0  0  0  0  0  0  0  0  0  0  0
   58.0519   30.5684   46.5308 H   0  0  0  0  0  0  0  0  0  0  0  0
   57.8220   28.1335   46.7287 H   0  0  0  0  0  0  0  0  0  0  0  0
   56.3531   28.7947   45.9804 H   0  0  0  0  0  0  0  0  0  0  0  0
   56.0920   24.0230   42.3790 H   0  0  0  0  0  0  0  0  0  0  0  0
  1  2  2  3
  2  3  1  0
  3  4  1  0
  4  5  2  3
  4  6  1  0
  6  7  2  0
  7  8  1  0
  8  9  2  0
  9 10  1  0
 10 11  1  0
 11 12  1  0
 12 13  1  0
 13 14  1  0
 14 15  1  0
 15 16  2  0
 16 17  1  0
 17 18  2  0
 18 19  1  0
 19 20  2  0
 13 21  1  0
 21 22  1  0
  9 23  1  0
 23 24  2  0
 24 25  1  0
 25  2  1  0
 24  6  1  0
 22 10  1  0
 20 15  1  0
  1 26  1  0
  3 27  1  0
  5 28  1  0
  7 29  1  0
 11 30  1  0
 11 31  1  0
 12 32  1  0
 12 33  1  0
 14 34  1  0
 14 35  1  0
 16 36  1  0
 17 37  1  0
 18 38  1  0
 19 39  1  0
 20 40  1  0
 21 41  1  0
 21 42  1  0
 22 43  1  0
 22 44  1  0
 25 45  1  0
M  END
>  <smiles>  (20) 
N=c1[nH]c(=N)c2cnc(N3CCN(Cc4ccccc4)CC3)nc2[nH]1

>  <score_type>  (20) 
oracle

>  <origin>  (20) 
adg

>  <m_score__min__energy>  (20) 
-9.1300000000000008

>  <m_primary>  (20) 
energy

$$$$
20:0
     RDKit          3D

 57 60  0  0  0  0  0  0  0  0999 V2000
   63.3830   33.8780   46.7320 C   0  0  0  0  0  0  0  0  0  0  0  0
   62.4470   32.7170   47.1310 C   0  0  0  0  0  0  0  0  0  0  0  0
   63.2690   31.6600   47.8940 C   0  0  0  0  0  0  0  0  0  0  0  0
   61.1930   33.1780   47.9490 C   0  0  1  0  0  0  0  0  0  0  0  0
   61.5010   33.1000   49.4720 C   0  0  0  0  0  0  0  0  0  0  0  0
   60.5250   33.8620   50.3900 C   0  0  0  0  0  0  0  0  0  0  0  0
   59.3920   32.9990   50.8970 C   0  0  0  0  0  0  0  0  0  0  0  0
   59.1560   31.7270   50.3470 C   0  0  0  0  0  0  0  0  0  0  0  0
   58.1210   30.9260   50.8360 C   0  0  0  0  0  0  0  0  0  0  0  0
   57.2990   31.3930   51.8650 C   0  0  0  0  0  0  0  0  0  0  0  0
   57.5110   32.6650   52.4040 C   0  0  0  0  0  0  0  0  0  0  0  0
   58.5500   33.4670   51.9220 C   0  0  0  0  0  0  0  0  0  0  0  0
   60.9550   34.5510   47.6000 O   0  0  0  0  0  0  0  0  0  0  0  0
   59.6160   34.9220   47.3060 C   0  0  0  0  0  0  0  0  0  0  0  0
   58.8920   33.9280   46.4570 C   0  0  0  0  0  0  0  0  0  0  0  0
   57.8980   34.2940   45.5490 C   0  0  0  0  0  0  0  0  0  0  0  0
   57.1650   33.3030   44.9010 C   0  0  0  0  0  0  0  0  0  0  0  0
   57.4150   31.9570   45.1900 C   0  0  0  0  0  0  0  0  0  0  0  0
   56.7150   31.0730   44.6250 O   0  0  0  0  0  0  0  0  0  0  0  0
   58.3910   31.6120   46.0950 N   0  0  0  0  0  0  0  0  0  0  0  0
   58.6620   30.2260   46.3920 C   0  0  0  0  0  0  0  0  0  0  0  0
   59.2420   29.9180   47.4690 O   0  0  0  0  0  0  0  0  0  0  0  0
   58.3320   29.2030   45.4380 N   0  0  0  0  0  0  0  0  0  0  0  0
   58.3030   27.7990   45.7520 C   0  0  0  0  0  0  0  0  0  0  0  0
   59.4870   27.0870   46.0200 C   0  0  0  0  0  0  0  0  0  0  0  0
   59.4360   25.7280   46.3430 C   0  0  0  0  0  0  0  0  0  0  0  0
   58.2070   25.0700   46.4160 C   0  0  0  0  0  0  0  0  0  0  0  0
   57.0230   25.7720   46.1720 C   0  0  0  0  0  0  0  0  0  0  0  0
   57.0670   27.1330   45.8480 C   0  0  0  0  0  0  0  0  0  0  0  0
   55.9080   27.7970   45.6100 F   0  0  0  0  0  0  0  0  0  0  0  0
   59.1180   32.5920   46.7200 C   0  0  0  0  0  0  0  0  0  0  0  0
   60.1120   32.2850   47.6410 O   0  0  0  0  0  0  0  0  0  0  0  0
   63.7735   34.3624   47.6391 H   0  0  0  0  0  0  0  0  0  0  0  0
   64.2204   33.4857   46.1363 H   0  0  0  0  0  0  0  0  0  0  0  0
   62.8220   34.6131   46.1363 H   0  0  0  0  0  0  0  0  0  0  0  0
   62.0351   32.2793   46.2097 H   0  0  0  0  0  0  0  0  0  0  0  0
   63.1494   31.8138   48.9766 H   0  0  0  0  0  0  0  0  0  0  0  0
   62.9132   30.6545   47.6250 H   0  0  0  0  0  0  0  0  0  0  0  0
   64.3312   31.7572   47.6250 H   0  0  0  0  0  0  0  0  0  0  0  0
   61.4847   32.0403   49.7665 H   0  0  0  0  0  0  0  0  0  0  0  0
   62.4794   33.5845   49.6058 H   0  0  0  0  0  0  0  0  0  0  0  0
   61.0857   34.2471   51.2545 H   0  0  0  0  0  0  0  0  0  0  0  0
   60.0792   34.6722   49.7944 H   0  0  0  0  0  0  0  0  0  0  0  0
   59.7902   31.3600   49.5265 H   0  0  0  0  0  0  0  0  0  0  0  0
   57.9529   29.9258   50.4102 H   0  0  0  0  0  0  0  0  0  0  0  0
   56.4860   30.7602   52.2504 H   0  0  0  0  0  0  0  0  0  0  0  0
   56.8593   33.0358   53.2088 H   0  0  0  0  0  0  0  0  0  0  0  0
   58.7098   34.4691   52.3466 H   0  0  0  0  0  0  0  0  0  0  0  0
   59.0697   35.0326   48.2543 H   0  0  0  0  0  0  0  0  0  0  0  0
   59.6596   35.8618   46.7359 H   0  0  0  0  0  0  0  0  0  0  0  0
   57.6951   35.3560   45.3467 H   0  0  0  0  0  0  0  0  0  0  0  0
   56.3938   33.5769   44.1660 H   0  0  0  0  0  0  0  0  0  0  0  0
   58.2000   29.4930   44.4440 H   0  0  0  0  0  0  0  0  0  0  0  0
   60.4576   27.6026   45.9751 H   0  0  0  0  0  0  0  0  0  0  0  0
   60.3666   25.1756   46.5402 H   0  0  0  0  0  0  0  0  0  0  0  0
   58.1702   23.9993   46.6655 H   0  0  0  0  0  0  0  0  0  0  0  0
   56.0548   25.2538   46.2348 H   0  0  0  0  0  0  0  0  0  0  0  0
  1  2  1  0
  2  3  1  0
  4  2  1  6
  4  5  1  0
  5  6  1  0
  6  7  1  0
  7  8  2  0
  8  9  1  0
  9 10  2  0
 10 11  1  0
 11 12  2  0
  4 13  1  0
 13 14  1  0
 14 15  1  0
 15 16  1  0
 16 17  2  0
 17 18  1  0
 18 19  2  0
 18 20  1  0
 20 21  1  0
 21 22  2  0
 21 23  1  0
 23 24  1  0
 24 25  2  0
 25 26  1  0
 26 27  2  0
 27 28  1  0
 28 29  2  0
 29 30  1  0
 20 31  1  0
 31 32  1  0
 32  4  1  0
 12  7  1  0
 31 15  2  0
 29 24  1  0
  1 33  1  0
  1 34  1  0
  1 35  1  0
  2 36  1  0
  3 37  1  0
  3 38  1  0
  3 39  1  0
  5 40  1  0
  5 41  1  0
  6 42  1  0
  6 43  1  0
  8 44  1  0
  9 45  1  0
 10 46  1  0
 11 47  1  0
 12 48  1  0
 14 49  1  0
 14 50  1  0
 16 51  1  0
 17 52  1  0
 23 53  1  0
 25 54  1  0
 26 55  1  0
 27 56  1  0
 28 57  1  0
M  END
>  <UniqueID>  (21) 
18

>  <SMILES>  (21) 
CC(C)[C@@]1(CCc2ccccc2)OCc2ccc(=O)n(C(=O)Nc3ccccc3F)c2O1

>  <Energy>  (21) 
78.76361860802311

>  <Genealogy>  (21) 
CC(C)[C@@]1(CCc2ccccc2)OCc2ccc(=O)n(C(=O)Nc3ccccc3F)c2O1 (chirality)
CC(C)[C@@]1(CCc2ccccc2)OCc2ccc(=O)n(C(=O)Nc3ccccc3F)c2O1 (3D coordinates assigned)
CC(C)[C@@]1(CCc2ccccc2)OCc2ccc(=O)n(C(=O)Nc3ccccc3F)c2O1 (nonaromatic ring conformer: 78.76361860802311 kcal/mol)

>  <smiles>  (21) 
CC(C)C1(CCc2ccccc2)OCc2ccc(=O)n(C(=O)Nc3ccccc3F)c2O1

>  <score_type>  (21) 
oracle

>  <origin>  (21) 
adg

>  <m_score__min__energy>  (21) 
-9.2799999999999994

>  <m_primary>  (21) 
energy

$$$$
21:0
     RDKit          3D

 56 59  0  0  1  0  0  0  0  0999 V2000
   55.9960   24.5390   44.6920 C   0  0  0  0  0  0  0  0  0  0  0  0
   56.3160   25.5640   46.0940 S   0  0  0  0  0  0  0  0  0  0  0  0
   55.3780   26.7550   45.9960 O   0  0  0  0  0  0  0  0  0  0  0  0
   55.8980   24.8410   47.3600 O   0  0  0  0  0  0  0  0  0  0  0  0
   57.9380   26.1520   46.1750 C   0  0  0  0  0  0  0  0  0  0  0  0
   59.0320   25.3090   46.1170 C   0  0  0  0  0  0  0  0  0  0  0  0
   60.3340   25.7820   46.1830 C   0  0  0  0  0  0  0  0  0  0  0  0
   58.9990   34.0900   46.0130 C   0  0  0  0  0  0  0  0  0  0  0  0
   58.8860   32.8220   45.5180 C   0  0  0  0  0  0  0  0  0  0  0  0
   58.9230   31.6990   46.3140 C   0  0  0  0  0  0  0  0  0  0  0  0
   58.7840   30.4580   45.6640 N   0  0  0  0  0  0  0  0  0  0  0  0
   57.7180   30.2080   44.9570 C   0  0  0  0  0  0  0  0  0  0  0  0
   55.7730   28.9380   44.5920 N   0  0  0  0  0  0  0  0  0  0  0  0
   55.4630   29.6490   43.5210 N   0  0  0  0  0  0  0  0  0  0  0  0
   56.2390   30.6690   43.0960 C   0  0  0  0  0  0  0  0  0  0  0  0
   57.3740   30.9340   43.8390 C   0  0  0  0  0  0  0  0  0  0  0  0
   56.8700   29.1740   45.3300 C   0  0  0  0  0  0  0  0  0  0  0  0
   57.1580   28.4700   46.3730 N   0  0  0  0  0  0  0  0  0  0  0  0
   58.2000   27.5030   46.3030 C   0  0  0  0  0  0  0  0  0  0  0  0
   59.5030   27.9860   46.3690 C   0  0  0  0  0  0  0  0  0  0  0  0
   60.5830   27.1380   46.3110 C   0  0  0  0  0  0  0  0  0  0  0  0
   59.1590   34.2930   47.3580 C   0  0  0  0  0  0  0  0  0  0  0  0
   59.1990   33.1790   48.1610 C   0  0  0  0  0  0  0  0  0  0  0  0
   59.0830   31.8740   47.6640 C   0  0  0  0  0  0  0  0  0  0  0  0
   59.1760   30.7960   48.6290 C   0  0  0  0  0  0  0  0  0  0  0  0
   58.1800   30.6250   49.3580 O   0  0  0  0  0  0  0  0  0  0  0  0
   60.3130   29.9250   48.8090 C   0  0  0  0  0  0  0  0  0  0  0  0
   61.5210   30.3320   49.0990 C   0  0  0  0  0  0  0  0  0  0  0  0
   62.1800   31.5490   48.7770 C   0  0  0  0  0  0  0  0  0  0  0  0
   62.7970   31.5920   47.5060 C   0  0  0  0  0  0  0  0  0  0  0  0
   63.3690   32.7260   47.0020 C   0  0  0  0  0  0  0  0  0  0  0  0
   63.3790   33.9040   47.7040 C   0  0  0  0  0  0  0  0  0  0  0  0
   62.7860   33.8990   48.9420 C   0  0  0  0  0  0  0  0  0  0  0  0
   62.1990   32.7320   49.4540 C   0  0  0  0  0  0  0  0  0  0  0  0
   55.6842   23.5402   45.0315 H   0  0  0  0  0  0  0  0  0  0  0  0
   55.1949   24.9868   44.0856 H   0  0  0  0  0  0  0  0  0  0  0  0
   56.9096   24.4515   44.0856 H   0  0  0  0  0  0  0  0  0  0  0  0
   58.8642   24.2267   46.0151 H   0  0  0  0  0  0  0  0  0  0  0  0
   61.1750   25.0747   46.1333 H   0  0  0  0  0  0  0  0  0  0  0  0
   58.9614   34.9509   45.3293 H   0  0  0  0  0  0  0  0  0  0  0  0
   58.7596   32.6919   44.4331 H   0  0  0  0  0  0  0  0  0  0  0  0
   55.1510   28.1720   44.8730 H   0  0  0  0  0  0  0  0  0  0  0  0
   54.5990   29.4230   42.9810 H   0  0  0  0  0  0  0  0  0  0  0  0
   55.9811   31.2589   42.2041 H   0  0  0  0  0  0  0  0  0  0  0  0
   58.0296   31.7592   43.5239 H   0  0  0  0  0  0  0  0  0  0  0  0
   59.6722   29.0682   46.4696 H   0  0  0  0  0  0  0  0  0  0  0  0
   61.6117   27.5240   46.3645 H   0  0  0  0  0  0  0  0  0  0  0  0
   59.2516   35.3056   47.7777 H   0  0  0  0  0  0  0  0  0  0  0  0
   59.3281   33.3180   49.2445 H   0  0  0  0  0  0  0  0  0  0  0  0
   60.1517   28.8430   48.6941 H   0  0  0  0  0  0  0  0  0  0  0  0
   62.1218   29.6204   49.6844 H   0  0  0  0  0  0  0  0  0  0  0  0
   62.8175   30.6755   46.8980 H   0  0  0  0  0  0  0  0  0  0  0  0
   63.8342   32.6931   46.0058 H   0  0  0  0  0  0  0  0  0  0  0  0
   63.8420   34.8132   47.2930 H   0  0  0  0  0  0  0  0  0  0  0  0
   62.7708   34.8219   49.5404 H   0  0  0  0  0  0  0  0  0  0  0  0
   61.7319   32.7737   50.4490 H   0  0  0  0  0  0  0  0  0  0  0  0
  1  2  1  0
  2  3  2  0
  2  4  2  0
  2  5  1  0
  5  6  2  0
  6  7  1  0
  7  8  2  0
  8  9  1  0
  9 10  2  0
 10 11  1  0
 11 12  2  0
 12 13  1  0
 13 14  1  0
 14 15  1  0
 15 16  2  0
 16 17  1  0
 17 18  2  0
 18 19  1  0
 19 20  2  0
 20 21  1  0
 21 22  2  0
 22 23  1  0
 23 24  2  0
 24 25  1  0
 25 26  2  0
 25 27  1  0
 27 28  2  0
 28 29  1  0
 29 30  2  0
 30 31  1  0
 31 32  2  0
 32 33  1  0
 33 34  2  0
 10  5  1  0
 17 12  1  0
 24 19  1  0
 34 29  1  0
  1 35  1  0
  1 36  1  0
  1 37  1  0
  6 38  1  0
  7 39  1  0
  8 40  1  0
  9 41  1  0
 13 42  1  0
 14 43  1  0
 15 44  1  0
 16 45  1  0
 20 46  1  0
 21 47  1  0
 22 48  1  0
 23 49  1  0
 27 50  1  0
 28 51  1  0
 30 52  1  0
 31 53  1  0
 32 54  1  0
 33 55  1  0
 34 56  1  0
M  END
>  <smiles>  (22) 
CS(=O)(=O)c1ccccc1N=c1[nH][nH]ccc1=Nc1ccccc1C(=O)C=Cc1ccccc1

>  <score_type>  (22) 
oracle

>  <origin>  (22) 
adg

>  <m_score__min__energy>  (22) 
-11.49

>  <m_primary>  (22) 
energy

$$$$
22:0
     RDKit          3D

 62 64  0  0  0  0  0  0  0  0999 V2000
   56.2460   30.0680   42.4700 C   0  0  0  0  0  0  0  0  0  0  0  0
   56.5780   30.0650   44.2200 S   0  0  0  0  0  0  0  0  0  0  0  0
   57.9390   29.4890   44.4950 O   0  0  0  0  0  0  0  0  0  0  0  0
   55.5470   29.2140   44.9090 O   0  0  0  0  0  0  0  0  0  0  0  0
   56.4800   31.6780   44.8520 N   0  0  0  0  0  0  0  0  0  0  0  0
   57.5510   32.4060   45.4640 C   0  0  0  0  0  0  0  0  0  0  0  0
   58.3720   33.1980   44.6530 C   0  0  0  0  0  0  0  0  0  0  0  0
   59.4220   33.9310   45.2070 C   0  0  0  0  0  0  0  0  0  0  0  0
   59.6660   33.8930   46.5830 C   0  0  0  0  0  0  0  0  0  0  0  0
   60.6980   34.6900   47.0980 O   0  0  0  0  0  0  0  0  0  0  0  0
   61.7730   34.2110   47.9020 C   0  0  0  0  0  0  0  0  0  0  0  0
   61.3600   34.1790   49.3770 C   0  0  0  0  0  0  0  0  0  0  0  0
   61.2250   32.7860   49.8710 N   0  0  0  0  0  0  0  0  0  0  0  0
   62.4150   31.9750   49.5290 C   0  0  0  0  0  0  0  0  0  0  0  0
   62.1620   30.5010   49.8750 C   0  0  0  0  0  0  0  0  0  0  0  0
   61.0120   29.9510   49.0740 C   0  0  0  0  0  0  0  0  0  0  0  0
   60.8680   30.2920   47.7220 C   0  0  0  0  0  0  0  0  0  0  0  0
   59.7980   29.7870   46.9790 C   0  0  0  0  0  0  0  0  0  0  0  0
   58.8580   28.9290   47.5700 C   0  0  0  0  0  0  0  0  0  0  0  0
   57.7790   28.4110   46.7730 N   0  0  0  0  0  0  0  0  0  0  0  0
   57.5040   26.7190   46.4980 S   0  0  0  0  0  0  0  0  0  0  0  0
   57.9790   26.2750   44.8410 C   0  0  0  0  0  0  0  0  0  0  0  0
   58.2720   25.9030   47.4990 O   0  0  0  0  0  0  0  0  0  0  0  0
   56.0370   26.4330   46.6620 O   0  0  0  0  0  0  0  0  0  0  0  0
   58.9870   28.6150   48.9360 C   0  0  0  0  0  0  0  0  0  0  0  0
   60.0560   29.1230   49.6810 C   0  0  0  0  0  0  0  0  0  0  0  0
   60.9280   32.7270   51.3270 C   0  0  0  0  0  0  0  0  0  0  0  0
   59.4580   32.5150   51.5630 C   0  0  0  0  0  0  0  0  0  0  0  0
   58.7830   33.0470   52.6760 C   0  0  0  0  0  0  0  0  0  0  0  0
   57.4350   32.7190   52.7190 C   0  0  0  0  0  0  0  0  0  0  0  0
   57.0910   31.7470   51.3920 S   0  0  0  0  0  0  0  0  0  0  0  0
   58.6440   31.7300   50.7500 C   0  0  0  0  0  0  0  0  0  0  0  0
   58.8570   33.0800   47.4000 C   0  0  0  0  0  0  0  0  0  0  0  0
   57.8050   32.3460   46.8460 C   0  0  0  0  0  0  0  0  0  0  0  0
   55.1588   30.0778   42.3031 H   0  0  0  0  0  0  0  0  0  0  0  0
   56.6952   30.9621   42.0131 H   0  0  0  0  0  0  0  0  0  0  0  0
   56.6790   29.1659   42.0131 H   0  0  0  0  0  0  0  0  0  0  0  0
   58.1878   33.2429   43.5695 H   0  0  0  0  0  0  0  0  0  0  0  0
   60.0629   34.5436   44.5559 H   0  0  0  0  0  0  0  0  0  0  0  0
   62.0433   33.1949   47.5787 H   0  0  0  0  0  0  0  0  0  0  0  0
   62.6346   34.8849   47.7860 H   0  0  0  0  0  0  0  0  0  0  0  0
   62.1242   34.6981   49.9741 H   0  0  0  0  0  0  0  0  0  0  0  0
   60.3841   34.6771   49.4743 H   0  0  0  0  0  0  0  0  0  0  0  0
   62.6211   32.0664   48.4524 H   0  0  0  0  0  0  0  0  0  0  0  0
   63.2781   32.3386   50.1059 H   0  0  0  0  0  0  0  0  0  0  0  0
   63.0677   29.9181   49.6518 H   0  0  0  0  0  0  0  0  0  0  0  0
   61.9123   30.4287   50.9438 H   0  0  0  0  0  0  0  0  0  0  0  0
   61.6001   30.9596   47.2443 H   0  0  0  0  0  0  0  0  0  0  0  0
   59.6914   30.0648   45.9200 H   0  0  0  0  0  0  0  0  0  0  0  0
   57.2060   29.0780   46.2060 H   0  0  0  0  0  0  0  0  0  0  0  0
   58.7821   25.5243   44.8785 H   0  0  0  0  0  0  0  0  0  0  0  0
   57.1109   25.8570   44.3103 H   0  0  0  0  0  0  0  0  0  0  0  0
   58.3375   27.1693   44.3103 H   0  0  0  0  0  0  0  0  0  0  0  0
   58.2425   27.9661   49.4205 H   0  0  0  0  0  0  0  0  0  0  0  0
   60.1476   28.8721   50.7481 H   0  0  0  0  0  0  0  0  0  0  0  0
   61.4893   31.8945   51.7763 H   0  0  0  0  0  0  0  0  0  0  0  0
   61.2254   33.6810   51.7869 H   0  0  0  0  0  0  0  0  0  0  0  0
   59.2767   33.6649   53.4405 H   0  0  0  0  0  0  0  0  0  0  0  0
   56.7168   33.0396   53.4880 H   0  0  0  0  0  0  0  0  0  0  0  0
   58.9624   31.1922   49.8448 H   0  0  0  0  0  0  0  0  0  0  0  0
   59.0544   33.0224   48.4806 H   0  0  0  0  0  0  0  0  0  0  0  0
   57.1735   31.7192   47.4928 H   0  0  0  0  0  0  0  0  0  0  0  0
  1  2  1  0
  2  3  2  0
  2  4  2  0
  2  5  1  0
  5  6  1  0
  6  7  2  0
  7  8  1  0
  8  9  2  0
  9 10  1  0
 10 11  1  0
 11 12  1  0
 12 13  1  0
 13 14  1  0
 14 15  1  0
 15 16  1  0
 16 17  2  0
 17 18  1  0
 18 19  2  0
 19 20  1  0
 20 21  1  0
 21 22  1  0
 21 23  2  0
 21 24  2  0
 19 25  1  0
 25 26  2  0
 13 27  1  0
 27 28  1  0
 28 29  1  0
 29 30  2  0
 30 31  1  0
 31 32  1  0
  9 33  1  0
 33 34  2  0
 34  6  1  0
 26 16  1  0
 32 28  2  0
  1 35  1  0
  1 36  1  0
  1 37  1  0
  7 38  1  0
  8 39  1  0
 11 40  1  0
 11 41  1  0
 12 42  1  0
 12 43  1  0
 14 44  1  0
 14 45  1  0
 15 46  1  0
 15 47  1  0
 17 48  1  0
 18 49  1  0
 20 50  1  0
 22 51  1  0
 22 52  1  0
 22 53  1  0
 25 54  1  0
 26 55  1  0
 27 56  1  0
 27 57  1  0
 29 58  1  0
 30 59  1  0
 32 60  1  0
 33 61  1  0
 34 62  1  0
M  CHG  1   5  -1
M  END
>  <UniqueID>  (23) 
19

>  <SMILES>  (23) 
CS(=O)(=O)[N-]c1ccc(OCCN(CCc2ccc(NS(C)(=O)=O)cc2)Cc2ccsc2)cc1

>  <Energy>  (23) 
84.8781679999304

>  <Genealogy>  (23) 
CS(=O)(=O)[N-]c1ccc(OCCN(CCc2ccc(NS(C)(=O)=O)cc2)Cc2ccsc2)cc1 (protonated)
CS(=O)(=O)[N-]c1ccc(OCCN(CCc2ccc(NS(C)(=O)=O)cc2)Cc2ccsc2)cc1 (3D coordinates assigned)
CS(=O)(=O)[N-]c1ccc(OCCN(CCc2ccc(NS(C)(=O)=O)cc2)Cc2ccsc2)cc1 (optimized conformer: 84.8781679999304 kcal/mol)

>  <smiles>  (23) 
CS(=O)(=O)Nc1ccc(CCN(CCOc2ccc(NS(C)(=O)=O)cc2)Cc2ccsc2)cc1

>  <score_type>  (23) 
oracle

>  <origin>  (23) 
adg

>  <m_score__min__energy>  (23) 
-11.01

>  <m_primary>  (23) 
energy

$$$$
23:0
     RDKit          3D

 59 63  0  0  0  0  0  0  0  0999 V2000
   56.1440   30.8760   51.3490 O   0  0  0  0  0  0  0  0  0  0  0  0
   57.3980   30.8340   51.2210 C   0  0  0  0  0  0  0  0  0  0  0  0
   58.1730   32.0860   50.9450 C   0  0  0  0  0  0  0  0  0  0  0  0
   59.4190   31.7860   50.0960 C   0  0  0  0  0  0  0  0  0  0  0  0
   60.2000   30.5930   50.6140 C   0  0  0  0  0  0  0  0  0  0  0  0
   59.5060   29.5160   51.2040 C   0  0  0  0  0  0  0  0  0  0  0  0
   60.1980   28.3690   51.6100 C   0  0  0  0  0  0  0  0  0  0  0  0
   61.5800   28.2870   51.4490 C   0  0  0  0  0  0  0  0  0  0  0  0
   62.2780   29.3440   50.8600 C   0  0  0  0  0  0  0  0  0  0  0  0
   61.5970   30.4890   50.4250 C   0  0  0  0  0  0  0  0  0  0  0  0
   62.3360   31.5330   49.7750 N   0  0  0  0  0  0  0  0  0  0  0  0
   62.7920   32.6960   50.5320 C   0  0  0  0  0  0  0  0  0  0  0  0
   62.3030   33.9900   49.8540 C   0  0  0  0  0  0  0  0  0  0  0  0
   62.2750   33.9290   48.3650 N   0  0  0  0  0  0  0  0  0  0  0  0
   60.9050   34.0190   47.8020 C   0  0  0  0  0  0  0  0  0  0  0  0
   60.7830   33.2350   46.4870 C   0  0  0  0  0  0  0  0  0  0  0  0
   59.3520   33.1660   46.0220 C   0  0  0  0  0  0  0  0  0  0  0  0
   58.4970   34.2690   46.1870 C   0  0  0  0  0  0  0  0  0  0  0  0
   57.1560   34.1830   45.8020 C   0  0  0  0  0  0  0  0  0  0  0  0
   56.6590   33.0000   45.2470 C   0  0  0  0  0  0  0  0  0  0  0  0
   57.5000   31.8960   45.0650 C   0  0  0  0  0  0  0  0  0  0  0  0
   56.9550   30.6880   44.5170 N   0  0  0  0  0  0  0  0  0  0  0  0
   56.7050   29.4760   45.2400 C   0  0  0  0  0  0  0  0  0  0  0  0
   55.5490   28.9780   45.2060 O   0  0  0  0  0  0  0  0  0  0  0  0
   57.7740   28.7690   45.9770 C   0  0  0  0  0  0  0  0  0  0  0  0
   58.4110   29.3130   47.1050 C   0  0  0  0  0  0  0  0  0  0  0  0
   59.3650   28.4770   47.6630 C   0  0  0  0  0  0  0  0  0  0  0  0
   59.4040   27.0570   46.7640 S   0  0  0  0  0  0  0  0  0  0  0  0
   58.2190   27.4880   45.6570 C   0  0  0  0  0  0  0  0  0  0  0  0
   58.8440   31.9750   45.4770 C   0  0  0  0  0  0  0  0  0  0  0  0
   63.0670   32.8100   47.7990 C   0  0  0  0  0  0  0  0  0  0  0  0
   62.6070   31.4470   48.3400 C   0  0  0  0  0  0  0  0  0  0  0  0
   58.0930   29.6010   51.4180 N   0  0  0  0  0  0  0  0  0  0  0  0
   57.5302   32.7949   50.4026 H   0  0  0  0  0  0  0  0  0  0  0  0
   58.4973   32.5163   51.9040 H   0  0  0  0  0  0  0  0  0  0  0  0
   59.1011   31.5785   49.0636 H   0  0  0  0  0  0  0  0  0  0  0  0
   60.0782   32.6652   50.1466 H   0  0  0  0  0  0  0  0  0  0  0  0
   59.6484   27.5282   52.0583 H   0  0  0  0  0  0  0  0  0  0  0  0
   62.1209   27.3903   51.7856 H   0  0  0  0  0  0  0  0  0  0  0  0
   63.3690   29.2772   50.7369 H   0  0  0  0  0  0  0  0  0  0  0  0
   62.3896   32.6459   51.5545 H   0  0  0  0  0  0  0  0  0  0  0  0
   63.8915   32.6980   50.5638 H   0  0  0  0  0  0  0  0  0  0  0  0
   61.2837   34.2013   50.2094 H   0  0  0  0  0  0  0  0  0  0  0  0
   63.0215   34.7781   50.1237 H   0  0  0  0  0  0  0  0  0  0  0  0
   60.1915   33.6072   48.5309 H   0  0  0  0  0  0  0  0  0  0  0  0
   60.6867   35.0769   47.5941 H   0  0  0  0  0  0  0  0  0  0  0  0
   61.3870   33.7340   45.7149 H   0  0  0  0  0  0  0  0  0  0  0  0
   61.1420   32.2096   46.6594 H   0  0  0  0  0  0  0  0  0  0  0  0
   58.8842   35.2029   46.6205 H   0  0  0  0  0  0  0  0  0  0  0  0
   56.4901   35.0482   45.9360 H   0  0  0  0  0  0  0  0  0  0  0  0
   55.6013   32.9365   44.9517 H   0  0  0  0  0  0  0  0  0  0  0  0
   58.1746   30.3091   47.5074 H   0  0  0  0  0  0  0  0  0  0  0  0
   59.9880   28.7031   48.5409 H   0  0  0  0  0  0  0  0  0  0  0  0
   57.8567   26.8676   44.8241 H   0  0  0  0  0  0  0  0  0  0  0  0
   59.5004   31.0986   45.3715 H   0  0  0  0  0  0  0  0  0  0  0  0
   62.9551   32.8137   46.7047 H   0  0  0  0  0  0  0  0  0  0  0  0
   64.1172   32.9549   48.0924 H   0  0  0  0  0  0  0  0  0  0  0  0
   61.6901   31.1397   47.8158 H   0  0  0  0  0  0  0  0  0  0  0  0
   63.4045   30.7085   48.1711 H   0  0  0  0  0  0  0  0  0  0  0  0
  1  2  2  0
  2  3  1  0
  3  4  1  0
  4  5  1  0
  5  6  2  0
  6  7  1  0
  7  8  2  0
  8  9  1  0
  9 10  2  0
 10 11  1  0
 11 12  1  0
 12 13  1  0
 13 14  1  0
 14 15  1  0
 15 16  1  0
 16 17  1  0
 17 18  2  0
 18 19  1  0
 19 20  2  0
 20 21  1  0
 21 22  1  0
 22 23  1  0
 23 24  2  0
 23 25  1  0
 25 26  1  0
 26 27  2  0
 27 28  1  0
 28 29  1  0
 21 30  2  0
 14 31  1  0
 31 32  1  0
  6 33  1  0
 33  2  1  0
 10  5  1  0
 32 11  1  0
 30 17  1  0
 29 25  2  0
  3 34  1  0
  3 35  1  0
  4 36  1  0
  4 37  1  0
  7 38  1  0
  8 39  1  0
  9 40  1  0
 12 41  1  0
 12 42  1  0
 13 43  1  0
 13 44  1  0
 15 45  1  0
 15 46  1  0
 16 47  1  0
 16 48  1  0
 18 49  1  0
 19 50  1  0
 20 51  1  0
 26 52  1  0
 27 53  1  0
 29 54  1  0
 30 55  1  0
 31 56  1  0
 31 57  1  0
 32 58  1  0
 32 59  1  0
M  CHG  2  22  -1  33  -1
M  END
>  <UniqueID>  (24) 
20

>  <SMILES>  (24) 
O=C1CCc2c(cccc2N2CCN(CCc3cccc([N-]C(=O)c4ccsc4)c3)CC2)[N-]1

>  <Energy>  (24) 
108.62565494773895

>  <Genealogy>  (24) 
O=C1CCc2c(cccc2N2CCN(CCc3cccc([N-]C(=O)c4ccsc4)c3)CC2)[N-]1 (protonated)
O=C1CCc2c(cccc2N2CCN(CCc3cccc([N-]C(=O)c4ccsc4)c3)CC2)[N-]1 (3D coordinates assigned)
O=C1CCc2c(cccc2N2CCN(CCc3cccc([N-]C(=O)c4ccsc4)c3)CC2)[N-]1 (nonaromatic ring conformer: 108.62565494773895 kcal/mol)

>  <smiles>  (24) 
O=C1CCc2c(cccc2N2CCN(CCc3cccc(NC(=O)c4ccsc4)c3)CC2)N1

>  <score_type>  (24) 
oracle

>  <origin>  (24) 
adg

>  <m_score__min__energy>  (24) 
-12.859999999999999

>  <m_primary>  (24) 
energy

$$$$
24:0
     RDKit          3D

 58 61  0  0  0  0  0  0  0  0999 V2000
   65.7230   32.9380   50.0900 C   0  0  0  0  0  0  0  0  0  0  0  0
   64.6030   32.3070   49.7250 C   0  0  0  0  0  0  0  0  0  0  0  0
   63.2390   32.7980   50.1300 C   0  0  0  0  0  0  0  0  0  0  0  0
   62.2030   32.4040   49.1700 N   0  0  0  0  0  0  0  0  0  0  0  0
   60.8630   32.2190   49.6530 C   0  0  0  0  0  0  0  0  0  0  0  0
   60.2540   33.2450   50.3920 C   0  0  0  0  0  0  0  0  0  0  0  0
   58.9570   33.0880   50.8820 C   0  0  0  0  0  0  0  0  0  0  0  0
   58.2610   31.9000   50.6560 C   0  0  0  0  0  0  0  0  0  0  0  0
   58.8580   30.8690   49.9270 C   0  0  0  0  0  0  0  0  0  0  0  0
   60.1530   31.0210   49.4040 C   0  0  0  0  0  0  0  0  0  0  0  0
   60.7810   29.8760   48.6600 C   0  0  0  0  0  0  0  0  0  0  0  0
   62.4020   32.7040   47.4640 S   0  0  0  0  0  0  0  0  0  0  0  0
   63.4000   33.8080   47.2510 O   0  0  0  0  0  0  0  0  0  0  0  0
   62.9120   31.4760   46.7630 O   0  0  0  0  0  0  0  0  0  0  0  0
   60.8460   33.1670   46.7920 C   0  0  0  0  0  0  0  0  0  0  0  0
   60.4250   34.5020   46.8630 C   0  0  0  0  0  0  0  0  0  0  0  0
   59.1570   34.8630   46.4020 C   0  0  0  0  0  0  0  0  0  0  0  0
   58.2990   33.8910   45.8810 C   0  0  0  0  0  0  0  0  0  0  0  0
   58.7000   32.5480   45.8180 C   0  0  0  0  0  0  0  0  0  0  0  0
   57.7900   31.5140   45.2780 C   0  0  0  0  0  0  0  0  0  0  0  0
   56.6410   31.8530   44.8740 O   0  0  0  0  0  0  0  0  0  0  0  0
   58.1790   30.1280   45.2330 N   0  0  0  0  0  0  0  0  0  0  0  0
   59.3900   29.7300   44.5080 C   0  0  0  0  0  0  0  0  0  0  0  0
   60.1280   28.6510   45.2940 C   0  0  0  0  0  0  0  0  0  0  0  0
   59.2000   27.5350   45.6980 C   0  0  0  0  0  0  0  0  0  0  0  0
   59.7360   26.2710   45.9970 C   0  0  0  0  0  0  0  0  0  0  0  0
   58.9020   25.2310   46.4120 C   0  0  0  0  0  0  0  0  0  0  0  0
   57.5300   25.4450   46.5470 C   0  0  0  0  0  0  0  0  0  0  0  0
   56.9870   26.7040   46.2750 C   0  0  0  0  0  0  0  0  0  0  0  0
   57.8130   27.7600   45.8590 C   0  0  0  0  0  0  0  0  0  0  0  0
   57.1810   29.0990   45.5510 C   0  0  0  0  0  0  0  0  0  0  0  0
   59.9860   32.1930   46.2660 C   0  0  0  0  0  0  0  0  0  0  0  0
   66.7019   32.5481   49.7740 H   0  0  0  0  0  0  0  0  0  0  0  0
   65.6661   33.8473   50.7064 H   0  0  0  0  0  0  0  0  0  0  0  0
   64.6804   31.3993   49.1085 H   0  0  0  0  0  0  0  0  0  0  0  0
   62.9885   32.3769   51.1148 H   0  0  0  0  0  0  0  0  0  0  0  0
   63.2705   33.8971   50.1620 H   0  0  0  0  0  0  0  0  0  0  0  0
   60.8025   34.1786   50.5861 H   0  0  0  0  0  0  0  0  0  0  0  0
   58.4820   33.9029   51.4479 H   0  0  0  0  0  0  0  0  0  0  0  0
   57.2423   31.7754   51.0519 H   0  0  0  0  0  0  0  0  0  0  0  0
   58.3096   29.9300   49.7610 H   0  0  0  0  0  0  0  0  0  0  0  0
   61.1811   29.1465   49.3796 H   0  0  0  0  0  0  0  0  0  0  0  0
   60.0233   29.3898   48.0279 H   0  0  0  0  0  0  0  0  0  0  0  0
   61.5982   30.2536   48.0279 H   0  0  0  0  0  0  0  0  0  0  0  0
   61.0947   35.2671   47.2827 H   0  0  0  0  0  0  0  0  0  0  0  0
   58.8335   35.9133   46.4491 H   0  0  0  0  0  0  0  0  0  0  0  0
   57.3020   34.1808   45.5176 H   0  0  0  0  0  0  0  0  0  0  0  0
   59.1116   29.3364   43.5193 H   0  0  0  0  0  0  0  0  0  0  0  0
   60.0457   30.6047   44.3858 H   0  0  0  0  0  0  0  0  0  0  0  0
   60.9325   28.2386   44.6674 H   0  0  0  0  0  0  0  0  0  0  0  0
   60.5395   29.1071   46.2065 H   0  0  0  0  0  0  0  0  0  0  0  0
   60.8186   26.0999   45.9036 H   0  0  0  0  0  0  0  0  0  0  0  0
   59.3275   24.2410   46.6329 H   0  0  0  0  0  0  0  0  0  0  0  0
   56.8747   24.6219   46.8679 H   0  0  0  0  0  0  0  0  0  0  0  0
   55.9052   26.8683   46.3877 H   0  0  0  0  0  0  0  0  0  0  0  0
   56.5071   28.9820   44.6895 H   0  0  0  0  0  0  0  0  0  0  0  0
   56.6347   29.4267   46.4477 H   0  0  0  0  0  0  0  0  0  0  0  0
   60.3179   31.1462   46.2031 H   0  0  0  0  0  0  0  0  0  0  0  0
  1  2  2  0
  2  3  1  0
  3  4  1  0
  4  5  1  0
  5  6  2  0
  6  7  1  0
  7  8  2  0
  8  9  1  0
  9 10  2  0
 10 11  1  0
  4 12  1  0
 12 13  2  0
 12 14  2  0
 12 15  1  0
 15 16  2  0
 16 17  1  0
 17 18  2  0
 18 19  1  0
 19 20  1  0
 20 21  2  0
 20 22  1  0
 22 23  1  0
 23 24  1  0
 24 25  1  0
 25 26  2  0
 26 27  1  0
 27 28  2  0
 28 29  1  0
 29 30  2  0
 30 31  1  0
 19 32  2  0
 10  5  1  0
 32 15  1  0
 31 22  1  0
 30 25  1  0
  1 33  1  0
  1 34  1  0
  2 35  1  0
  3 36  1  0
  3 37  1  0
  6 38  1  0
  7 39  1  0
  8 40  1  0
  9 41  1  0
 11 42  1  0
 11 43  1  0
 11 44  1  0
 16 45  1  0
 17 46  1  0
 18 47  1  0
 23 48  1  0
 23 49  1  0
 24 50  1  0
 24 51  1  0
 26 52  1  0
 27 53  1  0
 28 54  1  0
 29 55  1  0
 31 56  1  0
 31 57  1  0
 32 58  1  0
M  END
>  <UniqueID>  (25) 
21

>  <SMILES>  (25) 
C=CCN(c1ccccc1C)S(=O)(=O)c1cccc(C(=O)N2CCc3ccccc3C2)c1

>  <Energy>  (25) 
70.75999966745844

>  <Genealogy>  (25) 
C=CCN(c1ccccc1C)S(=O)(=O)c1cccc(C(=O)N2CCc3ccccc3C2)c1 (3D coordinates assigned)
C=CCN(c1ccccc1C)S(=O)(=O)c1cccc(C(=O)N2CCc3ccccc3C2)c1 (nonaromatic ring conformer: 70.75999966745844 kcal/mol)

>  <smiles>  (25) 
C=CCN(c1ccccc1C)S(=O)(=O)c1cccc(C(=O)N2CCc3ccccc3C2)c1

>  <score_type>  (25) 
oracle

>  <origin>  (25) 
adg

>  <m_score__min__energy>  (25) 
-10.06

>  <m_primary>  (25) 
energy

$$$$
25:0
     RDKit          3D

 39 41  0  0  0  0  0  0  0  0999 V2000
   60.3730   25.1010   46.0080 O   0  0  0  0  0  0  0  0  0  0  0  0
   59.4440   25.9160   45.8270 N   0  0  0  0  0  0  0  0  0  0  0  0
   58.3510   25.5210   45.0900 O   0  0  0  0  0  0  0  0  0  0  0  0
   59.5160   27.2440   46.3760 C   0  0  0  0  0  0  0  0  0  0  0  0
   58.7110   27.6150   47.4700 C   0  0  0  0  0  0  0  0  0  0  0  0
   58.7900   28.9050   48.0020 C   0  0  0  0  0  0  0  0  0  0  0  0
   59.6730   29.8400   47.4540 C   0  0  0  0  0  0  0  0  0  0  0  0
   59.7980   31.4850   48.1570 S   0  0  0  0  0  0  0  0  0  0  0  0
   58.9470   32.2460   46.7680 C   0  0  0  0  0  0  0  0  0  0  0  0
   58.1530   31.4410   45.9400 C   0  0  0  0  0  0  0  0  0  0  0  0
   57.4370   32.0010   44.8670 C   0  0  0  0  0  0  0  0  0  0  0  0
   56.6170   31.1740   44.0200 N   0  0  0  0  0  0  0  0  0  0  0  0
   55.7310   30.4420   44.5090 O   0  0  0  0  0  0  0  0  0  0  0  0
   56.7950   31.1790   42.6550 O   0  0  0  0  0  0  0  0  0  0  0  0
   57.5340   33.3820   44.6310 C   0  0  0  0  0  0  0  0  0  0  0  0
   58.3280   34.1870   45.4520 C   0  0  0  0  0  0  0  0  0  0  0  0
   59.0350   33.6290   46.5270 C   0  0  0  0  0  0  0  0  0  0  0  0
   59.8650   34.4620   47.3530 N   0  0  0  0  0  0  0  0  0  0  0  0
   61.2330   34.1540   47.6770 C   0  0  0  0  0  0  0  0  0  0  0  0
   62.1080   33.7480   46.6580 C   0  0  0  0  0  0  0  0  0  0  0  0
   63.4310   33.4100   46.9550 C   0  0  0  0  0  0  0  0  0  0  0  0
   63.8880   33.4610   48.2750 C   0  0  0  0  0  0  0  0  0  0  0  0
   63.0190   33.8450   49.3000 C   0  0  0  0  0  0  0  0  0  0  0  0
   61.6950   34.1870   49.0060 C   0  0  0  0  0  0  0  0  0  0  0  0
   60.4660   29.4860   46.3570 C   0  0  0  0  0  0  0  0  0  0  0  0
   60.3930   28.1960   45.8240 C   0  0  0  0  0  0  0  0  0  0  0  0
   58.0153   26.8847   47.9089 H   0  0  0  0  0  0  0  0  0  0  0  0
   58.1549   29.1856   48.8552 H   0  0  0  0  0  0  0  0  0  0  0  0
   58.0892   30.3597   46.1314 H   0  0  0  0  0  0  0  0  0  0  0  0
   56.9810   33.8332   43.7939 H   0  0  0  0  0  0  0  0  0  0  0  0
   58.3991   35.2666   45.2536 H   0  0  0  0  0  0  0  0  0  0  0  0
   59.4570   35.3530   47.7170 H   0  0  0  0  0  0  0  0  0  0  0  0
   61.7504   33.6955   45.6191 H   0  0  0  0  0  0  0  0  0  0  0  0
   64.1137   33.1034   46.1489 H   0  0  0  0  0  0  0  0  0  0  0  0
   64.9309   33.1991   48.5069 H   0  0  0  0  0  0  0  0  0  0  0  0
   63.3769   33.8783   50.3396 H   0  0  0  0  0  0  0  0  0  0  0  0
   61.0125   34.4828   49.8163 H   0  0  0  0  0  0  0  0  0  0  0  0
   61.1489   30.2251   45.9127 H   0  0  0  0  0  0  0  0  0  0  0  0
   61.0258   27.9229   44.9667 H   0  0  0  0  0  0  0  0  0  0  0  0
  1  2  2  0
  2  3  1  0
  2  4  1  0
  4  5  2  0
  5  6  1  0
  6  7  2  0
  7  8  1  0
  8  9  1  0
  9 10  2  0
 10 11  1  0
 11 12  1  0
 12 13  2  0
 12 14  1  0
 11 15  2  0
 15 16  1  0
 16 17  2  0
 17 18  1  0
 18 19  1  0
 19 20  2  0
 20 21  1  0
 21 22  2  0
 22 23  1  0
 23 24  2  0
  7 25  1  0
 25 26  2  0
 26  4  1  0
 17  9  1  0
 24 19  1  0
  5 27  1  0
  6 28  1  0
 10 29  1  0
 15 30  1  0
 16 31  1  0
 18 32  1  0
 20 33  1  0
 21 34  1  0
 22 35  1  0
 23 36  1  0
 24 37  1  0
 25 38  1  0
 26 39  1  0
M  CHG  4   2   1   3  -1  12   1  14  -1
M  END
>  <UniqueID>  (26) 
22

>  <SMILES>  (26) 
O=[N+]([O-])c1ccc(Sc2cc([N+](=O)[O-])ccc2Nc2ccccc2)cc1

>  <Energy>  (26) 
44.332476587671145

>  <Genealogy>  (26) 
O=[N+]([O-])c1ccc(Sc2cc([N+](=O)[O-])ccc2Nc2ccccc2)cc1 (3D coordinates assigned)
O=[N+]([O-])c1ccc(Sc2cc([N+](=O)[O-])ccc2Nc2ccccc2)cc1 (optimized conformer: 44.332476587671145 kcal/mol)

>  <smiles>  (26) 
O=[N+]([O-])c1ccc(Sc2cc([N+](=O)[O-])ccc2Nc2ccccc2)cc1

>  <score_type>  (26) 
oracle

>  <origin>  (26) 
adg

>  <m_score__min__energy>  (26) 
-8.4000000000000004

>  <m_primary>  (26) 
energy

$$$$
26:0
     RDKit          3D

 40 41  0  0  0  0  0  0  0  0999 V2000
   58.7130   28.6690   44.1590 C   0  0  0  0  0  0  0  0  0  0  0  0
   57.7210   28.9370   45.2040 N   0  0  0  0  0  0  0  0  0  0  0  0
   57.8990   28.3870   46.5540 C   0  0  0  0  0  0  0  0  0  0  0  0
   57.5910   26.9230   46.5370 C   0  0  0  0  0  0  0  0  0  0  0  0
   58.1360   26.1570   47.3770 O   0  0  0  0  0  0  0  0  0  0  0  0
   56.6150   26.4120   45.6200 N   0  0  0  0  0  0  0  0  0  0  0  0
   55.8480   25.2050   45.9050 C   0  0  0  0  0  0  0  0  0  0  0  0
   56.3390   24.0710   45.0440 C   0  0  0  0  0  0  0  0  0  0  0  0
   55.6990   23.7890   43.8250 C   0  0  0  0  0  0  0  0  0  0  0  0
   56.1280   22.7190   43.0350 C   0  0  0  0  0  0  0  0  0  0  0  0
   57.1990   21.9240   43.4540 C   0  0  0  0  0  0  0  0  0  0  0  0
   57.8340   22.1930   44.6700 C   0  0  0  0  0  0  0  0  0  0  0  0
   57.4050   23.2590   45.4660 C   0  0  0  0  0  0  0  0  0  0  0  0
   56.5110   29.6440   44.8690 C   0  0  0  0  0  0  0  0  0  0  0  0
   55.4050   29.0380   44.8870 O   0  0  0  0  0  0  0  0  0  0  0  0
   56.5650   31.0410   44.5480 N   0  0  0  0  0  0  0  0  0  0  0  0
   57.4080   32.0350   45.1480 C   0  0  0  0  0  0  0  0  0  0  0  0
   58.1280   31.6930   46.3010 C   0  0  0  0  0  0  0  0  0  0  0  0
   58.9910   32.6170   46.8970 C   0  0  0  0  0  0  0  0  0  0  0  0
   59.1530   33.8870   46.3370 C   0  0  0  0  0  0  0  0  0  0  0  0
   58.4570   34.2320   45.1770 C   0  0  0  0  0  0  0  0  0  0  0  0
   57.5890   33.3110   44.5790 C   0  0  0  0  0  0  0  0  0  0  0  0
   59.6751   28.4091   44.6247 H   0  0  0  0  0  0  0  0  0  0  0  0
   58.3700   27.8313   43.5340 H   0  0  0  0  0  0  0  0  0  0  0  0
   58.8385   29.5654   43.5340 H   0  0  0  0  0  0  0  0  0  0  0  0
   58.9388   28.5398   46.8787 H   0  0  0  0  0  0  0  0  0  0  0  0
   57.2197   28.8980   47.2522 H   0  0  0  0  0  0  0  0  0  0  0  0
   56.3180   27.0080   44.8150 H   0  0  0  0  0  0  0  0  0  0  0  0
   55.9695   24.9373   46.9650 H   0  0  0  0  0  0  0  0  0  0  0  0
   54.7858   25.3910   45.6881 H   0  0  0  0  0  0  0  0  0  0  0  0
   54.8569   24.4131   43.4913 H   0  0  0  0  0  0  0  0  0  0  0  0
   55.6224   22.5020   42.0825 H   0  0  0  0  0  0  0  0  0  0  0  0
   57.5417   21.0875   42.8273 H   0  0  0  0  0  0  0  0  0  0  0  0
   58.6735   21.5641   45.0013 H   0  0  0  0  0  0  0  0  0  0  0  0
   57.9033   23.4626   46.4253 H   0  0  0  0  0  0  0  0  0  0  0  0
   58.0131   30.6908   46.7397 H   0  0  0  0  0  0  0  0  0  0  0  0
   59.5435   32.3440   47.8082 H   0  0  0  0  0  0  0  0  0  0  0  0
   59.8288   34.6147   46.8101 H   0  0  0  0  0  0  0  0  0  0  0  0
   58.5909   35.2291   44.7323 H   0  0  0  0  0  0  0  0  0  0  0  0
   57.0465   33.5844   43.6619 H   0  0  0  0  0  0  0  0  0  0  0  0
  1  2  1  0
  2  3  1  0
  3  4  1  0
  4  5  2  0
  4  6  1  0
  6  7  1  0
  7  8  1  0
  8  9  2  0
  9 10  1  0
 10 11  2  0
 11 12  1  0
 12 13  2  0
  2 14  1  0
 14 15  2  0
 14 16  1  0
 16 17  1  0
 17 18  2  0
 18 19  1  0
 19 20  2  0
 20 21  1  0
 21 22  2  0
 13  8  1  0
 22 17  1  0
  1 23  1  0
  1 24  1  0
  1 25  1  0
  3 26  1  0
  3 27  1  0
  6 28  1  0
  7 29  1  0
  7 30  1  0
  9 31  1  0
 10 32  1  0
 11 33  1  0
 12 34  1  0
 13 35  1  0
 18 36  1  0
 19 37  1  0
 20 38  1  0
 21 39  1  0
 22 40  1  0
M  CHG  1  16  -1
M  END
>  <UniqueID>  (27) 
23

>  <SMILES>  (27) 
CN(CC(=O)NCc1ccccc1)C(=O)[N-]c1ccccc1

>  <Energy>  (27) 
33.56603233247016

>  <Genealogy>  (27) 
CN(CC(=O)NCc1ccccc1)C(=O)[N-]c1ccccc1 (protonated)
CN(CC(=O)NCc1ccccc1)C(=O)[N-]c1ccccc1 (3D coordinates assigned)
CN(CC(=O)NCc1ccccc1)C(=O)[N-]c1ccccc1 (optimized conformer: 33.56603233247016 kcal/mol)

>  <smiles>  (27) 
CN(CC(=O)NCc1ccccc1)C(=O)Nc1ccccc1

>  <score_type>  (27) 
oracle

>  <origin>  (27) 
adg

>  <m_score__min__energy>  (27) 
-9.6699999999999999

>  <m_primary>  (27) 
energy

$$$$
27:0
     RDKit          3D

 62 64  0  0  0  0  0  0  0  0999 V2000
   62.3100   33.3460   46.7720 C   0  0  0  0  0  0  0  0  0  0  0  0
   61.3370   32.8950   47.8270 C   0  0  0  0  0  0  0  0  0  0  0  0
   60.8620   33.8120   48.7760 C   0  0  0  0  0  0  0  0  0  0  0  0
   59.9920   33.3960   49.7810 C   0  0  0  0  0  0  0  0  0  0  0  0
   59.5700   32.0680   49.8410 C   0  0  0  0  0  0  0  0  0  0  0  0
   60.0220   31.1310   48.8960 C   0  0  0  0  0  0  0  0  0  0  0  0
   59.4730   29.7590   48.9440 C   0  0  0  0  0  0  0  0  0  0  0  0
   58.9630   29.3250   50.0150 O   0  0  0  0  0  0  0  0  0  0  0  0
   59.4610   28.9670   47.7890 O   0  0  0  0  0  0  0  0  0  0  0  0
   60.0370   27.6630   47.7270 C   0  0  0  0  0  0  0  0  0  0  0  0
   59.0070   26.6260   47.3560 C   0  0  0  0  0  0  0  0  0  0  0  0
   58.5810   25.8510   48.2560 O   0  0  0  0  0  0  0  0  0  0  0  0
   58.4370   26.5510   46.0260 N   0  0  0  0  0  0  0  0  0  0  0  0
   58.6870   25.4110   45.1180 C   0  0  0  0  0  0  0  0  0  0  0  0
   57.5420   24.3690   45.1010 C   0  0  0  0  0  0  0  0  0  0  0  0
   58.0190   22.9650   45.4980 C   0  0  0  0  0  0  0  0  0  0  0  0
   56.7810   24.3330   43.7690 C   0  0  0  0  0  0  0  0  0  0  0  0
   57.7080   27.6930   45.5300 C   0  0  0  0  0  0  0  0  0  0  0  0
   58.3800   28.8150   44.9960 C   0  0  0  0  0  0  0  0  0  0  0  0
   59.8180   28.8550   45.0460 N   0  0  0  0  0  0  0  0  0  0  0  0
   57.6520   29.8760   44.4900 N   0  0  0  0  0  0  0  0  0  0  0  0
   58.3310   31.0670   43.9310 C   0  0  0  0  0  0  0  0  0  0  0  0
   58.3060   32.2190   44.9070 C   0  0  0  0  0  0  0  0  0  0  0  0
   57.8580   32.0240   46.2270 C   0  0  0  0  0  0  0  0  0  0  0  0
   57.8220   33.0940   47.1250 C   0  0  0  0  0  0  0  0  0  0  0  0
   58.2200   34.3690   46.7120 C   0  0  0  0  0  0  0  0  0  0  0  0
   58.6470   34.5770   45.3970 C   0  0  0  0  0  0  0  0  0  0  0  0
   58.6840   33.5090   44.4950 C   0  0  0  0  0  0  0  0  0  0  0  0
   56.2780   29.8450   44.5540 C   0  0  0  0  0  0  0  0  0  0  0  0
   55.5860   30.8020   44.1110 O   0  0  0  0  0  0  0  0  0  0  0  0
   55.6370   28.7880   45.1090 N   0  0  0  0  0  0  0  0  0  0  0  0
   56.3120   27.7260   45.6020 C   0  0  0  0  0  0  0  0  0  0  0  0
   55.6720   26.7700   46.1150 O   0  0  0  0  0  0  0  0  0  0  0  0
   60.9480   31.5420   47.9030 C   0  0  0  0  0  0  0  0  0  0  0  0
   61.5220   30.6330   47.0090 O   0  0  0  0  0  0  0  0  0  0  0  0
   63.2070   33.7618   47.2542 H   0  0  0  0  0  0  0  0  0  0  0  0
   62.5949   32.4881   46.1452 H   0  0  0  0  0  0  0  0  0  0  0  0
   61.8395   34.1179   46.1452 H   0  0  0  0  0  0  0  0  0  0  0  0
   61.1780   34.8645   48.7264 H   0  0  0  0  0  0  0  0  0  0  0  0
   59.6362   34.1180   50.5307 H   0  0  0  0  0  0  0  0  0  0  0  0
   58.8775   31.7513   50.6348 H   0  0  0  0  0  0  0  0  0  0  0  0
   60.8366   27.6601   46.9716 H   0  0  0  0  0  0  0  0  0  0  0  0
   60.4388   27.4134   48.7201 H   0  0  0  0  0  0  0  0  0  0  0  0
   58.8172   25.8012   44.0978 H   0  0  0  0  0  0  0  0  0  0  0  0
   59.5862   24.8960   45.4871 H   0  0  0  0  0  0  0  0  0  0  0  0
   56.8311   24.7089   45.8685 H   0  0  0  0  0  0  0  0  0  0  0  0
   58.0467   22.8836   46.5946 H   0  0  0  0  0  0  0  0  0  0  0  0
   57.3257   22.2137   45.0919 H   0  0  0  0  0  0  0  0  0  0  0  0
   59.0265   22.7916   45.0919 H   0  0  0  0  0  0  0  0  0  0  0  0
   55.6999   24.2819   43.9656 H   0  0  0  0  0  0  0  0  0  0  0  0
   57.0063   25.2428   43.1933 H   0  0  0  0  0  0  0  0  0  0  0  0
   57.0912   23.4485   43.1933 H   0  0  0  0  0  0  0  0  0  0  0  0
   60.3950   28.4550   44.2730 H   0  0  0  0  0  0  0  0  0  0  0  0
   60.3470   29.2690   45.8410 H   0  0  0  0  0  0  0  0  0  0  0  0
   59.3767   30.8108   43.7053 H   0  0  0  0  0  0  0  0  0  0  0  0
   57.8004   31.3733   43.0174 H   0  0  0  0  0  0  0  0  0  0  0  0
   57.5347   31.0245   46.5533 H   0  0  0  0  0  0  0  0  0  0  0  0
   57.4801   32.9330   48.1580 H   0  0  0  0  0  0  0  0  0  0  0  0
   58.1972   35.2089   47.4220 H   0  0  0  0  0  0  0  0  0  0  0  0
   58.9542   35.5819   45.0716 H   0  0  0  0  0  0  0  0  0  0  0  0
   59.0103   33.6790   43.4584 H   0  0  0  0  0  0  0  0  0  0  0  0
   61.3420   29.6380   47.0340 H   0  0  0  0  0  0  0  0  0  0  0  0
  1  2  1  0
  2  3  2  0
  3  4  1  0
  4  5  2  0
  5  6  1  0
  6  7  1  0
  7  8  2  0
  7  9  1  0
  9 10  1  0
 10 11  1  0
 11 12  2  0
 11 13  1  0
 13 14  1  0
 14 15  1  0
 15 16  1  0
 15 17  1  0
 13 18  1  0
 18 19  2  0
 19 20  1  0
 19 21  1  0
 21 22  1  0
 22 23  1  0
 23 24  2  0
 24 25  1  0
 25 26  2  0
 26 27  1  0
 27 28  2  0
 21 29  1  0
 29 30  2  0
 29 31  1  0
 31 32  1  0
 32 33  2  0
  6 34  2  0
 34 35  1  0
 34  2  1  0
 32 18  1  0
 28 23  1  0
  1 36  1  0
  1 37  1  0
  1 38  1  0
  3 39  1  0
  4 40  1  0
  5 41  1  0
 10 42  1  0
 10 43  1  0
 14 44  1  0
 14 45  1  0
 15 46  1  0
 16 47  1  0
 16 48  1  0
 16 49  1  0
 17 50  1  0
 17 51  1  0
 17 52  1  0
 20 53  1  0
 20 54  1  0
 22 55  1  0
 22 56  1  0
 24 57  1  0
 25 58  1  0
 26 59  1  0
 27 60  1  0
 28 61  1  0
 35 62  1  0
M  CHG  1  31  -1
M  END
>  <UniqueID>  (28) 
24

>  <SMILES>  (28) 
Cc1cccc(C(=O)OCC(=O)N(CC(C)C)c2c(N)n(Cc3ccccc3)c(=O)[n-]c2=O)c1O

>  <Energy>  (28) 
79.40538518434167

>  <Genealogy>  (28) 
Cc1cccc(C(=O)OCC(=O)N(CC(C)C)c2c(N)n(Cc3ccccc3)c(=O)[n-]c2=O)c1O (protonated)
Cc1cccc(C(=O)OCC(=O)N(CC(C)C)c2c(N)n(Cc3ccccc3)c(=O)[n-]c2=O)c1O (3D coordinates assigned)
Cc1cccc(C(=O)OCC(=O)N(CC(C)C)c2c(N)n(Cc3ccccc3)c(=O)[n-]c2=O)c1O (optimized conformer: 79.40538518434167 kcal/mol)

>  <smiles>  (28) 
Cc1cccc(C(=O)OCC(=O)N(CC(C)C)c2c(N)n(Cc3ccccc3)c(=O)[nH]c2=O)c1O

>  <score_type>  (28) 
oracle

>  <origin>  (28) 
adg

>  <m_score__min__energy>  (28) 
-9.3499999999999996

>  <m_primary>  (28) 
energy

$$$$
28:0
     RDKit          3D

 35 36  0  0  0  0  0  0  0  0999 V2000
   59.2720   35.3430   45.2470 C   0  0  0  0  0  0  0  0  0  0  0  0
   59.6980   34.1410   46.0320 C   0  0  0  0  0  0  0  0  0  0  0  0
   60.9880   33.8490   46.4230 C   0  0  0  0  0  0  0  0  0  0  0  0
   60.8750   32.6450   47.0950 C   0  0  0  0  0  0  0  0  0  0  0  0
   61.9860   31.9100   47.7730 C   0  0  0  0  0  0  0  0  0  0  0  0
   62.0830   32.3170   49.0890 F   0  0  0  0  0  0  0  0  0  0  0  0
   61.7450   30.5480   47.7430 F   0  0  0  0  0  0  0  0  0  0  0  0
   63.1750   32.1750   47.1240 F   0  0  0  0  0  0  0  0  0  0  0  0
   59.5850   32.2530   47.1250 N   0  0  0  0  0  0  0  0  0  0  0  0
   58.8770   33.1660   46.4800 N   0  0  0  0  0  0  0  0  0  0  0  0
   57.4380   33.0490   46.2540 C   0  0  0  0  0  0  0  0  0  0  0  0
   57.1820   32.4210   44.9220 C   0  0  0  0  0  0  0  0  0  0  0  0
   57.5750   32.9990   43.8730 O   0  0  0  0  0  0  0  0  0  0  0  0
   56.5820   31.1200   44.8630 N   0  0  0  0  0  0  0  0  0  0  0  0
   57.2670   29.8600   44.9170 C   0  0  0  0  0  0  0  0  0  0  0  0
   58.6370   29.8310   44.6380 C   0  0  0  0  0  0  0  0  0  0  0  0
   59.3470   28.6280   44.6960 C   0  0  0  0  0  0  0  0  0  0  0  0
   58.6930   27.4470   45.0540 C   0  0  0  0  0  0  0  0  0  0  0  0
   57.3270   27.4660   45.3690 C   0  0  0  0  0  0  0  0  0  0  0  0
   56.5020   25.9810   45.8320 S   0  0  0  0  0  0  0  0  0  0  0  0
   54.8080   26.2860   45.9940 N   0  0  0  0  0  0  0  0  0  0  0  0
   56.7200   24.9260   44.7850 O   0  0  0  0  0  0  0  0  0  0  0  0
   57.0520   25.4830   47.1400 O   0  0  0  0  0  0  0  0  0  0  0  0
   56.6160   28.6720   45.3000 C   0  0  0  0  0  0  0  0  0  0  0  0
   58.9861   36.1497   45.9380 H   0  0  0  0  0  0  0  0  0  0  0  0
   60.1050   35.6811   44.6132 H   0  0  0  0  0  0  0  0  0  0  0  0
   58.4119   35.0811   44.6132 H   0  0  0  0  0  0  0  0  0  0  0  0
   61.8987   34.4387   46.2419 H   0  0  0  0  0  0  0  0  0  0  0  0
   56.9944   32.4242   47.0432 H   0  0  0  0  0  0  0  0  0  0  0  0
   56.9853   34.0513   46.2750 H   0  0  0  0  0  0  0  0  0  0  0  0
   59.1597   30.7613   44.3710 H   0  0  0  0  0  0  0  0  0  0  0  0
   60.4212   28.6116   44.4596 H   0  0  0  0  0  0  0  0  0  0  0  0
   59.2510   26.4997   45.0889 H   0  0  0  0  0  0  0  0  0  0  0  0
   54.7060   27.0820   46.6630 H   0  0  0  0  0  0  0  0  0  0  0  0
   55.5441   28.6903   45.5463 H   0  0  0  0  0  0  0  0  0  0  0  0
  1  2  1  0
  2  3  2  0
  3  4  1  0
  4  5  1  0
  5  6  1  0
  5  7  1  0
  5  8  1  0
  4  9  2  0
  9 10  1  0
 10 11  1  0
 11 12  1  0
 12 13  2  0
 12 14  1  0
 14 15  1  0
 15 16  2  0
 16 17  1  0
 17 18  2  0
 18 19  1  0
 19 20  1  0
 20 21  1  0
 20 22  2  0
 20 23  2  0
 19 24  2  0
 10  2  1  0
 24 15  1  0
  1 25  1  0
  1 26  1  0
  1 27  1  0
  3 28  1  0
 11 29  1  0
 11 30  1  0
 16 31  1  0
 17 32  1  0
 18 33  1  0
 21 34  1  0
 24 35  1  0
M  CHG  2  14  -1  21  -1
M  END
>  <UniqueID>  (29) 
25

>  <SMILES>  (29) 
Cc1cc(C(F)(F)F)nn1CC(=O)[N-]c1cccc(S([NH-])(=O)=O)c1

>  <Energy>  (29) 
63.850506269123784

>  <Genealogy>  (29) 
Cc1cc(C(F)(F)F)nn1CC(=O)[N-]c1cccc(S([NH-])(=O)=O)c1 (protonated)
Cc1cc(C(F)(F)F)nn1CC(=O)[N-]c1cccc(S([NH-])(=O)=O)c1 (3D coordinates assigned)
Cc1cc(C(F)(F)F)nn1CC(=O)[N-]c1cccc(S([NH-])(=O)=O)c1 (optimized conformer: 63.850506269123784 kcal/mol)

>  <smiles>  (29) 
Cc1cc(C(F)(F)F)nn1CC(=O)Nc1cccc(S(N)(=O)=O)c1

>  <score_type>  (29) 
oracle

>  <origin>  (29) 
adg

>  <m_score__min__energy>  (29) 
-11.65

>  <m_primary>  (29) 
energy

$$$$
29:0
     RDKit          3D

 37 38  0  0  1  0  0  0  0  0999 V2000
   57.0210   31.2450   42.4770 C   0  0  0  0  0  0  0  0  0  0  0  0
   56.8690   30.4950   43.7500 C   0  0  0  0  0  0  0  0  0  0  0  0
   55.9280   30.8160   44.5300 O   0  0  0  0  0  0  0  0  0  0  0  0
   57.7820   29.4290   44.0660 N   0  0  0  0  0  0  0  0  0  0  0  0
   57.5870   28.7440   45.3030 C   0  0  0  0  0  0  0  0  0  0  0  0
   58.7670   28.7990   46.2530 C   0  0  0  0  0  0  0  0  0  0  0  0
   58.6610   29.8550   47.2170 N   0  0  0  0  0  0  0  0  0  0  0  0
   58.8610   31.0690   46.8790 C   0  0  0  0  0  0  0  0  0  0  0  0
   57.9620   31.8660   46.2890 N   0  0  0  0  0  0  0  0  0  0  0  0
   58.1970   33.1410   45.9380 C   0  0  0  0  0  0  0  0  0  0  0  0
   56.9950   34.0110   45.2150 S   0  0  0  0  0  0  0  0  0  0  0  0
   59.3940   33.6980   46.1730 N   0  0  0  0  0  0  0  0  0  0  0  0
   60.3540   32.9440   46.7700 C   0  0  0  0  0  0  0  0  0  0  0  0
   61.5300   33.5440   46.9830 N   0  0  0  0  0  0  0  0  0  0  0  0
   62.5310   32.8640   47.5700 C   0  0  0  0  0  0  0  0  0  0  0  0
   63.8640   33.4660   47.8380 C   0  0  0  0  0  0  0  0  0  0  0  0
   62.3200   31.5520   47.9420 C   0  0  0  0  0  0  0  0  0  0  0  0
   61.1250   30.8900   47.7430 C   0  0  0  0  0  0  0  0  0  0  0  0
   60.9100   29.4850   48.1450 C   0  0  0  0  0  0  0  0  0  0  0  0
   60.1080   31.6180   47.1350 C   0  0  0  0  0  0  0  0  0  0  0  0
   57.2351   32.3013   42.6971 H   0  0  0  0  0  0  0  0  0  0  0  0
   57.8505   30.8162   41.8956 H   0  0  0  0  0  0  0  0  0  0  0  0
   56.0900   31.1730   41.8956 H   0  0  0  0  0  0  0  0  0  0  0  0
   58.5220   29.2410   43.3600 H   0  0  0  0  0  0  0  0  0  0  0  0
   56.7191   29.1919   45.8091 H   0  0  0  0  0  0  0  0  0  0  0  0
   57.4422   27.6833   45.0501 H   0  0  0  0  0  0  0  0  0  0  0  0
   58.8308   27.8404   46.7887 H   0  0  0  0  0  0  0  0  0  0  0  0
   59.6663   28.9929   45.6500 H   0  0  0  0  0  0  0  0  0  0  0  0
   57.0280   31.4810   46.0930 H   0  0  0  0  0  0  0  0  0  0  0  0
   59.5790   34.6740   45.9070 H   0  0  0  0  0  0  0  0  0  0  0  0
   64.0223   33.5375   48.9242 H   0  0  0  0  0  0  0  0  0  0  0  0
   64.6475   32.8344   47.3940 H   0  0  0  0  0  0  0  0  0  0  0  0
   63.9082   34.4715   47.3940 H   0  0  0  0  0  0  0  0  0  0  0  0
   63.1458   31.0060   48.4214 H   0  0  0  0  0  0  0  0  0  0  0  0
   60.8993   29.4152   49.2427 H   0  0  0  0  0  0  0  0  0  0  0  0
   59.9475   29.1326   47.7458 H   0  0  0  0  0  0  0  0  0  0  0  0
   61.7231   28.8609   47.7458 H   0  0  0  0  0  0  0  0  0  0  0  0
  1  2  1  0
  2  3  2  0
  2  4  1  0
  4  5  1  0
  5  6  1  0
  6  7  1  0
  7  8  2  0
  8  9  1  0
  9 10  1  0
 10 11  2  0
 10 12  1  0
 12 13  1  0
 13 14  2  0
 14 15  1  0
 15 16  1  0
 15 17  2  0
 17 18  1  0
 18 19  1  0
 18 20  2  0
 20  8  1  0
 20 13  1  0
  1 21  1  0
  1 22  1  0
  1 23  1  0
  4 24  1  0
  5 25  1  0
  5 26  1  0
  6 27  1  0
  6 28  1  0
  9 29  1  0
 12 30  1  0
 16 31  1  0
 16 32  1  0
 16 33  1  0
 17 34  1  0
 19 35  1  0
 19 36  1  0
 19 37  1  0
M  END
>  <smiles>  (30) 
CC(=O)NCCN=c1[nH]c(=S)[nH]c2nc(C)cc(C)c12

>  <score_type>  (30) 
oracle

>  <origin>  (30) 
adg

>  <m_score__min__energy>  (30) 
-6.5800000000000001

>  <m_primary>  (30) 
energy

$$$$
30:0
     RDKit          3D

 56 60  0  0  1  0  0  0  0  0999 V2000
   57.7630   30.2790   50.6510 O   0  0  0  0  0  0  0  0  0  0  0  0
   57.6510   30.4220   51.8940 C   0  0  0  0  0  0  0  0  0  0  0  0
   58.7340   30.8380   52.6700 N   0  0  0  0  0  0  0  0  0  0  0  0
   60.0380   31.1460   52.2370 C   0  0  0  0  0  0  0  0  0  0  0  0
   60.7500   30.4630   51.2850 C   0  0  0  0  0  0  0  0  0  0  0  0
   62.0420   30.8250   50.9010 C   0  0  0  0  0  0  0  0  0  0  0  0
   62.6740   31.9060   51.4740 C   0  0  0  0  0  0  0  0  0  0  0  0
   64.0510   32.3060   51.0770 C   0  0  0  0  0  0  0  0  0  0  0  0
   64.0580   33.3890   50.1350 N   0  0  0  0  0  0  0  0  0  0  0  0
   63.4450   33.4340   49.0260 C   0  0  0  0  0  0  0  0  0  0  0  0
   64.0890   33.1150   47.8950 N   0  0  0  0  0  0  0  0  0  0  0  0
   63.4650   33.1560   46.7290 C   0  0  0  0  0  0  0  0  0  0  0  0
   62.1700   33.5190   46.6390 N   0  0  0  0  0  0  0  0  0  0  0  0
   61.5010   33.8450   47.7630 C   0  0  0  0  0  0  0  0  0  0  0  0
   60.1960   34.2490   48.0000 C   0  0  0  0  0  0  0  0  0  0  0  0
   59.1170   34.4430   47.0150 C   0  0  0  0  0  0  0  0  0  0  0  0
   59.6270   34.7800   45.6350 C   0  0  0  0  0  0  0  0  0  0  0  0
   58.7410   34.2220   44.5520 C   0  0  0  0  0  0  0  0  0  0  0  0
   57.4000   34.2200   44.8660 O   0  0  0  0  0  0  0  0  0  0  0  0
   57.0800   33.5390   46.0170 C   0  0  0  0  0  0  0  0  0  0  0  0
   58.2590   33.2020   46.8950 C   0  0  0  0  0  0  0  0  0  0  0  0
   60.0600   34.4460   49.3320 N   0  0  0  0  0  0  0  0  0  0  0  0
   61.2290   34.1800   49.9260 N   0  0  0  0  0  0  0  0  0  0  0  0
   62.1230   33.8120   49.0020 C   0  0  0  0  0  0  0  0  0  0  0  0
   61.9680   32.6020   52.4340 C   0  0  0  0  0  0  0  0  0  0  0  0
   60.6900   32.2410   52.8100 C   0  0  0  0  0  0  0  0  0  0  0  0
   56.3140   30.1200   52.4400 C   0  0  0  0  0  0  0  0  0  0  0  0
   55.2270   30.8480   52.0070 C   0  0  0  0  0  0  0  0  0  0  0  0
   53.9480   30.6060   52.4870 C   0  0  0  0  0  0  0  0  0  0  0  0
   53.7480   29.6090   53.4270 C   0  0  0  0  0  0  0  0  0  0  0  0
   52.5360   29.3140   53.9400 F   0  0  0  0  0  0  0  0  0  0  0  0
   54.8350   28.8740   53.8670 C   0  0  0  0  0  0  0  0  0  0  0  0
   56.0960   29.1350   53.3730 C   0  0  0  0  0  0  0  0  0  0  0  0
   58.5520   30.9330   53.7150 H   0  0  0  0  0  0  0  0  0  0  0  0
   60.2826   29.5918   50.8029 H   0  0  0  0  0  0  0  0  0  0  0  0
   62.5628   30.2386   50.1298 H   0  0  0  0  0  0  0  0  0  0  0  0
   64.6013   32.6176   51.9771 H   0  0  0  0  0  0  0  0  0  0  0  0
   64.5250   31.4390   50.5936 H   0  0  0  0  0  0  0  0  0  0  0  0
   65.0700   32.8390   47.9570 H   0  0  0  0  0  0  0  0  0  0  0  0
   64.0143   32.8884   45.8143 H   0  0  0  0  0  0  0  0  0  0  0  0
   58.5302   35.2925   47.3944 H   0  0  0  0  0  0  0  0  0  0  0  0
   59.6696   35.8741   45.5299 H   0  0  0  0  0  0  0  0  0  0  0  0
   60.6242   34.3294   45.5228 H   0  0  0  0  0  0  0  0  0  0  0  0
   58.8821   34.8275   43.6445 H   0  0  0  0  0  0  0  0  0  0  0  0
   59.0350   33.1712   44.4126 H   0  0  0  0  0  0  0  0  0  0  0  0
   56.3838   34.1594   46.6005 H   0  0  0  0  0  0  0  0  0  0  0  0
   56.6424   32.5806   45.7009 H   0  0  0  0  0  0  0  0  0  0  0  0
   57.9078   32.8924   47.8904 H   0  0  0  0  0  0  0  0  0  0  0  0
   58.8387   32.3751   46.4588 H   0  0  0  0  0  0  0  0  0  0  0  0
   61.4520   34.2370   50.9560 H   0  0  0  0  0  0  0  0  0  0  0  0
   62.4388   33.4722   52.9148 H   0  0  0  0  0  0  0  0  0  0  0  0
   60.1714   32.8304   53.5805 H   0  0  0  0  0  0  0  0  0  0  0  0
   55.3774   31.6422   51.2609 H   0  0  0  0  0  0  0  0  0  0  0  0
   53.0982   31.2023   52.1232 H   0  0  0  0  0  0  0  0  0  0  0  0
   54.6927   28.0787   54.6135 H   0  0  0  0  0  0  0  0  0  0  0  0
   56.9478   28.5403   53.7346 H   0  0  0  0  0  0  0  0  0  0  0  0
  1  2  2  0
  2  3  1  0
  3  4  1  0
  4  5  2  0
  5  6  1  0
  6  7  2  0
  7  8  1  0
  8  9  1  0
  9 10  2  0
 10 11  1  0
 11 12  1  0
 12 13  2  0
 13 14  1  0
 14 15  1  0
 15 16  1  0
 16 17  1  0
 17 18  1  0
 18 19  1  0
 19 20  1  0
 20 21  1  0
 15 22  2  0
 22 23  1  0
 23 24  1  0
  7 25  1  0
 25 26  2  0
  2 27  1  0
 27 28  2  0
 28 29  1  0
 29 30  2  0
 30 31  1  0
 30 32  1  0
 32 33  2  0
 26  4  1  0
 33 27  1  0
 24 10  1  0
 24 14  2  0
 21 16  1  0
  3 34  1  0
  5 35  1  0
  6 36  1  0
  8 37  1  0
  8 38  1  0
 11 39  1  0
 12 40  1  0
 16 41  1  0
 17 42  1  0
 17 43  1  0
 18 44  1  0
 18 45  1  0
 20 46  1  0
 20 47  1  0
 21 48  1  0
 21 49  1  0
 23 50  1  0
 25 51  1  0
 26 52  1  0
 28 53  1  0
 29 54  1  0
 32 55  1  0
 33 56  1  0
M  END
>  <smiles>  (31) 
O=C(Nc1ccc(CN=c2[nH]cnc3c(C4CCOCC4)n[nH]c23)cc1)c1ccc(F)cc1

>  <score_type>  (31) 
oracle

>  <origin>  (31) 
adg

>  <m_score__min__energy>  (31) 
-8.8599999999999994

>  <m_primary>  (31) 
energy

$$$$
31:0
     RDKit          3D

 27 28  0  0  0  0  0  0  0  0999 V2000
   58.9060   30.8900   48.3840 C   0  0  0  0  0  0  0  0  0  0  0  0
   58.2380   31.3530   47.2150 O   0  0  0  0  0  0  0  0  0  0  0  0
   58.5280   32.5570   46.5540 C   0  0  0  0  0  0  0  0  0  0  0  0
   59.0450   33.6740   47.2410 C   0  0  0  0  0  0  0  0  0  0  0  0
   59.3090   34.8640   46.5600 C   0  0  0  0  0  0  0  0  0  0  0  0
   59.0570   34.9580   45.1910 C   0  0  0  0  0  0  0  0  0  0  0  0
   58.5460   33.8590   44.4990 C   0  0  0  0  0  0  0  0  0  0  0  0
   58.2900   32.6530   45.1670 C   0  0  0  0  0  0  0  0  0  0  0  0
   57.6460   31.2770   44.2640 S   0  0  0  0  0  0  0  0  0  0  0  0
   56.3550   30.8030   44.8690 O   0  0  0  0  0  0  0  0  0  0  0  0
   57.3950   31.7030   42.8460 O   0  0  0  0  0  0  0  0  0  0  0  0
   58.7790   29.9620   44.2620 N   0  0  0  0  0  0  0  0  0  0  0  0
   58.8330   29.0420   45.1790 C   0  0  0  0  0  0  0  0  0  0  0  0
   57.9510   28.9780   46.1970 N   0  0  0  0  0  0  0  0  0  0  0  0
   58.1970   27.9310   47.0280 C   0  0  0  0  0  0  0  0  0  0  0  0
   59.2900   27.1470   46.6710 C   0  0  0  0  0  0  0  0  0  0  0  0
   59.9640   27.7930   45.2680 S   0  0  0  0  0  0  0  0  0  0  0  0
   58.3782   31.2558   49.2771 H   0  0  0  0  0  0  0  0  0  0  0  0
   58.9163   29.7901   48.3890 H   0  0  0  0  0  0  0  0  0  0  0  0
   59.9396   31.2664   48.3890 H   0  0  0  0  0  0  0  0  0  0  0  0
   59.2418   33.6077   48.3212 H   0  0  0  0  0  0  0  0  0  0  0  0
   59.7164   35.7290   47.1039 H   0  0  0  0  0  0  0  0  0  0  0  0
   59.2610   35.8980   44.6573 H   0  0  0  0  0  0  0  0  0  0  0  0
   58.3425   33.9395   43.4210 H   0  0  0  0  0  0  0  0  0  0  0  0
   57.1650   29.6510   46.3350 H   0  0  0  0  0  0  0  0  0  0  0  0
   57.5801   27.7197   47.9139 H   0  0  0  0  0  0  0  0  0  0  0  0
   59.6514   26.2594   47.2110 H   0  0  0  0  0  0  0  0  0  0  0  0
  1  2  1  0
  2  3  1  0
  3  4  2  0
  4  5  1  0
  5  6  2  0
  6  7  1  0
  7  8  2  0
  8  9  1  0
  9 10  2  0
  9 11  2  0
  9 12  1  0
 12 13  2  3
 13 14  1  0
 14 15  1  0
 15 16  2  0
 16 17  1  0
  8  3  1  0
 17 13  1  0
  1 18  1  0
  1 19  1  0
  1 20  1  0
  4 21  1  0
  5 22  1  0
  6 23  1  0
  7 24  1  0
 14 25  1  0
 15 26  1  0
 16 27  1  0
M  END
>  <UniqueID>  (32) 
26

>  <SMILES>  (32) 
COc1ccccc1S(=O)(=O)N=c1[nH]ccs1

>  <Energy>  (32) 
60.85406281391676

>  <Genealogy>  (32) 
COc1ccccc1S(=O)(=O)N=c1[nH]ccs1 (3D coordinates assigned)
COc1ccccc1S(=O)(=O)N=c1[nH]ccs1 (optimized conformer: 60.85406281391676 kcal/mol)

>  <smiles>  (32) 
COc1ccccc1S(=O)(=O)N=c1[nH]ccs1

>  <score_type>  (32) 
oracle

>  <origin>  (32) 
adg

>  <m_score__min__energy>  (32) 
-5.9400000000000004

>  <m_primary>  (32) 
energy

$$$$
32:0
     RDKit          3D

 50 53  0  0  0  0  0  0  0  0999 V2000
   65.2330   32.7480   49.7160 C   0  0  0  0  0  0  0  0  0  0  0  0
   63.7990   32.5360   49.3320 C   0  0  0  0  0  0  0  0  0  0  0  0
   62.8760   32.0670   50.2790 C   0  0  0  0  0  0  0  0  0  0  0  0
   61.5470   31.8330   49.9120 C   0  0  0  0  0  0  0  0  0  0  0  0
   61.1290   32.0570   48.5940 C   0  0  0  0  0  0  0  0  0  0  0  0
   59.4580   31.7310   48.1440 S   0  0  0  0  0  0  0  0  0  0  0  0
   58.5710   31.7780   49.3580 O   0  0  0  0  0  0  0  0  0  0  0  0
   59.4080   30.3470   47.5580 O   0  0  0  0  0  0  0  0  0  0  0  0
   58.8900   32.8950   46.9760 N   0  0  0  0  0  0  0  0  0  0  0  0
   59.0030   34.3340   47.2420 C   0  0  0  0  0  0  0  0  0  0  0  0
   59.7110   35.0080   46.0660 C   0  0  0  0  0  0  0  0  0  0  0  0
   59.0560   34.6740   44.8400 O   0  0  0  0  0  0  0  0  0  0  0  0
   58.4930   33.4100   44.6190 C   0  0  0  0  0  0  0  0  0  0  0  0
   58.0050   33.0740   43.3550 C   0  0  0  0  0  0  0  0  0  0  0  0
   57.4160   31.8260   43.1400 C   0  0  0  0  0  0  0  0  0  0  0  0
   57.2940   30.9040   44.1930 C   0  0  0  0  0  0  0  0  0  0  0  0
   56.6400   29.5900   43.9620 C   0  0  0  0  0  0  0  0  0  0  0  0
   56.6270   29.0990   42.8020 O   0  0  0  0  0  0  0  0  0  0  0  0
   56.0870   28.8160   45.0380 N   0  0  0  0  0  0  0  0  0  0  0  0
   56.6200   27.7760   45.6200 C   0  0  0  0  0  0  0  0  0  0  0  0
   57.9980   27.6900   45.9100 C   0  0  0  0  0  0  0  0  0  0  0  0
   58.5050   26.5420   46.5350 C   0  0  0  0  0  0  0  0  0  0  0  0
   59.9760   26.4110   46.7980 C   0  0  0  0  0  0  0  0  0  0  0  0
   57.6350   25.4920   46.8530 C   0  0  0  0  0  0  0  0  0  0  0  0
   56.2740   25.6210   46.5750 C   0  0  0  0  0  0  0  0  0  0  0  0
   55.8040   26.7470   45.9760 N   0  0  0  0  0  0  0  0  0  0  0  0
   57.7990   31.2430   45.4620 C   0  0  0  0  0  0  0  0  0  0  0  0
   58.4020   32.4930   45.6800 C   0  0  0  0  0  0  0  0  0  0  0  0
   62.0540   32.5050   47.6410 C   0  0  0  0  0  0  0  0  0  0  0  0
   63.3840   32.7390   48.0070 C   0  0  0  0  0  0  0  0  0  0  0  0
   65.3209   32.7610   50.8124 H   0  0  0  0  0  0  0  0  0  0  0  0
   65.8463   31.9308   49.3086 H   0  0  0  0  0  0  0  0  0  0  0  0
   65.5836   33.7077   49.3086 H   0  0  0  0  0  0  0  0  0  0  0  0
   63.1990   31.8826   51.3142 H   0  0  0  0  0  0  0  0  0  0  0  0
   60.8272   31.4717   50.6612 H   0  0  0  0  0  0  0  0  0  0  0  0
   57.9986   34.7658   47.3634 H   0  0  0  0  0  0  0  0  0  0  0  0
   59.5814   34.4954   48.1636 H   0  0  0  0  0  0  0  0  0  0  0  0
   59.6884   36.0990   46.2048 H   0  0  0  0  0  0  0  0  0  0  0  0
   60.7526   34.6569   46.0244 H   0  0  0  0  0  0  0  0  0  0  0  0
   58.0845   33.7935   42.5268 H   0  0  0  0  0  0  0  0  0  0  0  0
   57.0448   31.5630   42.1385 H   0  0  0  0  0  0  0  0  0  0  0  0
   58.6711   28.5193   45.6471 H   0  0  0  0  0  0  0  0  0  0  0  0
   60.1544   26.3951   47.8833 H   0  0  0  0  0  0  0  0  0  0  0  0
   60.3465   25.4763   46.3518 H   0  0  0  0  0  0  0  0  0  0  0  0
   60.5058   27.2655   46.3518 H   0  0  0  0  0  0  0  0  0  0  0  0
   58.0214   24.5731   47.3181 H   0  0  0  0  0  0  0  0  0  0  0  0
   55.5800   24.8101   46.8410 H   0  0  0  0  0  0  0  0  0  0  0  0
   57.7209   30.5232   46.2902 H   0  0  0  0  0  0  0  0  0  0  0  0
   61.7334   32.6731   46.6023 H   0  0  0  0  0  0  0  0  0  0  0  0
   64.1072   33.0835   47.2531 H   0  0  0  0  0  0  0  0  0  0  0  0
  1  2  1  0
  2  3  2  0
  3  4  1  0
  4  5  2  0
  5  6  1  0
  6  7  2  0
  6  8  2  0
  6  9  1  0
  9 10  1  0
 10 11  1  0
 11 12  1  0
 12 13  1  0
 13 14  2  0
 14 15  1  0
 15 16  2  0
 16 17  1  0
 17 18  2  0
 17 19  1  0
 19 20  2  3
 20 21  1  0
 21 22  2  0
 22 23  1  0
 22 24  1  0
 24 25  2  0
 25 26  1  0
 16 27  1  0
 27 28  2  0
  5 29  1  0
 29 30  2  0
 30  2  1  0
 28  9  1  0
 28 13  1  0
 26 20  1  0
  1 31  1  0
  1 32  1  0
  1 33  1  0
  3 34  1  0
  4 35  1  0
 10 36  1  0
 10 37  1  0
 11 38  1  0
 11 39  1  0
 14 40  1  0
 15 41  1  0
 21 42  1  0
 23 43  1  0
 23 44  1  0
 23 45  1  0
 24 46  1  0
 25 47  1  0
 27 48  1  0
 29 49  1  0
 30 50  1  0
M  CHG  1  26  -1
M  END
>  <UniqueID>  (33) 
27

>  <SMILES>  (33) 
Cc1ccc(S(=O)(=O)N2CCOc3ccc(C(=O)N=c4cc(C)cc[n-]4)cc32)cc1

>  <Energy>  (33) 
67.40143899089608

>  <Genealogy>  (33) 
Cc1ccc(S(=O)(=O)N2CCOc3ccc(C(=O)N=c4cc(C)cc[n-]4)cc32)cc1 (protonated)
Cc1ccc(S(=O)(=O)N2CCOc3ccc(C(=O)N=c4cc(C)cc[n-]4)cc32)cc1 (3D coordinates assigned)
Cc1ccc(S(=O)(=O)N2CCOc3ccc(C(=O)N=c4cc(C)cc[n-]4)cc32)cc1 (nonaromatic ring conformer: 67.40143899089608 kcal/mol)

>  <smiles>  (33) 
Cc1ccc(S(=O)(=O)N2CCOc3ccc(C(=O)N=c4cc(C)cc[nH]4)cc32)cc1

>  <score_type>  (33) 
oracle

>  <origin>  (33) 
adg

>  <m_score__min__energy>  (33) 
-11.32

>  <m_primary>  (33) 
energy

$$$$
33:0
     RDKit          3D

 38 40  0  0  0  0  0  0  0  0999 V2000
   63.6150   32.8390   48.0970 N   0  0  0  0  0  0  0  0  0  0  0  0
   62.8090   33.4930   47.1170 C   0  0  0  0  0  0  0  0  0  0  0  0
   63.3360   34.3620   46.3720 O   0  0  0  0  0  0  0  0  0  0  0  0
   61.3720   33.1580   46.9770 C   0  0  0  0  0  0  0  0  0  0  0  0
   60.3950   34.1640   47.0740 C   0  0  0  0  0  0  0  0  0  0  0  0
   59.0400   33.8480   46.9500 C   0  0  0  0  0  0  0  0  0  0  0  0
   58.6430   32.5300   46.7310 C   0  0  0  0  0  0  0  0  0  0  0  0
   59.5990   31.5050   46.6290 C   0  0  0  0  0  0  0  0  0  0  0  0
   59.1770   30.0990   46.4010 C   0  0  0  0  0  0  0  0  0  0  0  0
   58.8420   29.6520   45.1100 C   0  0  0  0  0  0  0  0  0  0  0  0
   58.4400   28.3310   44.8970 C   0  0  0  0  0  0  0  0  0  0  0  0
   58.3510   27.4340   45.9750 C   0  0  0  0  0  0  0  0  0  0  0  0
   57.9540   26.0650   45.7990 N   0  0  0  0  0  0  0  0  0  0  0  0
   57.1640   25.2760   46.7000 C   0  0  0  0  0  0  0  0  0  0  0  0
   57.5510   25.1000   47.8870 O   0  0  0  0  0  0  0  0  0  0  0  0
   55.9290   24.6100   46.2110 C   0  0  0  0  0  0  0  0  0  0  0  0
   55.9090   23.2100   46.0690 C   0  0  0  0  0  0  0  0  0  0  0  0
   54.7480   22.5710   45.6300 C   0  0  0  0  0  0  0  0  0  0  0  0
   54.7270   21.3170   45.5080 O   0  0  0  0  0  0  0  0  0  0  0  0
   53.6150   23.3270   45.3300 C   0  0  0  0  0  0  0  0  0  0  0  0
   52.4480   22.7110   44.8930 O   0  0  0  0  0  0  0  0  0  0  0  0
   53.6630   24.7140   45.4710 C   0  0  0  0  0  0  0  0  0  0  0  0
   54.7990   25.3300   45.9010 N   0  0  0  0  0  0  0  0  0  0  0  0
   54.7900   26.7040   45.9960 O   0  0  0  0  0  0  0  0  0  0  0  0
   58.7100   27.8680   47.2550 C   0  0  0  0  0  0  0  0  0  0  0  0
   59.1130   29.1890   47.4710 C   0  0  0  0  0  0  0  0  0  0  0  0
   60.9630   31.8290   46.7540 C   0  0  0  0  0  0  0  0  0  0  0  0
   64.4900   32.3380   47.8250 H   0  0  0  0  0  0  0  0  0  0  0  0
   60.6994   35.2065   47.2486 H   0  0  0  0  0  0  0  0  0  0  0  0
   58.2831   34.6426   47.0255 H   0  0  0  0  0  0  0  0  0  0  0  0
   57.5735   32.2904   46.6373 H   0  0  0  0  0  0  0  0  0  0  0  0
   58.8970   30.3487   44.2606 H   0  0  0  0  0  0  0  0  0  0  0  0
   58.1920   27.9915   43.8805 H   0  0  0  0  0  0  0  0  0  0  0  0
   56.8072   22.6199   46.3037 H   0  0  0  0  0  0  0  0  0  0  0  0
   52.7741   25.3164   45.2324 H   0  0  0  0  0  0  0  0  0  0  0  0
   58.6750   27.1637   48.0993 H   0  0  0  0  0  0  0  0  0  0  0  0
   59.3820   29.5189   48.4853 H   0  0  0  0  0  0  0  0  0  0  0  0
   61.7192   31.0339   46.6765 H   0  0  0  0  0  0  0  0  0  0  0  0
  1  2  1  0
  2  3  2  0
  2  4  1  0
  4  5  2  0
  5  6  1  0
  6  7  2  0
  7  8  1  0
  8  9  1  0
  9 10  2  0
 10 11  1  0
 11 12  2  0
 12 13  1  0
 13 14  1  0
 14 15  2  0
 14 16  1  0
 16 17  2  0
 17 18  1  0
 18 19  2  0
 18 20  1  0
 20 21  1  0
 20 22  2  0
 22 23  1  0
 23 24  1  0
 12 25  1  0
 25 26  2  0
  8 27  2  0
 27  4  1  0
 26  9  1  0
 23 16  1  0
  1 28  1  0
  5 29  1  0
  6 30  1  0
  7 31  1  0
 10 32  1  0
 11 33  1  0
 17 34  1  0
 22 35  1  0
 25 36  1  0
 26 37  1  0
 27 38  1  0
M  CHG  4   1  -1  13  -1  21  -1  24  -1
M  END
>  <UniqueID>  (34) 
28

>  <SMILES>  (34) 
[NH-]C(=O)c1cccc(-c2ccc([N-]C(=O)c3cc(=O)c([O-])cn3[O-])cc2)c1

>  <Energy>  (34) 
54.24663481590607

>  <Genealogy>  (34) 
[NH-]C(=O)c1cccc(-c2ccc([N-]C(=O)c3cc(=O)c([O-])cn3[O-])cc2)c1 (protonated)
[NH-]C(=O)c1cccc(-c2ccc([N-]C(=O)c3cc(=O)c([O-])cn3[O-])cc2)c1 (3D coordinates assigned)
[NH-]C(=O)c1cccc(-c2ccc([N-]C(=O)c3cc(=O)c([O-])cn3[O-])cc2)c1 (optimized conformer: 54.24663481590607 kcal/mol)

>  <smiles>  (34) 
NC(=O)c1cccc(-c2ccc(NC(=O)c3cc(=O)c(O)cn3O)cc2)c1

>  <score_type>  (34) 
oracle

>  <origin>  (34) 
adg

>  <m_score__min__energy>  (34) 
-15.6

>  <m_primary>  (34) 
energy

$$$$
34:0
     RDKit          3D

 32 33  0  0  0  0  0  0  0  0999 V2000
   55.5670   30.0880   44.5980 O   0  0  0  0  0  0  0  0  0  0  0  0
   56.9890   30.2080   44.1240 S   0  0  0  0  0  0  0  0  0  0  0  0
   56.9830   30.1960   42.6210 O   0  0  0  0  0  0  0  0  0  0  0  0
   57.6920   31.7110   44.7080 C   0  0  0  0  0  0  0  0  0  0  0  0
   58.1220   32.6890   43.8000 C   0  0  0  0  0  0  0  0  0  0  0  0
   58.6610   33.8920   44.2650 C   0  0  0  0  0  0  0  0  0  0  0  0
   58.7670   34.1260   45.6400 C   0  0  0  0  0  0  0  0  0  0  0  0
   58.3300   33.1580   46.5490 C   0  0  0  0  0  0  0  0  0  0  0  0
   57.7920   31.9540   46.0860 C   0  0  0  0  0  0  0  0  0  0  0  0
   57.9410   28.8570   44.7270 C   0  0  0  0  0  0  0  0  0  0  0  0
   59.2810   29.0470   45.0780 C   0  0  0  0  0  0  0  0  0  0  0  0
   60.0270   27.9640   45.5370 C   0  0  0  0  0  0  0  0  0  0  0  0
   59.4370   26.7030   45.6350 C   0  0  0  0  0  0  0  0  0  0  0  0
   58.0920   26.5360   45.2590 C   0  0  0  0  0  0  0  0  0  0  0  0
   57.4380   25.2960   45.3240 O   0  0  0  0  0  0  0  0  0  0  0  0
   55.8530   25.0290   45.9200 S   0  0  0  0  0  0  0  0  0  0  0  0
   55.9040   24.4940   47.3240 O   0  0  0  0  0  0  0  0  0  0  0  0
   55.1240   26.3420   45.9300 O   0  0  0  0  0  0  0  0  0  0  0  0
   54.9670   23.9010   44.8590 C   0  0  0  0  0  0  0  0  0  0  0  0
   55.1260   22.6100   45.3250 F   0  0  0  0  0  0  0  0  0  0  0  0
   55.4470   23.9780   43.5670 F   0  0  0  0  0  0  0  0  0  0  0  0
   53.6240   24.2250   44.8660 F   0  0  0  0  0  0  0  0  0  0  0  0
   57.3850   27.6160   44.8210 N   0  0  0  0  0  0  0  0  0  0  0  0
   58.0349   32.5090   42.7183 H   0  0  0  0  0  0  0  0  0  0  0  0
   59.0019   34.6548   43.5495 H   0  0  0  0  0  0  0  0  0  0  0  0
   59.1941   35.0714   46.0059 H   0  0  0  0  0  0  0  0  0  0  0  0
   58.4097   33.3442   47.6302 H   0  0  0  0  0  0  0  0  0  0  0  0
   57.4463   31.1954   46.8036 H   0  0  0  0  0  0  0  0  0  0  0  0
   59.7417   30.0422   44.9925 H   0  0  0  0  0  0  0  0  0  0  0  0
   61.0804   28.1025   45.8220 H   0  0  0  0  0  0  0  0  0  0  0  0
   60.0197   25.8459   46.0036 H   0  0  0  0  0  0  0  0  0  0  0  0
   56.3870   27.4800   44.5410 H   0  0  0  0  0  0  0  0  0  0  0  0
  1  2  2  0
  2  3  2  0
  2  4  1  0
  4  5  2  0
  5  6  1  0
  6  7  2  0
  7  8  1  0
  8  9  2  0
  2 10  1  0
 10 11  2  0
 11 12  1  0
 12 13  2  0
 13 14  1  0
 14 15  1  0
 15 16  1  0
 16 17  2  0
 16 18  2  0
 16 19  1  0
 19 20  1  0
 19 21  1  0
 19 22  1  0
 14 23  2  0
  9  4  1  0
 23 10  1  0
  5 24  1  0
  6 25  1  0
  7 26  1  0
  8 27  1  0
  9 28  1  0
 11 29  1  0
 12 30  1  0
 13 31  1  0
 23 32  1  0
M  CHG  1  23   1
M  END
>  <UniqueID>  (35) 
29

>  <SMILES>  (35) 
O=S(=O)(c1ccccc1)c1cccc(OS(=O)(=O)C(F)(F)F)[nH+]1

>  <Energy>  (35) 
31.417036098982678

>  <Genealogy>  (35) 
O=S(=O)(c1ccccc1)c1cccc(OS(=O)(=O)C(F)(F)F)[nH+]1 (protonated)
O=S(=O)(c1ccccc1)c1cccc(OS(=O)(=O)C(F)(F)F)[nH+]1 (3D coordinates assigned)
O=S(=O)(c1ccccc1)c1cccc(OS(=O)(=O)C(F)(F)F)[nH+]1 (optimized conformer: 31.417036098982678 kcal/mol)

>  <smiles>  (35) 
O=S(=O)(c1ccccc1)c1cccc(OS(=O)(=O)C(F)(F)F)n1

>  <score_type>  (35) 
oracle

>  <origin>  (35) 
adg

>  <m_score__min__energy>  (35) 
-6.4699999999999998

>  <m_primary>  (35) 
energy

$$$$
35:0
     RDKit          3D

 40 43  0  0  0  0  0  0  0  0999 V2000
   56.6060   34.4880   44.8710 O   0  0  0  0  0  0  0  0  0  0  0  0
   57.6070   33.7560   45.7100 S   0  0  0  0  0  0  0  0  0  0  0  0
   57.2230   33.7530   47.1610 O   0  0  0  0  0  0  0  0  0  0  0  0
   59.1670   34.4900   45.4610 N   0  0  0  0  0  0  0  0  0  0  0  0
   60.2230   34.2630   46.3980 C   0  0  0  0  0  0  0  0  0  0  0  0
   61.4830   33.8390   45.9950 C   0  0  0  0  0  0  0  0  0  0  0  0
   62.5040   33.6190   46.8970 C   0  0  0  0  0  0  0  0  0  0  0  0
   62.2800   33.8210   48.2420 C   0  0  0  0  0  0  0  0  0  0  0  0
   63.3740   33.5820   49.1770 C   0  0  0  0  0  0  0  0  0  0  0  0
   63.4040   33.8360   50.4980 N   0  0  0  0  0  0  0  0  0  0  0  0
   64.6000   33.4720   51.0090 C   0  0  0  0  0  0  0  0  0  0  0  0
   65.1720   33.5010   52.2650 C   0  0  0  0  0  0  0  0  0  0  0  0
   66.4700   33.0270   52.4290 C   0  0  0  0  0  0  0  0  0  0  0  0
   67.2040   32.5280   51.3780 C   0  0  0  0  0  0  0  0  0  0  0  0
   66.6360   32.4960   50.1160 C   0  0  0  0  0  0  0  0  0  0  0  0
   65.3380   32.9670   49.9380 C   0  0  0  0  0  0  0  0  0  0  0  0
   64.5600   33.0480   48.8320 N   0  0  0  0  0  0  0  0  0  0  0  0
   61.0420   34.2420   48.6850 C   0  0  0  0  0  0  0  0  0  0  0  0
   60.0110   34.4640   47.7670 C   0  0  0  0  0  0  0  0  0  0  0  0
   57.7640   32.0830   45.1690 C   0  0  0  0  0  0  0  0  0  0  0  0
   58.6430   31.2950   45.8910 C   0  0  0  0  0  0  0  0  0  0  0  0
   58.8320   29.9670   45.5410 C   0  0  0  0  0  0  0  0  0  0  0  0
   58.1190   29.4920   44.4680 C   0  0  0  0  0  0  0  0  0  0  0  0
   58.3670   27.8030   44.0290 Cl  0  0  0  0  0  0  0  0  0  0  0  0
   57.2410   30.2760   43.7450 C   0  0  0  0  0  0  0  0  0  0  0  0
   57.0460   31.6060   44.0890 C   0  0  0  0  0  0  0  0  0  0  0  0
   59.3480   35.1010   44.6280 H   0  0  0  0  0  0  0  0  0  0  0  0
   61.6727   33.6736   44.9242 H   0  0  0  0  0  0  0  0  0  0  0  0
   63.4909   33.2844   46.5447 H   0  0  0  0  0  0  0  0  0  0  0  0
   64.6092   33.8936   53.1248 H   0  0  0  0  0  0  0  0  0  0  0  0
   66.9235   33.0521   53.4308 H   0  0  0  0  0  0  0  0  0  0  0  0
   68.2280   32.1595   51.5382 H   0  0  0  0  0  0  0  0  0  0  0  0
   67.2053   32.1019   49.2612 H   0  0  0  0  0  0  0  0  0  0  0  0
   64.9000   32.7260   47.8890 H   0  0  0  0  0  0  0  0  0  0  0  0
   60.8669   34.4026   49.7590 H   0  0  0  0  0  0  0  0  0  0  0  0
   59.0258   34.7992   48.1233 H   0  0  0  0  0  0  0  0  0  0  0  0
   59.1920   31.7225   46.7430 H   0  0  0  0  0  0  0  0  0  0  0  0
   59.5246   29.3205   46.0998 H   0  0  0  0  0  0  0  0  0  0  0  0
   56.6945   29.8444   42.8935 H   0  0  0  0  0  0  0  0  0  0  0  0
   56.3526   32.2502   43.5285 H   0  0  0  0  0  0  0  0  0  0  0  0
  1  2  2  0
  2  3  2  0
  2  4  1  0
  4  5  1  0
  5  6  2  0
  6  7  1  0
  7  8  2  0
  8  9  1  0
  9 10  2  0
 10 11  1  0
 11 12  2  0
 12 13  1  0
 13 14  2  0
 14 15  1  0
 15 16  2  0
 16 17  1  0
  8 18  1  0
 18 19  2  0
  2 20  1  0
 20 21  2  0
 21 22  1  0
 22 23  2  0
 23 24  1  0
 23 25  1  0
 25 26  2  0
 19  5  1  0
 26 20  1  0
 17  9  1  0
 16 11  1  0
  4 27  1  0
  6 28  1  0
  7 29  1  0
 12 30  1  0
 13 31  1  0
 14 32  1  0
 15 33  1  0
 17 34  1  0
 18 35  1  0
 19 36  1  0
 21 37  1  0
 22 38  1  0
 25 39  1  0
 26 40  1  0
M  END
>  <smiles>  (36) 
O=S(=O)(Nc1ccc(-c2nc3ccccc3[nH]2)cc1)c1ccc(Cl)cc1

>  <score_type>  (36) 
oracle

>  <origin>  (36) 
adg

>  <m_score__min__energy>  (36) 
-8.7599999999999998

>  <m_primary>  (36) 
energy

$$$$
36:0
     RDKit          3D

 49 49  0  0  0  0  0  0  0  0999 V2000
   58.6501   30.0015   43.1971 H   0  0  0  0  0  0  0  0  0  0  0  0
   58.1230   31.7700   44.2190 C   0  0  0  0  0  0  0  0  0  0  0  0
   57.9240   27.2060   46.0550 C   0  0  0  0  0  0  0  0  0  0  0  0
   56.9921   29.8915   45.9220 H   0  0  0  0  0  0  0  0  0  0  0  0
   57.5610   29.4930   45.0690 C   0  0  0  0  0  0  0  0  0  0  0  0
   57.6713   27.7516   43.9110 H   0  0  0  0  0  0  0  0  0  0  0  0
   57.7100   28.1640   44.9300 C   0  0  0  0  0  0  0  0  0  0  0  0
   58.1560   30.4250   44.0840 C   0  0  0  0  0  0  0  0  0  0  0  0
   56.8323   32.9210   45.5786 H   0  0  0  0  0  0  0  0  0  0  0  0
   57.7620   32.3340   45.5460 C   0  0  0  0  0  0  0  0  0  0  0  0
   57.9595   25.1492   45.6792 H   0  0  0  0  0  0  0  0  0  0  0  0
   59.8800   32.4290   47.0250 C   0  0  0  0  0  0  0  0  0  0  0  0
   60.4450   33.6820   47.1120 C   0  0  0  0  0  0  0  0  0  0  0  0
   59.6330   34.9380   47.1980 C   0  0  0  0  0  0  0  0  0  0  0  0
   59.4666   35.1954   48.2544 H   0  0  0  0  0  0  0  0  0  0  0  0
   60.1723   35.7580   46.7014 H   0  0  0  0  0  0  0  0  0  0  0  0
   58.6638   34.7828   46.7014 H   0  0  0  0  0  0  0  0  0  0  0  0
   61.9240   33.8690   47.3480 C   0  0  0  0  0  0  0  0  0  0  0  0
   62.2908   34.6494   46.6650 H   0  0  0  0  0  0  0  0  0  0  0  0
   62.0530   34.1489   48.4039 H   0  0  0  0  0  0  0  0  0  0  0  0
   62.7370   32.5990   47.1140 C   0  0  0  0  0  0  0  0  0  0  0  0
   62.7025   32.3289   46.0482 H   0  0  0  0  0  0  0  0  0  0  0  0
   63.7839   32.7656   47.4076 H   0  0  0  0  0  0  0  0  0  0  0  0
   62.1390   31.4750   47.9460 C   0  0  0  0  0  0  0  0  0  0  0  0
   62.7399   30.5654   47.7991 H   0  0  0  0  0  0  0  0  0  0  0  0
   62.1470   31.7896   49.0000 H   0  0  0  0  0  0  0  0  0  0  0  0
   60.6540   31.1730   47.5400 C   0  0  0  0  0  0  0  0  0  0  0  0
   60.6710   30.0790   46.4300 C   0  0  0  0  0  0  0  0  0  0  0  0
   60.6865   29.0831   46.8969 H   0  0  0  0  0  0  0  0  0  0  0  0
   59.7712   30.1769   45.8048 H   0  0  0  0  0  0  0  0  0  0  0  0
   61.5673   30.2048   45.8048 H   0  0  0  0  0  0  0  0  0  0  0  0
   59.9280   30.5740   48.7870 C   0  0  0  0  0  0  0  0  0  0  0  0
   60.3961   30.9602   49.7044 H   0  0  0  0  0  0  0  0  0  0  0  0
   58.8668   30.8628   48.7673 H   0  0  0  0  0  0  0  0  0  0  0  0
   60.0100   29.4772   48.7673 H   0  0  0  0  0  0  0  0  0  0  0  0
   58.8180   27.5790   47.2230 C   0  0  0  0  0  0  0  0  0  0  0  0
   58.2973   27.3618   48.1673 H   0  0  0  0  0  0  0  0  0  0  0  0
   59.7482   26.9939   47.1742 H   0  0  0  0  0  0  0  0  0  0  0  0
   59.0565   28.6517   47.1742 H   0  0  0  0  0  0  0  0  0  0  0  0
   57.3200   25.9970   45.9660 C   0  0  0  0  0  0  0  0  0  0  0  0
   58.4230   32.2210   46.7130 C   0  0  0  0  0  0  0  0  0  0  0  0
   57.8009   31.9314   47.5727 H   0  0  0  0  0  0  0  0  0  0  0  0
   55.8920   25.6930   46.2130 C   0  0  0  0  0  0  0  0  0  0  0  0
   55.5140   24.5730   46.6480 O   0  0  0  0  0  0  0  0  0  0  0  0
   54.9470   26.6920   46.0050 O   0  0  0  0  0  0  0  0  0  0  0  0
   57.9750   32.6610   43.0050 C   0  0  0  0  0  0  0  0  0  0  0  0
   57.8028   33.6977   43.3299 H   0  0  0  0  0  0  0  0  0  0  0  0
   58.8933   32.6137   42.4013 H   0  0  0  0  0  0  0  0  0  0  0  0
   57.1213   32.3193   42.4013 H   0  0  0  0  0  0  0  0  0  0  0  0
  1  2  1  0
  2  3  2  0
  3  4  1  0
  3  5  1  0
  5  6  1  0
  5  7  2  0
  7  8  1  0
  8  9  1  0
  8 10  2  0
 10 11  1  0
 10 12  1  0
 12 13  2  0
 13 14  1  0
 14 15  1  0
 14 16  1  0
 14 17  1  0
 13 18  1  0
 18 19  1  0
 18 20  1  0
 18 21  1  0
 21 22  1  0
 21 23  1  0
 21 24  1  0
 24 25  1  0
 24 26  1  0
 24 27  1  0
 27 28  1  0
 28 29  1  0
 28 30  1  0
 28 31  1  0
 27 32  1  0
 32 33  1  0
 32 34  1  0
 32 35  1  0
  7 36  1  0
 36 37  1  0
 36 38  1  0
 36 39  1  0
  2 40  1  0
 40 41  2  3
 41 42  1  0
 41 43  1  0
 43 44  2  0
 43 45  1  0
 40 46  1  0
 46 47  1  0
 46 48  1  0
 46 49  1  0
 27 12  1  0
M  CHG  1  45  -1
M  END
>  <UniqueID>  (37) 
30

>  <SMILES>  (37) 
CC(C=C/C=C(C)/C=C\C1=C(C)CCCC1(C)C)=CC(=O)[O-]

>  <Energy>  (37) 
80.9713335242726

>  <Genealogy>  (37) 
CC(C=CC1=C(C)CCCC1(C)C)=CC=CC(C)=CC(=O)[O-] (protonated)
CC(C=C/C=C(C)/C=C\C1=C(C)CCCC1(C)C)=CC(=O)[O-] (cis-trans isomerization)
CC(C=C/C=C(C)/C=C\C1=C(C)CCCC1(C)C)=CC(=O)[O-] (3D coordinates assigned)
CC(C=C/C=C(C)/C=C\C1=C(C)CCCC1(C)C)=CC(=O)[O-] (nonaromatic ring conformer: 80.9713335242726 kcal/mol)

>  <smiles>  (37) 
CC(C=CC1=C(C)CCCC1(C)C)=CC=CC(C)=CC(=O)O

>  <score_type>  (37) 
oracle

>  <origin>  (37) 
adg

>  <m_score__min__energy>  (37) 
-11.24

>  <m_primary>  (37) 
energy

$$$$
37:0
     RDKit          3D

 51 54  0  0  0  0  0  0  0  0999 V2000
   58.3730   21.9930   45.2580 C   0  0  0  0  0  0  0  0  0  0  0  0
   58.1110   22.8790   46.3390 O   0  0  0  0  0  0  0  0  0  0  0  0
   57.8560   24.2410   46.1550 C   0  0  0  0  0  0  0  0  0  0  0  0
   57.7710   24.7550   44.8590 C   0  0  0  0  0  0  0  0  0  0  0  0
   57.5160   26.1150   44.6740 C   0  0  0  0  0  0  0  0  0  0  0  0
   57.3370   26.9590   45.7830 C   0  0  0  0  0  0  0  0  0  0  0  0
   57.0720   28.4060   45.5920 C   0  0  0  0  0  0  0  0  0  0  0  0
   55.9190   28.7840   45.2430 O   0  0  0  0  0  0  0  0  0  0  0  0
   58.0950   29.3830   45.8460 N   0  0  0  0  0  0  0  0  0  0  0  0
   58.0750   30.7180   45.3120 C   0  0  0  0  0  0  0  0  0  0  0  0
   57.4800   31.0080   44.0740 C   0  0  0  0  0  0  0  0  0  0  0  0
   57.4940   32.2770   43.5900 N   0  0  0  0  0  0  0  0  0  0  0  0
   58.0880   33.2960   44.2620 C   0  0  0  0  0  0  0  0  0  0  0  0
   58.7310   33.0570   45.4870 C   0  0  0  0  0  0  0  0  0  0  0  0
   59.3790   34.1540   46.2440 C   0  0  0  0  0  0  0  0  0  0  0  0
   59.2480   35.3390   45.8330 O   0  0  0  0  0  0  0  0  0  0  0  0
   60.1530   33.9040   47.4780 C   0  0  0  0  0  0  0  0  0  0  0  0
   59.6600   33.8720   48.7850 C   0  0  0  0  0  0  0  0  0  0  0  0
   60.6700   33.6660   49.6690 N   0  0  0  0  0  0  0  0  0  0  0  0
   60.5650   33.5860   51.1310 C   0  0  0  0  0  0  0  0  0  0  0  0
   59.1210   33.8380   51.5750 C   0  0  0  0  0  0  0  0  0  0  0  0
   61.0670   32.2270   51.6300 C   0  0  0  0  0  0  0  0  0  0  0  0
   61.7910   33.5840   48.9280 C   0  0  0  0  0  0  0  0  0  0  0  0
   63.0510   33.3920   49.3880 N   0  0  0  0  0  0  0  0  0  0  0  0
   64.0740   33.3370   48.4840 C   0  0  0  0  0  0  0  0  0  0  0  0
   63.8230   33.4720   47.1430 N   0  0  0  0  0  0  0  0  0  0  0  0
   62.5570   33.6680   46.6730 C   0  0  0  0  0  0  0  0  0  0  0  0
   61.5200   33.7270   47.5990 C   0  0  0  0  0  0  0  0  0  0  0  0
   58.7100   31.7540   46.0090 C   0  0  0  0  0  0  0  0  0  0  0  0
   57.4380   26.3990   47.0690 C   0  0  0  0  0  0  0  0  0  0  0  0
   57.6910   25.0720   47.2210 N   0  0  0  0  0  0  0  0  0  0  0  0
   58.6641   21.0085   45.6531 H   0  0  0  0  0  0  0  0  0  0  0  0
   57.4675   21.8879   44.6424 H   0  0  0  0  0  0  0  0  0  0  0  0
   59.1901   22.3972   44.6424 H   0  0  0  0  0  0  0  0  0  0  0  0
   57.9040   24.0931   43.9906 H   0  0  0  0  0  0  0  0  0  0  0  0
   57.4550   26.5275   43.6561 H   0  0  0  0  0  0  0  0  0  0  0  0
   58.8340   29.1490   46.5470 H   0  0  0  0  0  0  0  0  0  0  0  0
   57.0011   30.2052   43.4943 H   0  0  0  0  0  0  0  0  0  0  0  0
   58.0655   34.3136   43.8449 H   0  0  0  0  0  0  0  0  0  0  0  0
   58.6020   33.9963   49.0594 H   0  0  0  0  0  0  0  0  0  0  0  0
   61.2002   34.3664   51.5755 H   0  0  0  0  0  0  0  0  0  0  0  0
   59.0715   33.8466   52.6739 H   0  0  0  0  0  0  0  0  0  0  0  0
   58.7816   34.8089   51.1850 H   0  0  0  0  0  0  0  0  0  0  0  0
   58.4728   33.0394   51.1850 H   0  0  0  0  0  0  0  0  0  0  0  0
   61.0701   32.2186   52.7300 H   0  0  0  0  0  0  0  0  0  0  0  0
   60.4031   31.4322   51.2591 H   0  0  0  0  0  0  0  0  0  0  0  0
   62.0881   32.0546   51.2591 H   0  0  0  0  0  0  0  0  0  0  0  0
   65.1054   33.1835   48.8343 H   0  0  0  0  0  0  0  0  0  0  0  0
   62.3623   33.7760   45.5958 H   0  0  0  0  0  0  0  0  0  0  0  0
   59.1962   31.5448   46.9733 H   0  0  0  0  0  0  0  0  0  0  0  0
   57.3117   27.0375   47.9558 H   0  0  0  0  0  0  0  0  0  0  0  0
  1  2  1  0
  2  3  1  0
  3  4  2  0
  4  5  1  0
  5  6  2  0
  6  7  1  0
  7  8  2  0
  7  9  1  0
  9 10  1  0
 10 11  2  0
 11 12  1  0
 12 13  2  0
 13 14  1  0
 14 15  1  0
 15 16  2  0
 15 17  1  0
 17 18  2  0
 18 19  1  0
 19 20  1  0
 20 21  1  0
 20 22  1  0
 19 23  1  0
 23 24  2  0
 24 25  1  0
 25 26  2  0
 26 27  1  0
 27 28  2  0
 14 29  2  0
  6 30  1  0
 30 31  2  0
 31  3  1  0
 29 10  1  0
 28 17  1  0
 28 23  1  0
  1 32  1  0
  1 33  1  0
  1 34  1  0
  4 35  1  0
  5 36  1  0
  9 37  1  0
 11 38  1  0
 13 39  1  0
 18 40  1  0
 20 41  1  0
 21 42  1  0
 21 43  1  0
 21 44  1  0
 22 45  1  0
 22 46  1  0
 22 47  1  0
 25 48  1  0
 27 49  1  0
 29 50  1  0
 30 51  1  0
M  END
>  <UniqueID>  (38) 
31

>  <SMILES>  (38) 
COc1ccc(C(=O)Nc2cncc(C(=O)c3cn(C(C)C)c4ncncc34)c2)cn1

>  <Energy>  (38) 
97.78380038812803

>  <Genealogy>  (38) 
COc1ccc(C(=O)Nc2cncc(C(=O)c3cn(C(C)C)c4ncncc34)c2)cn1 (3D coordinates assigned)
COc1ccc(C(=O)Nc2cncc(C(=O)c3cn(C(C)C)c4ncncc34)c2)cn1 (optimized conformer: 97.78380038812803 kcal/mol)

>  <smiles>  (38) 
COc1ccc(C(=O)Nc2cncc(C(=O)c3cn(C(C)C)c4ncncc34)c2)cn1

>  <score_type>  (38) 
oracle

>  <origin>  (38) 
adg

>  <m_score__min__energy>  (38) 
-8.5

>  <m_primary>  (38) 
energy

$$$$
38:0
     RDKit          3D

 56 58  0  0  0  0  0  0  0  0999 V2000
   63.3910   33.8300   47.8920 C   0  0  0  0  0  0  0  0  0  0  0  0
   63.9450   32.6660   48.7220 C   0  0  0  0  0  0  0  0  0  0  0  0
   62.9780   32.2010   49.7430 N   0  0  2  0  0  0  0  0  0  0  0  0
   63.6560   31.7390   50.9330 C   0  0  0  0  0  0  0  0  0  0  0  0
   64.5520   30.9070   50.8760 O   0  0  0  0  0  0  0  0  0  0  0  0
   62.0830   31.1660   49.2460 C   0  0  0  0  0  0  0  0  0  0  0  0
   61.8930   30.9540   47.8630 C   0  0  0  0  0  0  0  0  0  0  0  0
   61.0440   29.9420   47.4090 C   0  0  0  0  0  0  0  0  0  0  0  0
   60.3830   29.1070   48.3210 C   0  0  0  0  0  0  0  0  0  0  0  0
   59.4990   27.9920   47.8300 C   0  0  0  0  0  0  0  0  0  0  0  0
   58.9260   28.3040   46.4720 C   0  0  0  0  0  0  0  0  0  0  0  0
   58.8990   27.3210   45.4720 C   0  0  0  0  0  0  0  0  0  0  0  0
   58.3270   27.5990   44.2220 C   0  0  0  0  0  0  0  0  0  0  0  0
   57.7760   28.8560   43.9660 C   0  0  0  0  0  0  0  0  0  0  0  0
   57.8290   29.8600   44.9450 C   0  0  0  0  0  0  0  0  0  0  0  0
   57.2630   31.1940   44.6670 C   0  0  0  0  0  0  0  0  0  0  0  0
   56.0140   31.3410   44.6720 O   0  0  0  0  0  0  0  0  0  0  0  0
   58.0920   32.3320   44.3910 N   0  0  0  0  0  0  0  0  0  0  0  0
   58.0030   33.8470   45.2320 S   0  0  0  0  0  0  0  0  0  0  0  0
   58.8170   34.8730   44.4950 O   0  0  0  0  0  0  0  0  0  0  0  0
   56.5720   34.3020   45.2880 O   0  0  0  0  0  0  0  0  0  0  0  0
   58.6600   33.6780   46.8560 C   0  0  0  0  0  0  0  0  0  0  0  0
   58.2850   32.6010   47.6660 C   0  0  0  0  0  0  0  0  0  0  0  0
   58.8580   32.4420   48.9280 C   0  0  0  0  0  0  0  0  0  0  0  0
   59.8020   33.3670   49.4040 C   0  0  0  0  0  0  0  0  0  0  0  0
   60.3950   33.2440   50.6700 O   0  0  0  0  0  0  0  0  0  0  0  0
   59.7250   33.5210   51.8970 C   0  0  0  0  0  0  0  0  0  0  0  0
   60.1650   34.4480   48.5930 C   0  0  0  0  0  0  0  0  0  0  0  0
   59.5980   34.6050   47.3270 C   0  0  0  0  0  0  0  0  0  0  0  0
   58.3990   29.5750   46.2010 C   0  0  0  0  0  0  0  0  0  0  0  0
   60.5690   29.3090   49.6970 C   0  0  0  0  0  0  0  0  0  0  0  0
   61.4030   30.3320   50.1550 C   0  0  0  0  0  0  0  0  0  0  0  0
   63.0172   34.6153   48.5655 H   0  0  0  0  0  0  0  0  0  0  0  0
   64.1901   34.2409   47.2575 H   0  0  0  0  0  0  0  0  0  0  0  0
   62.5682   33.4689   47.2575 H   0  0  0  0  0  0  0  0  0  0  0  0
   64.1789   31.8291   48.0476 H   0  0  0  0  0  0  0  0  0  0  0  0
   64.8456   33.0206   49.2446 H   0  0  0  0  0  0  0  0  0  0  0  0
   62.4160   33.0350   50.0370 H   0  0  0  0  0  0  0  0  0  0  0  0
   63.3601   32.1442   51.9119 H   0  0  0  0  0  0  0  0  0  0  0  0
   62.4183   31.5915   47.1366 H   0  0  0  0  0  0  0  0  0  0  0  0
   60.8930   29.7992   46.3288 H   0  0  0  0  0  0  0  0  0  0  0  0
   60.0914   27.0675   47.7649 H   0  0  0  0  0  0  0  0  0  0  0  0
   58.6662   27.8721   48.5386 H   0  0  0  0  0  0  0  0  0  0  0  0
   59.3283   26.3276   45.6690 H   0  0  0  0  0  0  0  0  0  0  0  0
   58.3125   26.8244   43.4411 H   0  0  0  0  0  0  0  0  0  0  0  0
   57.2997   29.0597   42.9956 H   0  0  0  0  0  0  0  0  0  0  0  0
   57.5372   31.8784   47.3074 H   0  0  0  0  0  0  0  0  0  0  0  0
   58.5684   31.5859   49.5550 H   0  0  0  0  0  0  0  0  0  0  0  0
   60.3778   33.2511   52.7403 H   0  0  0  0  0  0  0  0  0  0  0  0
   59.4832   34.5928   51.9489 H   0  0  0  0  0  0  0  0  0  0  0  0
   58.7969   32.9328   51.9489 H   0  0  0  0  0  0  0  0  0  0  0  0
   60.9024   35.1793   48.9556 H   0  0  0  0  0  0  0  0  0  0  0  0
   59.8888   35.4591   46.6978 H   0  0  0  0  0  0  0  0  0  0  0  0
   58.4311   30.3555   46.9755 H   0  0  0  0  0  0  0  0  0  0  0  0
   60.0551   28.6580   50.4195 H   0  0  0  0  0  0  0  0  0  0  0  0
   61.5299   30.4878   51.2365 H   0  0  0  0  0  0  0  0  0  0  0  0
  1  2  1  0
  2  3  1  0
  3  4  1  0
  4  5  2  0
  3  6  1  0
  6  7  2  0
  7  8  1  0
  8  9  2  0
  9 10  1  0
 10 11  1  0
 11 12  2  0
 12 13  1  0
 13 14  2  0
 14 15  1  0
 15 16  1  0
 16 17  2  0
 16 18  1  0
 18 19  1  0
 19 20  2  0
 19 21  2  0
 19 22  1  0
 22 23  2  0
 23 24  1  0
 24 25  2  0
 25 26  1  0
 26 27  1  0
 25 28  1  0
 28 29  2  0
 15 30  2  0
  9 31  1  0
 31 32  2  0
 32  6  1  0
 30 11  1  0
 29 22  1  0
  1 33  1  0
  1 34  1  0
  1 35  1  0
  2 36  1  0
  2 37  1  0
  3 38  1  1
  4 39  1  0
  7 40  1  0
  8 41  1  0
 10 42  1  0
 10 43  1  0
 12 44  1  0
 13 45  1  0
 14 46  1  0
 23 47  1  0
 24 48  1  0
 27 49  1  0
 27 50  1  0
 27 51  1  0
 28 52  1  0
 29 53  1  0
 30 54  1  0
 31 55  1  0
 32 56  1  0
M  CHG  2   3   1  18  -1
M  END
>  <UniqueID>  (39) 
32

>  <SMILES>  (39) 
CC[N@H+](C=O)c1ccc(Cc2cccc(C(=O)[N-]S(=O)(=O)c3ccc(OC)cc3)c2)cc1

>  <Energy>  (39) 
62.225032400736026

>  <Genealogy>  (39) 
CC[NH+](C=O)c1ccc(Cc2cccc(C(=O)[N-]S(=O)(=O)c3ccc(OC)cc3)c2)cc1 (protonated)
CC[N@H+](C=O)c1ccc(Cc2cccc(C(=O)[N-]S(=O)(=O)c3ccc(OC)cc3)c2)cc1 (chirality)
CC[N@H+](C=O)c1ccc(Cc2cccc(C(=O)[N-]S(=O)(=O)c3ccc(OC)cc3)c2)cc1 (3D coordinates assigned)
CC[N@H+](C=O)c1ccc(Cc2cccc(C(=O)[N-]S(=O)(=O)c3ccc(OC)cc3)c2)cc1 (optimized conformer: 62.225032400736026 kcal/mol)

>  <smiles>  (39) 
CCN(C=O)c1ccc(Cc2cccc(C(=O)NS(=O)(=O)c3ccc(OC)cc3)c2)cc1

>  <score_type>  (39) 
oracle

>  <origin>  (39) 
adg

>  <m_score__min__energy>  (39) 
-9.1799999999999997

>  <m_primary>  (39) 
energy

$$$$
39:0
     RDKit          3D

 57 60  0  0  1  0  0  0  0  0999 V2000
   54.8330   30.7620   52.2700 C   0  0  0  0  0  0  0  0  0  0  0  0
   55.8500   30.9390   51.2460 N   0  0  0  0  0  0  0  0  0  0  0  0
   57.3890   30.5040   51.8700 S   0  0  0  0  0  0  0  0  0  0  0  0
   57.4190   28.9910   52.0390 O   0  0  0  0  0  0  0  0  0  0  0  0
   57.6050   31.1160   53.2060 O   0  0  0  0  0  0  0  0  0  0  0  0
   58.6280   30.9400   50.7180 C   0  0  0  0  0  0  0  0  0  0  0  0
   59.3450   32.1220   50.9310 C   0  0  0  0  0  0  0  0  0  0  0  0
   60.3180   32.4430   50.0070 C   0  0  0  0  0  0  0  0  0  0  0  0
   60.6160   31.6770   48.9090 C   0  0  0  0  0  0  0  0  0  0  0  0
   61.6310   32.0450   47.9830 N   0  0  0  0  0  0  0  0  0  0  0  0
   61.3140   32.8980   46.8410 C   0  0  0  0  0  0  0  0  0  0  0  0
   62.6610   33.4650   46.3830 C   0  0  0  0  0  0  0  0  0  0  0  0
   63.4120   33.8960   47.4580 O   0  0  0  0  0  0  0  0  0  0  0  0
   63.8320   32.8910   48.2980 C   0  0  0  0  0  0  0  0  0  0  0  0
   63.0110   31.6120   48.1040 C   0  0  0  0  0  0  0  0  0  0  0  0
   59.8960   30.5090   48.7140 C   0  0  0  0  0  0  0  0  0  0  0  0
   60.2220   29.7330   47.5660 N   0  0  0  0  0  0  0  0  0  0  0  0
   59.2980   29.2270   46.8300 C   0  0  0  0  0  0  0  0  0  0  0  0
   59.1410   27.8590   46.8760 C   0  0  0  0  0  0  0  0  0  0  0  0
   58.1490   27.3230   46.0840 C   0  0  0  0  0  0  0  0  0  0  0  0
   57.4240   28.1730   45.3410 N   0  0  0  0  0  0  0  0  0  0  0  0
   57.5850   29.4960   45.3050 C   0  0  0  0  0  0  0  0  0  0  0  0
   56.6510   30.6220   44.3090 S   0  0  0  0  0  0  0  0  0  0  0  0
   57.5240   32.0770   43.8030 C   0  0  0  0  0  0  0  0  0  0  0  0
   57.9810   32.9780   44.8710 C   0  0  0  0  0  0  0  0  0  0  0  0
   57.6540   32.9250   46.1920 C   0  0  0  0  0  0  0  0  0  0  0  0
   58.1360   33.8590   47.1170 C   0  0  0  0  0  0  0  0  0  0  0  0
   58.9710   34.8830   46.7220 C   0  0  0  0  0  0  0  0  0  0  0  0
   59.3090   34.9470   45.3870 C   0  0  0  0  0  0  0  0  0  0  0  0
   58.8300   34.0240   44.4830 C   0  0  0  0  0  0  0  0  0  0  0  0
   58.5620   30.0510   46.0810 N   0  0  0  0  0  0  0  0  0  0  0  0
   58.9210   30.1640   49.6180 C   0  0  0  0  0  0  0  0  0  0  0  0
   55.2961   30.8426   53.2645 H   0  0  0  0  0  0  0  0  0  0  0  0
   54.0628   31.5396   52.1601 H   0  0  0  0  0  0  0  0  0  0  0  0
   54.3708   29.7699   52.1601 H   0  0  0  0  0  0  0  0  0  0  0  0
   55.8280   31.8700   50.8180 H   0  0  0  0  0  0  0  0  0  0  0  0
   59.1418   32.7679   51.7979 H   0  0  0  0  0  0  0  0  0  0  0  0
   60.8898   33.3701   50.1603 H   0  0  0  0  0  0  0  0  0  0  0  0
   60.8486   32.3096   46.0365 H   0  0  0  0  0  0  0  0  0  0  0  0
   60.5998   33.6921   47.1044 H   0  0  0  0  0  0  0  0  0  0  0  0
   63.2171   32.6812   45.8479 H   0  0  0  0  0  0  0  0  0  0  0  0
   62.4712   34.3246   45.7233 H   0  0  0  0  0  0  0  0  0  0  0  0
   64.8896   32.6710   48.0902 H   0  0  0  0  0  0  0  0  0  0  0  0
   63.6974   33.2316   49.3352 H   0  0  0  0  0  0  0  0  0  0  0  0
   63.3294   31.0867   47.1915 H   0  0  0  0  0  0  0  0  0  0  0  0
   63.1448   30.9128   48.9426 H   0  0  0  0  0  0  0  0  0  0  0  0
   59.7760   27.2261   47.5133 H   0  0  0  0  0  0  0  0  0  0  0  0
   57.9588   26.2398   46.0617 H   0  0  0  0  0  0  0  0  0  0  0  0
   56.6710   27.7620   44.7620 H   0  0  0  0  0  0  0  0  0  0  0  0
   58.4105   31.7540   43.2374 H   0  0  0  0  0  0  0  0  0  0  0  0
   56.7966   32.6630   43.2221 H   0  0  0  0  0  0  0  0  0  0  0  0
   56.9894   32.1221   46.5438 H   0  0  0  0  0  0  0  0  0  0  0  0
   57.8444   33.7748   48.1743 H   0  0  0  0  0  0  0  0  0  0  0  0
   59.3525   35.6200   47.4440 H   0  0  0  0  0  0  0  0  0  0  0  0
   59.9738   35.7503   45.0368 H   0  0  0  0  0  0  0  0  0  0  0  0
   59.1223   34.1104   43.4261 H   0  0  0  0  0  0  0  0  0  0  0  0
   58.3540   29.2351   49.4579 H   0  0  0  0  0  0  0  0  0  0  0  0
  1  2  1  0
  2  3  1  0
  3  4  2  0
  3  5  2  0
  3  6  1  0
  6  7  2  0
  7  8  1  0
  8  9  2  0
  9 10  1  0
 10 11  1  0
 11 12  1  0
 12 13  1  0
 13 14  1  0
 14 15  1  0
  9 16  1  0
 16 17  1  0
 17 18  2  0
 18 19  1  0
 19 20  2  0
 20 21  1  0
 21 22  1  0
 22 23  1  0
 23 24  1  0
 24 25  1  0
 25 26  2  0
 26 27  1  0
 27 28  2  0
 28 29  1  0
 29 30  2  0
 22 31  2  0
 16 32  2  0
 32  6  1  0
 15 10  1  0
 31 18  1  0
 30 25  1  0
  1 33  1  0
  1 34  1  0
  1 35  1  0
  2 36  1  0
  7 37  1  0
  8 38  1  0
 11 39  1  0
 11 40  1  0
 12 41  1  0
 12 42  1  0
 14 43  1  0
 14 44  1  0
 15 45  1  0
 15 46  1  0
 19 47  1  0
 20 48  1  0
 21 49  1  0
 24 50  1  0
 24 51  1  0
 26 52  1  0
 27 53  1  0
 28 54  1  0
 29 55  1  0
 30 56  1  0
 32 57  1  0
M  END
>  <smiles>  (40) 
CNS(=O)(=O)c1ccc(N2CCOCC2)c(N=c2cc[nH]c(SCc3ccccc3)n2)c1

>  <score_type>  (40) 
oracle

>  <origin>  (40) 
adg

>  <m_score__min__energy>  (40) 
-9.3900000000000006

>  <m_primary>  (40) 
energy

$$$$
40:0
     RDKit          3D

 38 39  0  0  0  0  0  0  0  0999 V2000
   59.4460   33.7670   51.6240 C   0  0  0  0  0  0  0  0  0  0  0  0
   59.2730   33.1040   50.2890 C   0  0  0  0  0  0  0  0  0  0  0  0
   58.9840   31.7360   50.2130 C   0  0  0  0  0  0  0  0  0  0  0  0
   58.8500   31.1130   48.9700 C   0  0  0  0  0  0  0  0  0  0  0  0
   59.0050   31.8450   47.7860 C   0  0  0  0  0  0  0  0  0  0  0  0
   58.8400   31.1690   46.5320 N   0  0  0  0  0  0  0  0  0  0  0  0
   59.8370   30.2880   45.9970 C   0  0  0  0  0  0  0  0  0  0  0  0
   60.9990   30.2750   46.4880 O   0  0  0  0  0  0  0  0  0  0  0  0
   59.5090   29.3710   44.8570 C   0  0  0  0  0  0  0  0  0  0  0  0
   58.2840   28.5380   45.1880 C   0  0  0  0  0  0  0  0  0  0  0  0
   58.3860   27.1980   45.6570 C   0  0  0  0  0  0  0  0  0  0  0  0
   59.7430   26.5690   45.8920 C   0  0  0  0  0  0  0  0  0  0  0  0
   57.1980   26.4820   45.9470 C   0  0  0  0  0  0  0  0  0  0  0  0
   57.2260   25.1350   46.4720 C   0  0  0  0  0  0  0  0  0  0  0  0
   57.2500   24.0560   46.8910 N   0  0  0  0  0  0  0  0  0  0  0  0
   55.9550   27.0900   45.7280 C   0  0  0  0  0  0  0  0  0  0  0  0
   54.7740   26.4060   45.9950 O   0  0  0  0  0  0  0  0  0  0  0  0
   55.8910   28.3580   45.2530 N   0  0  0  0  0  0  0  0  0  0  0  0
   57.0010   29.0860   44.9800 C   0  0  0  0  0  0  0  0  0  0  0  0
   56.8650   30.2590   44.5390 O   0  0  0  0  0  0  0  0  0  0  0  0
   59.3640   33.2120   47.8530 C   0  0  0  0  0  0  0  0  0  0  0  0
   59.6300   34.0220   46.6110 C   0  0  0  0  0  0  0  0  0  0  0  0
   59.4770   33.8330   49.1070 C   0  0  0  0  0  0  0  0  0  0  0  0
   59.2553   33.0362   52.4238 H   0  0  0  0  0  0  0  0  0  0  0  0
   60.4738   34.1486   51.7134 H   0  0  0  0  0  0  0  0  0  0  0  0
   58.7357   34.6022   51.7134 H   0  0  0  0  0  0  0  0  0  0  0  0
   58.8620   31.1497   51.1357 H   0  0  0  0  0  0  0  0  0  0  0  0
   58.6208   30.0383   48.9206 H   0  0  0  0  0  0  0  0  0  0  0  0
   58.0410   31.4500   45.9190 H   0  0  0  0  0  0  0  0  0  0  0  0
   59.3086   29.9693   43.9559 H   0  0  0  0  0  0  0  0  0  0  0  0
   60.3621   28.6993   44.6807 H   0  0  0  0  0  0  0  0  0  0  0  0
   59.9256   26.4844   46.9734 H   0  0  0  0  0  0  0  0  0  0  0  0
   59.7670   25.5680   45.4366 H   0  0  0  0  0  0  0  0  0  0  0  0
   60.5224   27.1977   45.4366 H   0  0  0  0  0  0  0  0  0  0  0  0
   59.9615   35.0315   46.8956 H   0  0  0  0  0  0  0  0  0  0  0  0
   60.4147   33.5328   46.0152 H   0  0  0  0  0  0  0  0  0  0  0  0
   58.7080   34.0932   46.0152 H   0  0  0  0  0  0  0  0  0  0  0  0
   59.7281   34.9024   49.1639 H   0  0  0  0  0  0  0  0  0  0  0  0
  1  2  1  0
  2  3  2  0
  3  4  1  0
  4  5  2  0
  5  6  1  0
  6  7  1  0
  7  8  2  0
  7  9  1  0
  9 10  1  0
 10 11  2  0
 11 12  1  0
 11 13  1  0
 13 14  1  0
 14 15  3  0
 13 16  2  0
 16 17  1  0
 16 18  1  0
 18 19  1  0
 19 20  2  0
  5 21  1  0
 21 22  1  0
 21 23  2  0
 23  2  1  0
 19 10  1  0
  1 24  1  0
  1 25  1  0
  1 26  1  0
  3 27  1  0
  4 28  1  0
  6 29  1  0
  9 30  1  0
  9 31  1  0
 12 32  1  0
 12 33  1  0
 12 34  1  0
 22 35  1  0
 22 36  1  0
 22 37  1  0
 23 38  1  0
M  CHG  2  17  -1  18  -1
M  END
>  <UniqueID>  (41) 
33

>  <SMILES>  (41) 
Cc1ccc(NC(=O)Cc2c(C)c(C#N)c([O-])[n-]c2=O)c(C)c1

>  <Energy>  (41) 
46.15452581121204

>  <Genealogy>  (41) 
Cc1ccc(NC(=O)Cc2c(C)c(C#N)c([O-])[n-]c2=O)c(C)c1 (protonated)
Cc1ccc(NC(=O)Cc2c(C)c(C#N)c([O-])[n-]c2=O)c(C)c1 (3D coordinates assigned)
Cc1ccc(NC(=O)Cc2c(C)c(C#N)c([O-])[n-]c2=O)c(C)c1 (optimized conformer: 46.15452581121204 kcal/mol)

>  <smiles>  (41) 
Cc1ccc(NC(=O)Cc2c(C)c(C#N)c(O)[nH]c2=O)c(C)c1

>  <score_type>  (41) 
oracle

>  <origin>  (41) 
adg

>  <m_score__min__energy>  (41) 
-12.91

>  <m_primary>  (41) 
energy

$$$$
41:0
     RDKit          3D

 43 47  0  0  0  0  0  0  0  0999 V2000
   57.9662   26.7911   43.7363 H   0  0  0  0  0  0  0  0  0  0  0  0
   57.5550   27.1020   44.7080 C   0  0  0  0  0  0  0  0  0  0  0  0
   57.1350   26.0490   45.6460 C   0  0  0  0  0  0  0  0  0  0  0  0
   57.9770   25.1370   46.1640 N   0  0  0  0  0  0  0  0  0  0  0  0
   57.1990   24.4510   47.0300 C   0  0  0  0  0  0  0  0  0  0  0  0
   57.6330   23.4870   47.7110 O   0  0  0  0  0  0  0  0  0  0  0  0
   55.9240   24.8870   47.1170 N   0  0  0  0  0  0  0  0  0  0  0  0
   55.9030   25.9070   46.2450 C   0  0  0  0  0  0  0  0  0  0  0  0
   54.7930   26.7160   46.0320 O   0  0  0  0  0  0  0  0  0  0  0  0
   57.4690   28.4160   44.9610 C   0  0  0  0  0  0  0  0  0  0  0  0
   56.5860   29.3080   44.3600 C   0  0  0  0  0  0  0  0  0  0  0  0
   55.8590   29.0458   43.5773 H   0  0  0  0  0  0  0  0  0  0  0  0
   56.7540   30.5460   44.8810 N   0  0  0  0  0  0  0  0  0  0  0  0
   57.7060   30.4590   45.7960 N   0  0  0  0  0  0  0  0  0  0  0  0
   58.2000   31.4330   46.6150 C   0  0  0  0  0  0  0  0  0  0  0  0
   57.8060   32.6740   46.5680 N   0  0  0  0  0  0  0  0  0  0  0  0
   58.4710   33.7720   45.8740 C   0  0  0  0  0  0  0  0  0  0  0  0
   57.7678   33.8659   45.0333 H   0  0  0  0  0  0  0  0  0  0  0  0
   59.9840   33.7560   46.0000 C   0  0  0  0  0  0  0  0  0  0  0  0
   60.4869   32.9067   46.4857 H   0  0  0  0  0  0  0  0  0  0  0  0
   60.8248   33.8513   45.2972 H   0  0  0  0  0  0  0  0  0  0  0  0
   59.1590   34.7280   46.8300 C   0  0  0  0  0  0  0  0  0  0  0  0
   59.0654   34.5820   47.9162 H   0  0  0  0  0  0  0  0  0  0  0  0
   59.1561   35.8182   46.9764 H   0  0  0  0  0  0  0  0  0  0  0  0
   59.1520   31.0790   47.5210 N   0  0  0  0  0  0  0  0  0  0  0  0
   59.5910   29.7850   47.6150 C   0  0  0  0  0  0  0  0  0  0  0  0
   60.4890   29.4480   48.4910 N   0  0  0  0  0  0  0  0  0  0  0  0
   60.7190   30.1380   49.7610 C   0  0  0  0  0  0  0  0  0  0  0  0
   59.8375   30.7488   50.0058 H   0  0  0  0  0  0  0  0  0  0  0  0
   60.8912   29.3879   50.5469 H   0  0  0  0  0  0  0  0  0  0  0  0
   61.9290   31.0300   49.6660 C   0  0  0  0  0  0  0  0  0  0  0  0
   62.9230   30.9930   50.6570 C   0  0  0  0  0  0  0  0  0  0  0  0
   62.8106   30.3220   51.5213 H   0  0  0  0  0  0  0  0  0  0  0  0
   64.0550   31.8060   50.5490 C   0  0  0  0  0  0  0  0  0  0  0  0
   64.8301   31.7734   51.3289 H   0  0  0  0  0  0  0  0  0  0  0  0
   64.2050   32.6610   49.4520 C   0  0  0  0  0  0  0  0  0  0  0  0
   65.3360   33.4630   49.3550 O   0  0  0  0  0  0  0  0  0  0  0  0
   63.2190   32.7010   48.4570 C   0  0  0  0  0  0  0  0  0  0  0  0
   63.3920   33.7640   47.0690 Cl  0  0  0  0  0  0  0  0  0  0  0  0
   62.0860   31.8870   48.5640 C   0  0  0  0  0  0  0  0  0  0  0  0
   61.3140   31.9183   47.7810 H   0  0  0  0  0  0  0  0  0  0  0  0
   59.0800   28.8320   46.7860 N   0  0  0  0  0  0  0  0  0  0  0  0
   58.1510   29.2000   45.8730 C   0  0  0  0  0  0  0  0  0  0  0  0
  1  2  1  0
  2  3  1  0
  3  4  1  0
  4  5  1  0
  5  6  2  0
  5  7  1  0
  7  8  1  0
  8  9  1  0
  2 10  2  0
 10 11  1  0
 11 12  1  0
 11 13  2  0
 13 14  1  0
 14 15  1  0
 15 16  2  3
 16 17  1  0
 17 18  1  0
 17 19  1  0
 19 20  1  0
 19 21  1  0
 19 22  1  0
 22 23  1  0
 22 24  1  0
 15 25  1  0
 25 26  1  0
 26 27  2  0
 27 28  1  0
 28 29  1  0
 28 30  1  0
 28 31  1  0
 31 32  2  0
 32 33  1  0
 32 34  1  0
 34 35  1  0
 34 36  2  0
 36 37  1  0
 36 38  1  0
 38 39  1  0
 38 40  2  0
 40 41  1  0
 26 42  1  0
 42 43  2  0
  8  3  2  0
 43 10  1  0
 43 14  1  0
 22 17  1  0
 40 31  1  0
M  CHG  5   4  -1   7  -1   9  -1  25  -1  37  -1
M  END
>  <UniqueID>  (42) 
34

>  <SMILES>  (42) 
O=c1[n-]c([O-])c(/C=c2/cnn3c(=NC4CC4)[n-]/c(=N\Cc4ccc([O-])c(Cl)c4)nc23)[n-]1

>  <Energy>  (42) 
389.9315373183788

>  <Genealogy>  (42) 
O=c1[n-]c([O-])c(C=c2cnn3c(=NC4CC4)[n-]c(=NCc4ccc([O-])c(Cl)c4)nc23)[n-]1 (protonated)
O=c1[n-]c([O-])c(/C=c2/cnn3c(=NC4CC4)[n-]/c(=N\Cc4ccc([O-])c(Cl)c4)nc23)[n-]1 (cis-trans isomerization)
O=c1[n-]c([O-])c(/C=c2/cnn3c(=NC4CC4)[n-]/c(=N\Cc4ccc([O-])c(Cl)c4)nc23)[n-]1 (3D coordinates assigned)
O=c1[n-]c([O-])c(/C=c2/cnn3c(=NC4CC4)[n-]/c(=N\Cc4ccc([O-])c(Cl)c4)nc23)[n-]1 (nonaromatic ring conformer: 389.9315373183788 kcal/mol)

>  <smiles>  (42) 
O=c1[nH]c(O)c(C=c2cnn3c(=NC4CC4)[nH]c(=NCc4ccc(O)c(Cl)c4)nc23)[nH]1

>  <score_type>  (42) 
oracle

>  <origin>  (42) 
adg

>  <m_score__min__energy>  (42) 
-18.870000000000001

>  <m_primary>  (42) 
energy

$$$$
42:0
     RDKit          3D

 62 65  0  0  1  0  0  0  0  0999 V2000
   61.8180   33.5460   47.7080 C   0  0  0  0  0  0  0  0  0  0  0  0
   61.0510   32.2890   47.5710 C   0  0  0  0  0  0  0  0  0  0  0  0
   60.2470   32.0070   46.4780 C   0  0  0  0  0  0  0  0  0  0  0  0
   59.5330   30.8450   46.3420 C   0  0  0  0  0  0  0  0  0  0  0  0
   58.7100   30.5760   45.2040 N   0  0  0  0  0  0  0  0  0  0  0  0
   57.5400   31.5860   44.9610 S   0  0  0  0  0  0  0  0  0  0  0  0
   56.2910   30.8190   44.7510 O   0  0  0  0  0  0  0  0  0  0  0  0
   57.3980   32.7360   46.3260 C   0  0  0  0  0  0  0  0  0  0  0  0
   57.5920   34.0640   45.6680 C   0  0  0  0  0  0  0  0  0  0  0  0
   58.4940   33.8730   44.4780 C   0  0  0  0  0  0  0  0  0  0  0  0
   57.9140   32.7310   43.6530 C   0  0  0  0  0  0  0  0  0  0  0  0
   59.5860   29.8750   47.3190 C   0  0  0  0  0  0  0  0  0  0  0  0
   60.3760   30.1290   48.4160 C   0  0  0  0  0  0  0  0  0  0  0  0
   60.4420   29.1950   49.3800 N   0  0  0  0  0  0  0  0  0  0  0  0
   61.2100   29.4100   50.4730 C   0  0  0  0  0  0  0  0  0  0  0  0
   61.9280   30.5330   50.6520 N   0  0  0  0  0  0  0  0  0  0  0  0
   61.8640   31.4670   49.6900 C   0  0  0  0  0  0  0  0  0  0  0  0
   62.5420   32.5360   49.8520 N   0  0  0  0  0  0  0  0  0  0  0  0
   63.8910   32.5230   50.3050 C   0  0  0  0  0  0  0  0  0  0  0  0
   64.9020   32.7150   49.3890 C   0  0  0  0  0  0  0  0  0  0  0  0
   66.2410   32.7140   49.7670 C   0  0  0  0  0  0  0  0  0  0  0  0
   66.5280   32.5130   51.1080 C   0  0  0  0  0  0  0  0  0  0  0  0
   67.8360   32.5080   51.5020 F   0  0  0  0  0  0  0  0  0  0  0  0
   65.4970   32.3240   52.0080 C   0  0  0  0  0  0  0  0  0  0  0  0
   64.1830   32.3220   51.6490 C   0  0  0  0  0  0  0  0  0  0  0  0
   63.1150   32.1390   52.4960 O   0  0  0  0  0  0  0  0  0  0  0  0
   62.7040   33.0150   53.5160 C   0  0  1  0  0  0  0  0  0  0  0  0
   63.5590   34.2740   53.4350 C   0  0  0  0  0  0  0  0  0  0  0  0
   61.2850   33.4590   53.2720 C   0  0  0  0  0  0  0  0  0  0  0  0
   60.7950   34.2170   54.1370 O   0  0  0  0  0  0  0  0  0  0  0  0
   60.6000   33.0190   52.1250 N   0  0  0  0  0  0  0  0  0  0  0  0
   59.2500   33.3640   51.7630 C   0  0  0  0  0  0  0  0  0  0  0  0
   58.5090   32.2530   51.0850 C   0  0  0  0  0  0  0  0  0  0  0  0
   58.9930   31.0080   51.3840 F   0  0  0  0  0  0  0  0  0  0  0  0
   57.1920   32.3170   51.5060 F   0  0  0  0  0  0  0  0  0  0  0  0
   58.4900   32.4410   49.7110 F   0  0  0  0  0  0  0  0  0  0  0  0
   61.0990   31.3060   48.5510 C   0  0  0  0  0  0  0  0  0  0  0  0
   61.9581   33.7756   48.7746 H   0  0  0  0  0  0  0  0  0  0  0  0
   62.7999   33.4308   47.2257 H   0  0  0  0  0  0  0  0  0  0  0  0
   61.2665   34.3665   47.2257 H   0  0  0  0  0  0  0  0  0  0  0  0
   60.1781   32.7566   45.6759 H   0  0  0  0  0  0  0  0  0  0  0  0
   56.4064   32.6695   46.7976 H   0  0  0  0  0  0  0  0  0  0  0  0
   58.1200   32.5424   47.1330 H   0  0  0  0  0  0  0  0  0  0  0  0
   56.6207   34.4617   45.3388 H   0  0  0  0  0  0  0  0  0  0  0  0
   58.0424   34.7759   46.3753 H   0  0  0  0  0  0  0  0  0  0  0  0
   58.5257   34.7939   43.8772 H   0  0  0  0  0  0  0  0  0  0  0  0
   59.5204   33.6415   44.7987 H   0  0  0  0  0  0  0  0  0  0  0  0
   57.0108   33.0378   43.1052 H   0  0  0  0  0  0  0  0  0  0  0  0
   58.5734   32.3413   42.8635 H   0  0  0  0  0  0  0  0  0  0  0  0
   59.0200   28.9364   47.2256 H   0  0  0  0  0  0  0  0  0  0  0  0
   59.9240   28.2890   49.3400 H   0  0  0  0  0  0  0  0  0  0  0  0
   61.2488   28.6319   51.2495 H   0  0  0  0  0  0  0  0  0  0  0  0
   64.6439   32.8732   48.3315 H   0  0  0  0  0  0  0  0  0  0  0  0
   67.0421   32.8671   49.0289 H   0  0  0  0  0  0  0  0  0  0  0  0
   65.7498   32.1674   53.0670 H   0  0  0  0  0  0  0  0  0  0  0  0
   62.7951   32.5023   54.4849 H   0  0  0  0  0  0  0  0  0  0  0  0
   63.7957   34.6225   54.4511 H   0  0  0  0  0  0  0  0  0  0  0  0
   64.4922   34.0495   52.8977 H   0  0  0  0  0  0  0  0  0  0  0  0
   63.0062   35.0587   52.8977 H   0  0  0  0  0  0  0  0  0  0  0  0
   61.1340   32.3750   51.4770 H   0  0  0  0  0  0  0  0  0  0  0  0
   58.7041   33.6389   52.6775 H   0  0  0  0  0  0  0  0  0  0  0  0
   59.3107   34.1961   51.0462 H   0  0  0  0  0  0  0  0  0  0  0  0
  1  2  1  0
  2  3  2  0
  3  4  1  0
  4  5  1  0
  5  6  2  0
  6  7  2  0
  6  8  1  0
  8  9  1  0
  9 10  1  0
 10 11  1  0
  4 12  2  0
 12 13  1  0
 13 14  1  0
 14 15  1  0
 15 16  2  0
 16 17  1  0
 17 18  2  0
 18 19  1  0
 19 20  2  0
 20 21  1  0
 21 22  2  0
 22 23  1  0
 22 24  1  0
 24 25  2  0
 25 26  1  0
 26 27  1  0
 27 28  1  0
 27 29  1  0
 29 30  2  0
 29 31  1  0
 31 32  1  0
 32 33  1  0
 33 34  1  0
 33 35  1  0
 33 36  1  0
 17 37  1  0
 37  2  1  0
 11  6  1  0
 37 13  2  0
 25 19  1  0
  1 38  1  0
  1 39  1  0
  1 40  1  0
  3 41  1  0
  8 42  1  0
  8 43  1  0
  9 44  1  0
  9 45  1  0
 10 46  1  0
 10 47  1  0
 11 48  1  0
 11 49  1  0
 12 50  1  0
 14 51  1  0
 15 52  1  0
 20 53  1  0
 21 54  1  0
 24 55  1  0
 27 56  1  1
 28 57  1  0
 28 58  1  0
 28 59  1  0
 31 60  1  0
 32 61  1  0
 32 62  1  0
M  END
>  <smiles>  (43) 
Cc1cc(N=S2(=O)CCCC2)cc2[nH]cnc(=Nc3ccc(F)cc3OC(C)C(=O)NCC(F)(F)F)c12

>  <score_type>  (43) 
oracle

>  <origin>  (43) 
adg

>  <m_score__min__energy>  (43) 
-9.3599999999999994

>  <m_primary>  (43) 
energy

$$$$
43:0
     RDKit          3D

 60 62  0  0  0  0  0  0  0  0999 V2000
   64.1500   34.6070   51.4120 C   0  0  0  0  0  0  0  0  0  0  0  0
   64.4530   33.7130   50.3470 O   0  0  0  0  0  0  0  0  0  0  0  0
   63.5360   32.8130   49.7800 C   0  0  0  0  0  0  0  0  0  0  0  0
   63.0900   32.9410   48.4510 C   0  0  0  0  0  0  0  0  0  0  0  0
   62.1860   32.0180   47.9190 C   0  0  0  0  0  0  0  0  0  0  0  0
   61.7190   30.9610   48.7040 C   0  0  0  0  0  0  0  0  0  0  0  0
   60.7930   30.0080   48.1530 C   0  0  0  0  0  0  0  0  0  0  0  0
   60.0160   29.2070   47.6980 C   0  0  0  0  0  0  0  0  0  0  0  0
   59.0850   28.2530   47.1460 C   0  0  0  0  0  0  0  0  0  0  0  0
   59.0930   26.9410   47.6310 C   0  0  0  0  0  0  0  0  0  0  0  0
   58.2040   25.9930   47.1200 C   0  0  0  0  0  0  0  0  0  0  0  0
   57.2940   26.3390   46.1080 C   0  0  0  0  0  0  0  0  0  0  0  0
   56.3520   25.3230   45.5790 C   0  0  0  0  0  0  0  0  0  0  0  0
   55.1620   25.3120   45.9970 O   0  0  0  0  0  0  0  0  0  0  0  0
   56.7860   24.3370   44.6260 N   0  0  0  0  0  0  0  0  0  0  0  0
   55.8860   23.5050   43.8770 C   0  0  0  0  0  0  0  0  0  0  0  0
   56.4310   22.4400   42.9810 C   0  0  0  0  0  0  0  0  0  0  0  0
   54.6400   23.6880   43.9320 O   0  0  0  0  0  0  0  0  0  0  0  0
   57.2780   27.6620   45.6290 C   0  0  0  0  0  0  0  0  0  0  0  0
   58.1700   28.6240   46.1360 C   0  0  0  0  0  0  0  0  0  0  0  0
   58.1300   30.0330   45.6070 C   0  0  0  0  0  0  0  0  0  0  0  0
   62.1560   30.8270   50.0270 C   0  0  0  0  0  0  0  0  0  0  0  0
   63.0670   31.7530   50.5730 C   0  0  0  0  0  0  0  0  0  0  0  0
   63.5420   31.6580   51.8940 O   0  0  0  0  0  0  0  0  0  0  0  0
   64.3110   30.5820   52.4290 C   0  0  0  0  0  0  0  0  0  0  0  0
   65.8240   30.7510   52.1680 C   0  0  0  0  0  0  0  0  0  0  0  0
   66.2740   32.0790   51.6650 N   0  0  0  0  0  0  0  0  0  0  0  0
   66.9360   32.9160   52.6770 C   0  0  0  0  0  0  0  0  0  0  0  0
   67.8870   33.8560   51.9350 C   0  0  0  0  0  0  0  0  0  0  0  0
   67.8100   33.4500   50.4730 C   0  0  0  0  0  0  0  0  0  0  0  0
   67.1620   32.0790   50.4960 C   0  0  0  0  0  0  0  0  0  0  0  0
   64.3211   34.1023   52.3743 H   0  0  0  0  0  0  0  0  0  0  0  0
   64.7980   35.4932   51.3424 H   0  0  0  0  0  0  0  0  0  0  0  0
   63.0968   34.9166   51.3424 H   0  0  0  0  0  0  0  0  0  0  0  0
   63.4548   33.7714   47.8286 H   0  0  0  0  0  0  0  0  0  0  0  0
   61.8413   32.1239   46.8798 H   0  0  0  0  0  0  0  0  0  0  0  0
   59.8040   26.6542   48.4198 H   0  0  0  0  0  0  0  0  0  0  0  0
   58.2167   24.9660   47.5138 H   0  0  0  0  0  0  0  0  0  0  0  0
   57.8110   24.1820   44.4900 H   0  0  0  0  0  0  0  0  0  0  0  0
   56.8479   21.6253   43.5913 H   0  0  0  0  0  0  0  0  0  0  0  0
   55.6236   22.0463   42.3461 H   0  0  0  0  0  0  0  0  0  0  0  0
   57.2226   22.8646   42.3461 H   0  0  0  0  0  0  0  0  0  0  0  0
   56.5583   27.9476   44.8477 H   0  0  0  0  0  0  0  0  0  0  0  0
   58.1099   30.7404   46.4491 H   0  0  0  0  0  0  0  0  0  0  0  0
   59.0232   30.2195   44.9927 H   0  0  0  0  0  0  0  0  0  0  0  0
   57.2276   30.1685   44.9927 H   0  0  0  0  0  0  0  0  0  0  0  0
   61.7863   29.9945   50.6437 H   0  0  0  0  0  0  0  0  0  0  0  0
   64.1433   30.5341   53.5151 H   0  0  0  0  0  0  0  0  0  0  0  0
   63.9862   29.6575   51.9292 H   0  0  0  0  0  0  0  0  0  0  0  0
   66.3488   30.5586   53.1154 H   0  0  0  0  0  0  0  0  0  0  0  0
   66.0578   30.0425   51.3597 H   0  0  0  0  0  0  0  0  0  0  0  0
   65.4050   32.5950   51.3790 H   0  0  0  0  0  0  0  0  0  0  0  0
   66.1867   33.4993   53.2323 H   0  0  0  0  0  0  0  0  0  0  0  0
   67.4860   32.2943   53.3988 H   0  0  0  0  0  0  0  0  0  0  0  0
   67.5679   34.9012   52.0600 H   0  0  0  0  0  0  0  0  0  0  0  0
   68.9138   33.7831   52.3227 H   0  0  0  0  0  0  0  0  0  0  0  0
   67.1947   34.1619   49.9032 H   0  0  0  0  0  0  0  0  0  0  0  0
   68.7974   33.4391   49.9883 H   0  0  0  0  0  0  0  0  0  0  0  0
   66.5838   31.9125   49.5751 H   0  0  0  0  0  0  0  0  0  0  0  0
   67.9119   31.2764   50.5557 H   0  0  0  0  0  0  0  0  0  0  0  0
  1  2  1  0
  2  3  1  0
  3  4  2  0
  4  5  1  0
  5  6  2  0
  6  7  1  0
  7  8  3  0
  8  9  1  0
  9 10  2  0
 10 11  1  0
 11 12  2  0
 12 13  1  0
 13 14  2  0
 13 15  1  0
 15 16  1  0
 16 17  1  0
 16 18  2  0
 12 19  1  0
 19 20  2  0
 20 21  1  0
  6 22  1  0
 22 23  2  0
 23 24  1  0
 24 25  1  0
 25 26  1  0
 26 27  1  0
 27 28  1  0
 28 29  1  0
 29 30  1  0
 30 31  1  0
 23  3  1  0
 31 27  1  0
 20  9  1  0
  1 32  1  0
  1 33  1  0
  1 34  1  0
  4 35  1  0
  5 36  1  0
 10 37  1  0
 11 38  1  0
 15 39  1  0
 17 40  1  0
 17 41  1  0
 17 42  1  0
 19 43  1  0
 21 44  1  0
 21 45  1  0
 21 46  1  0
 22 47  1  0
 25 48  1  0
 25 49  1  0
 26 50  1  0
 26 51  1  0
 27 52  1  0
 28 53  1  0
 28 54  1  0
 29 55  1  0
 29 56  1  0
 30 57  1  0
 30 58  1  0
 31 59  1  0
 31 60  1  0
M  CHG  1  27   1
M  END
>  <UniqueID>  (44) 
35

>  <SMILES>  (44) 
COc1ccc(C#Cc2ccc(C(=O)NC(C)=O)cc2C)cc1OCC[NH+]1CCCC1

>  <Energy>  (44) 
66.42324023304823

>  <Genealogy>  (44) 
COc1ccc(C#Cc2ccc(C(=O)NC(C)=O)cc2C)cc1OCC[NH+]1CCCC1 (protonated)
COc1ccc(C#Cc2ccc(C(=O)NC(C)=O)cc2C)cc1OCC[NH+]1CCCC1 (3D coordinates assigned)
COc1ccc(C#Cc2ccc(C(=O)NC(C)=O)cc2C)cc1OCC[NH+]1CCCC1 (nonaromatic ring conformer: 66.42324023304823 kcal/mol)

>  <smiles>  (44) 
COc1ccc(C#Cc2ccc(C(=O)NC(C)=O)cc2C)cc1OCCN1CCCC1

>  <score_type>  (44) 
oracle

>  <origin>  (44) 
adg

>  <m_score__min__energy>  (44) 
-5.7800000000000002

>  <m_primary>  (44) 
energy

$$$$
44:0
     RDKit          3D

 46 48  0  0  0  0  0  0  0  0999 V2000
   55.0990   30.7168   42.9168 H   0  0  0  0  0  0  0  0  0  0  0  0
   55.9840   30.4610   43.5180 C   0  0  0  0  0  0  0  0  0  0  0  0
   57.1560   31.2050   43.3830 C   0  0  0  0  0  0  0  0  0  0  0  0
   57.1894   32.0568   42.6878 H   0  0  0  0  0  0  0  0  0  0  0  0
   58.2870   30.8690   44.1300 C   0  0  0  0  0  0  0  0  0  0  0  0
   59.2121   31.4531   44.0155 H   0  0  0  0  0  0  0  0  0  0  0  0
   58.2490   29.7910   45.0250 C   0  0  0  0  0  0  0  0  0  0  0  0
   59.7230   29.3600   45.9660 S   0  0  0  0  0  0  0  0  0  0  0  0
   59.0500   29.9800   47.5150 C   0  0  0  0  0  0  0  0  0  0  0  0
   58.8390   29.0260   48.5210 C   0  0  0  0  0  0  0  0  0  0  0  0
   58.8846   27.9550   48.2741 H   0  0  0  0  0  0  0  0  0  0  0  0
   58.5730   29.4200   49.8260 C   0  0  0  0  0  0  0  0  0  0  0  0
   58.4023   28.6679   50.6104 H   0  0  0  0  0  0  0  0  0  0  0  0
   58.5250   30.7740   50.1290 C   0  0  0  0  0  0  0  0  0  0  0  0
   58.3586   31.0982   51.1669 H   0  0  0  0  0  0  0  0  0  0  0  0
   58.6830   31.7000   49.1470 N   0  0  0  0  0  0  0  0  0  0  0  0
   58.5920   32.7080   49.4090 H   0  0  0  0  0  0  0  0  0  0  0  0
   58.8820   31.3610   47.8380 C   0  0  0  0  0  0  0  0  0  0  0  0
   58.8360   32.3360   46.9660 N   0  0  0  0  0  0  0  0  0  0  0  0
   59.8260   33.7470   46.7290 S   0  0  0  0  0  0  0  0  0  0  0  0
   60.0820   33.8960   45.2570 O   0  0  0  0  0  0  0  0  0  0  0  0
   59.1060   34.9740   47.2120 O   0  0  0  0  0  0  0  0  0  0  0  0
   61.3900   33.5660   47.5220 C   0  0  0  0  0  0  0  0  0  0  0  0
   62.5230   33.2190   46.7740 C   0  0  0  0  0  0  0  0  0  0  0  0
   62.4335   33.0468   45.6913 H   0  0  0  0  0  0  0  0  0  0  0  0
   63.7660   33.0910   47.3990 C   0  0  0  0  0  0  0  0  0  0  0  0
   64.6524   32.8215   46.8059 H   0  0  0  0  0  0  0  0  0  0  0  0
   63.8880   33.3050   48.7810 C   0  0  0  0  0  0  0  0  0  0  0  0
   65.2190   33.1330   49.4520 C   0  0  0  0  0  0  0  0  0  0  0  0
   65.0843   33.1504   50.5436 H   0  0  0  0  0  0  0  0  0  0  0  0
   65.6591   32.1705   49.1522 H   0  0  0  0  0  0  0  0  0  0  0  0
   65.8893   33.9520   49.1522 H   0  0  0  0  0  0  0  0  0  0  0  0
   62.7480   33.6240   49.5320 C   0  0  0  0  0  0  0  0  0  0  0  0
   62.8313   33.7694   50.6192 H   0  0  0  0  0  0  0  0  0  0  0  0
   61.5060   33.7580   48.9050 C   0  0  0  0  0  0  0  0  0  0  0  0
   60.6168   34.0150   49.4993 H   0  0  0  0  0  0  0  0  0  0  0  0
   57.0550   29.0650   45.1960 C   0  0  0  0  0  0  0  0  0  0  0  0
   57.0220   27.9630   46.1160 N   0  0  0  0  0  0  0  0  0  0  0  0
   56.4120   26.6840   45.8960 C   0  0  0  0  0  0  0  0  0  0  0  0
   55.1590   26.5850   45.9860 O   0  0  0  0  0  0  0  0  0  0  0  0
   57.2090   25.4740   45.5190 C   0  0  0  0  0  0  0  0  0  0  0  0
   57.5478   24.9596   46.4303 H   0  0  0  0  0  0  0  0  0  0  0  0
   56.5823   24.7927   44.9248 H   0  0  0  0  0  0  0  0  0  0  0  0
   58.0824   25.7807   44.9248 H   0  0  0  0  0  0  0  0  0  0  0  0
   55.9320   29.3920   44.4150 C   0  0  0  0  0  0  0  0  0  0  0  0
   55.0081   28.8028   44.5112 H   0  0  0  0  0  0  0  0  0  0  0  0
  1  2  1  0
  2  3  2  0
  3  4  1  0
  3  5  1  0
  5  6  1  0
  5  7  2  0
  7  8  1  0
  8  9  1  0
  9 10  2  0
 10 11  1  0
 10 12  1  0
 12 13  1  0
 12 14  2  0
 14 15  1  0
 14 16  1  0
 16 17  1  0
 16 18  1  0
 18 19  2  0
 19 20  1  0
 20 21  2  0
 20 22  2  0
 20 23  1  0
 23 24  2  0
 24 25  1  0
 24 26  1  0
 26 27  1  0
 26 28  2  0
 28 29  1  0
 29 30  1  0
 29 31  1  0
 29 32  1  0
 28 33  1  0
 33 34  1  0
 33 35  2  0
 35 36  1  0
  7 37  1  0
 37 38  1  0
 38 39  1  0
 39 40  2  0
 39 41  1  0
 41 42  1  0
 41 43  1  0
 41 44  1  0
 37 45  2  0
 45 46  1  0
 45  2  1  0
 18  9  1  0
 35 23  1  0
M  CHG  1  38  -1
M  END
>  <UniqueID>  (45) 
36

>  <SMILES>  (45) 
CC(=O)[N-]c1ccccc1Sc1ccc[nH]/c1=N/S(=O)(=O)c1ccc(C)cc1

>  <Energy>  (45) 
64.92648827267023

>  <Genealogy>  (45) 
CC(=O)[N-]c1ccccc1Sc1ccc[nH]c1=NS(=O)(=O)c1ccc(C)cc1 (protonated)
CC(=O)[N-]c1ccccc1Sc1ccc[nH]/c1=N/S(=O)(=O)c1ccc(C)cc1 (cis-trans isomerization)
CC(=O)[N-]c1ccccc1Sc1ccc[nH]/c1=N/S(=O)(=O)c1ccc(C)cc1 (3D coordinates assigned)
CC(=O)[N-]c1ccccc1Sc1ccc[nH]/c1=N/S(=O)(=O)c1ccc(C)cc1 (optimized conformer: 64.92648827267023 kcal/mol)

>  <smiles>  (45) 
CC(=O)Nc1ccccc1Sc1ccc[nH]c1=NS(=O)(=O)c1ccc(C)cc1

>  <score_type>  (45) 
oracle

>  <origin>  (45) 
adg

>  <m_score__min__energy>  (45) 
-11.710000000000001

>  <m_primary>  (45) 
energy

$$$$
45:0
     RDKit          3D

 35 37  0  0  0  0  0  0  0  0999 V2000
   57.3030   34.5780   44.8710 O   0  0  0  0  0  0  0  0  0  0  0  0
   57.0180   33.6910   45.7180 C   0  0  0  0  0  0  0  0  0  0  0  0
   57.9490   33.3040   46.7360 N   0  0  0  0  0  0  0  0  0  0  0  0
   59.2780   33.8400   46.8560 C   0  0  0  0  0  0  0  0  0  0  0  0
   59.7090   34.6680   46.0090 O   0  0  0  0  0  0  0  0  0  0  0  0
   60.1560   33.4210   47.9740 C   0  0  0  0  0  0  0  0  0  0  0  0
   60.2300   34.2270   49.1250 C   0  0  0  0  0  0  0  0  0  0  0  0
   61.1080   33.9050   50.1620 C   0  0  0  0  0  0  0  0  0  0  0  0
   61.9270   32.7810   50.0610 C   0  0  0  0  0  0  0  0  0  0  0  0
   61.8610   31.9660   48.9300 C   0  0  0  0  0  0  0  0  0  0  0  0
   60.9650   32.2600   47.8920 C   0  0  0  0  0  0  0  0  0  0  0  0
   60.8940   31.3630   46.7710 N   0  0  0  0  0  0  0  0  0  0  0  0
   59.9420   30.2890   46.6600 C   0  0  0  0  0  0  0  0  0  0  0  0
   60.1980   29.0220   47.2130 C   0  0  0  0  0  0  0  0  0  0  0  0
   59.2590   27.9960   47.0990 C   0  0  0  0  0  0  0  0  0  0  0  0
   58.0480   28.2120   46.4200 C   0  0  0  0  0  0  0  0  0  0  0  0
   57.0820   27.2000   46.2900 C   0  0  0  0  0  0  0  0  0  0  0  0
   57.2710   26.0560   46.7880 O   0  0  0  0  0  0  0  0  0  0  0  0
   55.9250   27.4570   45.6200 N   0  0  0  0  0  0  0  0  0  0  0  0
   55.6850   28.6520   45.0800 N   0  0  0  0  0  0  0  0  0  0  0  0
   56.5740   29.6730   45.1680 C   0  0  0  0  0  0  0  0  0  0  0  0
   56.2940   30.7820   44.6380 O   0  0  0  0  0  0  0  0  0  0  0  0
   57.7880   29.4770   45.8460 C   0  0  0  0  0  0  0  0  0  0  0  0
   58.7430   30.5040   45.9670 C   0  0  0  0  0  0  0  0  0  0  0  0
   56.0332   33.2028   45.6755 H   0  0  0  0  0  0  0  0  0  0  0  0
   57.6450   32.5570   47.3990 H   0  0  0  0  0  0  0  0  0  0  0  0
   59.5908   35.1183   49.2086 H   0  0  0  0  0  0  0  0  0  0  0  0
   61.1536   34.5389   51.0598 H   0  0  0  0  0  0  0  0  0  0  0  0
   62.6263   32.5363   50.8741 H   0  0  0  0  0  0  0  0  0  0  0  0
   62.5168   31.0863   48.8522 H   0  0  0  0  0  0  0  0  0  0  0  0
   61.6450   31.4350   46.0480 H   0  0  0  0  0  0  0  0  0  0  0  0
   61.1460   28.8380   47.7397 H   0  0  0  0  0  0  0  0  0  0  0  0
   59.4682   27.0118   47.5436 H   0  0  0  0  0  0  0  0  0  0  0  0
   55.2060   26.7060   45.5230 H   0  0  0  0  0  0  0  0  0  0  0  0
   58.5460   31.4862   45.5126 H   0  0  0  0  0  0  0  0  0  0  0  0
  1  2  2  0
  2  3  1  0
  3  4  1  0
  4  5  2  0
  4  6  1  0
  6  7  2  0
  7  8  1  0
  8  9  2  0
  9 10  1  0
 10 11  2  0
 11 12  1  0
 12 13  1  0
 13 14  2  0
 14 15  1  0
 15 16  2  0
 16 17  1  0
 17 18  2  0
 17 19  1  0
 19 20  1  0
 20 21  1  0
 21 22  2  0
 21 23  1  0
 23 24  2  0
 11  6  1  0
 24 13  1  0
 23 16  1  0
  2 25  1  0
  3 26  1  0
  7 27  1  0
  8 28  1  0
  9 29  1  0
 10 30  1  0
 12 31  1  0
 14 32  1  0
 15 33  1  0
 19 34  1  0
 24 35  1  0
M  CHG  1  20  -1
M  END
>  <UniqueID>  (46) 
37

>  <SMILES>  (46) 
O=CNC(=O)c1ccccc1Nc1ccc2c(=O)[nH][n-]c(=O)c2c1

>  <Energy>  (46) 
54.49356565703203

>  <Genealogy>  (46) 
O=CNC(=O)c1ccccc1Nc1ccc2c(=O)[nH][n-]c(=O)c2c1 (protonated)
O=CNC(=O)c1ccccc1Nc1ccc2c(=O)[nH][n-]c(=O)c2c1 (3D coordinates assigned)
O=CNC(=O)c1ccccc1Nc1ccc2c(=O)[nH][n-]c(=O)c2c1 (optimized conformer: 54.49356565703203 kcal/mol)

>  <smiles>  (46) 
O=CNC(=O)c1ccccc1Nc1ccc2c(=O)[nH][nH]c(=O)c2c1

>  <score_type>  (46) 
oracle

>  <origin>  (46) 
adg

>  <m_score__min__energy>  (46) 
-9.3900000000000006

>  <m_primary>  (46) 
energy

$$$$
46:0
     RDKit          3D

 39 42  0  0  0  0  0  0  0  0999 V2000
   55.9130   25.0990   47.3140 O   0  0  0  0  0  0  0  0  0  0  0  0
   55.6310   25.1060   46.0990 N   0  0  0  0  0  0  0  0  0  0  0  0
   54.7680   26.0710   45.6320 O   0  0  0  0  0  0  0  0  0  0  0  0
   56.2180   24.1510   45.1870 C   0  0  0  0  0  0  0  0  0  0  0  0
   55.4030   23.5220   44.2260 C   0  0  0  0  0  0  0  0  0  0  0  0
   55.9390   22.5970   43.3290 C   0  0  0  0  0  0  0  0  0  0  0  0
   57.2930   22.2760   43.3830 C   0  0  0  0  0  0  0  0  0  0  0  0
   58.1180   22.8840   44.3290 C   0  0  0  0  0  0  0  0  0  0  0  0
   57.5980   23.8330   45.2290 C   0  0  0  0  0  0  0  0  0  0  0  0
   58.4260   24.4220   46.1990 O   0  0  0  0  0  0  0  0  0  0  0  0
   58.6810   25.7950   46.3290 C   0  0  0  0  0  0  0  0  0  0  0  0
   58.5510   26.4630   47.5590 C   0  0  0  0  0  0  0  0  0  0  0  0
   58.8330   27.8280   47.6520 C   0  0  0  0  0  0  0  0  0  0  0  0
   59.2690   28.5390   46.5240 C   0  0  0  0  0  0  0  0  0  0  0  0
   59.5520   29.9900   46.6160 C   0  0  0  0  0  0  0  0  0  0  0  0
   60.7340   30.3920   47.2610 C   0  0  0  0  0  0  0  0  0  0  0  0
   61.0980   31.7380   47.3060 C   0  0  0  0  0  0  0  0  0  0  0  0
   60.2900   32.6990   46.7050 C   0  0  0  0  0  0  0  0  0  0  0  0
   59.1040   32.3220   46.0720 C   0  0  0  0  0  0  0  0  0  0  0  0
   58.7080   30.9720   46.0300 C   0  0  0  0  0  0  0  0  0  0  0  0
   57.3990   30.6400   45.4150 C   0  0  0  0  0  0  0  0  0  0  0  0
   56.7690   29.4550   45.5300 N   0  0  0  0  0  0  0  0  0  0  0  0
   55.6310   29.6100   44.8760 N   0  0  0  0  0  0  0  0  0  0  0  0
   55.5590   30.8370   44.3880 N   0  0  0  0  0  0  0  0  0  0  0  0
   56.6490   31.5110   44.7130 N   0  0  0  0  0  0  0  0  0  0  0  0
   59.4040   27.8710   45.2980 C   0  0  0  0  0  0  0  0  0  0  0  0
   59.1220   26.5040   45.2060 C   0  0  0  0  0  0  0  0  0  0  0  0
   54.3306   23.7628   44.1819 H   0  0  0  0  0  0  0  0  0  0  0  0
   55.2911   22.1208   42.5783 H   0  0  0  0  0  0  0  0  0  0  0  0
   57.7123   21.5422   42.6789 H   0  0  0  0  0  0  0  0  0  0  0  0
   59.1848   22.6194   44.3721 H   0  0  0  0  0  0  0  0  0  0  0  0
   58.2259   25.9087   48.4518 H   0  0  0  0  0  0  0  0  0  0  0  0
   58.7126   28.3477   48.6140 H   0  0  0  0  0  0  0  0  0  0  0  0
   61.3789   29.6376   47.7353 H   0  0  0  0  0  0  0  0  0  0  0  0
   62.0242   32.0401   47.8168 H   0  0  0  0  0  0  0  0  0  0  0  0
   60.5866   33.7580   46.7288 H   0  0  0  0  0  0  0  0  0  0  0  0
   58.4718   33.0889   45.6007 H   0  0  0  0  0  0  0  0  0  0  0  0
   59.7328   28.4241   44.4058 H   0  0  0  0  0  0  0  0  0  0  0  0
   59.2476   25.9833   44.2452 H   0  0  0  0  0  0  0  0  0  0  0  0
  1  2  2  0
  2  3  1  0
  2  4  1  0
  4  5  2  0
  5  6  1  0
  6  7  2  0
  7  8  1  0
  8  9  2  0
  9 10  1  0
 10 11  1  0
 11 12  2  0
 12 13  1  0
 13 14  2  0
 14 15  1  0
 15 16  2  0
 16 17  1  0
 17 18  2  0
 18 19  1  0
 19 20  2  0
 20 21  1  0
 21 22  1  0
 22 23  2  0
 23 24  1  0
 24 25  1  0
 14 26  1  0
 26 27  2  0
  9  4  1  0
 27 11  1  0
 20 15  1  0
 25 21  2  0
  5 28  1  0
  6 29  1  0
  7 30  1  0
  8 31  1  0
 12 32  1  0
 13 33  1  0
 16 34  1  0
 17 35  1  0
 18 36  1  0
 19 37  1  0
 26 38  1  0
 27 39  1  0
M  CHG  3   2   1   3  -1  24  -1
M  END
>  <UniqueID>  (47) 
38

>  <SMILES>  (47) 
O=[N+]([O-])c1ccccc1Oc1ccc(-c2ccccc2-c2nn[n-]n2)cc1

>  <Energy>  (47) 
102.0824949746485

>  <Genealogy>  (47) 
O=[N+]([O-])c1ccccc1Oc1ccc(-c2ccccc2-c2nn[n-]n2)cc1 (protonated)
O=[N+]([O-])c1ccccc1Oc1ccc(-c2ccccc2-c2nn[n-]n2)cc1 (3D coordinates assigned)
O=[N+]([O-])c1ccccc1Oc1ccc(-c2ccccc2-c2nn[n-]n2)cc1 (optimized conformer: 102.0824949746485 kcal/mol)

>  <smiles>  (47) 
O=[N+]([O-])c1ccccc1Oc1ccc(-c2ccccc2-c2nn[nH]n2)cc1

>  <score_type>  (47) 
oracle

>  <origin>  (47) 
adg

>  <m_score__min__energy>  (47) 
-11.289999999999999

>  <m_primary>  (47) 
energy

$$$$
47:0
     RDKit          3D

 42 44  0  0  0  0  0  0  0  0999 V2000
   57.0750   31.2300   53.7460 C   0  0  0  0  0  0  0  0  0  0  0  0
   57.3170   30.7340   52.3500 C   0  0  0  0  0  0  0  0  0  0  0  0
   56.6740   29.7230   51.9530 O   0  0  0  0  0  0  0  0  0  0  0  0
   58.2780   31.4040   51.4330 C   0  0  0  0  0  0  0  0  0  0  0  0
   58.5470   32.7840   51.5300 C   0  0  0  0  0  0  0  0  0  0  0  0
   59.4210   33.4040   50.6330 C   0  0  0  0  0  0  0  0  0  0  0  0
   60.0470   32.6580   49.6270 C   0  0  0  0  0  0  0  0  0  0  0  0
   61.0920   33.4580   48.4590 S   0  0  0  0  0  0  0  0  0  0  0  0
   62.3110   32.6180   48.1930 O   0  0  0  0  0  0  0  0  0  0  0  0
   61.5410   34.7740   49.0320 O   0  0  0  0  0  0  0  0  0  0  0  0
   60.2640   33.7470   46.9630 N   0  0  0  0  0  0  0  0  0  0  0  0
   59.4060   32.7790   46.3520 C   0  0  0  0  0  0  0  0  0  0  0  0
   58.2020   33.2020   45.7720 C   0  0  0  0  0  0  0  0  0  0  0  0
   57.3510   32.2760   45.1610 C   0  0  0  0  0  0  0  0  0  0  0  0
   57.6840   30.9140   45.1490 C   0  0  0  0  0  0  0  0  0  0  0  0
   56.6170   29.7500   44.3700 S   0  0  0  0  0  0  0  0  0  0  0  0
   55.3250   29.6940   45.1360 O   0  0  0  0  0  0  0  0  0  0  0  0
   56.3290   30.1560   42.9510 O   0  0  0  0  0  0  0  0  0  0  0  0
   57.3400   28.1760   44.3740 N   0  0  0  0  0  0  0  0  0  0  0  0
   57.4760   27.3360   45.5260 C   0  0  0  0  0  0  0  0  0  0  0  0
   58.6690   27.0300   46.1400 C   0  0  0  0  0  0  0  0  0  0  0  0
   58.3380   26.2070   47.2020 C   0  0  0  0  0  0  0  0  0  0  0  0
   57.0350   26.0240   47.2400 O   0  0  0  0  0  0  0  0  0  0  0  0
   56.4920   26.6910   46.2500 C   0  0  0  0  0  0  0  0  0  0  0  0
   55.1260   26.7180   46.0010 O   0  0  0  0  0  0  0  0  0  0  0  0
   58.8760   30.4870   45.7530 C   0  0  0  0  0  0  0  0  0  0  0  0
   59.7280   31.4130   46.3580 C   0  0  0  0  0  0  0  0  0  0  0  0
   59.7950   31.2850   49.5280 C   0  0  0  0  0  0  0  0  0  0  0  0
   58.9210   30.6610   50.4240 C   0  0  0  0  0  0  0  0  0  0  0  0
   57.4388   30.4844   54.4683 H   0  0  0  0  0  0  0  0  0  0  0  0
   57.6116   32.1784   53.8963 H   0  0  0  0  0  0  0  0  0  0  0  0
   55.9972   31.3907   53.8963 H   0  0  0  0  0  0  0  0  0  0  0  0
   58.0643   33.3788   52.3194 H   0  0  0  0  0  0  0  0  0  0  0  0
   59.6180   34.4829   50.7176 H   0  0  0  0  0  0  0  0  0  0  0  0
   57.9257   34.2664   45.7976 H   0  0  0  0  0  0  0  0  0  0  0  0
   56.4179   32.6168   44.6885 H   0  0  0  0  0  0  0  0  0  0  0  0
   59.6741   27.3684   45.8480 H   0  0  0  0  0  0  0  0  0  0  0  0
   59.0576   25.7701   47.9100 H   0  0  0  0  0  0  0  0  0  0  0  0
   59.1403   29.4192   45.7499 H   0  0  0  0  0  0  0  0  0  0  0  0
   60.6550   31.0706   46.8411 H   0  0  0  0  0  0  0  0  0  0  0  0
   60.2868   30.6936   48.7416 H   0  0  0  0  0  0  0  0  0  0  0  0
   58.7341   29.5803   50.3399 H   0  0  0  0  0  0  0  0  0  0  0  0
  1  2  1  0
  2  3  2  0
  2  4  1  0
  4  5  2  0
  5  6  1  0
  6  7  2  0
  7  8  1  0
  8  9  2  0
  8 10  2  0
  8 11  1  0
 11 12  1  0
 12 13  2  0
 13 14  1  0
 14 15  2  0
 15 16  1  0
 16 17  2  0
 16 18  2  0
 16 19  1  0
 19 20  1  0
 20 21  1  0
 21 22  2  0
 22 23  1  0
 23 24  1  0
 24 25  1  0
 15 26  1  0
 26 27  2  0
  7 28  1  0
 28 29  2  0
 29  4  1  0
 27 12  1  0
 24 20  2  0
  1 30  1  0
  1 31  1  0
  1 32  1  0
  5 33  1  0
  6 34  1  0
 13 35  1  0
 14 36  1  0
 21 37  1  0
 22 38  1  0
 26 39  1  0
 27 40  1  0
 28 41  1  0
 29 42  1  0
M  CHG  3  11  -1  19  -1  25  -1
M  END
>  <UniqueID>  (48) 
39

>  <SMILES>  (48) 
CC(=O)c1ccc(S(=O)(=O)[N-]c2ccc(S(=O)(=O)[N-]c3ccoc3[O-])cc2)cc1

>  <Energy>  (48) 
85.27545927214068

>  <Genealogy>  (48) 
CC(=O)c1ccc(S(=O)(=O)[N-]c2ccc(S(=O)(=O)[N-]c3ccoc3[O-])cc2)cc1 (protonated)
CC(=O)c1ccc(S(=O)(=O)[N-]c2ccc(S(=O)(=O)[N-]c3ccoc3[O-])cc2)cc1 (3D coordinates assigned)
CC(=O)c1ccc(S(=O)(=O)[N-]c2ccc(S(=O)(=O)[N-]c3ccoc3[O-])cc2)cc1 (optimized conformer: 85.27545927214068 kcal/mol)

>  <smiles>  (48) 
CC(=O)c1ccc(S(=O)(=O)Nc2ccc(S(=O)(=O)Nc3ccoc3O)cc2)cc1

>  <score_type>  (48) 
oracle

>  <origin>  (48) 
adg

>  <m_score__min__energy>  (48) 
-14.789999999999999

>  <m_primary>  (48) 
energy

$$$$
48:0
     RDKit          3D

 44 46  0  0  0  0  0  0  0  0999 V2000
   57.9080   31.8570   50.7580 C   0  0  0  0  0  0  0  0  0  0  0  0
   58.4190   32.3530   49.4300 C   0  0  0  0  0  0  0  0  0  0  0  0
   59.6240   33.0830   49.4450 N   0  0  0  0  0  0  0  0  0  0  0  0
   59.6270   34.3240   48.7680 C   0  0  0  0  0  0  0  0  0  0  0  0
   59.2220   34.3560   47.3840 C   0  0  0  0  0  0  0  0  0  0  0  0
   59.8780   34.7750   46.2900 C   0  0  0  0  0  0  0  0  0  0  0  0
   59.2820   34.7290   45.0850 C   0  0  0  0  0  0  0  0  0  0  0  0
   58.0090   34.2520   45.0080 C   0  0  0  0  0  0  0  0  0  0  0  0
   57.6150   33.8280   46.7980 S   0  0  0  0  0  0  0  0  0  0  0  0
   60.8270   32.4770   49.8040 C   0  0  0  0  0  0  0  0  0  0  0  0
   61.7500   32.1470   48.7230 C   0  0  0  0  0  0  0  0  0  0  0  0
   63.0830   32.4650   48.6810 C   0  0  0  0  0  0  0  0  0  0  0  0
   63.6340   31.9700   47.5510 N   0  0  0  0  0  0  0  0  0  0  0  0
   62.6710   31.3520   46.8900 N   0  0  0  0  0  0  0  0  0  0  0  0
   61.4940   31.4390   47.5790 C   0  0  0  0  0  0  0  0  0  0  0  0
   60.2740   30.8320   47.0780 C   0  0  0  0  0  0  0  0  0  0  0  0
   59.6720   31.4150   45.9870 C   0  0  0  0  0  0  0  0  0  0  0  0
   58.4910   30.9580   45.4420 C   0  0  0  0  0  0  0  0  0  0  0  0
   57.9140   29.8600   46.0510 C   0  0  0  0  0  0  0  0  0  0  0  0
   56.7190   29.3530   45.5420 O   0  0  0  0  0  0  0  0  0  0  0  0
   56.4360   29.4720   44.1630 C   0  0  0  0  0  0  0  0  0  0  0  0
   58.5050   29.2710   47.1390 C   0  0  0  0  0  0  0  0  0  0  0  0
   59.6950   29.7260   47.6910 C   0  0  0  0  0  0  0  0  0  0  0  0
   58.4395   32.3729   51.5712 H   0  0  0  0  0  0  0  0  0  0  0  0
   56.8302   32.0625   50.8361 H   0  0  0  0  0  0  0  0  0  0  0  0
   58.0813   30.7735   50.8361 H   0  0  0  0  0  0  0  0  0  0  0  0
   58.5692   31.4763   48.7828 H   0  0  0  0  0  0  0  0  0  0  0  0
   57.6571   33.0628   49.0756 H   0  0  0  0  0  0  0  0  0  0  0  0
   58.9523   34.9957   49.3190 H   0  0  0  0  0  0  0  0  0  0  0  0
   60.6878   34.6141   48.7440 H   0  0  0  0  0  0  0  0  0  0  0  0
   60.9057   35.1570   46.3794 H   0  0  0  0  0  0  0  0  0  0  0  0
   59.8109   35.0690   44.1824 H   0  0  0  0  0  0  0  0  0  0  0  0
   57.3697   34.1419   44.1197 H   0  0  0  0  0  0  0  0  0  0  0  0
   61.3502   33.1586   50.4908 H   0  0  0  0  0  0  0  0  0  0  0  0
   60.5405   31.5091   50.2410 H   0  0  0  0  0  0  0  0  0  0  0  0
   63.6222   33.0366   49.4507 H   0  0  0  0  0  0  0  0  0  0  0  0
   64.6070   32.0240   47.2030 H   0  0  0  0  0  0  0  0  0  0  0  0
   60.1568   32.2887   45.5269 H   0  0  0  0  0  0  0  0  0  0  0  0
   58.0318   31.4424   44.5676 H   0  0  0  0  0  0  0  0  0  0  0  0
   55.4294   29.8953   44.0305 H   0  0  0  0  0  0  0  0  0  0  0  0
   57.1773   30.1346   43.6924 H   0  0  0  0  0  0  0  0  0  0  0  0
   56.4810   28.4788   43.6924 H   0  0  0  0  0  0  0  0  0  0  0  0
   58.0142   28.3986   47.5951 H   0  0  0  0  0  0  0  0  0  0  0  0
   60.1540   29.2391   48.5641 H   0  0  0  0  0  0  0  0  0  0  0  0
  1  2  1  0
  2  3  1  0
  3  4  1  0
  4  5  1  0
  5  6  2  0
  6  7  1  0
  7  8  2  0
  8  9  1  0
  3 10  1  0
 10 11  1  0
 11 12  2  0
 12 13  1  0
 13 14  1  0
 14 15  2  0
 15 16  1  0
 16 17  2  0
 17 18  1  0
 18 19  2  0
 19 20  1  0
 20 21  1  0
 19 22  1  0
 22 23  2  0
  9  5  1  0
 15 11  1  0
 23 16  1  0
  1 24  1  0
  1 25  1  0
  1 26  1  0
  2 27  1  0
  2 28  1  0
  4 29  1  0
  4 30  1  0
  6 31  1  0
  7 32  1  0
  8 33  1  0
 10 34  1  0
 10 35  1  0
 12 36  1  0
 13 37  1  0
 17 38  1  0
 18 39  1  0
 21 40  1  0
 21 41  1  0
 21 42  1  0
 22 43  1  0
 23 44  1  0
M  END
>  <smiles>  (49) 
CCN(Cc1cccs1)Cc1c[nH]nc1-c1ccc(OC)cc1

>  <score_type>  (49) 
oracle

>  <origin>  (49) 
adg

>  <m_score__min__energy>  (49) 
-7.0899999999999999

>  <m_primary>  (49) 
energy

$$$$
49:0
     RDKit          3D

 39 41  0  0  0  0  0  0  0  0999 V2000
   61.3492   33.8853   53.4250 H   0  0  0  0  0  0  0  0  0  0  0  0
   61.1100   33.6390   52.3800 C   0  0  0  0  0  0  0  0  0  0  0  0
   59.7790   33.4650   51.9900 C   0  0  0  0  0  0  0  0  0  0  0  0
   58.9708   33.5791   52.7275 H   0  0  0  0  0  0  0  0  0  0  0  0
   59.4740   33.1460   50.6630 C   0  0  0  0  0  0  0  0  0  0  0  0
   58.4253   33.0144   50.3581 H   0  0  0  0  0  0  0  0  0  0  0  0
   60.5020   32.9930   49.7180 C   0  0  0  0  0  0  0  0  0  0  0  0
   60.1830   32.6790   48.3520 N   0  0  0  0  0  0  0  0  0  0  0  0
   60.2530   31.4550   47.7890 C   0  0  0  0  0  0  0  0  0  0  0  0
   60.5760   30.4030   48.4020 O   0  0  0  0  0  0  0  0  0  0  0  0
   59.8600   31.5320   46.4690 C   0  0  0  0  0  0  0  0  0  0  0  0
   59.5590   30.4340   45.6030 N   0  0  0  0  0  0  0  0  0  0  0  0
   58.6430   29.5100   45.7270 C   0  0  0  0  0  0  0  0  0  0  0  0
   57.5290   29.3660   44.8510 C   0  0  0  0  0  0  0  0  0  0  0  0
   56.9720   30.6460   43.5260 Br  0  0  0  0  0  0  0  0  0  0  0  0
   56.6530   28.2930   45.0440 C   0  0  0  0  0  0  0  0  0  0  0  0
   55.8042   28.1558   44.3579 H   0  0  0  0  0  0  0  0  0  0  0  0
   56.8410   27.3910   46.0980 C   0  0  0  0  0  0  0  0  0  0  0  0
   55.9090   26.2600   46.2980 C   0  0  0  0  0  0  0  0  0  0  0  0
   54.7100   26.3420   45.9180 O   0  0  0  0  0  0  0  0  0  0  0  0
   56.3430   25.0890   46.9100 O   0  0  0  0  0  0  0  0  0  0  0  0
   57.9130   27.6040   46.9710 C   0  0  0  0  0  0  0  0  0  0  0  0
   58.0669   26.9244   47.8221 H   0  0  0  0  0  0  0  0  0  0  0  0
   58.7660   28.6440   46.7760 N   0  0  0  0  0  0  0  0  0  0  0  0
   59.5620   28.7570   47.4440 H   0  0  0  0  0  0  0  0  0  0  0  0
   59.4700   32.8480   46.2920 C   0  0  0  0  0  0  0  0  0  0  0  0
   58.8920   33.4380   45.0420 C   0  0  0  0  0  0  0  0  0  0  0  0
   58.1450   34.2005   45.3078 H   0  0  0  0  0  0  0  0  0  0  0  0
   59.6949   33.9019   44.4502 H   0  0  0  0  0  0  0  0  0  0  0  0
   58.4117   32.6448   44.4502 H   0  0  0  0  0  0  0  0  0  0  0  0
   59.7240   33.5310   47.4370 N   0  0  0  0  0  0  0  0  0  0  0  0
   59.4940   34.9630   47.6480 C   0  0  0  0  0  0  0  0  0  0  0  0
   59.4601   35.1738   48.7271 H   0  0  0  0  0  0  0  0  0  0  0  0
   60.3114   35.5374   47.1876 H   0  0  0  0  0  0  0  0  0  0  0  0
   58.5378   35.2525   47.1876 H   0  0  0  0  0  0  0  0  0  0  0  0
   61.8360   33.1810   50.1140 C   0  0  0  0  0  0  0  0  0  0  0  0
   62.6465   33.0771   49.3776 H   0  0  0  0  0  0  0  0  0  0  0  0
   62.1370   33.5000   51.4420 C   0  0  0  0  0  0  0  0  0  0  0  0
   63.1838   33.6418   51.7489 H   0  0  0  0  0  0  0  0  0  0  0  0
  1  2  1  0
  2  3  2  0
  3  4  1  0
  3  5  1  0
  5  6  1  0
  5  7  2  0
  7  8  1  0
  8  9  1  0
  9 10  2  0
  9 11  1  0
 11 12  1  0
 12 13  2  0
 13 14  1  0
 14 15  1  0
 14 16  2  0
 16 17  1  0
 16 18  1  0
 18 19  1  0
 19 20  2  0
 19 21  1  0
 18 22  2  0
 22 23  1  0
 22 24  1  0
 24 25  1  0
 11 26  2  0
 26 27  1  0
 27 28  1  0
 27 29  1  0
 27 30  1  0
 26 31  1  0
 31 32  1  0
 32 33  1  0
 32 34  1  0
 32 35  1  0
  7 36  1  0
 36 37  1  0
 36 38  2  0
 38 39  1  0
 38  2  1  0
 31  8  1  0
 24 13  1  0
M  CHG  1  21  -1
M  END
>  <UniqueID>  (50) 
40

>  <SMILES>  (50) 
Cc1c(/N=c2/[nH]cc(C(=O)[O-])cc2Br)c(=O)n(-c2ccccc2)n1C

>  <Energy>  (50) 
100.18420412742557

>  <Genealogy>  (50) 
Cc1c(N=c2[nH]cc(C(=O)[O-])cc2Br)c(=O)n(-c2ccccc2)n1C (protonated)
Cc1c(/N=c2/[nH]cc(C(=O)[O-])cc2Br)c(=O)n(-c2ccccc2)n1C (cis-trans isomerization)
Cc1c(/N=c2/[nH]cc(C(=O)[O-])cc2Br)c(=O)n(-c2ccccc2)n1C (3D coordinates assigned)
Cc1c(/N=c2/[nH]cc(C(=O)[O-])cc2Br)c(=O)n(-c2ccccc2)n1C (optimized conformer: 100.18420412742557 kcal/mol)

>  <smiles>  (50) 
Cc1c(N=c2[nH]cc(C(=O)O)cc2Br)c(=O)n(-c2ccccc2)n1C

>  <score_type>  (50) 
oracle

>  <origin>  (50) 
adg

>  <m_score__min__energy>  (50) 
-9.75

>  <m_primary>  (50) 
energy

$$$$
50:0
     RDKit          3D

 41 43  0  0  0  0  0  0  0  0999 V2000
   56.5111   32.7514   44.0279 H   0  0  0  0  0  0  0  0  0  0  0  0
   57.4140   32.3090   44.4740 C   0  0  0  0  0  0  0  0  0  0  0  0
   57.7480   31.0650   44.1180 C   0  0  0  0  0  0  0  0  0  0  0  0
   58.8093   30.7815   44.0611 H   0  0  0  0  0  0  0  0  0  0  0  0
   56.5100   29.8780   43.7400 S   0  0  0  0  0  0  0  0  0  0  0  0
   55.2880   30.1720   44.5630 O   0  0  0  0  0  0  0  0  0  0  0  0
   56.1590   29.9340   42.2790 O   0  0  0  0  0  0  0  0  0  0  0  0
   57.0880   28.2900   44.1290 N   0  0  0  0  0  0  0  0  0  0  0  0
   56.8120   27.5090   43.4940 H   0  0  0  0  0  0  0  0  0  0  0  0
   57.8490   28.0130   45.3190 C   0  0  0  0  0  0  0  0  0  0  0  0
   58.7610   28.9680   45.7990 C   0  0  0  0  0  0  0  0  0  0  0  0
   58.8377   29.9455   45.3003 H   0  0  0  0  0  0  0  0  0  0  0  0
   59.5690   28.6910   46.8990 C   0  0  0  0  0  0  0  0  0  0  0  0
   60.2803   29.4481   47.2607 H   0  0  0  0  0  0  0  0  0  0  0  0
   59.4800   27.4590   47.5430 C   0  0  0  0  0  0  0  0  0  0  0  0
   60.6090   27.1120   49.0490 Br  0  0  0  0  0  0  0  0  0  0  0  0
   58.5620   26.4960   47.0990 C   0  0  0  0  0  0  0  0  0  0  0  0
   58.4620   25.2850   47.7880 O   0  0  0  0  0  0  0  0  0  0  0  0
   57.2060   24.7850   48.2280 C   0  0  0  0  0  0  0  0  0  0  0  0
   57.1803   24.7748   49.3277 H   0  0  0  0  0  0  0  0  0  0  0  0
   56.4008   25.4311   47.8484 H   0  0  0  0  0  0  0  0  0  0  0  0
   57.0651   23.7622   47.8484 H   0  0  0  0  0  0  0  0  0  0  0  0
   57.7440   26.7600   45.9750 C   0  0  0  0  0  0  0  0  0  0  0  0
   56.7680   25.7410   45.5220 C   0  0  0  0  0  0  0  0  0  0  0  0
   55.5050   25.6660   45.9930 N   0  0  0  0  0  0  0  0  0  0  0  0
   54.9640   24.6430   45.3110 C   0  0  0  0  0  0  0  0  0  0  0  0
   53.9341   24.2742   45.4268 H   0  0  0  0  0  0  0  0  0  0  0  0
   55.9000   24.1300   44.4460 C   0  0  0  0  0  0  0  0  0  0  0  0
   55.7380   23.2862   43.7591 H   0  0  0  0  0  0  0  0  0  0  0  0
   57.0440   24.8220   44.5720 N   0  0  0  0  0  0  0  0  0  0  0  0
   58.1910   33.1270   45.4360 C   0  0  0  0  0  0  0  0  0  0  0  0
   58.1690   32.7700   46.7950 C   0  0  0  0  0  0  0  0  0  0  0  0
   57.5888   31.8935   47.1193 H   0  0  0  0  0  0  0  0  0  0  0  0
   58.8780   33.5190   47.7380 C   0  0  0  0  0  0  0  0  0  0  0  0
   58.8602   33.2257   48.7980 H   0  0  0  0  0  0  0  0  0  0  0  0
   59.6090   34.6390   47.3370 C   0  0  0  0  0  0  0  0  0  0  0  0
   60.1703   35.2248   48.0798 H   0  0  0  0  0  0  0  0  0  0  0  0
   59.6270   35.0150   45.9920 C   0  0  0  0  0  0  0  0  0  0  0  0
   60.1994   35.9002   45.6778 H   0  0  0  0  0  0  0  0  0  0  0  0
   58.9200   34.2700   45.0440 C   0  0  0  0  0  0  0  0  0  0  0  0
   58.9319   34.5760   43.9875 H   0  0  0  0  0  0  0  0  0  0  0  0
  1  2  1  0
  2  3  2  0
  3  4  1  0
  3  5  1  0
  5  6  2  0
  5  7  2  0
  5  8  1  0
  8  9  1  0
  8 10  1  0
 10 11  2  0
 11 12  1  0
 11 13  1  0
 13 14  1  0
 13 15  2  0
 15 16  1  0
 15 17  1  0
 17 18  1  0
 18 19  1  0
 19 20  1  0
 19 21  1  0
 19 22  1  0
 17 23  2  0
 23 24  1  0
 24 25  2  0
 25 26  1  0
 26 27  1  0
 26 28  2  0
 28 29  1  0
 28 30  1  0
  2 31  1  0
 31 32  2  0
 32 33  1  0
 32 34  1  0
 34 35  1  0
 34 36  2  0
 36 37  1  0
 36 38  1  0
 38 39  1  0
 38 40  2  0
 40 41  1  0
 23 10  1  0
 30 24  1  0
 40 31  1  0
M  CHG  1  30  -1
M  END
>  <UniqueID>  (51) 
41

>  <SMILES>  (51) 
COc1c(Br)ccc(NS(=O)(=O)/C=C/c2ccccc2)c1-c1ncc[n-]1

>  <Energy>  (51) 
88.01719996522172

>  <Genealogy>  (51) 
COc1c(Br)ccc(NS(=O)(=O)C=Cc2ccccc2)c1-c1ncc[n-]1 (protonated)
COc1c(Br)ccc(NS(=O)(=O)/C=C/c2ccccc2)c1-c1ncc[n-]1 (cis-trans isomerization)
COc1c(Br)ccc(NS(=O)(=O)/C=C/c2ccccc2)c1-c1ncc[n-]1 (3D coordinates assigned)
COc1c(Br)ccc(NS(=O)(=O)/C=C/c2ccccc2)c1-c1ncc[n-]1 (optimized conformer: 88.01719996522172 kcal/mol)

>  <smiles>  (51) 
COc1c(Br)ccc(NS(=O)(=O)C=Cc2ccccc2)c1-c1ncc[nH]1

>  <score_type>  (51) 
oracle

>  <origin>  (51) 
adg

>  <m_score__min__energy>  (51) 
-10.52

>  <m_primary>  (51) 
energy

$$$$
51:0
     RDKit          3D

 46 49  0  0  0  0  0  0  0  0999 V2000
   59.6390   34.5910   48.7610 C   0  0  0  0  0  0  0  0  0  0  0  0
   60.4840   34.2920   47.5260 C   0  0  0  0  0  0  0  0  0  0  0  0
   60.1550   32.9520   46.9780 N   0  0  0  0  0  0  0  0  0  0  0  0
   61.0580   31.9290   47.1350 C   0  0  0  0  0  0  0  0  0  0  0  0
   62.6100   32.1090   48.0400 S   0  0  0  0  0  0  0  0  0  0  0  0
   62.2010   30.8610   49.3130 C   0  0  0  0  0  0  0  0  0  0  0  0
   60.9080   31.1980   50.0040 C   0  0  0  0  0  0  0  0  0  0  0  0
   59.8670   30.2490   50.0600 C   0  0  0  0  0  0  0  0  0  0  0  0
   58.7080   30.5560   50.7830 C   0  0  0  0  0  0  0  0  0  0  0  0
   57.7700   29.7150   50.8620 O   0  0  0  0  0  0  0  0  0  0  0  0
   58.6190   31.7640   51.4030 N   0  0  0  0  0  0  0  0  0  0  0  0
   57.5820   32.2150   52.1600 C   0  0  0  0  0  0  0  0  0  0  0  0
   57.7770   33.4900   52.6910 C   0  0  0  0  0  0  0  0  0  0  0  0
   59.2920   34.0580   52.1940 S   0  0  0  0  0  0  0  0  0  0  0  0
   59.6270   32.6600   51.3270 C   0  0  0  0  0  0  0  0  0  0  0  0
   60.7690   32.3970   50.6410 N   0  0  0  0  0  0  0  0  0  0  0  0
   60.8050   30.7110   46.6120 N   0  0  0  0  0  0  0  0  0  0  0  0
   59.6640   30.4130   45.9500 C   0  0  0  0  0  0  0  0  0  0  0  0
   58.7020   31.4200   45.7510 C   0  0  0  0  0  0  0  0  0  0  0  0
   58.9910   32.7300   46.2620 C   0  0  0  0  0  0  0  0  0  0  0  0
   57.9550   33.9920   45.9760 S   0  0  0  0  0  0  0  0  0  0  0  0
   57.5200   31.0510   45.0500 C   0  0  0  0  0  0  0  0  0  0  0  0
   56.6100   31.8970   44.8330 O   0  0  0  0  0  0  0  0  0  0  0  0
   57.3500   29.7680   44.6000 N   0  0  0  0  0  0  0  0  0  0  0  0
   56.1340   29.4120   43.8440 C   0  0  0  0  0  0  0  0  0  0  0  0
   58.3340   28.8330   44.7780 C   0  0  0  0  0  0  0  0  0  0  0  0
   58.1970   27.6770   44.2860 O   0  0  0  0  0  0  0  0  0  0  0  0
   59.4650   29.1390   45.4830 N   0  0  0  0  0  0  0  0  0  0  0  0
   60.5020   28.1040   45.6660 C   0  0  0  0  0  0  0  0  0  0  0  0
   60.2272   34.3829   49.6669 H   0  0  0  0  0  0  0  0  0  0  0  0
   59.3399   35.6495   48.7532 H   0  0  0  0  0  0  0  0  0  0  0  0
   58.7407   33.9561   48.7532 H   0  0  0  0  0  0  0  0  0  0  0  0
   60.2851   35.0548   46.7588 H   0  0  0  0  0  0  0  0  0  0  0  0
   61.5461   34.3066   47.8117 H   0  0  0  0  0  0  0  0  0  0  0  0
   62.1060   29.8757   48.8331 H   0  0  0  0  0  0  0  0  0  0  0  0
   63.0058   30.8491   50.0628 H   0  0  0  0  0  0  0  0  0  0  0  0
   59.9638   29.2825   49.5438 H   0  0  0  0  0  0  0  0  0  0  0  0
   56.6702   31.6259   52.3375 H   0  0  0  0  0  0  0  0  0  0  0  0
   57.0645   34.0357   53.3271 H   0  0  0  0  0  0  0  0  0  0  0  0
   61.5380   33.1040   50.6200 H   0  0  0  0  0  0  0  0  0  0  0  0
   55.3218   29.1742   44.5467 H   0  0  0  0  0  0  0  0  0  0  0  0
   55.8344   30.2601   43.2108 H   0  0  0  0  0  0  0  0  0  0  0  0
   56.3391   28.5362   43.2108 H   0  0  0  0  0  0  0  0  0  0  0  0
   60.6685   27.9378   46.7405 H   0  0  0  0  0  0  0  0  0  0  0  0
   60.1705   27.1659   45.1969 H   0  0  0  0  0  0  0  0  0  0  0  0
   61.4395   28.4373   45.1969 H   0  0  0  0  0  0  0  0  0  0  0  0
  1  2  1  0
  2  3  1  0
  3  4  1  0
  4  5  1  0
  5  6  1  0
  6  7  1  0
  7  8  2  0
  8  9  1  0
  9 10  2  0
  9 11  1  0
 11 12  1  0
 12 13  2  0
 13 14  1  0
 14 15  1  0
 15 16  2  0
  4 17  2  0
 17 18  1  0
 18 19  2  0
 19 20  1  0
 20 21  2  0
 19 22  1  0
 22 23  2  0
 22 24  1  0
 24 25  1  0
 24 26  1  0
 26 27  2  0
 26 28  1  0
 28 29  1  0
 20  3  1  0
 16  7  1  0
 28 18  1  0
 15 11  1  0
  1 30  1  0
  1 31  1  0
  1 32  1  0
  2 33  1  0
  2 34  1  0
  6 35  1  0
  6 36  1  0
  8 37  1  0
 12 38  1  0
 13 39  1  0
 16 40  1  0
 25 41  1  0
 25 42  1  0
 25 43  1  0
 29 44  1  0
 29 45  1  0
 29 46  1  0
M  CHG  1  16   1
M  END
>  <UniqueID>  (52) 
42

>  <SMILES>  (52) 
CCn1c(SCc2cc(=O)n3ccsc3[nH+]2)nc2c(c1=S)c(=O)n(C)c(=O)n2C

>  <Energy>  (52) 
101.34849254284161

>  <Genealogy>  (52) 
CCn1c(SCc2cc(=O)n3ccsc3[nH+]2)nc2c(c1=S)c(=O)n(C)c(=O)n2C (protonated)
CCn1c(SCc2cc(=O)n3ccsc3[nH+]2)nc2c(c1=S)c(=O)n(C)c(=O)n2C (3D coordinates assigned)
CCn1c(SCc2cc(=O)n3ccsc3[nH+]2)nc2c(c1=S)c(=O)n(C)c(=O)n2C (optimized conformer: 101.34849254284161 kcal/mol)

>  <smiles>  (52) 
CCn1c(SCc2cc(=O)n3ccsc3n2)nc2c(c1=S)c(=O)n(C)c(=O)n2C

>  <score_type>  (52) 
oracle

>  <origin>  (52) 
adg

>  <m_score__min__energy>  (52) 
-6.8899999999999997

>  <m_primary>  (52) 
energy

$$$$
52:0
     RDKit          3D

 47 49  0  0  0  0  0  0  0  0999 V2000
   58.9490   35.3439   48.0806 H   0  0  0  0  0  0  0  0  0  0  0  0
   59.2900   34.3240   47.8490 C   0  0  0  0  0  0  0  0  0  0  0  0
   60.0300   33.6820   48.7740 C   0  0  0  0  0  0  0  0  0  0  0  0
   59.3560   33.1230   49.9700 C   0  0  0  0  0  0  0  0  0  0  0  0
   59.2450   33.8840   51.4700 S   0  0  0  0  0  0  0  0  0  0  0  0
   58.3890   32.6680   52.2520 C   0  0  0  0  0  0  0  0  0  0  0  0
   58.0525   32.6866   53.2991 H   0  0  0  0  0  0  0  0  0  0  0  0
   58.1800   31.6360   51.3480 C   0  0  0  0  0  0  0  0  0  0  0  0
   57.6398   30.7125   51.6035 H   0  0  0  0  0  0  0  0  0  0  0  0
   58.7240   31.8820   50.0740 C   0  0  0  0  0  0  0  0  0  0  0  0
   58.6720   30.9780   49.0040 O   0  0  0  0  0  0  0  0  0  0  0  0
   59.7140   30.0680   48.6610 C   0  0  0  0  0  0  0  0  0  0  0  0
   60.6828   30.5839   48.7338 H   0  0  0  0  0  0  0  0  0  0  0  0
   59.6829   29.2158   49.3558 H   0  0  0  0  0  0  0  0  0  0  0  0
   59.5310   29.5560   47.2580 C   0  0  0  0  0  0  0  0  0  0  0  0
   58.3640   28.8620   46.8960 C   0  0  0  0  0  0  0  0  0  0  0  0
   57.5757   28.6873   47.6431 H   0  0  0  0  0  0  0  0  0  0  0  0
   58.2020   28.3930   45.5890 C   0  0  0  0  0  0  0  0  0  0  0  0
   57.2895   27.8449   45.3117 H   0  0  0  0  0  0  0  0  0  0  0  0
   59.1970   28.6190   44.6340 C   0  0  0  0  0  0  0  0  0  0  0  0
   59.0685   28.2466   43.6070 H   0  0  0  0  0  0  0  0  0  0  0  0
   60.3550   29.3180   44.9840 C   0  0  0  0  0  0  0  0  0  0  0  0
   61.1366   29.4986   44.2314 H   0  0  0  0  0  0  0  0  0  0  0  0
   60.5210   29.7880   46.2900 C   0  0  0  0  0  0  0  0  0  0  0  0
   61.4318   30.3423   46.5606 H   0  0  0  0  0  0  0  0  0  0  0  0
   61.7700   33.3910   48.5520 S   0  0  0  0  0  0  0  0  0  0  0  0
   62.1390   32.0220   49.0520 O   0  0  0  0  0  0  0  0  0  0  0  0
   62.5450   34.3990   49.3540 O   0  0  0  0  0  0  0  0  0  0  0  0
   62.2270   33.5400   46.8360 C   0  0  0  0  0  0  0  0  0  0  0  0
   63.2705   33.8802   46.7627 H   0  0  0  0  0  0  0  0  0  0  0  0
   62.1247   32.5620   46.3431 H   0  0  0  0  0  0  0  0  0  0  0  0
   61.5679   34.2698   46.3431 H   0  0  0  0  0  0  0  0  0  0  0  0
   58.9080   33.7490   46.5480 C   0  0  0  0  0  0  0  0  0  0  0  0
   59.2660   34.3900   45.3520 C   0  0  0  0  0  0  0  0  0  0  0  0
   59.8455   35.3245   45.3826 H   0  0  0  0  0  0  0  0  0  0  0  0
   58.8880   33.8440   44.1220 C   0  0  0  0  0  0  0  0  0  0  0  0
   59.1828   34.3413   43.1862 H   0  0  0  0  0  0  0  0  0  0  0  0
   58.1340   32.6640   44.0800 C   0  0  0  0  0  0  0  0  0  0  0  0
   57.6520   31.9630   42.5020 S   0  0  0  0  0  0  0  0  0  0  0  0
   56.7470   30.5770   43.2590 C   0  0  0  0  0  0  0  0  0  0  0  0
   56.8005   30.6589   44.3546 H   0  0  0  0  0  0  0  0  0  0  0  0
   55.6948   30.6083   42.9399 H   0  0  0  0  0  0  0  0  0  0  0  0
   57.1988   29.6262   42.9399 H   0  0  0  0  0  0  0  0  0  0  0  0
   57.7470   32.0430   45.2730 C   0  0  0  0  0  0  0  0  0  0  0  0
   57.1438   31.1236   45.2422 H   0  0  0  0  0  0  0  0  0  0  0  0
   58.1250   32.5880   46.5040 C   0  0  0  0  0  0  0  0  0  0  0  0
   57.8071   32.1044   47.4394 H   0  0  0  0  0  0  0  0  0  0  0  0
  1  2  1  0
  2  3  2  0
  3  4  1  0
  4  5  1  0
  5  6  1  0
  6  7  1  0
  6  8  2  0
  8  9  1  0
  8 10  1  0
 10 11  1  0
 11 12  1  0
 12 13  1  0
 12 14  1  0
 12 15  1  0
 15 16  2  0
 16 17  1  0
 16 18  1  0
 18 19  1  0
 18 20  2  0
 20 21  1  0
 20 22  1  0
 22 23  1  0
 22 24  2  0
 24 25  1  0
  3 26  1  0
 26 27  2  0
 26 28  2  0
 26 29  1  0
 29 30  1  0
 29 31  1  0
 29 32  1  0
  2 33  1  0
 33 34  2  0
 34 35  1  0
 34 36  1  0
 36 37  1  0
 36 38  2  0
 38 39  1  0
 39 40  1  0
 40 41  1  0
 40 42  1  0
 40 43  1  0
 38 44  1  0
 44 45  1  0
 44 46  2  0
 46 47  1  0
 10  4  2  0
 24 15  1  0
 46 33  1  0
M  END
>  <UniqueID>  (53) 
43

>  <SMILES>  (53) 
CSc1ccc(/C=C(/c2sccc2OCc2ccccc2)S(C)(=O)=O)cc1

>  <Energy>  (53) 
77.86965985535281

>  <Genealogy>  (53) 
CSc1ccc(/C=C(/c2sccc2OCc2ccccc2)S(C)(=O)=O)cc1 (cis-trans isomerization)
CSc1ccc(/C=C(/c2sccc2OCc2ccccc2)S(C)(=O)=O)cc1 (3D coordinates assigned)
CSc1ccc(/C=C(/c2sccc2OCc2ccccc2)S(C)(=O)=O)cc1 (optimized conformer: 77.86965985535281 kcal/mol)

>  <smiles>  (53) 
CSc1ccc(C=C(c2sccc2OCc2ccccc2)S(C)(=O)=O)cc1

>  <score_type>  (53) 
oracle

>  <origin>  (53) 
adg

>  <m_score__min__energy>  (53) 
-8.9900000000000002

>  <m_primary>  (53) 
energy

$$$$
53:0
     RDKit          3D

 34 36  0  0  0  0  0  0  0  0999 V2000
   57.6920   26.0160   44.7700 C   0  0  0  0  0  0  0  0  0  0  0  0
   56.6320   26.8280   45.9490 S   0  0  0  0  0  0  0  0  0  0  0  0
   57.4120   27.2190   47.1730 O   0  0  0  0  0  0  0  0  0  0  0  0
   55.5440   25.8750   46.3530 O   0  0  0  0  0  0  0  0  0  0  0  0
   55.9060   28.2310   45.2350 N   0  0  0  0  0  0  0  0  0  0  0  0
   56.5980   29.4200   44.8270 C   0  0  0  0  0  0  0  0  0  0  0  0
   56.4610   29.8500   43.5020 C   0  0  0  0  0  0  0  0  0  0  0  0
   57.1170   30.9990   43.0590 C   0  0  0  0  0  0  0  0  0  0  0  0
   56.9830   31.4020   41.7710 F   0  0  0  0  0  0  0  0  0  0  0  0
   57.9190   31.7320   43.9370 C   0  0  0  0  0  0  0  0  0  0  0  0
   58.0700   31.3200   45.2740 C   0  0  0  0  0  0  0  0  0  0  0  0
   58.9250   32.0960   46.2090 C   0  0  0  0  0  0  0  0  0  0  0  0
   58.4040   33.2080   46.8960 C   0  0  0  0  0  0  0  0  0  0  0  0
   59.2040   33.9390   47.7780 C   0  0  0  0  0  0  0  0  0  0  0  0
   60.5390   33.5700   47.9870 C   0  0  0  0  0  0  0  0  0  0  0  0
   61.3590   34.2890   48.8680 C   0  0  0  0  0  0  0  0  0  0  0  0
   62.6520   33.9130   49.0540 N   0  0  0  0  0  0  0  0  0  0  0  0
   63.1910   32.8450   48.4060 C   0  0  0  0  0  0  0  0  0  0  0  0
   64.4850   32.5090   48.6230 F   0  0  0  0  0  0  0  0  0  0  0  0
   62.4130   32.0980   47.5180 C   0  0  0  0  0  0  0  0  0  0  0  0
   61.0750   32.4570   47.3040 C   0  0  0  0  0  0  0  0  0  0  0  0
   60.2670   31.7280   46.4190 C   0  0  0  0  0  0  0  0  0  0  0  0
   57.4000   30.1640   45.7120 C   0  0  0  0  0  0  0  0  0  0  0  0
   58.4551   25.4314   45.3047 H   0  0  0  0  0  0  0  0  0  0  0  0
   57.0916   25.3446   44.1386 H   0  0  0  0  0  0  0  0  0  0  0  0
   58.1839   26.7706   44.1386 H   0  0  0  0  0  0  0  0  0  0  0  0
   55.8314   29.2778   42.8047 H   0  0  0  0  0  0  0  0  0  0  0  0
   58.4352   32.6359   43.5814 H   0  0  0  0  0  0  0  0  0  0  0  0
   57.3567   33.5047   46.7372 H   0  0  0  0  0  0  0  0  0  0  0  0
   58.7846   34.8060   48.3093 H   0  0  0  0  0  0  0  0  0  0  0  0
   60.9559   35.1578   49.4090 H   0  0  0  0  0  0  0  0  0  0  0  0
   62.8468   31.2353   46.9911 H   0  0  0  0  0  0  0  0  0  0  0  0
   60.6855   30.8621   45.8851 H   0  0  0  0  0  0  0  0  0  0  0  0
   57.5039   29.8379   46.7574 H   0  0  0  0  0  0  0  0  0  0  0  0
  1  2  1  0
  2  3  2  0
  2  4  2  0
  2  5  1  0
  5  6  1  0
  6  7  2  0
  7  8  1  0
  8  9  1  0
  8 10  2  0
 10 11  1  0
 11 12  1  0
 12 13  2  0
 13 14  1  0
 14 15  2  0
 15 16  1  0
 16 17  2  0
 17 18  1  0
 18 19  1  0
 18 20  2  0
 20 21  1  0
 21 22  2  0
 11 23  2  0
 23  6  1  0
 22 12  1  0
 21 15  1  0
  1 24  1  0
  1 25  1  0
  1 26  1  0
  7 27  1  0
 10 28  1  0
 13 29  1  0
 14 30  1  0
 16 31  1  0
 20 32  1  0
 22 33  1  0
 23 34  1  0
M  CHG  1   5  -1
M  END
>  <UniqueID>  (54) 
44

>  <SMILES>  (54) 
CS(=O)(=O)[N-]c1cc(F)cc(-c2ccc3cnc(F)cc3c2)c1

>  <Energy>  (54) 
44.588540319832894

>  <Genealogy>  (54) 
CS(=O)(=O)[N-]c1cc(F)cc(-c2ccc3cnc(F)cc3c2)c1 (protonated)
CS(=O)(=O)[N-]c1cc(F)cc(-c2ccc3cnc(F)cc3c2)c1 (3D coordinates assigned)
CS(=O)(=O)[N-]c1cc(F)cc(-c2ccc3cnc(F)cc3c2)c1 (optimized conformer: 44.588540319832894 kcal/mol)

>  <smiles>  (54) 
CS(=O)(=O)Nc1cc(F)cc(-c2ccc3cnc(F)cc3c2)c1

>  <score_type>  (54) 
oracle

>  <origin>  (54) 
adg

>  <m_score__min__energy>  (54) 
-10.32

>  <m_primary>  (54) 
energy

$$$$
54:0
     RDKit          3D

 55 57  0  0  0  0  0  0  0  0999 V2000
   67.0460   31.6210   50.8080 C   0  0  0  0  0  0  0  0  0  0  0  0
   65.7680   32.0520   50.2230 N   0  0  0  0  0  0  0  0  0  0  0  0
   65.5160   33.4790   50.5300 C   0  0  0  0  0  0  0  0  0  0  0  0
   64.0410   33.8940   50.3230 C   0  0  0  0  0  0  0  0  0  0  0  0
   63.3010   32.8980   49.5390 N   0  0  0  0  0  0  0  0  0  0  0  0
   62.2320   33.3310   48.6840 C   0  0  0  0  0  0  0  0  0  0  0  0
   62.3560   33.1970   47.2950 C   0  0  0  0  0  0  0  0  0  0  0  0
   61.3220   33.6080   46.4510 C   0  0  0  0  0  0  0  0  0  0  0  0
   60.1480   34.1670   46.9820 C   0  0  0  0  0  0  0  0  0  0  0  0
   59.0570   34.6180   46.0900 C   0  0  0  0  0  0  0  0  0  0  0  0
   59.2940   35.4020   45.1330 O   0  0  0  0  0  0  0  0  0  0  0  0
   57.7530   34.1790   46.2930 O   0  0  0  0  0  0  0  0  0  0  0  0
   60.0240   34.2940   48.3770 C   0  0  0  0  0  0  0  0  0  0  0  0
   61.0490   33.8550   49.2330 C   0  0  0  0  0  0  0  0  0  0  0  0
   60.9260   33.9760   50.6580 N   0  0  0  0  0  0  0  0  0  0  0  0
   61.2050   32.9580   51.6270 C   0  0  0  0  0  0  0  0  0  0  0  0
   62.0320   33.2050   52.5440 O   0  0  0  0  0  0  0  0  0  0  0  0
   60.5660   31.5980   51.5560 C   0  0  0  0  0  0  0  0  0  0  0  0
   59.8530   31.4360   50.2900 N   0  0  0  0  0  0  0  0  0  0  0  0
   60.0830   30.3210   49.4130 C   0  0  0  0  0  0  0  0  0  0  0  0
   60.9950   29.4920   49.6850 O   0  0  0  0  0  0  0  0  0  0  0  0
   59.2790   30.1370   48.1810 C   0  0  0  0  0  0  0  0  0  0  0  0
   58.8720   31.2570   47.4330 C   0  0  0  0  0  0  0  0  0  0  0  0
   58.1180   31.0960   46.2660 C   0  0  0  0  0  0  0  0  0  0  0  0
   57.7700   29.8160   45.8210 C   0  0  0  0  0  0  0  0  0  0  0  0
   56.8100   29.6140   44.3590 S   0  0  0  0  0  0  0  0  0  0  0  0
   55.1610   29.3270   44.7860 N   0  0  0  0  0  0  0  0  0  0  0  0
   57.3330   28.4520   43.5620 O   0  0  0  0  0  0  0  0  0  0  0  0
   56.8990   30.8560   43.5150 O   0  0  0  0  0  0  0  0  0  0  0  0
   58.1740   28.6950   46.5570 C   0  0  0  0  0  0  0  0  0  0  0  0
   58.9280   28.8520   47.7250 C   0  0  0  0  0  0  0  0  0  0  0  0
   63.4310   31.4690   49.8450 C   0  0  0  0  0  0  0  0  0  0  0  0
   64.6650   31.2050   50.7070 C   0  0  0  0  0  0  0  0  0  0  0  0
   66.9737   31.6454   51.9053 H   0  0  0  0  0  0  0  0  0  0  0  0
   67.2733   30.5965   50.4782 H   0  0  0  0  0  0  0  0  0  0  0  0
   67.8473   32.2986   50.4782 H   0  0  0  0  0  0  0  0  0  0  0  0
   65.7875   33.6643   51.5797 H   0  0  0  0  0  0  0  0  0  0  0  0
   66.1247   34.0759   49.8349 H   0  0  0  0  0  0  0  0  0  0  0  0
   63.5600   34.0025   51.3063 H   0  0  0  0  0  0  0  0  0  0  0  0
   64.0270   34.8447   49.7698 H   0  0  0  0  0  0  0  0  0  0  0  0
   63.2728   32.7657   46.8668 H   0  0  0  0  0  0  0  0  0  0  0  0
   61.4278   33.4931   45.3622 H   0  0  0  0  0  0  0  0  0  0  0  0
   59.1143   34.7421   48.8033 H   0  0  0  0  0  0  0  0  0  0  0  0
   61.3461   30.8264   51.6341 H   0  0  0  0  0  0  0  0  0  0  0  0
   59.8498   31.4963   52.3847 H   0  0  0  0  0  0  0  0  0  0  0  0
   59.2700   32.2370   49.9620 H   0  0  0  0  0  0  0  0  0  0  0  0
   59.1490   32.2673   47.7686 H   0  0  0  0  0  0  0  0  0  0  0  0
   57.7971   31.9800   45.6953 H   0  0  0  0  0  0  0  0  0  0  0  0
   55.1670   28.7150   45.6320 H   0  0  0  0  0  0  0  0  0  0  0  0
   57.8973   27.6867   46.2152 H   0  0  0  0  0  0  0  0  0  0  0  0
   59.2489   27.9651   48.2911 H   0  0  0  0  0  0  0  0  0  0  0  0
   62.5346   31.1340   50.3875 H   0  0  0  0  0  0  0  0  0  0  0  0
   63.5379   30.9160   48.9002 H   0  0  0  0  0  0  0  0  0  0  0  0
   64.4431   31.4498   51.7562 H   0  0  0  0  0  0  0  0  0  0  0  0
   64.9493   30.1445   50.6403 H   0  0  0  0  0  0  0  0  0  0  0  0
  1  2  1  0
  2  3  1  0
  3  4  1  0
  4  5  1  0
  5  6  1  0
  6  7  2  0
  7  8  1  0
  8  9  2  0
  9 10  1  0
 10 11  2  0
 10 12  1  0
  9 13  1  0
 13 14  2  0
 14 15  1  0
 15 16  1  0
 16 17  2  0
 16 18  1  0
 18 19  1  0
 19 20  1  0
 20 21  2  0
 20 22  1  0
 22 23  2  0
 23 24  1  0
 24 25  2  0
 25 26  1  0
 26 27  1  0
 26 28  2  0
 26 29  2  0
 25 30  1  0
 30 31  2  0
  5 32  1  0
 32 33  1  0
 33  2  1  0
 14  6  1  0
 31 22  1  0
  1 34  1  0
  1 35  1  0
  1 36  1  0
  3 37  1  0
  3 38  1  0
  4 39  1  0
  4 40  1  0
  7 41  1  0
  8 42  1  0
 13 43  1  0
 18 44  1  0
 18 45  1  0
 19 46  1  0
 23 47  1  0
 24 48  1  0
 27 49  1  0
 30 50  1  0
 31 51  1  0
 32 52  1  0
 32 53  1  0
 33 54  1  0
 33 55  1  0
M  CHG  3  12  -1  15  -1  27  -1
M  END
>  <UniqueID>  (55) 
45

>  <SMILES>  (55) 
CN1CCN(c2ccc(C(=O)[O-])cc2[N-]C(=O)CNC(=O)c2ccc(S([NH-])(=O)=O)cc2)CC1

>  <Energy>  (55) 
71.75756929994257

>  <Genealogy>  (55) 
CN1CCN(c2ccc(C(=O)[O-])cc2[N-]C(=O)CNC(=O)c2ccc(S([NH-])(=O)=O)cc2)CC1 (protonated)
CN1CCN(c2ccc(C(=O)[O-])cc2[N-]C(=O)CNC(=O)c2ccc(S([NH-])(=O)=O)cc2)CC1 (3D coordinates assigned)
CN1CCN(c2ccc(C(=O)[O-])cc2[N-]C(=O)CNC(=O)c2ccc(S([NH-])(=O)=O)cc2)CC1 (nonaromatic ring conformer: 71.75756929994257 kcal/mol)

>  <smiles>  (55) 
CN1CCN(c2ccc(C(=O)O)cc2NC(=O)CNC(=O)c2ccc(S(N)(=O)=O)cc2)CC1

>  <score_type>  (55) 
oracle

>  <origin>  (55) 
adg

>  <m_score__min__energy>  (55) 
-13.42

>  <m_primary>  (55) 
energy

$$$$
55:0
     RDKit          3D

 30 32  0  0  0  0  0  0  0  0999 V2000
   59.2800   34.6340   44.4970 O   0  0  0  0  0  0  0  0  0  0  0  0
   58.8160   33.6260   45.1000 C   0  0  0  0  0  0  0  0  0  0  0  0
   58.1770   32.6170   44.3590 C   0  0  0  0  0  0  0  0  0  0  0  0
   58.0310   32.6860   42.9590 C   0  0  0  0  0  0  0  0  0  0  0  0
   57.3860   31.6550   42.2690 C   0  0  0  0  0  0  0  0  0  0  0  0
   56.8830   30.5520   42.9640 C   0  0  0  0  0  0  0  0  0  0  0  0
   57.0220   30.4760   44.3520 C   0  0  0  0  0  0  0  0  0  0  0  0
   57.6670   31.5050   45.0490 C   0  0  0  0  0  0  0  0  0  0  0  0
   57.8010   31.4310   46.3930 N   0  0  0  0  0  0  0  0  0  0  0  0
   58.4180   32.4080   47.1060 C   0  0  0  0  0  0  0  0  0  0  0  0
   58.5190   32.2010   48.7340 S   0  0  0  0  0  0  0  0  0  0  0  0
   58.9350   33.5180   46.4680 N   0  0  0  0  0  0  0  0  0  0  0  0
   59.5890   34.6030   47.2360 C   0  0  0  0  0  0  0  0  0  0  0  0
   60.9910   34.2130   47.6360 C   0  0  0  0  0  0  0  0  0  0  0  0
   61.9270   33.8280   46.6610 C   0  0  0  0  0  0  0  0  0  0  0  0
   63.2250   33.4640   47.0320 C   0  0  0  0  0  0  0  0  0  0  0  0
   63.5970   33.4750   48.3790 C   0  0  0  0  0  0  0  0  0  0  0  0
   64.8570   33.1210   48.7370 F   0  0  0  0  0  0  0  0  0  0  0  0
   62.6710   33.8470   49.3560 C   0  0  0  0  0  0  0  0  0  0  0  0
   61.3720   34.2120   48.9890 C   0  0  0  0  0  0  0  0  0  0  0  0
   58.4252   33.5526   42.4080 H   0  0  0  0  0  0  0  0  0  0  0  0
   57.2742   31.7123   41.1762 H   0  0  0  0  0  0  0  0  0  0  0  0
   56.3769   29.7425   42.4175 H   0  0  0  0  0  0  0  0  0  0  0  0
   56.6246   29.6074   44.8976 H   0  0  0  0  0  0  0  0  0  0  0  0
   59.6313   35.5091   46.6138 H   0  0  0  0  0  0  0  0  0  0  0  0
   59.0031   34.7891   48.1482 H   0  0  0  0  0  0  0  0  0  0  0  0
   61.6368   33.8129   45.6001 H   0  0  0  0  0  0  0  0  0  0  0  0
   63.9540   33.1687   46.2630 H   0  0  0  0  0  0  0  0  0  0  0  0
   62.9641   33.8529   50.4162 H   0  0  0  0  0  0  0  0  0  0  0  0
   60.6449   34.4997   49.7627 H   0  0  0  0  0  0  0  0  0  0  0  0
  1  2  2  0
  2  3  1  0
  3  4  2  0
  4  5  1  0
  5  6  2  0
  6  7  1  0
  7  8  2  0
  8  9  1  0
  9 10  1  0
 10 11  2  0
 10 12  1  0
 12 13  1  0
 13 14  1  0
 14 15  2  0
 15 16  1  0
 16 17  2  0
 17 18  1  0
 17 19  1  0
 19 20  2  0
 12  2  1  0
 20 14  1  0
  8  3  1  0
  4 21  1  0
  5 22  1  0
  6 23  1  0
  7 24  1  0
 13 25  1  0
 13 26  1  0
 15 27  1  0
 16 28  1  0
 19 29  1  0
 20 30  1  0
M  CHG  1   9  -1
M  END
>  <UniqueID>  (56) 
46

>  <SMILES>  (56) 
O=c1c2ccccc2[n-]c(=S)n1Cc1ccc(F)cc1

>  <Energy>  (56) 
43.097822716688604

>  <Genealogy>  (56) 
O=c1c2ccccc2[n-]c(=S)n1Cc1ccc(F)cc1 (protonated)
O=c1c2ccccc2[n-]c(=S)n1Cc1ccc(F)cc1 (3D coordinates assigned)
O=c1c2ccccc2[n-]c(=S)n1Cc1ccc(F)cc1 (optimized conformer: 43.097822716688604 kcal/mol)

>  <smiles>  (56) 
O=c1c2ccccc2[nH]c(=S)n1Cc1ccc(F)cc1

>  <score_type>  (56) 
oracle

>  <origin>  (56) 
adg

>  <m_score__min__energy>  (56) 
-8.4399999999999995

>  <m_primary>  (56) 
energy

$$$$
56:0
     RDKit          3D

 48 50  0  0  0  0  0  0  0  0999 V2000
   61.8600   33.8820   46.7210 C   0  0  0  0  0  0  0  0  0  0  0  0
   60.3920   34.1080   46.5640 C   0  0  0  0  0  0  0  0  0  0  0  0
   59.8820   35.1900   46.9650 O   0  0  0  0  0  0  0  0  0  0  0  0
   59.5800   33.1170   45.9180 N   0  0  0  0  0  0  0  0  0  0  0  0
   58.1490   33.3160   45.6780 C   0  0  2  0  0  0  0  0  0  0  0  0
   57.3920   33.4750   47.0020 C   0  0  0  0  0  0  0  0  0  0  0  0
   57.5730   32.1850   44.8540 C   0  0  0  0  0  0  0  0  0  0  0  0
   56.3240   31.9950   44.8720 O   0  0  0  0  0  0  0  0  0  0  0  0
   58.4000   31.2560   44.1430 N   0  0  0  0  0  0  0  0  0  0  0  0
   58.5130   29.8610   44.4370 C   0  0  0  0  0  0  0  0  0  0  0  0
   57.7090   28.6240   43.6180 S   0  0  0  0  0  0  0  0  0  0  0  0
   58.2470   27.4020   44.6400 C   0  0  0  0  0  0  0  0  0  0  0  0
   59.0660   27.9390   45.6220 C   0  0  0  0  0  0  0  0  0  0  0  0
   59.1820   29.3350   45.5360 C   0  0  0  0  0  0  0  0  0  0  0  0
   59.9360   30.1400   46.4640 C   0  0  0  0  0  0  0  0  0  0  0  0
   60.5410   30.7860   47.2070 N   0  0  0  0  0  0  0  0  0  0  0  0
   59.6700   27.0770   46.6940 C   0  0  0  0  0  0  0  0  0  0  0  0
   59.6140   25.5860   46.2980 C   0  0  0  0  0  0  0  0  0  0  0  0
   58.3010   25.1910   45.7300 N   0  0  0  0  0  0  0  0  0  0  0  0
   57.2080   25.2960   46.7230 C   0  0  0  0  0  0  0  0  0  0  0  0
   55.9740   24.5910   46.2170 C   0  0  0  0  0  0  0  0  0  0  0  0
   55.9570   23.1920   46.1000 C   0  0  0  0  0  0  0  0  0  0  0  0
   54.8090   22.5330   45.6490 C   0  0  0  0  0  0  0  0  0  0  0  0
   53.6670   23.2660   45.3190 C   0  0  0  0  0  0  0  0  0  0  0  0
   53.6700   24.6580   45.4370 C   0  0  0  0  0  0  0  0  0  0  0  0
   54.8180   25.3230   45.8830 C   0  0  0  0  0  0  0  0  0  0  0  0
   54.8030   26.7100   45.9940 O   0  0  0  0  0  0  0  0  0  0  0  0
   58.0050   25.9320   44.4790 C   0  0  0  0  0  0  0  0  0  0  0  0
   62.1126   33.8431   47.7909 H   0  0  0  0  0  0  0  0  0  0  0  0
   62.1376   32.9305   46.2439 H   0  0  0  0  0  0  0  0  0  0  0  0
   62.4109   34.7059   46.2439 H   0  0  0  0  0  0  0  0  0  0  0  0
   60.0280   32.2150   45.6340 H   0  0  0  0  0  0  0  0  0  0  0  0
   58.0265   34.2454   45.1025 H   0  0  0  0  0  0  0  0  0  0  0  0
   58.0873   33.3290   47.8417 H   0  0  0  0  0  0  0  0  0  0  0  0
   56.9574   34.4840   47.0570 H   0  0  0  0  0  0  0  0  0  0  0  0
   56.5882   32.7261   47.0570 H   0  0  0  0  0  0  0  0  0  0  0  0
   60.7194   27.3708   46.8438 H   0  0  0  0  0  0  0  0  0  0  0  0
   59.0961   27.2161   47.6220 H   0  0  0  0  0  0  0  0  0  0  0  0
   60.3944   25.3921   45.5474 H   0  0  0  0  0  0  0  0  0  0  0  0
   59.7711   24.9943   47.2119 H   0  0  0  0  0  0  0  0  0  0  0  0
   57.5295   24.8326   47.6674 H   0  0  0  0  0  0  0  0  0  0  0  0
   56.9727   26.3580   46.8864 H   0  0  0  0  0  0  0  0  0  0  0  0
   56.8524   22.6106   46.3648 H   0  0  0  0  0  0  0  0  0  0  0  0
   54.8055   21.4371   45.5542 H   0  0  0  0  0  0  0  0  0  0  0  0
   52.7640   22.7466   44.9657 H   0  0  0  0  0  0  0  0  0  0  0  0
   52.7683   25.2326   45.1789 H   0  0  0  0  0  0  0  0  0  0  0  0
   58.6516   25.5494   43.6756 H   0  0  0  0  0  0  0  0  0  0  0  0
   56.9434   25.7823   44.2327 H   0  0  0  0  0  0  0  0  0  0  0  0
  1  2  1  0
  2  3  2  0
  2  4  1  0
  4  5  1  0
  5  6  1  0
  5  7  1  0
  7  8  2  0
  7  9  1  0
  9 10  1  0
 10 11  1  0
 11 12  1  0
 12 13  2  0
 13 14  1  0
 14 15  1  0
 15 16  3  0
 13 17  1  0
 17 18  1  0
 18 19  1  0
 19 20  1  0
 20 21  1  0
 21 22  2  0
 22 23  1  0
 23 24  2  0
 24 25  1  0
 25 26  2  0
 26 27  1  0
 19 28  1  0
 14 10  2  0
 26 21  1  0
 28 12  1  0
  1 29  1  0
  1 30  1  0
  1 31  1  0
  4 32  1  0
  5 33  1  6
  6 34  1  0
  6 35  1  0
  6 36  1  0
 17 37  1  0
 17 38  1  0
 18 39  1  0
 18 40  1  0
 20 41  1  0
 20 42  1  0
 22 43  1  0
 23 44  1  0
 24 45  1  0
 25 46  1  0
 28 47  1  0
 28 48  1  0
M  CHG  2   9  -1  27  -1
M  END
>  <UniqueID>  (57) 
47

>  <SMILES>  (57) 
CC(=O)N[C@H](C)C(=O)[N-]c1sc2c(c1C#N)CCN(Cc1ccccc1[O-])C2

>  <Energy>  (57) 
82.47830032722578

>  <Genealogy>  (57) 
CC(=O)NC(C)C(=O)[N-]c1sc2c(c1C#N)CCN(Cc1ccccc1[O-])C2 (protonated)
CC(=O)N[C@H](C)C(=O)[N-]c1sc2c(c1C#N)CCN(Cc1ccccc1[O-])C2 (chirality)
CC(=O)N[C@H](C)C(=O)[N-]c1sc2c(c1C#N)CCN(Cc1ccccc1[O-])C2 (3D coordinates assigned)
CC(=O)N[C@H](C)C(=O)[N-]c1sc2c(c1C#N)CCN(Cc1ccccc1[O-])C2 (nonaromatic ring conformer: 82.47830032722578 kcal/mol)

>  <smiles>  (57) 
CC(=O)NC(C)C(=O)Nc1sc2c(c1C#N)CCN(Cc1ccccc1O)C2

>  <score_type>  (57) 
oracle

>  <origin>  (57) 
adg

>  <m_score__min__energy>  (57) 
-12.52

>  <m_primary>  (57) 
energy

$$$$
57:0
     RDKit          3D

 49 51  0  0  0  0  0  0  0  0999 V2000
   62.3817   30.5366   51.4978 H   0  0  0  0  0  0  0  0  0  0  0  0
   61.9090   30.8990   50.5730 C   0  0  0  0  0  0  0  0  0  0  0  0
   61.5000   29.9870   49.5970 C   0  0  0  0  0  0  0  0  0  0  0  0
   61.6365   28.9082   49.7626 H   0  0  0  0  0  0  0  0  0  0  0  0
   60.9150   30.4440   48.4050 C   0  0  0  0  0  0  0  0  0  0  0  0
   60.4370   29.4670   47.3720 C   0  0  0  0  0  0  0  0  0  0  0  0
   60.9909   29.6224   46.4344 H   0  0  0  0  0  0  0  0  0  0  0  0
   60.6064   28.4401   47.7281 H   0  0  0  0  0  0  0  0  0  0  0  0
   59.0100   29.6760   47.1370 N   0  0  0  0  0  0  0  0  0  0  0  0
   58.3690   29.4230   46.0330 C   0  0  0  0  0  0  0  0  0  0  0  0
   57.2710   30.1660   45.7340 N   0  0  0  0  0  0  0  0  0  0  0  0
   56.5570   29.9480   44.6030 C   0  0  0  0  0  0  0  0  0  0  0  0
   55.5410   30.6500   44.3570 O   0  0  0  0  0  0  0  0  0  0  0  0
   56.9480   28.9470   43.7160 C   0  0  0  0  0  0  0  0  0  0  0  0
   56.3729   28.7533   42.7986 H   0  0  0  0  0  0  0  0  0  0  0  0
   58.0870   28.1940   44.0170 C   0  0  0  0  0  0  0  0  0  0  0  0
   58.5150   27.0820   43.1040 C   0  0  0  0  0  0  0  0  0  0  0  0
   58.8461   26.2217   43.7042 H   0  0  0  0  0  0  0  0  0  0  0  0
   57.6681   26.7821   42.4694 H   0  0  0  0  0  0  0  0  0  0  0  0
   59.3445   27.4273   42.4694 H   0  0  0  0  0  0  0  0  0  0  0  0
   58.7680   28.4330   45.1750 N   0  0  0  0  0  0  0  0  0  0  0  0
   59.6020   27.8420   45.3890 H   0  0  0  0  0  0  0  0  0  0  0  0
   60.7170   31.8210   48.2180 C   0  0  0  0  0  0  0  0  0  0  0  0
   60.2510   32.1841   47.2901 H   0  0  0  0  0  0  0  0  0  0  0  0
   61.1090   32.7390   49.2060 C   0  0  0  0  0  0  0  0  0  0  0  0
   60.8970   34.2150   48.9950 C   0  0  0  0  0  0  0  0  0  0  0  0
   61.6340   34.5839   48.2665 H   0  0  0  0  0  0  0  0  0  0  0  0
   61.0194   34.7286   49.9600 H   0  0  0  0  0  0  0  0  0  0  0  0
   59.5820   34.4770   48.5030 O   0  0  0  0  0  0  0  0  0  0  0  0
   59.1190   34.1580   47.2150 C   0  0  0  0  0  0  0  0  0  0  0  0
   57.9380   33.4180   47.1010 C   0  0  0  0  0  0  0  0  0  0  0  0
   57.4061   33.0973   48.0089 H   0  0  0  0  0  0  0  0  0  0  0  0
   57.4270   33.0820   45.8440 C   0  0  0  0  0  0  0  0  0  0  0  0
   56.4954   32.5020   45.7684 H   0  0  0  0  0  0  0  0  0  0  0  0
   58.1000   33.4830   44.6750 C   0  0  0  0  0  0  0  0  0  0  0  0
   57.6280   33.1730   43.3910 O   0  0  0  0  0  0  0  0  0  0  0  0
   58.0500   32.0450   42.6290 C   0  0  0  0  0  0  0  0  0  0  0  0
   57.5500   31.1404   43.0055 H   0  0  0  0  0  0  0  0  0  0  0  0
   59.1397   31.9270   42.7214 H   0  0  0  0  0  0  0  0  0  0  0  0
   57.6850   32.2550   41.1680 C   0  0  0  0  0  0  0  0  0  0  0  0
   56.7332   32.8026   41.1029 H   0  0  0  0  0  0  0  0  0  0  0  0
   58.4768   32.8356   40.6721 H   0  0  0  0  0  0  0  0  0  0  0  0
   57.5810   31.2787   40.6721 H   0  0  0  0  0  0  0  0  0  0  0  0
   59.2850   34.2180   44.7890 C   0  0  0  0  0  0  0  0  0  0  0  0
   59.8195   34.5344   43.8811 H   0  0  0  0  0  0  0  0  0  0  0  0
   59.7960   34.5540   46.0460 C   0  0  0  0  0  0  0  0  0  0  0  0
   60.7302   35.1297   46.1219 H   0  0  0  0  0  0  0  0  0  0  0  0
   61.7200   32.2690   50.3790 C   0  0  0  0  0  0  0  0  0  0  0  0
   62.0511   32.9823   51.1482 H   0  0  0  0  0  0  0  0  0  0  0  0
  1  2  1  0
  2  3  2  0
  3  4  1  0
  3  5  1  0
  5  6  1  0
  6  7  1  0
  6  8  1  0
  6  9  1  0
  9 10  2  0
 10 11  1  0
 11 12  1  0
 12 13  2  0
 12 14  1  0
 14 15  1  0
 14 16  2  0
 16 17  1  0
 17 18  1  0
 17 19  1  0
 17 20  1  0
 16 21  1  0
 21 22  1  0
  5 23  2  0
 23 24  1  0
 23 25  1  0
 25 26  1  0
 26 27  1  0
 26 28  1  0
 26 29  1  0
 29 30  1  0
 30 31  2  0
 31 32  1  0
 31 33  1  0
 33 34  1  0
 33 35  2  0
 35 36  1  0
 36 37  1  0
 37 38  1  0
 37 39  1  0
 37 40  1  0
 40 41  1  0
 40 42  1  0
 40 43  1  0
 35 44  1  0
 44 45  1  0
 44 46  2  0
 46 47  1  0
 25 48  2  0
 48 49  1  0
 48  2  1  0
 21 10  1  0
 46 30  1  0
M  CHG  1  11  -1
M  END
>  <UniqueID>  (58) 
48

>  <SMILES>  (58) 
CCOc1ccc(OCc2cccc(C/N=c3/[n-]c(=O)cc(C)[nH]3)c2)cc1

>  <Energy>  (58) 
47.14998878147955

>  <Genealogy>  (58) 
CCOc1ccc(OCc2cccc(CN=c3[n-]c(=O)cc(C)[nH]3)c2)cc1 (protonated)
CCOc1ccc(OCc2cccc(C/N=c3/[n-]c(=O)cc(C)[nH]3)c2)cc1 (cis-trans isomerization)
CCOc1ccc(OCc2cccc(C/N=c3/[n-]c(=O)cc(C)[nH]3)c2)cc1 (3D coordinates assigned)
CCOc1ccc(OCc2cccc(C/N=c3/[n-]c(=O)cc(C)[nH]3)c2)cc1 (optimized conformer: 47.14998878147955 kcal/mol)

>  <smiles>  (58) 
CCOc1ccc(OCc2cccc(CN=c3[nH]c(C)cc(=O)[nH]3)c2)cc1

>  <score_type>  (58) 
oracle

>  <origin>  (58) 
adg

>  <m_score__min__energy>  (58) 
-9.8699999999999992

>  <m_primary>  (58) 
energy

$$$$
58:0
     RDKit          3D

 24 25  0  0  0  0  0  0  0  0999 V2000
   55.7020   28.8730   44.8680 N   0  0  0  0  0  0  0  0  0  0  0  0
   56.3560   29.9790   44.2370 C   0  0  0  0  0  0  0  0  0  0  0  0
   56.3360   30.1060   42.8430 C   0  0  0  0  0  0  0  0  0  0  0  0
   56.9760   31.1830   42.2270 C   0  0  0  0  0  0  0  0  0  0  0  0
   57.6410   32.1400   42.9990 C   0  0  0  0  0  0  0  0  0  0  0  0
   57.6710   32.0300   44.4010 C   0  0  0  0  0  0  0  0  0  0  0  0
   58.3760   33.0460   45.2230 C   0  0  0  0  0  0  0  0  0  0  0  0
   58.5360   32.8600   46.6100 C   0  0  0  0  0  0  0  0  0  0  0  0
   59.1990   33.8180   47.3810 C   0  0  0  0  0  0  0  0  0  0  0  0
   59.7090   34.9710   46.7800 C   0  0  0  0  0  0  0  0  0  0  0  0
   59.5570   35.1680   45.4060 C   0  0  0  0  0  0  0  0  0  0  0  0
   58.8940   34.2130   44.6290 C   0  0  0  0  0  0  0  0  0  0  0  0
   57.0220   30.9400   45.0130 C   0  0  0  0  0  0  0  0  0  0  0  0
   56.1510   27.9310   44.8930 H   0  0  0  0  0  0  0  0  0  0  0  0
   54.7660   28.9900   45.3160 H   0  0  0  0  0  0  0  0  0  0  0  0
   55.8145   29.3551   42.2313 H   0  0  0  0  0  0  0  0  0  0  0  0
   56.9569   31.2788   41.1313 H   0  0  0  0  0  0  0  0  0  0  0  0
   58.1444   32.9851   42.5066 H   0  0  0  0  0  0  0  0  0  0  0  0
   58.1362   31.9543   47.0894 H   0  0  0  0  0  0  0  0  0  0  0  0
   59.3196   33.6639   48.4635 H   0  0  0  0  0  0  0  0  0  0  0  0
   60.2305   35.7240   47.3891 H   0  0  0  0  0  0  0  0  0  0  0  0
   59.9596   36.0763   44.9339 H   0  0  0  0  0  0  0  0  0  0  0  0
   58.7764   34.3743   43.5473 H   0  0  0  0  0  0  0  0  0  0  0  0
   57.0373   30.8412   46.1084 H   0  0  0  0  0  0  0  0  0  0  0  0
  1  2  1  0
  2  3  2  0
  3  4  1  0
  4  5  2  0
  5  6  1  0
  6  7  1  0
  7  8  2  0
  8  9  1  0
  9 10  2  0
 10 11  1  0
 11 12  2  0
  6 13  2  0
 13  2  1  0
 12  7  1  0
  1 14  1  0
  1 15  1  0
  3 16  1  0
  4 17  1  0
  5 18  1  0
  8 19  1  0
  9 20  1  0
 10 21  1  0
 11 22  1  0
 12 23  1  0
 13 24  1  0
M  END
>  <UniqueID>  (59) 
49

>  <SMILES>  (59) 
Nc1cccc(-c2ccccc2)c1

>  <Energy>  (59) 
29.03143496412514

>  <Genealogy>  (59) 
Nc1cccc(-c2ccccc2)c1 (3D coordinates assigned)
Nc1cccc(-c2ccccc2)c1 (optimized conformer: 29.03143496412514 kcal/mol)

>  <smiles>  (59) 
Nc1cccc(-c2ccccc2)c1

>  <score_type>  (59) 
oracle

>  <origin>  (59) 
adg

>  <m_score__min__energy>  (59) 
-6.9000000000000004

>  <m_primary>  (59) 
energy

$$$$
59:0
     RDKit          3D

 51 55  0  0  0  0  0  0  0  0999 V2000
   57.3950   32.5240   42.0040 O   0  0  0  0  0  0  0  0  0  0  0  0
   57.8780   32.4230   43.1800 C   0  0  0  0  0  0  0  0  0  0  0  0
   58.5170   33.4440   43.7760 N   0  0  0  0  0  0  0  0  0  0  0  0
   59.0470   33.4090   45.0050 C   0  0  0  0  0  0  0  0  0  0  0  0
   59.7470   34.4970   45.6810 C   0  0  0  0  0  0  0  0  0  0  0  0
   60.2430   34.2240   47.0320 C   0  0  0  0  0  0  0  0  0  0  0  0
   59.3250   34.3000   48.0770 C   0  0  0  0  0  0  0  0  0  0  0  0
   59.6390   34.0420   49.3780 C   0  0  0  0  0  0  0  0  0  0  0  0
   60.9310   33.6870   49.6970 C   0  0  0  0  0  0  0  0  0  0  0  0
   61.8630   33.6040   48.6790 C   0  0  0  0  0  0  0  0  0  0  0  0
   63.1500   33.2510   49.0400 C   0  0  0  0  0  0  0  0  0  0  0  0
   64.1180   33.1660   48.0410 C   0  0  0  0  0  0  0  0  0  0  0  0
   63.7490   33.4370   46.7400 C   0  0  0  0  0  0  0  0  0  0  0  0
   62.4700   33.7900   46.3730 C   0  0  0  0  0  0  0  0  0  0  0  0
   61.5210   33.8690   47.3660 C   0  0  0  0  0  0  0  0  0  0  0  0
   58.9130   32.2370   45.6800 N   0  0  0  0  0  0  0  0  0  0  0  0
   58.2920   31.1640   45.1680 C   0  0  0  0  0  0  0  0  0  0  0  0
   58.1880   29.9890   45.9070 C   0  0  0  0  0  0  0  0  0  0  0  0
   57.5500   28.8580   45.4000 C   0  0  0  0  0  0  0  0  0  0  0  0
   57.4450   27.6490   46.1340 N   0  0  0  0  0  0  0  0  0  0  0  0
   56.3540   26.6990   45.9720 C   0  0  0  0  0  0  0  0  0  0  0  0
   56.8610   25.3010   45.7400 C   0  0  0  0  0  0  0  0  0  0  0  0
   57.8970   24.8830   46.7360 C   0  0  0  0  0  0  0  0  0  0  0  0
   59.0050   25.8820   46.7470 C   0  0  0  0  0  0  0  0  0  0  0  0
   58.4550   27.2440   47.1260 C   0  0  0  0  0  0  0  0  0  0  0  0
   57.0340   28.9800   44.1300 C   0  0  0  0  0  0  0  0  0  0  0  0
   57.1390   30.1580   43.3890 C   0  0  0  0  0  0  0  0  0  0  0  0
   57.7650   31.2530   43.8990 C   0  0  0  0  0  0  0  0  0  0  0  0
   60.6108   34.7743   45.0590 H   0  0  0  0  0  0  0  0  0  0  0  0
   58.9950   35.2902   45.8051 H   0  0  0  0  0  0  0  0  0  0  0  0
   58.2893   34.5840   47.8390 H   0  0  0  0  0  0  0  0  0  0  0  0
   58.8713   34.1163   50.1623 H   0  0  0  0  0  0  0  0  0  0  0  0
   61.2150   33.4743   50.7382 H   0  0  0  0  0  0  0  0  0  0  0  0
   63.4037   33.0424   50.0898 H   0  0  0  0  0  0  0  0  0  0  0  0
   65.1542   32.8887   48.2849 H   0  0  0  0  0  0  0  0  0  0  0  0
   64.5164   33.3675   45.9550 H   0  0  0  0  0  0  0  0  0  0  0  0
   62.2160   34.0013   45.3238 H   0  0  0  0  0  0  0  0  0  0  0  0
   59.3150   32.1590   46.6560 H   0  0  0  0  0  0  0  0  0  0  0  0
   58.6206   29.9519   46.9177 H   0  0  0  0  0  0  0  0  0  0  0  0
   55.7363   26.7074   46.8821 H   0  0  0  0  0  0  0  0  0  0  0  0
   55.7658   27.0001   45.0926 H   0  0  0  0  0  0  0  0  0  0  0  0
   56.0118   24.6048   45.8041 H   0  0  0  0  0  0  0  0  0  0  0  0
   57.3326   25.2822   44.7464 H   0  0  0  0  0  0  0  0  0  0  0  0
   57.4430   24.8274   47.7364 H   0  0  0  0  0  0  0  0  0  0  0  0
   58.2952   23.8955   46.4597 H   0  0  0  0  0  0  0  0  0  0  0  0
   59.7662   25.5771   47.4802 H   0  0  0  0  0  0  0  0  0  0  0  0
   59.4597   25.9359   45.7468 H   0  0  0  0  0  0  0  0  0  0  0  0
   57.9918   27.1899   48.1223 H   0  0  0  0  0  0  0  0  0  0  0  0
   59.2714   27.9809   47.1456 H   0  0  0  0  0  0  0  0  0  0  0  0
   56.5196   28.1169   43.6823 H   0  0  0  0  0  0  0  0  0  0  0  0
   56.7092   30.2018   42.3774 H   0  0  0  0  0  0  0  0  0  0  0  0
  1  2  2  0
  2  3  1  0
  3  4  2  0
  4  5  1  0
  5  6  1  0
  6  7  2  0
  7  8  1  0
  8  9  2  0
  9 10  1  0
 10 11  2  0
 11 12  1  0
 12 13  2  0
 13 14  1  0
 14 15  2  0
  4 16  1  0
 16 17  1  0
 17 18  2  0
 18 19  1  0
 19 20  1  0
 20 21  1  0
 21 22  1  0
 22 23  1  0
 23 24  1  0
 24 25  1  0
 19 26  2  0
 26 27  1  0
 27 28  2  0
 28  2  1  0
 15  6  1  0
 28 17  1  0
 15 10  1  0
 25 20  1  0
  5 29  1  0
  5 30  1  0
  7 31  1  0
  8 32  1  0
  9 33  1  0
 11 34  1  0
 12 35  1  0
 13 36  1  0
 14 37  1  0
 16 38  1  0
 18 39  1  0
 21 40  1  0
 21 41  1  0
 22 42  1  0
 22 43  1  0
 23 44  1  0
 23 45  1  0
 24 46  1  0
 24 47  1  0
 25 48  1  0
 25 49  1  0
 26 50  1  0
 27 51  1  0
M  END
>  <smiles>  (60) 
O=c1nc(Cc2cccc3ccccc23)[nH]c2cc(N3CCCCC3)ccc12

>  <score_type>  (60) 
oracle

>  <origin>  (60) 
adg

>  <m_score__min__energy>  (60) 
-9.5999999999999996

>  <m_primary>  (60) 
energy

$$$$
60:0
     RDKit          3D

 40 42  0  0  0  0  0  0  0  0999 V2000
   55.1780   29.3820   44.8080 O   0  0  0  0  0  0  0  0  0  0  0  0
   56.3940   29.5230   44.5020 C   0  0  0  0  0  0  0  0  0  0  0  0
   56.7530   30.6160   43.5280 C   0  0  0  0  0  0  0  0  0  0  0  0
   57.4520   31.7580   44.2190 C   0  0  0  0  0  0  0  0  0  0  0  0
   57.4000   31.8850   45.6190 C   0  0  0  0  0  0  0  0  0  0  0  0
   58.0480   32.9490   46.2550 C   0  0  0  0  0  0  0  0  0  0  0  0
   58.7430   33.8980   45.5010 C   0  0  0  0  0  0  0  0  0  0  0  0
   59.6280   35.3500   46.3730 Br  0  0  0  0  0  0  0  0  0  0  0  0
   58.7870   33.7880   44.1080 C   0  0  0  0  0  0  0  0  0  0  0  0
   58.1410   32.7260   43.4680 C   0  0  0  0  0  0  0  0  0  0  0  0
   57.4040   28.5940   45.0830 C   0  0  0  0  0  0  0  0  0  0  0  0
   57.8140   27.4630   44.3640 C   0  0  0  0  0  0  0  0  0  0  0  0
   58.7560   26.5900   44.9000 C   0  0  0  0  0  0  0  0  0  0  0  0
   59.2960   26.8460   46.1600 C   0  0  0  0  0  0  0  0  0  0  0  0
   60.1450   26.0420   46.6350 O   0  0  0  0  0  0  0  0  0  0  0  0
   58.9080   27.9560   46.8680 N   0  0  0  0  0  0  0  0  0  0  0  0
   59.4470   28.2240   48.2120 C   0  0  0  0  0  0  0  0  0  0  0  0
   59.7700   29.6870   48.3610 C   0  0  0  0  0  0  0  0  0  0  0  0
   59.0290   30.4930   49.2410 C   0  0  0  0  0  0  0  0  0  0  0  0
   59.3070   31.8590   49.3490 C   0  0  0  0  0  0  0  0  0  0  0  0
   60.3200   32.4310   48.5750 C   0  0  0  0  0  0  0  0  0  0  0  0
   61.0570   31.6380   47.6910 C   0  0  0  0  0  0  0  0  0  0  0  0
   62.0370   32.1950   46.9380 F   0  0  0  0  0  0  0  0  0  0  0  0
   60.7820   30.2710   47.5800 C   0  0  0  0  0  0  0  0  0  0  0  0
   57.9710   28.8120   46.3530 C   0  0  0  0  0  0  0  0  0  0  0  0
   57.4187   30.2032   42.7557 H   0  0  0  0  0  0  0  0  0  0  0  0
   55.8249   30.9985   43.0782 H   0  0  0  0  0  0  0  0  0  0  0  0
   56.8475   31.1445   46.2160 H   0  0  0  0  0  0  0  0  0  0  0  0
   58.0104   33.0388   47.3507 H   0  0  0  0  0  0  0  0  0  0  0  0
   59.3306   34.5380   43.5147 H   0  0  0  0  0  0  0  0  0  0  0  0
   58.1721   32.6476   42.3712 H   0  0  0  0  0  0  0  0  0  0  0  0
   57.3884   27.2640   43.3694 H   0  0  0  0  0  0  0  0  0  0  0  0
   59.0730   25.7025   44.3326 H   0  0  0  0  0  0  0  0  0  0  0  0
   58.6995   27.9383   48.9668 H   0  0  0  0  0  0  0  0  0  0  0  0
   60.3668   27.6374   48.3532 H   0  0  0  0  0  0  0  0  0  0  0  0
   58.2267   30.0477   49.8477 H   0  0  0  0  0  0  0  0  0  0  0  0
   58.7275   32.4842   50.0442 H   0  0  0  0  0  0  0  0  0  0  0  0
   60.5375   33.5058   48.6614 H   0  0  0  0  0  0  0  0  0  0  0  0
   61.3599   29.6509   46.8789 H   0  0  0  0  0  0  0  0  0  0  0  0
   57.6558   29.6856   46.9424 H   0  0  0  0  0  0  0  0  0  0  0  0
  1  2  2  0
  2  3  1  0
  3  4  1  0
  4  5  2  0
  5  6  1  0
  6  7  2  0
  7  8  1  0
  7  9  1  0
  9 10  2  0
  2 11  1  0
 11 12  1  0
 12 13  2  0
 13 14  1  0
 14 15  2  0
 14 16  1  0
 16 17  1  0
 17 18  1  0
 18 19  2  0
 19 20  1  0
 20 21  2  0
 21 22  1  0
 22 23  1  0
 22 24  2  0
 16 25  1  0
 10  4  1  0
 25 11  2  0
 24 18  1  0
  3 26  1  0
  3 27  1  0
  5 28  1  0
  6 29  1  0
  9 30  1  0
 10 31  1  0
 12 32  1  0
 13 33  1  0
 17 34  1  0
 17 35  1  0
 19 36  1  0
 20 37  1  0
 21 38  1  0
 24 39  1  0
 25 40  1  0
M  END
>  <UniqueID>  (61) 
50

>  <SMILES>  (61) 
O=C(Cc1ccc(Br)cc1)c1ccc(=O)n(Cc2cccc(F)c2)c1

>  <Energy>  (61) 
44.51012475691261

>  <Genealogy>  (61) 
O=C(Cc1ccc(Br)cc1)c1ccc(=O)n(Cc2cccc(F)c2)c1 (3D coordinates assigned)
O=C(Cc1ccc(Br)cc1)c1ccc(=O)n(Cc2cccc(F)c2)c1 (optimized conformer: 44.51012475691261 kcal/mol)

>  <smiles>  (61) 
O=C(Cc1ccc(Br)cc1)c1ccc(=O)n(Cc2cccc(F)c2)c1

>  <score_type>  (61) 
oracle

>  <origin>  (61) 
adg

>  <m_score__min__energy>  (61) 
-8.9499999999999993

>  <m_primary>  (61) 
energy

$$$$
61:0
     RDKit          3D

 31 33  0  0  0  0  0  0  0  0999 V2000
   55.8670   28.5900   45.2480 N   0  0  0  0  0  0  0  0  0  0  0  0
   56.2710   27.3700   45.8810 C   0  0  0  0  0  0  0  0  0  0  0  0
   55.4250   26.3080   45.8350 N   0  0  0  0  0  0  0  0  0  0  0  0
   55.7580   25.1100   46.3740 C   0  0  0  0  0  0  0  0  0  0  0  0
   54.9510   24.1480   46.3120 O   0  0  0  0  0  0  0  0  0  0  0  0
   56.9590   24.9500   46.9790 N   0  0  0  0  0  0  0  0  0  0  0  0
   57.8480   25.9720   47.0640 C   0  0  0  0  0  0  0  0  0  0  0  0
   58.9380   25.7830   47.6630 O   0  0  0  0  0  0  0  0  0  0  0  0
   57.5330   27.2310   46.5070 C   0  0  0  0  0  0  0  0  0  0  0  0
   58.4750   28.3780   46.6220 C   0  0  0  0  0  0  0  0  0  0  0  0
   58.0370   29.4920   47.0150 O   0  0  0  0  0  0  0  0  0  0  0  0
   59.9520   28.2440   46.3580 C   0  0  0  0  0  0  0  0  0  0  0  0
   60.4490   28.9660   44.7530 S   0  0  0  0  0  0  0  0  0  0  0  0
   58.9960   30.0090   44.6000 C   0  0  0  0  0  0  0  0  0  0  0  0
   57.9330   29.7280   43.8180 N   0  0  0  0  0  0  0  0  0  0  0  0
   57.0490   30.7140   43.9340 N   0  0  0  0  0  0  0  0  0  0  0  0
   57.6050   31.5890   44.7970 C   0  0  0  0  0  0  0  0  0  0  0  0
   57.0550   32.7900   45.2350 C   0  0  0  0  0  0  0  0  0  0  0  0
   57.8130   33.5560   46.1400 C   0  0  0  0  0  0  0  0  0  0  0  0
   59.0790   33.1070   46.5710 C   0  0  0  0  0  0  0  0  0  0  0  0
   59.5800   31.8860   46.0920 C   0  0  0  0  0  0  0  0  0  0  0  0
   58.8110   31.1840   45.2220 N   0  0  0  0  0  0  0  0  0  0  0  0
   55.1280   28.6250   44.5130 H   0  0  0  0  0  0  0  0  0  0  0  0
   56.2510   29.5000   45.5890 H   0  0  0  0  0  0  0  0  0  0  0  0
   60.5012   28.7581   47.1605 H   0  0  0  0  0  0  0  0  0  0  0  0
   60.1885   27.1702   46.3273 H   0  0  0  0  0  0  0  0  0  0  0  0
   57.8120   28.8920   43.2050 H   0  0  0  0  0  0  0  0  0  0  0  0
   56.0672   33.1271   44.8877 H   0  0  0  0  0  0  0  0  0  0  0  0
   57.4157   34.5112   46.5138 H   0  0  0  0  0  0  0  0  0  0  0  0
   59.6694   33.7092   47.2773 H   0  0  0  0  0  0  0  0  0  0  0  0
   60.5635   31.5109   46.4115 H   0  0  0  0  0  0  0  0  0  0  0  0
  1  2  1  0
  2  3  1  0
  3  4  1  0
  4  5  2  0
  4  6  1  0
  6  7  1  0
  7  8  2  0
  7  9  1  0
  9 10  1  0
 10 11  2  0
 10 12  1  0
 12 13  1  0
 13 14  1  0
 14 15  2  0
 15 16  1  0
 16 17  2  0
 17 18  1  0
 18 19  2  0
 19 20  1  0
 20 21  2  0
 21 22  1  0
  9  2  2  0
 22 14  1  0
 22 17  1  0
  1 23  1  0
  1 24  1  0
 12 25  1  0
 12 26  1  0
 15 27  1  0
 18 28  1  0
 19 29  1  0
 20 30  1  0
 21 31  1  0
M  CHG  3   3  -1   6  -1  15   1
M  END
>  <UniqueID>  (62) 
51

>  <SMILES>  (62) 
Nc1[n-]c(=O)[n-]c(=O)c1C(=O)CSc1[nH+]nc2ccccn12

>  <Energy>  (62) 
78.80334056640162

>  <Genealogy>  (62) 
Nc1[n-]c(=O)[n-]c(=O)c1C(=O)CSc1[nH+]nc2ccccn12 (protonated)
Nc1[n-]c(=O)[n-]c(=O)c1C(=O)CSc1[nH+]nc2ccccn12 (3D coordinates assigned)
Nc1[n-]c(=O)[n-]c(=O)c1C(=O)CSc1[nH+]nc2ccccn12 (optimized conformer: 78.80334056640162 kcal/mol)

>  <smiles>  (62) 
Nc1[nH]c(=O)[nH]c(=O)c1C(=O)CSc1nnc2ccccn12

>  <score_type>  (62) 
oracle

>  <origin>  (62) 
adg

>  <m_score__min__energy>  (62) 
-10.279999999999999

>  <m_primary>  (62) 
energy

$$$$
62:0
     RDKit          3D

 38 40  0  0  0  0  0  0  0  0999 V2000
   57.1570   26.5480   46.7450 O   0  0  0  0  0  0  0  0  0  0  0  0
   57.9190   27.5290   46.5310 C   0  0  0  0  0  0  0  0  0  0  0  0
   59.3980   27.3160   46.4740 C   0  0  0  0  0  0  0  0  0  0  0  0
   60.3130   28.8780   46.7490 S   0  0  0  0  0  0  0  0  0  0  0  0
   60.1670   28.8670   48.5460 C   0  0  0  0  0  0  0  0  0  0  0  0
   60.7350   27.8350   49.2290 N   0  0  0  0  0  0  0  0  0  0  0  0
   60.6940   27.7520   50.5840 C   0  0  0  0  0  0  0  0  0  0  0  0
   60.0730   28.7540   51.3240 C   0  0  0  0  0  0  0  0  0  0  0  0
   59.5100   29.8440   50.6620 C   0  0  0  0  0  0  0  0  0  0  0  0
   59.5430   29.9180   49.2600 C   0  0  0  0  0  0  0  0  0  0  0  0
   59.0230   31.1350   48.5990 C   0  0  0  0  0  0  0  0  0  0  0  0
   58.7770   32.1560   49.2970 O   0  0  0  0  0  0  0  0  0  0  0  0
   58.7260   31.1420   47.1960 N   0  0  0  0  0  0  0  0  0  0  0  0
   58.6570   32.3430   46.4060 C   0  0  0  0  0  0  0  0  0  0  0  0
   57.4570   32.7070   45.7680 C   0  0  0  0  0  0  0  0  0  0  0  0
   57.3790   33.8880   45.0260 C   0  0  0  0  0  0  0  0  0  0  0  0
   58.4940   34.7230   44.9200 C   0  0  0  0  0  0  0  0  0  0  0  0
   59.6860   34.3790   45.5590 C   0  0  0  0  0  0  0  0  0  0  0  0
   59.7740   33.1990   46.3060 C   0  0  0  0  0  0  0  0  0  0  0  0
   61.3070   32.8050   47.0740 Cl  0  0  0  0  0  0  0  0  0  0  0  0
   57.3930   28.8450   46.2980 N   0  0  0  0  0  0  0  0  0  0  0  0
   56.8570   29.2720   45.1940 C   0  0  0  0  0  0  0  0  0  0  0  0
   55.5350   29.2230   44.9180 N   0  0  0  0  0  0  0  0  0  0  0  0
   55.2690   29.7150   43.6790 C   0  0  0  0  0  0  0  0  0  0  0  0
   56.3810   30.1530   42.9670 C   0  0  0  0  0  0  0  0  0  0  0  0
   57.7440   29.9150   43.9250 S   0  0  0  0  0  0  0  0  0  0  0  0
   59.6850   26.5923   47.2511 H   0  0  0  0  0  0  0  0  0  0  0  0
   59.6536   26.9383   45.4730 H   0  0  0  0  0  0  0  0  0  0  0  0
   61.1515   26.8930   51.0966 H   0  0  0  0  0  0  0  0  0  0  0  0
   60.0269   28.6864   52.4210 H   0  0  0  0  0  0  0  0  0  0  0  0
   59.0371   30.6508   51.2412 H   0  0  0  0  0  0  0  0  0  0  0  0
   58.4780   30.2330   46.7530 H   0  0  0  0  0  0  0  0  0  0  0  0
   56.5738   32.0569   45.8541 H   0  0  0  0  0  0  0  0  0  0  0  0
   56.4387   34.1608   44.5247 H   0  0  0  0  0  0  0  0  0  0  0  0
   58.4324   35.6513   44.3331 H   0  0  0  0  0  0  0  0  0  0  0  0
   60.5617   35.0394   45.4750 H   0  0  0  0  0  0  0  0  0  0  0  0
   54.2492   29.7633   43.2694 H   0  0  0  0  0  0  0  0  0  0  0  0
   56.3711   30.5807   41.9536 H   0  0  0  0  0  0  0  0  0  0  0  0
  1  2  2  0
  2  3  1  0
  3  4  1  0
  4  5  1  0
  5  6  2  0
  6  7  1  0
  7  8  2  0
  8  9  1  0
  9 10  2  0
 10 11  1  0
 11 12  2  0
 11 13  1  0
 13 14  1  0
 14 15  2  0
 15 16  1  0
 16 17  2  0
 17 18  1  0
 18 19  2  0
 19 20  1  0
  2 21  1  0
 21 22  2  3
 22 23  1  0
 23 24  1  0
 24 25  2  0
 25 26  1  0
 10  5  1  0
 19 14  1  0
 26 22  1  0
  3 27  1  0
  3 28  1  0
  7 29  1  0
  8 30  1  0
  9 31  1  0
 13 32  1  0
 15 33  1  0
 16 34  1  0
 17 35  1  0
 18 36  1  0
 24 37  1  0
 25 38  1  0
M  CHG  1  23  -1
M  END
>  <UniqueID>  (63) 
52

>  <SMILES>  (63) 
O=C(CSc1ncccc1C(=O)Nc1ccccc1Cl)N=c1[n-]ccs1

>  <Energy>  (63) 
77.85151381650395

>  <Genealogy>  (63) 
O=C(CSc1ncccc1C(=O)Nc1ccccc1Cl)N=c1[n-]ccs1 (protonated)
O=C(CSc1ncccc1C(=O)Nc1ccccc1Cl)N=c1[n-]ccs1 (3D coordinates assigned)
O=C(CSc1ncccc1C(=O)Nc1ccccc1Cl)N=c1[n-]ccs1 (optimized conformer: 77.85151381650395 kcal/mol)

>  <smiles>  (63) 
O=C(CSc1ncccc1C(=O)Nc1ccccc1Cl)N=c1[nH]ccs1

>  <score_type>  (63) 
oracle

>  <origin>  (63) 
adg

>  <m_score__min__energy>  (63) 
-10.210000000000001

>  <m_primary>  (63) 
energy

$$$$
63:0
     RDKit          3D

 27 28  0  0  0  0  0  0  0  0999 V2000
   62.6280   34.0620   49.0890 N   0  0  0  0  0  0  0  0  0  0  0  0
   61.8210   33.7230   48.3320 C   0  0  0  0  0  0  0  0  0  0  0  0
   60.8170   33.3020   47.3900 C   0  0  0  0  0  0  0  0  0  0  0  0
   60.1750   34.2470   46.5780 C   0  0  0  0  0  0  0  0  0  0  0  0
   59.2010   33.8370   45.6630 C   0  0  0  0  0  0  0  0  0  0  0  0
   58.8640   32.4820   45.5500 C   0  0  0  0  0  0  0  0  0  0  0  0
   57.6510   31.9750   44.3790 S   0  0  0  0  0  0  0  0  0  0  0  0
   56.2720   32.0380   44.9780 O   0  0  0  0  0  0  0  0  0  0  0  0
   57.7110   32.8960   43.1940 O   0  0  0  0  0  0  0  0  0  0  0  0
   57.9700   30.3500   43.8590 N   0  0  0  0  0  0  0  0  0  0  0  0
   57.6090   29.1790   44.6200 C   0  0  0  0  0  0  0  0  0  0  0  0
   58.5810   28.2820   45.0990 C   0  0  0  0  0  0  0  0  0  0  0  0
   58.2000   27.1530   45.8250 C   0  0  0  0  0  0  0  0  0  0  0  0
   59.4100   26.0280   46.4160 Cl  0  0  0  0  0  0  0  0  0  0  0  0
   56.8460   26.9280   46.0790 C   0  0  0  0  0  0  0  0  0  0  0  0
   55.9150   27.8050   45.6210 N   0  0  0  0  0  0  0  0  0  0  0  0
   56.2570   28.9110   44.9080 C   0  0  0  0  0  0  0  0  0  0  0  0
   55.3490   29.6870   44.5060 O   0  0  0  0  0  0  0  0  0  0  0  0
   59.5040   31.5380   46.3670 C   0  0  0  0  0  0  0  0  0  0  0  0
   60.4770   31.9470   47.2830 C   0  0  0  0  0  0  0  0  0  0  0  0
   60.4378   35.3119   46.6608 H   0  0  0  0  0  0  0  0  0  0  0  0
   58.6971   34.5814   45.0291 H   0  0  0  0  0  0  0  0  0  0  0  0
   58.5240   30.2420   42.9810 H   0  0  0  0  0  0  0  0  0  0  0  0
   59.6462   28.4715   44.9003 H   0  0  0  0  0  0  0  0  0  0  0  0
   56.5330   26.0412   46.6496 H   0  0  0  0  0  0  0  0  0  0  0  0
   59.2393   30.4734   46.2864 H   0  0  0  0  0  0  0  0  0  0  0  0
   60.9769   31.2036   47.9213 H   0  0  0  0  0  0  0  0  0  0  0  0
  1  2  3  0
  2  3  1  0
  3  4  2  0
  4  5  1  0
  5  6  2  0
  6  7  1  0
  7  8  2  0
  7  9  2  0
  7 10  1  0
 10 11  1  0
 11 12  2  0
 12 13  1  0
 13 14  1  0
 13 15  2  0
 15 16  1  0
 16 17  1  0
 17 18  2  0
  6 19  1  0
 19 20  2  0
 20  3  1  0
 17 11  1  0
  4 21  1  0
  5 22  1  0
 10 23  1  0
 12 24  1  0
 15 25  1  0
 19 26  1  0
 20 27  1  0
M  CHG  1  16  -1
M  END
>  <UniqueID>  (64) 
53

>  <SMILES>  (64) 
N#Cc1ccc(S(=O)(=O)Nc2cc(Cl)c[n-]c2=O)cc1

>  <Energy>  (64) 
31.210187159037975

>  <Genealogy>  (64) 
N#Cc1ccc(S(=O)(=O)Nc2cc(Cl)c[n-]c2=O)cc1 (protonated)
N#Cc1ccc(S(=O)(=O)Nc2cc(Cl)c[n-]c2=O)cc1 (3D coordinates assigned)
N#Cc1ccc(S(=O)(=O)Nc2cc(Cl)c[n-]c2=O)cc1 (optimized conformer: 31.210187159037975 kcal/mol)

>  <smiles>  (64) 
N#Cc1ccc(S(=O)(=O)Nc2cc(Cl)c[nH]c2=O)cc1

>  <score_type>  (64) 
oracle

>  <origin>  (64) 
adg

>  <m_score__min__energy>  (64) 
-9.8300000000000001

>  <m_primary>  (64) 
energy

$$$$
64:0
     RDKit          3D

 39 41  0  0  0  0  0  0  0  0999 V2000
   59.3498   35.2099   43.8051 H   0  0  0  0  0  0  0  0  0  0  0  0
   59.1130   34.4670   44.5810 C   0  0  0  0  0  0  0  0  0  0  0  0
   58.0340   33.6560   44.4450 N   0  0  0  0  0  0  0  0  0  0  0  0
   57.7090   32.7340   45.3950 C   0  0  0  0  0  0  0  0  0  0  0  0
   56.6660   31.9720   45.2450 N   0  0  0  0  0  0  0  0  0  0  0  0
   56.6530   30.5310   44.2780 S   0  0  0  0  0  0  0  0  0  0  0  0
   56.9920   30.8880   42.8580 O   0  0  0  0  0  0  0  0  0  0  0  0
   55.2780   29.9270   44.3190 O   0  0  0  0  0  0  0  0  0  0  0  0
   57.8490   29.3880   44.8820 C   0  0  0  0  0  0  0  0  0  0  0  0
   59.2150   29.6770   44.7890 C   0  0  0  0  0  0  0  0  0  0  0  0
   59.5452   30.6270   44.3435 H   0  0  0  0  0  0  0  0  0  0  0  0
   60.1610   28.7630   45.2600 C   0  0  0  0  0  0  0  0  0  0  0  0
   61.2329   28.9974   45.1826 H   0  0  0  0  0  0  0  0  0  0  0  0
   59.7520   27.5460   45.8320 C   0  0  0  0  0  0  0  0  0  0  0  0
   60.7810   26.5710   46.3320 C   0  0  0  0  0  0  0  0  0  0  0  0
   60.7816   26.5704   47.4320 H   0  0  0  0  0  0  0  0  0  0  0  0
   60.5395   25.5626   45.9649 H   0  0  0  0  0  0  0  0  0  0  0  0
   61.7750   26.8665   45.9649 H   0  0  0  0  0  0  0  0  0  0  0  0
   58.3760   27.2590   45.9300 C   0  0  0  0  0  0  0  0  0  0  0  0
   57.7370   25.6210   46.6980 Br  0  0  0  0  0  0  0  0  0  0  0  0
   57.4340   28.1810   45.4580 C   0  0  0  0  0  0  0  0  0  0  0  0
   56.3605   27.9557   45.5402 H   0  0  0  0  0  0  0  0  0  0  0  0
   58.5070   32.6290   46.5500 C   0  0  0  0  0  0  0  0  0  0  0  0
   58.2000   31.7430   47.4610 N   0  0  0  0  0  0  0  0  0  0  0  0
   59.0800   30.8020   48.0910 C   0  0  0  0  0  0  0  0  0  0  0  0
   60.3630   31.1820   48.5240 C   0  0  0  0  0  0  0  0  0  0  0  0
   60.7241   32.2043   48.3382 H   0  0  0  0  0  0  0  0  0  0  0  0
   61.1810   30.2640   49.1900 C   0  0  0  0  0  0  0  0  0  0  0  0
   62.1915   30.5592   49.5090 H   0  0  0  0  0  0  0  0  0  0  0  0
   60.7160   28.9710   49.4510 C   0  0  0  0  0  0  0  0  0  0  0  0
   61.5080   28.0830   50.0990 F   0  0  0  0  0  0  0  0  0  0  0  0
   59.4280   28.6000   49.0540 C   0  0  0  0  0  0  0  0  0  0  0  0
   59.0586   27.5859   49.2662 H   0  0  0  0  0  0  0  0  0  0  0  0
   58.6080   29.5170   48.3870 C   0  0  0  0  0  0  0  0  0  0  0  0
   57.5881   29.2273   48.0938 H   0  0  0  0  0  0  0  0  0  0  0  0
   59.6100   33.4350   46.6680 N   0  0  0  0  0  0  0  0  0  0  0  0
   60.2650   33.3480   47.4740 H   0  0  0  0  0  0  0  0  0  0  0  0
   59.9180   34.3510   45.7110 C   0  0  0  0  0  0  0  0  0  0  0  0
   60.7998   34.9978   45.8293 H   0  0  0  0  0  0  0  0  0  0  0  0
  1  2  1  0
  2  3  1  0
  3  4  1  0
  4  5  2  0
  5  6  1  0
  6  7  2  0
  6  8  2  0
  6  9  1  0
  9 10  2  0
 10 11  1  0
 10 12  1  0
 12 13  1  0
 12 14  2  0
 14 15  1  0
 15 16  1  0
 15 17  1  0
 15 18  1  0
 14 19  1  0
 19 20  1  0
 19 21  2  0
 21 22  1  0
  4 23  1  0
 23 24  2  0
 24 25  1  0
 25 26  2  0
 26 27  1  0
 26 28  1  0
 28 29  1  0
 28 30  2  0
 30 31  1  0
 30 32  1  0
 32 33  1  0
 32 34  2  0
 34 35  1  0
 23 36  1  0
 36 37  1  0
 36 38  1  0
 38 39  1  0
 38  2  2  0
 21  9  1  0
 34 25  1  0
M  CHG  1   3  -1
M  END
>  <UniqueID>  (65) 
54

>  <SMILES>  (65) 
Cc1ccc(S(=O)(=O)N=c2[n-]cc[nH]/c2=N\c2ccc(F)cc2)cc1Br

>  <Energy>  (65) 
56.0705310634098

>  <Genealogy>  (65) 
Cc1ccc(S(=O)(=O)N=c2[n-]cc[nH]c2=Nc2ccc(F)cc2)cc1Br (protonated)
Cc1ccc(S(=O)(=O)N=c2[n-]cc[nH]/c2=N\c2ccc(F)cc2)cc1Br (cis-trans isomerization)
Cc1ccc(S(=O)(=O)N=c2[n-]cc[nH]/c2=N\c2ccc(F)cc2)cc1Br (3D coordinates assigned)
Cc1ccc(S(=O)(=O)N=c2[n-]cc[nH]/c2=N\c2ccc(F)cc2)cc1Br (optimized conformer: 56.0705310634098 kcal/mol)

>  <smiles>  (65) 
Cc1ccc(S(=O)(=O)N=c2[nH]cc[nH]c2=Nc2ccc(F)cc2)cc1Br

>  <score_type>  (65) 
oracle

>  <origin>  (65) 
adg

>  <m_score__min__energy>  (65) 
-10.34

>  <m_primary>  (65) 
energy

$$$$
65:0
     RDKit          3D

 44 45  0  0  0  0  0  0  0  0999 V2000
   57.0290   21.8520   46.2330 C   0  0  0  0  0  0  0  0  0  0  0  0
   56.5470   22.0220   47.6650 C   0  0  0  0  0  0  0  0  0  0  0  0
   56.8580   23.3710   48.1330 N   0  0  0  0  0  0  0  0  0  0  0  0
   56.9960   24.3970   47.3510 C   0  0  0  0  0  0  0  0  0  0  0  0
   58.2250   24.9210   47.0910 N   0  0  0  0  0  0  0  0  0  0  0  0
   58.3750   25.9950   46.2740 C   0  0  0  0  0  0  0  0  0  0  0  0
   57.2520   26.5890   45.6780 C   0  0  0  0  0  0  0  0  0  0  0  0
   57.3900   27.7590   44.7820 C   0  0  0  0  0  0  0  0  0  0  0  0
   57.9940   27.6400   43.6820 O   0  0  0  0  0  0  0  0  0  0  0  0
   56.8850   29.0380   45.1910 N   0  0  0  0  0  0  0  0  0  0  0  0
   57.2910   30.3200   44.6890 C   0  0  0  0  0  0  0  0  0  0  0  0
   57.1640   30.6610   43.3320 C   0  0  0  0  0  0  0  0  0  0  0  0
   57.5620   31.9250   42.8850 C   0  0  0  0  0  0  0  0  0  0  0  0
   57.4080   32.3410   41.1870 Cl  0  0  0  0  0  0  0  0  0  0  0  0
   58.0700   32.8610   43.7900 C   0  0  0  0  0  0  0  0  0  0  0  0
   58.1680   32.5500   45.1570 C   0  0  0  0  0  0  0  0  0  0  0  0
   58.7000   33.5560   46.1090 C   0  0  0  0  0  0  0  0  0  0  0  0
   58.0250   34.5940   46.3510 O   0  0  0  0  0  0  0  0  0  0  0  0
   59.9610   33.3560   46.7710 N   0  0  0  0  0  0  0  0  0  0  0  0
   60.5450   34.3530   47.6650 C   0  0  0  0  0  0  0  0  0  0  0  0
   61.8550   33.8370   48.2660 C   0  0  0  0  0  0  0  0  0  0  0  0
   62.4080   32.8090   47.4660 O   0  0  0  0  0  0  0  0  0  0  0  0
   63.6980   33.1700   47.0220 C   0  0  0  0  0  0  0  0  0  0  0  0
   57.7750   31.2730   45.5950 C   0  0  0  0  0  0  0  0  0  0  0  0
   55.9960   26.0310   45.9600 C   0  0  0  0  0  0  0  0  0  0  0  0
   55.8960   24.9560   46.7840 N   0  0  0  0  0  0  0  0  0  0  0  0
   58.0664   21.4861   46.2363 H   0  0  0  0  0  0  0  0  0  0  0  0
   56.3859   21.1264   45.7134 H   0  0  0  0  0  0  0  0  0  0  0  0
   56.9834   22.8205   45.7134 H   0  0  0  0  0  0  0  0  0  0  0  0
   55.4594   21.8625   47.7060 H   0  0  0  0  0  0  0  0  0  0  0  0
   57.0528   21.2876   48.3090 H   0  0  0  0  0  0  0  0  0  0  0  0
   59.3788   26.4003   46.0789 H   0  0  0  0  0  0  0  0  0  0  0  0
   56.7506   29.9321   42.6194 H   0  0  0  0  0  0  0  0  0  0  0  0
   58.3954   33.8481   43.4298 H   0  0  0  0  0  0  0  0  0  0  0  0
   60.4120   32.4150   46.7460 H   0  0  0  0  0  0  0  0  0  0  0  0
   60.7456   35.2738   47.0977 H   0  0  0  0  0  0  0  0  0  0  0  0
   59.8361   34.5556   48.4813 H   0  0  0  0  0  0  0  0  0  0  0  0
   62.5729   34.6678   48.3315 H   0  0  0  0  0  0  0  0  0  0  0  0
   61.6460   33.4296   49.2662 H   0  0  0  0  0  0  0  0  0  0  0  0
   64.3474   33.3517   47.8911 H   0  0  0  0  0  0  0  0  0  0  0  0
   64.1181   32.3549   46.4144 H   0  0  0  0  0  0  0  0  0  0  0  0
   63.6340   34.0847   46.4144 H   0  0  0  0  0  0  0  0  0  0  0  0
   57.8485   31.0188   46.6627 H   0  0  0  0  0  0  0  0  0  0  0  0
   55.0898   26.4653   45.5125 H   0  0  0  0  0  0  0  0  0  0  0  0
  1  2  1  0
  2  3  1  0
  3  4  2  3
  4  5  1  0
  5  6  2  0
  6  7  1  0
  7  8  1  0
  8  9  2  0
  8 10  1  0
 10 11  1  0
 11 12  2  0
 12 13  1  0
 13 14  1  0
 13 15  2  0
 15 16  1  0
 16 17  1  0
 17 18  2  0
 17 19  1  0
 19 20  1  0
 20 21  1  0
 21 22  1  0
 22 23  1  0
 16 24  2  0
  7 25  2  0
 25 26  1  0
 26  4  1  0
 24 11  1  0
  1 27  1  0
  1 28  1  0
  1 29  1  0
  2 30  1  0
  2 31  1  0
  6 32  1  0
 12 33  1  0
 15 34  1  0
 19 35  1  0
 20 36  1  0
 20 37  1  0
 21 38  1  0
 21 39  1  0
 23 40  1  0
 23 41  1  0
 23 42  1  0
 24 43  1  0
 25 44  1  0
M  CHG  2  10  -1  26  -1
M  END
>  <UniqueID>  (66) 
55

>  <SMILES>  (66) 
CCN=c1ncc(C(=O)[N-]c2cc(Cl)cc(C(=O)NCCOC)c2)c[n-]1

>  <Energy>  (66) 
46.27999093158375

>  <Genealogy>  (66) 
CCN=c1ncc(C(=O)[N-]c2cc(Cl)cc(C(=O)NCCOC)c2)c[n-]1 (protonated)
CCN=c1ncc(C(=O)[N-]c2cc(Cl)cc(C(=O)NCCOC)c2)c[n-]1 (3D coordinates assigned)
CCN=c1ncc(C(=O)[N-]c2cc(Cl)cc(C(=O)NCCOC)c2)c[n-]1 (optimized conformer: 46.27999093158375 kcal/mol)

>  <smiles>  (66) 
CCN=c1ncc(C(=O)Nc2cc(Cl)cc(C(=O)NCCOC)c2)c[nH]1

>  <score_type>  (66) 
oracle

>  <origin>  (66) 
adg

>  <m_score__min__energy>  (66) 
-9.7899999999999991

>  <m_primary>  (66) 
energy

$$$$
66:0
     RDKit          3D

 48 50  0  0  0  0  0  0  0  0999 V2000
   55.0690   21.8890   47.6660 C   0  0  0  0  0  0  0  0  0  0  0  0
   56.5400   21.9050   48.0650 C   0  0  0  0  0  0  0  0  0  0  0  0
   57.3050   22.6920   47.1510 O   0  0  0  0  0  0  0  0  0  0  0  0
   57.0020   22.9140   45.7940 C   0  0  0  0  0  0  0  0  0  0  0  0
   57.3470   21.9750   44.7980 C   0  0  0  0  0  0  0  0  0  0  0  0
   57.0300   22.2070   43.4610 C   0  0  0  0  0  0  0  0  0  0  0  0
   56.3650   23.3740   43.0940 C   0  0  0  0  0  0  0  0  0  0  0  0
   56.0120   24.3130   44.0620 C   0  0  0  0  0  0  0  0  0  0  0  0
   56.3230   24.1020   45.4200 C   0  0  0  0  0  0  0  0  0  0  0  0
   55.9380   25.1350   46.4200 C   0  0  0  0  0  0  0  0  0  0  0  0
   55.9100   24.8580   47.6500 O   0  0  0  0  0  0  0  0  0  0  0  0
   55.5490   26.4440   45.9850 N   0  0  0  0  0  0  0  0  0  0  0  0
   56.4520   27.4920   45.6150 C   0  0  0  0  0  0  0  0  0  0  0  0
   55.9480   28.9640   44.9910 S   0  0  0  0  0  0  0  0  0  0  0  0
   57.4890   29.5770   44.7050 C   0  0  0  0  0  0  0  0  0  0  0  0
   57.7380   30.9120   44.1290 C   0  0  0  0  0  0  0  0  0  0  0  0
   57.7370   31.0420   42.8750 O   0  0  0  0  0  0  0  0  0  0  0  0
   58.0050   32.0530   44.9620 N   0  0  0  0  0  0  0  0  0  0  0  0
   57.6200   33.3860   44.4910 C   0  0  0  0  0  0  0  0  0  0  0  0
   57.4870   34.3370   45.6840 C   0  0  0  0  0  0  0  0  0  0  0  0
   58.6600   34.3140   46.4760 O   0  0  0  0  0  0  0  0  0  0  0  0
   58.8160   33.0360   47.0620 C   0  0  0  0  0  0  0  0  0  0  0  0
   59.0500   31.9680   45.9870 C   0  0  0  0  0  0  0  0  0  0  0  0
   58.4370   28.6240   45.1080 C   0  0  0  0  0  0  0  0  0  0  0  0
   59.9260   28.8200   45.0240 C   0  0  0  0  0  0  0  0  0  0  0  0
   57.8460   27.4360   45.5890 C   0  0  0  0  0  0  0  0  0  0  0  0
   58.6070   26.2560   45.9210 C   0  0  0  0  0  0  0  0  0  0  0  0
   59.2160   25.3100   46.1900 N   0  0  0  0  0  0  0  0  0  0  0  0
   54.4437   21.8822   48.5709 H   0  0  0  0  0  0  0  0  0  0  0  0
   54.8411   22.7847   47.0696 H   0  0  0  0  0  0  0  0  0  0  0  0
   54.8606   20.9885   47.0696 H   0  0  0  0  0  0  0  0  0  0  0  0
   56.6351   22.3308   49.0748 H   0  0  0  0  0  0  0  0  0  0  0  0
   56.9214   20.8734   48.0469 H   0  0  0  0  0  0  0  0  0  0  0  0
   57.8717   21.0503   45.0803 H   0  0  0  0  0  0  0  0  0  0  0  0
   57.3054   21.4674   42.6947 H   0  0  0  0  0  0  0  0  0  0  0  0
   56.1176   23.5554   42.0377 H   0  0  0  0  0  0  0  0  0  0  0  0
   55.4840   25.2302   43.7619 H   0  0  0  0  0  0  0  0  0  0  0  0
   58.3895   33.7672   43.8036 H   0  0  0  0  0  0  0  0  0  0  0  0
   56.6550   33.3223   43.9668 H   0  0  0  0  0  0  0  0  0  0  0  0
   57.3213   35.3595   45.3138 H   0  0  0  0  0  0  0  0  0  0  0  0
   56.6369   34.0121   46.3019 H   0  0  0  0  0  0  0  0  0  0  0  0
   59.6783   33.0553   47.7447 H   0  0  0  0  0  0  0  0  0  0  0  0
   57.8969   32.7863   47.6124 H   0  0  0  0  0  0  0  0  0  0  0  0
   60.0327   32.1299   45.5200 H   0  0  0  0  0  0  0  0  0  0  0  0
   59.0190   30.9723   46.4535 H   0  0  0  0  0  0  0  0  0  0  0  0
   60.3464   28.8753   46.0390 H   0  0  0  0  0  0  0  0  0  0  0  0
   60.3775   27.9735   44.4858 H   0  0  0  0  0  0  0  0  0  0  0  0
   60.1430   29.7545   44.4858 H   0  0  0  0  0  0  0  0  0  0  0  0
  1  2  1  0
  2  3  1  0
  3  4  1  0
  4  5  2  0
  5  6  1  0
  6  7  2  0
  7  8  1  0
  8  9  2  0
  9 10  1  0
 10 11  2  0
 10 12  1  0
 12 13  1  0
 13 14  1  0
 14 15  1  0
 15 16  1  0
 16 17  2  0
 16 18  1  0
 18 19  1  0
 19 20  1  0
 20 21  1  0
 21 22  1  0
 22 23  1  0
 15 24  2  0
 24 25  1  0
 24 26  1  0
 26 27  1  0
 27 28  3  0
  9  4  1  0
 26 13  2  0
 23 18  1  0
  1 29  1  0
  1 30  1  0
  1 31  1  0
  2 32  1  0
  2 33  1  0
  5 34  1  0
  6 35  1  0
  7 36  1  0
  8 37  1  0
 19 38  1  0
 19 39  1  0
 20 40  1  0
 20 41  1  0
 22 42  1  0
 22 43  1  0
 23 44  1  0
 23 45  1  0
 25 46  1  0
 25 47  1  0
 25 48  1  0
M  CHG  1  12  -1
M  END
>  <UniqueID>  (67) 
56

>  <SMILES>  (67) 
CCOc1ccccc1C(=O)[N-]c1sc(C(=O)N2CCOCC2)c(C)c1C#N

>  <Energy>  (67) 
86.17812832482869

>  <Genealogy>  (67) 
CCOc1ccccc1C(=O)[N-]c1sc(C(=O)N2CCOCC2)c(C)c1C#N (protonated)
CCOc1ccccc1C(=O)[N-]c1sc(C(=O)N2CCOCC2)c(C)c1C#N (3D coordinates assigned)
CCOc1ccccc1C(=O)[N-]c1sc(C(=O)N2CCOCC2)c(C)c1C#N (nonaromatic ring conformer: 86.17812832482869 kcal/mol)

>  <smiles>  (67) 
CCOc1ccccc1C(=O)Nc1sc(C(=O)N2CCOCC2)c(C)c1C#N

>  <score_type>  (67) 
oracle

>  <origin>  (67) 
adg

>  <m_score__min__energy>  (67) 
-10.300000000000001

>  <m_primary>  (67) 
energy

$$$$
67:0
     RDKit          3D

 30 31  0  0  0  0  0  0  0  0999 V2000
   56.9750   25.2850   47.2060 C   0  0  0  0  0  0  0  0  0  0  0  0
   55.9580   25.9390   46.3330 C   0  0  0  0  0  0  0  0  0  0  0  0
   54.9490   25.2840   45.9580 O   0  0  0  0  0  0  0  0  0  0  0  0
   56.2000   27.2330   45.8570 O   0  0  0  0  0  0  0  0  0  0  0  0
   57.4530   27.7550   45.4940 C   0  0  0  0  0  0  0  0  0  0  0  0
   58.6320   26.9950   45.6200 C   0  0  0  0  0  0  0  0  0  0  0  0
   59.8690   27.5420   45.2710 C   0  0  0  0  0  0  0  0  0  0  0  0
   59.9430   28.8490   44.7880 C   0  0  0  0  0  0  0  0  0  0  0  0
   58.7800   29.6050   44.6340 C   0  0  0  0  0  0  0  0  0  0  0  0
   57.5260   29.0610   44.9600 C   0  0  0  0  0  0  0  0  0  0  0  0
   56.3100   29.8900   44.7730 C   0  0  0  0  0  0  0  0  0  0  0  0
   55.1790   29.3350   44.8320 O   0  0  0  0  0  0  0  0  0  0  0  0
   56.3670   31.2980   44.4870 N   0  0  0  0  0  0  0  0  0  0  0  0
   57.2510   32.1430   44.9310 C   0  0  0  0  0  0  0  0  0  0  0  0
   57.8100   33.0790   44.0520 C   0  0  0  0  0  0  0  0  0  0  0  0
   58.7590   33.9870   44.5270 C   0  0  0  0  0  0  0  0  0  0  0  0
   59.1370   33.9600   45.8700 C   0  0  0  0  0  0  0  0  0  0  0  0
   58.5530   33.0210   46.7240 C   0  0  0  0  0  0  0  0  0  0  0  0
   59.0040   32.9580   48.4160 Cl  0  0  0  0  0  0  0  0  0  0  0  0
   57.6300   32.1460   46.2420 N   0  0  0  0  0  0  0  0  0  0  0  0
   56.7144   25.4526   48.2615 H   0  0  0  0  0  0  0  0  0  0  0  0
   56.9946   24.2046   47.0002 H   0  0  0  0  0  0  0  0  0  0  0  0
   57.9661   25.7155   47.0002 H   0  0  0  0  0  0  0  0  0  0  0  0
   58.5783   25.9627   45.9961 H   0  0  0  0  0  0  0  0  0  0  0  0
   60.7850   26.9423   45.3770 H   0  0  0  0  0  0  0  0  0  0  0  0
   60.9193   29.2841   44.5283 H   0  0  0  0  0  0  0  0  0  0  0  0
   58.8455   30.6353   44.2543 H   0  0  0  0  0  0  0  0  0  0  0  0
   57.5040   33.0989   42.9956 H   0  0  0  0  0  0  0  0  0  0  0  0
   59.2079   34.7225   43.8433 H   0  0  0  0  0  0  0  0  0  0  0  0
   59.8859   34.6696   46.2518 H   0  0  0  0  0  0  0  0  0  0  0  0
  1  2  1  0
  2  3  2  0
  2  4  1  0
  4  5  1  0
  5  6  2  0
  6  7  1  0
  7  8  2  0
  8  9  1  0
  9 10  2  0
 10 11  1  0
 11 12  2  0
 11 13  1  0
 13 14  2  3
 14 15  1  0
 15 16  2  0
 16 17  1  0
 17 18  2  0
 18 19  1  0
 18 20  1  0
 10  5  1  0
 20 14  1  0
  1 21  1  0
  1 22  1  0
  1 23  1  0
  6 24  1  0
  7 25  1  0
  8 26  1  0
  9 27  1  0
 15 28  1  0
 16 29  1  0
 17 30  1  0
M  CHG  1  20  -1
M  END
>  <UniqueID>  (68) 
57

>  <SMILES>  (68) 
CC(=O)Oc1ccccc1C(=O)N=c1cccc(Cl)[n-]1

>  <Energy>  (68) 
41.92410077368441

>  <Genealogy>  (68) 
CC(=O)Oc1ccccc1C(=O)N=c1cccc(Cl)[n-]1 (protonated)
CC(=O)Oc1ccccc1C(=O)N=c1cccc(Cl)[n-]1 (3D coordinates assigned)
CC(=O)Oc1ccccc1C(=O)N=c1cccc(Cl)[n-]1 (optimized conformer: 41.92410077368441 kcal/mol)

>  <smiles>  (68) 
CC(=O)Oc1ccccc1C(=O)N=c1cccc(Cl)[nH]1

>  <score_type>  (68) 
oracle

>  <origin>  (68) 
adg

>  <m_score__min__energy>  (68) 
-9.4900000000000002

>  <m_primary>  (68) 
energy

$$$$
68:0
     RDKit          3D

 63 66  0  0  1  0  0  0  0  0999 V2000
   57.6250   31.0360   51.5320 C   0  0  0  0  0  0  0  0  0  0  0  0
   59.0480   31.2610   51.1440 C   0  0  0  0  0  0  0  0  0  0  0  0
   59.3450   32.6350   50.7730 N   0  0  0  0  0  0  0  0  0  0  0  0
   59.7400   33.5020   51.8770 C   0  0  0  0  0  0  0  0  0  0  0  0
   58.5520   34.2530   52.3800 C   0  0  0  0  0  0  0  0  0  0  0  0
   59.1700   33.1040   49.4380 C   0  0  0  0  0  0  0  0  0  0  0  0
   59.9650   34.1290   48.9830 C   0  0  0  0  0  0  0  0  0  0  0  0
   59.8300   34.6080   47.6730 C   0  0  0  0  0  0  0  0  0  0  0  0
   58.9040   34.0720   46.8100 C   0  0  0  0  0  0  0  0  0  0  0  0
   58.8300   34.5980   45.4240 C   0  0  0  0  0  0  0  0  0  0  0  0
   59.5980   35.5170   45.0520 O   0  0  0  0  0  0  0  0  0  0  0  0
   57.8500   33.9730   44.6250 N   0  0  0  0  0  0  0  0  0  0  0  0
   57.8610   32.8090   44.1280 C   0  0  0  0  0  0  0  0  0  0  0  0
   57.5370   32.4710   42.8950 N   0  0  0  0  0  0  0  0  0  0  0  0
   57.6930   31.1440   42.8070 N   0  0  0  0  0  0  0  0  0  0  0  0
   58.1120   30.6780   43.9960 C   0  0  0  0  0  0  0  0  0  0  0  0
   58.4370   29.3560   44.4830 C   0  0  0  0  0  0  0  0  0  0  0  0
   57.7890   28.2400   43.9310 C   0  0  0  0  0  0  0  0  0  0  0  0
   58.0120   26.9650   44.3400 C   0  0  0  0  0  0  0  0  0  0  0  0
   58.9010   26.7140   45.3350 C   0  0  0  0  0  0  0  0  0  0  0  0
   59.5600   27.7750   45.9050 C   0  0  0  0  0  0  0  0  0  0  0  0
   59.3290   29.0950   45.4810 C   0  0  0  0  0  0  0  0  0  0  0  0
   60.1070   30.0710   46.1550 N   0  0  0  0  0  0  0  0  0  0  0  0
   60.7930   29.8710   47.3730 C   0  0  0  0  0  0  0  0  0  0  0  0
   60.7240   28.7670   47.9710 O   0  0  0  0  0  0  0  0  0  0  0  0
   61.6080   30.9410   47.9700 C   0  0  0  0  0  0  0  0  0  0  0  0
   61.8700   31.0110   49.3210 C   0  0  0  0  0  0  0  0  0  0  0  0
   62.6030   32.0450   49.8940 C   0  0  0  0  0  0  0  0  0  0  0  0
   63.0810   33.0320   49.0830 C   0  0  0  0  0  0  0  0  0  0  0  0
   63.8090   34.0630   49.6560 O   0  0  0  0  0  0  0  0  0  0  0  0
   63.8340   34.3140   51.0280 C   0  0  0  0  0  0  0  0  0  0  0  0
   62.8410   32.9940   47.7350 C   0  0  0  0  0  0  0  0  0  0  0  0
   62.1120   31.9600   47.1830 C   0  0  0  0  0  0  0  0  0  0  0  0
   58.1970   31.7370   44.7590 O   0  0  0  0  0  0  0  0  0  0  0  0
   58.1100   33.0600   47.2460 C   0  0  0  0  0  0  0  0  0  0  0  0
   58.2540   32.5890   48.5530 C   0  0  0  0  0  0  0  0  0  0  0  0
   57.5417   31.0228   52.6288 H   0  0  0  0  0  0  0  0  0  0  0  0
   57.0018   31.8468   51.1266 H   0  0  0  0  0  0  0  0  0  0  0  0
   57.2824   30.0725   51.1266 H   0  0  0  0  0  0  0  0  0  0  0  0
   59.6873   30.9859   51.9958 H   0  0  0  0  0  0  0  0  0  0  0  0
   59.2397   30.6409   50.2559 H   0  0  0  0  0  0  0  0  0  0  0  0
   60.1567   32.8903   52.6907 H   0  0  0  0  0  0  0  0  0  0  0  0
   60.4987   34.2162   51.5245 H   0  0  0  0  0  0  0  0  0  0  0  0
   58.5556   34.2507   53.4800 H   0  0  0  0  0  0  0  0  0  0  0  0
   58.5924   35.2900   52.0153 H   0  0  0  0  0  0  0  0  0  0  0  0
   57.6326   33.7717   52.0153 H   0  0  0  0  0  0  0  0  0  0  0  0
   60.7136   34.5771   49.6530 H   0  0  0  0  0  0  0  0  0  0  0  0
   60.4771   35.4282   47.3289 H   0  0  0  0  0  0  0  0  0  0  0  0
   57.2280   33.1550   42.1710 H   0  0  0  0  0  0  0  0  0  0  0  0
   57.0612   28.4076   43.1234 H   0  0  0  0  0  0  0  0  0  0  0  0
   57.4714   26.1335   43.8643 H   0  0  0  0  0  0  0  0  0  0  0  0
   59.0888   25.6853   45.6763 H   0  0  0  0  0  0  0  0  0  0  0  0
   60.2846   27.5879   46.7112 H   0  0  0  0  0  0  0  0  0  0  0  0
   60.1470   31.0150   45.6570 H   0  0  0  0  0  0  0  0  0  0  0  0
   61.4829   30.2151   49.9743 H   0  0  0  0  0  0  0  0  0  0  0  0
   62.7930   32.0662   50.9773 H   0  0  0  0  0  0  0  0  0  0  0  0
   63.7395   33.3650   51.5761 H   0  0  0  0  0  0  0  0  0  0  0  0
   64.7848   34.7984   51.2949 H   0  0  0  0  0  0  0  0  0  0  0  0
   62.9974   34.9765   51.2949 H   0  0  0  0  0  0  0  0  0  0  0  0
   63.2319   33.7930   47.0879 H   0  0  0  0  0  0  0  0  0  0  0  0
   61.9289   31.9464   46.0984 H   0  0  0  0  0  0  0  0  0  0  0  0
   57.3600   32.6151   46.5755 H   0  0  0  0  0  0  0  0  0  0  0  0
   57.6040   31.7678   48.8893 H   0  0  0  0  0  0  0  0  0  0  0  0
  1  2  1  0
  2  3  1  0
  3  4  1  0
  4  5  1  0
  3  6  1  0
  6  7  2  0
  7  8  1  0
  8  9  2  0
  9 10  1  0
 10 11  2  0
 10 12  1  0
 12 13  2  0
 13 14  1  0
 14 15  1  0
 15 16  2  0
 16 17  1  0
 17 18  2  0
 18 19  1  0
 19 20  2  0
 20 21  1  0
 21 22  2  0
 22 23  1  0
 23 24  1  0
 24 25  2  0
 24 26  1  0
 26 27  2  0
 27 28  1  0
 28 29  2  0
 29 30  1  0
 30 31  1  0
 29 32  1  0
 32 33  2  0
 16 34  1  0
  9 35  1  0
 35 36  2  0
 36  6  1  0
 34 13  1  0
 22 17  1  0
 33 26  1  0
  1 37  1  0
  1 38  1  0
  1 39  1  0
  2 40  1  0
  2 41  1  0
  4 42  1  0
  4 43  1  0
  5 44  1  0
  5 45  1  0
  5 46  1  0
  7 47  1  0
  8 48  1  0
 14 49  1  0
 18 50  1  0
 19 51  1  0
 20 52  1  0
 21 53  1  0
 23 54  1  0
 27 55  1  0
 28 56  1  0
 31 57  1  0
 31 58  1  0
 31 59  1  0
 32 60  1  0
 33 61  1  0
 35 62  1  0
 36 63  1  0
M  END
>  <smiles>  (69) 
CCN(CC)c1ccc(C(=O)N=c2[nH]nc(-c3ccccc3NC(=O)c3ccc(OC)cc3)o2)cc1

>  <score_type>  (69) 
oracle

>  <origin>  (69) 
adg

>  <m_score__min__energy>  (69) 
-9.4299999999999997

>  <m_primary>  (69) 
energy

$$$$
69:0
     RDKit          3D

 51 51  0  0  0  0  0  0  0  0999 V2000
   62.1790   31.5110   47.5100 C   0  0  0  0  0  0  0  0  0  0  0  0
   63.0410   32.6420   47.1330 N   0  0  0  0  0  0  0  0  0  0  0  0
   63.8380   33.0750   48.2920 C   0  0  0  0  0  0  0  0  0  0  0  0
   62.2450   33.7620   46.5840 C   0  0  0  0  0  0  0  0  0  0  0  0
   60.9030   33.8810   47.3240 C   0  0  0  0  0  0  0  0  0  0  0  0
   59.9270   34.8640   46.6480 C   0  0  0  0  0  0  0  0  0  0  0  0
   59.0520   34.1990   45.5760 C   0  0  0  0  0  0  0  0  0  0  0  0
   57.7380   33.6900   46.1830 C   0  0  0  0  0  0  0  0  0  0  0  0
   56.9980   32.6950   45.2690 C   0  0  0  0  0  0  0  0  0  0  0  0
   57.7260   31.3410   45.1300 C   0  0  0  0  0  0  0  0  0  0  0  0
   57.0750   30.4320   44.0720 C   0  0  0  0  0  0  0  0  0  0  0  0
   56.3680   29.2770   44.7350 C   0  0  0  0  0  0  0  0  0  0  0  0
   55.1740   29.4180   45.1180 O   0  0  0  0  0  0  0  0  0  0  0  0
   56.9810   27.9870   44.8370 N   0  0  0  0  0  0  0  0  0  0  0  0
   57.9110   27.5910   45.8550 C   0  0  0  0  0  0  0  0  0  0  0  0
   59.0300   28.3920   46.1480 C   0  0  0  0  0  0  0  0  0  0  0  0
   59.8990   28.0420   47.1820 C   0  0  0  0  0  0  0  0  0  0  0  0
   59.6540   26.8980   47.9420 C   0  0  0  0  0  0  0  0  0  0  0  0
   58.5490   26.0900   47.6590 C   0  0  0  0  0  0  0  0  0  0  0  0
   57.6710   26.4290   46.6170 C   0  0  0  0  0  0  0  0  0  0  0  0
   56.2980   25.3810   46.2480 S   0  0  0  0  0  0  0  0  0  0  0  0
   54.8680   26.3410   46.0860 N   0  0  0  0  0  0  0  0  0  0  0  0
   56.1230   24.3770   47.3520 O   0  0  0  0  0  0  0  0  0  0  0  0
   56.5330   24.6500   44.9560 O   0  0  0  0  0  0  0  0  0  0  0  0
   62.1253   31.4405   48.6064 H   0  0  0  0  0  0  0  0  0  0  0  0
   61.1693   31.6679   47.1027 H   0  0  0  0  0  0  0  0  0  0  0  0
   62.5979   30.5790   47.1027 H   0  0  0  0  0  0  0  0  0  0  0  0
   63.3189   32.7930   49.2199 H   0  0  0  0  0  0  0  0  0  0  0  0
   64.8242   32.5886   48.2612 H   0  0  0  0  0  0  0  0  0  0  0  0
   63.9666   34.1670   48.2612 H   0  0  0  0  0  0  0  0  0  0  0  0
   62.8085   34.6992   46.7029 H   0  0  0  0  0  0  0  0  0  0  0  0
   62.0485   33.5707   45.5187 H   0  0  0  0  0  0  0  0  0  0  0  0
   60.4322   32.8874   47.3579 H   0  0  0  0  0  0  0  0  0  0  0  0
   61.1160   34.2693   48.3309 H   0  0  0  0  0  0  0  0  0  0  0  0
   59.2707   35.2927   47.4197 H   0  0  0  0  0  0  0  0  0  0  0  0
   60.5309   35.6353   46.1477 H   0  0  0  0  0  0  0  0  0  0  0  0
   58.8250   34.9336   44.7893 H   0  0  0  0  0  0  0  0  0  0  0  0
   59.6002   33.3434   45.1548 H   0  0  0  0  0  0  0  0  0  0  0  0
   57.9630   33.1895   47.1363 H   0  0  0  0  0  0  0  0  0  0  0  0
   57.0805   34.5610   46.3215 H   0  0  0  0  0  0  0  0  0  0  0  0
   55.9974   32.5127   45.6881 H   0  0  0  0  0  0  0  0  0  0  0  0
   56.9499   33.1451   44.2665 H   0  0  0  0  0  0  0  0  0  0  0  0
   58.7703   31.5293   44.8400 H   0  0  0  0  0  0  0  0  0  0  0  0
   57.6643   30.8254   46.0997 H   0  0  0  0  0  0  0  0  0  0  0  0
   56.3473   31.0166   43.4901 H   0  0  0  0  0  0  0  0  0  0  0  0
   57.8592   30.0374   43.4092 H   0  0  0  0  0  0  0  0  0  0  0  0
   59.2211   29.3004   45.5578 H   0  0  0  0  0  0  0  0  0  0  0  0
   60.7773   28.6681   47.3979 H   0  0  0  0  0  0  0  0  0  0  0  0
   60.3321   26.6312   48.7660 H   0  0  0  0  0  0  0  0  0  0  0  0
   58.3664   25.1841   48.2556 H   0  0  0  0  0  0  0  0  0  0  0  0
   55.1660   27.3360   46.0110 H   0  0  0  0  0  0  0  0  0  0  0  0
  1  2  1  0
  2  3  1  0
  2  4  1  0
  4  5  1  0
  5  6  1  0
  6  7  1  0
  7  8  1  0
  8  9  1  0
  9 10  1  0
 10 11  1  0
 11 12  1  0
 12 13  2  0
 12 14  1  0
 14 15  1  0
 15 16  2  0
 16 17  1  0
 17 18  2  0
 18 19  1  0
 19 20  2  0
 20 21  1  0
 21 22  1  0
 21 23  2  0
 21 24  2  0
 20 15  1  0
  1 25  1  0
  1 26  1  0
  1 27  1  0
  3 28  1  0
  3 29  1  0
  3 30  1  0
  4 31  1  0
  4 32  1  0
  5 33  1  0
  5 34  1  0
  6 35  1  0
  6 36  1  0
  7 37  1  0
  7 38  1  0
  8 39  1  0
  8 40  1  0
  9 41  1  0
  9 42  1  0
 10 43  1  0
 10 44  1  0
 11 45  1  0
 11 46  1  0
 16 47  1  0
 17 48  1  0
 18 49  1  0
 19 50  1  0
 22 51  1  0
M  CHG  2  14  -1  22  -1
M  END
>  <UniqueID>  (70) 
58

>  <SMILES>  (70) 
CN(C)CCCCCCCCC(=O)[N-]c1ccccc1S([NH-])(=O)=O

>  <Energy>  (70) 
42.24753040568219

>  <Genealogy>  (70) 
CN(C)CCCCCCCCC(=O)[N-]c1ccccc1S([NH-])(=O)=O (protonated)
CN(C)CCCCCCCCC(=O)[N-]c1ccccc1S([NH-])(=O)=O (3D coordinates assigned)
CN(C)CCCCCCCCC(=O)[N-]c1ccccc1S([NH-])(=O)=O (optimized conformer: 42.24753040568219 kcal/mol)

>  <smiles>  (70) 
CN(C)CCCCCCCCC(=O)Nc1ccccc1S(N)(=O)=O

>  <score_type>  (70) 
oracle

>  <origin>  (70) 
adg

>  <m_score__min__energy>  (70) 
-13.16

>  <m_primary>  (70) 
energy

$$$$
70:0
     RDKit          3D

 45 47  0  0  0  0  0  0  0  0999 V2000
   66.0340   32.9890   50.1240 C   0  0  0  0  0  0  0  0  0  0  0  0
   64.5710   32.8130   49.8520 C   0  0  0  0  0  0  0  0  0  0  0  0
   64.2040   31.9770   48.9860 O   0  0  0  0  0  0  0  0  0  0  0  0
   63.5740   33.5460   50.5760 N   0  0  0  0  0  0  0  0  0  0  0  0
   62.7470   34.6170   50.0270 C   0  0  0  0  0  0  0  0  0  0  0  0
   61.7900   34.0790   48.9970 C   0  0  0  0  0  0  0  0  0  0  0  0
   62.2330   33.8190   47.6930 C   0  0  0  0  0  0  0  0  0  0  0  0
   61.3500   33.3200   46.7310 C   0  0  0  0  0  0  0  0  0  0  0  0
   60.0020   33.0740   47.0540 C   0  0  0  0  0  0  0  0  0  0  0  0
   59.0550   32.5410   46.0410 C   0  0  0  0  0  0  0  0  0  0  0  0
   58.5780   33.2080   44.9080 C   0  0  0  0  0  0  0  0  0  0  0  0
   57.6950   32.4440   44.1340 C   0  0  0  0  0  0  0  0  0  0  0  0
   57.4750   31.1770   44.6520 C   0  0  0  0  0  0  0  0  0  0  0  0
   56.4340   29.9480   43.9610 S   0  0  0  0  0  0  0  0  0  0  0  0
   55.2650   29.7000   44.8720 O   0  0  0  0  0  0  0  0  0  0  0  0
   55.9450   30.4300   42.6230 O   0  0  0  0  0  0  0  0  0  0  0  0
   57.3360   28.4820   43.7570 N   0  0  0  0  0  0  0  0  0  0  0  0
   58.3440   28.0540   44.6790 C   0  0  0  0  0  0  0  0  0  0  0  0
   59.6470   28.5420   44.5130 C   0  0  0  0  0  0  0  0  0  0  0  0
   60.6710   28.1360   45.3710 C   0  0  0  0  0  0  0  0  0  0  0  0
   60.3980   27.2450   46.4100 C   0  0  0  0  0  0  0  0  0  0  0  0
   59.0980   26.7720   46.6040 C   0  0  0  0  0  0  0  0  0  0  0  0
   58.0540   27.1870   45.7590 C   0  0  0  0  0  0  0  0  0  0  0  0
   56.6570   26.6980   46.0300 C   0  0  0  0  0  0  0  0  0  0  0  0
   58.3680   30.9960   46.0590 S   0  0  0  0  0  0  0  0  0  0  0  0
   59.5620   33.3460   48.3640 C   0  0  0  0  0  0  0  0  0  0  0  0
   60.4460   33.8470   49.3240 C   0  0  0  0  0  0  0  0  0  0  0  0
   66.2051   33.0096   51.2104 H   0  0  0  0  0  0  0  0  0  0  0  0
   66.5927   32.1516   49.6806 H   0  0  0  0  0  0  0  0  0  0  0  0
   66.3782   33.9350   49.6806 H   0  0  0  0  0  0  0  0  0  0  0  0
   62.1746   35.0843   50.8418 H   0  0  0  0  0  0  0  0  0  0  0  0
   63.4029   35.3576   49.5460 H   0  0  0  0  0  0  0  0  0  0  0  0
   63.2827   34.0089   47.4247 H   0  0  0  0  0  0  0  0  0  0  0  0
   61.7118   33.1177   45.7121 H   0  0  0  0  0  0  0  0  0  0  0  0
   58.8691   34.2366   44.6488 H   0  0  0  0  0  0  0  0  0  0  0  0
   57.2245   32.8116   43.2101 H   0  0  0  0  0  0  0  0  0  0  0  0
   59.8649   29.2506   43.7003 H   0  0  0  0  0  0  0  0  0  0  0  0
   61.6925   28.5182   45.2281 H   0  0  0  0  0  0  0  0  0  0  0  0
   61.2078   26.9147   47.0772 H   0  0  0  0  0  0  0  0  0  0  0  0
   58.8896   26.0694   47.4243 H   0  0  0  0  0  0  0  0  0  0  0  0
   56.4929   26.6406   47.1162 H   0  0  0  0  0  0  0  0  0  0  0  0
   55.9317   27.3957   45.5860 H   0  0  0  0  0  0  0  0  0  0  0  0
   56.5252   25.7003   45.5860 H   0  0  0  0  0  0  0  0  0  0  0  0
   58.5117   33.1623   48.6345 H   0  0  0  0  0  0  0  0  0  0  0  0
   60.0857   34.0604   50.3412 H   0  0  0  0  0  0  0  0  0  0  0  0
  1  2  1  0
  2  3  2  0
  2  4  1  0
  4  5  1  0
  5  6  1  0
  6  7  2  0
  7  8  1  0
  8  9  2  0
  9 10  1  0
 10 11  2  0
 11 12  1  0
 12 13  2  0
 13 14  1  0
 14 15  2  0
 14 16  2  0
 14 17  1  0
 17 18  1  0
 18 19  2  0
 19 20  1  0
 20 21  2  0
 21 22  1  0
 22 23  2  0
 23 24  1  0
 13 25  1  0
  9 26  1  0
 26 27  2  0
 27  6  1  0
 25 10  1  0
 23 18  1  0
  1 28  1  0
  1 29  1  0
  1 30  1  0
  5 31  1  0
  5 32  1  0
  7 33  1  0
  8 34  1  0
 11 35  1  0
 12 36  1  0
 19 37  1  0
 20 38  1  0
 21 39  1  0
 22 40  1  0
 24 41  1  0
 24 42  1  0
 24 43  1  0
 26 44  1  0
 27 45  1  0
M  CHG  2   4  -1  17  -1
M  END
>  <UniqueID>  (71) 
59

>  <SMILES>  (71) 
CC(=O)[N-]Cc1ccc(-c2ccc(S(=O)(=O)[N-]c3ccccc3C)s2)cc1

>  <Energy>  (71) 
82.01243162213979

>  <Genealogy>  (71) 
CC(=O)[N-]Cc1ccc(-c2ccc(S(=O)(=O)[N-]c3ccccc3C)s2)cc1 (protonated)
CC(=O)[N-]Cc1ccc(-c2ccc(S(=O)(=O)[N-]c3ccccc3C)s2)cc1 (3D coordinates assigned)
CC(=O)[N-]Cc1ccc(-c2ccc(S(=O)(=O)[N-]c3ccccc3C)s2)cc1 (optimized conformer: 82.01243162213979 kcal/mol)

>  <smiles>  (71) 
CC(=O)NCc1ccc(-c2ccc(S(=O)(=O)Nc3ccccc3C)s2)cc1

>  <score_type>  (71) 
oracle

>  <origin>  (71) 
adg

>  <m_score__min__energy>  (71) 
-11.140000000000001

>  <m_primary>  (71) 
energy

$$$$
71:0
     RDKit          3D

 56 58  0  0  0  0  0  0  0  0999 V2000
   55.1970   29.4240   52.8050 C   0  0  0  0  0  0  0  0  0  0  0  0
   56.5150   29.3170   52.2750 O   0  0  0  0  0  0  0  0  0  0  0  0
   57.3960   30.3990   52.1220 C   0  0  0  0  0  0  0  0  0  0  0  0
   57.1120   31.4910   51.2800 C   0  0  0  0  0  0  0  0  0  0  0  0
   58.0200   32.5490   51.1670 C   0  0  0  0  0  0  0  0  0  0  0  0
   59.2300   32.5230   51.8810 C   0  0  0  0  0  0  0  0  0  0  0  0
   60.1590   33.6140   51.8220 N   0  0  0  0  0  0  0  0  0  0  0  0
   61.5790   33.5100   51.6590 C   0  0  0  0  0  0  0  0  0  0  0  0
   62.3170   33.6400   52.6720 O   0  0  0  0  0  0  0  0  0  0  0  0
   62.2050   33.1910   50.3260 C   0  0  0  0  0  0  0  0  0  0  0  0
   61.1740   33.2770   49.2210 C   0  0  0  0  0  0  0  0  0  0  0  0
   60.7860   34.5560   48.7910 C   0  0  0  0  0  0  0  0  0  0  0  0
   59.8260   34.7160   47.7940 C   0  0  0  0  0  0  0  0  0  0  0  0
   59.2210   33.6000   47.2040 C   0  0  0  0  0  0  0  0  0  0  0  0
   58.2010   33.7760   46.1450 C   0  0  0  0  0  0  0  0  0  0  0  0
   58.5220   34.2290   45.0140 O   0  0  0  0  0  0  0  0  0  0  0  0
   56.8720   33.4480   46.3870 O   0  0  0  0  0  0  0  0  0  0  0  0
   59.5990   32.3150   47.6300 C   0  0  0  0  0  0  0  0  0  0  0  0
   60.5660   32.1360   48.6320 C   0  0  0  0  0  0  0  0  0  0  0  0
   61.0140   30.4830   49.0930 S   0  0  0  0  0  0  0  0  0  0  0  0
   60.0330   29.9550   50.0990 O   0  0  0  0  0  0  0  0  0  0  0  0
   62.4000   30.5010   49.6750 O   0  0  0  0  0  0  0  0  0  0  0  0
   61.0040   29.4460   47.7010 N   0  0  0  0  0  0  0  0  0  0  0  0
   59.8390   28.8250   47.1420 C   0  0  0  0  0  0  0  0  0  0  0  0
   59.5400   27.5100   47.5090 C   0  0  0  0  0  0  0  0  0  0  0  0
   58.4000   26.8760   47.0130 C   0  0  0  0  0  0  0  0  0  0  0  0
   57.5370   27.5490   46.1260 C   0  0  0  0  0  0  0  0  0  0  0  0
   56.3700   26.9480   45.6290 O   0  0  0  0  0  0  0  0  0  0  0  0
   56.0920   25.5510   45.6880 C   0  0  0  0  0  0  0  0  0  0  0  0
   57.8500   28.8630   45.7290 C   0  0  0  0  0  0  0  0  0  0  0  0
   56.7980   29.7280   44.6040 S   0  0  0  0  0  0  0  0  0  0  0  0
   55.1450   29.3240   44.9150 N   0  0  0  0  0  0  0  0  0  0  0  0
   57.1260   29.3450   43.1860 O   0  0  0  0  0  0  0  0  0  0  0  0
   56.9980   31.2070   44.7730 O   0  0  0  0  0  0  0  0  0  0  0  0
   58.9930   29.4960   46.2420 C   0  0  0  0  0  0  0  0  0  0  0  0
   59.5000   31.4470   52.7340 C   0  0  0  0  0  0  0  0  0  0  0  0
   58.5960   30.3880   52.8440 C   0  0  0  0  0  0  0  0  0  0  0  0
   55.2423   29.4203   53.9041 H   0  0  0  0  0  0  0  0  0  0  0  0
   54.7382   30.3624   52.4601 H   0  0  0  0  0  0  0  0  0  0  0  0
   54.5928   28.5720   52.4601 H   0  0  0  0  0  0  0  0  0  0  0  0
   56.1722   31.5123   50.7087 H   0  0  0  0  0  0  0  0  0  0  0  0
   57.7859   33.4047   50.5167 H   0  0  0  0  0  0  0  0  0  0  0  0
   63.0126   33.9101   50.1241 H   0  0  0  0  0  0  0  0  0  0  0  0
   62.6071   32.1676   50.3580 H   0  0  0  0  0  0  0  0  0  0  0  0
   61.2465   35.4444   49.2478 H   0  0  0  0  0  0  0  0  0  0  0  0
   59.5412   35.7272   47.4679 H   0  0  0  0  0  0  0  0  0  0  0  0
   59.1286   31.4335   47.1699 H   0  0  0  0  0  0  0  0  0  0  0  0
   60.2092   26.9699   48.1949 H   0  0  0  0  0  0  0  0  0  0  0  0
   58.1737   25.8433   47.3169 H   0  0  0  0  0  0  0  0  0  0  0  0
   56.0289   25.2338   46.7394 H   0  0  0  0  0  0  0  0  0  0  0  0
   55.1354   25.3459   45.1851 H   0  0  0  0  0  0  0  0  0  0  0  0
   56.8972   24.9954   45.1851 H   0  0  0  0  0  0  0  0  0  0  0  0
   55.1450   28.6170   45.6840 H   0  0  0  0  0  0  0  0  0  0  0  0
   59.2288   30.5262   45.9370 H   0  0  0  0  0  0  0  0  0  0  0  0
   60.4299   31.4352   53.3215 H   0  0  0  0  0  0  0  0  0  0  0  0
   58.8284   29.5385   53.5030 H   0  0  0  0  0  0  0  0  0  0  0  0
  1  2  1  0
  2  3  1  0
  3  4  2  0
  4  5  1  0
  5  6  2  0
  6  7  1  0
  7  8  1  0
  8  9  2  0
  8 10  1  0
 10 11  1  0
 11 12  2  0
 12 13  1  0
 13 14  2  0
 14 15  1  0
 15 16  2  0
 15 17  1  0
 14 18  1  0
 18 19  2  0
 19 20  1  0
 20 21  2  0
 20 22  2  0
 20 23  1  0
 23 24  1  0
 24 25  2  0
 25 26  1  0
 26 27  2  0
 27 28  1  0
 28 29  1  0
 27 30  1  0
 30 31  1  0
 31 32  1  0
 31 33  2  0
 31 34  2  0
 30 35  2  0
  6 36  1  0
 36 37  2  0
 37  3  1  0
 19 11  1  0
 35 24  1  0
  1 38  1  0
  1 39  1  0
  1 40  1  0
  4 41  1  0
  5 42  1  0
 10 43  1  0
 10 44  1  0
 12 45  1  0
 13 46  1  0
 18 47  1  0
 25 48  1  0
 26 49  1  0
 29 50  1  0
 29 51  1  0
 29 52  1  0
 32 53  1  0
 35 54  1  0
 36 55  1  0
 37 56  1  0
M  CHG  4   7  -1  17  -1  23  -1  32  -1
M  END
>  <UniqueID>  (72) 
60

>  <SMILES>  (72) 
COc1ccc([N-]C(=O)Cc2ccc(C(=O)[O-])cc2S(=O)(=O)[N-]c2ccc(OC)c(S([NH-])(=O)=O)c2)cc1

>  <Energy>  (72) 
69.38476329642741

>  <Genealogy>  (72) 
COc1ccc([N-]C(=O)Cc2ccc(C(=O)[O-])cc2S(=O)(=O)[N-]c2ccc(OC)c(S([NH-])(=O)=O)c2)cc1 (protonated)
COc1ccc([N-]C(=O)Cc2ccc(C(=O)[O-])cc2S(=O)(=O)[N-]c2ccc(OC)c(S([NH-])(=O)=O)c2)cc1 (3D coordinates assigned)
COc1ccc([N-]C(=O)Cc2ccc(C(=O)[O-])cc2S(=O)(=O)[N-]c2ccc(OC)c(S([NH-])(=O)=O)c2)cc1 (optimized conformer: 69.38476329642741 kcal/mol)

>  <smiles>  (72) 
COc1ccc(NC(=O)Cc2ccc(C(=O)O)cc2S(=O)(=O)Nc2ccc(OC)c(S(N)(=O)=O)c2)cc1

>  <score_type>  (72) 
oracle

>  <origin>  (72) 
adg

>  <m_score__min__energy>  (72) 
-16.550000000000001

>  <m_primary>  (72) 
energy

$$$$
72:0
     RDKit          3D

 38 40  0  0  0  0  0  0  0  0999 V2000
   56.9423   24.6223   47.6841 H   0  0  0  0  0  0  0  0  0  0  0  0
   57.2910   25.4700   47.0760 C   0  0  0  0  0  0  0  0  0  0  0  0
   56.3580   26.3590   46.0000 S   0  0  0  0  0  0  0  0  0  0  0  0
   57.5710   27.4160   45.5060 C   0  0  0  0  0  0  0  0  0  0  0  0
   57.3750   28.4970   44.5200 C   0  0  0  0  0  0  0  0  0  0  0  0
   57.7030   28.3230   43.3140 O   0  0  0  0  0  0  0  0  0  0  0  0
   56.8100   29.7440   44.9510 N   0  0  0  0  0  0  0  0  0  0  0  0
   57.2170   30.9180   44.5760 C   0  0  0  0  0  0  0  0  0  0  0  0
   57.0370   32.0310   45.2470 O   0  0  0  0  0  0  0  0  0  0  0  0
   57.5940   32.9610   44.5030 C   0  0  0  0  0  0  0  0  0  0  0  0
   57.6500   34.4100   44.8660 C   0  0  0  0  0  0  0  0  0  0  0  0
   56.6260   34.8070   44.9278 H   0  0  0  0  0  0  0  0  0  0  0  0
   58.2205   34.9471   44.0940 H   0  0  0  0  0  0  0  0  0  0  0  0
   58.2990   34.5880   46.1250 O   0  0  0  0  0  0  0  0  0  0  0  0
   59.3350   33.7820   46.6250 C   0  0  0  0  0  0  0  0  0  0  0  0
   59.0920   32.6080   47.3650 C   0  0  0  0  0  0  0  0  0  0  0  0
   58.0580   32.2932   47.5696 H   0  0  0  0  0  0  0  0  0  0  0  0
   60.1600   31.8420   47.8400 C   0  0  0  0  0  0  0  0  0  0  0  0
   59.9643   30.9281   48.4201 H   0  0  0  0  0  0  0  0  0  0  0  0
   61.4760   32.2340   47.5800 C   0  0  0  0  0  0  0  0  0  0  0  0
   62.3134   31.6331   47.9643 H   0  0  0  0  0  0  0  0  0  0  0  0
   61.7320   33.3920   46.8300 C   0  0  0  0  0  0  0  0  0  0  0  0
   63.1440   33.8340   46.5820 C   0  0  0  0  0  0  0  0  0  0  0  0
   63.6527   33.9932   47.5442 H   0  0  0  0  0  0  0  0  0  0  0  0
   63.6756   33.0593   46.0100 H   0  0  0  0  0  0  0  0  0  0  0  0
   63.1390   34.7736   46.0100 H   0  0  0  0  0  0  0  0  0  0  0  0
   60.6570   34.1680   46.3700 C   0  0  0  0  0  0  0  0  0  0  0  0
   60.8548   35.0896   45.8029 H   0  0  0  0  0  0  0  0  0  0  0  0
   58.1330   32.4420   43.3770 N   0  0  0  0  0  0  0  0  0  0  0  0
   57.8840   31.1440   43.4340 N   0  0  0  0  0  0  0  0  0  0  0  0
   58.1660   30.4460   42.7100 H   0  0  0  0  0  0  0  0  0  0  0  0
   58.7450   27.0770   46.1920 C   0  0  0  0  0  0  0  0  0  0  0  0
   60.0610   27.7790   46.0280 C   0  0  0  0  0  0  0  0  0  0  0  0
   60.4826   28.0039   47.0188 H   0  0  0  0  0  0  0  0  0  0  0  0
   60.7553   27.1314   45.4725 H   0  0  0  0  0  0  0  0  0  0  0  0
   59.9099   28.7163   45.4725 H   0  0  0  0  0  0  0  0  0  0  0  0
   58.5780   25.9890   47.0660 C   0  0  0  0  0  0  0  0  0  0  0  0
   59.3928   25.5858   47.6853 H   0  0  0  0  0  0  0  0  0  0  0  0
  1  2  1  0
  2  3  1  0
  3  4  1  0
  4  5  1  0
  5  6  2  0
  5  7  1  0
  7  8  2  0
  8  9  1  0
  9 10  1  0
 10 11  1  0
 11 12  1  0
 11 13  1  0
 11 14  1  0
 14 15  1  0
 15 16  2  0
 16 17  1  0
 16 18  1  0
 18 19  1  0
 18 20  2  0
 20 21  1  0
 20 22  1  0
 22 23  1  0
 23 24  1  0
 23 25  1  0
 23 26  1  0
 22 27  2  0
 27 28  1  0
 10 29  2  0
 29 30  1  0
 30 31  1  0
  4 32  2  0
 32 33  1  0
 33 34  1  0
 33 35  1  0
 33 36  1  0
 32 37  1  0
 37 38  1  0
 37  2  2  0
 30  8  1  0
 27 15  1  0
M  END
>  <UniqueID>  (73) 
61

>  <SMILES>  (73) 
Cc1cccc(OCc2n[nH]/c(=N/C(=O)c3sccc3C)o2)c1

>  <Energy>  (73) 
100.96416817659214

>  <Genealogy>  (73) 
Cc1cccc(OCc2n[nH]/c(=N/C(=O)c3sccc3C)o2)c1 (cis-trans isomerization)
Cc1cccc(OCc2n[nH]/c(=N/C(=O)c3sccc3C)o2)c1 (3D coordinates assigned)
Cc1cccc(OCc2n[nH]/c(=N/C(=O)c3sccc3C)o2)c1 (optimized conformer: 100.96416817659214 kcal/mol)

>  <smiles>  (73) 
Cc1cccc(OCc2n[nH]c(=NC(=O)c3sccc3C)o2)c1

>  <score_type>  (73) 
oracle

>  <origin>  (73) 
adg

>  <m_score__min__energy>  (73) 
-8.3300000000000001

>  <m_primary>  (73) 
energy

$$$$
73:0
     RDKit          3D

 39 41  0  0  0  0  0  0  0  0999 V2000
   63.3520   33.3510   48.8340 C   0  0  0  0  0  0  0  0  0  0  0  0
   62.5480   32.4990   47.4940 S   0  0  0  0  0  0  0  0  0  0  0  0
   63.4010   31.3630   47.0050 O   0  0  0  0  0  0  0  0  0  0  0  0
   62.3420   33.4680   46.3640 O   0  0  0  0  0  0  0  0  0  0  0  0
   61.0000   31.9050   48.0050 N   0  0  0  0  0  0  0  0  0  0  0  0
   59.9550   31.4050   47.1530 C   0  0  0  0  0  0  0  0  0  0  0  0
   59.6940   30.0320   47.0550 C   0  0  0  0  0  0  0  0  0  0  0  0
   58.6790   29.5550   46.2310 C   0  0  0  0  0  0  0  0  0  0  0  0
   57.8930   30.4320   45.4730 C   0  0  0  0  0  0  0  0  0  0  0  0
   56.6140   29.7450   44.4520 S   0  0  0  0  0  0  0  0  0  0  0  0
   57.1820   29.3030   43.1320 O   0  0  0  0  0  0  0  0  0  0  0  0
   55.5610   30.7900   44.2130 O   0  0  0  0  0  0  0  0  0  0  0  0
   55.9280   28.3720   45.2600 N   0  0  0  0  0  0  0  0  0  0  0  0
   56.6130   27.1410   45.5240 C   0  0  0  0  0  0  0  0  0  0  0  0
   55.9950   26.1960   46.3540 C   0  0  0  0  0  0  0  0  0  0  0  0
   56.6280   24.9810   46.6380 C   0  0  0  0  0  0  0  0  0  0  0  0
   57.8840   24.7030   46.0930 C   0  0  0  0  0  0  0  0  0  0  0  0
   58.5120   23.4960   46.3730 O   0  0  0  0  0  0  0  0  0  0  0  0
   58.5080   25.6400   45.2640 C   0  0  0  0  0  0  0  0  0  0  0  0
   57.8790   26.8560   44.9790 C   0  0  0  0  0  0  0  0  0  0  0  0
   58.1380   31.8280   45.5480 C   0  0  0  0  0  0  0  0  0  0  0  0
   57.3810   32.7580   44.8030 C   0  0  0  0  0  0  0  0  0  0  0  0
   57.6400   34.1270   44.8950 C   0  0  0  0  0  0  0  0  0  0  0  0
   58.6540   34.5940   45.7250 C   0  0  0  0  0  0  0  0  0  0  0  0
   59.4190   33.6990   46.4710 C   0  0  0  0  0  0  0  0  0  0  0  0
   59.1780   32.3100   46.3960 C   0  0  0  0  0  0  0  0  0  0  0  0
   62.9818   32.9587   49.7926 H   0  0  0  0  0  0  0  0  0  0  0  0
   64.4388   33.1940   48.7688 H   0  0  0  0  0  0  0  0  0  0  0  0
   63.1324   34.4269   48.7688 H   0  0  0  0  0  0  0  0  0  0  0  0
   60.2994   29.3216   47.6371 H   0  0  0  0  0  0  0  0  0  0  0  0
   58.4912   28.4726   46.1742 H   0  0  0  0  0  0  0  0  0  0  0  0
   55.0060   26.4108   46.7849 H   0  0  0  0  0  0  0  0  0  0  0  0
   56.1366   24.2444   47.2906 H   0  0  0  0  0  0  0  0  0  0  0  0
   59.4966   25.4201   44.8347 H   0  0  0  0  0  0  0  0  0  0  0  0
   58.3745   27.5911   44.3277 H   0  0  0  0  0  0  0  0  0  0  0  0
   56.5777   32.4000   44.1423 H   0  0  0  0  0  0  0  0  0  0  0  0
   57.0400   34.8388   44.3090 H   0  0  0  0  0  0  0  0  0  0  0  0
   58.8528   35.6738   45.7928 H   0  0  0  0  0  0  0  0  0  0  0  0
   60.2183   34.0786   47.1245 H   0  0  0  0  0  0  0  0  0  0  0  0
  1  2  1  0
  2  3  2  0
  2  4  2  0
  2  5  1  0
  5  6  1  0
  6  7  2  0
  7  8  1  0
  8  9  2  0
  9 10  1  0
 10 11  2  0
 10 12  2  0
 10 13  1  0
 13 14  1  0
 14 15  2  0
 15 16  1  0
 16 17  2  0
 17 18  1  0
 17 19  1  0
 19 20  2  0
  9 21  1  0
 21 22  2  0
 22 23  1  0
 23 24  2  0
 24 25  1  0
 25 26  2  0
 26  6  1  0
 20 14  1  0
 26 21  1  0
  1 27  1  0
  1 28  1  0
  1 29  1  0
  7 30  1  0
  8 31  1  0
 15 32  1  0
 16 33  1  0
 19 34  1  0
 20 35  1  0
 22 36  1  0
 23 37  1  0
 24 38  1  0
 25 39  1  0
M  CHG  3   5  -1  13  -1  18  -1
M  END
>  <UniqueID>  (74) 
62

>  <SMILES>  (74) 
CS(=O)(=O)[N-]c1ccc(S(=O)(=O)[N-]c2ccc([O-])cc2)c2ccccc12

>  <Energy>  (74) 
52.42989975587289

>  <Genealogy>  (74) 
CS(=O)(=O)[N-]c1ccc(S(=O)(=O)[N-]c2ccc([O-])cc2)c2ccccc12 (protonated)
CS(=O)(=O)[N-]c1ccc(S(=O)(=O)[N-]c2ccc([O-])cc2)c2ccccc12 (3D coordinates assigned)
CS(=O)(=O)[N-]c1ccc(S(=O)(=O)[N-]c2ccc([O-])cc2)c2ccccc12 (optimized conformer: 52.42989975587289 kcal/mol)

>  <smiles>  (74) 
CS(=O)(=O)Nc1ccc(S(=O)(=O)Nc2ccc(O)cc2)c2ccccc12

>  <score_type>  (74) 
oracle

>  <origin>  (74) 
adg

>  <m_score__min__energy>  (74) 
-13.140000000000001

>  <m_primary>  (74) 
energy

$$$$
74:0
     RDKit          3D

 38 40  0  0  0  0  0  0  0  0999 V2000
   61.1020   28.7720   45.0030 C   0  0  0  0  0  0  0  0  0  0  0  0
   60.8360   29.8120   46.0450 C   0  0  0  0  0  0  0  0  0  0  0  0
   61.8040   30.3690   46.7990 N   0  0  0  0  0  0  0  0  0  0  0  0
   61.2150   31.2330   47.6130 N   0  0  0  0  0  0  0  0  0  0  0  0
   59.8960   31.1990   47.3380 C   0  0  0  0  0  0  0  0  0  0  0  0
   58.8860   32.0320   48.0600 C   0  0  0  0  0  0  0  0  0  0  0  0
   59.6220   30.3140   46.3550 N   0  0  0  0  0  0  0  0  0  0  0  0
   58.3440   29.9720   45.7930 C   0  0  0  0  0  0  0  0  0  0  0  0
   57.6450   30.8970   45.0040 C   0  0  0  0  0  0  0  0  0  0  0  0
   56.4080   30.5580   44.4530 C   0  0  0  0  0  0  0  0  0  0  0  0
   55.8600   29.2920   44.6790 C   0  0  0  0  0  0  0  0  0  0  0  0
   54.6290   28.9690   44.1180 O   0  0  0  0  0  0  0  0  0  0  0  0
   56.5460   28.3530   45.4630 C   0  0  0  0  0  0  0  0  0  0  0  0
   55.9630   27.0580   45.6640 N   0  0  0  0  0  0  0  0  0  0  0  0
   56.7800   25.6920   46.3550 S   0  0  0  0  0  0  0  0  0  0  0  0
   56.0120   25.2080   47.5510 O   0  0  0  0  0  0  0  0  0  0  0  0
   58.1550   26.1120   46.7930 O   0  0  0  0  0  0  0  0  0  0  0  0
   56.8710   24.3890   45.1720 C   0  0  0  0  0  0  0  0  0  0  0  0
   58.0090   23.5750   45.0940 C   0  0  0  0  0  0  0  0  0  0  0  0
   58.0820   22.5600   44.1330 C   0  0  0  0  0  0  0  0  0  0  0  0
   57.0180   22.3540   43.2490 C   0  0  0  0  0  0  0  0  0  0  0  0
   57.0920   21.3700   42.3200 F   0  0  0  0  0  0  0  0  0  0  0  0
   55.8780   23.1640   43.3260 C   0  0  0  0  0  0  0  0  0  0  0  0
   54.8460   22.9660   42.4700 F   0  0  0  0  0  0  0  0  0  0  0  0
   55.8050   24.1790   44.2850 C   0  0  0  0  0  0  0  0  0  0  0  0
   57.7890   28.7040   46.0230 C   0  0  0  0  0  0  0  0  0  0  0  0
   61.3462   27.8173   45.4918 H   0  0  0  0  0  0  0  0  0  0  0  0
   60.2076   28.6445   44.3755 H   0  0  0  0  0  0  0  0  0  0  0  0
   61.9478   29.0896   44.3755 H   0  0  0  0  0  0  0  0  0  0  0  0
   59.0247   31.9176   49.1452 H   0  0  0  0  0  0  0  0  0  0  0  0
   59.0166   33.0885   47.7830 H   0  0  0  0  0  0  0  0  0  0  0  0
   57.8737   31.7027   47.7830 H   0  0  0  0  0  0  0  0  0  0  0  0
   58.0730   31.8932   44.8187 H   0  0  0  0  0  0  0  0  0  0  0  0
   55.8626   31.2896   43.8388 H   0  0  0  0  0  0  0  0  0  0  0  0
   58.8464   23.7340   45.7893 H   0  0  0  0  0  0  0  0  0  0  0  0
   58.9772   21.9236   44.0730 H   0  0  0  0  0  0  0  0  0  0  0  0
   54.9091   24.8145   44.3439 H   0  0  0  0  0  0  0  0  0  0  0  0
   58.3302   27.9774   46.6467 H   0  0  0  0  0  0  0  0  0  0  0  0
  1  2  1  0
  2  3  2  0
  3  4  1  0
  4  5  2  0
  5  6  1  0
  5  7  1  0
  7  8  1  0
  8  9  2  0
  9 10  1  0
 10 11  2  0
 11 12  1  0
 11 13  1  0
 13 14  1  0
 14 15  1  0
 15 16  2  0
 15 17  2  0
 15 18  1  0
 18 19  2  0
 19 20  1  0
 20 21  2  0
 21 22  1  0
 21 23  1  0
 23 24  1  0
 23 25  2  0
 13 26  2  0
  7  2  1  0
 26  8  1  0
 25 18  1  0
  1 27  1  0
  1 28  1  0
  1 29  1  0
  6 30  1  0
  6 31  1  0
  6 32  1  0
  9 33  1  0
 10 34  1  0
 19 35  1  0
 20 36  1  0
 25 37  1  0
 26 38  1  0
M  CHG  2  12  -1  14  -1
M  END
>  <UniqueID>  (75) 
63

>  <SMILES>  (75) 
Cc1nnc(C)n1-c1ccc([O-])c([N-]S(=O)(=O)c2ccc(F)c(F)c2)c1

>  <Energy>  (75) 
81.4495678489661

>  <Genealogy>  (75) 
Cc1nnc(C)n1-c1ccc([O-])c([N-]S(=O)(=O)c2ccc(F)c(F)c2)c1 (protonated)
Cc1nnc(C)n1-c1ccc([O-])c([N-]S(=O)(=O)c2ccc(F)c(F)c2)c1 (3D coordinates assigned)
Cc1nnc(C)n1-c1ccc([O-])c([N-]S(=O)(=O)c2ccc(F)c(F)c2)c1 (optimized conformer: 81.4495678489661 kcal/mol)

>  <smiles>  (75) 
Cc1nnc(C)n1-c1ccc(O)c(NS(=O)(=O)c2ccc(F)c(F)c2)c1

>  <score_type>  (75) 
oracle

>  <origin>  (75) 
adg

>  <m_score__min__energy>  (75) 
-12

>  <m_primary>  (75) 
energy

$$$$
75:0
     RDKit          3D

 51 54  0  0  0  0  0  0  0  0999 V2000
   65.5380   32.7860   49.7700 C   0  0  0  0  0  0  0  0  0  0  0  0
   64.1620   33.2520   49.6580 N   0  0  0  0  0  0  0  0  0  0  0  0
   63.3860   33.8810   50.7190 C   0  0  0  0  0  0  0  0  0  0  0  0
   62.0010   34.1890   50.0950 C   0  0  0  0  0  0  0  0  0  0  0  0
   62.0490   33.6700   48.7280 N   0  0  0  0  0  0  0  0  0  0  0  0
   60.9420   33.6480   47.8040 C   0  0  0  0  0  0  0  0  0  0  0  0
   59.6400   33.3590   48.2480 C   0  0  0  0  0  0  0  0  0  0  0  0
   58.5750   33.3290   47.3450 C   0  0  0  0  0  0  0  0  0  0  0  0
   58.7930   33.5850   45.9840 C   0  0  0  0  0  0  0  0  0  0  0  0
   57.4660   33.4100   44.8380 S   0  0  0  0  0  0  0  0  0  0  0  0
   58.0020   33.3910   43.4350 O   0  0  0  0  0  0  0  0  0  0  0  0
   56.5050   34.5570   44.9740 O   0  0  0  0  0  0  0  0  0  0  0  0
   56.6600   31.9160   45.1610 N   0  0  0  0  0  0  0  0  0  0  0  0
   57.3070   30.6820   44.8590 C   0  0  0  0  0  0  0  0  0  0  0  0
   56.8310   29.8690   43.8230 C   0  0  0  0  0  0  0  0  0  0  0  0
   57.3950   28.6100   43.6050 C   0  0  0  0  0  0  0  0  0  0  0  0
   58.4210   28.1500   44.4350 C   0  0  0  0  0  0  0  0  0  0  0  0
   58.8960   28.9500   45.4880 C   0  0  0  0  0  0  0  0  0  0  0  0
   59.9470   28.4530   46.4030 C   0  0  0  0  0  0  0  0  0  0  0  0
   60.6820   27.5000   46.0280 O   0  0  0  0  0  0  0  0  0  0  0  0
   60.1710   29.0550   47.7400 C   0  0  0  0  0  0  0  0  0  0  0  0
   61.1370   30.0640   47.9070 C   0  0  0  0  0  0  0  0  0  0  0  0
   61.3430   30.6440   49.1620 C   0  0  0  0  0  0  0  0  0  0  0  0
   60.5760   30.2370   50.2580 C   0  0  0  0  0  0  0  0  0  0  0  0
   59.6010   29.2500   50.1000 C   0  0  0  0  0  0  0  0  0  0  0  0
   59.3960   28.6620   48.8480 C   0  0  0  0  0  0  0  0  0  0  0  0
   58.3530   30.2320   45.6740 C   0  0  0  0  0  0  0  0  0  0  0  0
   60.0850   33.8900   45.5390 C   0  0  0  0  0  0  0  0  0  0  0  0
   61.1500   33.9330   46.4440 C   0  0  0  0  0  0  0  0  0  0  0  0
   63.3480   33.1500   48.5120 C   0  0  0  0  0  0  0  0  0  0  0  0
   63.7590   32.7080   47.4050 O   0  0  0  0  0  0  0  0  0  0  0  0
   65.8088   32.6943   50.8322 H   0  0  0  0  0  0  0  0  0  0  0  0
   65.6339   31.8053   49.2812 H   0  0  0  0  0  0  0  0  0  0  0  0
   66.2101   33.5066   49.2812 H   0  0  0  0  0  0  0  0  0  0  0  0
   63.2787   33.1968   51.5736 H   0  0  0  0  0  0  0  0  0  0  0  0
   63.8745   34.7917   51.0958 H   0  0  0  0  0  0  0  0  0  0  0  0
   61.2050   33.6886   50.6659 H   0  0  0  0  0  0  0  0  0  0  0  0
   61.7842   35.2673   50.1087 H   0  0  0  0  0  0  0  0  0  0  0  0
   59.4587   33.1551   49.3136 H   0  0  0  0  0  0  0  0  0  0  0  0
   57.5599   33.1033   47.7035 H   0  0  0  0  0  0  0  0  0  0  0  0
   56.0116   30.2225   43.1799 H   0  0  0  0  0  0  0  0  0  0  0  0
   57.0315   27.9802   42.7796 H   0  0  0  0  0  0  0  0  0  0  0  0
   58.8593   27.1559   44.2630 H   0  0  0  0  0  0  0  0  0  0  0  0
   61.7334   30.3983   47.0453 H   0  0  0  0  0  0  0  0  0  0  0  0
   62.1101   31.4223   49.2877 H   0  0  0  0  0  0  0  0  0  0  0  0
   60.7407   30.6944   51.2447 H   0  0  0  0  0  0  0  0  0  0  0  0
   58.9936   28.9347   50.9612 H   0  0  0  0  0  0  0  0  0  0  0  0
   58.6243   27.8874   48.7279 H   0  0  0  0  0  0  0  0  0  0  0  0
   58.7514   30.8858   46.4638 H   0  0  0  0  0  0  0  0  0  0  0  0
   60.2629   34.0966   44.4733 H   0  0  0  0  0  0  0  0  0  0  0  0
   62.1583   34.1919   46.0885 H   0  0  0  0  0  0  0  0  0  0  0  0
  1  2  1  0
  2  3  1  0
  3  4  1  0
  4  5  1  0
  5  6  1  0
  6  7  2  0
  7  8  1  0
  8  9  2  0
  9 10  1  0
 10 11  2  0
 10 12  2  0
 10 13  1  0
 13 14  1  0
 14 15  2  0
 15 16  1  0
 16 17  2  0
 17 18  1  0
 18 19  1  0
 19 20  2  0
 19 21  1  0
 21 22  2  0
 22 23  1  0
 23 24  2  0
 24 25  1  0
 25 26  2  0
 18 27  2  0
  9 28  1  0
 28 29  2  0
  5 30  1  0
 30 31  2  0
 30  2  1  0
 29  6  1  0
 27 14  1  0
 26 21  1  0
  1 32  1  0
  1 33  1  0
  1 34  1  0
  3 35  1  0
  3 36  1  0
  4 37  1  0
  4 38  1  0
  7 39  1  0
  8 40  1  0
 15 41  1  0
 16 42  1  0
 17 43  1  0
 22 44  1  0
 23 45  1  0
 24 46  1  0
 25 47  1  0
 26 48  1  0
 27 49  1  0
 28 50  1  0
 29 51  1  0
M  CHG  1  13  -1
M  END
>  <UniqueID>  (76) 
64

>  <SMILES>  (76) 
CN1CCN(c2ccc(S(=O)(=O)[N-]c3cccc(C(=O)c4ccccc4)c3)cc2)C1=O

>  <Energy>  (76) 
83.21338218392832

>  <Genealogy>  (76) 
CN1CCN(c2ccc(S(=O)(=O)[N-]c3cccc(C(=O)c4ccccc4)c3)cc2)C1=O (protonated)
CN1CCN(c2ccc(S(=O)(=O)[N-]c3cccc(C(=O)c4ccccc4)c3)cc2)C1=O (3D coordinates assigned)
CN1CCN(c2ccc(S(=O)(=O)[N-]c3cccc(C(=O)c4ccccc4)c3)cc2)C1=O (nonaromatic ring conformer: 83.21338218392832 kcal/mol)

>  <smiles>  (76) 
CN1CCN(c2ccc(S(=O)(=O)Nc3cccc(C(=O)c4ccccc4)c3)cc2)C1=O

>  <score_type>  (76) 
oracle

>  <origin>  (76) 
adg

>  <m_score__min__energy>  (76) 
-11.26

>  <m_primary>  (76) 
energy

$$$$
76:0
     RDKit          3D

 61 64  0  0  0  0  0  0  0  0999 V2000
   60.6500   30.0110   47.4320 C   0  0  0  0  0  0  0  0  0  0  0  0
   59.9570   30.7850   46.3170 C   0  0  0  0  0  0  0  0  0  0  0  0
   59.1670   29.8550   45.4250 C   0  0  0  0  0  0  0  0  0  0  0  0
   59.7110   28.6080   45.0810 C   0  0  0  0  0  0  0  0  0  0  0  0
   59.0060   27.7340   44.2550 C   0  0  0  0  0  0  0  0  0  0  0  0
   57.7650   28.1030   43.7390 C   0  0  0  0  0  0  0  0  0  0  0  0
   57.2140   29.3590   44.0360 C   0  0  0  0  0  0  0  0  0  0  0  0
   55.8950   29.7390   43.4170 C   0  0  0  0  0  0  0  0  0  0  0  0
   57.9060   30.2310   44.9110 C   0  0  0  0  0  0  0  0  0  0  0  0
   57.3750   31.5210   45.2420 N   0  0  0  0  0  0  0  0  0  0  0  0
   57.6140   32.7070   44.4780 C   0  0  0  0  0  0  0  0  0  0  0  0
   57.9510   32.6340   43.2650 O   0  0  0  0  0  0  0  0  0  0  0  0
   57.3600   34.0400   45.1020 C   0  0  0  0  0  0  0  0  0  0  0  0
   58.4260   34.3490   46.0540 N   0  0  0  0  0  0  0  0  0  0  0  0
   59.4670   35.2050   45.8910 C   0  0  0  0  0  0  0  0  0  0  0  0
   59.6130   35.9400   44.8770 O   0  0  0  0  0  0  0  0  0  0  0  0
   60.3200   35.1820   46.8980 O   0  0  0  0  0  0  0  0  0  0  0  0
   59.8490   34.2880   47.7370 C   0  0  0  0  0  0  0  0  0  0  0  0
   60.3860   33.8760   48.9520 C   0  0  0  0  0  0  0  0  0  0  0  0
   59.6920   32.8760   49.6820 C   0  0  0  0  0  0  0  0  0  0  0  0
   60.1970   32.3850   50.9920 C   0  0  0  0  0  0  0  0  0  0  0  0
   60.1150   33.1470   51.9960 O   0  0  0  0  0  0  0  0  0  0  0  0
   60.7530   31.0550   51.1480 N   0  0  2  0  0  0  0  0  0  0  0  0
   59.8000   30.2180   51.8970 C   0  0  0  0  0  0  0  0  0  0  0  0
   62.0670   31.1250   51.8300 C   0  0  0  0  0  0  0  0  0  0  0  0
   63.1100   31.8080   50.9770 C   0  0  0  0  0  0  0  0  0  0  0  0
   64.3680   32.1330   51.5100 C   0  0  0  0  0  0  0  0  0  0  0  0
   65.3370   32.7430   50.7090 C   0  0  0  0  0  0  0  0  0  0  0  0
   65.0590   33.0310   49.3700 C   0  0  0  0  0  0  0  0  0  0  0  0
   63.8120   32.7070   48.8290 C   0  0  0  0  0  0  0  0  0  0  0  0
   63.4350   33.0970   46.9970 Br  0  0  0  0  0  0  0  0  0  0  0  0
   62.8400   32.0960   49.6280 C   0  0  0  0  0  0  0  0  0  0  0  0
   58.5030   32.3170   49.1360 C   0  0  0  0  0  0  0  0  0  0  0  0
   57.9930   32.7590   47.9010 C   0  0  0  0  0  0  0  0  0  0  0  0
   58.6950   33.7600   47.2340 C   0  0  0  0  0  0  0  0  0  0  0  0
   60.3106   30.3901   48.4072 H   0  0  0  0  0  0  0  0  0  0  0  0
   60.4007   28.9430   47.3468 H   0  0  0  0  0  0  0  0  0  0  0  0
   61.7389   30.1412   47.3468 H   0  0  0  0  0  0  0  0  0  0  0  0
   59.2741   31.5236   46.7620 H   0  0  0  0  0  0  0  0  0  0  0  0
   60.7237   31.2878   45.7092 H   0  0  0  0  0  0  0  0  0  0  0  0
   60.7000   28.3184   45.4656 H   0  0  0  0  0  0  0  0  0  0  0  0
   59.4307   26.7494   44.0095 H   0  0  0  0  0  0  0  0  0  0  0  0
   57.2129   27.4040   43.0936 H   0  0  0  0  0  0  0  0  0  0  0  0
   55.1641   29.9496   44.2117 H   0  0  0  0  0  0  0  0  0  0  0  0
   56.0273   30.6356   42.7936 H   0  0  0  0  0  0  0  0  0  0  0  0
   55.5300   28.9095   42.7936 H   0  0  0  0  0  0  0  0  0  0  0  0
   57.3343   34.8117   44.3185 H   0  0  0  0  0  0  0  0  0  0  0  0
   56.3951   34.0176   45.6298 H   0  0  0  0  0  0  0  0  0  0  0  0
   61.3203   34.3119   49.3356 H   0  0  0  0  0  0  0  0  0  0  0  0
   60.9060   30.6280   50.2060 H   0  0  0  0  0  0  0  0  0  0  0  0
   59.9590   30.3576   52.9765 H   0  0  0  0  0  0  0  0  0  0  0  0
   58.7720   30.5105   51.6369 H   0  0  0  0  0  0  0  0  0  0  0  0
   59.9574   29.1608   51.6369 H   0  0  0  0  0  0  0  0  0  0  0  0
   61.9510   31.6876   52.7681 H   0  0  0  0  0  0  0  0  0  0  0  0
   62.4055   30.0964   52.0231 H   0  0  0  0  0  0  0  0  0  0  0  0
   64.5916   31.9063   52.5629 H   0  0  0  0  0  0  0  0  0  0  0  0
   66.3198   32.9968   51.1329 H   0  0  0  0  0  0  0  0  0  0  0  0
   65.8223   33.5130   48.7415 H   0  0  0  0  0  0  0  0  0  0  0  0
   61.8601   31.8398   49.1988 H   0  0  0  0  0  0  0  0  0  0  0  0
   57.9737   31.5264   49.6882 H   0  0  0  0  0  0  0  0  0  0  0  0
   57.0731   32.3293   47.4778 H   0  0  0  0  0  0  0  0  0  0  0  0
  1  2  1  0
  2  3  1  0
  3  4  2  0
  4  5  1  0
  5  6  2  0
  6  7  1  0
  7  8  1  0
  7  9  2  0
  9 10  1  0
 10 11  1  0
 11 12  2  0
 11 13  1  0
 13 14  1  0
 14 15  1  0
 15 16  2  0
 15 17  1  0
 17 18  1  0
 18 19  2  0
 19 20  1  0
 20 21  1  0
 21 22  2  0
 21 23  1  0
 23 24  1  0
 23 25  1  0
 25 26  1  0
 26 27  2  0
 27 28  1  0
 28 29  2  0
 29 30  1  0
 30 31  1  0
 30 32  2  0
 20 33  2  0
 33 34  1  0
 34 35  2  0
  9  3  1  0
 35 14  1  0
 35 18  1  0
 32 26  1  0
  1 36  1  0
  1 37  1  0
  1 38  1  0
  2 39  1  0
  2 40  1  0
  4 41  1  0
  5 42  1  0
  6 43  1  0
  8 44  1  0
  8 45  1  0
  8 46  1  0
 13 47  1  0
 13 48  1  0
 19 49  1  0
 23 50  1  6
 24 51  1  0
 24 52  1  0
 24 53  1  0
 25 54  1  0
 25 55  1  0
 27 56  1  0
 28 57  1  0
 29 58  1  0
 32 59  1  0
 33 60  1  0
 34 61  1  0
M  CHG  2  10  -1  23   1
M  END
>  <UniqueID>  (77) 
65

>  <SMILES>  (77) 
CCc1cccc(C)c1[N-]C(=O)Cn1c(=O)oc2cc(C(=O)[N@H+](C)Cc3cccc(Br)c3)ccc21

>  <Energy>  (77) 
112.47415046996983

>  <Genealogy>  (77) 
CCc1cccc(C)c1[N-]C(=O)Cn1c(=O)oc2cc(C(=O)[NH+](C)Cc3cccc(Br)c3)ccc21 (protonated)
CCc1cccc(C)c1[N-]C(=O)Cn1c(=O)oc2cc(C(=O)[N@H+](C)Cc3cccc(Br)c3)ccc21 (chirality)
CCc1cccc(C)c1[N-]C(=O)Cn1c(=O)oc2cc(C(=O)[N@H+](C)Cc3cccc(Br)c3)ccc21 (3D coordinates assigned)
CCc1cccc(C)c1[N-]C(=O)Cn1c(=O)oc2cc(C(=O)[N@H+](C)Cc3cccc(Br)c3)ccc21 (optimized conformer: 112.47415046996983 kcal/mol)

>  <smiles>  (77) 
CCc1cccc(C)c1NC(=O)Cn1c(=O)oc2cc(C(=O)N(C)Cc3cccc(Br)c3)ccc21

>  <score_type>  (77) 
oracle

>  <origin>  (77) 
adg

>  <m_score__min__energy>  (77) 
-10.31

>  <m_primary>  (77) 
energy

$$$$
77:0
     RDKit          3D

 56 59  0  0  0  0  0  0  0  0999 V2000
   55.5390   28.9030   45.1040 N   0  0  0  0  0  0  0  0  0  0  0  0
   56.5520   30.1320   44.4350 S   0  0  0  0  0  0  0  0  0  0  0  0
   55.8350   31.4520   44.4860 O   0  0  0  0  0  0  0  0  0  0  0  0
   56.8580   29.8060   43.0000 O   0  0  0  0  0  0  0  0  0  0  0  0
   58.0470   30.2300   45.3580 C   0  0  0  0  0  0  0  0  0  0  0  0
   58.2920   31.3320   46.1870 C   0  0  0  0  0  0  0  0  0  0  0  0
   59.4880   31.4220   46.9030 C   0  0  0  0  0  0  0  0  0  0  0  0
   60.4590   30.4140   46.7910 C   0  0  0  0  0  0  0  0  0  0  0  0
   61.7540   30.5270   47.5530 C   0  0  0  0  0  0  0  0  0  0  0  0
   61.5170   30.3860   48.9910 N   0  0  0  0  0  0  0  0  0  0  0  0
   60.7000   31.2810   49.7700 C   0  0  0  0  0  0  0  0  0  0  0  0
   60.9660   32.6610   49.8310 C   0  0  0  0  0  0  0  0  0  0  0  0
   60.1520   33.5080   50.5860 C   0  0  0  0  0  0  0  0  0  0  0  0
   59.0600   32.9900   51.2940 C   0  0  0  0  0  0  0  0  0  0  0  0
   58.2340   33.8290   52.0480 C   0  0  0  0  0  0  0  0  0  0  0  0
   57.1780   33.3150   52.7280 N   0  0  0  0  0  0  0  0  0  0  0  0
   56.8820   31.9890   52.7020 C   0  0  0  0  0  0  0  0  0  0  0  0
   57.6740   31.0950   51.9580 C   0  0  0  0  0  0  0  0  0  0  0  0
   57.3940   29.7160   51.9030 O   0  0  0  0  0  0  0  0  0  0  0  0
   57.6410   28.7790   52.9500 C   0  0  0  0  0  0  0  0  0  0  0  0
   56.3630   28.4070   53.6340 C   0  0  0  0  0  0  0  0  0  0  0  0
   56.3890   27.9810   54.8200 O   0  0  0  0  0  0  0  0  0  0  0  0
   55.1200   28.5600   52.9450 N   0  0  0  0  0  0  0  0  0  0  0  0
   53.7570   29.3540   53.6600 S   0  0  0  0  0  0  0  0  0  0  0  0
   52.8690   28.3300   54.3050 O   0  0  0  0  0  0  0  0  0  0  0  0
   54.2470   30.3110   54.7110 O   0  0  0  0  0  0  0  0  0  0  0  0
   52.8440   30.2070   52.4200 C   0  0  0  0  0  0  0  0  0  0  0  0
   52.8240   29.7140   51.1070 C   0  0  0  0  0  0  0  0  0  0  0  0
   52.1060   30.3870   50.1140 C   0  0  0  0  0  0  0  0  0  0  0  0
   52.0930   29.9070   48.8450 F   0  0  0  0  0  0  0  0  0  0  0  0
   51.4030   31.5560   50.4280 C   0  0  0  0  0  0  0  0  0  0  0  0
   50.7110   32.2130   49.4630 F   0  0  0  0  0  0  0  0  0  0  0  0
   51.4160   32.0490   51.7370 C   0  0  0  0  0  0  0  0  0  0  0  0
   50.7320   33.1790   52.0450 F   0  0  0  0  0  0  0  0  0  0  0  0
   52.1340   31.3760   52.7320 C   0  0  0  0  0  0  0  0  0  0  0  0
   58.7810   31.6040   51.2490 C   0  0  0  0  0  0  0  0  0  0  0  0
   59.6120   30.7610   50.4900 C   0  0  0  0  0  0  0  0  0  0  0  0
   60.2080   29.3080   45.9630 C   0  0  0  0  0  0  0  0  0  0  0  0
   59.0110   29.2190   45.2470 C   0  0  0  0  0  0  0  0  0  0  0  0
   54.6130   29.3460   45.3000 H   0  0  0  0  0  0  0  0  0  0  0  0
   57.5397   32.1297   46.2746 H   0  0  0  0  0  0  0  0  0  0  0  0
   59.6700   32.2869   47.5579 H   0  0  0  0  0  0  0  0  0  0  0  0
   62.4403   29.7346   47.2199 H   0  0  0  0  0  0  0  0  0  0  0  0
   62.1948   31.5162   47.3605 H   0  0  0  0  0  0  0  0  0  0  0  0
   61.8980   29.5290   49.4530 H   0  0  0  0  0  0  0  0  0  0  0  0
   61.8223   33.0763   49.2794 H   0  0  0  0  0  0  0  0  0  0  0  0
   60.3691   34.5857   50.6249 H   0  0  0  0  0  0  0  0  0  0  0  0
   58.4406   34.9086   52.0902 H   0  0  0  0  0  0  0  0  0  0  0  0
   56.0168   31.6117   53.2668 H   0  0  0  0  0  0  0  0  0  0  0  0
   58.1005   27.8744   52.5251 H   0  0  0  0  0  0  0  0  0  0  0  0
   58.3172   29.2385   53.6859 H   0  0  0  0  0  0  0  0  0  0  0  0
   53.3749   28.7951   50.8579 H   0  0  0  0  0  0  0  0  0  0  0  0
   52.1417   31.7645   53.7611 H   0  0  0  0  0  0  0  0  0  0  0  0
   59.4073   29.6806   50.4598 H   0  0  0  0  0  0  0  0  0  0  0  0
   60.9575   28.5074   45.8774 H   0  0  0  0  0  0  0  0  0  0  0  0
   58.8251   28.3531   44.5946 H   0  0  0  0  0  0  0  0  0  0  0  0
  1  2  1  0
  2  3  2  0
  2  4  2  0
  2  5  1  0
  5  6  2  0
  6  7  1  0
  7  8  2  0
  8  9  1  0
  9 10  1  0
 10 11  1  0
 11 12  2  0
 12 13  1  0
 13 14  2  0
 14 15  1  0
 15 16  2  0
 16 17  1  0
 17 18  2  0
 18 19  1  0
 19 20  1  0
 20 21  1  0
 21 22  2  0
 21 23  1  0
 23 24  1  0
 24 25  2  0
 24 26  2  0
 24 27  1  0
 27 28  2  0
 28 29  1  0
 29 30  1  0
 29 31  2  0
 31 32  1  0
 31 33  1  0
 33 34  1  0
 33 35  2  0
 18 36  1  0
 36 37  2  0
  8 38  1  0
 38 39  2  0
 39  5  1  0
 37 11  1  0
 36 14  1  0
 35 27  1  0
  1 40  1  0
  6 41  1  0
  7 42  1  0
  9 43  1  0
  9 44  1  0
 10 45  1  0
 12 46  1  0
 13 47  1  0
 15 48  1  0
 17 49  1  0
 20 50  1  0
 20 51  1  0
 28 52  1  0
 35 53  1  0
 37 54  1  0
 38 55  1  0
 39 56  1  0
M  CHG  2   1  -1  23  -1
M  END
>  <UniqueID>  (78) 
66

>  <SMILES>  (78) 
[NH-]S(=O)(=O)c1ccc(CNc2ccc3cncc(OCC(=O)[N-]S(=O)(=O)c4cc(F)c(F)c(F)c4)c3c2)cc1

>  <Energy>  (78) 
65.61502834949484

>  <Genealogy>  (78) 
[NH-]S(=O)(=O)c1ccc(CNc2ccc3cncc(OCC(=O)[N-]S(=O)(=O)c4cc(F)c(F)c(F)c4)c3c2)cc1 (protonated)
[NH-]S(=O)(=O)c1ccc(CNc2ccc3cncc(OCC(=O)[N-]S(=O)(=O)c4cc(F)c(F)c(F)c4)c3c2)cc1 (3D coordinates assigned)
[NH-]S(=O)(=O)c1ccc(CNc2ccc3cncc(OCC(=O)[N-]S(=O)(=O)c4cc(F)c(F)c(F)c4)c3c2)cc1 (optimized conformer: 65.61502834949484 kcal/mol)

>  <smiles>  (78) 
NS(=O)(=O)c1ccc(CNc2ccc3cncc(OCC(=O)NS(=O)(=O)c4cc(F)c(F)c(F)c4)c3c2)cc1

>  <score_type>  (78) 
oracle

>  <origin>  (78) 
adg

>  <m_score__min__energy>  (78) 
-14.18

>  <m_primary>  (78) 
energy

$$$$
78:0
     RDKit          3D

 53 56  0  0  0  0  0  0  0  0999 V2000
   51.8060   21.8274   45.7604 H   0  0  0  0  0  0  0  0  0  0  0  0
   52.4860   22.6920   45.7650 C   0  0  0  0  0  0  0  0  0  0  0  0
   53.9860   22.7680   46.5220 S   0  0  0  0  0  0  0  0  0  0  0  0
   54.2800   24.3510   46.0110 C   0  0  0  0  0  0  0  0  0  0  0  0
   55.3280   25.0700   46.2910 N   0  0  0  0  0  0  0  0  0  0  0  0
   56.5380   25.1340   45.5230 C   0  0  0  0  0  0  0  0  0  0  0  0
   56.7970   24.1950   44.7230 O   0  0  0  0  0  0  0  0  0  0  0  0
   57.5120   26.2360   45.6880 C   0  0  0  0  0  0  0  0  0  0  0  0
   57.0690   27.5590   45.8510 C   0  0  0  0  0  0  0  0  0  0  0  0
   55.9938   27.7858   45.8015 H   0  0  0  0  0  0  0  0  0  0  0  0
   57.9880   28.5900   46.0760 C   0  0  0  0  0  0  0  0  0  0  0  0
   57.6319   29.6236   46.1976 H   0  0  0  0  0  0  0  0  0  0  0  0
   59.3560   28.3130   46.1470 C   0  0  0  0  0  0  0  0  0  0  0  0
   60.2430   29.3550   46.4480 O   0  0  0  0  0  0  0  0  0  0  0  0
   59.9400   30.4170   47.3100 C   0  0  0  0  0  0  0  0  0  0  0  0
   59.3550   30.1940   48.5170 N   0  0  0  0  0  0  0  0  0  0  0  0
   59.0090   31.2200   49.3380 C   0  0  0  0  0  0  0  0  0  0  0  0
   58.3990   30.9730   50.5700 O   0  0  0  0  0  0  0  0  0  0  0  0
   57.7310   31.9880   51.3110 C   0  0  0  0  0  0  0  0  0  0  0  0
   57.8557   31.7984   52.3873 H   0  0  0  0  0  0  0  0  0  0  0  0
   58.1607   32.9688   51.0592 H   0  0  0  0  0  0  0  0  0  0  0  0
   56.6602   31.9813   51.0592 H   0  0  0  0  0  0  0  0  0  0  0  0
   59.2300   32.5000   48.9440 N   0  0  0  0  0  0  0  0  0  0  0  0
   59.8040   32.7780   47.7430 C   0  0  0  0  0  0  0  0  0  0  0  0
   59.8850   34.2000   47.2750 C   0  0  0  0  0  0  0  0  0  0  0  0
   59.7516   34.8710   48.1364 H   0  0  0  0  0  0  0  0  0  0  0  0
   60.8691   34.3621   46.8110 H   0  0  0  0  0  0  0  0  0  0  0  0
   58.8480   34.4820   46.2830 N   0  0  0  0  0  0  0  0  0  0  0  0
   57.7280   33.6170   46.0640 C   0  0  0  0  0  0  0  0  0  0  0  0
   56.8280   33.5500   46.9420 O   0  0  0  0  0  0  0  0  0  0  0  0
   57.6180   32.8080   44.8320 C   0  0  0  0  0  0  0  0  0  0  0  0
   58.2900   33.2030   43.6640 C   0  0  0  0  0  0  0  0  0  0  0  0
   58.9454   34.0863   43.6816 H   0  0  0  0  0  0  0  0  0  0  0  0
   58.1300   32.4790   42.4790 C   0  0  0  0  0  0  0  0  0  0  0  0
   58.6557   32.7972   41.5667 H   0  0  0  0  0  0  0  0  0  0  0  0
   57.3040   31.3520   42.4500 C   0  0  0  0  0  0  0  0  0  0  0  0
   57.1750   30.7909   41.5127 H   0  0  0  0  0  0  0  0  0  0  0  0
   56.6390   30.9340   43.6120 C   0  0  0  0  0  0  0  0  0  0  0  0
   55.7560   29.7220   43.5680 C   0  0  0  0  0  0  0  0  0  0  0  0
   55.5223   29.4012   44.5939 H   0  0  0  0  0  0  0  0  0  0  0  0
   54.8232   29.9669   43.0389 H   0  0  0  0  0  0  0  0  0  0  0  0
   56.2751   28.9092   43.0389 H   0  0  0  0  0  0  0  0  0  0  0  0
   56.8190   31.6510   44.8050 C   0  0  0  0  0  0  0  0  0  0  0  0
   56.3305   31.3047   45.7277 H   0  0  0  0  0  0  0  0  0  0  0  0
   60.1850   31.7280   46.8980 C   0  0  0  0  0  0  0  0  0  0  0  0
   60.6669   31.9321   45.9305 H   0  0  0  0  0  0  0  0  0  0  0  0
   59.8080   27.0040   45.9090 C   0  0  0  0  0  0  0  0  0  0  0  0
   60.8869   26.7899   45.9015 H   0  0  0  0  0  0  0  0  0  0  0  0
   58.8930   25.9740   45.6820 C   0  0  0  0  0  0  0  0  0  0  0  0
   59.2549   24.9518   45.4974 H   0  0  0  0  0  0  0  0  0  0  0  0
   53.2500   24.8370   45.2880 N   0  0  0  0  0  0  0  0  0  0  0  0
   52.2580   23.9160   45.1460 C   0  0  0  0  0  0  0  0  0  0  0  0
   50.6670   24.2960   44.1670 Br  0  0  0  0  0  0  0  0  0  0  0  0
  1  2  1  0
  2  3  1  0
  3  4  1  0
  4  5  2  0
  5  6  1  0
  6  7  2  0
  6  8  1  0
  8  9  2  0
  9 10  1  0
  9 11  1  0
 11 12  1  0
 11 13  2  0
 13 14  1  0
 14 15  1  0
 15 16  2  0
 16 17  1  0
 17 18  1  0
 18 19  1  0
 19 20  1  0
 19 21  1  0
 19 22  1  0
 17 23  2  0
 23 24  1  0
 24 25  1  0
 25 26  1  0
 25 27  1  0
 25 28  1  0
 28 29  1  0
 29 30  2  0
 29 31  1  0
 31 32  2  0
 32 33  1  0
 32 34  1  0
 34 35  1  0
 34 36  2  0
 36 37  1  0
 36 38  1  0
 38 39  1  0
 39 40  1  0
 39 41  1  0
 39 42  1  0
 38 43  2  0
 43 44  1  0
 24 45  2  0
 45 46  1  0
 13 47  1  0
 47 48  1  0
 47 49  2  0
 49 50  1  0
  4 51  1  0
 51 52  1  0
 52 53  1  0
 52  2  2  0
 49  8  1  0
 45 15  1  0
 43 31  1  0
M  CHG  2  28  -1  51  -1
M  END
>  <UniqueID>  (79) 
67

>  <SMILES>  (79) 
COc1nc(C[N-]C(=O)c2cccc(C)c2)cc(Oc2ccc(C(=O)/N=c3/[n-]c(Br)cs3)cc2)n1

>  <Energy>  (79) 
100.73237623484505

>  <Genealogy>  (79) 
COc1nc(C[N-]C(=O)c2cccc(C)c2)cc(Oc2ccc(C(=O)N=c3[n-]c(Br)cs3)cc2)n1 (protonated)
COc1nc(C[N-]C(=O)c2cccc(C)c2)cc(Oc2ccc(C(=O)/N=c3/[n-]c(Br)cs3)cc2)n1 (cis-trans isomerization)
COc1nc(C[N-]C(=O)c2cccc(C)c2)cc(Oc2ccc(C(=O)/N=c3/[n-]c(Br)cs3)cc2)n1 (3D coordinates assigned)
COc1nc(C[N-]C(=O)c2cccc(C)c2)cc(Oc2ccc(C(=O)/N=c3/[n-]c(Br)cs3)cc2)n1 (optimized conformer: 100.73237623484505 kcal/mol)

>  <smiles>  (79) 
COc1nc(CNC(=O)c2cccc(C)c2)cc(Oc2ccc(C(=O)N=c3[nH]c(Br)cs3)cc2)n1

>  <score_type>  (79) 
oracle

>  <origin>  (79) 
adg

>  <m_score__min__energy>  (79) 
-11.24

>  <m_primary>  (79) 
energy

$$$$
79:0
     RDKit          3D

 70 73  0  0  0  0  0  0  0  0999 V2000
   55.3430   26.6860   45.9720 O   0  0  0  0  0  0  0  0  0  0  0  0
   54.9880   25.4830   45.8580 C   0  0  0  0  0  0  0  0  0  0  0  0
   53.6500   25.1890   45.6220 O   0  0  0  0  0  0  0  0  0  0  0  0
   56.0250   24.3790   45.9220 C   0  0  1  0  0  0  0  0  0  0  0  0
   55.5430   23.1210   45.1440 C   0  0  0  0  0  0  0  0  0  0  0  0
   56.3370   22.8280   43.8570 C   0  0  0  0  0  0  0  0  0  0  0  0
   56.6610   24.1080   43.0730 C   0  0  0  0  0  0  0  0  0  0  0  0
   57.4200   25.1590   43.9140 C   0  0  0  0  0  0  0  0  0  0  0  0
   57.4230   24.8500   45.4320 C   0  0  1  0  0  0  0  0  0  0  0  0
   57.9480   26.0230   46.2440 C   0  0  0  0  0  0  0  0  0  0  0  0
   57.6860   26.0890   47.4730 O   0  0  0  0  0  0  0  0  0  0  0  0
   58.7730   27.0510   45.6820 N   0  0  0  0  0  0  0  0  0  0  0  0
   59.1000   28.3440   46.2810 C   0  0  1  0  0  0  0  0  0  0  0  0
   57.8300   29.2200   46.3720 C   0  0  0  0  0  0  0  0  0  0  0  0
   57.5090   29.9500   45.0870 C   0  0  0  0  0  0  0  0  0  0  0  0
   58.1110   31.1900   44.8070 C   0  0  0  0  0  0  0  0  0  0  0  0
   57.8720   31.8300   43.5860 C   0  0  0  0  0  0  0  0  0  0  0  0
   57.0350   31.2360   42.6380 C   0  0  0  0  0  0  0  0  0  0  0  0
   56.4300   30.0050   42.9100 C   0  0  0  0  0  0  0  0  0  0  0  0
   56.6770   29.3580   44.1230 C   0  0  0  0  0  0  0  0  0  0  0  0
   59.7330   28.1200   47.6370 C   0  0  0  0  0  0  0  0  0  0  0  0
   60.2590   26.9990   47.8690 O   0  0  0  0  0  0  0  0  0  0  0  0
   59.8200   29.1590   48.6330 N   0  0  0  0  0  0  0  0  0  0  0  0
   58.6440   29.9450   49.0270 C   0  0  0  0  0  0  0  0  0  0  0  0
   59.0370   31.4080   49.2310 C   0  0  0  0  0  0  0  0  0  0  0  0
   60.2630   31.5420   50.0340 N   0  0  0  0  0  0  0  0  0  0  0  0
   60.6780   32.8460   50.4990 C   0  0  0  0  0  0  0  0  0  0  0  0
   61.5140   32.9380   51.4460 O   0  0  0  0  0  0  0  0  0  0  0  0
   60.0850   34.1110   49.9300 C   0  0  0  0  0  0  0  0  0  0  0  0
   60.1090   34.1110   48.4210 C   0  0  0  0  0  0  0  0  0  0  0  0
   61.2950   33.7940   47.7350 C   0  0  0  0  0  0  0  0  0  0  0  0
   61.3330   33.8410   46.3390 C   0  0  0  0  0  0  0  0  0  0  0  0
   60.1900   34.2000   45.6190 C   0  0  0  0  0  0  0  0  0  0  0  0
   59.0070   34.5130   46.2940 C   0  0  0  0  0  0  0  0  0  0  0  0
   58.9650   34.4720   47.6900 C   0  0  0  0  0  0  0  0  0  0  0  0
   60.9580   30.3370   50.5130 C   0  0  0  0  0  0  0  0  0  0  0  0
   61.0730   29.2940   49.3940 C   0  0  0  0  0  0  0  0  0  0  0  0
   56.1417   24.1042   46.9807 H   0  0  0  0  0  0  0  0  0  0  0  0
   55.6319   22.2496   45.8094 H   0  0  0  0  0  0  0  0  0  0  0  0
   54.5060   23.3199   44.8356 H   0  0  0  0  0  0  0  0  0  0  0  0
   57.2797   22.3299   44.1277 H   0  0  0  0  0  0  0  0  0  0  0  0
   55.7159   22.1861   43.2150 H   0  0  0  0  0  0  0  0  0  0  0  0
   57.2817   23.8394   42.2055 H   0  0  0  0  0  0  0  0  0  0  0  0
   55.7040   24.5587   42.7714 H   0  0  0  0  0  0  0  0  0  0  0  0
   58.4623   25.1980   43.5645 H   0  0  0  0  0  0  0  0  0  0  0  0
   56.8991   26.1185   43.7799 H   0  0  0  0  0  0  0  0  0  0  0  0
   58.1188   24.0138   45.5954 H   0  0  0  0  0  0  0  0  0  0  0  0
   59.8241   28.8817   45.6513 H   0  0  0  0  0  0  0  0  0  0  0  0
   56.9779   28.5729   46.6273 H   0  0  0  0  0  0  0  0  0  0  0  0
   58.0177   29.9841   47.1407 H   0  0  0  0  0  0  0  0  0  0  0  0
   58.7723   31.6584   45.5509 H   0  0  0  0  0  0  0  0  0  0  0  0
   58.3431   32.8008   43.3724 H   0  0  0  0  0  0  0  0  0  0  0  0
   56.8517   31.7374   41.6763 H   0  0  0  0  0  0  0  0  0  0  0  0
   55.7594   29.5461   42.1686 H   0  0  0  0  0  0  0  0  0  0  0  0
   56.2172   28.3792   44.3243 H   0  0  0  0  0  0  0  0  0  0  0  0
   57.8810   29.8795   48.2374 H   0  0  0  0  0  0  0  0  0  0  0  0
   58.2414   29.5447   49.9692 H   0  0  0  0  0  0  0  0  0  0  0  0
   59.2041   31.8714   48.2475 H   0  0  0  0  0  0  0  0  0  0  0  0
   58.2198   31.9074   49.7721 H   0  0  0  0  0  0  0  0  0  0  0  0
   59.0425   34.1999   50.2697 H   0  0  0  0  0  0  0  0  0  0  0  0
   60.6888   34.9604   50.2819 H   0  0  0  0  0  0  0  0  0  0  0  0
   62.1952   33.5083   48.2989 H   0  0  0  0  0  0  0  0  0  0  0  0
   62.2634   33.5952   45.8061 H   0  0  0  0  0  0  0  0  0  0  0  0
   60.2217   34.2362   44.5201 H   0  0  0  0  0  0  0  0  0  0  0  0
   58.1076   34.7920   45.7254 H   0  0  0  0  0  0  0  0  0  0  0  0
   58.0334   34.7231   48.2182 H   0  0  0  0  0  0  0  0  0  0  0  0
   61.9668   30.6137   50.8533 H   0  0  0  0  0  0  0  0  0  0  0  0
   60.3802   29.9026   51.3421 H   0  0  0  0  0  0  0  0  0  0  0  0
   61.8751   29.5989   48.7058 H   0  0  0  0  0  0  0  0  0  0  0  0
   61.2943   28.3216   49.8582 H   0  0  0  0  0  0  0  0  0  0  0  0
  1  2  2  0
  2  3  1  0
  2  4  1  0
  4  5  1  0
  5  6  1  0
  6  7  1  0
  7  8  1  0
  8  9  1  0
  9 10  1  0
 10 11  2  0
 10 12  1  0
 12 13  1  0
 13 14  1  0
 14 15  1  0
 15 16  2  0
 16 17  1  0
 17 18  2  0
 18 19  1  0
 19 20  2  0
 13 21  1  0
 21 22  2  0
 21 23  1  0
 23 24  1  0
 24 25  1  0
 25 26  1  0
 26 27  1  0
 27 28  2  0
 27 29  1  0
 29 30  1  0
 30 31  2  0
 31 32  1  0
 32 33  2  0
 33 34  1  0
 34 35  2  0
 26 36  1  0
 36 37  1  0
  9  4  1  0
 20 15  1  0
 37 23  1  0
 35 30  1  0
  4 38  1  1
  5 39  1  0
  5 40  1  0
  6 41  1  0
  6 42  1  0
  7 43  1  0
  7 44  1  0
  8 45  1  0
  8 46  1  0
  9 47  1  6
 13 48  1  6
 14 49  1  0
 14 50  1  0
 16 51  1  0
 17 52  1  0
 18 53  1  0
 19 54  1  0
 20 55  1  0
 24 56  1  0
 24 57  1  0
 25 58  1  0
 25 59  1  0
 29 60  1  0
 29 61  1  0
 31 62  1  0
 32 63  1  0
 33 64  1  0
 34 65  1  0
 35 66  1  0
 36 67  1  0
 36 68  1  0
 37 69  1  0
 37 70  1  0
M  CHG  2   3  -1  12  -1
M  END
>  <UniqueID>  (80) 
68

>  <SMILES>  (80) 
O=C([O-])[C@H]1CCCC[C@H]1C(=O)[N-]C(Cc1ccccc1)C(=O)N1CCN(C(=O)Cc2ccccc2)CC1

>  <Energy>  (80) 
79.01001556203025

>  <Genealogy>  (80) 
O=C([O-])C1CCCCC1C(=O)[N-]C(Cc1ccccc1)C(=O)N1CCN(C(=O)Cc2ccccc2)CC1 (protonated)
O=C([O-])[C@H]1CCCC[C@H]1C(=O)[N-]C(Cc1ccccc1)C(=O)N1CCN(C(=O)Cc2ccccc2)CC1 (chirality)
O=C([O-])[C@H]1CCCC[C@H]1C(=O)[N-]C(Cc1ccccc1)C(=O)N1CCN(C(=O)Cc2ccccc2)CC1 (3D coordinates assigned)
O=C([O-])[C@H]1CCCC[C@H]1C(=O)[N-]C(Cc1ccccc1)C(=O)N1CCN(C(=O)Cc2ccccc2)CC1 (nonaromatic ring conformer: 79.01001556203025 kcal/mol)

>  <smiles>  (80) 
O=C(O)C1CCCCC1C(=O)NC(Cc1ccccc1)C(=O)N1CCN(C(=O)Cc2ccccc2)CC1

>  <score_type>  (80) 
oracle

>  <origin>  (80) 
adg

>  <m_score__min__energy>  (80) 
-14.289999999999999

>  <m_primary>  (80) 
energy

$$$$
80:0
     RDKit          3D

 40 41  0  0  0  0  0  0  0  0999 V2000
   56.5649   34.4954   45.4311 H   0  0  0  0  0  0  0  0  0  0  0  0
   57.4530   33.8530   45.5240 C   0  0  0  0  0  0  0  0  0  0  0  0
   58.1570   33.8550   46.8250 C   0  0  0  0  0  0  0  0  0  0  0  0
   57.7670   33.0570   47.7190 O   0  0  0  0  0  0  0  0  0  0  0  0
   57.8070   33.1320   44.4450 C   0  0  0  0  0  0  0  0  0  0  0  0
   58.1317   33.6830   43.5501 H   0  0  0  0  0  0  0  0  0  0  0  0
   60.4830   34.5630   46.4030 C   0  0  0  0  0  0  0  0  0  0  0  0
   60.6810   35.2196   45.5430 H   0  0  0  0  0  0  0  0  0  0  0  0
   61.5040   33.5510   46.7660 C   0  0  0  0  0  0  0  0  0  0  0  0
   61.0850   32.3120   47.2690 C   0  0  0  0  0  0  0  0  0  0  0  0
   60.0110   32.0932   47.3622 H   0  0  0  0  0  0  0  0  0  0  0  0
   62.0250   31.3550   47.6520 C   0  0  0  0  0  0  0  0  0  0  0  0
   61.6975   30.3778   48.0363 H   0  0  0  0  0  0  0  0  0  0  0  0
   63.3840   31.6490   47.5430 C   0  0  0  0  0  0  0  0  0  0  0  0
   64.1327   30.8998   47.8398 H   0  0  0  0  0  0  0  0  0  0  0  0
   63.7860   32.8590   47.0710 N   0  0  0  0  0  0  0  0  0  0  0  0
   64.8060   33.0690   47.0100 H   0  0  0  0  0  0  0  0  0  0  0  0
   62.8870   33.8080   46.6870 C   0  0  0  0  0  0  0  0  0  0  0  0
   63.2427   34.7796   46.3135 H   0  0  0  0  0  0  0  0  0  0  0  0
   59.3310   34.7180   47.0700 C   0  0  0  0  0  0  0  0  0  0  0  0
   59.2570   35.5144   47.8252 H   0  0  0  0  0  0  0  0  0  0  0  0
   57.7930   31.6560   44.3700 C   0  0  0  0  0  0  0  0  0  0  0  0
   56.9570   30.9790   43.4690 C   0  0  0  0  0  0  0  0  0  0  0  0
   56.2608   31.5482   42.8355 H   0  0  0  0  0  0  0  0  0  0  0  0
   57.0040   29.5860   43.3720 C   0  0  0  0  0  0  0  0  0  0  0  0
   56.3588   29.0696   42.6460 H   0  0  0  0  0  0  0  0  0  0  0  0
   57.8680   28.8350   44.1930 C   0  0  0  0  0  0  0  0  0  0  0  0
   57.9510   27.3940   44.0610 N   0  0  0  0  0  0  0  0  0  0  0  0
   58.1440   26.7800   42.7410 C   0  0  0  0  0  0  0  0  0  0  0  0
   58.4717   25.7374   42.8660 H   0  0  0  0  0  0  0  0  0  0  0  0
   57.1956   26.8020   42.1842 H   0  0  0  0  0  0  0  0  0  0  0  0
   58.9092   27.3407   42.1842 H   0  0  0  0  0  0  0  0  0  0  0  0
   57.8750   26.5320   45.2440 C   0  0  0  0  0  0  0  0  0  0  0  0
   57.9295   27.1502   46.1522 H   0  0  0  0  0  0  0  0  0  0  0  0
   56.9246   25.9783   45.2338 H   0  0  0  0  0  0  0  0  0  0  0  0
   58.7139   25.8206   45.2338 H   0  0  0  0  0  0  0  0  0  0  0  0
   58.6600   29.5220   45.1360 C   0  0  0  0  0  0  0  0  0  0  0  0
   59.3208   28.9543   45.8077 H   0  0  0  0  0  0  0  0  0  0  0  0
   58.6150   30.9160   45.2270 C   0  0  0  0  0  0  0  0  0  0  0  0
   59.2298   31.4347   45.9773 H   0  0  0  0  0  0  0  0  0  0  0  0
  1  2  1  0
  2  3  1  0
  3  4  2  0
  3  5  1  0
  5  6  1  0
  5  7  2  0
  7  8  1  0
  7  9  1  0
  9 10  2  0
 10 11  1  0
 10 12  1  0
 12 13  1  0
 12 14  2  0
 14 15  1  0
 14 16  1  0
 16 17  1  0
 16 18  2  0
 18 19  1  0
  2 20  2  0
 20 21  1  0
 20 22  1  0
 22 23  2  0
 23 24  1  0
 23 25  1  0
 25 26  1  0
 25 27  2  0
 27 28  1  0
 28 29  1  0
 29 30  1  0
 29 31  1  0
 29 32  1  0
 28 33  1  0
 33 34  1  0
 33 35  1  0
 33 36  1  0
 27 37  1  0
 37 38  1  0
 37 39  2  0
 39 40  1  0
 18  9  1  0
 39 22  1  0
M  CHG  1  16   1
M  END
>  <UniqueID>  (81) 
69

>  <SMILES>  (81) 
CN(C)c1ccc(/C=C\C(=O)/C=C/c2ccc[nH+]c2)cc1

>  <Energy>  (81) 
49.96983433546608

>  <Genealogy>  (81) 
CN(C)c1ccc(C=CC(=O)C=Cc2ccc[nH+]c2)cc1 (protonated)
CN(C)c1ccc(/C=C\C(=O)/C=C/c2ccc[nH+]c2)cc1 (cis-trans isomerization)
CN(C)c1ccc(/C=C\C(=O)/C=C/c2ccc[nH+]c2)cc1 (3D coordinates assigned)
CN(C)c1ccc(/C=C\C(=O)/C=C/c2ccc[nH+]c2)cc1 (optimized conformer: 49.96983433546608 kcal/mol)

>  <smiles>  (81) 
CN(C)c1ccc(C=CC(=O)C=Cc2cccnc2)cc1

>  <score_type>  (81) 
oracle

>  <origin>  (81) 
adg

>  <m_score__min__energy>  (81) 
-6.46

>  <m_primary>  (81) 
energy

$$$$
81:0
     RDKit          3D

 33 35  0  0  0  0  0  0  0  0999 V2000
   59.2479   32.3300   47.8324 H   0  0  0  0  0  0  0  0  0  0  0  0
   58.7080   32.5560   46.9010 C   0  0  0  0  0  0  0  0  0  0  0  0
   57.8080   31.7020   46.3470 N   0  0  0  0  0  0  0  0  0  0  0  0
   57.2810   32.2110   45.2100 C   0  0  0  0  0  0  0  0  0  0  0  0
   56.4100   31.5910   44.4770 N   0  0  0  0  0  0  0  0  0  0  0  0
   56.4120   29.8700   44.2590 S   0  0  0  0  0  0  0  0  0  0  0  0
   56.4060   29.5570   42.7900 O   0  0  0  0  0  0  0  0  0  0  0  0
   55.1730   29.2980   44.8890 O   0  0  0  0  0  0  0  0  0  0  0  0
   57.8550   29.1720   44.9880 C   0  0  0  0  0  0  0  0  0  0  0  0
   59.1280   29.5070   44.5040 C   0  0  0  0  0  0  0  0  0  0  0  0
   59.2288   30.2157   43.6688 H   0  0  0  0  0  0  0  0  0  0  0  0
   60.2690   28.9420   45.0810 C   0  0  0  0  0  0  0  0  0  0  0  0
   61.2658   29.2032   44.6961 H   0  0  0  0  0  0  0  0  0  0  0  0
   60.1450   28.0450   46.1470 C   0  0  0  0  0  0  0  0  0  0  0  0
   61.0436   27.6011   46.6003 H   0  0  0  0  0  0  0  0  0  0  0  0
   58.8780   27.7130   46.6360 C   0  0  0  0  0  0  0  0  0  0  0  0
   58.7804   27.0077   47.4745 H   0  0  0  0  0  0  0  0  0  0  0  0
   57.7350   28.2760   46.0610 C   0  0  0  0  0  0  0  0  0  0  0  0
   56.7396   28.0161   46.4505 H   0  0  0  0  0  0  0  0  0  0  0  0
   57.8960   33.7300   44.8380 S   0  0  0  0  0  0  0  0  0  0  0  0
   58.8900   33.7370   46.1950 C   0  0  0  0  0  0  0  0  0  0  0  0
   60.0130   35.0590   46.6370 S   0  0  0  0  0  0  0  0  0  0  0  0
   60.5660   34.2120   48.1220 C   0  0  0  0  0  0  0  0  0  0  0  0
   59.7380   34.2120   49.2530 C   0  0  0  0  0  0  0  0  0  0  0  0
   58.7627   34.7195   49.2175 H   0  0  0  0  0  0  0  0  0  0  0  0
   60.1460   33.5700   50.4260 C   0  0  0  0  0  0  0  0  0  0  0  0
   59.4935   33.5763   51.3116 H   0  0  0  0  0  0  0  0  0  0  0  0
   61.3810   32.9210   50.4740 C   0  0  0  0  0  0  0  0  0  0  0  0
   61.7024   32.4193   51.3986 H   0  0  0  0  0  0  0  0  0  0  0  0
   62.2100   32.9080   49.3480 C   0  0  0  0  0  0  0  0  0  0  0  0
   63.1810   32.3927   49.3881 H   0  0  0  0  0  0  0  0  0  0  0  0
   61.8080   33.5490   48.1690 C   0  0  0  0  0  0  0  0  0  0  0  0
   62.8760   33.4970   46.7730 Cl  0  0  0  0  0  0  0  0  0  0  0  0
  1  2  1  0
  2  3  1  0
  3  4  1  0
  4  5  2  0
  5  6  1  0
  6  7  2  0
  6  8  2  0
  6  9  1  0
  9 10  2  0
 10 11  1  0
 10 12  1  0
 12 13  1  0
 12 14  2  0
 14 15  1  0
 14 16  1  0
 16 17  1  0
 16 18  2  0
 18 19  1  0
  4 20  1  0
 20 21  1  0
 21 22  1  0
 22 23  1  0
 23 24  2  0
 24 25  1  0
 24 26  1  0
 26 27  1  0
 26 28  2  0
 28 29  1  0
 28 30  1  0
 30 31  1  0
 30 32  2  0
 32 33  1  0
 21  2  2  0
 32 23  1  0
 18  9  1  0
M  CHG  1   3  -1
M  END
>  <UniqueID>  (82) 
70

>  <SMILES>  (82) 
O=S(=O)(/N=c1\[n-]cc(Sc2ccccc2Cl)s1)c1ccccc1

>  <Energy>  (82) 
65.27805906960705

>  <Genealogy>  (82) 
O=S(=O)(N=c1[n-]cc(Sc2ccccc2Cl)s1)c1ccccc1 (protonated)
O=S(=O)(/N=c1\[n-]cc(Sc2ccccc2Cl)s1)c1ccccc1 (cis-trans isomerization)
O=S(=O)(/N=c1\[n-]cc(Sc2ccccc2Cl)s1)c1ccccc1 (3D coordinates assigned)
O=S(=O)(/N=c1\[n-]cc(Sc2ccccc2Cl)s1)c1ccccc1 (optimized conformer: 65.27805906960705 kcal/mol)

>  <smiles>  (82) 
O=S(=O)(N=c1[nH]cc(Sc2ccccc2Cl)s1)c1ccccc1

>  <score_type>  (82) 
oracle

>  <origin>  (82) 
adg

>  <m_score__min__energy>  (82) 
-10.460000000000001

>  <m_primary>  (82) 
energy

$$$$
82:0
     RDKit          3D

 33 34  0  0  0  0  0  0  0  0999 V2000
   55.4480   29.7650   43.6840 C   0  0  0  0  0  0  0  0  0  0  0  0
   55.5390   28.9510   44.8490 O   0  0  0  0  0  0  0  0  0  0  0  0
   56.7250   28.3710   45.3240 C   0  0  0  0  0  0  0  0  0  0  0  0
   57.9710   29.0140   45.1970 C   0  0  0  0  0  0  0  0  0  0  0  0
   59.1300   28.4040   45.6720 C   0  0  0  0  0  0  0  0  0  0  0  0
   59.0620   27.1630   46.3040 C   0  0  0  0  0  0  0  0  0  0  0  0
   57.8300   26.5130   46.4660 C   0  0  0  0  0  0  0  0  0  0  0  0
   57.7990   25.2070   47.2150 C   0  0  0  0  0  0  0  0  0  0  0  0
   56.6580   27.1010   45.9270 C   0  0  0  0  0  0  0  0  0  0  0  0
   55.3800   26.4490   45.9980 N   0  0  0  0  0  0  0  0  0  0  0  0
   55.1300   25.0900   45.6130 C   0  0  0  0  0  0  0  0  0  0  0  0
   54.3000   24.4110   46.2690 O   0  0  0  0  0  0  0  0  0  0  0  0
   55.8450   24.4720   44.5330 N   0  0  0  0  0  0  0  0  0  0  0  0
   56.1000   23.2010   44.3880 C   0  0  0  0  0  0  0  0  0  0  0  0
   56.5960   22.7530   43.1580 C   0  0  0  0  0  0  0  0  0  0  0  0
   56.8660   21.3950   42.9710 C   0  0  0  0  0  0  0  0  0  0  0  0
   56.6630   20.5110   43.9830 N   0  0  0  0  0  0  0  0  0  0  0  0
   56.2060   20.9180   45.1980 C   0  0  0  0  0  0  0  0  0  0  0  0
   55.9250   22.2660   45.4280 C   0  0  0  0  0  0  0  0  0  0  0  0
   55.3303   30.8177   43.9805 H   0  0  0  0  0  0  0  0  0  0  0  0
   56.3643   29.6528   43.0858 H   0  0  0  0  0  0  0  0  0  0  0  0
   54.5791   29.4532   43.0858 H   0  0  0  0  0  0  0  0  0  0  0  0
   58.0298   30.0035   44.7201 H   0  0  0  0  0  0  0  0  0  0  0  0
   60.1023   28.9032   45.5480 H   0  0  0  0  0  0  0  0  0  0  0  0
   59.9819   26.6901   46.6784 H   0  0  0  0  0  0  0  0  0  0  0  0
   57.8037   25.4047   48.2971 H   0  0  0  0  0  0  0  0  0  0  0  0
   56.8874   24.6525   46.9475 H   0  0  0  0  0  0  0  0  0  0  0  0
   58.6832   24.6098   46.9475 H   0  0  0  0  0  0  0  0  0  0  0  0
   56.7727   23.4681   42.3410 H   0  0  0  0  0  0  0  0  0  0  0  0
   57.2443   21.0400   42.0010 H   0  0  0  0  0  0  0  0  0  0  0  0
   56.8690   19.4990   43.8280 H   0  0  0  0  0  0  0  0  0  0  0  0
   56.0574   20.1823   46.0021 H   0  0  0  0  0  0  0  0  0  0  0  0
   55.5691   22.5964   46.4150 H   0  0  0  0  0  0  0  0  0  0  0  0
  1  2  1  0
  2  3  1  0
  3  4  2  0
  4  5  1  0
  5  6  2  0
  6  7  1  0
  7  8  1  0
  7  9  2  0
  9 10  1  0
 10 11  1  0
 11 12  2  0
 11 13  1  0
 13 14  2  3
 14 15  1  0
 15 16  2  0
 16 17  1  0
 17 18  1  0
 18 19  2  0
  9  3  1  0
 19 14  1  0
  1 20  1  0
  1 21  1  0
  1 22  1  0
  4 23  1  0
  5 24  1  0
  6 25  1  0
  8 26  1  0
  8 27  1  0
  8 28  1  0
 15 29  1  0
 16 30  1  0
 17 31  1  0
 18 32  1  0
 19 33  1  0
M  CHG  1  10  -1
M  END
>  <UniqueID>  (83) 
71

>  <SMILES>  (83) 
COc1cccc(C)c1[N-]C(=O)N=c1cc[nH]cc1

>  <Energy>  (83) 
46.91839456683804

>  <Genealogy>  (83) 
COc1cccc(C)c1[N-]C(=O)N=c1cc[nH]cc1 (protonated)
COc1cccc(C)c1[N-]C(=O)N=c1cc[nH]cc1 (3D coordinates assigned)
COc1cccc(C)c1[N-]C(=O)N=c1cc[nH]cc1 (optimized conformer: 46.91839456683804 kcal/mol)

>  <smiles>  (83) 
COc1cccc(C)c1NC(=O)N=c1cc[nH]cc1

>  <score_type>  (83) 
oracle

>  <origin>  (83) 
adg

>  <m_score__min__energy>  (83) 
-8.5099999999999998

>  <m_primary>  (83) 
energy

$$$$
83:0
     RDKit          3D

 45 47  0  0  0  0  0  0  0  0999 V2000
   57.9310   31.7460   45.5020 N   0  0  0  0  0  0  0  0  0  0  0  0
   57.1380   30.7480   44.3340 S   0  0  0  0  0  0  0  0  0  0  0  0
   57.4970   31.2150   42.9510 O   0  0  0  0  0  0  0  0  0  0  0  0
   55.6490   30.8530   44.5060 O   0  0  0  0  0  0  0  0  0  0  0  0
   57.6460   29.0770   44.5510 C   0  0  0  0  0  0  0  0  0  0  0  0
   57.7230   28.2150   43.4490 C   0  0  0  0  0  0  0  0  0  0  0  0
   58.1370   26.8930   43.6220 C   0  0  0  0  0  0  0  0  0  0  0  0
   58.4860   26.4270   44.8910 C   0  0  0  0  0  0  0  0  0  0  0  0
   58.4410   27.2870   46.0020 C   0  0  0  0  0  0  0  0  0  0  0  0
   58.8360   26.8110   47.3500 C   0  0  0  0  0  0  0  0  0  0  0  0
   58.5870   25.6220   47.6850 O   0  0  0  0  0  0  0  0  0  0  0  0
   59.5340   27.6560   48.2770 N   0  0  0  0  0  0  0  0  0  0  0  0
   59.6950   29.0740   48.1360 C   0  0  0  0  0  0  0  0  0  0  0  0
   58.9420   29.9750   48.9070 C   0  0  0  0  0  0  0  0  0  0  0  0
   59.0630   31.3500   48.6980 C   0  0  0  0  0  0  0  0  0  0  0  0
   59.9360   31.8400   47.7180 C   0  0  0  0  0  0  0  0  0  0  0  0
   59.9830   33.5660   47.3580 S   0  0  0  0  0  0  0  0  0  0  0  0
   58.9920   34.2830   48.2320 O   0  0  0  0  0  0  0  0  0  0  0  0
   59.5800   33.7840   45.9260 O   0  0  0  0  0  0  0  0  0  0  0  0
   61.5780   34.2380   47.6300 N   0  0  0  0  0  0  0  0  0  0  0  0
   62.5190   33.8260   46.5820 C   0  0  0  0  0  0  0  0  0  0  0  0
   63.3690   32.6790   47.1140 C   0  0  0  0  0  0  0  0  0  0  0  0
   63.0680   32.5920   48.5960 C   0  0  0  0  0  0  0  0  0  0  0  0
   62.1420   33.7620   48.8970 C   0  0  0  0  0  0  0  0  0  0  0  0
   60.7320   30.9430   46.9910 C   0  0  0  0  0  0  0  0  0  0  0  0
   60.6180   29.5670   47.2080 C   0  0  0  0  0  0  0  0  0  0  0  0
   58.0060   28.6120   45.8230 C   0  0  0  0  0  0  0  0  0  0  0  0
   57.6390   32.7300   45.3080 H   0  0  0  0  0  0  0  0  0  0  0  0
   58.9550   31.6900   45.3070 H   0  0  0  0  0  0  0  0  0  0  0  0
   57.4569   28.5804   42.4462 H   0  0  0  0  0  0  0  0  0  0  0  0
   58.1884   26.2166   42.7561 H   0  0  0  0  0  0  0  0  0  0  0  0
   58.7981   25.3804   45.0222 H   0  0  0  0  0  0  0  0  0  0  0  0
   58.2549   29.5960   49.6778 H   0  0  0  0  0  0  0  0  0  0  0  0
   58.4710   32.0509   49.3048 H   0  0  0  0  0  0  0  0  0  0  0  0
   61.9618   33.4931   45.6939 H   0  0  0  0  0  0  0  0  0  0  0  0
   63.1635   34.6724   46.3023 H   0  0  0  0  0  0  0  0  0  0  0  0
   63.0986   31.7379   46.6127 H   0  0  0  0  0  0  0  0  0  0  0  0
   64.4397   32.8500   46.9287 H   0  0  0  0  0  0  0  0  0  0  0  0
   62.5712   31.6392   48.8313 H   0  0  0  0  0  0  0  0  0  0  0  0
   63.9862   32.6348   49.2002 H   0  0  0  0  0  0  0  0  0  0  0  0
   61.3321   33.4335   49.5650 H   0  0  0  0  0  0  0  0  0  0  0  0
   62.7000   34.5705   49.3919 H   0  0  0  0  0  0  0  0  0  0  0  0
   61.4482   31.3235   46.2478 H   0  0  0  0  0  0  0  0  0  0  0  0
   61.2567   28.8691   46.6468 H   0  0  0  0  0  0  0  0  0  0  0  0
   57.9478   29.2889   46.6881 H   0  0  0  0  0  0  0  0  0  0  0  0
  1  2  1  0
  2  3  2  0
  2  4  2  0
  2  5  1  0
  5  6  2  0
  6  7  1  0
  7  8  2  0
  8  9  1  0
  9 10  1  0
 10 11  2  0
 10 12  1  0
 12 13  1  0
 13 14  2  0
 14 15  1  0
 15 16  2  0
 16 17  1  0
 17 18  2  0
 17 19  2  0
 17 20  1  0
 20 21  1  0
 21 22  1  0
 22 23  1  0
 23 24  1  0
 16 25  1  0
 25 26  2  0
  9 27  2  0
 27  5  1  0
 26 13  1  0
 24 20  1  0
  1 28  1  0
  1 29  1  0
  6 30  1  0
  7 31  1  0
  8 32  1  0
 14 33  1  0
 15 34  1  0
 21 35  1  0
 21 36  1  0
 22 37  1  0
 22 38  1  0
 23 39  1  0
 23 40  1  0
 24 41  1  0
 24 42  1  0
 25 43  1  0
 26 44  1  0
 27 45  1  0
M  CHG  1  12  -1
M  END
>  <UniqueID>  (84) 
72

>  <SMILES>  (84) 
NS(=O)(=O)c1cccc(C(=O)[N-]c2ccc(S(=O)(=O)N3CCCC3)cc2)c1

>  <Energy>  (84) 
50.52275662159407

>  <Genealogy>  (84) 
NS(=O)(=O)c1cccc(C(=O)[N-]c2ccc(S(=O)(=O)N3CCCC3)cc2)c1 (protonated)
NS(=O)(=O)c1cccc(C(=O)[N-]c2ccc(S(=O)(=O)N3CCCC3)cc2)c1 (3D coordinates assigned)
NS(=O)(=O)c1cccc(C(=O)[N-]c2ccc(S(=O)(=O)N3CCCC3)cc2)c1 (nonaromatic ring conformer: 50.52275662159407 kcal/mol)

>  <smiles>  (84) 
NS(=O)(=O)c1cccc(C(=O)Nc2ccc(S(=O)(=O)N3CCCC3)cc2)c1

>  <score_type>  (84) 
oracle

>  <origin>  (84) 
adg

>  <m_score__min__energy>  (84) 
-11.16

>  <m_primary>  (84) 
energy

$$$$
84:0
     RDKit          3D

 74 77  0  0  0  0  0  0  0  0999 V2000
   55.4990   29.7300   44.8250 N   0  0  0  0  0  0  0  0  0  0  0  0
   56.5130   30.0900   44.4000 C   0  0  0  0  0  0  0  0  0  0  0  0
   57.7910   30.5480   43.8490 C   0  0  0  0  0  0  0  0  0  0  0  0
   58.6120   31.3350   44.8830 C   0  0  0  0  0  0  0  0  0  0  0  0
   59.7830   30.5920   45.4280 N   0  0  0  0  0  0  0  0  0  0  0  0
   59.5530   29.1230   45.4010 C   0  0  0  0  0  0  0  0  0  0  0  0
   60.5320   28.2820   46.2480 C   0  0  0  0  0  0  0  0  0  0  0  0
   59.8720   27.1410   46.9310 N   0  0  0  0  0  0  0  0  0  0  0  0
   59.6920   25.9860   46.0060 C   0  0  0  0  0  0  0  0  0  0  0  0
   58.2850   25.4520   46.0870 C   0  0  0  0  0  0  0  0  0  0  0  0
   58.0550   24.1000   46.3930 C   0  0  0  0  0  0  0  0  0  0  0  0
   56.7510   23.6290   46.5720 C   0  0  0  0  0  0  0  0  0  0  0  0
   55.6680   24.5010   46.4510 C   0  0  0  0  0  0  0  0  0  0  0  0
   55.8870   25.8480   46.1490 C   0  0  0  0  0  0  0  0  0  0  0  0
   54.8100   26.7150   46.0220 O   0  0  0  0  0  0  0  0  0  0  0  0
   57.1900   26.3250   45.9810 C   0  0  0  0  0  0  0  0  0  0  0  0
   60.6470   26.7300   48.1290 C   0  0  0  0  0  0  0  0  0  0  0  0
   60.3560   27.6340   49.3080 C   0  0  0  0  0  0  0  0  0  0  0  0
   59.6450   28.8210   49.0560 C   0  0  0  0  0  0  0  0  0  0  0  0
   59.3130   29.7050   50.0960 C   0  0  0  0  0  0  0  0  0  0  0  0
   58.5530   30.8630   49.8830 O   0  0  0  0  0  0  0  0  0  0  0  0
   59.0120   32.1830   50.1630 C   0  0  0  0  0  0  0  0  0  0  0  0
   58.8290   33.0460   48.9490 C   0  0  0  0  0  0  0  0  0  0  0  0
   57.8510   32.7170   47.9980 C   0  0  0  0  0  0  0  0  0  0  0  0
   57.6770   33.5120   46.8610 C   0  0  0  0  0  0  0  0  0  0  0  0
   58.4750   34.6410   46.6680 C   0  0  0  0  0  0  0  0  0  0  0  0
   59.4480   34.9790   47.6120 C   0  0  0  0  0  0  0  0  0  0  0  0
   59.6220   34.1890   48.7520 C   0  0  0  0  0  0  0  0  0  0  0  0
   59.7370   29.4170   51.3940 C   0  0  0  0  0  0  0  0  0  0  0  0
   60.4150   28.2300   51.6700 C   0  0  0  0  0  0  0  0  0  0  0  0
   60.7200   27.3160   50.6460 C   0  0  0  0  0  0  0  0  0  0  0  0
   61.3320   26.0640   51.0020 N   0  0  0  0  0  0  0  0  0  0  0  0
   60.6120   25.0790   51.2720 O   0  0  0  0  0  0  0  0  0  0  0  0
   62.6790   25.9840   51.2690 O   0  0  0  0  0  0  0  0  0  0  0  0
   60.0690   30.9920   46.8350 C   0  0  0  0  0  0  0  0  0  0  0  0
   61.3460   31.7840   46.9310 C   0  0  0  0  0  0  0  0  0  0  0  0
   61.4080   33.0870   46.4230 C   0  0  0  0  0  0  0  0  0  0  0  0
   62.5990   33.8090   46.4910 C   0  0  0  0  0  0  0  0  0  0  0  0
   63.7280   33.2140   47.0560 C   0  0  0  0  0  0  0  0  0  0  0  0
   63.6650   31.9370   47.5240 N   0  0  0  0  0  0  0  0  0  0  0  0
   62.5130   31.2150   47.4650 C   0  0  0  0  0  0  0  0  0  0  0  0
   58.3727   29.6725   43.5249 H   0  0  0  0  0  0  0  0  0  0  0  0
   57.5770   31.2174   43.0027 H   0  0  0  0  0  0  0  0  0  0  0  0
   58.9796   32.2544   44.4039 H   0  0  0  0  0  0  0  0  0  0  0  0
   57.9419   31.5349   45.7321 H   0  0  0  0  0  0  0  0  0  0  0  0
   58.5347   28.9324   45.7709 H   0  0  0  0  0  0  0  0  0  0  0  0
   59.7111   28.8114   44.3580 H   0  0  0  0  0  0  0  0  0  0  0  0
   61.3186   27.8883   45.5875 H   0  0  0  0  0  0  0  0  0  0  0  0
   60.9434   28.9401   47.0275 H   0  0  0  0  0  0  0  0  0  0  0  0
   59.8950   26.3136   44.9757 H   0  0  0  0  0  0  0  0  0  0  0  0
   60.3903   25.1876   46.2976 H   0  0  0  0  0  0  0  0  0  0  0  0
   58.9051   23.4089   46.4922 H   0  0  0  0  0  0  0  0  0  0  0  0
   56.5781   22.5688   46.8087 H   0  0  0  0  0  0  0  0  0  0  0  0
   54.6428   24.1284   46.5932 H   0  0  0  0  0  0  0  0  0  0  0  0
   57.3588   27.3902   45.7645 H   0  0  0  0  0  0  0  0  0  0  0  0
   60.3767   25.6972   48.3939 H   0  0  0  0  0  0  0  0  0  0  0  0
   61.7186   26.8026   47.8915 H   0  0  0  0  0  0  0  0  0  0  0  0
   59.3434   29.0615   48.0259 H   0  0  0  0  0  0  0  0  0  0  0  0
   58.4347   32.6017   51.0005 H   0  0  0  0  0  0  0  0  0  0  0  0
   60.0782   32.1505   50.4316 H   0  0  0  0  0  0  0  0  0  0  0  0
   57.2184   31.8296   48.1477 H   0  0  0  0  0  0  0  0  0  0  0  0
   56.9104   33.2475   46.1178 H   0  0  0  0  0  0  0  0  0  0  0  0
   58.3377   35.2647   45.7724 H   0  0  0  0  0  0  0  0  0  0  0  0
   60.0777   35.8677   47.4580 H   0  0  0  0  0  0  0  0  0  0  0  0
   60.3827   34.4632   49.4977 H   0  0  0  0  0  0  0  0  0  0  0  0
   59.5349   30.1316   52.2055 H   0  0  0  0  0  0  0  0  0  0  0  0
   60.7156   28.0055   52.7040 H   0  0  0  0  0  0  0  0  0  0  0  0
   59.2371   31.6072   47.2085 H   0  0  0  0  0  0  0  0  0  0  0  0
   60.1808   30.0795   47.4390 H   0  0  0  0  0  0  0  0  0  0  0  0
   60.5153   33.5422   45.9692 H   0  0  0  0  0  0  0  0  0  0  0  0
   62.6482   34.8372   46.1032 H   0  0  0  0  0  0  0  0  0  0  0  0
   64.6702   33.7777   47.1233 H   0  0  0  0  0  0  0  0  0  0  0  0
   64.5230   31.5010   47.9310 H   0  0  0  0  0  0  0  0  0  0  0  0
   62.4961   30.1802   47.8377 H   0  0  0  0  0  0  0  0  0  0  0  0
  1  2  3  0
  2  3  1  0
  3  4  1  0
  4  5  1  0
  5  6  1  0
  6  7  1  0
  7  8  1  0
  8  9  1  0
  9 10  1  0
 10 11  2  0
 11 12  1  0
 12 13  2  0
 13 14  1  0
 14 15  1  0
 14 16  2  0
  8 17  1  0
 17 18  1  0
 18 19  2  0
 19 20  1  0
 20 21  1  0
 21 22  1  0
 22 23  1  0
 23 24  2  0
 24 25  1  0
 25 26  2  0
 26 27  1  0
 27 28  2  0
 20 29  2  0
 29 30  1  0
 30 31  2  0
 31 32  1  0
 32 33  2  0
 32 34  1  0
  5 35  1  0
 35 36  1  0
 36 37  2  0
 37 38  1  0
 38 39  2  0
 39 40  1  0
 40 41  2  0
 16 10  1  0
 31 18  1  0
 41 36  1  0
 28 23  1  0
  3 42  1  0
  3 43  1  0
  4 44  1  0
  4 45  1  0
  6 46  1  0
  6 47  1  0
  7 48  1  0
  7 49  1  0
  9 50  1  0
  9 51  1  0
 11 52  1  0
 12 53  1  0
 13 54  1  0
 16 55  1  0
 17 56  1  0
 17 57  1  0
 19 58  1  0
 22 59  1  0
 22 60  1  0
 24 61  1  0
 25 62  1  0
 26 63  1  0
 27 64  1  0
 28 65  1  0
 29 66  1  0
 30 67  1  0
 35 68  1  0
 35 69  1  0
 37 70  1  0
 38 71  1  0
 39 72  1  0
 40 73  1  0
 41 74  1  0
M  CHG  4  15  -1  32   1  34  -1  40   1
M  END
>  <UniqueID>  (85) 
73

>  <SMILES>  (85) 
N#CCCN(CCN(Cc1cccc([O-])c1)Cc1cc(OCc2ccccc2)ccc1[N+](=O)[O-])Cc1ccc[nH+]c1

>  <Energy>  (85) 
86.69208004331013

>  <Genealogy>  (85) 
N#CCCN(CCN(Cc1cccc([O-])c1)Cc1cc(OCc2ccccc2)ccc1[N+](=O)[O-])Cc1ccc[nH+]c1 (protonated)
N#CCCN(CCN(Cc1cccc([O-])c1)Cc1cc(OCc2ccccc2)ccc1[N+](=O)[O-])Cc1ccc[nH+]c1 (3D coordinates assigned)
N#CCCN(CCN(Cc1cccc([O-])c1)Cc1cc(OCc2ccccc2)ccc1[N+](=O)[O-])Cc1ccc[nH+]c1 (optimized conformer: 86.69208004331013 kcal/mol)

>  <smiles>  (85) 
N#CCCN(CCN(Cc1cccc(O)c1)Cc1cc(OCc2ccccc2)ccc1[N+](=O)[O-])Cc1cccnc1

>  <score_type>  (85) 
oracle

>  <origin>  (85) 
adg

>  <m_score__min__energy>  (85) 
-12.630000000000001

>  <m_primary>  (85) 
energy

$$$$
85:0
     RDKit          3D

 34 35  0  0  0  0  0  0  0  0999 V2000
   57.0770   23.2850   43.4950 N   0  0  0  0  0  0  0  0  0  0  0  0
   57.0270   24.2580   44.1190 C   0  0  0  0  0  0  0  0  0  0  0  0
   56.9650   25.4710   44.8990 C   0  0  0  0  0  0  0  0  0  0  0  0
   57.8680   26.4370   44.6450 C   0  0  0  0  0  0  0  0  0  0  0  0
   57.6110   27.8900   44.7340 C   0  0  0  0  0  0  0  0  0  0  0  0
   57.0580   28.6020   43.6570 C   0  0  0  0  0  0  0  0  0  0  0  0
   56.8660   29.9830   43.7470 C   0  0  0  0  0  0  0  0  0  0  0  0
   57.2530   30.6790   44.8970 C   0  0  0  0  0  0  0  0  0  0  0  0
   57.0280   32.0620   44.9560 O   0  0  0  0  0  0  0  0  0  0  0  0
   57.9100   33.0080   45.4990 C   0  0  0  0  0  0  0  0  0  0  0  0
   58.4220   34.0690   44.7340 C   0  0  0  0  0  0  0  0  0  0  0  0
   59.2850   35.0010   45.3140 C   0  0  0  0  0  0  0  0  0  0  0  0
   59.6340   34.8910   46.6620 C   0  0  0  0  0  0  0  0  0  0  0  0
   59.1130   33.8470   47.4500 C   0  0  0  0  0  0  0  0  0  0  0  0
   59.4750   33.7360   48.8830 C   0  0  0  0  0  0  0  0  0  0  0  0
   58.8960   32.7220   49.7010 N   0  0  0  0  0  0  0  0  0  0  0  0
   60.3020   34.5400   49.3940 O   0  0  0  0  0  0  0  0  0  0  0  0
   58.2450   32.9140   46.8550 C   0  0  0  0  0  0  0  0  0  0  0  0
   57.8150   29.9700   45.9740 C   0  0  0  0  0  0  0  0  0  0  0  0
   58.0080   28.5880   45.8840 C   0  0  0  0  0  0  0  0  0  0  0  0
   55.9480   25.5480   45.9730 C   0  0  0  0  0  0  0  0  0  0  0  0
   55.1400   26.7120   46.1380 N   0  0  0  0  0  0  0  0  0  0  0  0
   55.8330   24.5980   46.7940 O   0  0  0  0  0  0  0  0  0  0  0  0
   58.8782   26.1194   44.3473 H   0  0  0  0  0  0  0  0  0  0  0  0
   56.7744   28.0693   42.7373 H   0  0  0  0  0  0  0  0  0  0  0  0
   56.4074   30.5266   42.9078 H   0  0  0  0  0  0  0  0  0  0  0  0
   58.1422   34.1660   43.6746 H   0  0  0  0  0  0  0  0  0  0  0  0
   59.6911   35.8241   44.7077 H   0  0  0  0  0  0  0  0  0  0  0  0
   60.3201   35.6245   47.1107 H   0  0  0  0  0  0  0  0  0  0  0  0
   58.0710   32.1730   49.3710 H   0  0  0  0  0  0  0  0  0  0  0  0
   57.8238   32.0998   47.4630 H   0  0  0  0  0  0  0  0  0  0  0  0
   58.1039   30.5049   46.8908 H   0  0  0  0  0  0  0  0  0  0  0  0
   58.4738   28.0452   46.7197 H   0  0  0  0  0  0  0  0  0  0  0  0
   54.1260   26.6340   46.3740 H   0  0  0  0  0  0  0  0  0  0  0  0
  1  2  3  0
  2  3  1  0
  3  4  2  3
  4  5  1  0
  5  6  2  0
  6  7  1  0
  7  8  2  0
  8  9  1  0
  9 10  1  0
 10 11  2  0
 11 12  1  0
 12 13  2  0
 13 14  1  0
 14 15  1  0
 15 16  1  0
 15 17  2  0
 14 18  2  0
  8 19  1  0
 19 20  2  0
  3 21  1  0
 21 22  1  0
 21 23  2  0
 20  5  1  0
 18 10  1  0
  4 24  1  0
  6 25  1  0
  7 26  1  0
 11 27  1  0
 12 28  1  0
 13 29  1  0
 16 30  1  0
 18 31  1  0
 19 32  1  0
 20 33  1  0
 22 34  1  0
M  CHG  2  16  -1  22  -1
M  END
>  <UniqueID>  (86) 
74

>  <SMILES>  (86) 
N#CC(=Cc1ccc(Oc2cccc(C([NH-])=O)c2)cc1)C([NH-])=O

>  <Energy>  (86) 
49.05787437376839

>  <Genealogy>  (86) 
N#CC(=Cc1ccc(Oc2cccc(C([NH-])=O)c2)cc1)C([NH-])=O (protonated)
N#CC(=Cc1ccc(Oc2cccc(C([NH-])=O)c2)cc1)C([NH-])=O (3D coordinates assigned)
N#CC(=Cc1ccc(Oc2cccc(C([NH-])=O)c2)cc1)C([NH-])=O (optimized conformer: 49.05787437376839 kcal/mol)

>  <smiles>  (86) 
N#CC(=Cc1ccc(Oc2cccc(C(N)=O)c2)cc1)C(N)=O

>  <score_type>  (86) 
oracle

>  <origin>  (86) 
adg

>  <m_score__min__energy>  (86) 
-11.699999999999999

>  <m_primary>  (86) 
energy

$$$$
86:0
     RDKit          3D

 38 40  0  0  0  0  0  0  0  0999 V2000
   58.5884   26.6228   47.0990 H   0  0  0  0  0  0  0  0  0  0  0  0
   59.1170   27.5730   46.9330 C   0  0  0  0  0  0  0  0  0  0  0  0
   60.2930   28.2400   47.9370 S   0  0  0  0  0  0  0  0  0  0  0  0
   60.5070   29.5840   46.9560 C   0  0  0  0  0  0  0  0  0  0  0  0
   61.3610   30.5290   47.2030 N   0  0  0  0  0  0  0  0  0  0  0  0
   61.0000   31.8340   47.6770 C   0  0  0  0  0  0  0  0  0  0  0  0
   59.6880   32.0420   48.1240 C   0  0  0  0  0  0  0  0  0  0  0  0
   58.9634   31.2149   48.0942 H   0  0  0  0  0  0  0  0  0  0  0  0
   59.2940   33.2920   48.6070 C   0  0  0  0  0  0  0  0  0  0  0  0
   58.2644   33.4442   48.9631 H   0  0  0  0  0  0  0  0  0  0  0  0
   60.2060   34.3480   48.6380 C   0  0  0  0  0  0  0  0  0  0  0  0
   59.8988   35.3275   49.0332 H   0  0  0  0  0  0  0  0  0  0  0  0
   61.5080   34.1630   48.1680 C   0  0  0  0  0  0  0  0  0  0  0  0
   62.2217   34.9996   48.1947 H   0  0  0  0  0  0  0  0  0  0  0  0
   61.9140   32.9160   47.6610 C   0  0  0  0  0  0  0  0  0  0  0  0
   63.3130   32.7660   47.1300 C   0  0  0  0  0  0  0  0  0  0  0  0
   64.0182   32.6904   47.9708 H   0  0  0  0  0  0  0  0  0  0  0  0
   63.3763   31.8559   46.5154 H   0  0  0  0  0  0  0  0  0  0  0  0
   63.5678   33.6420   46.5154 H   0  0  0  0  0  0  0  0  0  0  0  0
   59.7150   29.5480   45.8610 N   0  0  0  0  0  0  0  0  0  0  0  0
   58.9310   28.4370   45.8540 C   0  0  0  0  0  0  0  0  0  0  0  0
   57.9970   28.1410   44.7230 C   0  0  0  0  0  0  0  0  0  0  0  0
   58.0679   28.9416   43.9720 H   0  0  0  0  0  0  0  0  0  0  0  0
   58.2730   27.1788   44.2669 H   0  0  0  0  0  0  0  0  0  0  0  0
   56.5930   28.0610   45.2320 C   0  0  0  0  0  0  0  0  0  0  0  0
   56.2610   27.1290   46.0140 O   0  0  0  0  0  0  0  0  0  0  0  0
   55.6510   29.0710   44.8640 N   0  0  0  0  0  0  0  0  0  0  0  0
   55.6540   29.7130   43.5580 C   0  0  0  0  0  0  0  0  0  0  0  0
   55.9814   28.9917   42.7948 H   0  0  0  0  0  0  0  0  0  0  0  0
   54.6394   30.0632   43.3174 H   0  0  0  0  0  0  0  0  0  0  0  0
   56.5910   30.8740   43.5810 C   0  0  0  0  0  0  0  0  0  0  0  0
   57.0850   31.6910   44.9660 S   0  0  0  0  0  0  0  0  0  0  0  0
   58.1570   32.7190   44.1770 C   0  0  0  0  0  0  0  0  0  0  0  0
   59.2180   34.0550   45.0260 Br  0  0  0  0  0  0  0  0  0  0  0  0
   58.1530   32.4250   42.8220 C   0  0  0  0  0  0  0  0  0  0  0  0
   58.7731   32.9567   42.0853 H   0  0  0  0  0  0  0  0  0  0  0  0
   57.2800   31.3830   42.4860 C   0  0  0  0  0  0  0  0  0  0  0  0
   57.1524   31.0058   41.4606 H   0  0  0  0  0  0  0  0  0  0  0  0
  1  2  1  0
  2  3  1  0
  3  4  1  0
  4  5  2  0
  5  6  1  0
  6  7  2  0
  7  8  1  0
  7  9  1  0
  9 10  1  0
  9 11  2  0
 11 12  1  0
 11 13  1  0
 13 14  1  0
 13 15  2  0
 15 16  1  0
 16 17  1  0
 16 18  1  0
 16 19  1  0
  4 20  1  0
 20 21  1  0
 21 22  1  0
 22 23  1  0
 22 24  1  0
 22 25  1  0
 25 26  2  0
 25 27  1  0
 27 28  1  0
 28 29  1  0
 28 30  1  0
 28 31  1  0
 31 32  1  0
 32 33  1  0
 33 34  1  0
 33 35  2  0
 35 36  1  0
 35 37  1  0
 37 38  1  0
 21  2  2  0
 37 31  2  0
 15  6  1  0
M  CHG  2  20  -1  27  -1
M  END
>  <UniqueID>  (87) 
75

>  <SMILES>  (87) 
Cc1ccccc1/N=c1\[n-]c(CC(=O)[N-]Cc2ccc(Br)s2)cs1

>  <Energy>  (87) 
97.74998661544043

>  <Genealogy>  (87) 
Cc1ccccc1N=c1[n-]c(CC(=O)[N-]Cc2ccc(Br)s2)cs1 (protonated)
Cc1ccccc1/N=c1\[n-]c(CC(=O)[N-]Cc2ccc(Br)s2)cs1 (cis-trans isomerization)
Cc1ccccc1/N=c1\[n-]c(CC(=O)[N-]Cc2ccc(Br)s2)cs1 (3D coordinates assigned)
Cc1ccccc1/N=c1\[n-]c(CC(=O)[N-]Cc2ccc(Br)s2)cs1 (optimized conformer: 97.74998661544043 kcal/mol)

>  <smiles>  (87) 
Cc1ccccc1N=c1[nH]c(CC(=O)NCc2ccc(Br)s2)cs1

>  <score_type>  (87) 
oracle

>  <origin>  (87) 
adg

>  <m_score__min__energy>  (87) 
-11.69

>  <m_primary>  (87) 
energy

$$$$
87:0
     RDKit          3D

 74 78  0  0  1  0  0  0  0  0999 V2000
   56.9460   30.6050   43.1930 C   0  0  0  0  0  0  0  0  0  0  0  0
   56.4630   30.4400   44.5250 O   0  0  0  0  0  0  0  0  0  0  0  0
   57.4020   30.2920   45.5490 C   0  0  0  0  0  0  0  0  0  0  0  0
   57.9610   31.3780   46.1920 C   0  0  0  0  0  0  0  0  0  0  0  0
   58.8930   31.2010   47.2080 C   0  0  0  0  0  0  0  0  0  0  0  0
   59.2450   29.9000   47.5610 C   0  0  0  0  0  0  0  0  0  0  0  0
   60.1670   29.6840   48.5660 C   0  0  0  0  0  0  0  0  0  0  0  0
   60.6780   30.7120   49.1510 N   0  0  0  0  0  0  0  0  0  0  0  0
   61.5110   31.6720   48.4890 C   0  0  0  0  0  0  0  0  0  0  0  0
   62.6200   31.2170   47.8210 C   0  0  0  0  0  0  0  0  0  0  0  0
   63.4660   32.0720   47.1620 C   0  0  0  0  0  0  0  0  0  0  0  0
   63.1660   33.4140   47.1920 C   0  0  0  0  0  0  0  0  0  0  0  0
   62.0390   33.8720   47.8720 C   0  0  0  0  0  0  0  0  0  0  0  0
   61.1760   33.0420   48.5390 C   0  0  0  0  0  0  0  0  0  0  0  0
   60.0660   33.3620   49.2220 O   0  0  0  0  0  0  0  0  0  0  0  0
   59.9510   33.9030   50.4690 C   0  0  0  0  0  0  0  0  0  0  0  0
   58.9240   33.1820   51.3040 C   0  0  0  0  0  0  0  0  0  0  0  0
   58.6150   31.9040   50.6500 N   0  0  0  0  0  0  0  0  0  0  0  0
   57.9180   30.9310   51.4410 C   0  0  0  0  0  0  0  0  0  0  0  0
   56.5630   30.9770   51.5920 C   0  0  0  0  0  0  0  0  0  0  0  0
   55.8280   30.0670   52.3320 C   0  0  0  0  0  0  0  0  0  0  0  0
   54.4180   30.2000   52.4310 N   0  0  0  0  0  0  0  0  0  0  0  0
   53.5130   30.2950   51.3250 C   0  0  0  0  0  0  0  0  0  0  0  0
   52.6080   31.4990   51.5020 C   0  0  0  0  0  0  0  0  0  0  0  0
   52.0200   31.5860   52.8020 N   0  0  0  0  0  0  0  0  0  0  0  0
   50.6110   31.8490   52.7340 C   0  0  0  0  0  0  0  0  0  0  0  0
   52.3420   30.4940   53.6870 C   0  0  0  0  0  0  0  0  0  0  0  0
   53.8190   30.2440   53.7740 C   0  0  0  0  0  0  0  0  0  0  0  0
   56.5350   29.0610   52.9440 C   0  0  0  0  0  0  0  0  0  0  0  0
   57.9030   28.9990   52.8020 C   0  0  0  0  0  0  0  0  0  0  0  0
   58.6180   29.9340   52.0470 C   0  0  0  0  0  0  0  0  0  0  0  0
   60.0160   29.7500   51.9860 N   0  0  0  0  0  0  0  0  0  0  0  0
   60.6040   28.7060   51.7190 O   0  0  0  0  0  0  0  0  0  0  0  0
   60.8000   30.8610   52.2450 O   0  0  0  0  0  0  0  0  0  0  0  0
   60.5500   28.4550   48.9560 N   0  0  0  0  0  0  0  0  0  0  0  0
   59.9900   27.4100   48.3150 C   0  0  0  0  0  0  0  0  0  0  0  0
   59.0810   27.5680   47.3230 N   0  0  0  0  0  0  0  0  0  0  0  0
   58.6910   28.7990   46.9260 C   0  0  0  0  0  0  0  0  0  0  0  0
   57.7720   29.0060   45.9230 C   0  0  0  0  0  0  0  0  0  0  0  0
   57.2010   27.9210   45.2700 O   0  0  0  0  0  0  0  0  0  0  0  0
   57.8690   27.2910   44.1840 C   0  0  0  0  0  0  0  0  0  0  0  0
   57.9866   30.9605   43.2217 H   0  0  0  0  0  0  0  0  0  0  0  0
   56.9023   29.6410   42.6651 H   0  0  0  0  0  0  0  0  0  0  0  0
   56.3216   31.3408   42.6651 H   0  0  0  0  0  0  0  0  0  0  0  0
   57.6654   32.3956   45.8969 H   0  0  0  0  0  0  0  0  0  0  0  0
   59.3409   32.0655   47.7199 H   0  0  0  0  0  0  0  0  0  0  0  0
   62.8361   30.1385   47.8139 H   0  0  0  0  0  0  0  0  0  0  0  0
   64.3524   31.6980   46.6287 H   0  0  0  0  0  0  0  0  0  0  0  0
   63.8206   34.1313   46.6753 H   0  0  0  0  0  0  0  0  0  0  0  0
   61.8320   34.9523   47.8735 H   0  0  0  0  0  0  0  0  0  0  0  0
   60.9262   33.8417   50.9742 H   0  0  0  0  0  0  0  0  0  0  0  0
   59.6260   34.9480   50.3577 H   0  0  0  0  0  0  0  0  0  0  0  0
   59.3262   32.9971   52.3110 H   0  0  0  0  0  0  0  0  0  0  0  0
   58.0130   33.7917   51.3953 H   0  0  0  0  0  0  0  0  0  0  0  0
   58.9020   31.7700   49.6800 H   0  0  0  0  0  0  0  0  0  0  0  0
   56.0182   31.7916   51.0924 H   0  0  0  0  0  0  0  0  0  0  0  0
   54.0864   30.4034   50.3925 H   0  0  0  0  0  0  0  0  0  0  0  0
   52.8990   29.3834   51.2795 H   0  0  0  0  0  0  0  0  0  0  0  0
   53.2011   32.4087   51.3269 H   0  0  0  0  0  0  0  0  0  0  0  0
   51.7838   31.3921   50.7814 H   0  0  0  0  0  0  0  0  0  0  0  0
   50.2027   31.9252   53.7526 H   0  0  0  0  0  0  0  0  0  0  0  0
   50.4399   32.7946   52.1987 H   0  0  0  0  0  0  0  0  0  0  0  0
   50.1103   31.0288   52.1987 H   0  0  0  0  0  0  0  0  0  0  0  0
   51.9641   30.7311   54.6925 H   0  0  0  0  0  0  0  0  0  0  0  0
   51.8715   29.5854   53.2832 H   0  0  0  0  0  0  0  0  0  0  0  0
   54.2888   31.0528   54.3528 H   0  0  0  0  0  0  0  0  0  0  0  0
   53.9857   29.2754   54.2679 H   0  0  0  0  0  0  0  0  0  0  0  0
   56.0090   28.3060   53.5467 H   0  0  0  0  0  0  0  0  0  0  0  0
   58.4524   28.1862   53.2995 H   0  0  0  0  0  0  0  0  0  0  0  0
   61.2440   28.3250   49.7120 H   0  0  0  0  0  0  0  0  0  0  0  0
   60.2819   26.3908   48.6083 H   0  0  0  0  0  0  0  0  0  0  0  0
   58.6174   26.5852   44.5736 H   0  0  0  0  0  0  0  0  0  0  0  0
   57.1369   26.7469   43.5692 H   0  0  0  0  0  0  0  0  0  0  0  0
   58.3694   28.0537   43.5692 H   0  0  0  0  0  0  0  0  0  0  0  0
  1  2  1  0
  2  3  1  0
  3  4  2  0
  4  5  1  0
  5  6  2  0
  6  7  1  0
  7  8  2  0
  8  9  1  0
  9 10  2  0
 10 11  1  0
 11 12  2  0
 12 13  1  0
 13 14  2  0
 14 15  1  0
 15 16  1  0
 16 17  1  0
 17 18  1  0
 18 19  1  0
 19 20  2  0
 20 21  1  0
 21 22  1  0
 22 23  1  0
 23 24  1  0
 24 25  1  0
 25 26  1  0
 25 27  1  0
 27 28  1  0
 21 29  2  0
 29 30  1  0
 30 31  2  0
 31 32  1  0
 32 33  2  0
 32 34  1  0
  7 35  1  0
 35 36  1  0
 36 37  2  0
 37 38  1  0
 38 39  2  0
 39 40  1  0
 40 41  1  0
 39  3  1  0
 38  6  1  0
 14  9  1  0
 31 19  1  0
 28 22  1  0
  1 42  1  0
  1 43  1  0
  1 44  1  0
  4 45  1  0
  5 46  1  0
 10 47  1  0
 11 48  1  0
 12 49  1  0
 13 50  1  0
 16 51  1  0
 16 52  1  0
 17 53  1  0
 17 54  1  0
 18 55  1  0
 20 56  1  0
 23 57  1  0
 23 58  1  0
 24 59  1  0
 24 60  1  0
 26 61  1  0
 26 62  1  0
 26 63  1  0
 27 64  1  0
 27 65  1  0
 28 66  1  0
 28 67  1  0
 29 68  1  0
 30 69  1  0
 35 70  1  0
 36 71  1  0
 41 72  1  0
 41 73  1  0
 41 74  1  0
M  CHG  2  32   1  34  -1
M  END
>  <smiles>  (88) 
COc1ccc2c(=Nc3ccccc3OCCNc3cc(N4CCN(C)CC4)ccc3[N+](=O)[O-])[nH]cnc2c1OC

>  <score_type>  (88) 
oracle

>  <origin>  (88) 
adg

>  <m_score__min__energy>  (88) 
-8.2699999999999996

>  <m_primary>  (88) 
energy

$$$$
88:0
     RDKit          3D

 64 68  0  0  0  0  0  0  0  0999 V2000
   63.7310   33.6760   50.7860 C   0  0  0  0  0  0  0  0  0  0  0  0
   63.1750   33.6270   49.3930 C   0  0  0  0  0  0  0  0  0  0  0  0
   63.9080   33.0020   48.3750 C   0  0  0  0  0  0  0  0  0  0  0  0
   63.4060   32.9550   47.0730 C   0  0  0  0  0  0  0  0  0  0  0  0
   62.1780   33.5450   46.7760 C   0  0  0  0  0  0  0  0  0  0  0  0
   61.4510   34.2140   47.7690 C   0  0  0  0  0  0  0  0  0  0  0  0
   60.2140   34.8390   47.3980 N   0  0  0  0  0  0  0  0  0  0  0  0
   59.6560   34.9880   46.0850 C   0  0  0  0  0  0  0  0  0  0  0  0
   59.6580   36.1010   45.4940 O   0  0  0  0  0  0  0  0  0  0  0  0
   59.1550   33.7740   45.3650 C   0  0  0  0  0  0  0  0  0  0  0  0
   57.7340   33.0210   46.2370 S   0  0  0  0  0  0  0  0  0  0  0  0
   58.7100   32.3520   47.6010 C   0  0  0  0  0  0  0  0  0  0  0  0
   58.4680   32.8440   48.8410 N   0  0  0  0  0  0  0  0  0  0  0  0
   59.1790   32.4420   49.9190 C   0  0  0  0  0  0  0  0  0  0  0  0
   58.9050   32.9830   51.1810 C   0  0  0  0  0  0  0  0  0  0  0  0
   59.6450   32.5730   52.2930 C   0  0  0  0  0  0  0  0  0  0  0  0
   60.6620   31.6250   52.1470 C   0  0  0  0  0  0  0  0  0  0  0  0
   60.9400   31.0780   50.8910 C   0  0  0  0  0  0  0  0  0  0  0  0
   60.1960   31.4840   49.7640 C   0  0  0  0  0  0  0  0  0  0  0  0
   60.4300   30.9650   48.4800 C   0  0  0  0  0  0  0  0  0  0  0  0
   61.3350   30.0970   48.3200 O   0  0  0  0  0  0  0  0  0  0  0  0
   59.6820   31.3960   47.4080 N   0  0  0  0  0  0  0  0  0  0  0  0
   59.8720   30.7780   46.0770 C   0  0  0  0  0  0  0  0  0  0  0  0
   58.9740   29.5730   45.9160 C   0  0  0  0  0  0  0  0  0  0  0  0
   57.7930   29.6600   45.1650 C   0  0  0  0  0  0  0  0  0  0  0  0
   56.9370   28.5590   45.0580 C   0  0  0  0  0  0  0  0  0  0  0  0
   57.2560   27.3430   45.6890 C   0  0  0  0  0  0  0  0  0  0  0  0
   56.3380   26.1790   45.6230 C   0  0  0  0  0  0  0  0  0  0  0  0
   55.1420   26.3160   45.9960 O   0  0  0  0  0  0  0  0  0  0  0  0
   56.7870   24.9030   45.1410 N   0  0  0  0  0  0  0  0  0  0  0  0
   55.8610   23.8180   44.8290 C   0  0  0  0  0  0  0  0  0  0  0  0
   55.2030   23.3170   46.0760 C   0  0  0  0  0  0  0  0  0  0  0  0
   55.8100   23.1900   47.3190 C   0  0  0  0  0  0  0  0  0  0  0  0
   54.9430   22.7140   48.3080 C   0  0  0  0  0  0  0  0  0  0  0  0
   53.6540   22.4750   47.8500 C   0  0  0  0  0  0  0  0  0  0  0  0
   53.5920   22.8550   46.2120 S   0  0  0  0  0  0  0  0  0  0  0  0
   58.4480   27.2570   46.4310 C   0  0  0  0  0  0  0  0  0  0  0  0
   59.3020   28.3580   46.5370 C   0  0  0  0  0  0  0  0  0  0  0  0
   61.9450   34.2310   49.0880 C   0  0  0  0  0  0  0  0  0  0  0  0
   62.9079   33.6035   51.5121 H   0  0  0  0  0  0  0  0  0  0  0  0
   64.4252   32.8356   50.9335 H   0  0  0  0  0  0  0  0  0  0  0  0
   64.2675   34.6249   50.9335 H   0  0  0  0  0  0  0  0  0  0  0  0
   64.8830   32.5465   48.6028 H   0  0  0  0  0  0  0  0  0  0  0  0
   63.9798   32.4520   46.2807 H   0  0  0  0  0  0  0  0  0  0  0  0
   61.7769   33.4846   45.7535 H   0  0  0  0  0  0  0  0  0  0  0  0
   58.8406   34.0632   44.3513 H   0  0  0  0  0  0  0  0  0  0  0  0
   59.9684   33.0345   45.3249 H   0  0  0  0  0  0  0  0  0  0  0  0
   58.1069   33.7310   51.2971 H   0  0  0  0  0  0  0  0  0  0  0  0
   59.4271   32.9967   53.2845 H   0  0  0  0  0  0  0  0  0  0  0  0
   61.2457   31.3083   53.0239 H   0  0  0  0  0  0  0  0  0  0  0  0
   61.7395   30.3305   50.7817 H   0  0  0  0  0  0  0  0  0  0  0  0
   59.6297   31.5159   45.2980 H   0  0  0  0  0  0  0  0  0  0  0  0
   60.9192   30.4546   45.9828 H   0  0  0  0  0  0  0  0  0  0  0  0
   57.5378   30.6013   44.6562 H   0  0  0  0  0  0  0  0  0  0  0  0
   56.0075   28.6447   44.4761 H   0  0  0  0  0  0  0  0  0  0  0  0
   57.8060   24.7300   44.9950 H   0  0  0  0  0  0  0  0  0  0  0  0
   55.0905   24.1874   44.1363 H   0  0  0  0  0  0  0  0  0  0  0  0
   56.4222   22.9928   44.3662 H   0  0  0  0  0  0  0  0  0  0  0  0
   56.8651   23.4385   47.5064 H   0  0  0  0  0  0  0  0  0  0  0  0
   55.2528   22.5450   49.3498 H   0  0  0  0  0  0  0  0  0  0  0  0
   52.8154   22.1006   48.4555 H   0  0  0  0  0  0  0  0  0  0  0  0
   58.7104   26.3139   46.9327 H   0  0  0  0  0  0  0  0  0  0  0  0
   60.2367   28.2718   47.1105 H   0  0  0  0  0  0  0  0  0  0  0  0
   61.3638   34.7203   49.8835 H   0  0  0  0  0  0  0  0  0  0  0  0
  1  2  1  0
  2  3  2  0
  3  4  1  0
  4  5  2  0
  5  6  1  0
  6  7  1  0
  7  8  1  0
  8  9  2  0
  8 10  1  0
 10 11  1  0
 11 12  1  0
 12 13  2  0
 13 14  1  0
 14 15  2  0
 15 16  1  0
 16 17  2  0
 17 18  1  0
 18 19  2  0
 19 20  1  0
 20 21  2  0
 20 22  1  0
 22 23  1  0
 23 24  1  0
 24 25  2  0
 25 26  1  0
 26 27  2  0
 27 28  1  0
 28 29  2  0
 28 30  1  0
 30 31  1  0
 31 32  1  0
 32 33  2  0
 33 34  1  0
 34 35  2  0
 35 36  1  0
 27 37  1  0
 37 38  2  0
  6 39  2  0
 39  2  1  0
 22 12  1  0
 38 24  1  0
 19 14  1  0
 36 32  1  0
  1 40  1  0
  1 41  1  0
  1 42  1  0
  3 43  1  0
  4 44  1  0
  5 45  1  0
 10 46  1  0
 10 47  1  0
 15 48  1  0
 16 49  1  0
 17 50  1  0
 18 51  1  0
 23 52  1  0
 23 53  1  0
 25 54  1  0
 26 55  1  0
 30 56  1  0
 31 57  1  0
 31 58  1  0
 33 59  1  0
 34 60  1  0
 35 61  1  0
 37 62  1  0
 38 63  1  0
 39 64  1  0
M  CHG  1   7  -1
M  END
>  <UniqueID>  (89) 
76

>  <SMILES>  (89) 
Cc1cccc([N-]C(=O)CSc2nc3ccccc3c(=O)n2Cc2ccc(C(=O)NCc3cccs3)cc2)c1

>  <Energy>  (89) 
100.25311670159512

>  <Genealogy>  (89) 
Cc1cccc([N-]C(=O)CSc2nc3ccccc3c(=O)n2Cc2ccc(C(=O)NCc3cccs3)cc2)c1 (protonated)
Cc1cccc([N-]C(=O)CSc2nc3ccccc3c(=O)n2Cc2ccc(C(=O)NCc3cccs3)cc2)c1 (3D coordinates assigned)
Cc1cccc([N-]C(=O)CSc2nc3ccccc3c(=O)n2Cc2ccc(C(=O)NCc3cccs3)cc2)c1 (optimized conformer: 100.25311670159512 kcal/mol)

>  <smiles>  (89) 
Cc1cccc(NC(=O)CSc2nc3ccccc3c(=O)n2Cc2ccc(C(=O)NCc3cccs3)cc2)c1

>  <score_type>  (89) 
oracle

>  <origin>  (89) 
adg

>  <m_score__min__energy>  (89) 
-10.779999999999999

>  <m_primary>  (89) 
energy

$$$$
89:0
     RDKit          3D

 51 52  0  0  0  0  0  0  0  0999 V2000
   63.3680   32.4640   47.2180 C   0  0  0  0  0  0  0  0  0  0  0  0
   62.3740   32.8040   48.1780 O   0  0  0  0  0  0  0  0  0  0  0  0
   61.2140   32.0700   48.4810 C   0  0  0  0  0  0  0  0  0  0  0  0
   60.9930   30.9160   47.7230 C   0  0  0  0  0  0  0  0  0  0  0  0
   59.8490   30.1300   47.9100 C   0  0  0  0  0  0  0  0  0  0  0  0
   59.6080   28.9430   47.0530 C   0  0  0  0  0  0  0  0  0  0  0  0
   60.1140   27.8310   47.3690 O   0  0  0  0  0  0  0  0  0  0  0  0
   58.8380   29.0530   45.8460 N   0  0  0  0  0  0  0  0  0  0  0  0
   59.0780   28.1960   44.6850 C   0  0  0  0  0  0  0  0  0  0  0  0
   57.8940   28.2460   43.7150 C   0  0  0  0  0  0  0  0  0  0  0  0
   56.8080   29.6460   44.0110 S   0  0  0  0  0  0  0  0  0  0  0  0
   55.8860   29.8150   42.8360 O   0  0  0  0  0  0  0  0  0  0  0  0
   55.9930   29.3710   45.2440 O   0  0  0  0  0  0  0  0  0  0  0  0
   57.7380   31.0990   44.2310 N   0  0  0  0  0  0  0  0  0  0  0  0
   56.9260   32.1430   44.8480 C   0  0  0  0  0  0  0  0  0  0  0  0
   57.8380   33.1650   45.4650 C   0  0  0  0  0  0  0  0  0  0  0  0
   58.7420   33.8740   44.6580 C   0  0  0  0  0  0  0  0  0  0  0  0
   59.6420   34.7760   45.2330 C   0  0  0  0  0  0  0  0  0  0  0  0
   59.6480   34.9730   46.6120 C   0  0  0  0  0  0  0  0  0  0  0  0
   58.7450   34.2830   47.4210 C   0  0  0  0  0  0  0  0  0  0  0  0
   57.8400   33.3820   46.8520 C   0  0  0  0  0  0  0  0  0  0  0  0
   58.9140   30.5120   48.8810 C   0  0  0  0  0  0  0  0  0  0  0  0
   59.1210   31.6540   49.6760 C   0  0  0  0  0  0  0  0  0  0  0  0
   58.2120   32.0100   50.6860 O   0  0  0  0  0  0  0  0  0  0  0  0
   58.0390   31.3070   51.9120 C   0  0  0  0  0  0  0  0  0  0  0  0
   60.2710   32.4470   49.4710 C   0  0  0  0  0  0  0  0  0  0  0  0
   60.4980   33.5880   50.2520 O   0  0  0  0  0  0  0  0  0  0  0  0
   61.7030   33.8270   50.9770 C   0  0  0  0  0  0  0  0  0  0  0  0
   64.2861   32.1500   47.7362 H   0  0  0  0  0  0  0  0  0  0  0  0
   63.0025   31.6398   46.5879 H   0  0  0  0  0  0  0  0  0  0  0  0
   63.5838   33.3394   46.5879 H   0  0  0  0  0  0  0  0  0  0  0  0
   61.7325   30.6195   46.9646 H   0  0  0  0  0  0  0  0  0  0  0  0
   58.0790   29.7710   45.7870 H   0  0  0  0  0  0  0  0  0  0  0  0
   59.9844   28.5395   44.1650 H   0  0  0  0  0  0  0  0  0  0  0  0
   59.2040   27.1601   45.0328 H   0  0  0  0  0  0  0  0  0  0  0  0
   58.2836   28.3146   42.6886 H   0  0  0  0  0  0  0  0  0  0  0  0
   57.3028   27.3310   43.8676 H   0  0  0  0  0  0  0  0  0  0  0  0
   56.2971   32.6225   44.0834 H   0  0  0  0  0  0  0  0  0  0  0  0
   56.2786   31.7045   45.6217 H   0  0  0  0  0  0  0  0  0  0  0  0
   58.7421   33.7191   43.5690 H   0  0  0  0  0  0  0  0  0  0  0  0
   60.3463   35.3309   44.5958 H   0  0  0  0  0  0  0  0  0  0  0  0
   60.3658   35.6736   47.0636 H   0  0  0  0  0  0  0  0  0  0  0  0
   58.7450   34.4481   48.5085 H   0  0  0  0  0  0  0  0  0  0  0  0
   57.1276   32.8417   47.4928 H   0  0  0  0  0  0  0  0  0  0  0  0
   58.0045   29.9100   49.0238 H   0  0  0  0  0  0  0  0  0  0  0  0
   58.2078   31.9931   52.7551 H   0  0  0  0  0  0  0  0  0  0  0  0
   57.0156   30.9070   51.9641 H   0  0  0  0  0  0  0  0  0  0  0  0
   58.7599   30.4778   51.9641 H   0  0  0  0  0  0  0  0  0  0  0  0
   61.4957   33.7859   52.0565 H   0  0  0  0  0  0  0  0  0  0  0  0
   62.4460   33.0587   50.7168 H   0  0  0  0  0  0  0  0  0  0  0  0
   62.0965   34.8207   50.7168 H   0  0  0  0  0  0  0  0  0  0  0  0
  1  2  1  0
  2  3  1  0
  3  4  2  0
  4  5  1  0
  5  6  1  0
  6  7  2  0
  6  8  1  0
  8  9  1  0
  9 10  1  0
 10 11  1  0
 11 12  2  0
 11 13  2  0
 11 14  1  0
 14 15  1  0
 15 16  1  0
 16 17  2  0
 17 18  1  0
 18 19  2  0
 19 20  1  0
 20 21  2  0
  5 22  2  0
 22 23  1  0
 23 24  1  0
 24 25  1  0
 23 26  2  0
 26 27  1  0
 27 28  1  0
 26  3  1  0
 21 16  1  0
  1 29  1  0
  1 30  1  0
  1 31  1  0
  4 32  1  0
  8 33  1  0
  9 34  1  0
  9 35  1  0
 10 36  1  0
 10 37  1  0
 15 38  1  0
 15 39  1  0
 17 40  1  0
 18 41  1  0
 19 42  1  0
 20 43  1  0
 21 44  1  0
 22 45  1  0
 25 46  1  0
 25 47  1  0
 25 48  1  0
 28 49  1  0
 28 50  1  0
 28 51  1  0
M  CHG  1  14  -1
M  END
>  <UniqueID>  (90) 
77

>  <SMILES>  (90) 
COc1cc(C(=O)NCCS(=O)(=O)[N-]Cc2ccccc2)cc(OC)c1OC

>  <Energy>  (90) 
46.148857055421814

>  <Genealogy>  (90) 
COc1cc(C(=O)NCCS(=O)(=O)[N-]Cc2ccccc2)cc(OC)c1OC (protonated)
COc1cc(C(=O)NCCS(=O)(=O)[N-]Cc2ccccc2)cc(OC)c1OC (3D coordinates assigned)
COc1cc(C(=O)NCCS(=O)(=O)[N-]Cc2ccccc2)cc(OC)c1OC (optimized conformer: 46.148857055421814 kcal/mol)

>  <smiles>  (90) 
COc1cc(C(=O)NCCS(=O)(=O)NCc2ccccc2)cc(OC)c1OC

>  <score_type>  (90) 
oracle

>  <origin>  (90) 
adg

>  <m_score__min__energy>  (90) 
-9.5600000000000005

>  <m_primary>  (90) 
energy

$$$$
90:0
     RDKit          3D

 54 56  0  0  0  0  0  0  0  0999 V2000
   54.5350   23.5020   46.4470 C   0  0  0  0  0  0  0  0  0  0  0  0
   55.0080   24.5630   45.6240 O   0  0  0  0  0  0  0  0  0  0  0  0
   56.2040   25.2650   45.8430 C   0  0  0  0  0  0  0  0  0  0  0  0
   56.2190   26.5640   46.3840 C   0  0  0  0  0  0  0  0  0  0  0  0
   57.4310   27.2250   46.6030 C   0  0  0  0  0  0  0  0  0  0  0  0
   58.6420   26.6070   46.2730 C   0  0  0  0  0  0  0  0  0  0  0  0
   60.1650   27.4270   46.6100 S   0  0  0  0  0  0  0  0  0  0  0  0
   61.1270   26.5080   47.3110 O   0  0  0  0  0  0  0  0  0  0  0  0
   60.7890   27.8500   45.3110 O   0  0  0  0  0  0  0  0  0  0  0  0
   59.8500   28.8370   47.5670 N   0  0  0  0  0  0  0  0  0  0  0  0
   59.4070   30.0980   47.0470 C   0  0  0  0  0  0  0  0  0  0  0  0
   60.0380   31.2610   47.4880 C   0  0  0  0  0  0  0  0  0  0  0  0
   59.6430   32.5060   46.9780 C   0  0  0  0  0  0  0  0  0  0  0  0
   60.2650   33.6980   47.3610 O   0  0  0  0  0  0  0  0  0  0  0  0
   61.3240   33.7590   48.2750 C   0  0  0  0  0  0  0  0  0  0  0  0
   61.0520   33.7960   49.6540 C   0  0  0  0  0  0  0  0  0  0  0  0
   59.6330   33.7610   50.1480 C   0  0  0  0  0  0  0  0  0  0  0  0
   62.1130   33.8140   50.5710 C   0  0  0  0  0  0  0  0  0  0  0  0
   63.4370   33.8230   50.1170 C   0  0  0  0  0  0  0  0  0  0  0  0
   64.5190   33.8600   51.0660 C   0  0  0  0  0  0  0  0  0  0  0  0
   65.3870   33.8920   51.8330 N   0  0  0  0  0  0  0  0  0  0  0  0
   63.7070   33.8140   48.7450 C   0  0  0  0  0  0  0  0  0  0  0  0
   62.6550   33.7930   47.8160 C   0  0  0  0  0  0  0  0  0  0  0  0
   62.9530   33.8080   46.3420 C   0  0  0  0  0  0  0  0  0  0  0  0
   58.5880   32.5630   46.0660 C   0  0  0  0  0  0  0  0  0  0  0  0
   57.9280   31.3790   45.6780 C   0  0  0  0  0  0  0  0  0  0  0  0
   56.9160   31.3790   44.8520 N   0  0  0  0  0  0  0  0  0  0  0  0
   56.2770   30.2600   44.2170 C   0  0  0  0  0  0  0  0  0  0  0  0
   56.2860   30.0780   42.7290 C   0  0  0  0  0  0  0  0  0  0  0  0
   55.6010   29.4650   44.9210 O   0  0  0  0  0  0  0  0  0  0  0  0
   58.3730   30.1830   46.1600 N   0  0  0  0  0  0  0  0  0  0  0  0
   58.6330   25.3180   45.7260 C   0  0  0  0  0  0  0  0  0  0  0  0
   57.4210   24.6480   45.5150 C   0  0  0  0  0  0  0  0  0  0  0  0
   57.4450   23.0220   44.8450 Cl  0  0  0  0  0  0  0  0  0  0  0  0
   54.6573   23.7763   47.5052 H   0  0  0  0  0  0  0  0  0  0  0  0
   53.4708   23.3206   46.2358 H   0  0  0  0  0  0  0  0  0  0  0  0
   55.1114   22.5892   46.2358 H   0  0  0  0  0  0  0  0  0  0  0  0
   55.2712   27.0622   46.6361 H   0  0  0  0  0  0  0  0  0  0  0  0
   57.4327   28.2358   47.0368 H   0  0  0  0  0  0  0  0  0  0  0  0
   60.8439   31.2017   48.2344 H   0  0  0  0  0  0  0  0  0  0  0  0
   59.6276   33.7609   51.2480 H   0  0  0  0  0  0  0  0  0  0  0  0
   59.0943   34.6461   49.7788 H   0  0  0  0  0  0  0  0  0  0  0  0
   59.1386   32.8504   49.7788 H   0  0  0  0  0  0  0  0  0  0  0  0
   61.9039   33.8211   51.6509 H   0  0  0  0  0  0  0  0  0  0  0  0
   64.7488   33.8234   48.3921 H   0  0  0  0  0  0  0  0  0  0  0  0
   64.0408   33.8628   46.1884 H   0  0  0  0  0  0  0  0  0  0  0  0
   62.5632   32.8891   45.8797 H   0  0  0  0  0  0  0  0  0  0  0  0
   62.4729   34.6831   45.8797 H   0  0  0  0  0  0  0  0  0  0  0  0
   58.2716   33.5310   45.6502 H   0  0  0  0  0  0  0  0  0  0  0  0
   56.3390   29.0053   42.4911 H   0  0  0  0  0  0  0  0  0  0  0  0
   55.3657   30.5032   42.3020 H   0  0  0  0  0  0  0  0  0  0  0  0
   57.1598   30.5919   42.3020 H   0  0  0  0  0  0  0  0  0  0  0  0
   57.8720   29.3180   45.8650 H   0  0  0  0  0  0  0  0  0  0  0  0
   59.5821   24.8292   45.4608 H   0  0  0  0  0  0  0  0  0  0  0  0
  1  2  1  0
  2  3  1  0
  3  4  2  0
  4  5  1  0
  5  6  2  0
  6  7  1  0
  7  8  2  0
  7  9  2  0
  7 10  1  0
 10 11  1  0
 11 12  2  0
 12 13  1  0
 13 14  1  0
 14 15  1  0
 15 16  2  0
 16 17  1  0
 16 18  1  0
 18 19  2  0
 19 20  1  0
 20 21  3  0
 19 22  1  0
 22 23  2  0
 23 24  1  0
 13 25  2  0
 25 26  1  0
 26 27  2  3
 27 28  1  0
 28 29  1  0
 28 30  2  0
 26 31  1  0
  6 32  1  0
 32 33  2  0
 33 34  1  0
 33  3  1  0
 31 11  1  0
 23 15  1  0
  1 35  1  0
  1 36  1  0
  1 37  1  0
  4 38  1  0
  5 39  1  0
 12 40  1  0
 17 41  1  0
 17 42  1  0
 17 43  1  0
 18 44  1  0
 22 45  1  0
 24 46  1  0
 24 47  1  0
 24 48  1  0
 25 49  1  0
 29 50  1  0
 29 51  1  0
 29 52  1  0
 31 53  1  0
 32 54  1  0
M  CHG  1  10  -1
M  END
>  <UniqueID>  (91) 
78

>  <SMILES>  (91) 
COc1ccc(S(=O)(=O)[N-]c2cc(Oc3c(C)cc(C#N)cc3C)cc(=NC(C)=O)[nH]2)cc1Cl

>  <Energy>  (91) 
75.3324153194095

>  <Genealogy>  (91) 
COc1ccc(S(=O)(=O)[N-]c2cc(Oc3c(C)cc(C#N)cc3C)cc(=NC(C)=O)[nH]2)cc1Cl (protonated)
COc1ccc(S(=O)(=O)[N-]c2cc(Oc3c(C)cc(C#N)cc3C)cc(=NC(C)=O)[nH]2)cc1Cl (3D coordinates assigned)
COc1ccc(S(=O)(=O)[N-]c2cc(Oc3c(C)cc(C#N)cc3C)cc(=NC(C)=O)[nH]2)cc1Cl (optimized conformer: 75.3324153194095 kcal/mol)

>  <smiles>  (91) 
COc1ccc(S(=O)(=O)Nc2cc(Oc3c(C)cc(C#N)cc3C)cc(=NC(C)=O)[nH]2)cc1Cl

>  <score_type>  (91) 
oracle

>  <origin>  (91) 
adg

>  <m_score__min__energy>  (91) 
-10.58

>  <m_primary>  (91) 
energy

$$$$
91:0
     RDKit          3D

 50 52  0  0  1  0  0  0  0  0999 V2000
   56.6320   29.9650   42.7550 C   0  0  0  0  0  0  0  0  0  0  0  0
   56.4680   29.1270   43.8730 O   0  0  0  0  0  0  0  0  0  0  0  0
   57.3720   29.1810   44.9280 C   0  0  0  0  0  0  0  0  0  0  0  0
   58.0840   28.0450   45.2950 C   0  0  0  0  0  0  0  0  0  0  0  0
   58.9810   28.1350   46.3560 C   0  0  0  0  0  0  0  0  0  0  0  0
   59.6940   27.0630   46.7500 N   0  0  0  0  0  0  0  0  0  0  0  0
   60.5720   27.1320   47.7820 C   0  0  0  0  0  0  0  0  0  0  0  0
   60.7710   28.2870   48.4630 N   0  0  0  0  0  0  0  0  0  0  0  0
   60.0520   29.3610   48.0640 C   0  0  0  0  0  0  0  0  0  0  0  0
   60.1900   30.5070   48.6720 N   0  0  0  0  0  0  0  0  0  0  0  0
   61.4590   31.1800   48.7040 C   0  0  0  0  0  0  0  0  0  0  0  0
   61.7380   32.0470   47.6770 C   0  0  0  0  0  0  0  0  0  0  0  0
   62.9350   32.7310   47.6370 C   0  0  0  0  0  0  0  0  0  0  0  0
   63.3290   33.8450   46.3460 Cl  0  0  0  0  0  0  0  0  0  0  0  0
   63.8510   32.5160   48.6630 C   0  0  0  0  0  0  0  0  0  0  0  0
   63.5640   31.6390   49.6980 C   0  0  0  0  0  0  0  0  0  0  0  0
   64.7710   31.4260   50.9520 Cl  0  0  0  0  0  0  0  0  0  0  0  0
   62.3700   30.9690   49.7210 C   0  0  0  0  0  0  0  0  0  0  0  0
   59.1580   29.3250   47.0270 C   0  0  0  0  0  0  0  0  0  0  0  0
   58.4490   30.4580   46.6620 C   0  0  0  0  0  0  0  0  0  0  0  0
   57.5640   30.3640   45.6140 C   0  0  0  0  0  0  0  0  0  0  0  0
   56.8230   31.4790   45.2050 O   0  0  0  0  0  0  0  0  0  0  0  0
   57.4880   32.5370   44.5520 C   0  0  0  0  0  0  0  0  0  0  0  0
   57.3040   33.8660   45.2820 C   0  0  0  0  0  0  0  0  0  0  0  0
   57.8640   33.6440   46.6750 C   0  0  0  0  0  0  0  0  0  0  0  0
   59.2570   34.0350   46.7870 N   0  0  0  0  0  0  0  0  0  0  0  0
   59.5320   34.5540   48.1120 C   0  0  0  0  0  0  0  0  0  0  0  0
   59.6420   35.0050   45.8110 C   0  0  0  0  0  0  0  0  0  0  0  0
   56.8330   30.9923   43.0931 H   0  0  0  0  0  0  0  0  0  0  0  0
   57.4770   29.6065   42.1489 H   0  0  0  0  0  0  0  0  0  0  0  0
   55.7142   29.9515   42.1489 H   0  0  0  0  0  0  0  0  0  0  0  0
   57.9418   27.0952   44.7586 H   0  0  0  0  0  0  0  0  0  0  0  0
   59.5900   26.1460   46.2710 H   0  0  0  0  0  0  0  0  0  0  0  0
   61.1340   26.2320   48.0721 H   0  0  0  0  0  0  0  0  0  0  0  0
   60.9985   32.1980   46.8768 H   0  0  0  0  0  0  0  0  0  0  0  0
   64.8137   33.0480   48.6525 H   0  0  0  0  0  0  0  0  0  0  0  0
   62.1390   30.2712   50.5393 H   0  0  0  0  0  0  0  0  0  0  0  0
   58.5906   31.4086   47.1971 H   0  0  0  0  0  0  0  0  0  0  0  0
   58.5621   32.3047   44.5027 H   0  0  0  0  0  0  0  0  0  0  0  0
   57.0564   32.6397   43.5454 H   0  0  0  0  0  0  0  0  0  0  0  0
   57.8567   34.6665   44.7685 H   0  0  0  0  0  0  0  0  0  0  0  0
   56.2482   34.1733   45.3107 H   0  0  0  0  0  0  0  0  0  0  0  0
   57.2737   34.2358   47.3901 H   0  0  0  0  0  0  0  0  0  0  0  0
   57.8027   32.5670   46.8902 H   0  0  0  0  0  0  0  0  0  0  0  0
   59.1577   33.8475   48.8675 H   0  0  0  0  0  0  0  0  0  0  0  0
   60.6171   34.6837   48.2371 H   0  0  0  0  0  0  0  0  0  0  0  0
   59.0299   35.5247   48.2371 H   0  0  0  0  0  0  0  0  0  0  0  0
   60.0021   35.9123   46.3180 H   0  0  0  0  0  0  0  0  0  0  0  0
   60.4449   34.5934   45.1818 H   0  0  0  0  0  0  0  0  0  0  0  0
   58.7753   35.2560   45.1818 H   0  0  0  0  0  0  0  0  0  0  0  0
  1  2  1  0
  2  3  1  0
  3  4  2  0
  4  5  1  0
  5  6  1  0
  6  7  1  0
  7  8  2  0
  8  9  1  0
  9 10  2  0
 10 11  1  0
 11 12  2  0
 12 13  1  0
 13 14  1  0
 13 15  2  0
 15 16  1  0
 16 17  1  0
 16 18  2  0
  9 19  1  0
 19 20  1  0
 20 21  2  0
 21 22  1  0
 22 23  1  0
 23 24  1  0
 24 25  1  0
 25 26  1  0
 26 27  1  0
 26 28  1  0
 21  3  1  0
 19  5  2  0
 18 11  1  0
  1 29  1  0
  1 30  1  0
  1 31  1  0
  4 32  1  0
  6 33  1  0
  7 34  1  0
 12 35  1  0
 15 36  1  0
 18 37  1  0
 20 38  1  0
 23 39  1  0
 23 40  1  0
 24 41  1  0
 24 42  1  0
 25 43  1  0
 25 44  1  0
 27 45  1  0
 27 46  1  0
 27 47  1  0
 28 48  1  0
 28 49  1  0
 28 50  1  0
M  END
>  <smiles>  (92) 
COc1cc2[nH]cnc(=Nc3cc(Cl)cc(Cl)c3)c2cc1OCCCN(C)C

>  <score_type>  (92) 
oracle

>  <origin>  (92) 
adg

>  <m_score__min__energy>  (92) 
-7.8499999999999996

>  <m_primary>  (92) 
energy

$$$$
92:0
     RDKit          3D

 53 54  0  0  1  0  0  0  0  0999 V2000
   56.6610   30.8050   42.5180 C   0  0  0  0  0  0  0  0  0  0  0  0
   55.8220   30.0230   43.4780 C   0  0  0  0  0  0  0  0  0  0  0  0
   56.5120   29.6920   44.7170 N   0  0  0  0  0  0  0  0  0  0  0  0
   57.5430   28.6850   44.6690 C   0  0  0  0  0  0  0  0  0  0  0  0
   57.7410   28.1830   43.5240 O   0  0  0  0  0  0  0  0  0  0  0  0
   58.2710   28.3030   45.8490 C   0  0  0  0  0  0  0  0  0  0  0  0
   59.3090   29.1210   46.2660 C   0  0  0  0  0  0  0  0  0  0  0  0
   60.0550   28.8160   47.3920 C   0  0  0  0  0  0  0  0  0  0  0  0
   59.7960   27.6880   48.1440 C   0  0  0  0  0  0  0  0  0  0  0  0
   60.6360   27.4310   49.3350 C   0  0  0  0  0  0  0  0  0  0  0  0
   60.6450   28.5700   50.2700 C   0  0  0  0  0  0  0  0  0  0  0  0
   61.7500   29.1080   50.5380 O   0  0  0  0  0  0  0  0  0  0  0  0
   59.4230   29.0240   50.8350 N   0  0  0  0  0  0  0  0  0  0  0  0
   58.9640   30.1730   50.4740 C   0  0  0  0  0  0  0  0  0  0  0  0
   59.5880   31.0050   49.5470 C   0  0  0  0  0  0  0  0  0  0  0  0
   58.8180   32.1540   49.4020 C   0  0  0  0  0  0  0  0  0  0  0  0
   59.0700   33.3050   48.5410 C   0  0  0  0  0  0  0  0  0  0  0  0
   59.4420   34.4030   49.0800 O   0  0  0  0  0  0  0  0  0  0  0  0
   58.9020   33.1950   47.1340 N   0  0  0  0  0  0  0  0  0  0  0  0
   59.1340   34.2890   46.2280 C   0  0  0  0  0  0  0  0  0  0  0  0
   58.4290   34.1180   44.8930 C   0  0  0  0  0  0  0  0  0  0  0  0
   57.0310   33.6010   45.1520 C   0  0  0  0  0  0  0  0  0  0  0  0
   57.0610   32.2380   45.4030 O   0  0  0  0  0  0  0  0  0  0  0  0
   57.7730   31.9830   50.2300 N   0  0  0  0  0  0  0  0  0  0  0  0
   57.8530   30.8240   50.8610 N   0  0  0  0  0  0  0  0  0  0  0  0
   58.7690   26.8790   47.7310 C   0  0  0  0  0  0  0  0  0  0  0  0
   58.0140   27.1760   46.6010 C   0  0  0  0  0  0  0  0  0  0  0  0
   56.9110   26.2830   46.1810 C   0  0  0  0  0  0  0  0  0  0  0  0
   57.2430   25.5440   45.0550 F   0  0  0  0  0  0  0  0  0  0  0  0
   56.6540   25.3760   47.1920 F   0  0  0  0  0  0  0  0  0  0  0  0
   55.7390   26.9870   45.9990 F   0  0  0  0  0  0  0  0  0  0  0  0
   57.3536   31.4506   43.0779 H   0  0  0  0  0  0  0  0  0  0  0  0
   57.2356   30.1128   41.8850 H   0  0  0  0  0  0  0  0  0  0  0  0
   56.0108   31.4268   41.8850 H   0  0  0  0  0  0  0  0  0  0  0  0
   54.9297   30.6172   43.7245 H   0  0  0  0  0  0  0  0  0  0  0  0
   55.5678   29.0728   42.9856 H   0  0  0  0  0  0  0  0  0  0  0  0
   56.2860   30.1540   45.6220 H   0  0  0  0  0  0  0  0  0  0  0  0
   59.5446   30.0293   45.6920 H   0  0  0  0  0  0  0  0  0  0  0  0
   60.8722   29.4876   47.6939 H   0  0  0  0  0  0  0  0  0  0  0  0
   60.2453   26.5463   49.8591 H   0  0  0  0  0  0  0  0  0  0  0  0
   61.6682   27.2707   48.9903 H   0  0  0  0  0  0  0  0  0  0  0  0
   60.5291   30.7898   49.0197 H   0  0  0  0  0  0  0  0  0  0  0  0
   58.5920   32.2440   46.7800 H   0  0  0  0  0  0  0  0  0  0  0  0
   58.7728   35.2155   46.6983 H   0  0  0  0  0  0  0  0  0  0  0  0
   60.2147   34.3235   46.0258 H   0  0  0  0  0  0  0  0  0  0  0  0
   58.3764   35.0866   44.3743 H   0  0  0  0  0  0  0  0  0  0  0  0
   58.9831   33.4074   44.2621 H   0  0  0  0  0  0  0  0  0  0  0  0
   56.6074   34.1213   46.0237 H   0  0  0  0  0  0  0  0  0  0  0  0
   56.4101   33.7876   44.2634 H   0  0  0  0  0  0  0  0  0  0  0  0
   56.1430   31.9470   45.6100 H   0  0  0  0  0  0  0  0  0  0  0  0
   57.0200   32.7010   50.3280 H   0  0  0  0  0  0  0  0  0  0  0  0
   57.1640   30.4610   51.5550 H   0  0  0  0  0  0  0  0  0  0  0  0
   58.5361   25.9719   48.3080 H   0  0  0  0  0  0  0  0  0  0  0  0
  1  2  1  0
  2  3  1  0
  3  4  1  0
  4  5  2  0
  4  6  1  0
  6  7  2  0
  7  8  1  0
  8  9  2  0
  9 10  1  0
 10 11  1  0
 11 12  2  0
 11 13  1  0
 13 14  2  0
 14 15  1  0
 15 16  2  0
 16 17  1  0
 17 18  2  0
 17 19  1  0
 19 20  1  0
 20 21  1  0
 21 22  1  0
 22 23  1  0
 16 24  1  0
 24 25  1  0
  9 26  1  0
 26 27  2  0
 27 28  1  0
 28 29  1  0
 28 30  1  0
 28 31  1  0
 27  6  1  0
 25 14  1  0
  1 32  1  0
  1 33  1  0
  1 34  1  0
  2 35  1  0
  2 36  1  0
  3 37  1  0
  7 38  1  0
  8 39  1  0
 10 40  1  0
 10 41  1  0
 15 42  1  0
 19 43  1  0
 20 44  1  0
 20 45  1  0
 21 46  1  0
 21 47  1  0
 22 48  1  0
 22 49  1  0
 23 50  1  0
 24 51  1  0
 25 52  1  0
 26 53  1  0
M  END
>  <smiles>  (93) 
CCNC(=O)c1ccc(CC(=O)N=c2cc(C(=O)NCCCO)[nH][nH]2)cc1C(F)(F)F

>  <score_type>  (93) 
oracle

>  <origin>  (93) 
adg

>  <m_score__min__energy>  (93) 
-8.5999999999999996

>  <m_primary>  (93) 
energy

$$$$
93:0
     RDKit          3D

 69 72  0  0  1  0  0  0  0  0999 V2000
   56.6120   30.0230   43.8010 C   0  0  0  0  0  0  0  0  0  0  0  0
   56.9920   30.7050   44.9000 O   0  0  0  0  0  0  0  0  0  0  0  0
   57.7420   31.8150   44.8330 C   0  0  0  0  0  0  0  0  0  0  0  0
   57.2550   33.0750   45.4840 C   0  0  2  0  0  0  0  0  0  0  0  0
   57.8670   34.3260   44.8760 C   0  0  0  0  0  0  0  0  0  0  0  0
   57.6710   33.0990   46.8630 O   0  0  0  0  0  0  0  0  0  0  0  0
   58.9670   33.1150   47.2900 C   0  0  0  0  0  0  0  0  0  0  0  0
   60.0730   33.3710   46.5170 C   0  0  0  0  0  0  0  0  0  0  0  0
   61.3530   33.3680   47.0280 C   0  0  0  0  0  0  0  0  0  0  0  0
   62.4080   33.6300   46.2280 N   0  0  0  0  0  0  0  0  0  0  0  0
   63.6460   33.6260   46.7490 C   0  0  0  0  0  0  0  0  0  0  0  0
   63.8970   33.3690   48.0520 N   0  0  0  0  0  0  0  0  0  0  0  0
   62.8550   33.1050   48.8610 C   0  0  0  0  0  0  0  0  0  0  0  0
   63.0390   32.8580   50.1220 N   0  0  0  0  0  0  0  0  0  0  0  0
   64.2250   32.1690   50.4990 C   0  0  0  0  0  0  0  0  0  0  0  0
   65.4790   32.7370   50.4750 C   0  0  0  0  0  0  0  0  0  0  0  0
   66.5600   31.9480   50.8760 C   0  0  0  0  0  0  0  0  0  0  0  0
   67.8330   32.5000   50.8590 O   0  0  0  0  0  0  0  0  0  0  0  0
   67.9960   33.8440   50.4580 C   0  0  0  0  0  0  0  0  0  0  0  0
   66.3590   30.6280   51.2840 C   0  0  0  0  0  0  0  0  0  0  0  0
   65.1040   30.0600   51.3080 C   0  0  0  0  0  0  0  0  0  0  0  0
   64.8600   28.7540   51.7070 O   0  0  0  0  0  0  0  0  0  0  0  0
   63.9680   28.5220   52.7790 C   0  0  0  0  0  0  0  0  0  0  0  0
   64.0490   30.8480   50.9110 C   0  0  0  0  0  0  0  0  0  0  0  0
   61.5850   33.1020   48.3640 C   0  0  0  0  0  0  0  0  0  0  0  0
   60.4890   32.8430   49.1480 C   0  0  0  0  0  0  0  0  0  0  0  0
   59.2010   32.8470   48.6340 C   0  0  0  0  0  0  0  0  0  0  0  0
   58.1400   32.5720   49.5370 N   0  0  0  0  0  0  0  0  0  0  0  0
   58.2580   31.7340   50.6730 C   0  0  0  0  0  0  0  0  0  0  0  0
   59.3700   31.1950   50.8920 O   0  0  0  0  0  0  0  0  0  0  0  0
   57.1210   31.5550   51.4870 N   0  0  0  0  0  0  0  0  0  0  0  0
   57.0720   30.7270   52.6700 C   0  0  0  0  0  0  0  0  0  0  0  0
   55.7350   30.0990   52.7440 C   0  0  0  0  0  0  0  0  0  0  0  0
   55.4450   28.9470   53.4270 C   0  0  0  0  0  0  0  0  0  0  0  0
   54.1440   28.4300   53.4340 C   0  0  0  0  0  0  0  0  0  0  0  0
   53.1200   29.0800   52.7470 C   0  0  0  0  0  0  0  0  0  0  0  0
   53.4180   30.2400   52.0600 C   0  0  0  0  0  0  0  0  0  0  0  0
   54.7080   30.7520   52.0530 C   0  0  0  0  0  0  0  0  0  0  0  0
   56.0971   29.0989   44.1027 H   0  0  0  0  0  0  0  0  0  0  0  0
   55.9298   30.6439   43.2018 H   0  0  0  0  0  0  0  0  0  0  0  0
   57.4990   29.7696   43.2018 H   0  0  0  0  0  0  0  0  0  0  0  0
   58.7129   31.5733   45.2900 H   0  0  0  0  0  0  0  0  0  0  0  0
   57.7435   32.0617   43.7610 H   0  0  0  0  0  0  0  0  0  0  0  0
   56.1630   33.0754   45.3518 H   0  0  0  0  0  0  0  0  0  0  0  0
   58.1970   35.0006   45.6798 H   0  0  0  0  0  0  0  0  0  0  0  0
   58.7303   34.0468   44.2541 H   0  0  0  0  0  0  0  0  0  0  0  0
   57.1167   34.8362   44.2541 H   0  0  0  0  0  0  0  0  0  0  0  0
   59.9316   33.5870   45.4477 H   0  0  0  0  0  0  0  0  0  0  0  0
   64.4953   33.8420   46.0842 H   0  0  0  0  0  0  0  0  0  0  0  0
   64.8550   33.3730   48.4230 H   0  0  0  0  0  0  0  0  0  0  0  0
   65.6249   33.7779   50.1507 H   0  0  0  0  0  0  0  0  0  0  0  0
   68.0738   34.4854   51.3483 H   0  0  0  0  0  0  0  0  0  0  0  0
   68.9122   33.9387   49.8567 H   0  0  0  0  0  0  0  0  0  0  0  0
   67.1290   34.1550   49.8567 H   0  0  0  0  0  0  0  0  0  0  0  0
   67.2255   30.0256   51.5945 H   0  0  0  0  0  0  0  0  0  0  0  0
   64.4977   28.6598   53.7332 H   0  0  0  0  0  0  0  0  0  0  0  0
   63.1300   29.2321   52.7190 H   0  0  0  0  0  0  0  0  0  0  0  0
   63.5822   27.4936   52.7190 H   0  0  0  0  0  0  0  0  0  0  0  0
   63.0344   30.4231   50.9186 H   0  0  0  0  0  0  0  0  0  0  0  0
   60.6365   32.6257   50.2162 H   0  0  0  0  0  0  0  0  0  0  0  0
   57.2180   33.0480   49.3060 H   0  0  0  0  0  0  0  0  0  0  0  0
   56.2360   32.0500   51.2290 H   0  0  0  0  0  0  0  0  0  0  0  0
   57.8460   29.9476   52.6105 H   0  0  0  0  0  0  0  0  0  0  0  0
   57.2535   31.3375   53.5669 H   0  0  0  0  0  0  0  0  0  0  0  0
   56.2421   28.4234   53.9751 H   0  0  0  0  0  0  0  0  0  0  0  0
   53.9281   27.5034   53.9861 H   0  0  0  0  0  0  0  0  0  0  0  0
   52.0963   28.6774   52.7521 H   0  0  0  0  0  0  0  0  0  0  0  0
   52.6226   30.7653   51.5110 H   0  0  0  0  0  0  0  0  0  0  0  0
   54.9248   31.6780   51.5002 H   0  0  0  0  0  0  0  0  0  0  0  0
  1  2  1  0
  2  3  1  0
  3  4  1  0
  4  5  1  0
  4  6  1  0
  6  7  1  0
  7  8  2  0
  8  9  1  0
  9 10  1  0
 10 11  2  0
 11 12  1  0
 12 13  1  0
 13 14  2  0
 14 15  1  0
 15 16  2  0
 16 17  1  0
 17 18  1  0
 18 19  1  0
 17 20  2  0
 20 21  1  0
 21 22  1  0
 22 23  1  0
 21 24  2  0
 13 25  1  0
 25 26  1  0
 26 27  2  0
 27 28  1  0
 28 29  1  0
 29 30  2  0
 29 31  1  0
 31 32  1  0
 32 33  1  0
 33 34  2  0
 34 35  1  0
 35 36  2  0
 36 37  1  0
 37 38  2  0
 27  7  1  0
 38 33  1  0
 25  9  2  0
 24 15  1  0
  1 39  1  0
  1 40  1  0
  1 41  1  0
  3 42  1  0
  3 43  1  0
  4 44  1  1
  5 45  1  0
  5 46  1  0
  5 47  1  0
  8 48  1  0
 11 49  1  0
 12 50  1  0
 16 51  1  0
 19 52  1  0
 19 53  1  0
 19 54  1  0
 20 55  1  0
 23 56  1  0
 23 57  1  0
 23 58  1  0
 24 59  1  0
 26 60  1  0
 28 61  1  0
 31 62  1  0
 32 63  1  0
 32 64  1  0
 34 65  1  0
 35 66  1  0
 36 67  1  0
 37 68  1  0
 38 69  1  0
M  END
>  <smiles>  (94) 
COCC(C)Oc1cc2nc[nH]c(=Nc3cc(OC)cc(OC)c3)c2cc1NC(=O)NCc1ccccc1

>  <score_type>  (94) 
oracle

>  <origin>  (94) 
adg

>  <m_score__min__energy>  (94) 
-8.5999999999999996

>  <m_primary>  (94) 
energy

$$$$
94:0
     RDKit          3D

 47 49  0  0  0  0  0  0  0  0999 V2000
   65.5520   32.6140   52.0580 N   0  0  0  0  0  0  0  0  0  0  0  0
   65.2560   32.8570   50.6810 C   0  0  0  0  0  0  0  0  0  0  0  0
   65.9490   32.2610   49.7560 N   0  0  0  0  0  0  0  0  0  0  0  0
   64.2430   33.8190   50.3410 N   0  0  0  0  0  0  0  0  0  0  0  0
   63.4500   33.7740   49.1430 C   0  0  0  0  0  0  0  0  0  0  0  0
   64.0270   33.4620   47.9000 C   0  0  0  0  0  0  0  0  0  0  0  0
   63.2380   33.4120   46.7500 C   0  0  0  0  0  0  0  0  0  0  0  0
   61.8690   33.6720   46.8280 C   0  0  0  0  0  0  0  0  0  0  0  0
   61.2710   33.9680   48.0640 C   0  0  0  0  0  0  0  0  0  0  0  0
   59.8210   34.2520   48.1460 C   0  0  0  0  0  0  0  0  0  0  0  0
   59.2780   34.4090   49.2720 O   0  0  0  0  0  0  0  0  0  0  0  0
   59.0070   34.3210   46.9670 N   0  0  0  0  0  0  0  0  0  0  0  0
   58.5540   33.1740   46.2350 C   0  0  0  0  0  0  0  0  0  0  0  0
   57.7090   33.3490   45.1340 C   0  0  0  0  0  0  0  0  0  0  0  0
   57.2020   32.2390   44.4520 C   0  0  0  0  0  0  0  0  0  0  0  0
   57.5640   30.9430   44.8440 C   0  0  0  0  0  0  0  0  0  0  0  0
   56.8430   29.5410   44.0580 S   0  0  0  0  0  0  0  0  0  0  0  0
   57.8970   28.7260   43.3630 O   0  0  0  0  0  0  0  0  0  0  0  0
   55.8490   30.0110   43.0350 O   0  0  0  0  0  0  0  0  0  0  0  0
   56.0200   28.5810   45.2460 N   0  0  0  0  0  0  0  0  0  0  0  0
   56.5630   27.3700   45.7820 C   0  0  0  0  0  0  0  0  0  0  0  0
   57.9400   27.2980   46.0280 C   0  0  0  0  0  0  0  0  0  0  0  0
   58.5080   26.1200   46.5240 C   0  0  0  0  0  0  0  0  0  0  0  0
   57.7020   25.0120   46.7870 C   0  0  0  0  0  0  0  0  0  0  0  0
   56.3240   25.0820   46.5700 C   0  0  0  0  0  0  0  0  0  0  0  0
   55.7470   26.2610   46.0840 C   0  0  0  0  0  0  0  0  0  0  0  0
   54.3690   26.3290   45.9360 O   0  0  0  0  0  0  0  0  0  0  0  0
   58.4520   30.7690   45.9140 C   0  0  0  0  0  0  0  0  0  0  0  0
   58.9410   31.8760   46.6090 C   0  0  0  0  0  0  0  0  0  0  0  0
   62.0660   33.9930   49.2230 C   0  0  0  0  0  0  0  0  0  0  0  0
   65.0120   33.1030   52.8070 H   0  0  0  0  0  0  0  0  0  0  0  0
   66.3010   31.9420   52.3380 H   0  0  0  0  0  0  0  0  0  0  0  0
   66.3120   32.7780   48.9260 H   0  0  0  0  0  0  0  0  0  0  0  0
   66.1920   31.2480   49.8400 H   0  0  0  0  0  0  0  0  0  0  0  0
   64.0720   34.6000   51.0150 H   0  0  0  0  0  0  0  0  0  0  0  0
   65.1055   33.2563   47.8333 H   0  0  0  0  0  0  0  0  0  0  0  0
   63.6959   33.1672   45.7803 H   0  0  0  0  0  0  0  0  0  0  0  0
   61.2546   33.6450   45.9160 H   0  0  0  0  0  0  0  0  0  0  0  0
   57.4425   34.3638   44.8036 H   0  0  0  0  0  0  0  0  0  0  0  0
   56.5161   32.3833   43.6042 H   0  0  0  0  0  0  0  0  0  0  0  0
   58.5778   28.1721   45.8302 H   0  0  0  0  0  0  0  0  0  0  0  0
   59.5914   26.0671   46.7069 H   0  0  0  0  0  0  0  0  0  0  0  0
   58.1522   24.0825   47.1656 H   0  0  0  0  0  0  0  0  0  0  0  0
   55.6904   24.2081   46.7816 H   0  0  0  0  0  0  0  0  0  0  0  0
   58.7648   29.7560   46.2072 H   0  0  0  0  0  0  0  0  0  0  0  0
   59.6319   31.7319   47.4527 H   0  0  0  0  0  0  0  0  0  0  0  0
   61.5997   34.1857   50.2004 H   0  0  0  0  0  0  0  0  0  0  0  0
  1  2  1  0
  2  3  2  0
  2  4  1  0
  4  5  1  0
  5  6  2  0
  6  7  1  0
  7  8  2  0
  8  9  1  0
  9 10  1  0
 10 11  2  0
 10 12  1  0
 12 13  1  0
 13 14  2  0
 14 15  1  0
 15 16  2  0
 16 17  1  0
 17 18  2  0
 17 19  2  0
 17 20  1  0
 20 21  1  0
 21 22  2  0
 22 23  1  0
 23 24  2  0
 24 25  1  0
 25 26  2  0
 26 27  1  0
 16 28  1  0
 28 29  2  0
  9 30  2  0
 30  5  1  0
 29 13  1  0
 26 21  1  0
  1 31  1  0
  1 32  1  0
  3 33  1  0
  3 34  1  0
  4 35  1  0
  6 36  1  0
  7 37  1  0
  8 38  1  0
 14 39  1  0
 15 40  1  0
 22 41  1  0
 23 42  1  0
 24 43  1  0
 25 44  1  0
 28 45  1  0
 29 46  1  0
 30 47  1  0
M  CHG  4   3   1  12  -1  20  -1  27  -1
M  END
>  <UniqueID>  (95) 
79

>  <SMILES>  (95) 
NC(=[NH2+])Nc1cccc(C(=O)[N-]c2ccc(S(=O)(=O)[N-]c3ccccc3[O-])cc2)c1

>  <Energy>  (95) 
65.0933680361038

>  <Genealogy>  (95) 
NC(=[NH2+])Nc1cccc(C(=O)[N-]c2ccc(S(=O)(=O)[N-]c3ccccc3[O-])cc2)c1 (protonated)
NC(=[NH2+])Nc1cccc(C(=O)[N-]c2ccc(S(=O)(=O)[N-]c3ccccc3[O-])cc2)c1 (3D coordinates assigned)
NC(=[NH2+])Nc1cccc(C(=O)[N-]c2ccc(S(=O)(=O)[N-]c3ccccc3[O-])cc2)c1 (optimized conformer: 65.0933680361038 kcal/mol)

>  <smiles>  (95) 
N=C(N)Nc1cccc(C(=O)Nc2ccc(S(=O)(=O)Nc3ccccc3O)cc2)c1

>  <score_type>  (95) 
oracle

>  <origin>  (95) 
adg

>  <m_score__min__energy>  (95) 
-15.16

>  <m_primary>  (95) 
energy

$$$$
95:0
     RDKit          3D

 42 45  0  0  0  0  0  0  0  0999 V2000
   63.1460   34.0560   49.0120 O   0  0  0  0  0  0  0  0  0  0  0  0
   63.2670   32.8020   49.0660 C   0  0  0  0  0  0  0  0  0  0  0  0
   62.3090   31.9580   48.4100 N   0  0  0  0  0  0  0  0  0  0  0  0
   61.3120   32.4650   47.5140 C   0  0  0  0  0  0  0  0  0  0  0  0
   61.1440   34.0970   47.1500 S   0  0  0  0  0  0  0  0  0  0  0  0
   59.8430   33.8930   46.1110 C   0  0  0  0  0  0  0  0  0  0  0  0
   59.5270   32.5380   46.0090 C   0  0  0  0  0  0  0  0  0  0  0  0
   60.3330   31.7220   46.8390 C   0  0  0  0  0  0  0  0  0  0  0  0
   60.0850   30.2840   47.0830 C   0  0  0  0  0  0  0  0  0  0  0  0
   60.3670   29.7920   48.2090 O   0  0  0  0  0  0  0  0  0  0  0  0
   59.6230   29.4460   46.0130 N   0  0  0  0  0  0  0  0  0  0  0  0
   58.4980   28.7910   45.9100 C   0  0  0  0  0  0  0  0  0  0  0  0
   58.2180   27.6130   46.6340 C   0  0  0  0  0  0  0  0  0  0  0  0
   56.9810   26.9820   46.4700 C   0  0  0  0  0  0  0  0  0  0  0  0
   56.0510   27.5060   45.6290 N   0  0  0  0  0  0  0  0  0  0  0  0
   56.2860   28.6480   44.9330 C   0  0  0  0  0  0  0  0  0  0  0  0
   57.5070   29.3130   45.0670 C   0  0  0  0  0  0  0  0  0  0  0  0
   58.3150   32.0750   45.2320 C   0  0  0  0  0  0  0  0  0  0  0  0
   57.8000   33.1540   44.2610 C   0  0  0  0  0  0  0  0  0  0  0  0
   57.7470   34.5370   44.9260 C   0  0  0  0  0  0  0  0  0  0  0  0
   59.1480   34.9880   45.3620 C   0  0  0  0  0  0  0  0  0  0  0  0
   64.3850   32.2170   49.8260 C   0  0  0  0  0  0  0  0  0  0  0  0
   64.2930   31.1610   50.7260 C   0  0  0  0  0  0  0  0  0  0  0  0
   65.5180   30.8250   51.3140 C   0  0  0  0  0  0  0  0  0  0  0  0
   66.5780   31.6120   50.8850 C   0  0  0  0  0  0  0  0  0  0  0  0
   65.9890   32.7270   49.7730 S   0  0  0  0  0  0  0  0  0  0  0  0
   62.2080   30.9690   48.7310 H   0  0  0  0  0  0  0  0  0  0  0  0
   58.9670   27.1941   47.3222 H   0  0  0  0  0  0  0  0  0  0  0  0
   56.7598   26.0578   47.0239 H   0  0  0  0  0  0  0  0  0  0  0  0
   55.5129   29.0504   44.2620 H   0  0  0  0  0  0  0  0  0  0  0  0
   57.6907   30.2448   44.5120 H   0  0  0  0  0  0  0  0  0  0  0  0
   58.5855   31.1787   44.6546 H   0  0  0  0  0  0  0  0  0  0  0  0
   57.5132   31.8593   45.9535 H   0  0  0  0  0  0  0  0  0  0  0  0
   58.4725   33.2018   43.3918 H   0  0  0  0  0  0  0  0  0  0  0  0
   56.7793   32.8811   43.9548 H   0  0  0  0  0  0  0  0  0  0  0  0
   57.3405   35.2660   44.2095 H   0  0  0  0  0  0  0  0  0  0  0  0
   57.1043   34.4749   45.8165 H   0  0  0  0  0  0  0  0  0  0  0  0
   59.7381   35.2479   44.4708 H   0  0  0  0  0  0  0  0  0  0  0  0
   59.0505   35.8632   46.0212 H   0  0  0  0  0  0  0  0  0  0  0  0
   63.3507   30.6411   50.9534 H   0  0  0  0  0  0  0  0  0  0  0  0
   65.6302   30.0131   52.0476 H   0  0  0  0  0  0  0  0  0  0  0  0
   67.6232   31.5217   51.2156 H   0  0  0  0  0  0  0  0  0  0  0  0
  1  2  2  0
  2  3  1  0
  3  4  1  0
  4  5  1  0
  5  6  1  0
  6  7  2  0
  7  8  1  0
  8  9  1  0
  9 10  2  0
  9 11  1  0
 11 12  2  3
 12 13  1  0
 13 14  2  0
 14 15  1  0
 15 16  1  0
 16 17  2  0
  7 18  1  0
 18 19  1  0
 19 20  1  0
 20 21  1  0
  2 22  1  0
 22 23  2  0
 23 24  1  0
 24 25  2  0
 25 26  1  0
  8  4  2  0
 17 12  1  0
 26 22  1  0
 21  6  1  0
  3 27  1  0
 13 28  1  0
 14 29  1  0
 16 30  1  0
 17 31  1  0
 18 32  1  0
 18 33  1  0
 19 34  1  0
 19 35  1  0
 20 36  1  0
 20 37  1  0
 21 38  1  0
 21 39  1  0
 23 40  1  0
 24 41  1  0
 25 42  1  0
M  CHG  1  15  -1
M  END
>  <UniqueID>  (96) 
80

>  <SMILES>  (96) 
O=C(Nc1sc2c(c1C(=O)N=c1cc[n-]cc1)CCCC2)c1cccs1

>  <Energy>  (96) 
112.49538171762738

>  <Genealogy>  (96) 
O=C(Nc1sc2c(c1C(=O)N=c1cc[n-]cc1)CCCC2)c1cccs1 (protonated)
O=C(Nc1sc2c(c1C(=O)N=c1cc[n-]cc1)CCCC2)c1cccs1 (3D coordinates assigned)
O=C(Nc1sc2c(c1C(=O)N=c1cc[n-]cc1)CCCC2)c1cccs1 (nonaromatic ring conformer: 112.49538171762738 kcal/mol)

>  <smiles>  (96) 
O=C(Nc1sc2c(c1C(=O)N=c1cc[nH]cc1)CCCC2)c1cccs1

>  <score_type>  (96) 
oracle

>  <origin>  (96) 
adg

>  <m_score__min__energy>  (96) 
-9.4199999999999999

>  <m_primary>  (96) 
energy

$$$$
96:0
     RDKit          3D

 60 63  0  0  0  0  0  0  0  0999 V2000
   57.2940   32.2850   41.2150 C   0  0  0  0  0  0  0  0  0  0  0  0
   57.7970   31.6240   42.4950 C   0  0  0  0  0  0  0  0  0  0  0  0
   56.7160   30.7630   43.1840 C   0  0  1  0  0  0  0  0  0  0  0  0
   56.8810   29.2750   42.8550 C   0  0  0  0  0  0  0  0  0  0  0  0
   56.7720   30.9610   44.6760 C   0  0  0  0  0  0  0  0  0  0  0  0
   56.2650   31.9950   45.1870 O   0  0  0  0  0  0  0  0  0  0  0  0
   57.4680   29.9890   45.5450 C   0  0  0  0  0  0  0  0  0  0  0  0
   56.9360   28.7040   45.7520 C   0  0  0  0  0  0  0  0  0  0  0  0
   55.7160   28.3570   45.1760 O   0  0  0  0  0  0  0  0  0  0  0  0
   57.6310   27.7650   46.5370 C   0  0  0  0  0  0  0  0  0  0  0  0
   57.0790   26.3990   46.6720 C   0  0  0  0  0  0  0  0  0  0  0  0
   57.3020   25.7420   47.7210 O   0  0  0  0  0  0  0  0  0  0  0  0
   56.1540   25.8360   45.6300 C   0  0  0  0  0  0  0  0  0  0  0  0
   54.8270   26.1560   45.9430 O   0  0  0  0  0  0  0  0  0  0  0  0
   58.8650   28.1250   47.1220 C   0  0  0  0  0  0  0  0  0  0  0  0
   59.5770   27.2330   47.9280 O   0  0  0  0  0  0  0  0  0  0  0  0
   59.3910   29.4130   46.9050 C   0  0  0  0  0  0  0  0  0  0  0  0
   58.6900   30.3400   46.1410 C   0  0  0  0  0  0  0  0  0  0  0  0
   59.2250   31.6190   45.9410 O   0  0  0  0  0  0  0  0  0  0  0  0
   60.2380   32.2770   46.7390 C   0  0  1  0  0  0  0  0  0  0  0  0
   60.6570   33.5140   45.9610 C   0  0  0  0  0  0  0  0  0  0  0  0
   59.3420   34.3460   45.7070 C   0  0  2  0  0  0  0  0  0  0  0  0
   59.7030   35.6570   45.3550 O   0  0  0  0  0  0  0  0  0  0  0  0
   58.2630   34.3790   46.8820 C   0  0  0  0  0  0  0  0  0  0  0  0
   58.2710   33.1940   47.9140 C   0  0  0  0  0  0  0  0  0  0  0  0
   59.7350   32.7960   48.1050 C   0  0  2  0  0  0  0  0  0  0  0  0
   60.4490   33.9750   48.8600 C   0  0  0  0  0  0  0  0  0  0  0  0
   60.1630   31.6190   48.7580 O   0  0  0  0  0  0  0  0  0  0  0  0
   60.9690   31.2620   47.6320 C   0  0  2  0  0  0  0  0  0  0  0  0
   62.4740   31.5530   47.8200 C   0  0  0  0  0  0  0  0  0  0  0  0
   60.7900   29.7660   47.3030 C   0  0  0  0  0  0  0  0  0  0  0  0
   56.6463   33.1361   41.4720 H   0  0  0  0  0  0  0  0  0  0  0  0
   58.1513   32.6416   40.6251 H   0  0  0  0  0  0  0  0  0  0  0  0
   56.7218   31.5538   40.6251 H   0  0  0  0  0  0  0  0  0  0  0  0
   58.6537   30.9806   42.2459 H   0  0  0  0  0  0  0  0  0  0  0  0
   58.0802   32.4248   43.1940 H   0  0  0  0  0  0  0  0  0  0  0  0
   55.7374   31.0893   42.8020 H   0  0  0  0  0  0  0  0  0  0  0  0
   56.9450   28.6978   43.7892 H   0  0  0  0  0  0  0  0  0  0  0  0
   56.0155   28.9307   42.2698 H   0  0  0  0  0  0  0  0  0  0  0  0
   57.8009   29.1287   42.2698 H   0  0  0  0  0  0  0  0  0  0  0  0
   56.4093   26.2616   44.6483 H   0  0  0  0  0  0  0  0  0  0  0  0
   56.2644   24.7419   45.6030 H   0  0  0  0  0  0  0  0  0  0  0  0
   54.7690   27.1430   45.9830 H   0  0  0  0  0  0  0  0  0  0  0  0
   59.1530   26.4300   48.3760 H   0  0  0  0  0  0  0  0  0  0  0  0
   61.3752   34.1067   46.5466 H   0  0  0  0  0  0  0  0  0  0  0  0
   61.1468   33.2429   45.0141 H   0  0  0  0  0  0  0  0  0  0  0  0
   58.8228   33.8123   44.8973 H   0  0  0  0  0  0  0  0  0  0  0  0
   59.6300   36.2200   46.1620 H   0  0  0  0  0  0  0  0  0  0  0  0
   58.4219   35.3087   47.4480 H   0  0  0  0  0  0  0  0  0  0  0  0
   57.2925   34.2962   46.3709 H   0  0  0  0  0  0  0  0  0  0  0  0
   57.8377   33.5203   48.8710 H   0  0  0  0  0  0  0  0  0  0  0  0
   57.6718   32.3459   47.5512 H   0  0  0  0  0  0  0  0  0  0  0  0
   60.3575   33.8239   49.9457 H   0  0  0  0  0  0  0  0  0  0  0  0
   61.5129   33.9979   48.5814 H   0  0  0  0  0  0  0  0  0  0  0  0
   59.9764   34.9284   48.5814 H   0  0  0  0  0  0  0  0  0  0  0  0
   62.7074   31.5981   48.8940 H   0  0  0  0  0  0  0  0  0  0  0  0
   63.0638   30.7523   47.3499 H   0  0  0  0  0  0  0  0  0  0  0  0
   62.7228   32.5159   47.3499 H   0  0  0  0  0  0  0  0  0  0  0  0
   61.4652   29.5071   46.4740 H   0  0  0  0  0  0  0  0  0  0  0  0
   61.0223   29.2002   48.2173 H   0  0  0  0  0  0  0  0  0  0  0  0
  1  2  1  0
  2  3  1  0
  3  4  1  0
  3  5  1  0
  5  6  2  0
  5  7  1  0
  7  8  2  0
  8  9  1  0
  8 10  1  0
 10 11  1  0
 11 12  2  0
 11 13  1  0
 13 14  1  0
 10 15  2  0
 15 16  1  0
 15 17  1  0
 17 18  2  0
 18 19  1  0
 20 19  1  6
 20 21  1  0
 21 22  1  0
 22 23  1  0
 22 24  1  0
 24 25  1  0
 25 26  1  0
 26 27  1  1
 26 28  1  0
 28 29  1  0
 29 30  1  1
 29 31  1  0
 18  7  1  0
 26 20  1  0
 31 17  1  0
 29 20  1  0
  1 32  1  0
  1 33  1  0
  1 34  1  0
  2 35  1  0
  2 36  1  0
  3 37  1  6
  4 38  1  0
  4 39  1  0
  4 40  1  0
 13 41  1  0
 13 42  1  0
 14 43  1  0
 16 44  1  0
 21 45  1  0
 21 46  1  0
 22 47  1  6
 23 48  1  0
 24 49  1  0
 24 50  1  0
 25 51  1  0
 25 52  1  0
 27 53  1  0
 27 54  1  0
 27 55  1  0
 30 56  1  0
 30 57  1  0
 30 58  1  0
 31 59  1  0
 31 60  1  0
M  CHG  1   9  -1
M  END
>  <UniqueID>  (97) 
81

>  <SMILES>  (97) 
CC[C@@H](C)C(=O)c1c([O-])c(C(=O)CO)c(O)c2c1O[C@@]13CC(O)CCC1(C)OC3(C)C2

>  <Energy>  (97) 
196.1010562607078

>  <Genealogy>  (97) 
CCC(C)C(=O)c1c([O-])c(C(=O)CO)c(O)c2c1OC13CC(O)CCC1(C)OC3(C)C2 (protonated)
CC[C@@H](C)C(=O)c1c([O-])c(C(=O)CO)c(O)c2c1O[C@@]13CC(O)CCC1(C)OC3(C)C2 (chirality)
CC[C@@H](C)C(=O)c1c([O-])c(C(=O)CO)c(O)c2c1O[C@@]13CC(O)CCC1(C)OC3(C)C2 (3D coordinates assigned)
CC[C@@H](C)C(=O)c1c([O-])c(C(=O)CO)c(O)c2c1O[C@@]13CC(O)CCC1(C)OC3(C)C2 (nonaromatic ring conformer: 196.1010562607078 kcal/mol)

>  <smiles>  (97) 
CCC(C)C(=O)c1c(O)c(C(=O)CO)c(O)c2c1OC13CC(O)CCC1(C)OC3(C)C2

>  <score_type>  (97) 
oracle

>  <origin>  (97) 
adg

>  <m_score__min__energy>  (97) 
-12.57

>  <m_primary>  (97) 
energy

$$$$
97:0
     RDKit          3D

 64 66  0  0  0  0  0  0  0  0999 V2000
   56.2370   19.5110   45.5300 C   0  0  0  0  0  0  0  0  0  0  0  0
   55.3480   20.6190   45.4850 O   0  0  0  0  0  0  0  0  0  0  0  0
   55.6850   21.8350   44.8830 C   0  0  0  0  0  0  0  0  0  0  0  0
   55.3870   23.0370   45.5380 C   0  0  0  0  0  0  0  0  0  0  0  0
   55.7110   24.2600   44.9320 C   0  0  0  0  0  0  0  0  0  0  0  0
   55.3910   25.5370   45.6130 C   0  0  0  0  0  0  0  0  0  0  0  0
   54.2010   25.9460   45.6340 O   0  0  0  0  0  0  0  0  0  0  0  0
   56.3950   26.3100   46.2850 N   0  0  0  0  0  0  0  0  0  0  0  0
   57.2740   27.2560   45.6600 C   0  0  0  0  0  0  0  0  0  0  0  0
   58.6270   26.9590   45.4300 C   0  0  0  0  0  0  0  0  0  0  0  0
   59.4590   27.9010   44.8200 C   0  0  0  0  0  0  0  0  0  0  0  0
   58.9500   29.1410   44.4310 C   0  0  0  0  0  0  0  0  0  0  0  0
   57.5920   29.4450   44.6310 C   0  0  0  0  0  0  0  0  0  0  0  0
   57.0440   30.8060   44.2380 C   0  0  2  0  0  0  0  0  0  0  0  0
   57.7690   31.2380   42.9470 C   0  0  0  0  0  0  0  0  0  0  0  0
   57.2100   31.7830   45.3570 N   0  0  0  0  0  0  0  0  0  0  0  0
   57.3120   33.1610   44.8140 C   0  0  0  0  0  0  0  0  0  0  0  0
   57.3990   34.2070   45.9360 C   0  0  0  0  0  0  0  0  0  0  0  0
   58.5250   33.9180   46.9510 C   0  0  0  0  0  0  0  0  0  0  0  0
   59.9050   34.3090   46.4500 C   0  0  0  0  0  0  0  0  0  0  0  0
   60.0860   35.4690   45.9940 O   0  0  0  0  0  0  0  0  0  0  0  0
   61.0100   33.3900   46.3760 N   0  0  0  0  0  0  0  0  0  0  0  0
   62.1790   33.1740   47.2400 C   0  0  0  0  0  0  0  0  0  0  0  0
   62.4000   31.6680   47.4780 C   0  0  0  0  0  0  0  0  0  0  0  0
   63.4450   33.8410   46.6650 C   0  0  0  0  0  0  0  0  0  0  0  0
   61.8600   33.8370   48.5920 C   0  0  0  0  0  0  0  0  0  0  0  0
   58.4880   32.4440   47.3780 C   0  0  0  0  0  0  0  0  0  0  0  0
   58.4110   31.4970   46.1760 C   0  0  0  0  0  0  0  0  0  0  0  0
   56.7590   28.4890   45.2440 C   0  0  0  0  0  0  0  0  0  0  0  0
   56.3590   24.2490   43.6850 C   0  0  0  0  0  0  0  0  0  0  0  0
   56.6390   23.0310   43.0630 C   0  0  0  0  0  0  0  0  0  0  0  0
   56.2990   21.8620   43.6670 N   0  0  0  0  0  0  0  0  0  0  0  0
   56.4458   19.2508   46.5782 H   0  0  0  0  0  0  0  0  0  0  0  0
   55.7761   18.6503   45.0233 H   0  0  0  0  0  0  0  0  0  0  0  0
   57.1772   19.7744   45.0233 H   0  0  0  0  0  0  0  0  0  0  0  0
   54.9005   23.0219   46.5244 H   0  0  0  0  0  0  0  0  0  0  0  0
   59.0329   25.9819   45.7310 H   0  0  0  0  0  0  0  0  0  0  0  0
   60.5191   27.6646   44.6457 H   0  0  0  0  0  0  0  0  0  0  0  0
   59.6145   29.8839   43.9657 H   0  0  0  0  0  0  0  0  0  0  0  0
   55.9624   30.7627   44.0424 H   0  0  0  0  0  0  0  0  0  0  0  0
   58.6871   31.7850   43.2076 H   0  0  0  0  0  0  0  0  0  0  0  0
   58.0282   30.3470   42.3564 H   0  0  0  0  0  0  0  0  0  0  0  0
   57.1088   31.8901   42.3564 H   0  0  0  0  0  0  0  0  0  0  0  0
   58.2143   33.2323   44.1889 H   0  0  0  0  0  0  0  0  0  0  0  0
   56.4070   33.3654   44.2230 H   0  0  0  0  0  0  0  0  0  0  0  0
   57.5819   35.1921   45.4821 H   0  0  0  0  0  0  0  0  0  0  0  0
   56.4471   34.1758   46.4863 H   0  0  0  0  0  0  0  0  0  0  0  0
   58.3340   34.5550   47.8272 H   0  0  0  0  0  0  0  0  0  0  0  0
   62.4293   31.4681   48.5593 H   0  0  0  0  0  0  0  0  0  0  0  0
   61.5756   31.0999   47.0223 H   0  0  0  0  0  0  0  0  0  0  0  0
   63.3529   31.3607   47.0223 H   0  0  0  0  0  0  0  0  0  0  0  0
   64.0881   34.1798   47.4906 H   0  0  0  0  0  0  0  0  0  0  0  0
   63.9936   33.1149   46.0471 H   0  0  0  0  0  0  0  0  0  0  0  0
   63.1563   34.7041   46.0471 H   0  0  0  0  0  0  0  0  0  0  0  0
   62.1790   33.1741   49.4098 H   0  0  0  0  0  0  0  0  0  0  0  0
   62.3959   34.7948   48.6662 H   0  0  0  0  0  0  0  0  0  0  0  0
   60.7772   34.0160   48.6662 H   0  0  0  0  0  0  0  0  0  0  0  0
   59.3999   32.2175   47.9500 H   0  0  0  0  0  0  0  0  0  0  0  0
   57.5855   32.2908   47.9880 H   0  0  0  0  0  0  0  0  0  0  0  0
   59.3100   31.6277   45.5557 H   0  0  0  0  0  0  0  0  0  0  0  0
   58.3478   30.4628   46.5454 H   0  0  0  0  0  0  0  0  0  0  0  0
   55.6932   28.7137   45.3973 H   0  0  0  0  0  0  0  0  0  0  0  0
   56.6441   25.1951   43.2016 H   0  0  0  0  0  0  0  0  0  0  0  0
   57.1360   23.0174   42.0818 H   0  0  0  0  0  0  0  0  0  0  0  0
  1  2  1  0
  2  3  1  0
  3  4  2  0
  4  5  1  0
  5  6  1  0
  6  7  2  0
  6  8  1  0
  8  9  1  0
  9 10  2  0
 10 11  1  0
 11 12  2  0
 12 13  1  0
 13 14  1  0
 14 15  1  0
 14 16  1  0
 16 17  1  0
 17 18  1  0
 18 19  1  0
 19 20  1  0
 20 21  2  0
 20 22  1  0
 22 23  1  0
 23 24  1  0
 23 25  1  0
 23 26  1  0
 19 27  1  0
 27 28  1  0
 13 29  2  0
  5 30  2  0
 30 31  1  0
 31 32  2  0
 32  3  1  0
 29  9  1  0
 28 16  1  0
  1 33  1  0
  1 34  1  0
  1 35  1  0
  4 36  1  0
 10 37  1  0
 11 38  1  0
 12 39  1  0
 14 40  1  6
 15 41  1  0
 15 42  1  0
 15 43  1  0
 17 44  1  0
 17 45  1  0
 18 46  1  0
 18 47  1  0
 19 48  1  0
 24 49  1  0
 24 50  1  0
 24 51  1  0
 25 52  1  0
 25 53  1  0
 25 54  1  0
 26 55  1  0
 26 56  1  0
 26 57  1  0
 27 58  1  0
 27 59  1  0
 28 60  1  0
 28 61  1  0
 29 62  1  0
 30 63  1  0
 31 64  1  0
M  CHG  2   8  -1  22  -1
M  END
>  <UniqueID>  (98) 
82

>  <SMILES>  (98) 
COc1cc(C(=O)[N-]c2cccc([C@H](C)N3CCC(C(=O)[N-]C(C)(C)C)CC3)c2)ccn1

>  <Energy>  (98) 
73.13607890611385

>  <Genealogy>  (98) 
COc1cc(C(=O)[N-]c2cccc(C(C)N3CCC(C(=O)[N-]C(C)(C)C)CC3)c2)ccn1 (protonated)
COc1cc(C(=O)[N-]c2cccc([C@H](C)N3CCC(C(=O)[N-]C(C)(C)C)CC3)c2)ccn1 (chirality)
COc1cc(C(=O)[N-]c2cccc([C@H](C)N3CCC(C(=O)[N-]C(C)(C)C)CC3)c2)ccn1 (3D coordinates assigned)
COc1cc(C(=O)[N-]c2cccc([C@H](C)N3CCC(C(=O)[N-]C(C)(C)C)CC3)c2)ccn1 (nonaromatic ring conformer: 73.13607890611385 kcal/mol)

>  <smiles>  (98) 
COc1cc(C(=O)Nc2cccc(C(C)N3CCC(C(=O)NC(C)(C)C)CC3)c2)ccn1

>  <score_type>  (98) 
oracle

>  <origin>  (98) 
adg

>  <m_score__min__energy>  (98) 
-13.06

>  <m_primary>  (98) 
energy

$$$$
