0:0
     RDKit          3D

 50 53  0  0  0  0  0  0  0  0999 V2000
   54.4040   30.4080   44.8900 H   0  0  0  0  0  0  0  0  0  0  0  0
   55.2180   30.8320   44.3880 N   0  0  0  0  0  0  0  0  0  0  0  0
   56.4120   30.3570   44.5290 C   0  0  0  0  0  0  0  0  0  0  0  0
   57.4550   30.7950   43.7970 N   0  0  0  0  0  0  0  0  0  0  0  0
   58.4870   30.0620   44.2500 C   0  0  0  0  0  0  0  0  0  0  0  0
   59.5256   30.1359   43.8953 H   0  0  0  0  0  0  0  0  0  0  0  0
   58.0360   29.2020   45.2310 C   0  0  0  0  0  0  0  0  0  0  0  0
   58.8550   28.2690   46.0360 C   0  0  0  0  0  0  0  0  0  0  0  0
   59.5710   28.6800   47.1840 C   0  0  0  0  0  0  0  0  0  0  0  0
   59.6990   30.0640   47.5340 N   0  0  0  0  0  0  0  0  0  0  0  0
   58.8890   30.6860   48.5710 C   0  0  0  0  0  0  0  0  0  0  0  0
   57.8553   30.3126   48.5261 H   0  0  0  0  0  0  0  0  0  0  0  0
   59.2709   30.4573   49.5769 H   0  0  0  0  0  0  0  0  0  0  0  0
   58.9270   32.1810   48.2810 C   0  0  0  0  0  0  0  0  0  0  0  0
   57.9941   32.5023   47.7948 H   0  0  0  0  0  0  0  0  0  0  0  0
   59.0282   32.7735   49.2023 H   0  0  0  0  0  0  0  0  0  0  0  0
   60.1190   32.3840   47.3400 C   0  0  2  0  0  0  0  0  0  0  0  0
   61.0233   32.6840   47.8898 H   0  0  0  0  0  0  0  0  0  0  0  0
   59.9020   33.5390   46.3520 C   0  0  0  0  0  0  0  0  0  0  0  0
   60.6354   34.3346   46.5500 H   0  0  0  0  0  0  0  0  0  0  0  0
   60.0305   33.1725   45.3228 H   0  0  0  0  0  0  0  0  0  0  0  0
   58.5960   34.0510   46.5120 O   0  0  0  0  0  0  0  0  0  0  0  0
   57.7940   33.6350   45.4310 C   0  0  0  0  0  0  0  0  0  0  0  0
   56.8789   33.1603   45.8147 H   0  0  0  0  0  0  0  0  0  0  0  0
   57.5249   34.5072   44.8171 H   0  0  0  0  0  0  0  0  0  0  0  0
   58.3520   32.9127   44.8171 H   0  0  0  0  0  0  0  0  0  0  0  0
   60.3130   31.0340   46.6480 C   0  0  0  0  0  0  0  0  0  0  0  0
   59.8171   31.0285   45.6661 H   0  0  0  0  0  0  0  0  0  0  0  0
   61.3751   30.8125   46.4667 H   0  0  0  0  0  0  0  0  0  0  0  0
   60.2150   27.7510   47.9410 N   0  0  0  0  0  0  0  0  0  0  0  0
   60.2160   26.4300   47.6290 C   0  0  0  0  0  0  0  0  0  0  0  0
   60.7424   25.7141   48.2774 H   0  0  0  0  0  0  0  0  0  0  0  0
   59.5490   25.9750   46.4840 C   0  0  0  0  0  0  0  0  0  0  0  0
   59.5580   24.5410   46.1130 C   0  0  0  0  0  0  0  0  0  0  0  0
   60.5930   24.0420   45.5960 O   0  0  0  0  0  0  0  0  0  0  0  0
   58.4390   23.6830   46.3710 N   0  0  0  0  0  0  0  0  0  0  0  0
   57.1140   23.8420   45.8430 C   0  0  0  0  0  0  0  0  0  0  0  0
   56.5070   22.8440   45.0580 C   0  0  0  0  0  0  0  0  0  0  0  0
   57.0568   21.9205   44.8237 H   0  0  0  0  0  0  0  0  0  0  0  0
   55.2070   23.0230   44.5750 C   0  0  0  0  0  0  0  0  0  0  0  0
   54.7401   22.2449   43.9533 H   0  0  0  0  0  0  0  0  0  0  0  0
   54.5000   24.1890   44.8810 C   0  0  0  0  0  0  0  0  0  0  0  0
   53.4795   24.3309   44.4956 H   0  0  0  0  0  0  0  0  0  0  0  0
   55.0910   25.1760   45.6780 C   0  0  0  0  0  0  0  0  0  0  0  0
   54.3850   26.3310   45.9870 O   0  0  0  0  0  0  0  0  0  0  0  0
   56.3900   24.9980   46.1630 C   0  0  0  0  0  0  0  0  0  0  0  0
   56.8464   25.7702   46.7997 H   0  0  0  0  0  0  0  0  0  0  0  0
   58.8810   26.9110   45.6830 C   0  0  0  0  0  0  0  0  0  0  0  0
   58.3712   26.5774   44.7671 H   0  0  0  0  0  0  0  0  0  0  0  0
   56.7180   29.3950   45.4230 N   0  0  0  0  0  0  0  0  0  0  0  0
  1  2  1  0
  2  3  2  0
  3  4  1  0
  4  5  1  0
  5  6  1  0
  5  7  2  0
  7  8  1  0
  8  9  1  0
  9 10  1  0
 10 11  1  0
 11 12  1  0
 11 13  1  0
 11 14  1  0
 14 15  1  0
 14 16  1  0
 14 17  1  0
 17 18  1  1
 17 19  1  0
 19 20  1  0
 19 21  1  0
 19 22  1  0
 22 23  1  0
 23 24  1  0
 23 25  1  0
 23 26  1  0
 17 27  1  0
 27 28  1  0
 27 29  1  0
  9 30  2  0
 30 31  1  0
 31 32  1  0
 31 33  2  0
 33 34  1  0
 34 35  2  0
 34 36  1  0
 36 37  1  0
 37 38  2  0
 38 39  1  0
 38 40  1  0
 40 41  1  0
 40 42  2  0
 42 43  1  0
 42 44  1  0
 44 45  1  0
 44 46  2  0
 46 47  1  0
 33 48  1  0
 48 49  1  0
  7 50  1  0
 50  3  1  0
 48  8  2  0
 27 10  1  0
 46 37  1  0
M  CHG  4   4  -1  36  -1  45  -1  50  -1
M  END
>  <UniqueID>  (1) 
1

>  <SMILES>  (1) 
[H]/N=c1/[n-]cc(-c2cc(C(=O)[N-]c3cccc([O-])c3)cnc2N2CC[C@H](COC)C2)[n-]1

>  <Energy>  (1) 
97.12040312442453

>  <Genealogy>  (1) 
COCC1CCN(c2ncc(C(=O)[N-]c3cccc([O-])c3)cc2-c2c[n-]c(=N)[n-]2)C1 (protonated)
COC[C@H]1CCN(c2ncc(C(=O)[N-]c3cccc([O-])c3)cc2-c2c[n-]c(=N)[n-]2)C1 (chirality)
[H]/N=c1/[n-]cc(-c2cc(C(=O)[N-]c3cccc([O-])c3)cnc2N2CC[C@H](COC)C2)[n-]1 (cis-trans isomerization)
[H]/N=c1/[n-]cc(-c2cc(C(=O)[N-]c3cccc([O-])c3)cnc2N2CC[C@H](COC)C2)[n-]1 (3D coordinates assigned)
[H]/N=c1/[n-]cc(-c2cc(C(=O)[N-]c3cccc([O-])c3)cnc2N2CC[C@H](COC)C2)[n-]1 (nonaromatic ring conformer: 97.12040312442453 kcal/mol)

>  <smiles>  (1) 
COCC1CCN(c2ncc(C(=O)Nc3cccc(O)c3)cc2-c2c[nH]c(=N)[nH]2)C1

>  <score_type>  (1) 
oracle

>  <origin>  (1) 
adg

>  <m_score__min__energy>  (1) 
-16

>  <m_primary>  (1) 
energy

$$$$
1:0
     RDKit          3D

 52 54  0  0  0  0  0  0  0  0999 V2000
   64.8920   32.6330   46.3560 H   0  0  0  0  0  0  0  0  0  0  0  0
   64.0830   32.4700   46.9080 O   0  0  0  0  0  0  0  0  0  0  0  0
   63.8280   33.6620   47.6020 C   0  0  0  0  0  0  0  0  0  0  0  0
   64.0532   34.5181   46.9491 H   0  0  0  0  0  0  0  0  0  0  0  0
   64.4625   33.6979   48.4998 H   0  0  0  0  0  0  0  0  0  0  0  0
   62.3780   33.7210   48.0200 C   0  0  0  0  0  0  0  0  0  0  0  0
   61.3920   33.3540   47.0880 C   0  0  0  0  0  0  0  0  0  0  0  0
   61.6921   33.0052   46.0889 H   0  0  0  0  0  0  0  0  0  0  0  0
   60.0300   33.4270   47.4160 C   0  0  0  0  0  0  0  0  0  0  0  0
   59.0200   33.0110   46.4830 N   0  0  0  0  0  0  0  0  0  0  0  0
   58.7190   31.7890   46.1380 C   0  0  0  0  0  0  0  0  0  0  0  0
   58.6700   31.4860   44.8130 N   0  0  0  0  0  0  0  0  0  0  0  0
   58.3720   30.2390   44.3610 C   0  0  0  0  0  0  0  0  0  0  0  0
   58.3275   30.0453   43.2791 H   0  0  0  0  0  0  0  0  0  0  0  0
   58.1210   29.1980   45.2670 C   0  0  0  0  0  0  0  0  0  0  0  0
   57.7900   27.8400   44.7780 C   0  0  0  0  0  0  0  0  0  0  0  0
   57.6040   27.6530   43.5460 O   0  0  0  0  0  0  0  0  0  0  0  0
   57.6330   26.7310   45.6730 N   0  0  0  0  0  0  0  0  0  0  0  0
   56.8350   25.5620   45.4280 C   0  0  0  0  0  0  0  0  0  0  0  0
   57.4780   24.3810   45.0480 C   0  0  0  0  0  0  0  0  0  0  0  0
   58.5737   24.3635   44.9529 H   0  0  0  0  0  0  0  0  0  0  0  0
   56.7400   23.2190   44.7870 C   0  0  0  0  0  0  0  0  0  0  0  0
   57.4440   21.9500   44.4000 C   0  0  0  0  0  0  0  0  0  0  0  0
   57.7455   21.4065   45.3076 H   0  0  0  0  0  0  0  0  0  0  0  0
   56.7657   21.3213   43.8045 H   0  0  0  0  0  0  0  0  0  0  0  0
   58.3364   22.1927   43.8045 H   0  0  0  0  0  0  0  0  0  0  0  0
   55.3490   23.2290   44.9590 C   0  0  0  0  0  0  0  0  0  0  0  0
   54.7679   22.3151   44.7663 H   0  0  0  0  0  0  0  0  0  0  0  0
   54.6920   24.3990   45.3760 C   0  0  0  0  0  0  0  0  0  0  0  0
   53.2740   24.4400   45.5840 N   0  0  0  0  0  0  0  0  0  0  0  0
   52.0660   23.7970   44.5200 S   0  0  0  0  0  0  0  0  0  0  0  0
   52.6370   23.7210   43.1320 O   0  0  0  0  0  0  0  0  0  0  0  0
   51.6730   22.4140   44.9590 O   0  0  0  0  0  0  0  0  0  0  0  0
   50.6470   24.8700   44.4910 C   0  0  0  0  0  0  0  0  0  0  0  0
   50.3411   25.1013   45.5220 H   0  0  0  0  0  0  0  0  0  0  0  0
   50.9030   25.8024   43.9665 H   0  0  0  0  0  0  0  0  0  0  0  0
   49.8196   24.3696   43.9665 H   0  0  0  0  0  0  0  0  0  0  0  0
   55.4390   25.5620   45.6160 C   0  0  0  0  0  0  0  0  0  0  0  0
   54.7900   26.7030   46.0780 O   0  0  0  0  0  0  0  0  0  0  0  0
   58.1740   29.4820   46.6390 C   0  0  0  0  0  0  0  0  0  0  0  0
   57.9749   28.6854   47.3710 H   0  0  0  0  0  0  0  0  0  0  0  0
   58.4780   30.7700   47.0800 C   0  0  0  0  0  0  0  0  0  0  0  0
   58.5292   30.9885   48.1569 H   0  0  0  0  0  0  0  0  0  0  0  0
   59.6530   33.8190   48.7020 C   0  0  0  0  0  0  0  0  0  0  0  0
   58.5898   33.8205   48.9843 H   0  0  0  0  0  0  0  0  0  0  0  0
   60.6190   34.2090   49.6310 C   0  0  0  0  0  0  0  0  0  0  0  0
   60.3089   34.5322   50.6357 H   0  0  0  0  0  0  0  0  0  0  0  0
   61.9830   34.1930   49.2960 C   0  0  0  0  0  0  0  0  0  0  0  0
   62.9950   34.6280   50.3240 C   0  0  0  0  0  0  0  0  0  0  0  0
   62.5912   34.4544   51.3324 H   0  0  0  0  0  0  0  0  0  0  0  0
   63.9210   34.0484   50.1951 H   0  0  0  0  0  0  0  0  0  0  0  0
   63.2116   35.6987   50.1951 H   0  0  0  0  0  0  0  0  0  0  0  0
  1  2  1  0
  2  3  1  0
  3  4  1  0
  3  5  1  0
  3  6  1  0
  6  7  2  0
  7  8  1  0
  7  9  1  0
  9 10  1  0
 10 11  2  0
 11 12  1  0
 12 13  1  0
 13 14  1  0
 13 15  2  0
 15 16  1  0
 16 17  2  0
 16 18  1  0
 18 19  1  0
 19 20  2  0
 20 21  1  0
 20 22  1  0
 22 23  1  0
 23 24  1  0
 23 25  1  0
 23 26  1  0
 22 27  2  0
 27 28  1  0
 27 29  1  0
 29 30  1  0
 30 31  1  0
 31 32  2  0
 31 33  2  0
 31 34  1  0
 34 35  1  0
 34 36  1  0
 34 37  1  0
 29 38  2  0
 38 39  1  0
 15 40  1  0
 40 41  1  0
 40 42  2  0
 42 43  1  0
  9 44  2  0
 44 45  1  0
 44 46  1  0
 46 47  1  0
 46 48  2  0
 48 49  1  0
 49 50  1  0
 49 51  1  0
 49 52  1  0
 48  6  1  0
 42 11  1  0
 38 19  1  0
M  CHG  4  12  -1  18  -1  30  -1  39  -1
M  END
>  <UniqueID>  (2) 
2

>  <SMILES>  (2) 
Cc1cc([N-]C(=O)c2cc/c(=N\c3ccc(C)c(CO)c3)[n-]c2)c([O-])c([N-]S(C)(=O)=O)c1

>  <Energy>  (2) 
71.98266802235234

>  <Genealogy>  (2) 
Cc1cc([N-]C(=O)c2ccc(=Nc3ccc(C)c(CO)c3)[n-]c2)c([O-])c([N-]S(C)(=O)=O)c1 (protonated)
Cc1cc([N-]C(=O)c2cc/c(=N\c3ccc(C)c(CO)c3)[n-]c2)c([O-])c([N-]S(C)(=O)=O)c1 (cis-trans isomerization)
Cc1cc([N-]C(=O)c2cc/c(=N\c3ccc(C)c(CO)c3)[n-]c2)c([O-])c([N-]S(C)(=O)=O)c1 (3D coordinates assigned)
Cc1cc([N-]C(=O)c2cc/c(=N\c3ccc(C)c(CO)c3)[n-]c2)c([O-])c([N-]S(C)(=O)=O)c1 (optimized conformer: 71.98266802235234 kcal/mol)

>  <smiles>  (2) 
Cc1cc(NC(=O)c2ccc(=Nc3ccc(C)c(CO)c3)[nH]c2)c(O)c(NS(C)(=O)=O)c1

>  <score_type>  (2) 
oracle

>  <origin>  (2) 
adg

>  <m_score__min__energy>  (2) 
-18.399999999999999

>  <m_primary>  (2) 
energy

$$$$
2:0
     RDKit          3D

 51 53  0  0  0  0  0  0  0  0999 V2000
   59.2950   30.3210   49.5600 C   0  0  0  0  0  0  0  0  0  0  0  0
   59.9030   29.0890   49.0390 N   0  0  0  0  0  0  0  0  0  0  0  0
   61.0140   28.4880   49.7820 C   0  0  0  0  0  0  0  0  0  0  0  0
   59.4130   28.4820   47.8060 C   0  0  0  0  0  0  0  0  0  0  0  0
   60.1130   27.4230   47.1860 C   0  0  0  0  0  0  0  0  0  0  0  0
   59.6470   26.8530   45.9960 C   0  0  0  0  0  0  0  0  0  0  0  0
   58.4690   27.3140   45.3990 C   0  0  0  0  0  0  0  0  0  0  0  0
   58.0060   26.6970   44.1870 N   0  0  0  0  0  0  0  0  0  0  0  0
   57.7380   28.3490   46.0130 C   0  0  0  0  0  0  0  0  0  0  0  0
   56.5140   28.7950   45.4170 N   0  0  0  0  0  0  0  0  0  0  0  0
   56.4100   29.6820   43.9310 S   0  0  0  0  0  0  0  0  0  0  0  0
   54.9620   29.9580   43.6400 O   0  0  0  0  0  0  0  0  0  0  0  0
   56.9740   28.8860   42.7890 O   0  0  0  0  0  0  0  0  0  0  0  0
   57.2690   31.2090   44.1010 C   0  0  0  0  0  0  0  0  0  0  0  0
   57.7930   31.8520   42.9720 C   0  0  0  0  0  0  0  0  0  0  0  0
   58.4660   33.0700   43.1090 C   0  0  0  0  0  0  0  0  0  0  0  0
   58.6020   33.6680   44.3700 C   0  0  0  0  0  0  0  0  0  0  0  0
   58.0490   33.0510   45.5100 C   0  0  0  0  0  0  0  0  0  0  0  0
   58.1270   33.6560   46.8170 N   0  0  0  0  0  0  0  0  0  0  0  0
   59.5340   34.4720   47.4270 S   0  0  0  0  0  0  0  0  0  0  0  0
   59.8290   35.6680   46.5650 O   0  0  0  0  0  0  0  0  0  0  0  0
   59.2650   34.9380   48.8270 O   0  0  0  0  0  0  0  0  0  0  0  0
   60.9030   33.3640   47.4390 C   0  0  0  0  0  0  0  0  0  0  0  0
   60.7080   32.0080   47.1370 C   0  0  0  0  0  0  0  0  0  0  0  0
   61.7970   31.1290   47.1300 C   0  0  0  0  0  0  0  0  0  0  0  0
   63.0820   31.6010   47.4270 C   0  0  0  0  0  0  0  0  0  0  0  0
   63.2810   32.9480   47.7340 C   0  0  0  0  0  0  0  0  0  0  0  0
   64.5270   33.4080   48.0160 F   0  0  0  0  0  0  0  0  0  0  0  0
   62.1930   33.8300   47.7410 C   0  0  0  0  0  0  0  0  0  0  0  0
   57.3960   31.8150   45.3670 C   0  0  0  0  0  0  0  0  0  0  0  0
   58.2290   28.9380   47.1890 C   0  0  0  0  0  0  0  0  0  0  0  0
   59.3060   30.2987   50.6597 H   0  0  0  0  0  0  0  0  0  0  0  0
   59.8673   31.1908   49.2052 H   0  0  0  0  0  0  0  0  0  0  0  0
   58.2565   30.3959   49.2052 H   0  0  0  0  0  0  0  0  0  0  0  0
   60.8295   28.5878   50.8618 H   0  0  0  0  0  0  0  0  0  0  0  0
   61.0959   27.4226   49.5209 H   0  0  0  0  0  0  0  0  0  0  0  0
   61.9506   29.0025   49.5209 H   0  0  0  0  0  0  0  0  0  0  0  0
   61.0369   27.0413   47.6450 H   0  0  0  0  0  0  0  0  0  0  0  0
   60.2123   26.0349   45.5257 H   0  0  0  0  0  0  0  0  0  0  0  0
   58.5430   25.9360   43.7180 H   0  0  0  0  0  0  0  0  0  0  0  0
   57.1150   27.0110   43.7280 H   0  0  0  0  0  0  0  0  0  0  0  0
   57.6749   31.3983   41.9769 H   0  0  0  0  0  0  0  0  0  0  0  0
   58.8914   33.5622   42.2220 H   0  0  0  0  0  0  0  0  0  0  0  0
   59.1418   34.6213   44.4697 H   0  0  0  0  0  0  0  0  0  0  0  0
   57.2890   33.6180   47.4460 H   0  0  0  0  0  0  0  0  0  0  0  0
   59.6991   31.6356   46.9057 H   0  0  0  0  0  0  0  0  0  0  0  0
   61.6437   30.0663   46.8910 H   0  0  0  0  0  0  0  0  0  0  0  0
   63.9365   30.9083   47.4183 H   0  0  0  0  0  0  0  0  0  0  0  0
   62.3494   34.8914   47.9839 H   0  0  0  0  0  0  0  0  0  0  0  0
   56.9791   31.3146   46.2535 H   0  0  0  0  0  0  0  0  0  0  0  0
   57.6770   29.7756   47.6404 H   0  0  0  0  0  0  0  0  0  0  0  0
  1  2  1  0
  2  3  1  0
  2  4  1  0
  4  5  2  0
  5  6  1  0
  6  7  2  0
  7  8  1  0
  7  9  1  0
  9 10  1  0
 10 11  1  0
 11 12  2  0
 11 13  2  0
 11 14  1  0
 14 15  2  0
 15 16  1  0
 16 17  2  0
 17 18  1  0
 18 19  1  0
 19 20  1  0
 20 21  2  0
 20 22  2  0
 20 23  1  0
 23 24  2  0
 24 25  1  0
 25 26  2  0
 26 27  1  0
 27 28  1  0
 27 29  2  0
 18 30  2  0
  9 31  2  0
 31  4  1  0
 30 14  1  0
 29 23  1  0
  1 32  1  0
  1 33  1  0
  1 34  1  0
  3 35  1  0
  3 36  1  0
  3 37  1  0
  5 38  1  0
  6 39  1  0
  8 40  1  0
  8 41  1  0
 15 42  1  0
 16 43  1  0
 17 44  1  0
 19 45  1  0
 24 46  1  0
 25 47  1  0
 26 48  1  0
 29 49  1  0
 30 50  1  0
 31 51  1  0
M  CHG  1  10  -1
M  END
>  <UniqueID>  (3) 
3

>  <SMILES>  (3) 
CN(C)c1ccc(N)c([N-]S(=O)(=O)c2cccc(NS(=O)(=O)c3cccc(F)c3)c2)c1

>  <Energy>  (3) 
63.09302200390903

>  <Genealogy>  (3) 
CN(C)c1ccc(N)c([N-]S(=O)(=O)c2cccc(NS(=O)(=O)c3cccc(F)c3)c2)c1 (protonated)
CN(C)c1ccc(N)c([N-]S(=O)(=O)c2cccc(NS(=O)(=O)c3cccc(F)c3)c2)c1 (3D coordinates assigned)
CN(C)c1ccc(N)c([N-]S(=O)(=O)c2cccc(NS(=O)(=O)c3cccc(F)c3)c2)c1 (optimized conformer: 63.09302200390903 kcal/mol)

>  <smiles>  (3) 
CN(C)c1ccc(N)c(NS(=O)(=O)c2cccc(NS(=O)(=O)c3cccc(F)c3)c2)c1

>  <score_type>  (3) 
oracle

>  <origin>  (3) 
adg

>  <m_score__min__energy>  (3) 
-11.49

>  <m_primary>  (3) 
energy

$$$$
3:0
     RDKit          3D

 49 53  0  0  0  0  0  0  0  0999 V2000
   63.7580   33.7430   47.2850 C   0  0  0  0  0  0  0  0  0  0  0  0
   63.4140   32.7130   48.2800 N   0  0  0  0  0  0  0  0  0  0  0  0
   62.3420   31.9020   48.0200 C   0  0  0  0  0  0  0  0  0  0  0  0
   61.9430   30.9060   48.9200 C   0  0  0  0  0  0  0  0  0  0  0  0
   60.7700   30.0660   48.5870 C   0  0  0  0  0  0  0  0  0  0  0  0
   59.8240   29.9840   49.4180 O   0  0  0  0  0  0  0  0  0  0  0  0
   60.7060   29.3500   47.3410 N   0  0  0  0  0  0  0  0  0  0  0  0
   59.6220   28.4830   46.9660 C   0  0  0  0  0  0  0  0  0  0  0  0
   59.4850   27.1960   47.5160 C   0  0  0  0  0  0  0  0  0  0  0  0
   58.4370   26.3630   47.1130 C   0  0  0  0  0  0  0  0  0  0  0  0
   57.5290   26.7910   46.1340 C   0  0  0  0  0  0  0  0  0  0  0  0
   56.4040   25.9150   45.7420 C   0  0  0  0  0  0  0  0  0  0  0  0
   55.1420   26.3540   45.9940 N   0  0  0  0  0  0  0  0  0  0  0  0
   54.0640   25.6530   45.6440 N   0  0  0  0  0  0  0  0  0  0  0  0
   54.1630   24.4590   45.0120 C   0  0  0  0  0  0  0  0  0  0  0  0
   53.1110   23.8400   44.6940 O   0  0  0  0  0  0  0  0  0  0  0  0
   55.4320   23.9270   44.7300 C   0  0  0  0  0  0  0  0  0  0  0  0
   55.5800   22.6800   44.0940 C   0  0  0  0  0  0  0  0  0  0  0  0
   56.8510   22.1560   43.8550 C   0  0  0  0  0  0  0  0  0  0  0  0
   57.9850   22.8630   44.2550 C   0  0  0  0  0  0  0  0  0  0  0  0
   57.8580   24.1020   44.8850 C   0  0  0  0  0  0  0  0  0  0  0  0
   56.5820   24.6610   45.1120 C   0  0  0  0  0  0  0  0  0  0  0  0
   57.6650   28.0730   45.5820 C   0  0  0  0  0  0  0  0  0  0  0  0
   58.7140   28.9060   45.9830 C   0  0  0  0  0  0  0  0  0  0  0  0
   62.6850   30.7150   50.0940 C   0  0  0  0  0  0  0  0  0  0  0  0
   62.3840   29.7770   50.8860 O   0  0  0  0  0  0  0  0  0  0  0  0
   63.7820   31.5490   50.3730 C   0  0  0  0  0  0  0  0  0  0  0  0
   64.5300   31.3880   51.5550 C   0  0  0  0  0  0  0  0  0  0  0  0
   65.6160   32.2180   51.8250 C   0  0  0  0  0  0  0  0  0  0  0  0
   65.9740   33.2170   50.9230 C   0  0  0  0  0  0  0  0  0  0  0  0
   67.3440   34.2580   51.2720 Cl  0  0  0  0  0  0  0  0  0  0  0  0
   65.2470   33.3920   49.7430 C   0  0  0  0  0  0  0  0  0  0  0  0
   64.1390   32.5630   49.4430 C   0  0  0  0  0  0  0  0  0  0  0  0
   64.0656   34.6640   47.8019 H   0  0  0  0  0  0  0  0  0  0  0  0
   64.5846   33.3826   46.6550 H   0  0  0  0  0  0  0  0  0  0  0  0
   62.8808   33.9517   46.6550 H   0  0  0  0  0  0  0  0  0  0  0  0
   61.7815   32.0358   47.0830 H   0  0  0  0  0  0  0  0  0  0  0  0
   61.4620   29.5010   46.6360 H   0  0  0  0  0  0  0  0  0  0  0  0
   60.2064   26.8427   48.2675 H   0  0  0  0  0  0  0  0  0  0  0  0
   58.3242   25.3670   47.5661 H   0  0  0  0  0  0  0  0  0  0  0  0
   54.6885   22.1153   43.7836 H   0  0  0  0  0  0  0  0  0  0  0  0
   56.9588   21.1844   43.3506 H   0  0  0  0  0  0  0  0  0  0  0  0
   58.9847   22.4418   44.0729 H   0  0  0  0  0  0  0  0  0  0  0  0
   58.7581   24.6463   45.2067 H   0  0  0  0  0  0  0  0  0  0  0  0
   56.9432   28.4248   44.8302 H   0  0  0  0  0  0  0  0  0  0  0  0
   58.8283   29.8995   45.5249 H   0  0  0  0  0  0  0  0  0  0  0  0
   64.2546   30.6001   52.2715 H   0  0  0  0  0  0  0  0  0  0  0  0
   66.1919   32.0840   52.7526 H   0  0  0  0  0  0  0  0  0  0  0  0
   65.5391   34.1841   49.0378 H   0  0  0  0  0  0  0  0  0  0  0  0
  1  2  1  0
  2  3  1  0
  3  4  2  0
  4  5  1  0
  5  6  2  0
  5  7  1  0
  7  8  1  0
  8  9  2  0
  9 10  1  0
 10 11  2  0
 11 12  1  0
 12 13  2  0
 13 14  1  0
 14 15  1  0
 15 16  2  0
 15 17  1  0
 17 18  2  0
 18 19  1  0
 19 20  2  0
 20 21  1  0
 21 22  2  0
 11 23  1  0
 23 24  2  0
  4 25  1  0
 25 26  2  0
 25 27  1  0
 27 28  2  0
 28 29  1  0
 29 30  2  0
 30 31  1  0
 30 32  1  0
 32 33  2  0
 33  2  1  0
 24  8  1  0
 33 27  1  0
 22 12  1  0
 22 17  1  0
  1 34  1  0
  1 35  1  0
  1 36  1  0
  3 37  1  0
  7 38  1  0
  9 39  1  0
 10 40  1  0
 18 41  1  0
 19 42  1  0
 20 43  1  0
 21 44  1  0
 23 45  1  0
 24 46  1  0
 28 47  1  0
 29 48  1  0
 32 49  1  0
M  CHG  1  14  -1
M  END
>  <UniqueID>  (4) 
4

>  <SMILES>  (4) 
Cn1cc(C(=O)Nc2ccc(-c3n[n-]c(=O)c4ccccc34)cc2)c(=O)c2ccc(Cl)cc21

>  <Energy>  (4) 
88.08676836915389

>  <Genealogy>  (4) 
Cn1cc(C(=O)Nc2ccc(-c3n[n-]c(=O)c4ccccc34)cc2)c(=O)c2ccc(Cl)cc21 (protonated)
Cn1cc(C(=O)Nc2ccc(-c3n[n-]c(=O)c4ccccc34)cc2)c(=O)c2ccc(Cl)cc21 (3D coordinates assigned)
Cn1cc(C(=O)Nc2ccc(-c3n[n-]c(=O)c4ccccc34)cc2)c(=O)c2ccc(Cl)cc21 (optimized conformer: 88.08676836915389 kcal/mol)

>  <smiles>  (4) 
Cn1cc(C(=O)Nc2ccc(-c3n[nH]c(=O)c4ccccc34)cc2)c(=O)c2ccc(Cl)cc21

>  <score_type>  (4) 
oracle

>  <origin>  (4) 
adg

>  <m_score__min__energy>  (4) 
-11.789999999999999

>  <m_primary>  (4) 
energy

$$$$
4:0
     RDKit          3D

 27 28  0  0  0  0  0  0  0  0999 V2000
   59.9600   24.2390   45.8250 H   0  0  0  0  0  0  0  0  0  0  0  0
   59.6030   25.1800   45.8930 O   0  0  0  0  0  0  0  0  0  0  0  0
   58.2470   25.5200   45.9640 C   0  0  0  0  0  0  0  0  0  0  0  0
   57.3270   24.5210   46.3590 C   0  0  0  0  0  0  0  0  0  0  0  0
   57.7780   23.2140   46.7610 N   0  0  0  0  0  0  0  0  0  0  0  0
   58.0140   22.2300   45.9470 C   0  0  0  0  0  0  0  0  0  0  0  0
   57.3312   21.3681   45.9179 H   0  0  0  0  0  0  0  0  0  0  0  0
   59.1840   22.2620   45.0680 C   0  0  0  0  0  0  0  0  0  0  0  0
   59.0780   21.9660   43.8480 O   0  0  0  0  0  0  0  0  0  0  0  0
   60.4240   22.6190   45.5820 O   0  0  0  0  0  0  0  0  0  0  0  0
   55.9400   24.7730   46.3050 C   0  0  0  0  0  0  0  0  0  0  0  0
   54.9540   23.6990   46.7010 C   0  0  0  0  0  0  0  0  0  0  0  0
   53.9286   24.0723   46.5625 H   0  0  0  0  0  0  0  0  0  0  0  0
   55.1057   22.8092   46.0724 H   0  0  0  0  0  0  0  0  0  0  0  0
   55.1520   23.3630   48.0460 O   0  0  0  0  0  0  0  0  0  0  0  0
   56.1280   23.2140   48.1520 H   0  0  0  0  0  0  0  0  0  0  0  0
   55.4780   26.0560   45.9630 C   0  0  0  0  0  0  0  0  0  0  0  0
   54.1140   26.3350   45.9640 O   0  0  0  0  0  0  0  0  0  0  0  0
   56.3830   27.0680   45.6270 C   0  0  0  0  0  0  0  0  0  0  0  0
   55.9110   28.3020   45.3010 N   0  0  0  0  0  0  0  0  0  0  0  0
   56.7360   29.3260   44.9660 C   0  0  0  0  0  0  0  0  0  0  0  0
   56.2520   30.4500   44.6710 O   0  0  0  0  0  0  0  0  0  0  0  0
   58.1150   29.1300   44.9500 C   0  0  0  0  0  0  0  0  0  0  0  0
   58.7884   29.9565   44.6791 H   0  0  0  0  0  0  0  0  0  0  0  0
   58.6370   27.8780   45.2800 C   0  0  0  0  0  0  0  0  0  0  0  0
   59.7256   27.7205   45.2735 H   0  0  0  0  0  0  0  0  0  0  0  0
   57.7760   26.8130   45.6220 C   0  0  0  0  0  0  0  0  0  0  0  0
  1  2  1  0
  2  3  1  0
  3  4  2  0
  4  5  1  0
  5  6  2  0
  6  7  1  0
  6  8  1  0
  8  9  2  0
  8 10  1  0
  4 11  1  0
 11 12  1  0
 12 13  1  0
 12 14  1  0
 12 15  1  0
 15 16  1  0
 11 17  2  0
 17 18  1  0
 17 19  1  0
 19 20  1  0
 20 21  1  0
 21 22  2  0
 21 23  1  0
 23 24  1  0
 23 25  2  0
 25 26  1  0
 25 27  1  0
 27  3  1  0
 27 19  2  0
M  CHG  3  10  -1  18  -1  20  -1
M  END
>  <UniqueID>  (5) 
5

>  <SMILES>  (5) 
O=C([O-])/C=N/c1c(CO)c([O-])c2[n-]c(=O)ccc2c1O

>  <Energy>  (5) 
39.71386354755485

>  <Genealogy>  (5) 
O=C([O-])C=Nc1c(CO)c([O-])c2[n-]c(=O)ccc2c1O (protonated)
O=C([O-])/C=N/c1c(CO)c([O-])c2[n-]c(=O)ccc2c1O (cis-trans isomerization)
O=C([O-])/C=N/c1c(CO)c([O-])c2[n-]c(=O)ccc2c1O (3D coordinates assigned)
O=C([O-])/C=N/c1c(CO)c([O-])c2[n-]c(=O)ccc2c1O (optimized conformer: 39.71386354755485 kcal/mol)

>  <smiles>  (5) 
O=C(O)C=Nc1c(CO)c(O)c2[nH]c(=O)ccc2c1O

>  <score_type>  (5) 
oracle

>  <origin>  (5) 
adg

>  <m_score__min__energy>  (5) 
-12.390000000000001

>  <m_primary>  (5) 
energy

$$$$
5:0
     RDKit          3D

 49 52  0  0  0  0  0  0  0  0999 V2000
   55.1430   27.4730   45.4240 H   0  0  0  0  0  0  0  0  0  0  0  0
   55.1360   26.6320   45.9910 O   0  0  0  0  0  0  0  0  0  0  0  0
   59.3740   29.0410   48.3860 C   0  0  0  0  0  0  0  0  0  0  0  0
   58.6070   28.4190   47.3990 C   0  0  0  0  0  0  0  0  0  0  0  0
   58.5037   27.3239   47.3952 H   0  0  0  0  0  0  0  0  0  0  0  0
   57.1780   23.6070   46.5970 C   0  0  0  0  0  0  0  0  0  0  0  0
   57.0959   22.6216   47.0788 H   0  0  0  0  0  0  0  0  0  0  0  0
   58.3640   23.9890   45.9700 C   0  0  0  0  0  0  0  0  0  0  0  0
   59.2235   23.3026   45.9555 H   0  0  0  0  0  0  0  0  0  0  0  0
   58.9020   31.1570   47.3960 N   0  0  0  0  0  0  0  0  0  0  0  0
   59.5050   30.4450   48.3850 C   0  0  0  0  0  0  0  0  0  0  0  0
   60.2080   31.0960   49.2690 N   0  0  0  0  0  0  0  0  0  0  0  0
   57.1640   28.5250   45.3540 C   0  0  0  0  0  0  0  0  0  0  0  0
   56.0930   29.0640   44.9700 O   0  0  0  0  0  0  0  0  0  0  0  0
   57.9680   29.1830   46.4130 C   0  0  0  0  0  0  0  0  0  0  0  0
   58.1500   30.5740   46.4260 C   0  0  0  0  0  0  0  0  0  0  0  0
   57.6821   31.1951   45.6479 H   0  0  0  0  0  0  0  0  0  0  0  0
   58.4590   25.2080   45.3770 N   0  0  0  0  0  0  0  0  0  0  0  0
   57.4230   26.0970   45.3790 C   0  0  0  0  0  0  0  0  0  0  0  0
   57.5330   27.2540   44.7920 N   0  0  0  0  0  0  0  0  0  0  0  0
   59.8010   32.1590   50.1440 C   0  0  0  0  0  0  0  0  0  0  0  0
   59.5280   31.9330   51.3540 O   0  0  0  0  0  0  0  0  0  0  0  0
   59.5700   33.4560   49.5840 N   0  0  0  0  0  0  0  0  0  0  0  0
   59.6470   33.8180   48.1960 C   0  0  0  0  0  0  0  0  0  0  0  0
   58.4940   34.1730   47.4690 C   0  0  0  0  0  0  0  0  0  0  0  0
   57.5164   34.1992   47.9726 H   0  0  0  0  0  0  0  0  0  0  0  0
   58.5850   34.4920   46.1120 C   0  0  0  0  0  0  0  0  0  0  0  0
   57.6793   34.7634   45.5498 H   0  0  0  0  0  0  0  0  0  0  0  0
   59.8220   34.4670   45.4690 C   0  0  0  0  0  0  0  0  0  0  0  0
   59.8884   34.7047   44.3970 H   0  0  0  0  0  0  0  0  0  0  0  0
   60.9760   34.1410   46.1830 C   0  0  0  0  0  0  0  0  0  0  0  0
   61.9491   34.1236   45.6703 H   0  0  0  0  0  0  0  0  0  0  0  0
   60.9030   33.8350   47.5520 C   0  0  0  0  0  0  0  0  0  0  0  0
   62.1030   33.5090   48.2730 N   0  0  0  0  0  0  0  0  0  0  0  0
   62.9470   32.4030   48.0110 C   0  0  0  0  0  0  0  0  0  0  0  0
   62.7120   31.5480   47.1160 O   0  0  0  0  0  0  0  0  0  0  0  0
   64.0910   32.3180   48.9410 C   0  0  0  0  0  0  0  0  0  0  0  0
   65.0454   32.3251   48.3941 H   0  0  0  0  0  0  0  0  0  0  0  0
   64.0973   31.3915   49.5339 H   0  0  0  0  0  0  0  0  0  0  0  0
   63.9390   33.5820   49.8000 C   0  0  0  0  0  0  0  0  0  0  0  0
   64.7434   34.2951   49.5665 H   0  0  0  0  0  0  0  0  0  0  0  0
   64.0022   33.3361   50.8703 H   0  0  0  0  0  0  0  0  0  0  0  0
   62.5700   34.2020   49.4620 C   0  0  0  0  0  0  0  0  0  0  0  0
   62.6763   35.2782   49.2609 H   0  0  0  0  0  0  0  0  0  0  0  0
   61.8611   34.0962   50.2964 H   0  0  0  0  0  0  0  0  0  0  0  0
   56.2110   25.7440   45.9920 C   0  0  0  0  0  0  0  0  0  0  0  0
   59.8732   28.4393   49.1599 H   0  0  0  0  0  0  0  0  0  0  0  0
   56.0960   24.4900   46.6060 C   0  0  0  0  0  0  0  0  0  0  0  0
   55.1540   24.2010   47.0949 H   0  0  0  0  0  0  0  0  0  0  0  0
  1  2  1  0
  2  3  1  0
  3  4  2  0
  4  5  1  0
  4  6  1  0
  6  7  1  0
  6  8  2  0
  8  9  1  0
  8 10  1  0
 10 11  1  0
 11 12  2  0
 12 13  1  0
 13 14  2  0
 13 15  1  0
 15 16  2  0
 16 17  1  0
 16 18  1  0
 18 19  1  0
 19 20  2  0
 20 21  1  0
 21 22  2  0
 21 23  1  0
 23 24  1  0
 24 25  2  0
 25 26  1  0
 25 27  1  0
 27 28  1  0
 27 29  2  0
 29 30  1  0
 29 31  1  0
 31 32  1  0
 31 33  2  0
 33 34  1  0
 34 35  1  0
 35 36  2  0
 35 37  1  0
 37 38  1  0
 37 39  1  0
 37 40  1  0
 40 41  1  0
 40 42  1  0
 40 43  1  0
 43 44  1  0
 43 45  1  0
 19 46  1  0
 46 47  1  0
 46 48  2  0
 48 49  1  0
 11  3  1  0
 48 15  1  0
 33 24  1  0
 43 34  1  0
M  CHG  3  10  -1  18  -1  23  -1
M  END
>  <UniqueID>  (6) 
6

>  <SMILES>  (6) 
O=C(/N=c1\ccc(C(=O)/N=c2\[n-]cccc2O)c[n-]1)[N-]c1ccccc1N1CCCC1=O

>  <Energy>  (6) 
85.3381757336675

>  <Genealogy>  (6) 
O=C(N=c1ccc(C(=O)N=c2[n-]cccc2O)c[n-]1)[N-]c1ccccc1N1CCCC1=O (protonated)
O=C(/N=c1\ccc(C(=O)/N=c2\[n-]cccc2O)c[n-]1)[N-]c1ccccc1N1CCCC1=O (cis-trans isomerization)
O=C(/N=c1\ccc(C(=O)/N=c2\[n-]cccc2O)c[n-]1)[N-]c1ccccc1N1CCCC1=O (3D coordinates assigned)
O=C(/N=c1\ccc(C(=O)/N=c2\[n-]cccc2O)c[n-]1)[N-]c1ccccc1N1CCCC1=O (nonaromatic ring conformer: 85.3381757336675 kcal/mol)

>  <smiles>  (6) 
O=C(N=c1ccc(C(=O)N=c2[nH]cccc2O)c[nH]1)Nc1ccccc1N1CCCC1=O

>  <score_type>  (6) 
oracle

>  <origin>  (6) 
adg

>  <m_score__min__energy>  (6) 
-12.619999999999999

>  <m_primary>  (6) 
energy

$$$$
6:0
     RDKit          3D

 42 44  0  0  0  0  0  0  0  0999 V2000
   55.7720   28.7890   44.9160 O   0  0  0  0  0  0  0  0  0  0  0  0
   56.9700   28.5610   45.2350 C   0  0  0  0  0  0  0  0  0  0  0  0
   57.5900   27.2420   44.8540 C   0  0  0  0  0  0  0  0  0  0  0  0
   57.1680   26.1690   45.8070 C   0  0  0  0  0  0  0  0  0  0  0  0
   57.9890   25.2210   46.2920 N   0  0  0  0  0  0  0  0  0  0  0  0
   57.1710   24.4630   47.0540 C   0  0  0  0  0  0  0  0  0  0  0  0
   57.5770   23.4570   47.6920 O   0  0  0  0  0  0  0  0  0  0  0  0
   55.8810   24.8640   47.0750 N   0  0  0  0  0  0  0  0  0  0  0  0
   55.8970   25.9440   46.2760 C   0  0  0  0  0  0  0  0  0  0  0  0
   54.7730   26.7040   45.9800 O   0  0  0  0  0  0  0  0  0  0  0  0
   57.6800   29.5450   45.9990 N   0  0  0  0  0  0  0  0  0  0  0  0
   57.9710   30.8850   45.5810 C   0  0  0  0  0  0  0  0  0  0  0  0
   57.4740   31.3410   44.3550 C   0  0  0  0  0  0  0  0  0  0  0  0
   57.7180   32.6530   43.9410 C   0  0  0  0  0  0  0  0  0  0  0  0
   58.4630   33.5160   44.7490 C   0  0  0  0  0  0  0  0  0  0  0  0
   58.9930   33.0610   45.9650 C   0  0  0  0  0  0  0  0  0  0  0  0
   59.8710   34.1650   47.0250 S   0  0  0  0  0  0  0  0  0  0  0  0
   58.9050   34.8290   47.9650 O   0  0  0  0  0  0  0  0  0  0  0  0
   60.5230   35.2350   46.1940 O   0  0  0  0  0  0  0  0  0  0  0  0
   61.0840   33.3190   47.9610 N   0  0  0  0  0  0  0  0  0  0  0  0
   61.9890   32.5260   47.0920 C   0  0  0  0  0  0  0  0  0  0  0  0
   63.3440   33.2110   46.8540 C   0  0  0  0  0  0  0  0  0  0  0  0
   64.0760   33.4850   48.1790 C   0  0  0  0  0  0  0  0  0  0  0  0
   63.1130   33.6830   49.3620 C   0  0  0  0  0  0  0  0  0  0  0  0
   61.7700   34.2470   48.8880 C   0  0  0  0  0  0  0  0  0  0  0  0
   58.7750   31.7340   46.3590 C   0  0  0  0  0  0  0  0  0  0  0  0
   57.2676   26.9707   43.8379 H   0  0  0  0  0  0  0  0  0  0  0  0
   58.6850   27.3400   44.8914 H   0  0  0  0  0  0  0  0  0  0  0  0
   56.8891   30.6641   43.7149 H   0  0  0  0  0  0  0  0  0  0  0  0
   57.3230   33.0071   42.9774 H   0  0  0  0  0  0  0  0  0  0  0  0
   58.6342   34.5549   44.4304 H   0  0  0  0  0  0  0  0  0  0  0  0
   62.1679   31.5511   47.5690 H   0  0  0  0  0  0  0  0  0  0  0  0
   61.4971   32.4200   46.1138 H   0  0  0  0  0  0  0  0  0  0  0  0
   63.9699   32.5580   46.2280 H   0  0  0  0  0  0  0  0  0  0  0  0
   63.1617   34.1738   46.3542 H   0  0  0  0  0  0  0  0  0  0  0  0
   64.7337   32.6315   48.4002 H   0  0  0  0  0  0  0  0  0  0  0  0
   64.6457   34.4179   48.0559 H   0  0  0  0  0  0  0  0  0  0  0  0
   62.9428   32.7137   49.8534 H   0  0  0  0  0  0  0  0  0  0  0  0
   63.5646   34.3978   50.0657 H   0  0  0  0  0  0  0  0  0  0  0  0
   61.1260   34.4176   49.7633 H   0  0  0  0  0  0  0  0  0  0  0  0
   61.9629   35.1878   48.3516 H   0  0  0  0  0  0  0  0  0  0  0  0
   59.2362   31.3551   47.2830 H   0  0  0  0  0  0  0  0  0  0  0  0
  1  2  2  0
  2  3  1  0
  3  4  1  0
  4  5  1  0
  5  6  1  0
  6  7  2  0
  6  8  1  0
  8  9  1  0
  9 10  1  0
  2 11  1  0
 11 12  1  0
 12 13  2  0
 13 14  1  0
 14 15  2  0
 15 16  1  0
 16 17  1  0
 17 18  2  0
 17 19  2  0
 17 20  1  0
 20 21  1  0
 21 22  1  0
 22 23  1  0
 23 24  1  0
 24 25  1  0
 16 26  2  0
  9  4  2  0
 26 12  1  0
 25 20  1  0
  3 27  1  0
  3 28  1  0
 13 29  1  0
 14 30  1  0
 15 31  1  0
 21 32  1  0
 21 33  1  0
 22 34  1  0
 22 35  1  0
 23 36  1  0
 23 37  1  0
 24 38  1  0
 24 39  1  0
 25 40  1  0
 25 41  1  0
 26 42  1  0
M  CHG  4   5  -1   8  -1  10  -1  11  -1
M  END
>  <UniqueID>  (7) 
7

>  <SMILES>  (7) 
O=C(Cc1[n-]c(=O)[n-]c1[O-])[N-]c1cccc(S(=O)(=O)N2CCCCC2)c1

>  <Energy>  (7) 
78.48580454839035

>  <Genealogy>  (7) 
O=C(Cc1[n-]c(=O)[n-]c1[O-])[N-]c1cccc(S(=O)(=O)N2CCCCC2)c1 (protonated)
O=C(Cc1[n-]c(=O)[n-]c1[O-])[N-]c1cccc(S(=O)(=O)N2CCCCC2)c1 (3D coordinates assigned)
O=C(Cc1[n-]c(=O)[n-]c1[O-])[N-]c1cccc(S(=O)(=O)N2CCCCC2)c1 (nonaromatic ring conformer: 78.48580454839035 kcal/mol)

>  <smiles>  (7) 
O=C(Cc1[nH]c(=O)[nH]c1O)Nc1cccc(S(=O)(=O)N2CCCCC2)c1

>  <score_type>  (7) 
oracle

>  <origin>  (7) 
adg

>  <m_score__min__energy>  (7) 
-18.18

>  <m_primary>  (7) 
energy

$$$$
7:0
     RDKit          3D

 30 31  0  0  0  0  0  0  0  0999 V2000
   60.0270   27.0233   45.4375 H   0  0  0  0  0  0  0  0  0  0  0  0
   58.9350   27.1510   45.4710 C   0  0  0  0  0  0  0  0  0  0  0  0
   58.3610   28.3450   45.0350 C   0  0  0  0  0  0  0  0  0  0  0  0
   58.9974   29.1556   44.6504 H   0  0  0  0  0  0  0  0  0  0  0  0
   56.9670   28.5080   45.0890 C   0  0  0  0  0  0  0  0  0  0  0  0
   56.3400   29.7690   44.6270 C   0  0  0  0  0  0  0  0  0  0  0  0
   55.0930   29.9220   44.7370 O   0  0  0  0  0  0  0  0  0  0  0  0
   57.1540   30.8070   44.0540 N   0  0  0  0  0  0  0  0  0  0  0  0
   57.6930   31.8030   44.6910 C   0  0  0  0  0  0  0  0  0  0  0  0
   57.7630   31.9000   46.0380 N   0  0  0  0  0  0  0  0  0  0  0  0
   58.3820   33.0480   46.4260 C   0  0  0  0  0  0  0  0  0  0  0  0
   58.5710   33.3870   47.8700 C   0  0  0  0  0  0  0  0  0  0  0  0
   58.1296   32.5954   48.4933 H   0  0  0  0  0  0  0  0  0  0  0  0
   59.6457   33.4702   48.0895 H   0  0  0  0  0  0  0  0  0  0  0  0
   58.0767   34.3449   48.0895 H   0  0  0  0  0  0  0  0  0  0  0  0
   58.7970   33.8690   45.3760 C   0  0  0  0  0  0  0  0  0  0  0  0
   59.5080   35.1780   45.4980 C   0  0  0  0  0  0  0  0  0  0  0  0
   59.6420   35.4247   46.5616 H   0  0  0  0  0  0  0  0  0  0  0  0
   60.4919   35.1076   45.0111 H   0  0  0  0  0  0  0  0  0  0  0  0
   58.9134   35.9650   45.0111 H   0  0  0  0  0  0  0  0  0  0  0  0
   58.3870   33.1250   43.9220 S   0  0  0  0  0  0  0  0  0  0  0  0
   56.1930   27.4900   45.5730 N   0  0  0  0  0  0  0  0  0  0  0  0
   55.1560   27.6030   45.6230 H   0  0  0  0  0  0  0  0  0  0  0  0
   56.7350   26.3150   46.0030 C   0  0  0  0  0  0  0  0  0  0  0  0
   55.9800   25.4080   46.4500 O   0  0  0  0  0  0  0  0  0  0  0  0
   58.1260   26.1150   45.9510 C   0  0  0  0  0  0  0  0  0  0  0  0
   58.7440   24.8360   46.4410 C   0  0  0  0  0  0  0  0  0  0  0  0
   58.7477   24.8284   47.5410 H   0  0  0  0  0  0  0  0  0  0  0  0
   58.1597   23.9809   46.0704 H   0  0  0  0  0  0  0  0  0  0  0  0
   59.7771   24.7624   46.0704 H   0  0  0  0  0  0  0  0  0  0  0  0
  1  2  1  0
  2  3  1  0
  3  4  1  0
  3  5  2  0
  5  6  1  0
  6  7  2  0
  6  8  1  0
  8  9  2  0
  9 10  1  0
 10 11  1  0
 11 12  1  0
 12 13  1  0
 12 14  1  0
 12 15  1  0
 11 16  2  0
 16 17  1  0
 17 18  1  0
 17 19  1  0
 17 20  1  0
 16 21  1  0
  5 22  1  0
 22 23  1  0
 22 24  1  0
 24 25  2  0
 24 26  1  0
 26 27  1  0
 27 28  1  0
 27 29  1  0
 27 30  1  0
 26  2  2  0
 21  9  1  0
M  CHG  1  10  -1
M  END
>  <UniqueID>  (8) 
8

>  <SMILES>  (8) 
Cc1[n-]/c(=N\C(=O)c2ccc(C)c(=O)[nH]2)sc1C

>  <Energy>  (8) 
61.035213793031375

>  <Genealogy>  (8) 
Cc1[n-]c(=NC(=O)c2ccc(C)c(=O)[nH]2)sc1C (protonated)
Cc1[n-]/c(=N\C(=O)c2ccc(C)c(=O)[nH]2)sc1C (cis-trans isomerization)
Cc1[n-]/c(=N\C(=O)c2ccc(C)c(=O)[nH]2)sc1C (3D coordinates assigned)
Cc1[n-]/c(=N\C(=O)c2ccc(C)c(=O)[nH]2)sc1C (optimized conformer: 61.035213793031375 kcal/mol)

>  <smiles>  (8) 
Cc1[nH]c(=NC(=O)c2ccc(C)c(=O)[nH]2)sc1C

>  <score_type>  (8) 
oracle

>  <origin>  (8) 
adg

>  <m_score__min__energy>  (8) 
-9.0500000000000007

>  <m_primary>  (8) 
energy

$$$$
8:0
     RDKit          3D

 60 65  0  0  0  0  0  0  0  0999 V2000
   57.1820   28.8710   43.0380 O   0  0  0  0  0  0  0  0  0  0  0  0
   56.8480   29.3840   44.4120 S   0  0  0  0  0  0  0  0  0  0  0  0
   56.0540   30.6530   44.2790 O   0  0  0  0  0  0  0  0  0  0  0  0
   55.8960   28.1970   45.2440 N   0  0  0  0  0  0  0  0  0  0  0  0
   56.3800   27.0910   45.7220 C   0  0  0  0  0  0  0  0  0  0  0  0
   55.5650   26.0380   46.0140 N   0  0  0  0  0  0  0  0  0  0  0  0
   56.0700   24.8780   46.5100 C   0  0  0  0  0  0  0  0  0  0  0  0
   57.4410   24.7540   46.7260 C   0  0  0  0  0  0  0  0  0  0  0  0
   58.2610   25.8400   46.4230 C   0  0  0  0  0  0  0  0  0  0  0  0
   57.7180   26.9830   45.9290 N   0  0  0  0  0  0  0  0  0  0  0  0
   58.3150   29.7220   45.3250 C   0  0  0  0  0  0  0  0  0  0  0  0
   59.5090   29.0480   45.0370 C   0  0  0  0  0  0  0  0  0  0  0  0
   60.6660   29.3250   45.7710 C   0  0  0  0  0  0  0  0  0  0  0  0
   60.6500   30.3150   46.7650 C   0  0  0  0  0  0  0  0  0  0  0  0
   61.8020   30.5460   47.5840 N   0  0  0  0  0  0  0  0  0  0  0  0
   61.9130   30.7890   48.8660 C   0  0  0  0  0  0  0  0  0  0  0  0
   62.4530   32.0000   49.4220 C   0  0  0  0  0  0  0  0  0  0  0  0
   62.7880   31.9970   50.8050 C   0  0  0  0  0  0  0  0  0  0  0  0
   62.4240   30.9580   51.5950 N   0  0  0  0  0  0  0  0  0  0  0  0
   61.7580   29.8800   51.1260 C   0  0  0  0  0  0  0  0  0  0  0  0
   61.3750   28.8680   52.0130 C   0  0  0  0  0  0  0  0  0  0  0  0
   60.7030   27.7390   51.5440 C   0  0  0  0  0  0  0  0  0  0  0  0
   60.4180   27.6130   50.1830 C   0  0  0  0  0  0  0  0  0  0  0  0
   60.8020   28.6150   49.2880 C   0  0  0  0  0  0  0  0  0  0  0  0
   61.4750   29.7710   49.7490 C   0  0  0  0  0  0  0  0  0  0  0  0
   63.4720   33.1550   51.4850 C   0  0  0  0  0  0  0  0  0  0  0  0
   64.0220   34.1740   50.4960 C   0  0  0  0  0  0  0  0  0  0  0  0
   62.9300   34.5400   49.5040 C   0  0  0  0  0  0  0  0  0  0  0  0
   62.5550   33.3230   48.6330 C   0  0  2  0  0  0  0  0  0  0  0  0
   61.2770   33.6730   47.8880 C   0  0  0  0  0  0  0  0  0  0  0  0
   60.0810   33.9560   48.5750 C   0  0  0  0  0  0  0  0  0  0  0  0
   58.9290   34.3170   47.8690 C   0  0  0  0  0  0  0  0  0  0  0  0
   58.9650   34.4270   46.4770 C   0  0  0  0  0  0  0  0  0  0  0  0
   60.1570   34.1900   45.7880 C   0  0  0  0  0  0  0  0  0  0  0  0
   61.3110   33.8300   46.4900 C   0  0  0  0  0  0  0  0  0  0  0  0
   59.4400   30.9370   47.0980 C   0  0  0  0  0  0  0  0  0  0  0  0
   58.2830   30.6590   46.3660 C   0  0  0  0  0  0  0  0  0  0  0  0
   55.3977   24.0384   46.7406 H   0  0  0  0  0  0  0  0  0  0  0  0
   57.8661   23.8216   47.1260 H   0  0  0  0  0  0  0  0  0  0  0  0
   59.3470   25.7714   46.5838 H   0  0  0  0  0  0  0  0  0  0  0  0
   59.5361   28.2993   44.2316 H   0  0  0  0  0  0  0  0  0  0  0  0
   61.5912   28.7654   45.5688 H   0  0  0  0  0  0  0  0  0  0  0  0
   61.6047   28.9630   53.0846 H   0  0  0  0  0  0  0  0  0  0  0  0
   60.3979   26.9488   52.2458 H   0  0  0  0  0  0  0  0  0  0  0  0
   59.8893   26.7218   49.8140 H   0  0  0  0  0  0  0  0  0  0  0  0
   60.5793   28.5042   48.2165 H   0  0  0  0  0  0  0  0  0  0  0  0
   62.7456   33.6573   52.1408 H   0  0  0  0  0  0  0  0  0  0  0  0
   64.3222   32.7515   52.0546 H   0  0  0  0  0  0  0  0  0  0  0  0
   64.3460   35.0753   51.0370 H   0  0  0  0  0  0  0  0  0  0  0  0
   64.8821   33.7456   49.9606 H   0  0  0  0  0  0  0  0  0  0  0  0
   62.0399   34.8778   50.0550 H   0  0  0  0  0  0  0  0  0  0  0  0
   63.3009   35.3427   48.8496 H   0  0  0  0  0  0  0  0  0  0  0  0
   63.3664   33.1249   47.9172 H   0  0  0  0  0  0  0  0  0  0  0  0
   60.0526   33.8928   49.6728 H   0  0  0  0  0  0  0  0  0  0  0  0
   57.9925   34.5148   48.4111 H   0  0  0  0  0  0  0  0  0  0  0  0
   58.0547   34.7003   45.9232 H   0  0  0  0  0  0  0  0  0  0  0  0
   60.1875   34.2867   44.6927 H   0  0  0  0  0  0  0  0  0  0  0  0
   62.2529   33.6682   45.9454 H   0  0  0  0  0  0  0  0  0  0  0  0
   59.4006   31.6461   47.9380 H   0  0  0  0  0  0  0  0  0  0  0  0
   57.3436   31.1776   46.6079 H   0  0  0  0  0  0  0  0  0  0  0  0
  1  2  2  0
  2  3  2  0
  2  4  1  0
  4  5  2  3
  5  6  1  0
  6  7  2  0
  7  8  1  0
  8  9  2  0
  9 10  1  0
  2 11  1  0
 11 12  2  0
 12 13  1  0
 13 14  2  0
 14 15  1  0
 15 16  2  3
 16 17  1  0
 17 18  2  0
 18 19  1  0
 19 20  1  0
 20 21  2  0
 21 22  1  0
 22 23  2  0
 23 24  1  0
 24 25  2  0
 18 26  1  0
 26 27  1  0
 27 28  1  0
 28 29  1  0
 29 30  1  0
 30 31  2  0
 31 32  1  0
 32 33  2  0
 33 34  1  0
 34 35  2  0
 14 36  1  0
 36 37  2  0
 10  5  1  0
 37 11  1  0
 25 16  1  0
 35 30  1  0
 29 17  1  0
 25 20  1  0
  7 38  1  0
  8 39  1  0
  9 40  1  0
 12 41  1  0
 13 42  1  0
 21 43  1  0
 22 44  1  0
 23 45  1  0
 24 46  1  0
 26 47  1  0
 26 48  1  0
 27 49  1  0
 27 50  1  0
 28 51  1  0
 28 52  1  0
 29 53  1  6
 31 54  1  0
 32 55  1  0
 33 56  1  0
 34 57  1  0
 35 58  1  0
 36 59  1  0
 37 60  1  0
M  CHG  2  10  -1  19  -1
M  END
>  <UniqueID>  (9) 
9

>  <SMILES>  (9) 
O=S(=O)(N=c1nccc[n-]1)c1ccc(N=c2c3c([n-]c4ccccc24)CCC[C@@H]3c2ccccc2)cc1

>  <Energy>  (9) 
98.57777523583962

>  <Genealogy>  (9) 
O=S(=O)(N=c1nccc[n-]1)c1ccc(N=c2c3c([n-]c4ccccc24)CCCC3c2ccccc2)cc1 (protonated)
O=S(=O)(N=c1nccc[n-]1)c1ccc(N=c2c3c([n-]c4ccccc24)CCC[C@@H]3c2ccccc2)cc1 (chirality)
O=S(=O)(N=c1nccc[n-]1)c1ccc(N=c2c3c([n-]c4ccccc24)CCC[C@@H]3c2ccccc2)cc1 (3D coordinates assigned)
O=S(=O)(N=c1nccc[n-]1)c1ccc(N=c2c3c([n-]c4ccccc24)CCC[C@@H]3c2ccccc2)cc1 (nonaromatic ring conformer: 98.57777523583962 kcal/mol)

>  <smiles>  (9) 
O=S(=O)(N=c1nccc[nH]1)c1ccc(N=c2c3c([nH]c4ccccc24)CCCC3c2ccccc2)cc1

>  <score_type>  (9) 
oracle

>  <origin>  (9) 
adg

>  <m_score__min__energy>  (9) 
-12.369999999999999

>  <m_primary>  (9) 
energy

$$$$
9:0
     RDKit          3D

 51 54  0  0  0  0  0  0  0  0999 V2000
   59.3360   28.6140   45.6330 O   0  0  0  0  0  0  0  0  0  0  0  0
   58.2090   28.6820   46.1920 C   0  0  0  0  0  0  0  0  0  0  0  0
   57.7650   27.5620   47.0970 C   0  0  0  0  0  0  0  0  0  0  0  0
   57.4730   26.3510   46.3280 N   0  0  0  0  0  0  0  0  0  0  0  0
   56.2700   25.9740   45.8410 C   0  0  0  0  0  0  0  0  0  0  0  0
   55.1010   26.7130   45.9830 O   0  0  0  0  0  0  0  0  0  0  0  0
   56.3710   24.7530   45.2040 C   0  0  0  0  0  0  0  0  0  0  0  0
   57.6790   24.3460   45.3450 C   0  0  0  0  0  0  0  0  0  0  0  0
   58.3330   25.3550   46.0210 C   0  0  0  0  0  0  0  0  0  0  0  0
   59.6850   25.3590   46.3460 O   0  0  0  0  0  0  0  0  0  0  0  0
   58.2330   23.0870   44.7520 C   0  0  0  0  0  0  0  0  0  0  0  0
   57.0910   22.1030   44.4230 C   0  0  0  0  0  0  0  0  0  0  0  0
   55.9140   22.8070   43.7130 C   0  0  0  0  0  0  0  0  0  0  0  0
   55.2940   23.9130   44.5900 C   0  0  0  0  0  0  0  0  0  0  0  0
   57.4640   29.9020   46.0880 N   0  0  0  0  0  0  0  0  0  0  0  0
   57.5180   30.8330   44.9980 C   0  0  0  0  0  0  0  0  0  0  0  0
   57.2480   30.4000   43.6890 C   0  0  0  0  0  0  0  0  0  0  0  0
   57.3610   31.2820   42.6130 C   0  0  0  0  0  0  0  0  0  0  0  0
   57.7630   32.6000   42.8310 C   0  0  0  0  0  0  0  0  0  0  0  0
   58.0610   33.0360   44.1230 C   0  0  0  0  0  0  0  0  0  0  0  0
   57.9570   32.1590   45.2170 C   0  0  0  0  0  0  0  0  0  0  0  0
   58.2630   32.6590   46.5800 C   0  0  0  0  0  0  0  0  0  0  0  0
   57.3610   33.2330   47.2490 O   0  0  0  0  0  0  0  0  0  0  0  0
   59.5850   32.5380   47.1350 N   0  0  0  0  0  0  0  0  0  0  0  0
   60.0600   33.5400   48.0930 C   0  0  0  0  0  0  0  0  0  0  0  0
   61.5910   33.5860   48.0730 C   0  0  0  0  0  0  0  0  0  0  0  0
   62.1360   32.2930   48.2600 O   0  0  0  0  0  0  0  0  0  0  0  0
   61.7870   31.4640   47.1680 C   0  0  0  0  0  0  0  0  0  0  0  0
   60.2720   31.2430   47.1160 C   0  0  0  0  0  0  0  0  0  0  0  0
   58.5651   27.3449   47.8199 H   0  0  0  0  0  0  0  0  0  0  0  0
   56.8488   27.8753   47.6190 H   0  0  0  0  0  0  0  0  0  0  0  0
   58.7796   23.3304   43.8290 H   0  0  0  0  0  0  0  0  0  0  0  0
   58.9120   22.6174   45.4790 H   0  0  0  0  0  0  0  0  0  0  0  0
   57.4811   21.3116   43.7661 H   0  0  0  0  0  0  0  0  0  0  0  0
   56.7180   21.6835   45.3690 H   0  0  0  0  0  0  0  0  0  0  0  0
   56.2801   23.2572   42.7785 H   0  0  0  0  0  0  0  0  0  0  0  0
   55.1370   22.0547   43.5122 H   0  0  0  0  0  0  0  0  0  0  0  0
   54.6472   24.5495   43.9683 H   0  0  0  0  0  0  0  0  0  0  0  0
   54.7034   23.4456   45.3917 H   0  0  0  0  0  0  0  0  0  0  0  0
   56.9452   29.3577   43.5106 H   0  0  0  0  0  0  0  0  0  0  0  0
   57.1331   30.9379   41.5934 H   0  0  0  0  0  0  0  0  0  0  0  0
   57.8452   33.2965   41.9836 H   0  0  0  0  0  0  0  0  0  0  0  0
   58.3803   34.0758   44.2869 H   0  0  0  0  0  0  0  0  0  0  0  0
   59.6606   34.5274   47.8181 H   0  0  0  0  0  0  0  0  0  0  0  0
   59.7161   33.2714   49.1027 H   0  0  0  0  0  0  0  0  0  0  0  0
   61.9271   33.9821   47.1034 H   0  0  0  0  0  0  0  0  0  0  0  0
   61.9346   34.2349   48.8921 H   0  0  0  0  0  0  0  0  0  0  0  0
   62.1141   31.9423   46.2330 H   0  0  0  0  0  0  0  0  0  0  0  0
   62.2817   30.4894   47.2926 H   0  0  0  0  0  0  0  0  0  0  0  0
   60.0121   30.7043   46.1928 H   0  0  0  0  0  0  0  0  0  0  0  0
   59.9591   30.6507   47.9885 H   0  0  0  0  0  0  0  0  0  0  0  0
  1  2  2  0
  2  3  1  0
  3  4  1  0
  4  5  1  0
  5  6  1  0
  5  7  2  0
  7  8  1  0
  8  9  2  0
  9 10  1  0
  8 11  1  0
 11 12  1  0
 12 13  1  0
 13 14  1  0
  2 15  1  0
 15 16  1  0
 16 17  2  0
 17 18  1  0
 18 19  2  0
 19 20  1  0
 20 21  2  0
 21 22  1  0
 22 23  2  0
 22 24  1  0
 24 25  1  0
 25 26  1  0
 26 27  1  0
 27 28  1  0
 28 29  1  0
  9  4  1  0
 21 16  1  0
 29 24  1  0
 14  7  1  0
  3 30  1  0
  3 31  1  0
 11 32  1  0
 11 33  1  0
 12 34  1  0
 12 35  1  0
 13 36  1  0
 13 37  1  0
 14 38  1  0
 14 39  1  0
 17 40  1  0
 18 41  1  0
 19 42  1  0
 20 43  1  0
 25 44  1  0
 25 45  1  0
 26 46  1  0
 26 47  1  0
 28 48  1  0
 28 49  1  0
 29 50  1  0
 29 51  1  0
M  CHG  3   6  -1  10  -1  15  -1
M  END
>  <UniqueID>  (10) 
10

>  <SMILES>  (10) 
O=C(Cn1c([O-])c2c(c1[O-])CCCC2)[N-]c1ccccc1C(=O)N1CCOCC1

>  <Energy>  (10) 
94.11211567327278

>  <Genealogy>  (10) 
O=C(Cn1c([O-])c2c(c1[O-])CCCC2)[N-]c1ccccc1C(=O)N1CCOCC1 (protonated)
O=C(Cn1c([O-])c2c(c1[O-])CCCC2)[N-]c1ccccc1C(=O)N1CCOCC1 (3D coordinates assigned)
O=C(Cn1c([O-])c2c(c1[O-])CCCC2)[N-]c1ccccc1C(=O)N1CCOCC1 (nonaromatic ring conformer: 94.11211567327278 kcal/mol)

>  <smiles>  (10) 
O=C(Cn1c(O)c2c(c1O)CCCC2)Nc1ccccc1C(=O)N1CCOCC1

>  <score_type>  (10) 
oracle

>  <origin>  (10) 
adg

>  <m_score__min__energy>  (10) 
-14.5

>  <m_primary>  (10) 
energy

$$$$
10:0
     RDKit          3D

 43 45  0  0  0  0  0  0  0  0999 V2000
   59.7290   26.0200   46.2030 C   0  0  0  0  0  0  0  0  0  0  0  0
   60.3880   27.6800   45.9620 S   0  0  0  0  0  0  0  0  0  0  0  0
   59.0590   28.7820   45.4800 C   0  0  0  0  0  0  0  0  0  0  0  0
   57.7610   28.4550   45.4820 N   0  0  0  0  0  0  0  0  0  0  0  0
   57.0580   29.5230   45.0620 C   0  0  0  0  0  0  0  0  0  0  0  0
   55.6820   29.6240   44.9110 O   0  0  0  0  0  0  0  0  0  0  0  0
   58.0030   30.5120   44.8080 C   0  0  0  0  0  0  0  0  0  0  0  0
   57.7330   31.9080   44.3170 C   0  0  0  0  0  0  0  0  0  0  0  0
   58.4430   32.9020   45.1360 C   0  0  0  0  0  0  0  0  0  0  0  0
   58.6600   34.1540   44.5650 C   0  0  0  0  0  0  0  0  0  0  0  0
   59.3160   35.1690   45.2280 C   0  0  0  0  0  0  0  0  0  0  0  0
   59.7590   34.8920   46.5120 C   0  0  0  0  0  0  0  0  0  0  0  0
   59.5690   33.6690   47.1210 C   0  0  0  0  0  0  0  0  0  0  0  0
   60.0880   33.4890   48.4890 C   0  0  0  0  0  0  0  0  0  0  0  0
   61.3880   32.9050   48.5790 N   0  0  0  0  0  0  0  0  0  0  0  0
   62.3710   33.9410   48.3770 C   0  0  0  0  0  0  0  0  0  0  0  0
   63.0420   33.8140   47.0310 C   0  0  0  0  0  0  0  0  0  0  0  0
   63.8060   32.6490   47.0330 O   0  0  0  0  0  0  0  0  0  0  0  0
   63.0920   31.5510   47.4760 C   0  0  0  0  0  0  0  0  0  0  0  0
   61.6160   31.8510   47.6350 C   0  0  0  0  0  0  0  0  0  0  0  0
   58.9050   32.6800   46.4140 C   0  0  0  0  0  0  0  0  0  0  0  0
   59.2400   30.0370   45.0730 N   0  0  0  0  0  0  0  0  0  0  0  0
   59.6461   25.8112   47.2798 H   0  0  0  0  0  0  0  0  0  0  0  0
   58.7346   25.9492   45.7381 H   0  0  0  0  0  0  0  0  0  0  0  0
   60.4041   25.2864   45.7381 H   0  0  0  0  0  0  0  0  0  0  0  0
   55.1310   30.1000   45.6250 H   0  0  0  0  0  0  0  0  0  0  0  0
   58.0712   31.9940   43.2738 H   0  0  0  0  0  0  0  0  0  0  0  0
   56.6526   32.1019   44.3895 H   0  0  0  0  0  0  0  0  0  0  0  0
   58.2934   34.3400   43.5447 H   0  0  0  0  0  0  0  0  0  0  0  0
   59.4800   36.1512   44.7608 H   0  0  0  0  0  0  0  0  0  0  0  0
   60.2847   35.6814   47.0692 H   0  0  0  0  0  0  0  0  0  0  0  0
   60.1259   34.4774   48.9704 H   0  0  0  0  0  0  0  0  0  0  0  0
   59.4038   32.7830   48.9823 H   0  0  0  0  0  0  0  0  0  0  0  0
   61.8748   34.9209   48.4377 H   0  0  0  0  0  0  0  0  0  0  0  0
   63.1409   33.8421   49.1564 H   0  0  0  0  0  0  0  0  0  0  0  0
   62.2805   33.7584   46.2392 H   0  0  0  0  0  0  0  0  0  0  0  0
   63.6828   34.6879   46.8422 H   0  0  0  0  0  0  0  0  0  0  0  0
   63.2107   30.7348   46.7482 H   0  0  0  0  0  0  0  0  0  0  0  0
   63.4864   31.2693   48.4635 H   0  0  0  0  0  0  0  0  0  0  0  0
   61.2062   32.1514   46.6594 H   0  0  0  0  0  0  0  0  0  0  0  0
   61.1198   30.9430   48.0083 H   0  0  0  0  0  0  0  0  0  0  0  0
   58.7436   31.6980   46.8827 H   0  0  0  0  0  0  0  0  0  0  0  0
   60.1420   30.5700   44.9700 H   0  0  0  0  0  0  0  0  0  0  0  0
  1  2  1  0
  2  3  1  0
  3  4  2  0
  4  5  1  0
  5  6  1  0
  5  7  2  0
  7  8  1  0
  8  9  1  0
  9 10  2  0
 10 11  1  0
 11 12  2  0
 12 13  1  0
 13 14  1  0
 14 15  1  0
 15 16  1  0
 16 17  1  0
 17 18  1  0
 18 19  1  0
 19 20  1  0
 13 21  2  0
  7 22  1  0
 22  3  1  0
 21  9  1  0
 20 15  1  0
  1 23  1  0
  1 24  1  0
  1 25  1  0
  6 26  1  0
  8 27  1  0
  8 28  1  0
 10 29  1  0
 11 30  1  0
 12 31  1  0
 14 32  1  0
 14 33  1  0
 16 34  1  0
 16 35  1  0
 17 36  1  0
 17 37  1  0
 19 38  1  0
 19 39  1  0
 20 40  1  0
 20 41  1  0
 21 42  1  0
 22 43  1  0
M  END
>  <smiles>  (11) 
CSc1nc(O)c(Cc2cccc(CN3CCOCC3)c2)[nH]1

>  <score_type>  (11) 
oracle

>  <origin>  (11) 
adg

>  <m_score__min__energy>  (11) 
-8.3900000000000006

>  <m_primary>  (11) 
energy

$$$$
11:0
     RDKit          3D

 60 64  0  0  0  0  0  0  0  0999 V2000
   58.1920   29.7310   49.5830 O   0  0  0  0  0  0  0  0  0  0  0  0
   59.0900   30.0470   48.7570 C   0  0  0  0  0  0  0  0  0  0  0  0
   59.9640   28.9730   48.1570 C   0  0  0  0  0  0  0  0  0  0  0  0
   59.3920   28.4270   46.8720 C   0  0  0  0  0  0  0  0  0  0  0  0
   60.0100   28.7100   45.6440 C   0  0  0  0  0  0  0  0  0  0  0  0
   59.4910   28.1850   44.4600 C   0  0  0  0  0  0  0  0  0  0  0  0
   58.3510   27.3780   44.4880 C   0  0  0  0  0  0  0  0  0  0  0  0
   57.7090   27.0950   45.7050 C   0  0  0  0  0  0  0  0  0  0  0  0
   56.4930   26.2500   45.7180 C   0  0  0  0  0  0  0  0  0  0  0  0
   56.4180   24.8940   45.4540 C   0  0  0  0  0  0  0  0  0  0  0  0
   55.0820   24.5940   45.5900 C   0  0  0  0  0  0  0  0  0  0  0  0
   54.4040   25.7080   45.9250 N   0  0  0  0  0  0  0  0  0  0  0  0
   55.2600   26.7140   46.0060 N   0  0  0  0  0  0  0  0  0  0  0  0
   58.2430   27.6190   46.8970 C   0  0  0  0  0  0  0  0  0  0  0  0
   59.1710   31.4120   48.3230 N   0  0  0  0  0  0  0  0  0  0  0  0
   58.7790   31.8900   47.0310 C   0  0  0  0  0  0  0  0  0  0  0  0
   57.8860   31.1170   46.2780 C   0  0  0  0  0  0  0  0  0  0  0  0
   57.4970   31.5260   45.0020 C   0  0  0  0  0  0  0  0  0  0  0  0
   57.9840   32.7220   44.4720 C   0  0  0  0  0  0  0  0  0  0  0  0
   58.8540   33.5160   45.2220 C   0  0  0  0  0  0  0  0  0  0  0  0
   59.2560   33.1190   46.5110 C   0  0  0  0  0  0  0  0  0  0  0  0
   60.1310   34.0130   47.3040 C   0  0  0  0  0  0  0  0  0  0  0  0
   60.0390   35.2610   47.1620 O   0  0  0  0  0  0  0  0  0  0  0  0
   61.0790   33.4610   48.2320 N   0  0  0  0  0  0  0  0  0  0  0  0
   62.1930   34.2390   48.7840 C   0  0  1  0  0  0  0  0  0  0  0  0
   62.2780   34.0890   50.3180 C   0  0  0  0  0  0  0  0  0  0  0  0
   61.5590   32.8790   50.8540 C   0  0  0  0  0  0  0  0  0  0  0  0
   62.0610   31.5840   50.9710 C   0  0  0  0  0  0  0  0  0  0  0  0
   63.6550   31.0490   50.4630 Cl  0  0  0  0  0  0  0  0  0  0  0  0
   61.1430   30.7600   51.5230 N   0  0  0  0  0  0  0  0  0  0  0  0
   60.0580   31.5200   51.7510 C   0  0  0  0  0  0  0  0  0  0  0  0
   58.8430   31.1140   52.3060 C   0  0  0  0  0  0  0  0  0  0  0  0
   57.8270   32.0770   52.4430 C   0  0  0  0  0  0  0  0  0  0  0  0
   58.0420   33.4070   52.0230 C   0  0  0  0  0  0  0  0  0  0  0  0
   59.2760   33.7880   51.4660 C   0  0  0  0  0  0  0  0  0  0  0  0
   60.2710   32.8150   51.3500 C   0  0  0  0  0  0  0  0  0  0  0  0
   63.4780   33.8550   48.1080 C   0  0  0  0  0  0  0  0  0  0  0  0
   64.4850   33.5180   48.7860 O   0  0  0  0  0  0  0  0  0  0  0  0
   63.5730   33.9050   46.7230 O   0  0  0  0  0  0  0  0  0  0  0  0
   60.9572   29.3984   47.9505 H   0  0  0  0  0  0  0  0  0  0  0  0
   60.0263   28.1450   48.8785 H   0  0  0  0  0  0  0  0  0  0  0  0
   60.9060   29.3475   45.6149 H   0  0  0  0  0  0  0  0  0  0  0  0
   59.9814   28.4074   43.5008 H   0  0  0  0  0  0  0  0  0  0  0  0
   57.9534   26.9614   43.5508 H   0  0  0  0  0  0  0  0  0  0  0  0
   57.2400   24.2107   45.1943 H   0  0  0  0  0  0  0  0  0  0  0  0
   54.6368   23.5983   45.4472 H   0  0  0  0  0  0  0  0  0  0  0  0
   57.7561   27.3938   47.8573 H   0  0  0  0  0  0  0  0  0  0  0  0
   57.4884   30.1804   46.6958 H   0  0  0  0  0  0  0  0  0  0  0  0
   56.8058   30.9053   44.4130 H   0  0  0  0  0  0  0  0  0  0  0  0
   57.6822   33.0392   43.4629 H   0  0  0  0  0  0  0  0  0  0  0  0
   59.2287   34.4608   44.8013 H   0  0  0  0  0  0  0  0  0  0  0  0
   61.0730   32.4280   48.3820 H   0  0  0  0  0  0  0  0  0  0  0  0
   62.0107   35.3048   48.5822 H   0  0  0  0  0  0  0  0  0  0  0  0
   63.3385   34.0149   50.6004 H   0  0  0  0  0  0  0  0  0  0  0  0
   61.7856   34.9714   50.7527 H   0  0  0  0  0  0  0  0  0  0  0  0
   61.2580   29.7440   51.7350 H   0  0  0  0  0  0  0  0  0  0  0  0
   58.6852   30.0735   52.6261 H   0  0  0  0  0  0  0  0  0  0  0  0
   56.8588   31.7916   52.8802 H   0  0  0  0  0  0  0  0  0  0  0  0
   57.2390   34.1508   52.1320 H   0  0  0  0  0  0  0  0  0  0  0  0
   59.4520   34.8211   51.1319 H   0  0  0  0  0  0  0  0  0  0  0  0
  1  2  2  0
  2  3  1  0
  3  4  1  0
  4  5  2  0
  5  6  1  0
  6  7  2  0
  7  8  1  0
  8  9  1  0
  9 10  1  0
 10 11  2  0
 11 12  1  0
 12 13  1  0
  8 14  2  0
  2 15  1  0
 15 16  1  0
 16 17  2  0
 17 18  1  0
 18 19  2  0
 19 20  1  0
 20 21  2  0
 21 22  1  0
 22 23  2  0
 22 24  1  0
 24 25  1  0
 25 26  1  0
 26 27  1  0
 27 28  2  0
 28 29  1  0
 28 30  1  0
 30 31  1  0
 31 32  2  0
 32 33  1  0
 33 34  2  0
 34 35  1  0
 35 36  2  0
 25 37  1  0
 37 38  2  0
 37 39  1  0
 14  4  1  0
 21 16  1  0
 36 27  1  0
 13  9  2  0
 36 31  1  0
  3 40  1  0
  3 41  1  0
  5 42  1  0
  6 43  1  0
  7 44  1  0
 10 45  1  0
 11 46  1  0
 14 47  1  0
 17 48  1  0
 18 49  1  0
 19 50  1  0
 20 51  1  0
 24 52  1  0
 25 53  1  1
 26 54  1  0
 26 55  1  0
 30 56  1  0
 32 57  1  0
 33 58  1  0
 34 59  1  0
 35 60  1  0
M  CHG  3  12  -1  15  -1  39  -1
M  END
>  <UniqueID>  (12) 
11

>  <SMILES>  (12) 
O=C(Cc1cccc(-c2cc[n-]n2)c1)[N-]c1ccccc1C(=O)N[C@@H](Cc1c(Cl)[nH]c2ccccc12)C(=O)[O-]

>  <Energy>  (12) 
133.31651911706217

>  <Genealogy>  (12) 
O=C(Cc1cccc(-c2cc[n-]n2)c1)[N-]c1ccccc1C(=O)NC(Cc1c(Cl)[nH]c2ccccc12)C(=O)[O-] (protonated)
O=C(Cc1cccc(-c2cc[n-]n2)c1)[N-]c1ccccc1C(=O)N[C@@H](Cc1c(Cl)[nH]c2ccccc12)C(=O)[O-] (chirality)
O=C(Cc1cccc(-c2cc[n-]n2)c1)[N-]c1ccccc1C(=O)N[C@@H](Cc1c(Cl)[nH]c2ccccc12)C(=O)[O-] (3D coordinates assigned)
O=C(Cc1cccc(-c2cc[n-]n2)c1)[N-]c1ccccc1C(=O)N[C@@H](Cc1c(Cl)[nH]c2ccccc12)C(=O)[O-] (optimized conformer: 133.31651911706217 kcal/mol)

>  <smiles>  (12) 
O=C(Cc1cccc(-c2cc[nH]n2)c1)Nc1ccccc1C(=O)NC(Cc1c(Cl)[nH]c2ccccc12)C(=O)O

>  <score_type>  (12) 
oracle

>  <origin>  (12) 
adg

>  <m_score__min__energy>  (12) 
-15.9

>  <m_primary>  (12) 
energy

$$$$
12:0
     RDKit          3D

 49 51  0  0  0  0  0  0  0  0999 V2000
   53.5580   23.3210   46.2730 C   0  0  0  0  0  0  0  0  0  0  0  0
   54.6960   24.5570   45.6830 S   0  0  0  0  0  0  0  0  0  0  0  0
   55.1390   24.1770   44.2990 O   0  0  0  0  0  0  0  0  0  0  0  0
   54.0220   25.9000   45.6200 O   0  0  0  0  0  0  0  0  0  0  0  0
   56.0950   24.6720   46.6940 N   0  0  0  0  0  0  0  0  0  0  0  0
   57.0540   25.7360   46.6550 C   0  0  0  0  0  0  0  0  0  0  0  0
   58.1420   25.6880   47.5320 C   0  0  0  0  0  0  0  0  0  0  0  0
   59.0890   26.7140   47.5330 C   0  0  0  0  0  0  0  0  0  0  0  0
   58.9420   27.8120   46.6800 C   0  0  0  0  0  0  0  0  0  0  0  0
   57.8260   27.8930   45.8310 C   0  0  0  0  0  0  0  0  0  0  0  0
   57.5600   29.3190   44.8350 S   0  0  0  0  0  0  0  0  0  0  0  0
   57.5140   28.8970   43.3920 O   0  0  0  0  0  0  0  0  0  0  0  0
   56.2480   29.9710   45.1830 O   0  0  0  0  0  0  0  0  0  0  0  0
   58.8380   30.4630   45.0570 N   0  0  0  0  0  0  0  0  0  0  0  0
   58.5390   31.8460   45.2730 C   0  0  0  0  0  0  0  0  0  0  0  0
   57.3810   32.3930   44.7050 C   0  0  0  0  0  0  0  0  0  0  0  0
   57.0720   33.7400   44.8920 C   0  0  0  0  0  0  0  0  0  0  0  0
   57.9270   34.5530   45.6350 C   0  0  0  0  0  0  0  0  0  0  0  0
   59.0790   34.0180   46.2140 C   0  0  0  0  0  0  0  0  0  0  0  0
   59.3920   32.6600   46.0530 C   0  0  0  0  0  0  0  0  0  0  0  0
   60.6300   32.1240   46.6640 C   0  0  0  0  0  0  0  0  0  0  0  0
   60.9240   30.9040   46.5080 O   0  0  0  0  0  0  0  0  0  0  0  0
   61.4990   32.9640   47.4460 N   0  0  0  0  0  0  0  0  0  0  0  0
   60.9650   33.9890   48.3480 C   0  0  0  0  0  0  0  0  0  0  0  0
   61.7480   33.9540   49.6670 C   0  0  0  0  0  0  0  0  0  0  0  0
   63.1400   34.0440   49.4290 O   0  0  0  0  0  0  0  0  0  0  0  0
   63.5810   32.8990   48.7240 C   0  0  0  0  0  0  0  0  0  0  0  0
   62.9520   32.8490   47.3280 C   0  0  0  0  0  0  0  0  0  0  0  0
   56.9010   26.8440   45.8010 C   0  0  0  0  0  0  0  0  0  0  0  0
   53.5564   23.3193   47.3730 H   0  0  0  0  0  0  0  0  0  0  0  0
   52.5466   23.5484   45.9052 H   0  0  0  0  0  0  0  0  0  0  0  0
   53.8680   22.3317   45.9052 H   0  0  0  0  0  0  0  0  0  0  0  0
   58.2522   24.8394   48.2232 H   0  0  0  0  0  0  0  0  0  0  0  0
   59.9554   26.6582   48.2085 H   0  0  0  0  0  0  0  0  0  0  0  0
   59.6985   28.6105   46.6738 H   0  0  0  0  0  0  0  0  0  0  0  0
   59.7950   30.1980   44.7450 H   0  0  0  0  0  0  0  0  0  0  0  0
   56.7116   31.7562   44.1080 H   0  0  0  0  0  0  0  0  0  0  0  0
   56.1548   34.1606   44.4539 H   0  0  0  0  0  0  0  0  0  0  0  0
   57.6929   35.6199   45.7654 H   0  0  0  0  0  0  0  0  0  0  0  0
   59.7464   34.6661   46.8009 H   0  0  0  0  0  0  0  0  0  0  0  0
   61.0708   34.9802   47.8830 H   0  0  0  0  0  0  0  0  0  0  0  0
   59.9005   33.7925   48.5435 H   0  0  0  0  0  0  0  0  0  0  0  0
   61.4342   34.8009   50.2949 H   0  0  0  0  0  0  0  0  0  0  0  0
   61.5387   33.0013   50.1755 H   0  0  0  0  0  0  0  0  0  0  0  0
   64.6760   32.9345   48.6259 H   0  0  0  0  0  0  0  0  0  0  0  0
   63.2775   32.0008   49.2818 H   0  0  0  0  0  0  0  0  0  0  0  0
   63.3380   33.6815   46.7214 H   0  0  0  0  0  0  0  0  0  0  0  0
   63.2071   31.8948   46.8438 H   0  0  0  0  0  0  0  0  0  0  0  0
   56.0494   26.8854   45.1060 H   0  0  0  0  0  0  0  0  0  0  0  0
  1  2  1  0
  2  3  2  0
  2  4  2  0
  2  5  1  0
  5  6  1  0
  6  7  2  0
  7  8  1  0
  8  9  2  0
  9 10  1  0
 10 11  1  0
 11 12  2  0
 11 13  2  0
 11 14  1  0
 14 15  1  0
 15 16  2  0
 16 17  1  0
 17 18  2  0
 18 19  1  0
 19 20  2  0
 20 21  1  0
 21 22  2  0
 21 23  1  0
 23 24  1  0
 24 25  1  0
 25 26  1  0
 26 27  1  0
 27 28  1  0
 10 29  2  0
 29  6  1  0
 20 15  1  0
 28 23  1  0
  1 30  1  0
  1 31  1  0
  1 32  1  0
  7 33  1  0
  8 34  1  0
  9 35  1  0
 14 36  1  0
 16 37  1  0
 17 38  1  0
 18 39  1  0
 19 40  1  0
 24 41  1  0
 24 42  1  0
 25 43  1  0
 25 44  1  0
 27 45  1  0
 27 46  1  0
 28 47  1  0
 28 48  1  0
 29 49  1  0
M  CHG  1   5  -1
M  END
>  <UniqueID>  (13) 
12

>  <SMILES>  (13) 
CS(=O)(=O)[N-]c1cccc(S(=O)(=O)Nc2ccccc2C(=O)N2CCOCC2)c1

>  <Energy>  (13) 
66.43341824728284

>  <Genealogy>  (13) 
CS(=O)(=O)[N-]c1cccc(S(=O)(=O)Nc2ccccc2C(=O)N2CCOCC2)c1 (protonated)
CS(=O)(=O)[N-]c1cccc(S(=O)(=O)Nc2ccccc2C(=O)N2CCOCC2)c1 (3D coordinates assigned)
CS(=O)(=O)[N-]c1cccc(S(=O)(=O)Nc2ccccc2C(=O)N2CCOCC2)c1 (nonaromatic ring conformer: 66.43341824728284 kcal/mol)

>  <smiles>  (13) 
CS(=O)(=O)Nc1cccc(S(=O)(=O)Nc2ccccc2C(=O)N2CCOCC2)c1

>  <score_type>  (13) 
oracle

>  <origin>  (13) 
adg

>  <m_score__min__energy>  (13) 
-11.41

>  <m_primary>  (13) 
energy

$$$$
13:0
     RDKit          3D

 40 42  0  0  0  0  0  0  0  0999 V2000
   53.1530   21.7120   45.2510 H   0  0  0  0  0  0  0  0  0  0  0  0
   53.1060   22.7240   45.2580 O   0  0  0  0  0  0  0  0  0  0  0  0
   54.2570   23.4950   45.3980 C   0  0  0  0  0  0  0  0  0  0  0  0
   54.1920   24.8170   45.7010 N   0  0  0  0  0  0  0  0  0  0  0  0
   55.4280   25.3570   45.7830 C   0  0  0  0  0  0  0  0  0  0  0  0
   55.6620   26.6090   46.0310 N   0  0  0  0  0  0  0  0  0  0  0  0
   56.9910   27.1870   46.2380 C   0  0  0  0  0  0  0  0  0  0  0  0
   57.6343   26.4352   46.7186 H   0  0  0  0  0  0  0  0  0  0  0  0
   56.8787   28.0786   46.8724 H   0  0  0  0  0  0  0  0  0  0  0  0
   57.6410   27.6240   44.9160 C   0  0  0  0  0  0  0  0  0  0  0  0
   57.1865   27.0587   44.0891 H   0  0  0  0  0  0  0  0  0  0  0  0
   58.7209   27.4236   44.9769 H   0  0  0  0  0  0  0  0  0  0  0  0
   57.4490   29.0570   44.6770 N   0  0  0  0  0  0  0  0  0  0  0  0
   58.4000   29.9970   44.5680 C   0  0  0  0  0  0  0  0  0  0  0  0
   59.7680   29.7440   44.5610 O   0  0  0  0  0  0  0  0  0  0  0  0
   57.8020   31.2350   44.4920 C   0  0  0  0  0  0  0  0  0  0  0  0
   58.5050   32.5570   44.4770 C   0  0  0  0  0  0  0  0  0  0  0  0
   57.8388   33.3192   44.0466 H   0  0  0  0  0  0  0  0  0  0  0  0
   59.4180   32.4742   43.8691 H   0  0  0  0  0  0  0  0  0  0  0  0
   58.8790   32.9560   45.8800 C   0  0  0  0  0  0  0  0  0  0  0  0
   58.5390   32.1360   46.9670 C   0  0  0  0  0  0  0  0  0  0  0  0
   58.0407   31.1715   46.7896 H   0  0  0  0  0  0  0  0  0  0  0  0
   58.8300   32.5380   48.2740 C   0  0  0  0  0  0  0  0  0  0  0  0
   58.5671   31.8849   49.1192 H   0  0  0  0  0  0  0  0  0  0  0  0
   59.4580   33.7750   48.5130 C   0  0  0  0  0  0  0  0  0  0  0  0
   59.7560   34.2300   49.8050 O   0  0  0  0  0  0  0  0  0  0  0  0
   59.6670   33.4290   50.9790 C   0  0  0  0  0  0  0  0  0  0  0  0
   59.7385   34.0725   51.8682 H   0  0  0  0  0  0  0  0  0  0  0  0
   58.7042   32.8970   50.9878 H   0  0  0  0  0  0  0  0  0  0  0  0
   60.4895   32.6987   50.9878 H   0  0  0  0  0  0  0  0  0  0  0  0
   59.7940   34.5910   47.4260 C   0  0  0  0  0  0  0  0  0  0  0  0
   60.2907   35.5565   47.6023 H   0  0  0  0  0  0  0  0  0  0  0  0
   59.5040   34.1900   46.1190 C   0  0  0  0  0  0  0  0  0  0  0  0
   59.7665   34.8439   45.2743 H   0  0  0  0  0  0  0  0  0  0  0  0
   56.4620   31.0890   44.5680 N   0  0  0  0  0  0  0  0  0  0  0  0
   56.2920   29.7520   44.6740 C   0  0  0  0  0  0  0  0  0  0  0  0
   55.1580   29.2150   44.7810 O   0  0  0  0  0  0  0  0  0  0  0  0
   56.6350   24.2280   45.4910 S   0  0  0  0  0  0  0  0  0  0  0  0
   55.5400   22.9760   45.2400 C   0  0  0  0  0  0  0  0  0  0  0  0
   55.7920   21.9337   44.9949 H   0  0  0  0  0  0  0  0  0  0  0  0
  1  2  1  0
  2  3  1  0
  3  4  1  0
  4  5  1  0
  5  6  2  0
  6  7  1  0
  7  8  1  0
  7  9  1  0
  7 10  1  0
 10 11  1  0
 10 12  1  0
 10 13  1  0
 13 14  1  0
 14 15  1  0
 14 16  2  0
 16 17  1  0
 17 18  1  0
 17 19  1  0
 17 20  1  0
 20 21  2  0
 21 22  1  0
 21 23  1  0
 23 24  1  0
 23 25  2  0
 25 26  1  0
 26 27  1  0
 27 28  1  0
 27 29  1  0
 27 30  1  0
 25 31  1  0
 31 32  1  0
 31 33  2  0
 33 34  1  0
 16 35  1  0
 35 36  1  0
 36 37  2  0
  5 38  1  0
 38 39  1  0
 39 40  1  0
 39  3  2  0
 36 13  1  0
 33 20  1  0
M  CHG  3   4  -1  15  -1  35  -1
M  END
>  <UniqueID>  (14) 
13

>  <SMILES>  (14) 
COc1ccc(Cc2[n-]c(=O)n(CC/N=c3\[n-]c(O)cs3)c2[O-])cc1

>  <Energy>  (14) 
95.67357527666273

>  <Genealogy>  (14) 
COc1ccc(Cc2[n-]c(=O)n(CCN=c3[n-]c(O)cs3)c2[O-])cc1 (protonated)
COc1ccc(Cc2[n-]c(=O)n(CC/N=c3\[n-]c(O)cs3)c2[O-])cc1 (cis-trans isomerization)
COc1ccc(Cc2[n-]c(=O)n(CC/N=c3\[n-]c(O)cs3)c2[O-])cc1 (3D coordinates assigned)
COc1ccc(Cc2[n-]c(=O)n(CC/N=c3\[n-]c(O)cs3)c2[O-])cc1 (optimized conformer: 95.67357527666273 kcal/mol)

>  <smiles>  (14) 
COc1ccc(Cc2[nH]c(=O)n(CCN=c3[nH]c(O)cs3)c2O)cc1

>  <score_type>  (14) 
oracle

>  <origin>  (14) 
adg

>  <m_score__min__energy>  (14) 
-13.710000000000001

>  <m_primary>  (14) 
energy

$$$$
14:0
     RDKit          3D

 33 35  0  0  0  0  0  0  0  0999 V2000
   59.6510   35.1340   46.4260 C   0  0  0  0  0  0  0  0  0  0  0  0
   60.6030   33.6260   46.7850 S   0  0  0  0  0  0  0  0  0  0  0  0
   59.3560   32.5260   46.0930 C   0  0  0  0  0  0  0  0  0  0  0  0
   58.3770   33.0810   45.2610 C   0  0  0  0  0  0  0  0  0  0  0  0
   57.3700   32.2850   44.7180 C   0  0  0  0  0  0  0  0  0  0  0  0
   57.3250   30.9130   45.0050 C   0  0  0  0  0  0  0  0  0  0  0  0
   56.3190   30.0770   44.4950 C   0  0  0  0  0  0  0  0  0  0  0  0
   55.4130   30.5330   43.7460 O   0  0  0  0  0  0  0  0  0  0  0  0
   56.3150   28.7570   44.8120 N   0  0  0  0  0  0  0  0  0  0  0  0
   57.2650   28.2110   45.6180 C   0  0  0  0  0  0  0  0  0  0  0  0
   57.2270   26.7560   45.9390 C   0  0  0  0  0  0  0  0  0  0  0  0
   58.4360   26.0410   46.0640 C   0  0  0  0  0  0  0  0  0  0  0  0
   58.4320   24.6780   46.3700 C   0  0  0  0  0  0  0  0  0  0  0  0
   57.2240   24.0050   46.5540 C   0  0  0  0  0  0  0  0  0  0  0  0
   56.0170   24.6940   46.4320 C   0  0  0  0  0  0  0  0  0  0  0  0
   56.0080   26.0590   46.1240 C   0  0  0  0  0  0  0  0  0  0  0  0
   54.7800   26.7010   46.0000 O   0  0  0  0  0  0  0  0  0  0  0  0
   58.2500   29.0080   46.1140 N   0  0  0  0  0  0  0  0  0  0  0  0
   58.3130   30.3380   45.8340 C   0  0  0  0  0  0  0  0  0  0  0  0
   59.3510   31.1380   46.3650 C   0  0  0  0  0  0  0  0  0  0  0  0
   60.4050   30.5310   47.2620 C   0  0  0  0  0  0  0  0  0  0  0  0
   59.3499   35.6110   47.3703 H   0  0  0  0  0  0  0  0  0  0  0  0
   60.2732   35.8309   45.8453 H   0  0  0  0  0  0  0  0  0  0  0  0
   58.7543   34.8720   45.8453 H   0  0  0  0  0  0  0  0  0  0  0  0
   58.4026   34.1569   45.0332 H   0  0  0  0  0  0  0  0  0  0  0  0
   56.6089   32.7339   44.0629 H   0  0  0  0  0  0  0  0  0  0  0  0
   59.3935   26.5627   45.9188 H   0  0  0  0  0  0  0  0  0  0  0  0
   59.3834   24.1343   46.4661 H   0  0  0  0  0  0  0  0  0  0  0  0
   57.2231   22.9318   46.7951 H   0  0  0  0  0  0  0  0  0  0  0  0
   55.0662   24.1607   46.5789 H   0  0  0  0  0  0  0  0  0  0  0  0
   60.1273   30.6909   48.3143 H   0  0  0  0  0  0  0  0  0  0  0  0
   60.4792   29.4518   47.0623 H   0  0  0  0  0  0  0  0  0  0  0  0
   61.3757   31.0084   47.0623 H   0  0  0  0  0  0  0  0  0  0  0  0
  1  2  1  0
  2  3  1  0
  3  4  2  0
  4  5  1  0
  5  6  2  0
  6  7  1  0
  7  8  2  0
  7  9  1  0
  9 10  2  0
 10 11  1  0
 11 12  2  0
 12 13  1  0
 13 14  2  0
 14 15  1  0
 15 16  2  0
 16 17  1  0
 10 18  1  0
 18 19  1  0
 19 20  2  0
 20 21  1  0
 20  3  1  0
 19  6  1  0
 16 11  1  0
  1 22  1  0
  1 23  1  0
  1 24  1  0
  4 25  1  0
  5 26  1  0
 12 27  1  0
 13 28  1  0
 14 29  1  0
 15 30  1  0
 21 31  1  0
 21 32  1  0
 21 33  1  0
M  CHG  2  17  -1  18  -1
M  END
>  <UniqueID>  (15) 
14

>  <SMILES>  (15) 
CSc1ccc2c(=O)nc(-c3ccccc3[O-])[n-]c2c1C

>  <Energy>  (15) 
41.50215274121712

>  <Genealogy>  (15) 
CSc1ccc2c(=O)nc(-c3ccccc3[O-])[n-]c2c1C (protonated)
CSc1ccc2c(=O)nc(-c3ccccc3[O-])[n-]c2c1C (3D coordinates assigned)
CSc1ccc2c(=O)nc(-c3ccccc3[O-])[n-]c2c1C (optimized conformer: 41.50215274121712 kcal/mol)

>  <smiles>  (15) 
CSc1ccc2c(=O)nc(-c3ccccc3O)[nH]c2c1C

>  <score_type>  (15) 
oracle

>  <origin>  (15) 
adg

>  <m_score__min__energy>  (15) 
-13.27

>  <m_primary>  (15) 
energy

$$$$
15:0
     RDKit          3D

 41 42  0  0  0  0  0  0  0  0999 V2000
   56.5720   30.4090   42.2520 C   0  0  0  0  0  0  0  0  0  0  0  0
   57.2330   31.1160   43.4070 C   0  0  0  0  0  0  0  0  0  0  0  0
   57.9710   32.2820   43.1440 C   0  0  0  0  0  0  0  0  0  0  0  0
   58.5700   32.9980   44.1800 C   0  0  0  0  0  0  0  0  0  0  0  0
   58.4390   32.5640   45.5010 C   0  0  0  0  0  0  0  0  0  0  0  0
   59.2200   33.4640   46.8000 S   0  0  0  0  0  0  0  0  0  0  0  0
   58.5050   33.2180   48.1000 O   0  0  0  0  0  0  0  0  0  0  0  0
   59.1480   34.9330   46.4920 O   0  0  0  0  0  0  0  0  0  0  0  0
   60.8850   32.9910   46.9470 N   0  0  0  0  0  0  0  0  0  0  0  0
   61.0430   32.0770   48.0780 C   0  0  0  0  0  0  0  0  0  0  0  0
   60.5830   30.7010   47.6830 C   0  0  0  0  0  0  0  0  0  0  0  0
   60.8030   30.2260   46.3790 C   0  0  0  0  0  0  0  0  0  0  0  0
   60.4050   28.9330   46.0250 C   0  0  0  0  0  0  0  0  0  0  0  0
   59.7960   28.1030   46.9710 C   0  0  0  0  0  0  0  0  0  0  0  0
   59.5890   28.5640   48.2740 C   0  0  0  0  0  0  0  0  0  0  0  0
   59.9860   29.8560   48.6330 C   0  0  0  0  0  0  0  0  0  0  0  0
   57.7260   31.3920   45.7780 C   0  0  0  0  0  0  0  0  0  0  0  0
   57.1300   30.6450   44.7450 C   0  0  0  0  0  0  0  0  0  0  0  0
   56.4240   29.3900   45.1040 C   0  0  0  0  0  0  0  0  0  0  0  0
   55.1880   29.2800   44.8660 O   0  0  0  0  0  0  0  0  0  0  0  0
   57.1170   28.3220   45.7580 N   0  0  0  0  0  0  0  0  0  0  0  0
   57.0400   26.9290   45.3360 C   0  0  0  0  0  0  0  0  0  0  0  0
   56.0020   26.2040   46.1320 C   0  0  0  0  0  0  0  0  0  0  0  0
   54.7810   26.3460   45.8610 O   0  0  0  0  0  0  0  0  0  0  0  0
   56.3820   25.3950   47.1940 O   0  0  0  0  0  0  0  0  0  0  0  0
   55.8683   29.6563   42.6371 H   0  0  0  0  0  0  0  0  0  0  0  0
   56.0265   31.1407   41.6379 H   0  0  0  0  0  0  0  0  0  0  0  0
   57.3387   29.9139   41.6379 H   0  0  0  0  0  0  0  0  0  0  0  0
   58.0778   32.6348   42.1076 H   0  0  0  0  0  0  0  0  0  0  0  0
   59.1473   33.9072   43.9561 H   0  0  0  0  0  0  0  0  0  0  0  0
   61.1300   32.4730   46.0710 H   0  0  0  0  0  0  0  0  0  0  0  0
   62.1022   32.0384   48.3722 H   0  0  0  0  0  0  0  0  0  0  0  0
   60.4384   32.4352   48.9242 H   0  0  0  0  0  0  0  0  0  0  0  0
   61.2897   30.8731   45.6345 H   0  0  0  0  0  0  0  0  0  0  0  0
   60.5713   28.5684   45.0006 H   0  0  0  0  0  0  0  0  0  0  0  0
   59.4799   27.0876   46.6899 H   0  0  0  0  0  0  0  0  0  0  0  0
   59.1128   27.9093   49.0187 H   0  0  0  0  0  0  0  0  0  0  0  0
   59.8303   30.2115   49.6623 H   0  0  0  0  0  0  0  0  0  0  0  0
   57.6300   31.0496   46.8189 H   0  0  0  0  0  0  0  0  0  0  0  0
   56.7748   26.8868   44.2693 H   0  0  0  0  0  0  0  0  0  0  0  0
   58.0167   26.4502   45.4998 H   0  0  0  0  0  0  0  0  0  0  0  0
  1  2  1  0
  2  3  2  0
  3  4  1  0
  4  5  2  0
  5  6  1  0
  6  7  2  0
  6  8  2  0
  6  9  1  0
  9 10  1  0
 10 11  1  0
 11 12  2  0
 12 13  1  0
 13 14  2  0
 14 15  1  0
 15 16  2  0
  5 17  1  0
 17 18  2  0
 18 19  1  0
 19 20  2  0
 19 21  1  0
 21 22  1  0
 22 23  1  0
 23 24  2  0
 23 25  1  0
 18  2  1  0
 16 11  1  0
  1 26  1  0
  1 27  1  0
  1 28  1  0
  3 29  1  0
  4 30  1  0
  9 31  1  0
 10 32  1  0
 10 33  1  0
 12 34  1  0
 13 35  1  0
 14 36  1  0
 15 37  1  0
 16 38  1  0
 17 39  1  0
 22 40  1  0
 22 41  1  0
M  CHG  2  21  -1  25  -1
M  END
>  <UniqueID>  (16) 
15

>  <SMILES>  (16) 
Cc1ccc(S(=O)(=O)NCc2ccccc2)cc1C(=O)[N-]CC(=O)[O-]

>  <Energy>  (16) 
39.91846706555807

>  <Genealogy>  (16) 
Cc1ccc(S(=O)(=O)NCc2ccccc2)cc1C(=O)[N-]CC(=O)[O-] (protonated)
Cc1ccc(S(=O)(=O)NCc2ccccc2)cc1C(=O)[N-]CC(=O)[O-] (3D coordinates assigned)
Cc1ccc(S(=O)(=O)NCc2ccccc2)cc1C(=O)[N-]CC(=O)[O-] (optimized conformer: 39.91846706555807 kcal/mol)

>  <smiles>  (16) 
Cc1ccc(S(=O)(=O)NCc2ccccc2)cc1C(=O)NCC(=O)O

>  <score_type>  (16) 
oracle

>  <origin>  (16) 
adg

>  <m_score__min__energy>  (16) 
-13.43

>  <m_primary>  (16) 
energy

$$$$
16:0
     RDKit          3D

 38 39  0  0  0  0  0  0  0  0999 V2000
   60.7940   29.2740   49.6100 C   0  0  0  0  0  0  0  0  0  0  0  0
   59.9690   29.1630   48.3630 C   0  0  0  0  0  0  0  0  0  0  0  0
   60.2620   28.2040   47.3860 C   0  0  0  0  0  0  0  0  0  0  0  0
   59.4980   28.1360   46.2190 C   0  0  0  0  0  0  0  0  0  0  0  0
   58.4250   29.0340   46.0370 C   0  0  0  0  0  0  0  0  0  0  0  0
   57.6660   29.0330   44.9770 N   0  0  0  0  0  0  0  0  0  0  0  0
   56.4910   29.8130   44.7010 C   0  0  0  0  0  0  0  0  0  0  0  0
   55.3350   29.3330   44.8540 O   0  0  0  0  0  0  0  0  0  0  0  0
   56.6450   31.2360   44.2700 C   0  0  0  0  0  0  0  0  0  0  0  0
   57.8570   31.8020   44.8560 N   0  0  0  0  0  0  0  0  0  0  0  0
   58.0340   33.2130   45.0430 C   0  0  0  0  0  0  0  0  0  0  0  0
   57.2380   34.0330   44.5110 O   0  0  0  0  0  0  0  0  0  0  0  0
   59.1810   33.7190   45.8620 C   0  0  0  0  0  0  0  0  0  0  0  0
   59.8510   32.6340   46.5030 O   0  0  0  0  0  0  0  0  0  0  0  0
   61.0100   32.7440   47.2880 C   0  0  0  0  0  0  0  0  0  0  0  0
   61.2000   33.7790   48.2270 C   0  0  0  0  0  0  0  0  0  0  0  0
   62.3880   33.8520   48.9620 C   0  0  0  0  0  0  0  0  0  0  0  0
   63.3910   32.8970   48.7730 C   0  0  0  0  0  0  0  0  0  0  0  0
   65.0230   33.0090   49.7580 Br  0  0  0  0  0  0  0  0  0  0  0  0
   63.2020   31.8600   47.8550 C   0  0  0  0  0  0  0  0  0  0  0  0
   62.0170   31.7870   47.1170 C   0  0  0  0  0  0  0  0  0  0  0  0
   58.1880   29.9740   46.9920 N   0  0  0  0  0  0  0  0  0  0  0  0
   58.9230   30.0620   48.1310 C   0  0  0  0  0  0  0  0  0  0  0  0
   60.1409   29.1861   50.4908 H   0  0  0  0  0  0  0  0  0  0  0  0
   61.5429   28.4685   49.6271 H   0  0  0  0  0  0  0  0  0  0  0  0
   61.3034   30.2488   49.6271 H   0  0  0  0  0  0  0  0  0  0  0  0
   61.0957   27.5027   47.5379 H   0  0  0  0  0  0  0  0  0  0  0  0
   59.7311   27.3877   45.4472 H   0  0  0  0  0  0  0  0  0  0  0  0
   56.7149   31.2798   43.1731 H   0  0  0  0  0  0  0  0  0  0  0  0
   55.7732   31.8146   44.6093 H   0  0  0  0  0  0  0  0  0  0  0  0
   58.5850   31.1470   45.2210 H   0  0  0  0  0  0  0  0  0  0  0  0
   59.8897   34.2463   45.2065 H   0  0  0  0  0  0  0  0  0  0  0  0
   58.7956   34.4048   46.6308 H   0  0  0  0  0  0  0  0  0  0  0  0
   60.4120   34.5308   48.3818 H   0  0  0  0  0  0  0  0  0  0  0  0
   62.5332   34.6631   49.6907 H   0  0  0  0  0  0  0  0  0  0  0  0
   63.9858   31.1013   47.7133 H   0  0  0  0  0  0  0  0  0  0  0  0
   61.8746   30.9695   46.3949 H   0  0  0  0  0  0  0  0  0  0  0  0
   58.6950   30.8420   48.8724 H   0  0  0  0  0  0  0  0  0  0  0  0
  1  2  1  0
  2  3  1  0
  3  4  2  0
  4  5  1  0
  5  6  2  3
  6  7  1  0
  7  8  2  0
  7  9  1  0
  9 10  1  0
 10 11  1  0
 11 12  2  0
 11 13  1  0
 13 14  1  0
 14 15  1  0
 15 16  2  0
 16 17  1  0
 17 18  2  0
 18 19  1  0
 18 20  1  0
 20 21  2  0
  5 22  1  0
 22 23  1  0
 23  2  2  0
 21 15  1  0
  1 24  1  0
  1 25  1  0
  1 26  1  0
  3 27  1  0
  4 28  1  0
  9 29  1  0
  9 30  1  0
 10 31  1  0
 13 32  1  0
 13 33  1  0
 16 34  1  0
 17 35  1  0
 20 36  1  0
 21 37  1  0
 23 38  1  0
M  CHG  1  22  -1
M  END
>  <UniqueID>  (17) 
16

>  <SMILES>  (17) 
Cc1ccc(=NC(=O)CNC(=O)COc2ccc(Br)cc2)[n-]c1

>  <Energy>  (17) 
36.213143314513374

>  <Genealogy>  (17) 
Cc1ccc(=NC(=O)CNC(=O)COc2ccc(Br)cc2)[n-]c1 (protonated)
Cc1ccc(=NC(=O)CNC(=O)COc2ccc(Br)cc2)[n-]c1 (3D coordinates assigned)
Cc1ccc(=NC(=O)CNC(=O)COc2ccc(Br)cc2)[n-]c1 (optimized conformer: 36.213143314513374 kcal/mol)

>  <smiles>  (17) 
Cc1ccc(=NC(=O)CNC(=O)COc2ccc(Br)cc2)[nH]c1

>  <score_type>  (17) 
oracle

>  <origin>  (17) 
adg

>  <m_score__min__energy>  (17) 
-9.6500000000000004

>  <m_primary>  (17) 
energy

$$$$
17:0
     RDKit          3D

 54 58  0  0  0  0  0  0  0  0999 V2000
   56.0400   29.4710   45.1870 O   0  0  0  0  0  0  0  0  0  0  0  0
   57.1210   30.1040   45.0280 C   0  0  0  0  0  0  0  0  0  0  0  0
   57.1480   31.2210   44.0160 C   0  0  0  0  0  0  0  0  0  0  0  0
   57.5570   32.5060   44.6650 C   0  0  0  0  0  0  0  0  0  0  0  0
   58.4280   33.4350   44.1460 C   0  0  0  0  0  0  0  0  0  0  0  0
   58.4970   34.4810   44.9870 N   0  0  0  0  0  0  0  0  0  0  0  0
   57.6560   34.1540   45.9910 C   0  0  0  0  0  0  0  0  0  0  0  0
   57.0550   32.9560   45.8270 N   0  0  0  0  0  0  0  0  0  0  0  0
   58.2930   29.7180   45.7880 N   0  0  0  0  0  0  0  0  0  0  0  0
   59.6480   30.0970   45.3490 C   0  0  0  0  0  0  0  0  0  0  0  0
   60.3440   30.9540   46.3700 C   0  0  0  0  0  0  0  0  0  0  0  0
   61.4530   30.5860   47.1340 C   0  0  0  0  0  0  0  0  0  0  0  0
   61.7740   31.7110   47.8600 C   0  0  0  0  0  0  0  0  0  0  0  0
   62.8320   31.9520   48.7340 C   0  0  0  0  0  0  0  0  0  0  0  0
   62.9330   33.2350   49.3010 C   0  0  0  0  0  0  0  0  0  0  0  0
   61.9870   34.2350   48.9840 C   0  0  0  0  0  0  0  0  0  0  0  0
   60.9330   33.9600   48.0920 C   0  0  0  0  0  0  0  0  0  0  0  0
   60.8600   32.6810   47.5450 C   0  0  0  0  0  0  0  0  0  0  0  0
   59.9760   32.2300   46.6400 N   0  0  0  0  0  0  0  0  0  0  0  0
   58.1450   28.8910   46.9990 C   0  0  0  0  0  0  0  0  0  0  0  0
   58.3970   27.4380   46.6830 C   0  0  0  0  0  0  0  0  0  0  0  0
   57.3600   26.6440   46.1610 C   0  0  0  0  0  0  0  0  0  0  0  0
   57.6010   25.3200   45.7470 C   0  0  0  0  0  0  0  0  0  0  0  0
   56.5080   24.4950   45.1620 C   0  0  0  0  0  0  0  0  0  0  0  0
   55.1880   24.6080   45.6330 C   0  0  0  0  0  0  0  0  0  0  0  0
   54.1760   23.8350   45.0610 C   0  0  0  0  0  0  0  0  0  0  0  0
   54.4650   22.9700   44.0540 N   0  0  0  0  0  0  0  0  0  0  0  0
   55.7300   22.8290   43.5780 C   0  0  0  0  0  0  0  0  0  0  0  0
   55.9600   22.0130   42.6470 O   0  0  0  0  0  0  0  0  0  0  0  0
   56.7730   23.5840   44.1230 C   0  0  0  0  0  0  0  0  0  0  0  0
   58.8990   24.7960   45.8780 C   0  0  0  0  0  0  0  0  0  0  0  0
   59.9280   25.5710   46.4170 C   0  0  0  0  0  0  0  0  0  0  0  0
   59.6840   26.8870   46.8170 C   0  0  0  0  0  0  0  0  0  0  0  0
   60.7310   27.6440   47.3330 O   0  0  0  0  0  0  0  0  0  0  0  0
   57.8665   30.9721   43.2211 H   0  0  0  0  0  0  0  0  0  0  0  0
   56.1402   31.3415   43.5919 H   0  0  0  0  0  0  0  0  0  0  0  0
   58.9779   33.3379   43.1983 H   0  0  0  0  0  0  0  0  0  0  0  0
   57.4771   34.8027   46.8612 H   0  0  0  0  0  0  0  0  0  0  0  0
   60.2391   29.1834   45.1878 H   0  0  0  0  0  0  0  0  0  0  0  0
   59.5574   30.6771   44.4188 H   0  0  0  0  0  0  0  0  0  0  0  0
   61.9599   29.6099   47.1520 H   0  0  0  0  0  0  0  0  0  0  0  0
   63.5633   31.1656   48.9724 H   0  0  0  0  0  0  0  0  0  0  0  0
   63.7547   33.4615   49.9964 H   0  0  0  0  0  0  0  0  0  0  0  0
   62.0743   35.2338   49.4365 H   0  0  0  0  0  0  0  0  0  0  0  0
   60.1910   34.7304   47.8353 H   0  0  0  0  0  0  0  0  0  0  0  0
   59.1910   32.7650   46.2070 H   0  0  0  0  0  0  0  0  0  0  0  0
   58.8681   29.2269   47.7569 H   0  0  0  0  0  0  0  0  0  0  0  0
   57.1183   28.9986   47.3789 H   0  0  0  0  0  0  0  0  0  0  0  0
   56.3467   27.0632   46.0750 H   0  0  0  0  0  0  0  0  0  0  0  0
   54.9530   25.3047   46.4512 H   0  0  0  0  0  0  0  0  0  0  0  0
   53.1425   23.9264   45.4264 H   0  0  0  0  0  0  0  0  0  0  0  0
   57.7976   23.4661   43.7406 H   0  0  0  0  0  0  0  0  0  0  0  0
   59.1060   23.7657   45.5528 H   0  0  0  0  0  0  0  0  0  0  0  0
   60.9354   25.1432   46.5271 H   0  0  0  0  0  0  0  0  0  0  0  0
  1  2  2  0
  2  3  1  0
  3  4  1  0
  4  5  2  0
  5  6  1  0
  6  7  1  0
  7  8  2  0
  2  9  1  0
  9 10  1  0
 10 11  1  0
 11 12  2  0
 12 13  1  0
 13 14  2  0
 14 15  1  0
 15 16  2  0
 16 17  1  0
 17 18  2  0
 18 19  1  0
  9 20  1  0
 20 21  1  0
 21 22  2  0
 22 23  1  0
 23 24  1  0
 24 25  1  0
 25 26  2  0
 26 27  1  0
 27 28  1  0
 28 29  2  0
 28 30  1  0
 23 31  2  0
 31 32  1  0
 32 33  2  0
 33 34  1  0
  8  4  1  0
 19 11  1  0
 33 21  1  0
 18 13  1  0
 30 24  2  0
  3 35  1  0
  3 36  1  0
  5 37  1  0
  7 38  1  0
 10 39  1  0
 10 40  1  0
 12 41  1  0
 14 42  1  0
 15 43  1  0
 16 44  1  0
 17 45  1  0
 19 46  1  0
 20 47  1  0
 20 48  1  0
 22 49  1  0
 25 50  1  0
 26 51  1  0
 30 52  1  0
 31 53  1  0
 32 54  1  0
M  CHG  3   6  -1  27  -1  34  -1
M  END
>  <UniqueID>  (18) 
17

>  <SMILES>  (18) 
O=C(Cc1c[n-]cn1)N(Cc1cc2ccccc2[nH]1)Cc1cc(-c2cc[n-]c(=O)c2)ccc1[O-]

>  <Energy>  (18) 
119.96628415302008

>  <Genealogy>  (18) 
O=C(Cc1c[n-]cn1)N(Cc1cc2ccccc2[nH]1)Cc1cc(-c2cc[n-]c(=O)c2)ccc1[O-] (protonated)
O=C(Cc1c[n-]cn1)N(Cc1cc2ccccc2[nH]1)Cc1cc(-c2cc[n-]c(=O)c2)ccc1[O-] (3D coordinates assigned)
O=C(Cc1c[n-]cn1)N(Cc1cc2ccccc2[nH]1)Cc1cc(-c2cc[n-]c(=O)c2)ccc1[O-] (optimized conformer: 119.96628415302008 kcal/mol)

>  <smiles>  (18) 
O=C(Cc1c[nH]cn1)N(Cc1cc2ccccc2[nH]1)Cc1cc(-c2cc[nH]c(=O)c2)ccc1O

>  <score_type>  (18) 
oracle

>  <origin>  (18) 
adg

>  <m_score__min__energy>  (18) 
-12.890000000000001

>  <m_primary>  (18) 
energy

$$$$
18:0
     RDKit          3D

 53 55  0  0  0  0  0  0  0  0999 V2000
   60.9350   28.5770   44.8580 C   0  0  0  0  0  0  0  0  0  0  0  0
   59.7750   29.3260   45.5060 C   0  0  0  0  0  0  0  0  0  0  0  0
   58.5130   28.5990   45.2960 N   0  0  0  0  0  0  0  0  0  0  0  0
   57.6480   28.9490   44.1660 C   0  0  0  0  0  0  0  0  0  0  0  0
   56.4650   29.7210   44.6580 C   0  0  0  0  0  0  0  0  0  0  0  0
   55.5150   29.1170   45.2250 O   0  0  0  0  0  0  0  0  0  0  0  0
   56.4380   31.1440   44.4910 N   0  0  0  0  0  0  0  0  0  0  0  0
   57.3430   32.0910   45.0790 C   0  0  0  0  0  0  0  0  0  0  0  0
   57.4480   33.3660   44.5020 C   0  0  0  0  0  0  0  0  0  0  0  0
   58.2880   34.3300   45.0660 C   0  0  0  0  0  0  0  0  0  0  0  0
   59.0190   34.0320   46.2210 C   0  0  0  0  0  0  0  0  0  0  0  0
   58.9120   32.7690   46.8200 C   0  0  0  0  0  0  0  0  0  0  0  0
   59.8290   32.3990   48.2830 S   0  0  0  0  0  0  0  0  0  0  0  0
   59.8520   30.9100   48.4900 O   0  0  0  0  0  0  0  0  0  0  0  0
   59.1430   33.0200   49.4650 O   0  0  0  0  0  0  0  0  0  0  0  0
   61.4700   32.9880   48.1870 N   0  0  0  0  0  0  0  0  0  0  0  0
   62.3720   32.1340   48.9740 C   0  0  0  0  0  0  0  0  0  0  0  0
   63.8320   32.6070   48.8130 C   0  0  0  0  0  0  0  0  0  0  0  0
   63.9190   33.7630   48.0010 O   0  0  0  0  0  0  0  0  0  0  0  0
   63.3950   33.4830   46.7150 C   0  0  0  0  0  0  0  0  0  0  0  0
   61.9200   33.0370   46.7870 C   0  0  0  0  0  0  0  0  0  0  0  0
   58.0640   31.8040   46.2540 C   0  0  0  0  0  0  0  0  0  0  0  0
   58.1120   27.5530   46.2010 C   0  0  0  0  0  0  0  0  0  0  0  0
   58.5690   27.5450   47.3760 O   0  0  0  0  0  0  0  0  0  0  0  0
   57.1820   26.4810   45.7810 C   0  0  0  0  0  0  0  0  0  0  0  0
   57.5630   25.5300   44.8200 C   0  0  0  0  0  0  0  0  0  0  0  0
   56.6810   24.5090   44.4570 C   0  0  0  0  0  0  0  0  0  0  0  0
   55.4200   24.4480   45.0610 C   0  0  0  0  0  0  0  0  0  0  0  0
   54.6100   23.5370   44.7430 O   0  0  0  0  0  0  0  0  0  0  0  0
   55.0650   25.3730   45.9950 N   0  0  0  0  0  0  0  0  0  0  0  0
   55.9100   26.3710   46.3700 C   0  0  0  0  0  0  0  0  0  0  0  0
   61.5840   28.1580   45.6411 H   0  0  0  0  0  0  0  0  0  0  0  0
   60.5416   27.7619   44.2328 H   0  0  0  0  0  0  0  0  0  0  0  0
   61.5160   29.2710   44.2328 H   0  0  0  0  0  0  0  0  0  0  0  0
   59.9631   29.4211   46.5856 H   0  0  0  0  0  0  0  0  0  0  0  0
   59.6931   30.3223   45.0471 H   0  0  0  0  0  0  0  0  0  0  0  0
   58.2131   29.5629   43.4492 H   0  0  0  0  0  0  0  0  0  0  0  0
   57.3031   28.0287   43.6720 H   0  0  0  0  0  0  0  0  0  0  0  0
   56.8658   33.6080   43.6006 H   0  0  0  0  0  0  0  0  0  0  0  0
   58.3744   35.3234   44.6016 H   0  0  0  0  0  0  0  0  0  0  0  0
   59.6809   34.7923   46.6613 H   0  0  0  0  0  0  0  0  0  0  0  0
   62.0881   32.1872   50.0354 H   0  0  0  0  0  0  0  0  0  0  0  0
   62.2894   31.0980   48.6137 H   0  0  0  0  0  0  0  0  0  0  0  0
   64.2443   32.8369   49.8066 H   0  0  0  0  0  0  0  0  0  0  0  0
   64.4028   31.8018   48.3273 H   0  0  0  0  0  0  0  0  0  0  0  0
   63.4638   34.3900   46.0964 H   0  0  0  0  0  0  0  0  0  0  0  0
   63.9813   32.6623   46.2760 H   0  0  0  0  0  0  0  0  0  0  0  0
   61.2968   33.7523   46.2302 H   0  0  0  0  0  0  0  0  0  0  0  0
   61.8272   32.0337   46.3456 H   0  0  0  0  0  0  0  0  0  0  0  0
   57.9622   30.8181   46.7311 H   0  0  0  0  0  0  0  0  0  0  0  0
   58.5570   25.5892   44.3526 H   0  0  0  0  0  0  0  0  0  0  0  0
   56.9744   23.7617   43.7051 H   0  0  0  0  0  0  0  0  0  0  0  0
   55.5969   27.0947   47.1370 H   0  0  0  0  0  0  0  0  0  0  0  0
  1  2  1  0
  2  3  1  0
  3  4  1  0
  4  5  1  0
  5  6  2  0
  5  7  1  0
  7  8  1  0
  8  9  2  0
  9 10  1  0
 10 11  2  0
 11 12  1  0
 12 13  1  0
 13 14  2  0
 13 15  2  0
 13 16  1  0
 16 17  1  0
 17 18  1  0
 18 19  1  0
 19 20  1  0
 20 21  1  0
 12 22  2  0
  3 23  1  0
 23 24  2  0
 23 25  1  0
 25 26  1  0
 26 27  2  0
 27 28  1  0
 28 29  2  0
 28 30  1  0
 30 31  1  0
 22  8  1  0
 31 25  2  0
 21 16  1  0
  1 32  1  0
  1 33  1  0
  1 34  1  0
  2 35  1  0
  2 36  1  0
  4 37  1  0
  4 38  1  0
  9 39  1  0
 10 40  1  0
 11 41  1  0
 17 42  1  0
 17 43  1  0
 18 44  1  0
 18 45  1  0
 20 46  1  0
 20 47  1  0
 21 48  1  0
 21 49  1  0
 22 50  1  0
 26 51  1  0
 27 52  1  0
 31 53  1  0
M  CHG  2   7  -1  30  -1
M  END
>  <UniqueID>  (19) 
18

>  <SMILES>  (19) 
CCN(CC(=O)[N-]c1cccc(S(=O)(=O)N2CCOCC2)c1)C(=O)c1ccc(=O)[n-]c1

>  <Energy>  (19) 
64.34561250103916

>  <Genealogy>  (19) 
CCN(CC(=O)[N-]c1cccc(S(=O)(=O)N2CCOCC2)c1)C(=O)c1ccc(=O)[n-]c1 (protonated)
CCN(CC(=O)[N-]c1cccc(S(=O)(=O)N2CCOCC2)c1)C(=O)c1ccc(=O)[n-]c1 (3D coordinates assigned)
CCN(CC(=O)[N-]c1cccc(S(=O)(=O)N2CCOCC2)c1)C(=O)c1ccc(=O)[n-]c1 (nonaromatic ring conformer: 64.34561250103916 kcal/mol)

>  <smiles>  (19) 
CCN(CC(=O)Nc1cccc(S(=O)(=O)N2CCOCC2)c1)C(=O)c1ccc(=O)[nH]c1

>  <score_type>  (19) 
oracle

>  <origin>  (19) 
adg

>  <m_score__min__energy>  (19) 
-13.5

>  <m_primary>  (19) 
energy

$$$$
19:0
     RDKit          3D

 34 36  0  0  0  0  0  0  0  0999 V2000
   57.7300   32.5110   50.5260 O   0  0  0  0  0  0  0  0  0  0  0  0
   57.3300   31.3650   50.8610 C   0  0  0  0  0  0  0  0  0  0  0  0
   56.1690   31.2570   51.6910 N   0  0  0  0  0  0  0  0  0  0  0  0
   55.8830   30.1750   52.5850 C   0  0  0  0  0  0  0  0  0  0  0  0
   56.9820   28.9920   53.0670 S   0  0  0  0  0  0  0  0  0  0  0  0
   55.8770   28.0610   53.9230 C   0  0  0  0  0  0  0  0  0  0  0  0
   54.6260   28.6550   53.8220 C   0  0  0  0  0  0  0  0  0  0  0  0
   54.6140   29.8380   53.0600 C   0  0  0  0  0  0  0  0  0  0  0  0
   53.3820   30.6180   52.8060 C   0  0  0  0  0  0  0  0  0  0  0  0
   52.7030   31.1930   53.8330 N   0  0  0  0  0  0  0  0  0  0  0  0
   51.5700   31.9090   53.6160 C   0  0  0  0  0  0  0  0  0  0  0  0
   50.9660   32.4290   54.5910 O   0  0  0  0  0  0  0  0  0  0  0  0
   51.0800   32.0630   52.3170 C   0  0  0  0  0  0  0  0  0  0  0  0
   49.9190   32.7970   52.0960 O   0  0  0  0  0  0  0  0  0  0  0  0
   51.7860   31.4640   51.2580 C   0  0  0  0  0  0  0  0  0  0  0  0
   51.3460   31.5710   49.8520 C   0  0  0  0  0  0  0  0  0  0  0  0
   51.2680   30.5350   49.1400 O   0  0  0  0  0  0  0  0  0  0  0  0
   51.0160   32.7990   49.2910 O   0  0  0  0  0  0  0  0  0  0  0  0
   52.9160   30.7580   51.5360 N   0  0  0  0  0  0  0  0  0  0  0  0
   58.0510   30.1930   50.4410 N   0  0  0  0  0  0  0  0  0  0  0  0
   59.1720   30.2390   49.5480 C   0  0  0  0  0  0  0  0  0  0  0  0
   60.2050   31.1580   49.7920 C   0  0  0  0  0  0  0  0  0  0  0  0
   61.3010   31.2340   48.9280 C   0  0  0  0  0  0  0  0  0  0  0  0
   61.3660   30.4070   47.8040 C   0  0  0  0  0  0  0  0  0  0  0  0
   60.3290   29.5090   47.5360 C   0  0  0  0  0  0  0  0  0  0  0  0
   59.2290   29.4270   48.3990 C   0  0  0  0  0  0  0  0  0  0  0  0
   58.2040   28.5960   48.0850 F   0  0  0  0  0  0  0  0  0  0  0  0
   56.1060   27.1356   54.4718 H   0  0  0  0  0  0  0  0  0  0  0  0
   53.7248   28.2381   54.2953 H   0  0  0  0  0  0  0  0  0  0  0  0
   57.6960   29.2520   50.7200 H   0  0  0  0  0  0  0  0  0  0  0  0
   60.1515   31.8216   50.6676 H   0  0  0  0  0  0  0  0  0  0  0  0
   62.1138   31.9462   49.1334 H   0  0  0  0  0  0  0  0  0  0  0  0
   62.2334   30.4625   47.1298 H   0  0  0  0  0  0  0  0  0  0  0  0
   60.3769   28.8653   46.6453 H   0  0  0  0  0  0  0  0  0  0  0  0
  1  2  2  0
  2  3  1  0
  3  4  1  0
  4  5  1  0
  5  6  1  0
  6  7  2  0
  7  8  1  0
  8  9  1  0
  9 10  2  0
 10 11  1  0
 11 12  2  0
 11 13  1  0
 13 14  1  0
 13 15  2  0
 15 16  1  0
 16 17  2  0
 16 18  1  0
 15 19  1  0
  2 20  1  0
 20 21  1  0
 21 22  2  0
 22 23  1  0
 23 24  2  0
 24 25  1  0
 25 26  2  0
 26 27  1  0
  8  4  2  0
 19  9  1  0
 26 21  1  0
  6 28  1  0
  7 29  1  0
 20 30  1  0
 22 31  1  0
 23 32  1  0
 24 33  1  0
 25 34  1  0
M  CHG  4   3  -1  14  -1  18  -1  19  -1
M  END
>  <UniqueID>  (20) 
19

>  <SMILES>  (20) 
O=C([N-]c1sccc1-c1nc(=O)c([O-])c(C(=O)[O-])[n-]1)Nc1ccccc1F

>  <Energy>  (20) 
75.62881154842883

>  <Genealogy>  (20) 
O=C([N-]c1sccc1-c1nc(=O)c([O-])c(C(=O)[O-])[n-]1)Nc1ccccc1F (protonated)
O=C([N-]c1sccc1-c1nc(=O)c([O-])c(C(=O)[O-])[n-]1)Nc1ccccc1F (3D coordinates assigned)
O=C([N-]c1sccc1-c1nc(=O)c([O-])c(C(=O)[O-])[n-]1)Nc1ccccc1F (optimized conformer: 75.62881154842883 kcal/mol)

>  <smiles>  (20) 
O=C(Nc1ccccc1F)Nc1sccc1-c1nc(=O)c(O)c(C(=O)O)[nH]1

>  <score_type>  (20) 
oracle

>  <origin>  (20) 
adg

>  <m_score__min__energy>  (20) 
-16.949999999999999

>  <m_primary>  (20) 
energy

$$$$
20:0
     RDKit          3D

 45 48  0  0  0  0  0  0  0  0999 V2000
   57.0140   34.4420   45.2750 N   0  0  0  0  0  0  0  0  0  0  0  0
   57.9150   34.0250   46.1270 C   0  0  0  0  0  0  0  0  0  0  0  0
   57.5230   33.4780   47.3000 N   0  0  0  0  0  0  0  0  0  0  0  0
   58.4790   33.0650   48.1400 C   0  0  0  0  0  0  0  0  0  0  0  0
   58.1230   32.5310   49.2830 N   0  0  0  0  0  0  0  0  0  0  0  0
   59.8300   33.1660   47.8760 C   0  0  0  0  0  0  0  0  0  0  0  0
   60.7840   32.7180   48.7890 C   0  0  0  0  0  0  0  0  0  0  0  0
   60.3030   32.1720   49.9610 O   0  0  0  0  0  0  0  0  0  0  0  0
   60.6910   30.9960   50.5800 C   0  0  0  0  0  0  0  0  0  0  0  0
   60.5670   29.8440   49.6870 C   0  0  0  0  0  0  0  0  0  0  0  0
   61.2240   28.7830   49.7510 O   0  0  0  0  0  0  0  0  0  0  0  0
   59.5940   29.9270   48.6260 N   0  0  0  0  0  0  0  0  0  0  0  0
   59.4350   28.7990   47.7070 C   0  0  0  0  0  0  0  0  0  0  0  0
   58.8090   29.3310   46.4540 C   0  0  0  0  0  0  0  0  0  0  0  0
   57.8490   28.6720   45.7050 C   0  0  0  0  0  0  0  0  0  0  0  0
   57.5510   29.5080   44.6490 C   0  0  0  0  0  0  0  0  0  0  0  0
   56.6850   29.4320   43.5610 C   0  0  0  0  0  0  0  0  0  0  0  0
   56.6070   30.4660   42.6380 C   0  0  0  0  0  0  0  0  0  0  0  0
   57.3780   31.6000   42.7590 C   0  0  0  0  0  0  0  0  0  0  0  0
   58.2440   31.6840   43.8390 C   0  0  0  0  0  0  0  0  0  0  0  0
   58.3120   30.6550   44.7470 C   0  0  0  0  0  0  0  0  0  0  0  0
   59.0610   30.5090   45.8550 N   0  0  0  0  0  0  0  0  0  0  0  0
   62.1180   32.8440   48.4740 C   0  0  0  0  0  0  0  0  0  0  0  0
   62.4920   33.4020   47.2790 C   0  0  0  0  0  0  0  0  0  0  0  0
   61.5400   33.8510   46.3640 C   0  0  0  0  0  0  0  0  0  0  0  0
   60.2000   33.7300   46.6700 C   0  0  0  0  0  0  0  0  0  0  0  0
   59.2290   34.1480   45.8180 N   0  0  0  0  0  0  0  0  0  0  0  0
   56.2080   34.9810   45.6590 H   0  0  0  0  0  0  0  0  0  0  0  0
   56.5140   33.4090   47.4830 H   0  0  0  0  0  0  0  0  0  0  0  0
   58.7330   31.7980   49.7220 H   0  0  0  0  0  0  0  0  0  0  0  0
   61.7404   31.0898   50.8962 H   0  0  0  0  0  0  0  0  0  0  0  0
   60.0303   30.8309   51.4439 H   0  0  0  0  0  0  0  0  0  0  0  0
   59.0140   30.8040   48.5310 H   0  0  0  0  0  0  0  0  0  0  0  0
   60.4164   28.3574   47.4795 H   0  0  0  0  0  0  0  0  0  0  0  0
   58.8052   28.0166   48.1555 H   0  0  0  0  0  0  0  0  0  0  0  0
   57.4128   27.6833   45.9102 H   0  0  0  0  0  0  0  0  0  0  0  0
   56.0541   28.5403   43.4312 H   0  0  0  0  0  0  0  0  0  0  0  0
   55.9125   30.3770   41.7896 H   0  0  0  0  0  0  0  0  0  0  0  0
   57.3094   32.4139   42.0222 H   0  0  0  0  0  0  0  0  0  0  0  0
   58.8765   32.5746   43.9687 H   0  0  0  0  0  0  0  0  0  0  0  0
   59.7420   31.2210   46.1920 H   0  0  0  0  0  0  0  0  0  0  0  0
   62.8848   32.4965   49.1820 H   0  0  0  0  0  0  0  0  0  0  0  0
   63.5610   33.4972   47.0377 H   0  0  0  0  0  0  0  0  0  0  0  0
   61.8540   34.2968   45.4087 H   0  0  0  0  0  0  0  0  0  0  0  0
   59.5570   34.5640   44.9240 H   0  0  0  0  0  0  0  0  0  0  0  0
  1  2  2  3
  2  3  1  0
  3  4  1  0
  4  5  2  3
  4  6  1  0
  6  7  2  0
  7  8  1  0
  8  9  1  0
  9 10  1  0
 10 11  2  0
 10 12  1  0
 12 13  1  0
 13 14  1  0
 14 15  2  0
 15 16  1  0
 16 17  2  0
 17 18  1  0
 18 19  2  0
 19 20  1  0
 20 21  2  0
 21 22  1  0
  7 23  1  0
 23 24  2  0
 24 25  1  0
 25 26  2  0
 26 27  1  0
 27  2  1  0
 26  6  1  0
 22 14  1  0
 21 16  1  0
  1 28  1  0
  3 29  1  0
  5 30  1  0
  9 31  1  0
  9 32  1  0
 12 33  1  0
 13 34  1  0
 13 35  1  0
 15 36  1  0
 17 37  1  0
 18 38  1  0
 19 39  1  0
 20 40  1  0
 22 41  1  0
 23 42  1  0
 24 43  1  0
 25 44  1  0
 27 45  1  0
M  END
>  <smiles>  (21) 
N=c1[nH]c(=N)c2c(OCC(=O)NCc3cc4ccccc4[nH]3)cccc2[nH]1

>  <score_type>  (21) 
oracle

>  <origin>  (21) 
adg

>  <m_score__min__energy>  (21) 
-8.4499999999999993

>  <m_primary>  (21) 
energy

$$$$
21:0
     RDKit          3D

 58 61  0  0  0  0  0  0  0  0999 V2000
   55.1560   29.1900   44.8270 N   0  0  0  0  0  0  0  0  0  0  0  0
   56.4760   29.7150   44.9390 C   0  0  0  0  0  0  0  0  0  0  0  0
   56.7120   30.9030   44.5880 O   0  0  0  0  0  0  0  0  0  0  0  0
   57.5740   28.8700   45.5060 C   0  0  0  0  0  0  0  0  0  0  0  0
   58.8360   29.6930   45.8050 C   0  0  0  0  0  0  0  0  0  0  0  0
   58.8900   30.1310   47.2080 N   0  0  0  0  0  0  0  0  0  0  0  0
   58.9670   31.4010   47.6810 C   0  0  0  0  0  0  0  0  0  0  0  0
   59.0640   32.6210   46.8570 C   0  0  0  0  0  0  0  0  0  0  0  0
   60.2350   33.3940   46.8580 C   0  0  0  0  0  0  0  0  0  0  0  0
   60.3110   34.5570   46.0840 C   0  0  0  0  0  0  0  0  0  0  0  0
   59.2160   34.9590   45.3130 C   0  0  0  0  0  0  0  0  0  0  0  0
   59.2930   36.1120   44.5430 O   0  0  0  0  0  0  0  0  0  0  0  0
   58.0400   34.2010   45.3210 C   0  0  0  0  0  0  0  0  0  0  0  0
   57.9610   33.0400   46.0960 C   0  0  0  0  0  0  0  0  0  0  0  0
   58.8550   31.4090   49.0630 C   0  0  0  0  0  0  0  0  0  0  0  0
   58.6790   30.0940   49.4450 C   0  0  0  0  0  0  0  0  0  0  0  0
   58.5480   29.6090   50.8280 C   0  0  0  0  0  0  0  0  0  0  0  0
   59.5520   29.1030   51.3940 O   0  0  0  0  0  0  0  0  0  0  0  0
   57.3200   29.7120   51.5570 N   0  0  0  0  0  0  0  0  0  0  0  0
   56.7270   30.9730   51.9870 C   0  0  0  0  0  0  0  0  0  0  0  0
   57.7910   31.8770   52.5220 C   0  0  0  0  0  0  0  0  0  0  0  0
   58.7580   32.4050   51.7450 N   0  0  0  0  0  0  0  0  0  0  0  0
   59.5220   33.0880   52.6150 C   0  0  0  0  0  0  0  0  0  0  0  0
   60.7740   33.8180   52.2410 C   0  0  0  0  0  0  0  0  0  0  0  0
   61.9390   32.8370   52.0730 C   0  0  0  0  0  0  0  0  0  0  0  0
   62.3980   32.8000   50.6400 C   0  0  0  0  0  0  0  0  0  0  0  0
   62.9560   33.9410   50.0440 C   0  0  0  0  0  0  0  0  0  0  0  0
   63.4050   33.8980   48.7200 C   0  0  0  0  0  0  0  0  0  0  0  0
   63.3100   32.7090   47.9830 C   0  0  0  0  0  0  0  0  0  0  0  0
   63.7510   32.6530   46.6640 O   0  0  0  0  0  0  0  0  0  0  0  0
   62.7670   31.5650   48.5770 C   0  0  0  0  0  0  0  0  0  0  0  0
   62.3180   31.6070   49.9010 C   0  0  0  0  0  0  0  0  0  0  0  0
   59.0240   32.9360   53.8880 C   0  0  0  0  0  0  0  0  0  0  0  0
   57.9270   32.1620   53.8360 N   0  0  0  0  0  0  0  0  0  0  0  0
   58.7100   29.3420   48.2880 C   0  0  0  0  0  0  0  0  0  0  0  0
   58.5870   27.9570   48.2310 O   0  0  0  0  0  0  0  0  0  0  0  0
   54.4510   29.3480   45.5790 H   0  0  0  0  0  0  0  0  0  0  0  0
   57.2211   28.4087   46.4401 H   0  0  0  0  0  0  0  0  0  0  0  0
   57.8353   28.1057   44.7593 H   0  0  0  0  0  0  0  0  0  0  0  0
   59.7211   29.0757   45.5916 H   0  0  0  0  0  0  0  0  0  0  0  0
   58.8138   30.5909   45.1699 H   0  0  0  0  0  0  0  0  0  0  0  0
   61.0958   33.0847   47.4691 H   0  0  0  0  0  0  0  0  0  0  0  0
   61.2336   35.1560   46.0820 H   0  0  0  0  0  0  0  0  0  0  0  0
   57.1771   34.5187   44.7172 H   0  0  0  0  0  0  0  0  0  0  0  0
   57.0311   32.4526   46.1096 H   0  0  0  0  0  0  0  0  0  0  0  0
   58.8978   32.2877   49.7233 H   0  0  0  0  0  0  0  0  0  0  0  0
   56.2345   31.4559   51.1301 H   0  0  0  0  0  0  0  0  0  0  0  0
   55.9873   30.7757   52.7769 H   0  0  0  0  0  0  0  0  0  0  0  0
   60.6117   34.3526   51.2934 H   0  0  0  0  0  0  0  0  0  0  0  0
   61.0223   34.5305   53.0414 H   0  0  0  0  0  0  0  0  0  0  0  0
   62.7753   33.1561   52.7124 H   0  0  0  0  0  0  0  0  0  0  0  0
   61.6004   31.8314   52.3630 H   0  0  0  0  0  0  0  0  0  0  0  0
   63.0408   34.8739   50.6207 H   0  0  0  0  0  0  0  0  0  0  0  0
   63.8334   34.7987   48.2561 H   0  0  0  0  0  0  0  0  0  0  0  0
   64.6700   32.2920   46.4280 H   0  0  0  0  0  0  0  0  0  0  0  0
   62.6929   30.6304   48.0017 H   0  0  0  0  0  0  0  0  0  0  0  0
   61.9002   30.7020   50.3662 H   0  0  0  0  0  0  0  0  0  0  0  0
   59.4537   33.3763   54.7999 H   0  0  0  0  0  0  0  0  0  0  0  0
  1  2  1  0
  2  3  2  0
  2  4  1  0
  4  5  1  0
  5  6  1  0
  6  7  1  0
  7  8  1  0
  8  9  2  0
  9 10  1  0
 10 11  2  0
 11 12  1  0
 11 13  1  0
 13 14  2  0
  7 15  2  0
 15 16  1  0
 16 17  1  0
 17 18  2  0
 17 19  1  0
 19 20  1  0
 20 21  1  0
 21 22  2  0
 22 23  1  0
 23 24  1  0
 24 25  1  0
 25 26  1  0
 26 27  2  0
 27 28  1  0
 28 29  2  0
 29 30  1  0
 29 31  1  0
 31 32  2  0
 23 33  2  0
 33 34  1  0
 16 35  2  0
 35 36  1  0
 35  6  1  0
 14  8  1  0
 34 21  1  0
 32 26  1  0
  1 37  1  0
  4 38  1  0
  4 39  1  0
  5 40  1  0
  5 41  1  0
  9 42  1  0
 10 43  1  0
 13 44  1  0
 14 45  1  0
 15 46  1  0
 20 47  1  0
 20 48  1  0
 24 49  1  0
 24 50  1  0
 25 51  1  0
 25 52  1  0
 27 53  1  0
 28 54  1  0
 30 55  1  0
 31 56  1  0
 32 57  1  0
 33 58  1  0
M  CHG  5   1  -1  12  -1  19  -1  34  -1  36  -1
M  END
>  <UniqueID>  (22) 
20

>  <SMILES>  (22) 
[NH-]C(=O)CCn1c(-c2ccc([O-])cc2)cc(C(=O)[N-]Cc2nc(CCc3ccc(O)cc3)c[n-]2)c1[O-]

>  <Energy>  (22) 
118.70473477645947

>  <Genealogy>  (22) 
[NH-]C(=O)CCn1c(-c2ccc([O-])cc2)cc(C(=O)[N-]Cc2nc(CCc3ccc(O)cc3)c[n-]2)c1[O-] (protonated)
[NH-]C(=O)CCn1c(-c2ccc([O-])cc2)cc(C(=O)[N-]Cc2nc(CCc3ccc(O)cc3)c[n-]2)c1[O-] (3D coordinates assigned)
[NH-]C(=O)CCn1c(-c2ccc([O-])cc2)cc(C(=O)[N-]Cc2nc(CCc3ccc(O)cc3)c[n-]2)c1[O-] (optimized conformer: 118.70473477645947 kcal/mol)

>  <smiles>  (22) 
NC(=O)CCn1c(-c2ccc(O)cc2)cc(C(=O)NCc2nc(CCc3ccc(O)cc3)c[nH]2)c1O

>  <score_type>  (22) 
oracle

>  <origin>  (22) 
adg

>  <m_score__min__energy>  (22) 
-15.07

>  <m_primary>  (22) 
energy

$$$$
22:0
     RDKit          3D

 28 29  0  0  0  0  0  0  0  0999 V2000
   58.3800   31.2000   43.5380 O   0  0  0  0  0  0  0  0  0  0  0  0
   57.6380   31.2430   44.5560 C   0  0  0  0  0  0  0  0  0  0  0  0
   56.9340   32.5200   44.9010 C   0  0  0  0  0  0  0  0  0  0  0  0
   57.8500   33.4080   45.6820 C   0  0  0  0  0  0  0  0  0  0  0  0
   58.0920   33.3280   47.0480 C   0  0  0  0  0  0  0  0  0  0  0  0
   59.0800   34.2170   47.4850 C   0  0  0  0  0  0  0  0  0  0  0  0
   59.6260   34.9890   46.4660 C   0  0  0  0  0  0  0  0  0  0  0  0
   58.8830   34.5580   45.0200 S   0  0  0  0  0  0  0  0  0  0  0  0
   57.4840   30.0940   45.4020 N   0  0  0  0  0  0  0  0  0  0  0  0
   58.3600   28.9580   45.3720 C   0  0  0  0  0  0  0  0  0  0  0  0
   59.1930   28.8090   44.4360 O   0  0  0  0  0  0  0  0  0  0  0  0
   58.3350   27.9700   46.4970 C   0  0  0  0  0  0  0  0  0  0  0  0
   57.1880   27.0250   46.3100 C   0  0  0  0  0  0  0  0  0  0  0  0
   57.1570   25.7730   46.7990 N   0  0  0  0  0  0  0  0  0  0  0  0
   55.9200   25.3410   46.4700 C   0  0  0  0  0  0  0  0  0  0  0  0
   55.5070   24.1880   46.7560 O   0  0  0  0  0  0  0  0  0  0  0  0
   55.1600   26.2440   45.8150 N   0  0  0  0  0  0  0  0  0  0  0  0
   55.9750   27.3080   45.7270 C   0  0  0  0  0  0  0  0  0  0  0  0
   55.6190   28.5140   45.1340 O   0  0  0  0  0  0  0  0  0  0  0  0
   56.6307   33.0315   43.9756 H   0  0  0  0  0  0  0  0  0  0  0  0
   56.0446   32.2924   45.5069 H   0  0  0  0  0  0  0  0  0  0  0  0
   57.5607   32.6359   47.7178 H   0  0  0  0  0  0  0  0  0  0  0  0
   59.3951   34.2975   48.5358 H   0  0  0  0  0  0  0  0  0  0  0  0
   60.4099   35.7514   46.5850 H   0  0  0  0  0  0  0  0  0  0  0  0
   56.7600   30.1350   46.1540 H   0  0  0  0  0  0  0  0  0  0  0  0
   59.2779   27.4037   46.5080 H   0  0  0  0  0  0  0  0  0  0  0  0
   58.2159   28.5051   47.4507 H   0  0  0  0  0  0  0  0  0  0  0  0
   54.7670   28.5890   44.5910 H   0  0  0  0  0  0  0  0  0  0  0  0
  1  2  2  0
  2  3  1  0
  3  4  1  0
  4  5  2  0
  5  6  1  0
  6  7  2  0
  7  8  1  0
  2  9  1  0
  9 10  1  0
 10 11  2  0
 10 12  1  0
 12 13  1  0
 13 14  1  0
 14 15  1  0
 15 16  2  0
 15 17  1  0
 17 18  1  0
 18 19  1  0
  8  4  1  0
 18 13  2  0
  3 20  1  0
  3 21  1  0
  5 22  1  0
  6 23  1  0
  7 24  1  0
  9 25  1  0
 12 26  1  0
 12 27  1  0
 19 28  1  0
M  CHG  2  14  -1  17  -1
M  END
>  <UniqueID>  (23) 
21

>  <SMILES>  (23) 
O=C(Cc1cccs1)NC(=O)Cc1[n-]c(=O)[n-]c1O

>  <Energy>  (23) 
76.07640308172228

>  <Genealogy>  (23) 
O=C(Cc1cccs1)NC(=O)Cc1[n-]c(=O)[n-]c1O (protonated)
O=C(Cc1cccs1)NC(=O)Cc1[n-]c(=O)[n-]c1O (3D coordinates assigned)
O=C(Cc1cccs1)NC(=O)Cc1[n-]c(=O)[n-]c1O (optimized conformer: 76.07640308172228 kcal/mol)

>  <smiles>  (23) 
O=C(Cc1cccs1)NC(=O)Cc1[nH]c(=O)[nH]c1O

>  <score_type>  (23) 
oracle

>  <origin>  (23) 
adg

>  <m_score__min__energy>  (23) 
-11.65

>  <m_primary>  (23) 
energy

$$$$
23:0
     RDKit          3D

 51 52  0  0  0  0  0  0  0  0999 V2000
   56.8618   29.3432   42.3176 H   0  0  0  0  0  0  0  0  0  0  0  0
   56.9990   29.1570   43.3930 C   0  0  0  0  0  0  0  0  0  0  0  0
   56.1500   29.9280   44.3270 C   0  0  0  0  0  0  0  0  0  0  0  0
   55.1950   29.3380   44.8990 O   0  0  0  0  0  0  0  0  0  0  0  0
   56.3270   31.3430   44.4900 N   0  0  0  0  0  0  0  0  0  0  0  0
   57.4100   32.0260   45.1360 C   0  0  0  0  0  0  0  0  0  0  0  0
   57.7400   33.3610   44.8550 C   0  0  0  0  0  0  0  0  0  0  0  0
   57.1642   33.9242   44.1058 H   0  0  0  0  0  0  0  0  0  0  0  0
   58.7980   33.9730   45.5260 C   0  0  0  0  0  0  0  0  0  0  0  0
   59.1000   35.2670   45.2550 F   0  0  0  0  0  0  0  0  0  0  0  0
   59.5080   33.2550   46.5010 C   0  0  0  0  0  0  0  0  0  0  0  0
   60.5820   33.8810   47.2260 N   0  0  0  0  0  0  0  0  0  0  0  0
   61.9650   33.7090   46.7640 C   0  0  0  0  0  0  0  0  0  0  0  0
   62.5370   34.6186   46.9994 H   0  0  0  0  0  0  0  0  0  0  0  0
   61.9484   33.5292   45.6789 H   0  0  0  0  0  0  0  0  0  0  0  0
   62.6350   32.5080   47.4430 C   0  0  0  0  0  0  0  0  0  0  0  0
   63.1351   32.8431   48.3636 H   0  0  0  0  0  0  0  0  0  0  0  0
   63.3723   32.0705   46.7538 H   0  0  0  0  0  0  0  0  0  0  0  0
   61.6660   31.5280   47.7670 O   0  0  0  0  0  0  0  0  0  0  0  0
   61.9810   30.9090   48.9950 C   0  0  0  0  0  0  0  0  0  0  0  0
   61.6535   31.5527   49.8247 H   0  0  0  0  0  0  0  0  0  0  0  0
   61.4671   29.9385   49.0589 H   0  0  0  0  0  0  0  0  0  0  0  0
   63.0680   30.7532   49.0589 H   0  0  0  0  0  0  0  0  0  0  0  0
   60.3050   34.5650   48.4960 C   0  0  0  0  0  0  0  0  0  0  0  0
   61.1197   35.2725   48.7100 H   0  0  0  0  0  0  0  0  0  0  0  0
   59.3478   35.0997   48.4077 H   0  0  0  0  0  0  0  0  0  0  0  0
   60.2010   33.5580   49.6420 C   0  0  0  0  0  0  0  0  0  0  0  0
   61.1871   33.1050   49.8217 H   0  0  0  0  0  0  0  0  0  0  0  0
   59.8613   34.0744   50.5519 H   0  0  0  0  0  0  0  0  0  0  0  0
   59.2740   32.5470   49.3030 O   0  0  0  0  0  0  0  0  0  0  0  0
   58.5700   32.1500   50.4570 C   0  0  0  0  0  0  0  0  0  0  0  0
   59.1267   32.4639   51.3523 H   0  0  0  0  0  0  0  0  0  0  0  0
   57.5756   32.6204   50.4599 H   0  0  0  0  0  0  0  0  0  0  0  0
   58.4580   31.0557   50.4599 H   0  0  0  0  0  0  0  0  0  0  0  0
   59.1520   31.9680   46.7790 N   0  0  0  0  0  0  0  0  0  0  0  0
   59.6830   31.4260   47.4980 H   0  0  0  0  0  0  0  0  0  0  0  0
   58.1290   31.3510   46.1270 C   0  0  0  0  0  0  0  0  0  0  0  0
   57.8660   30.3137   46.3816 H   0  0  0  0  0  0  0  0  0  0  0  0
   57.9220   28.2500   43.7460 C   0  0  0  0  0  0  0  0  0  0  0  0
   58.0868   27.4026   43.0642 H   0  0  0  0  0  0  0  0  0  0  0  0
   58.7340   28.3000   44.9780 C   0  0  0  0  0  0  0  0  0  0  0  0
   59.9930   28.9250   44.9910 C   0  0  0  0  0  0  0  0  0  0  0  0
   60.3928   29.3710   44.0684 H   0  0  0  0  0  0  0  0  0  0  0  0
   60.7390   28.9820   46.1720 C   0  0  0  0  0  0  0  0  0  0  0  0
   61.7300   29.4594   46.1743 H   0  0  0  0  0  0  0  0  0  0  0  0
   60.2250   28.4320   47.3500 C   0  0  0  0  0  0  0  0  0  0  0  0
   60.8158   28.4681   48.2772 H   0  0  0  0  0  0  0  0  0  0  0  0
   58.9600   27.8360   47.3500 C   0  0  0  0  0  0  0  0  0  0  0  0
   58.5522   27.4130   48.2799 H   0  0  0  0  0  0  0  0  0  0  0  0
   58.2130   27.7770   46.1700 C   0  0  0  0  0  0  0  0  0  0  0  0
   57.2130   27.3187   46.1766 H   0  0  0  0  0  0  0  0  0  0  0  0
  1  2  1  0
  2  3  1  0
  3  4  2  0
  3  5  1  0
  5  6  1  0
  6  7  2  0
  7  8  1  0
  7  9  1  0
  9 10  1  0
  9 11  2  0
 11 12  1  0
 12 13  1  0
 13 14  1  0
 13 15  1  0
 13 16  1  0
 16 17  1  0
 16 18  1  0
 16 19  1  0
 19 20  1  0
 20 21  1  0
 20 22  1  0
 20 23  1  0
 12 24  1  0
 24 25  1  0
 24 26  1  0
 24 27  1  0
 27 28  1  0
 27 29  1  0
 27 30  1  0
 30 31  1  0
 31 32  1  0
 31 33  1  0
 31 34  1  0
 11 35  1  0
 35 36  1  0
 35 37  2  0
 37 38  1  0
  2 39  2  0
 39 40  1  0
 39 41  1  0
 41 42  2  0
 42 43  1  0
 42 44  1  0
 44 45  1  0
 44 46  2  0
 46 47  1  0
 46 48  1  0
 48 49  1  0
 48 50  2  0
 50 51  1  0
 37  6  1  0
 50 41  1  0
M  CHG  2   5  -1  35   1
M  END
>  <UniqueID>  (24) 
22

>  <SMILES>  (24) 
COCCN(CCOC)c1[nH+]cc([N-]C(=O)/C=C\c2ccccc2)cc1F

>  <Energy>  (24) 
62.86569231368082

>  <Genealogy>  (24) 
COCCN(CCOC)c1[nH+]cc([N-]C(=O)C=Cc2ccccc2)cc1F (protonated)
COCCN(CCOC)c1[nH+]cc([N-]C(=O)/C=C\c2ccccc2)cc1F (cis-trans isomerization)
COCCN(CCOC)c1[nH+]cc([N-]C(=O)/C=C\c2ccccc2)cc1F (3D coordinates assigned)
COCCN(CCOC)c1[nH+]cc([N-]C(=O)/C=C\c2ccccc2)cc1F (optimized conformer: 62.86569231368082 kcal/mol)

>  <smiles>  (24) 
COCCN(CCOC)c1ncc(NC(=O)C=Cc2ccccc2)cc1F

>  <score_type>  (24) 
oracle

>  <origin>  (24) 
adg

>  <m_score__min__energy>  (24) 
-6.5499999999999998

>  <m_primary>  (24) 
energy

$$$$
24:0
     RDKit          3D

 63 65  0  0  0  0  0  0  0  0999 V2000
   59.1580   23.2820   45.5160 C   0  0  0  0  0  0  0  0  0  0  0  0
   57.7150   23.4780   45.1410 C   0  0  0  0  0  0  0  0  0  0  0  0
   57.2280   22.7640   44.0910 N   0  0  0  0  0  0  0  0  0  0  0  0
   55.9520   22.9120   43.6630 C   0  0  0  0  0  0  0  0  0  0  0  0
   55.5300   22.2280   42.6950 O   0  0  0  0  0  0  0  0  0  0  0  0
   55.1320   23.8030   44.2700 N   0  0  0  0  0  0  0  0  0  0  0  0
   55.5580   24.5500   45.3200 C   0  0  0  0  0  0  0  0  0  0  0  0
   54.7640   25.3780   45.8400 O   0  0  0  0  0  0  0  0  0  0  0  0
   56.8710   24.4020   45.8090 C   0  0  0  0  0  0  0  0  0  0  0  0
   57.3420   25.1880   47.0260 C   0  0  0  0  0  0  0  0  0  0  0  0
   58.3910   26.2950   46.7190 C   0  0  2  0  0  0  0  0  0  0  0  0
   58.5930   27.1800   47.8720 N   0  0  0  0  0  0  0  0  0  0  0  0
   59.8150   27.8340   48.2400 C   0  0  0  0  0  0  0  0  0  0  0  0
   60.8390   27.1560   48.5240 O   0  0  0  0  0  0  0  0  0  0  0  0
   59.8710   29.3420   48.2790 C   0  0  2  0  0  0  0  0  0  0  0  0
   58.5200   29.9050   48.1870 N   0  0  0  0  0  0  0  0  0  0  0  0
   60.7460   29.8870   47.1300 C   0  0  0  0  0  0  0  0  0  0  0  0
   61.3890   31.2020   47.4940 C   0  0  0  0  0  0  0  0  0  0  0  0
   60.6350   32.2290   48.0850 C   0  0  0  0  0  0  0  0  0  0  0  0
   61.2310   33.4560   48.3920 C   0  0  0  0  0  0  0  0  0  0  0  0
   62.5840   33.6670   48.1110 C   0  0  0  0  0  0  0  0  0  0  0  0
   63.3420   32.6520   47.5210 C   0  0  0  0  0  0  0  0  0  0  0  0
   62.7480   31.4240   47.2110 C   0  0  0  0  0  0  0  0  0  0  0  0
   58.1440   27.0720   45.4390 C   0  0  0  0  0  0  0  0  0  0  0  0
   58.3900   26.5440   44.3200 O   0  0  0  0  0  0  0  0  0  0  0  0
   57.7480   28.4530   45.4960 N   0  0  0  0  0  0  0  0  0  0  0  0
   57.5820   29.2660   44.2820 C   0  0  2  0  0  0  0  0  0  0  0  0
   58.6450   30.3870   44.1820 C   0  0  0  0  0  0  0  0  0  0  0  0
   58.2160   31.7040   44.7900 C   0  0  0  0  0  0  0  0  0  0  0  0
   58.0620   32.8470   43.9850 C   0  0  0  0  0  0  0  0  0  0  0  0
   57.6470   34.0570   44.5490 C   0  0  0  0  0  0  0  0  0  0  0  0
   57.3940   34.1400   45.9210 C   0  0  0  0  0  0  0  0  0  0  0  0
   57.5680   33.0170   46.7330 C   0  0  0  0  0  0  0  0  0  0  0  0
   57.9850   31.8060   46.1730 C   0  0  0  0  0  0  0  0  0  0  0  0
   56.1840   29.8190   44.1910 C   0  0  0  0  0  0  0  0  0  0  0  0
   55.2020   29.4810   45.1680 N   0  0  0  0  0  0  0  0  0  0  0  0
   55.8890   30.6200   43.2640 O   0  0  0  0  0  0  0  0  0  0  0  0
   59.2536   23.2690   46.6118 H   0  0  0  0  0  0  0  0  0  0  0  0
   59.5171   22.3268   45.1053 H   0  0  0  0  0  0  0  0  0  0  0  0
   59.7589   24.1068   45.1053 H   0  0  0  0  0  0  0  0  0  0  0  0
   56.4644   25.6657   47.4860 H   0  0  0  0  0  0  0  0  0  0  0  0
   57.8387   24.4649   47.6896 H   0  0  0  0  0  0  0  0  0  0  0  0
   59.3299   25.7534   46.5316 H   0  0  0  0  0  0  0  0  0  0  0  0
   60.3210   29.6432   49.2365 H   0  0  0  0  0  0  0  0  0  0  0  0
   58.2620   30.2980   49.1220 H   0  0  0  0  0  0  0  0  0  0  0  0
   57.8480   29.1200   48.0210 H   0  0  0  0  0  0  0  0  0  0  0  0
   61.5352   29.1546   46.9046 H   0  0  0  0  0  0  0  0  0  0  0  0
   60.0997   30.0518   46.2553 H   0  0  0  0  0  0  0  0  0  0  0  0
   59.5700   32.0672   48.3075 H   0  0  0  0  0  0  0  0  0  0  0  0
   60.6347   34.2560   48.8551 H   0  0  0  0  0  0  0  0  0  0  0  0
   63.0521   34.6322   48.3544 H   0  0  0  0  0  0  0  0  0  0  0  0
   64.4066   32.8188   47.3002 H   0  0  0  0  0  0  0  0  0  0  0  0
   63.3470   30.6285   46.7437 H   0  0  0  0  0  0  0  0  0  0  0  0
   57.6770   28.9010   46.4350 H   0  0  0  0  0  0  0  0  0  0  0  0
   57.7405   28.6027   43.4189 H   0  0  0  0  0  0  0  0  0  0  0  0
   59.5541   30.0477   44.7001 H   0  0  0  0  0  0  0  0  0  0  0  0
   58.8094   30.5722   43.1102 H   0  0  0  0  0  0  0  0  0  0  0  0
   58.2691   32.7886   42.9063 H   0  0  0  0  0  0  0  0  0  0  0  0
   57.5194   34.9448   43.9122 H   0  0  0  0  0  0  0  0  0  0  0  0
   57.0577   35.0902   46.3615 H   0  0  0  0  0  0  0  0  0  0  0  0
   57.3767   33.0856   47.8141 H   0  0  0  0  0  0  0  0  0  0  0  0
   58.1333   30.9276   46.8183 H   0  0  0  0  0  0  0  0  0  0  0  0
   55.2230   28.5580   45.6530 H   0  0  0  0  0  0  0  0  0  0  0  0
  1  2  1  0
  2  3  1  0
  3  4  1  0
  4  5  2  0
  4  6  1  0
  6  7  1  0
  7  8  2  0
  7  9  1  0
  9 10  1  0
 10 11  1  0
 11 12  1  0
 12 13  1  0
 13 14  2  0
 13 15  1  0
 15 16  1  0
 15 17  1  0
 17 18  1  0
 18 19  2  0
 19 20  1  0
 20 21  2  0
 21 22  1  0
 22 23  2  0
 11 24  1  0
 24 25  2  0
 24 26  1  0
 26 27  1  0
 27 28  1  0
 28 29  1  0
 29 30  2  0
 30 31  1  0
 31 32  2  0
 32 33  1  0
 33 34  2  0
 27 35  1  0
 35 36  1  0
 35 37  2  0
  9  2  2  0
 23 18  1  0
 34 29  1  0
  1 38  1  0
  1 39  1  0
  1 40  1  0
 10 41  1  0
 10 42  1  0
 11 43  1  6
 15 44  1  1
 16 45  1  0
 16 46  1  0
 17 47  1  0
 17 48  1  0
 19 49  1  0
 20 50  1  0
 21 51  1  0
 22 52  1  0
 23 53  1  0
 26 54  1  0
 27 55  1  6
 28 56  1  0
 28 57  1  0
 30 58  1  0
 31 59  1  0
 32 60  1  0
 33 61  1  0
 34 62  1  0
 36 63  1  0
M  CHG  4   3  -1   6  -1  12  -1  36  -1
M  END
>  <UniqueID>  (25) 
23

>  <SMILES>  (25) 
Cc1[n-]c(=O)[n-]c(=O)c1C[C@H]([N-]C(=O)[C@H](N)Cc1ccccc1)C(=O)NC(Cc1ccccc1)C([NH-])=O

>  <Energy>  (25) 
60.48269558959457

>  <Genealogy>  (25) 
Cc1[n-]c(=O)[n-]c(=O)c1CC([N-]C(=O)C(N)Cc1ccccc1)C(=O)NC(Cc1ccccc1)C([NH-])=O (protonated)
Cc1[n-]c(=O)[n-]c(=O)c1C[C@H]([N-]C(=O)[C@H](N)Cc1ccccc1)C(=O)NC(Cc1ccccc1)C([NH-])=O (chirality)
Cc1[n-]c(=O)[n-]c(=O)c1C[C@H]([N-]C(=O)[C@H](N)Cc1ccccc1)C(=O)NC(Cc1ccccc1)C([NH-])=O (3D coordinates assigned)
Cc1[n-]c(=O)[n-]c(=O)c1C[C@H]([N-]C(=O)[C@H](N)Cc1ccccc1)C(=O)NC(Cc1ccccc1)C([NH-])=O (optimized conformer: 60.48269558959457 kcal/mol)

>  <smiles>  (25) 
Cc1[nH]c(=O)[nH]c(=O)c1CC(NC(=O)C(N)Cc1ccccc1)C(=O)NC(Cc1ccccc1)C(N)=O

>  <score_type>  (25) 
oracle

>  <origin>  (25) 
adg

>  <m_score__min__energy>  (25) 
-16.75

>  <m_primary>  (25) 
energy

$$$$
25:0
     RDKit          3D

 61 65  0  0  0  0  0  0  0  0999 V2000
   64.0775   34.5755   47.0565 H   0  0  0  0  0  0  0  0  0  0  0  0
   63.4950   33.7600   47.5100 C   0  0  0  0  0  0  0  0  0  0  0  0
   62.5300   33.0880   46.7540 C   0  0  0  0  0  0  0  0  0  0  0  0
   62.3531   33.3762   45.7073 H   0  0  0  0  0  0  0  0  0  0  0  0
   61.7890   32.0490   47.3280 C   0  0  0  0  0  0  0  0  0  0  0  0
   61.0304   31.5218   46.7309 H   0  0  0  0  0  0  0  0  0  0  0  0
   62.0110   31.6770   48.6650 C   0  0  0  0  0  0  0  0  0  0  0  0
   61.2000   30.5820   49.3010 C   0  0  0  0  0  0  0  0  0  0  0  0
   60.7111   30.9714   50.2062 H   0  0  0  0  0  0  0  0  0  0  0  0
   61.8677   29.7479   49.5627 H   0  0  0  0  0  0  0  0  0  0  0  0
   60.1800   30.1010   48.3710 N   0  0  0  0  0  0  0  0  0  0  0  0
   59.5820   30.8110   47.8940 H   0  0  0  0  0  0  0  0  0  0  0  0
   60.0300   28.7060   48.0530 C   0  0  0  0  0  0  0  0  0  0  0  0
   60.8610   27.8710   48.5010 O   0  0  0  0  0  0  0  0  0  0  0  0
   58.9230   28.2330   47.1890 C   0  0  0  0  0  0  0  0  0  0  0  0
   58.6240   26.8600   47.1220 C   0  0  0  0  0  0  0  0  0  0  0  0
   59.2281   26.1408   47.6946 H   0  0  0  0  0  0  0  0  0  0  0  0
   57.5660   26.4040   46.3340 C   0  0  0  0  0  0  0  0  0  0  0  0
   57.3408   25.3283   46.2874 H   0  0  0  0  0  0  0  0  0  0  0  0
   56.7930   27.3090   45.6050 C   0  0  0  0  0  0  0  0  0  0  0  0
   55.9528   26.9439   44.9960 H   0  0  0  0  0  0  0  0  0  0  0  0
   57.0800   28.6770   45.6440 C   0  0  0  0  0  0  0  0  0  0  0  0
   56.2380   29.5770   44.9070 N   0  0  0  0  0  0  0  0  0  0  0  0
   56.6790   30.6100   44.0160 C   0  0  0  0  0  0  0  0  0  0  0  0
   56.3700   30.5630   42.7930 O   0  0  0  0  0  0  0  0  0  0  0  0
   57.4530   31.7600   44.5380 C   0  0  0  0  0  0  0  0  0  0  0  0
   57.9430   32.7470   43.6610 C   0  0  0  0  0  0  0  0  0  0  0  0
   57.7426   32.6645   42.5826 H   0  0  0  0  0  0  0  0  0  0  0  0
   58.6810   33.8300   44.1460 C   0  0  0  0  0  0  0  0  0  0  0  0
   59.0549   34.5968   43.4515 H   0  0  0  0  0  0  0  0  0  0  0  0
   58.9440   33.9380   45.5170 C   0  0  0  0  0  0  0  0  0  0  0  0
   59.6850   34.9980   46.0440 C   0  0  0  0  0  0  0  0  0  0  0  0
   60.0779   35.7810   45.3788 H   0  0  0  0  0  0  0  0  0  0  0  0
   59.9190   35.0590   47.3810 N   0  0  0  0  0  0  0  0  0  0  0  0
   59.4450   34.1040   48.2290 C   0  0  0  0  0  0  0  0  0  0  0  0
   59.6750   34.1600   49.5100 N   0  0  0  0  0  0  0  0  0  0  0  0
   59.5200   33.0880   50.5030 C   0  0  0  0  0  0  0  0  0  0  0  0
   60.3152   32.3581   50.2912 H   0  0  0  0  0  0  0  0  0  0  0  0
   58.1810   32.3470   50.3610 C   0  0  0  0  0  0  0  0  0  0  0  0
   57.3562   33.0627   50.4931 H   0  0  0  0  0  0  0  0  0  0  0  0
   58.1330   31.8906   49.3613 H   0  0  0  0  0  0  0  0  0  0  0  0
   58.0600   31.2290   51.4260 C   0  0  0  0  0  0  0  0  0  0  0  0
   57.0596   31.2875   51.8797 H   0  0  0  0  0  0  0  0  0  0  0  0
   58.2299   30.2722   50.9105 H   0  0  0  0  0  0  0  0  0  0  0  0
   59.0290   31.3230   52.4610 O   0  0  0  0  0  0  0  0  0  0  0  0
   59.0820   32.6430   52.9660 C   0  0  0  0  0  0  0  0  0  0  0  0
   58.0596   32.9899   53.1767 H   0  0  0  0  0  0  0  0  0  0  0  0
   59.6840   32.6447   53.8867 H   0  0  0  0  0  0  0  0  0  0  0  0
   59.7370   33.5920   51.9460 C   0  0  0  0  0  0  0  0  0  0  0  0
   59.2919   34.5927   52.0483 H   0  0  0  0  0  0  0  0  0  0  0  0
   60.8181   33.6289   52.1455 H   0  0  0  0  0  0  0  0  0  0  0  0
   58.7210   33.0660   47.7340 N   0  0  0  0  0  0  0  0  0  0  0  0
   58.4600   32.9600   46.4040 C   0  0  0  0  0  0  0  0  0  0  0  0
   57.7160   31.8790   45.9160 C   0  0  0  0  0  0  0  0  0  0  0  0
   57.3348   31.1183   46.6132 H   0  0  0  0  0  0  0  0  0  0  0  0
   58.1330   29.1400   46.4550 C   0  0  0  0  0  0  0  0  0  0  0  0
   58.3409   30.2184   46.5163 H   0  0  0  0  0  0  0  0  0  0  0  0
   62.9810   32.3600   49.4190 C   0  0  0  0  0  0  0  0  0  0  0  0
   63.1592   32.0781   50.4672 H   0  0  0  0  0  0  0  0  0  0  0  0
   63.7210   33.3980   48.8400 C   0  0  0  0  0  0  0  0  0  0  0  0
   64.4807   33.9286   49.4327 H   0  0  0  0  0  0  0  0  0  0  0  0
  1  2  1  0
  2  3  2  0
  3  4  1  0
  3  5  1  0
  5  6  1  0
  5  7  2  0
  7  8  1  0
  8  9  1  0
  8 10  1  0
  8 11  1  0
 11 12  1  0
 11 13  1  0
 13 14  2  0
 13 15  1  0
 15 16  2  0
 16 17  1  0
 16 18  1  0
 18 19  1  0
 18 20  2  0
 20 21  1  0
 20 22  1  0
 22 23  1  0
 23 24  1  0
 24 25  2  0
 24 26  1  0
 26 27  1  0
 27 28  1  0
 27 29  2  0
 29 30  1  0
 29 31  1  0
 31 32  2  0
 32 33  1  0
 32 34  1  0
 34 35  1  0
 35 36  2  0
 36 37  1  0
 37 38  1  0
 37 39  1  0
 39 40  1  0
 39 41  1  0
 39 42  1  0
 42 43  1  0
 42 44  1  0
 42 45  1  0
 45 46  1  0
 46 47  1  0
 46 48  1  0
 46 49  1  0
 49 50  1  0
 49 51  1  0
 35 52  1  0
 52 53  2  0
 53 54  1  0
 54 55  1  0
 22 56  2  0
 56 57  1  0
  7 58  1  0
 58 59  1  0
 58 60  2  0
 60 61  1  0
 60  2  1  0
 56 15  1  0
 54 26  2  0
 53 31  1  0
 49 37  1  0
M  CHG  2  23  -1  34  -1
M  END
>  <UniqueID>  (26) 
24

>  <SMILES>  (26) 
O=C([N-]c1cccc(C(=O)NCc2ccccc2)c1)c1ccc2c[n-]/c(=N\C3CCOCC3)nc2c1

>  <Energy>  (26) 
83.58424065968167

>  <Genealogy>  (26) 
O=C([N-]c1cccc(C(=O)NCc2ccccc2)c1)c1ccc2c[n-]c(=NC3CCOCC3)nc2c1 (protonated)
O=C([N-]c1cccc(C(=O)NCc2ccccc2)c1)c1ccc2c[n-]/c(=N\C3CCOCC3)nc2c1 (cis-trans isomerization)
O=C([N-]c1cccc(C(=O)NCc2ccccc2)c1)c1ccc2c[n-]/c(=N\C3CCOCC3)nc2c1 (3D coordinates assigned)
O=C([N-]c1cccc(C(=O)NCc2ccccc2)c1)c1ccc2c[n-]/c(=N\C3CCOCC3)nc2c1 (nonaromatic ring conformer: 83.58424065968167 kcal/mol)

>  <smiles>  (26) 
O=C(NCc1ccccc1)c1cccc(NC(=O)c2ccc3c[nH]c(=NC4CCOCC4)nc3c2)c1

>  <score_type>  (26) 
oracle

>  <origin>  (26) 
adg

>  <m_score__min__energy>  (26) 
-13.27

>  <m_primary>  (26) 
energy

$$$$
26:0
     RDKit          3D

 59 62  0  0  0  0  0  0  0  0999 V2000
   57.3580   30.3270   43.8580 C   0  0  0  0  0  0  0  0  0  0  0  0
   57.3860   30.6170   45.2510 O   0  0  0  0  0  0  0  0  0  0  0  0
   58.2760   30.0350   46.1650 C   0  0  0  0  0  0  0  0  0  0  0  0
   58.9370   28.8620   45.7930 C   0  0  0  0  0  0  0  0  0  0  0  0
   59.8460   28.2520   46.6600 C   0  0  0  0  0  0  0  0  0  0  0  0
   60.1070   28.8070   47.9280 C   0  0  0  0  0  0  0  0  0  0  0  0
   61.0670   28.2520   48.7900 O   0  0  0  0  0  0  0  0  0  0  0  0
   60.7920   27.7470   50.0920 C   0  0  0  0  0  0  0  0  0  0  0  0
   59.4080   29.9660   48.3260 C   0  0  0  0  0  0  0  0  0  0  0  0
   59.6220   30.5750   49.6070 N   0  0  0  0  0  0  0  0  0  0  0  0
   60.8190   31.2470   50.0130 C   0  0  0  0  0  0  0  0  0  0  0  0
   60.7540   32.2920   50.7160 O   0  0  0  0  0  0  0  0  0  0  0  0
   62.0860   30.7680   49.5430 N   0  0  0  0  0  0  0  0  0  0  0  0
   63.3490   31.2430   50.0370 C   0  0  0  0  0  0  0  0  0  0  0  0
   64.0980   30.4720   50.9440 C   0  0  0  0  0  0  0  0  0  0  0  0
   65.3550   30.9050   51.3750 C   0  0  0  0  0  0  0  0  0  0  0  0
   65.8850   32.1030   50.8940 C   0  0  0  0  0  0  0  0  0  0  0  0
   65.1590   32.8720   49.9820 C   0  0  0  0  0  0  0  0  0  0  0  0
   63.8920   32.4520   49.5500 C   0  0  0  0  0  0  0  0  0  0  0  0
   63.1550   33.2740   48.6330 N   0  0  0  0  0  0  0  0  0  0  0  0
   63.0540   32.8690   47.2240 C   0  0  0  0  0  0  0  0  0  0  0  0
   62.1650   33.8330   46.4360 C   0  0  0  0  0  0  0  0  0  0  0  0
   60.9360   34.1040   47.1950 N   0  0  0  0  0  0  0  0  0  0  0  0
   59.6450   33.9290   46.5810 C   0  0  0  0  0  0  0  0  0  0  0  0
   58.5130   33.6620   47.3710 C   0  0  0  0  0  0  0  0  0  0  0  0
   57.2580   33.5020   46.7770 C   0  0  0  0  0  0  0  0  0  0  0  0
   57.1210   33.6120   45.3910 C   0  0  0  0  0  0  0  0  0  0  0  0
   58.2380   33.8830   44.5980 C   0  0  0  0  0  0  0  0  0  0  0  0
   59.4950   34.0440   45.1890 C   0  0  0  0  0  0  0  0  0  0  0  0
   61.0190   34.4950   48.6110 C   0  0  0  0  0  0  0  0  0  0  0  0
   62.4650   34.4740   49.1210 C   0  0  0  0  0  0  0  0  0  0  0  0
   58.5230   30.5870   47.4350 C   0  0  0  0  0  0  0  0  0  0  0  0
   57.2532   29.2419   43.7114 H   0  0  0  0  0  0  0  0  0  0  0  0
   56.5056   30.8438   43.3929 H   0  0  0  0  0  0  0  0  0  0  0  0
   58.2936   30.6712   43.3929 H   0  0  0  0  0  0  0  0  0  0  0  0
   58.7396   28.4145   44.8077 H   0  0  0  0  0  0  0  0  0  0  0  0
   60.3620   27.3312   46.3504 H   0  0  0  0  0  0  0  0  0  0  0  0
   61.1749   28.4501   50.8464 H   0  0  0  0  0  0  0  0  0  0  0  0
   59.7055   27.6299   50.2179 H   0  0  0  0  0  0  0  0  0  0  0  0
   61.2831   26.7708   50.2179 H   0  0  0  0  0  0  0  0  0  0  0  0
   62.0810   30.0730   48.7630 H   0  0  0  0  0  0  0  0  0  0  0  0
   63.6912   29.5205   51.3172 H   0  0  0  0  0  0  0  0  0  0  0  0
   65.9273   30.3007   52.0943 H   0  0  0  0  0  0  0  0  0  0  0  0
   66.8750   32.4417   51.2334 H   0  0  0  0  0  0  0  0  0  0  0  0
   65.5830   33.8124   49.6001 H   0  0  0  0  0  0  0  0  0  0  0  0
   64.0600   32.8628   46.7790 H   0  0  0  0  0  0  0  0  0  0  0  0
   62.6057   31.8655   47.1803 H   0  0  0  0  0  0  0  0  0  0  0  0
   62.7065   34.7756   46.2678 H   0  0  0  0  0  0  0  0  0  0  0  0
   61.9038   33.3801   45.4682 H   0  0  0  0  0  0  0  0  0  0  0  0
   58.6157   33.5785   48.4630 H   0  0  0  0  0  0  0  0  0  0  0  0
   56.3776   33.2893   47.4012 H   0  0  0  0  0  0  0  0  0  0  0  0
   56.1330   33.4851   44.9243 H   0  0  0  0  0  0  0  0  0  0  0  0
   58.1289   33.9699   43.5069 H   0  0  0  0  0  0  0  0  0  0  0  0
   60.3711   34.2619   44.5605 H   0  0  0  0  0  0  0  0  0  0  0  0
   60.6157   35.5121   48.7243 H   0  0  0  0  0  0  0  0  0  0  0  0
   60.4365   33.7722   49.2012 H   0  0  0  0  0  0  0  0  0  0  0  0
   62.9916   35.3691   48.7585 H   0  0  0  0  0  0  0  0  0  0  0  0
   62.4585   34.4631   50.2209 H   0  0  0  0  0  0  0  0  0  0  0  0
   58.0156   31.5167   47.7319 H   0  0  0  0  0  0  0  0  0  0  0  0
  1  2  1  0
  2  3  1  0
  3  4  2  0
  4  5  1  0
  5  6  2  0
  6  7  1  0
  7  8  1  0
  6  9  1  0
  9 10  1  0
 10 11  1  0
 11 12  2  0
 11 13  1  0
 13 14  1  0
 14 15  2  0
 15 16  1  0
 16 17  2  0
 17 18  1  0
 18 19  2  0
 19 20  1  0
 20 21  1  0
 21 22  1  0
 22 23  1  0
 23 24  1  0
 24 25  2  0
 25 26  1  0
 26 27  2  0
 27 28  1  0
 28 29  2  0
 23 30  1  0
 30 31  1  0
  9 32  2  0
 32  3  1  0
 19 14  1  0
 31 20  1  0
 29 24  1  0
  1 33  1  0
  1 34  1  0
  1 35  1  0
  4 36  1  0
  5 37  1  0
  8 38  1  0
  8 39  1  0
  8 40  1  0
 13 41  1  0
 15 42  1  0
 16 43  1  0
 17 44  1  0
 18 45  1  0
 21 46  1  0
 21 47  1  0
 22 48  1  0
 22 49  1  0
 25 50  1  0
 26 51  1  0
 27 52  1  0
 28 53  1  0
 29 54  1  0
 30 55  1  0
 30 56  1  0
 31 57  1  0
 31 58  1  0
 32 59  1  0
M  CHG  1  10  -1
M  END
>  <UniqueID>  (27) 
25

>  <SMILES>  (27) 
COc1ccc(OC)c([N-]C(=O)Nc2ccccc2N2CCN(c3ccccc3)CC2)c1

>  <Energy>  (27) 
79.46912758144484

>  <Genealogy>  (27) 
COc1ccc(OC)c([N-]C(=O)Nc2ccccc2N2CCN(c3ccccc3)CC2)c1 (protonated)
COc1ccc(OC)c([N-]C(=O)Nc2ccccc2N2CCN(c3ccccc3)CC2)c1 (3D coordinates assigned)
COc1ccc(OC)c([N-]C(=O)Nc2ccccc2N2CCN(c3ccccc3)CC2)c1 (nonaromatic ring conformer: 79.46912758144484 kcal/mol)

>  <smiles>  (27) 
COc1ccc(OC)c(NC(=O)Nc2ccccc2N2CCN(c3ccccc3)CC2)c1

>  <score_type>  (27) 
oracle

>  <origin>  (27) 
adg

>  <m_score__min__energy>  (27) 
-9.9700000000000006

>  <m_primary>  (27) 
energy

$$$$
27:0
     RDKit          3D

 50 52  0  0  0  0  0  0  0  0999 V2000
   58.8660   30.2720   48.9180 N   0  0  0  0  0  0  0  0  0  0  0  0
   59.1850   31.6610   48.9520 C   0  0  0  0  0  0  0  0  0  0  0  0
   58.4100   32.4510   49.5550 O   0  0  0  0  0  0  0  0  0  0  0  0
   60.4370   32.1520   48.3200 C   0  0  0  0  0  0  0  0  0  0  0  0
   61.4510   31.2170   48.0370 C   0  0  0  0  0  0  0  0  0  0  0  0
   62.6630   31.6210   47.4770 C   0  0  0  0  0  0  0  0  0  0  0  0
   62.8850   32.9650   47.1880 C   0  0  0  0  0  0  0  0  0  0  0  0
   61.8920   33.9090   47.4460 C   0  0  0  0  0  0  0  0  0  0  0  0
   60.6550   33.5210   47.9920 C   0  0  0  0  0  0  0  0  0  0  0  0
   59.6110   34.5860   48.2100 C   0  0  0  0  0  0  0  0  0  0  0  0
   59.0060   34.9420   46.9330 N   0  0  0  0  0  0  0  0  0  0  0  0
   58.3930   34.0220   46.0220 C   0  0  0  0  0  0  0  0  0  0  0  0
   57.1530   34.1070   45.8220 O   0  0  0  0  0  0  0  0  0  0  0  0
   59.1690   32.9340   45.3260 C   0  0  0  0  0  0  0  0  0  0  0  0
   58.2660   32.1020   44.5100 N   0  0  0  0  0  0  0  0  0  0  0  0
   58.1580   32.3530   43.1750 C   0  0  0  0  0  0  0  0  0  0  0  0
   57.3520   31.5630   42.3720 C   0  0  0  0  0  0  0  0  0  0  0  0
   57.2590   31.8140   41.0410 F   0  0  0  0  0  0  0  0  0  0  0  0
   56.6460   30.5140   42.9500 C   0  0  0  0  0  0  0  0  0  0  0  0
   55.9230   29.7880   42.2150 O   0  0  0  0  0  0  0  0  0  0  0  0
   56.7410   30.2740   44.2980 N   0  0  0  0  0  0  0  0  0  0  0  0
   55.9610   29.1710   44.9000 C   0  0  0  0  0  0  0  0  0  0  0  0
   56.8640   28.0250   45.3040 C   0  0  0  0  0  0  0  0  0  0  0  0
   58.2520   28.1520   45.1480 C   0  0  0  0  0  0  0  0  0  0  0  0
   59.1000   27.1030   45.4960 C   0  0  0  0  0  0  0  0  0  0  0  0
   58.5760   25.9150   46.0030 C   0  0  0  0  0  0  0  0  0  0  0  0
   57.1880   25.7540   46.1730 C   0  0  0  0  0  0  0  0  0  0  0  0
   56.6680   24.4680   46.7140 C   0  0  0  0  0  0  0  0  0  0  0  0
   57.5510   23.4480   47.1790 N   0  0  0  0  0  0  0  0  0  0  0  0
   55.4250   24.2660   46.7760 O   0  0  0  0  0  0  0  0  0  0  0  0
   56.3300   26.8270   45.8240 C   0  0  0  0  0  0  0  0  0  0  0  0
   54.9550   26.7170   46.0010 O   0  0  0  0  0  0  0  0  0  0  0  0
   57.5650   31.0610   45.0710 C   0  0  0  0  0  0  0  0  0  0  0  0
   57.6840   30.8270   46.3070 O   0  0  0  0  0  0  0  0  0  0  0  0
   58.4290   29.8410   48.0730 H   0  0  0  0  0  0  0  0  0  0  0  0
   61.2851   30.1528   48.2607 H   0  0  0  0  0  0  0  0  0  0  0  0
   63.4445   30.8769   47.2634 H   0  0  0  0  0  0  0  0  0  0  0  0
   63.8453   33.2823   46.7555 H   0  0  0  0  0  0  0  0  0  0  0  0
   62.0780   34.9694   47.2200 H   0  0  0  0  0  0  0  0  0  0  0  0
   58.8348   34.2048   48.8898 H   0  0  0  0  0  0  0  0  0  0  0  0
   60.0820   35.4758   48.6532 H   0  0  0  0  0  0  0  0  0  0  0  0
   59.9291   33.3904   44.6748 H   0  0  0  0  0  0  0  0  0  0  0  0
   59.6527   32.2996   46.0833 H   0  0  0  0  0  0  0  0  0  0  0  0
   58.7160   33.1906   42.7310 H   0  0  0  0  0  0  0  0  0  0  0  0
   55.4358   29.5463   45.7907 H   0  0  0  0  0  0  0  0  0  0  0  0
   55.2409   28.8034   44.1541 H   0  0  0  0  0  0  0  0  0  0  0  0
   58.6738   29.0860   44.7483 H   0  0  0  0  0  0  0  0  0  0  0  0
   60.1873   27.2126   45.3702 H   0  0  0  0  0  0  0  0  0  0  0  0
   59.2554   25.0933   46.2735 H   0  0  0  0  0  0  0  0  0  0  0  0
   57.6950   23.2870   48.2000 H   0  0  0  0  0  0  0  0  0  0  0  0
  1  2  1  0
  2  3  2  0
  2  4  1  0
  4  5  2  0
  5  6  1  0
  6  7  2  0
  7  8  1  0
  8  9  2  0
  9 10  1  0
 10 11  1  0
 11 12  1  0
 12 13  2  0
 12 14  1  0
 14 15  1  0
 15 16  1  0
 16 17  2  0
 17 18  1  0
 17 19  1  0
 19 20  2  0
 19 21  1  0
 21 22  1  0
 22 23  1  0
 23 24  2  0
 24 25  1  0
 25 26  2  0
 26 27  1  0
 27 28  1  0
 28 29  1  0
 28 30  2  0
 27 31  2  0
 31 32  1  0
 21 33  1  0
 33 34  2  0
  9  4  1  0
 33 15  1  0
 31 23  1  0
  1 35  1  0
  5 36  1  0
  6 37  1  0
  7 38  1  0
  8 39  1  0
 10 40  1  0
 10 41  1  0
 14 42  1  0
 14 43  1  0
 16 44  1  0
 22 45  1  0
 22 46  1  0
 24 47  1  0
 25 48  1  0
 26 49  1  0
 29 50  1  0
M  CHG  4   1  -1  11  -1  29  -1  32  -1
M  END
>  <UniqueID>  (28) 
26

>  <SMILES>  (28) 
[NH-]C(=O)c1ccccc1C[N-]C(=O)Cn1cc(F)c(=O)n(Cc2cccc(C([NH-])=O)c2[O-])c1=O

>  <Energy>  (28) 
64.2583695053666

>  <Genealogy>  (28) 
[NH-]C(=O)c1ccccc1C[N-]C(=O)Cn1cc(F)c(=O)n(Cc2cccc(C([NH-])=O)c2[O-])c1=O (protonated)
[NH-]C(=O)c1ccccc1C[N-]C(=O)Cn1cc(F)c(=O)n(Cc2cccc(C([NH-])=O)c2[O-])c1=O (3D coordinates assigned)
[NH-]C(=O)c1ccccc1C[N-]C(=O)Cn1cc(F)c(=O)n(Cc2cccc(C([NH-])=O)c2[O-])c1=O (optimized conformer: 64.2583695053666 kcal/mol)

>  <smiles>  (28) 
NC(=O)c1ccccc1CNC(=O)Cn1cc(F)c(=O)n(Cc2cccc(C(N)=O)c2O)c1=O

>  <score_type>  (28) 
oracle

>  <origin>  (28) 
adg

>  <m_score__min__energy>  (28) 
-17.260000000000002

>  <m_primary>  (28) 
energy

$$$$
28:0
     RDKit          3D

 35 37  0  0  0  0  0  0  0  0999 V2000
   59.8720   23.8470   45.7100 O   0  0  0  0  0  0  0  0  0  0  0  0
   59.0040   24.6430   46.1560 C   0  0  0  0  0  0  0  0  0  0  0  0
   59.4130   25.6370   47.1060 N   0  0  0  0  0  0  0  0  0  0  0  0
   58.9440   27.0200   47.1900 C   0  0  0  0  0  0  0  0  0  0  0  0
   59.6890   27.9220   46.1990 C   0  0  0  0  0  0  0  0  0  0  0  0
   58.7740   28.4760   45.1470 C   0  0  0  0  0  0  0  0  0  0  0  0
   58.0340   27.7380   44.2270 C   0  0  0  0  0  0  0  0  0  0  0  0
   57.3000   28.5600   43.4430 N   0  0  0  0  0  0  0  0  0  0  0  0
   57.5680   29.8090   43.8600 C   0  0  0  0  0  0  0  0  0  0  0  0
   57.0180   30.9960   43.3770 C   0  0  0  0  0  0  0  0  0  0  0  0
   57.4110   32.1990   43.9900 C   0  0  0  0  0  0  0  0  0  0  0  0
   58.3290   32.1900   45.0630 C   0  0  0  0  0  0  0  0  0  0  0  0
   58.8660   30.9770   45.5330 C   0  0  0  0  0  0  0  0  0  0  0  0
   58.4620   29.8000   44.9020 C   0  0  0  0  0  0  0  0  0  0  0  0
   57.6110   24.5210   45.6760 C   0  0  0  0  0  0  0  0  0  0  0  0
   56.6510   25.4690   46.0720 C   0  0  0  0  0  0  0  0  0  0  0  0
   55.3320   25.3730   45.6190 C   0  0  0  0  0  0  0  0  0  0  0  0
   54.3980   26.3330   45.9890 O   0  0  0  0  0  0  0  0  0  0  0  0
   54.9520   24.3110   44.7920 C   0  0  0  0  0  0  0  0  0  0  0  0
   55.8890   23.3370   44.4310 C   0  0  0  0  0  0  0  0  0  0  0  0
   55.5060   22.2690   43.6300 O   0  0  0  0  0  0  0  0  0  0  0  0
   57.2100   23.4350   44.8810 C   0  0  0  0  0  0  0  0  0  0  0  0
   57.8684   27.0481   46.9614 H   0  0  0  0  0  0  0  0  0  0  0  0
   59.1353   27.3903   48.2080 H   0  0  0  0  0  0  0  0  0  0  0  0
   60.1426   28.7581   46.7514 H   0  0  0  0  0  0  0  0  0  0  0  0
   60.4563   27.3145   45.6967 H   0  0  0  0  0  0  0  0  0  0  0  0
   58.0448   26.6408   44.1488 H   0  0  0  0  0  0  0  0  0  0  0  0
   56.6440   28.2760   42.6810 H   0  0  0  0  0  0  0  0  0  0  0  0
   56.3001   30.9914   42.5436 H   0  0  0  0  0  0  0  0  0  0  0  0
   57.0003   33.1542   43.6310 H   0  0  0  0  0  0  0  0  0  0  0  0
   58.6265   33.1380   45.5349 H   0  0  0  0  0  0  0  0  0  0  0  0
   59.5801   30.9575   46.3695 H   0  0  0  0  0  0  0  0  0  0  0  0
   56.9398   26.2916   46.7427 H   0  0  0  0  0  0  0  0  0  0  0  0
   53.9171   24.2417   44.4257 H   0  0  0  0  0  0  0  0  0  0  0  0
   57.9389   22.6568   44.6105 H   0  0  0  0  0  0  0  0  0  0  0  0
  1  2  2  0
  2  3  1  0
  3  4  1  0
  4  5  1  0
  5  6  1  0
  6  7  2  0
  7  8  1  0
  8  9  1  0
  9 10  2  0
 10 11  1  0
 11 12  2  0
 12 13  1  0
 13 14  2  0
  2 15  1  0
 15 16  2  0
 16 17  1  0
 17 18  1  0
 17 19  2  0
 19 20  1  0
 20 21  1  0
 20 22  2  0
 14  6  1  0
 22 15  1  0
 14  9  1  0
  4 23  1  0
  4 24  1  0
  5 25  1  0
  5 26  1  0
  7 27  1  0
  8 28  1  0
 10 29  1  0
 11 30  1  0
 12 31  1  0
 13 32  1  0
 16 33  1  0
 19 34  1  0
 22 35  1  0
M  CHG  3   3  -1  18  -1  21  -1
M  END
>  <UniqueID>  (29) 
27

>  <SMILES>  (29) 
O=C([N-]CCc1c[nH]c2ccccc12)c1cc([O-])cc([O-])c1

>  <Energy>  (29) 
68.77754292249396

>  <Genealogy>  (29) 
O=C([N-]CCc1c[nH]c2ccccc12)c1cc([O-])cc([O-])c1 (protonated)
O=C([N-]CCc1c[nH]c2ccccc12)c1cc([O-])cc([O-])c1 (3D coordinates assigned)
O=C([N-]CCc1c[nH]c2ccccc12)c1cc([O-])cc([O-])c1 (optimized conformer: 68.77754292249396 kcal/mol)

>  <smiles>  (29) 
O=C(NCCc1c[nH]c2ccccc12)c1cc(O)cc(O)c1

>  <score_type>  (29) 
oracle

>  <origin>  (29) 
adg

>  <m_score__min__energy>  (29) 
-13.91

>  <m_primary>  (29) 
energy

$$$$
29:0
     RDKit          3D

 52 56  0  0  0  0  0  0  0  0999 V2000
   62.6750   33.5380   47.6990 C   0  0  0  0  0  0  0  0  0  0  0  0
   61.3310   33.5000   48.4170 C   0  0  0  0  0  0  0  0  0  0  0  0
   60.2140   33.7190   47.4460 C   0  0  0  0  0  0  0  0  0  0  0  0
   58.8990   33.9880   47.7730 C   0  0  0  0  0  0  0  0  0  0  0  0
   58.2260   34.0750   46.5730 C   0  0  0  0  0  0  0  0  0  0  0  0
   59.1730   33.8430   45.5950 C   0  0  0  0  0  0  0  0  0  0  0  0
   58.9220   33.8330   44.1200 C   0  0  0  0  0  0  0  0  0  0  0  0
   57.8290   32.9200   43.7920 N   0  0  0  0  0  0  0  0  0  0  0  0
   57.6520   31.6160   44.3840 C   0  0  0  0  0  0  0  0  0  0  0  0
   56.4520   30.9230   44.1640 C   0  0  0  0  0  0  0  0  0  0  0  0
   56.2510   29.6520   44.7110 C   0  0  0  0  0  0  0  0  0  0  0  0
   57.2520   29.0530   45.4920 C   0  0  0  0  0  0  0  0  0  0  0  0
   57.1000   27.7760   46.0620 C   0  0  0  0  0  0  0  0  0  0  0  0
   56.0240   27.1380   45.8840 O   0  0  0  0  0  0  0  0  0  0  0  0
   58.1130   27.2290   46.8130 N   0  0  0  0  0  0  0  0  0  0  0  0
   57.9420   25.9020   47.4330 C   0  0  0  0  0  0  0  0  0  0  0  0
   57.9810   24.8350   46.3830 C   0  0  0  0  0  0  0  0  0  0  0  0
   56.9660   24.7290   45.4860 N   0  0  0  0  0  0  0  0  0  0  0  0
   56.9580   23.7460   44.5500 C   0  0  0  0  0  0  0  0  0  0  0  0
   55.9060   23.6600   43.6320 C   0  0  0  0  0  0  0  0  0  0  0  0
   55.8970   22.6460   42.6690 C   0  0  0  0  0  0  0  0  0  0  0  0
   56.9390   21.7150   42.6200 C   0  0  0  0  0  0  0  0  0  0  0  0
   57.9950   21.7900   43.5350 C   0  0  0  0  0  0  0  0  0  0  0  0
   58.0110   22.8070   44.5070 C   0  0  0  0  0  0  0  0  0  0  0  0
   59.0420   22.9310   45.4530 C   0  0  0  0  0  0  0  0  0  0  0  0
   60.0080   22.1210   45.4710 O   0  0  0  0  0  0  0  0  0  0  0  0
   59.0000   23.9340   46.3670 N   0  0  0  0  0  0  0  0  0  0  0  0
   59.2640   27.9470   47.0290 C   0  0  0  0  0  0  0  0  0  0  0  0
   60.1940   27.4760   47.7400 O   0  0  0  0  0  0  0  0  0  0  0  0
   59.4200   29.1790   46.4840 N   0  0  0  0  0  0  0  0  0  0  0  0
   58.4530   29.7450   45.7230 C   0  0  0  0  0  0  0  0  0  0  0  0
   58.6510   31.0180   45.1760 C   0  0  0  0  0  0  0  0  0  0  0  0
   60.3500   33.6390   46.1420 O   0  0  0  0  0  0  0  0  0  0  0  0
   63.4866   33.5609   48.4411 H   0  0  0  0  0  0  0  0  0  0  0  0
   62.7795   32.6424   47.0689 H   0  0  0  0  0  0  0  0  0  0  0  0
   62.7288   34.4380   47.0689 H   0  0  0  0  0  0  0  0  0  0  0  0
   61.2052   32.5192   48.8988 H   0  0  0  0  0  0  0  0  0  0  0  0
   61.3079   34.2986   49.1731 H   0  0  0  0  0  0  0  0  0  0  0  0
   58.4766   34.1079   48.7816 H   0  0  0  0  0  0  0  0  0  0  0  0
   57.1565   34.2855   46.4252 H   0  0  0  0  0  0  0  0  0  0  0  0
   58.6561   34.8485   43.7913 H   0  0  0  0  0  0  0  0  0  0  0  0
   59.8340   33.4944   43.6067 H   0  0  0  0  0  0  0  0  0  0  0  0
   57.1530   33.2290   43.0560 H   0  0  0  0  0  0  0  0  0  0  0  0
   55.6609   31.3845   43.5547 H   0  0  0  0  0  0  0  0  0  0  0  0
   55.3057   29.1199   44.5288 H   0  0  0  0  0  0  0  0  0  0  0  0
   58.7532   25.7309   48.1560 H   0  0  0  0  0  0  0  0  0  0  0  0
   56.9698   25.8668   47.9463 H   0  0  0  0  0  0  0  0  0  0  0  0
   55.0847   24.3909   43.6677 H   0  0  0  0  0  0  0  0  0  0  0  0
   55.0684   22.5807   41.9485 H   0  0  0  0  0  0  0  0  0  0  0  0
   56.9286   20.9206   41.8592 H   0  0  0  0  0  0  0  0  0  0  0  0
   58.8119   21.0545   43.4944 H   0  0  0  0  0  0  0  0  0  0  0  0
   59.5924   31.5544   45.3659 H   0  0  0  0  0  0  0  0  0  0  0  0
  1  2  1  0
  2  3  1  0
  3  4  2  0
  4  5  1  0
  5  6  2  0
  6  7  1  0
  7  8  1  0
  8  9  1  0
  9 10  2  0
 10 11  1  0
 11 12  2  0
 12 13  1  0
 13 14  2  0
 13 15  1  0
 15 16  1  0
 16 17  1  0
 17 18  2  0
 18 19  1  0
 19 20  2  0
 20 21  1  0
 21 22  2  0
 22 23  1  0
 23 24  2  0
 24 25  1  0
 25 26  2  0
 25 27  1  0
 15 28  1  0
 28 29  2  0
 28 30  1  0
 30 31  1  0
 31 32  2  0
  6 33  1  0
 33  3  1  0
 32  9  1  0
 31 12  1  0
 27 17  1  0
 24 19  1  0
  1 34  1  0
  1 35  1  0
  1 36  1  0
  2 37  1  0
  2 38  1  0
  4 39  1  0
  5 40  1  0
  7 41  1  0
  7 42  1  0
  8 43  1  0
 10 44  1  0
 11 45  1  0
 16 46  1  0
 16 47  1  0
 20 48  1  0
 21 49  1  0
 22 50  1  0
 23 51  1  0
 32 52  1  0
M  CHG  2  27  -1  30  -1
M  END
>  <UniqueID>  (30) 
28

>  <SMILES>  (30) 
CCc1ccc(CNc2ccc3c(=O)n(Cc4nc5ccccc5c(=O)[n-]4)c(=O)[n-]c3c2)o1

>  <Energy>  (30) 
90.03376948369183

>  <Genealogy>  (30) 
CCc1ccc(CNc2ccc3c(=O)n(Cc4nc5ccccc5c(=O)[n-]4)c(=O)[n-]c3c2)o1 (protonated)
CCc1ccc(CNc2ccc3c(=O)n(Cc4nc5ccccc5c(=O)[n-]4)c(=O)[n-]c3c2)o1 (3D coordinates assigned)
CCc1ccc(CNc2ccc3c(=O)n(Cc4nc5ccccc5c(=O)[n-]4)c(=O)[n-]c3c2)o1 (optimized conformer: 90.03376948369183 kcal/mol)

>  <smiles>  (30) 
CCc1ccc(CNc2ccc3c(=O)n(Cc4nc5ccccc5c(=O)[nH]4)c(=O)[nH]c3c2)o1

>  <score_type>  (30) 
oracle

>  <origin>  (30) 
adg

>  <m_score__min__energy>  (30) 
-12.23

>  <m_primary>  (30) 
energy

$$$$
30:0
     RDKit          3D

 49 51  0  0  0  0  0  0  0  0999 V2000
   57.2115   28.2711   43.1488 H   0  0  0  0  0  0  0  0  0  0  0  0
   57.3570   28.9600   43.9940 C   0  0  0  0  0  0  0  0  0  0  0  0
   56.1800   29.6240   44.5820 C   0  0  0  0  0  0  0  0  0  0  0  0
   55.1470   28.9690   44.8870 O   0  0  0  0  0  0  0  0  0  0  0  0
   56.2070   30.9940   44.8010 O   0  0  0  0  0  0  0  0  0  0  0  0
   58.5980   29.1670   44.4540 C   0  0  0  0  0  0  0  0  0  0  0  0
   59.3915   29.3859   43.7243 H   0  0  0  0  0  0  0  0  0  0  0  0
   58.9640   29.1180   45.8920 C   0  0  0  0  0  0  0  0  0  0  0  0
   59.3480   27.9260   46.5350 C   0  0  0  0  0  0  0  0  0  0  0  0
   59.3939   26.9863   45.9651 H   0  0  0  0  0  0  0  0  0  0  0  0
   59.6710   27.9320   47.8940 C   0  0  0  0  0  0  0  0  0  0  0  0
   59.9805   26.9986   48.3870 H   0  0  0  0  0  0  0  0  0  0  0  0
   59.6030   29.1170   48.6300 C   0  0  0  0  0  0  0  0  0  0  0  0
   59.8679   29.1157   49.6976 H   0  0  0  0  0  0  0  0  0  0  0  0
   59.1970   30.3110   48.0100 C   0  0  0  0  0  0  0  0  0  0  0  0
   59.0870   31.5280   48.7030 O   0  0  0  0  0  0  0  0  0  0  0  0
   58.1450   32.5630   48.4250 C   0  0  0  0  0  0  0  0  0  0  0  0
   57.1586   32.1097   48.2473 H   0  0  0  0  0  0  0  0  0  0  0  0
   58.1150   33.2423   49.2896 H   0  0  0  0  0  0  0  0  0  0  0  0
   58.5440   33.3670   47.2040 C   0  0  0  0  0  0  0  0  0  0  0  0
   57.6590   33.3980   46.1080 C   0  0  0  0  0  0  0  0  0  0  0  0
   56.7289   32.8118   46.1445 H   0  0  0  0  0  0  0  0  0  0  0  0
   57.9470   34.1620   44.9780 C   0  0  0  0  0  0  0  0  0  0  0  0
   57.2548   34.1607   44.1231 H   0  0  0  0  0  0  0  0  0  0  0  0
   59.1100   34.9270   44.9300 C   0  0  0  0  0  0  0  0  0  0  0  0
   59.3313   35.5345   44.0401 H   0  0  0  0  0  0  0  0  0  0  0  0
   59.9940   34.9240   46.0080 C   0  0  0  0  0  0  0  0  0  0  0  0
   60.9047   35.5393   45.9644 H   0  0  0  0  0  0  0  0  0  0  0  0
   59.7370   34.1440   47.1520 C   0  0  0  0  0  0  0  0  0  0  0  0
   60.7500   34.1650   48.2850 C   0  0  0  0  0  0  0  0  0  0  0  0
   61.5454   34.8828   48.0358 H   0  0  0  0  0  0  0  0  0  0  0  0
   60.2218   34.4562   49.2049 H   0  0  0  0  0  0  0  0  0  0  0  0
   61.3660   32.8260   48.5150 N   0  0  0  0  0  0  0  0  0  0  0  0
   60.6150   32.1610   48.8170 H   0  0  0  0  0  0  0  0  0  0  0  0
   62.3640   32.8640   49.6050 C   0  0  0  0  0  0  0  0  0  0  0  0
   61.9113   33.3435   50.4854 H   0  0  0  0  0  0  0  0  0  0  0  0
   62.6651   31.8299   49.8285 H   0  0  0  0  0  0  0  0  0  0  0  0
   63.6300   33.6560   49.1990 C   0  0  0  0  0  0  0  0  0  0  0  0
   63.6138   34.6293   49.7113 H   0  0  0  0  0  0  0  0  0  0  0  0
   64.5027   33.0530   49.4902 H   0  0  0  0  0  0  0  0  0  0  0  0
   63.7180   33.8820   47.8030 O   0  0  0  0  0  0  0  0  0  0  0  0
   63.4490   32.6880   47.1020 C   0  0  0  0  0  0  0  0  0  0  0  0
   63.6465   32.8468   46.0316 H   0  0  0  0  0  0  0  0  0  0  0  0
   64.0982   31.8939   47.4995 H   0  0  0  0  0  0  0  0  0  0  0  0
   61.9770   32.2590   47.2860 C   0  0  0  0  0  0  0  0  0  0  0  0
   61.3988   32.6013   46.4150 H   0  0  0  0  0  0  0  0  0  0  0  0
   61.9587   31.1632   47.3801 H   0  0  0  0  0  0  0  0  0  0  0  0
   58.8860   30.3010   46.6450 C   0  0  0  0  0  0  0  0  0  0  0  0
   58.5754   31.2351   46.1541 H   0  0  0  0  0  0  0  0  0  0  0  0
  1  2  1  0
  2  3  1  0
  3  4  2  0
  3  5  1  0
  2  6  2  0
  6  7  1  0
  6  8  1  0
  8  9  2  0
  9 10  1  0
  9 11  1  0
 11 12  1  0
 11 13  2  0
 13 14  1  0
 13 15  1  0
 15 16  1  0
 16 17  1  0
 17 18  1  0
 17 19  1  0
 17 20  1  0
 20 21  2  0
 21 22  1  0
 21 23  1  0
 23 24  1  0
 23 25  2  0
 25 26  1  0
 25 27  1  0
 27 28  1  0
 27 29  2  0
 29 30  1  0
 30 31  1  0
 30 32  1  0
 30 33  1  0
 33 34  1  0
 33 35  1  0
 35 36  1  0
 35 37  1  0
 35 38  1  0
 38 39  1  0
 38 40  1  0
 38 41  1  0
 41 42  1  0
 42 43  1  0
 42 44  1  0
 42 45  1  0
 45 46  1  0
 45 47  1  0
 15 48  2  0
 48 49  1  0
 48  8  1  0
 29 20  1  0
 45 33  1  0
M  CHG  2   5  -1  33   1
M  END
>  <UniqueID>  (31) 
29

>  <SMILES>  (31) 
O=C([O-])/C=C/c1cccc(OCc2ccccc2C[NH+]2CCOCC2)c1

>  <Energy>  (31) 
66.12824577681528

>  <Genealogy>  (31) 
O=C([O-])C=Cc1cccc(OCc2ccccc2C[NH+]2CCOCC2)c1 (protonated)
O=C([O-])/C=C/c1cccc(OCc2ccccc2C[NH+]2CCOCC2)c1 (cis-trans isomerization)
O=C([O-])/C=C/c1cccc(OCc2ccccc2C[NH+]2CCOCC2)c1 (3D coordinates assigned)
O=C([O-])/C=C/c1cccc(OCc2ccccc2C[NH+]2CCOCC2)c1 (nonaromatic ring conformer: 66.12824577681528 kcal/mol)

>  <smiles>  (31) 
O=C(O)C=Cc1cccc(OCc2ccccc2CN2CCOCC2)c1

>  <score_type>  (31) 
oracle

>  <origin>  (31) 
adg

>  <m_score__min__energy>  (31) 
-9.5600000000000005

>  <m_primary>  (31) 
energy

$$$$
31:0
     RDKit          3D

 45 48  0  0  0  0  0  0  0  0999 V2000
   59.3063   24.8155   44.7100 H   0  0  0  0  0  0  0  0  0  0  0  0
   58.8930   25.6510   45.2940 C   0  0  0  0  0  0  0  0  0  0  0  0
   59.5520   26.4636   45.6337 H   0  0  0  0  0  0  0  0  0  0  0  0
   57.5850   25.6790   45.5920 C   0  0  0  0  0  0  0  0  0  0  0  0
   56.9250   26.6730   46.3230 C   0  0  0  0  0  0  0  0  0  0  0  0
   57.4620   27.7770   46.8780 C   0  0  0  0  0  0  0  0  0  0  0  0
   57.9391   27.6845   47.8648 H   0  0  0  0  0  0  0  0  0  0  0  0
   57.4440   29.1080   46.2300 C   0  0  0  0  0  0  0  0  0  0  0  0
   56.4830   29.3960   45.2570 C   0  0  0  0  0  0  0  0  0  0  0  0
   55.5240   28.4520   44.9070 O   0  0  0  0  0  0  0  0  0  0  0  0
   56.4750   30.6080   44.6530 N   0  0  0  0  0  0  0  0  0  0  0  0
   57.3900   31.5610   44.9600 C   0  0  0  0  0  0  0  0  0  0  0  0
   57.3220   32.6810   44.3850 O   0  0  0  0  0  0  0  0  0  0  0  0
   58.3650   31.3080   45.8890 N   0  0  0  0  0  0  0  0  0  0  0  0
   59.3420   32.3220   46.2090 C   0  0  0  0  0  0  0  0  0  0  0  0
   60.6780   31.9650   46.4590 C   0  0  0  0  0  0  0  0  0  0  0  0
   60.9805   30.9084   46.4129 H   0  0  0  0  0  0  0  0  0  0  0  0
   61.6240   32.9470   46.7660 C   0  0  0  0  0  0  0  0  0  0  0  0
   62.6687   32.6624   46.9597 H   0  0  0  0  0  0  0  0  0  0  0  0
   61.2430   34.2910   46.8270 C   0  0  0  0  0  0  0  0  0  0  0  0
   61.9878   35.0630   47.0703 H   0  0  0  0  0  0  0  0  0  0  0  0
   59.9160   34.6540   46.5790 C   0  0  0  0  0  0  0  0  0  0  0  0
   59.6180   35.7118   46.6254 H   0  0  0  0  0  0  0  0  0  0  0  0
   58.9670   33.6740   46.2720 C   0  0  0  0  0  0  0  0  0  0  0  0
   57.9233   33.9629   46.0792 H   0  0  0  0  0  0  0  0  0  0  0  0
   58.4140   30.0870   46.5140 C   0  0  0  0  0  0  0  0  0  0  0  0
   59.3470   29.8260   47.3260 O   0  0  0  0  0  0  0  0  0  0  0  0
   55.5790   26.3290   46.3240 C   0  0  0  0  0  0  0  0  0  0  0  0
   54.7575   26.8891   46.7946 H   0  0  0  0  0  0  0  0  0  0  0  0
   55.4740   25.1470   45.6190 C   0  0  0  0  0  0  0  0  0  0  0  0
   54.1860   24.4240   45.3600 C   0  0  0  0  0  0  0  0  0  0  0  0
   53.7149   24.1595   46.3182 H   0  0  0  0  0  0  0  0  0  0  0  0
   53.5095   25.0742   44.7859 H   0  0  0  0  0  0  0  0  0  0  0  0
   54.3888   23.5079   44.7859 H   0  0  0  0  0  0  0  0  0  0  0  0
   56.6870   24.7480   45.1770 N   0  0  0  0  0  0  0  0  0  0  0  0
   56.9440   23.5570   44.4120 C   0  0  0  0  0  0  0  0  0  0  0  0
   56.1480   23.2510   43.3490 N   0  0  0  0  0  0  0  0  0  0  0  0
   56.3350   22.1240   42.6120 C   0  0  0  0  0  0  0  0  0  0  0  0
   55.6769   21.9113   41.7566 H   0  0  0  0  0  0  0  0  0  0  0  0
   57.3620   21.2360   42.9400 C   0  0  0  0  0  0  0  0  0  0  0  0
   57.5211   20.3249   42.3445 H   0  0  0  0  0  0  0  0  0  0  0  0
   58.1840   21.5180   44.0320 C   0  0  0  0  0  0  0  0  0  0  0  0
   58.9942   20.8259   44.3051 H   0  0  0  0  0  0  0  0  0  0  0  0
   57.9760   22.6800   44.7770 C   0  0  0  0  0  0  0  0  0  0  0  0
   58.6158   22.9059   45.6428 H   0  0  0  0  0  0  0  0  0  0  0  0
  1  2  1  0
  2  3  1  0
  2  4  2  0
  4  5  1  0
  5  6  2  0
  6  7  1  0
  6  8  1  0
  8  9  2  0
  9 10  1  0
  9 11  1  0
 11 12  1  0
 12 13  2  0
 12 14  1  0
 14 15  1  0
 15 16  2  0
 16 17  1  0
 16 18  1  0
 18 19  1  0
 18 20  2  0
 20 21  1  0
 20 22  1  0
 22 23  1  0
 22 24  2  0
 24 25  1  0
 14 26  1  0
 26 27  2  0
  5 28  1  0
 28 29  1  0
 28 30  2  0
 30 31  1  0
 31 32  1  0
 31 33  1  0
 31 34  1  0
 30 35  1  0
 35 36  1  0
 36 37  2  0
 37 38  1  0
 38 39  1  0
 38 40  2  0
 40 41  1  0
 40 42  1  0
 42 43  1  0
 42 44  2  0
 44 45  1  0
 35  4  1  0
 44 36  1  0
 26  8  1  0
 24 15  1  0
M  CHG  2  10  -1  11  -1
M  END
>  <UniqueID>  (32) 
30

>  <SMILES>  (32) 
C=c1/c(=C/c2c([O-])[n-]c(=O)n(-c3ccccc3)c2=O)cc(C)n1-c1ccccn1

>  <Energy>  (32) 
104.78653750274893

>  <Genealogy>  (32) 
C=c1c(=Cc2c([O-])[n-]c(=O)n(-c3ccccc3)c2=O)cc(C)n1-c1ccccn1 (protonated)
C=c1/c(=C/c2c([O-])[n-]c(=O)n(-c3ccccc3)c2=O)cc(C)n1-c1ccccn1 (cis-trans isomerization)
C=c1/c(=C/c2c([O-])[n-]c(=O)n(-c3ccccc3)c2=O)cc(C)n1-c1ccccn1 (3D coordinates assigned)
C=c1/c(=C/c2c([O-])[n-]c(=O)n(-c3ccccc3)c2=O)cc(C)n1-c1ccccn1 (optimized conformer: 104.78653750274893 kcal/mol)

>  <smiles>  (32) 
C=c1c(=Cc2c(O)[nH]c(=O)n(-c3ccccc3)c2=O)cc(C)n1-c1ccccn1

>  <score_type>  (32) 
oracle

>  <origin>  (32) 
adg

>  <m_score__min__energy>  (32) 
-13.380000000000001

>  <m_primary>  (32) 
energy

$$$$
32:0
     RDKit          3D

 57 61  0  0  0  0  0  0  0  0999 V2000
   69.3370   26.3170   49.7240 C   0  0  0  0  0  0  0  0  0  0  0  0
   68.1210   25.9740   50.3790 O   0  0  0  0  0  0  0  0  0  0  0  0
   67.2150   26.9070   50.9050 C   0  0  0  0  0  0  0  0  0  0  0  0
   66.0400   26.5140   51.6050 C   0  0  0  0  0  0  0  0  0  0  0  0
   65.1530   27.4780   52.1170 C   0  0  0  0  0  0  0  0  0  0  0  0
   65.4610   28.8210   51.9220 C   0  0  0  0  0  0  0  0  0  0  0  0
   66.5960   29.2090   51.2460 C   0  0  0  0  0  0  0  0  0  0  0  0
   67.4900   28.2770   50.7230 C   0  0  0  0  0  0  0  0  0  0  0  0
   66.6080   30.6670   51.2020 C   0  0  0  0  0  0  0  0  0  0  0  0
   67.4710   31.3770   50.6210 O   0  0  0  0  0  0  0  0  0  0  0  0
   65.4690   31.1880   51.8920 N   0  0  0  0  0  0  0  0  0  0  0  0
   64.9410   32.5450   51.7870 C   0  0  0  0  0  0  0  0  0  0  0  0
   64.7210   32.9180   50.3200 C   0  0  0  0  0  0  0  0  0  0  0  0
   63.3080   32.6110   49.9020 C   0  0  0  0  0  0  0  0  0  0  0  0
   62.2280   33.2220   50.5560 C   0  0  0  0  0  0  0  0  0  0  0  0
   60.9180   32.9680   50.1420 C   0  0  0  0  0  0  0  0  0  0  0  0
   60.6680   32.1040   49.0640 C   0  0  0  0  0  0  0  0  0  0  0  0
   59.2580   31.8740   48.5900 C   0  0  0  0  0  0  0  0  0  0  0  0
   58.9400   32.7770   47.4840 N   0  0  0  0  0  0  0  0  0  0  0  0
   59.4820   34.0890   47.2970 C   0  0  0  0  0  0  0  0  0  0  0  0
   60.0530   34.7570   48.1990 O   0  0  0  0  0  0  0  0  0  0  0  0
   59.2920   34.5170   45.9200 C   0  0  0  0  0  0  0  0  0  0  0  0
   59.6410   35.6130   45.4090 O   0  0  0  0  0  0  0  0  0  0  0  0
   58.6280   33.4090   45.2560 C   0  0  0  0  0  0  0  0  0  0  0  0
   58.2240   33.2630   43.9320 C   0  0  0  0  0  0  0  0  0  0  0  0
   57.6100   32.0570   43.5560 C   0  0  0  0  0  0  0  0  0  0  0  0
   57.4150   31.0240   44.5020 C   0  0  0  0  0  0  0  0  0  0  0  0
   56.6330   29.5220   44.0230 S   0  0  0  0  0  0  0  0  0  0  0  0
   55.1460   29.3450   44.8830 N   0  0  0  0  0  0  0  0  0  0  0  0
   57.5360   28.3600   44.3310 O   0  0  0  0  0  0  0  0  0  0  0  0
   56.3560   29.5390   42.5450 O   0  0  0  0  0  0  0  0  0  0  0  0
   57.8270   31.2030   45.8370 C   0  0  0  0  0  0  0  0  0  0  0  0
   58.4420   32.4060   46.1920 C   0  0  0  0  0  0  0  0  0  0  0  0
   61.7510   31.5050   48.4000 C   0  0  0  0  0  0  0  0  0  0  0  0
   63.0620   31.7590   48.8140 C   0  0  0  0  0  0  0  0  0  0  0  0
   64.7440   30.0290   52.3130 C   0  0  0  0  0  0  0  0  0  0  0  0
   63.6340   30.0650   52.9080 O   0  0  0  0  0  0  0  0  0  0  0  0
   70.1097   26.5350   50.4760 H   0  0  0  0  0  0  0  0  0  0  0  0
   69.6644   25.4762   49.0949 H   0  0  0  0  0  0  0  0  0  0  0  0
   69.1768   27.2050   49.0949 H   0  0  0  0  0  0  0  0  0  0  0  0
   65.8232   25.4450   51.7472 H   0  0  0  0  0  0  0  0  0  0  0  0
   64.2420   27.1789   52.6561 H   0  0  0  0  0  0  0  0  0  0  0  0
   68.3897   28.6031   50.1806 H   0  0  0  0  0  0  0  0  0  0  0  0
   63.9827   32.6039   52.3239 H   0  0  0  0  0  0  0  0  0  0  0  0
   65.6648   33.2454   52.2292 H   0  0  0  0  0  0  0  0  0  0  0  0
   64.9117   33.9932   50.1878 H   0  0  0  0  0  0  0  0  0  0  0  0
   65.4110   32.3300   49.6970 H   0  0  0  0  0  0  0  0  0  0  0  0
   62.4133   33.9043   51.3987 H   0  0  0  0  0  0  0  0  0  0  0  0
   60.0771   33.4480   50.6640 H   0  0  0  0  0  0  0  0  0  0  0  0
   59.1550   30.8331   48.2496 H   0  0  0  0  0  0  0  0  0  0  0  0
   58.5649   32.0692   49.4216 H   0  0  0  0  0  0  0  0  0  0  0  0
   58.3812   34.0695   43.2007 H   0  0  0  0  0  0  0  0  0  0  0  0
   57.2780   31.9148   42.5170 H   0  0  0  0  0  0  0  0  0  0  0  0
   55.3060   28.6250   45.6230 H   0  0  0  0  0  0  0  0  0  0  0  0
   57.6678   30.4119   46.5845 H   0  0  0  0  0  0  0  0  0  0  0  0
   61.5667   30.8322   47.5495 H   0  0  0  0  0  0  0  0  0  0  0  0
   63.9042   31.2892   48.2849 H   0  0  0  0  0  0  0  0  0  0  0  0
  1  2  1  0
  2  3  1  0
  3  4  2  0
  4  5  1  0
  5  6  2  0
  6  7  1  0
  7  8  2  0
  7  9  1  0
  9 10  2  0
  9 11  1  0
 11 12  1  0
 12 13  1  0
 13 14  1  0
 14 15  2  0
 15 16  1  0
 16 17  2  0
 17 18  1  0
 18 19  1  0
 19 20  1  0
 20 21  2  0
 20 22  1  0
 22 23  2  0
 22 24  1  0
 24 25  2  0
 25 26  1  0
 26 27  2  0
 27 28  1  0
 28 29  1  0
 28 30  2  0
 28 31  2  0
 27 32  1  0
 32 33  2  0
 17 34  1  0
 34 35  2  0
 11 36  1  0
 36 37  2  0
  8  3  1  0
 35 14  1  0
 36  6  1  0
 33 19  1  0
 33 24  1  0
  1 38  1  0
  1 39  1  0
  1 40  1  0
  4 41  1  0
  5 42  1  0
  8 43  1  0
 12 44  1  0
 12 45  1  0
 13 46  1  0
 13 47  1  0
 15 48  1  0
 16 49  1  0
 18 50  1  0
 18 51  1  0
 25 52  1  0
 26 53  1  0
 29 54  1  0
 32 55  1  0
 34 56  1  0
 35 57  1  0
M  CHG  1  29  -1
M  END
>  <UniqueID>  (33) 
31

>  <SMILES>  (33) 
COc1ccc2c(c1)C(=O)N(CCc1ccc(CN3C(=O)C(=O)c4ccc(S([NH-])(=O)=O)cc43)cc1)C2=O

>  <Energy>  (33) 
120.16415389651138

>  <Genealogy>  (33) 
COc1ccc2c(c1)C(=O)N(CCc1ccc(CN3C(=O)C(=O)c4ccc(S([NH-])(=O)=O)cc43)cc1)C2=O (protonated)
COc1ccc2c(c1)C(=O)N(CCc1ccc(CN3C(=O)C(=O)c4ccc(S([NH-])(=O)=O)cc43)cc1)C2=O (3D coordinates assigned)
COc1ccc2c(c1)C(=O)N(CCc1ccc(CN3C(=O)C(=O)c4ccc(S([NH-])(=O)=O)cc43)cc1)C2=O (nonaromatic ring conformer: 120.16415389651138 kcal/mol)

>  <smiles>  (33) 
COc1ccc2c(c1)C(=O)N(CCc1ccc(CN3C(=O)C(=O)c4ccc(S(N)(=O)=O)cc43)cc1)C2=O

>  <score_type>  (33) 
oracle

>  <origin>  (33) 
adg

>  <m_score__min__energy>  (33) 
-13.15

>  <m_primary>  (33) 
energy

$$$$
33:0
     RDKit          3D

 56 59  0  0  0  0  0  0  0  0999 V2000
   60.1840   29.8680   50.8200 O   0  0  0  0  0  0  0  0  0  0  0  0
   61.0810   29.6920   49.9550 C   0  0  0  0  0  0  0  0  0  0  0  0
   60.7920   28.7900   48.7790 C   0  0  0  0  0  0  0  0  0  0  0  0
   60.7940   29.5270   47.5020 N   0  0  0  0  0  0  0  0  0  0  0  0
   59.5450   30.2780   47.2790 C   0  0  2  0  0  0  0  0  0  0  0  0
   59.0060   30.7290   48.4970 O   0  0  0  0  0  0  0  0  0  0  0  0
   58.5460   29.4050   46.5690 C   0  0  0  0  0  0  0  0  0  0  0  0
   57.3730   29.8190   45.9650 C   0  0  0  0  0  0  0  0  0  0  0  0
   56.7560   28.6660   45.5310 C   0  0  0  0  0  0  0  0  0  0  0  0
   55.5180   28.6280   44.8990 O   0  0  0  0  0  0  0  0  0  0  0  0
   57.4890   27.5740   45.8390 N   0  0  0  0  0  0  0  0  0  0  0  0
   57.1630   26.1960   45.5750 C   0  0  0  0  0  0  0  0  0  0  0  0
   57.6460   25.5540   44.4220 C   0  0  0  0  0  0  0  0  0  0  0  0
   57.3240   24.2180   44.1720 C   0  0  0  0  0  0  0  0  0  0  0  0
   56.5240   23.5080   45.0710 C   0  0  0  0  0  0  0  0  0  0  0  0
   56.0460   24.1340   46.2250 C   0  0  0  0  0  0  0  0  0  0  0  0
   56.3660   25.4700   46.4790 C   0  0  0  0  0  0  0  0  0  0  0  0
   58.5840   28.0220   46.4880 C   0  0  0  0  0  0  0  0  0  0  0  0
   62.3420   30.3520   50.1270 N   0  0  0  0  0  0  0  0  0  0  0  0
   62.5210   31.7880   50.2900 C   0  0  0  0  0  0  0  0  0  0  0  0
   62.4520   32.4550   48.9470 C   0  0  0  0  0  0  0  0  0  0  0  0
   63.6240   32.8470   48.2850 C   0  0  0  0  0  0  0  0  0  0  0  0
   63.5480   33.4910   47.0480 C   0  0  0  0  0  0  0  0  0  0  0  0
   62.3060   33.7510   46.4640 C   0  0  0  0  0  0  0  0  0  0  0  0
   61.1200   33.3700   47.1140 C   0  0  0  0  0  0  0  0  0  0  0  0
   59.8360   33.6610   46.5300 N   0  0  0  0  0  0  0  0  0  0  0  0
   59.6410   34.2530   45.2150 C   0  0  0  0  0  0  0  0  0  0  0  0
   58.1300   34.1670   44.9310 C   0  0  0  0  0  0  0  0  0  0  0  0
   57.4420   33.8160   46.2590 C   0  0  0  0  0  0  0  0  0  0  0  0
   58.5710   33.4560   47.1380 C   0  0  0  0  0  0  0  0  0  0  0  0
   58.4270   33.0680   48.3290 O   0  0  0  0  0  0  0  0  0  0  0  0
   61.2040   32.7350   48.3660 C   0  0  0  0  0  0  0  0  0  0  0  0
   61.5611   28.0047   48.7367 H   0  0  0  0  0  0  0  0  0  0  0  0
   59.7898   28.3593   48.9203 H   0  0  0  0  0  0  0  0  0  0  0  0
   61.6020   30.1920   47.4990 H   0  0  0  0  0  0  0  0  0  0  0  0
   59.7733   31.1555   46.6563 H   0  0  0  0  0  0  0  0  0  0  0  0
   59.7440   31.1450   49.0160 H   0  0  0  0  0  0  0  0  0  0  0  0
   57.0092   30.8512   45.8543 H   0  0  0  0  0  0  0  0  0  0  0  0
   58.2806   26.1061   43.7131 H   0  0  0  0  0  0  0  0  0  0  0  0
   57.7013   23.7234   43.2648 H   0  0  0  0  0  0  0  0  0  0  0  0
   56.2706   22.4566   44.8703 H   0  0  0  0  0  0  0  0  0  0  0  0
   55.4175   23.5748   46.9338 H   0  0  0  0  0  0  0  0  0  0  0  0
   55.9924   25.9574   47.3916 H   0  0  0  0  0  0  0  0  0  0  0  0
   59.3854   27.3858   46.8916 H   0  0  0  0  0  0  0  0  0  0  0  0
   61.7263   32.1856   50.9384 H   0  0  0  0  0  0  0  0  0  0  0  0
   63.5010   31.9863   50.7486 H   0  0  0  0  0  0  0  0  0  0  0  0
   64.6050   32.6470   48.7406 H   0  0  0  0  0  0  0  0  0  0  0  0
   64.4703   33.7948   46.5313 H   0  0  0  0  0  0  0  0  0  0  0  0
   62.2561   34.2574   45.4888 H   0  0  0  0  0  0  0  0  0  0  0  0
   59.9707   35.3024   45.2155 H   0  0  0  0  0  0  0  0  0  0  0  0
   60.2262   33.7278   44.4458 H   0  0  0  0  0  0  0  0  0  0  0  0
   57.7602   35.1335   44.5580 H   0  0  0  0  0  0  0  0  0  0  0  0
   57.9173   33.4059   44.1658 H   0  0  0  0  0  0  0  0  0  0  0  0
   56.8910   34.6802   46.6584 H   0  0  0  0  0  0  0  0  0  0  0  0
   56.6982   33.0116   46.1604 H   0  0  0  0  0  0  0  0  0  0  0  0
   60.2820   32.4544   48.8963 H   0  0  0  0  0  0  0  0  0  0  0  0
  1  2  2  0
  2  3  1  0
  3  4  1  0
  4  5  1  0
  5  6  1  0
  5  7  1  0
  7  8  1  0
  8  9  2  0
  9 10  1  0
  9 11  1  0
 11 12  1  0
 12 13  2  0
 13 14  1  0
 14 15  2  0
 15 16  1  0
 16 17  2  0
 11 18  1  0
  2 19  1  0
 19 20  1  0
 20 21  1  0
 21 22  2  0
 22 23  1  0
 23 24  2  0
 24 25  1  0
 25 26  1  0
 26 27  1  0
 27 28  1  0
 28 29  1  0
 29 30  1  0
 30 31  2  0
 25 32  2  0
 18  7  2  0
 32 21  1  0
 17 12  1  0
 30 26  1  0
  3 33  1  0
  3 34  1  0
  4 35  1  0
  5 36  1  6
  6 37  1  0
  8 38  1  0
 13 39  1  0
 14 40  1  0
 15 41  1  0
 16 42  1  0
 17 43  1  0
 18 44  1  0
 20 45  1  0
 20 46  1  0
 22 47  1  0
 23 48  1  0
 24 49  1  0
 27 50  1  0
 27 51  1  0
 28 52  1  0
 28 53  1  0
 29 54  1  0
 29 55  1  0
 32 56  1  0
M  CHG  2  10  -1  19  -1
M  END
>  <UniqueID>  (34) 
32

>  <SMILES>  (34) 
O=C(CN[C@H](O)c1cc([O-])n(-c2ccccc2)c1)[N-]Cc1cccc(N2CCCC2=O)c1

>  <Energy>  (34) 
99.58449189358365

>  <Genealogy>  (34) 
O=C(CNC(O)c1cc([O-])n(-c2ccccc2)c1)[N-]Cc1cccc(N2CCCC2=O)c1 (protonated)
O=C(CN[C@H](O)c1cc([O-])n(-c2ccccc2)c1)[N-]Cc1cccc(N2CCCC2=O)c1 (chirality)
O=C(CN[C@H](O)c1cc([O-])n(-c2ccccc2)c1)[N-]Cc1cccc(N2CCCC2=O)c1 (3D coordinates assigned)
O=C(CN[C@H](O)c1cc([O-])n(-c2ccccc2)c1)[N-]Cc1cccc(N2CCCC2=O)c1 (nonaromatic ring conformer: 99.58449189358365 kcal/mol)

>  <smiles>  (34) 
O=C(CNC(O)c1cc(O)n(-c2ccccc2)c1)NCc1cccc(N2CCCC2=O)c1

>  <score_type>  (34) 
oracle

>  <origin>  (34) 
adg

>  <m_score__min__energy>  (34) 
-12.81

>  <m_primary>  (34) 
energy

$$$$
34:0
     RDKit          3D

 48 51  0  0  0  0  0  0  0  0999 V2000
   56.0350   27.1570   45.6320 O   0  0  0  0  0  0  0  0  0  0  0  0
   57.0220   27.8930   45.9950 C   0  0  0  0  0  0  0  0  0  0  0  0
   57.8050   27.4190   47.1440 C   0  0  0  0  0  0  0  0  0  0  0  0
   59.3430   26.5780   46.5430 S   0  0  0  0  0  0  0  0  0  0  0  0
   58.8240   25.0650   45.6880 C   0  0  0  0  0  0  0  0  0  0  0  0
   59.5820   23.9550   45.7580 N   0  0  0  0  0  0  0  0  0  0  0  0
   59.1820   22.8100   45.1420 C   0  0  0  0  0  0  0  0  0  0  0  0
   59.8680   21.7480   45.1880 O   0  0  0  0  0  0  0  0  0  0  0  0
   57.9940   22.7700   44.4360 C   0  0  0  0  0  0  0  0  0  0  0  0
   57.3330   21.7730   43.7230 C   0  0  0  0  0  0  0  0  0  0  0  0
   56.2020   22.3350   43.2550 N   0  0  0  0  0  0  0  0  0  0  0  0
   56.1270   23.6100   43.6340 N   0  0  0  0  0  0  0  0  0  0  0  0
   57.2160   23.9330   44.3710 C   0  0  0  0  0  0  0  0  0  0  0  0
   57.6640   25.0300   44.9990 N   0  0  0  0  0  0  0  0  0  0  0  0
   57.2340   29.0610   45.2540 N   0  0  0  0  0  0  0  0  0  0  0  0
   56.2920   29.3670   44.1890 C   0  0  0  0  0  0  0  0  0  0  0  0
   56.2820   30.8530   43.8800 C   0  0  0  0  0  0  0  0  0  0  0  0
   57.6630   31.2990   43.4190 C   0  0  0  0  0  0  0  0  0  0  0  0
   57.7970   32.7750   43.6690 C   0  0  0  0  0  0  0  0  0  0  0  0
   58.2090   33.0230   45.0680 C   0  0  0  0  0  0  0  0  0  0  0  0
   59.5050   33.5090   45.2470 C   0  0  0  0  0  0  0  0  0  0  0  0
   60.0170   33.7930   46.4910 C   0  0  0  0  0  0  0  0  0  0  0  0
   59.2200   33.5900   47.5890 C   0  0  0  0  0  0  0  0  0  0  0  0
   57.9160   33.1060   47.4440 C   0  0  0  0  0  0  0  0  0  0  0  0
   57.4110   32.8220   46.1690 C   0  0  0  0  0  0  0  0  0  0  0  0
   58.7360   30.4870   44.0640 C   0  0  0  0  0  0  0  0  0  0  0  0
   58.3350   29.9840   45.4470 C   0  0  0  0  0  0  0  0  0  0  0  0
   58.0796   28.2749   47.7781 H   0  0  0  0  0  0  0  0  0  0  0  0
   57.2032   26.7068   47.7276 H   0  0  0  0  0  0  0  0  0  0  0  0
   57.6671   20.7359   43.5724 H   0  0  0  0  0  0  0  0  0  0  0  0
   55.5200   21.7980   42.6810 H   0  0  0  0  0  0  0  0  0  0  0  0
   57.0660   25.8860   44.9340 H   0  0  0  0  0  0  0  0  0  0  0  0
   56.5811   28.8135   43.2834 H   0  0  0  0  0  0  0  0  0  0  0  0
   55.2847   29.0712   44.5173 H   0  0  0  0  0  0  0  0  0  0  0  0
   55.5498   31.0546   43.0843 H   0  0  0  0  0  0  0  0  0  0  0  0
   56.0081   31.4087   44.7889 H   0  0  0  0  0  0  0  0  0  0  0  0
   57.7813   31.1253   42.3393 H   0  0  0  0  0  0  0  0  0  0  0  0
   58.5544   33.1911   42.9884 H   0  0  0  0  0  0  0  0  0  0  0  0
   56.8248   33.2580   43.4911 H   0  0  0  0  0  0  0  0  0  0  0  0
   60.1386   33.6704   44.3624 H   0  0  0  0  0  0  0  0  0  0  0  0
   61.0426   34.1744   46.6033 H   0  0  0  0  0  0  0  0  0  0  0  0
   59.6105   33.8101   48.5935 H   0  0  0  0  0  0  0  0  0  0  0  0
   57.2864   32.9482   48.3321 H   0  0  0  0  0  0  0  0  0  0  0  0
   56.3857   32.4418   46.0498 H   0  0  0  0  0  0  0  0  0  0  0  0
   58.9561   29.6203   43.4233 H   0  0  0  0  0  0  0  0  0  0  0  0
   59.6175   31.1336   44.1857 H   0  0  0  0  0  0  0  0  0  0  0  0
   59.1823   29.4686   45.9228 H   0  0  0  0  0  0  0  0  0  0  0  0
   58.0406   30.8185   46.1004 H   0  0  0  0  0  0  0  0  0  0  0  0
  1  2  2  0
  2  3  1  0
  3  4  1  0
  4  5  1  0
  5  6  2  0
  6  7  1  0
  7  8  2  0
  7  9  1  0
  9 10  2  0
 10 11  1  0
 11 12  1  0
 12 13  2  0
 13 14  1  0
  2 15  1  0
 15 16  1  0
 16 17  1  0
 17 18  1  0
 18 19  1  0
 19 20  1  0
 20 21  2  0
 21 22  1  0
 22 23  2  0
 23 24  1  0
 24 25  2  0
 18 26  1  0
 26 27  1  0
 14  5  1  0
 27 15  1  0
 13  9  1  0
 25 20  1  0
  3 28  1  0
  3 29  1  0
 10 30  1  0
 11 31  1  0
 14 32  1  0
 16 33  1  0
 16 34  1  0
 17 35  1  0
 17 36  1  0
 18 37  1  0
 19 38  1  0
 19 39  1  0
 21 40  1  0
 22 41  1  0
 23 42  1  0
 24 43  1  0
 25 44  1  0
 26 45  1  0
 26 46  1  0
 27 47  1  0
 27 48  1  0
M  END
>  <smiles>  (35) 
O=C(CSc1nc(=O)c2c[nH]nc2[nH]1)N1CCC(Cc2ccccc2)CC1

>  <score_type>  (35) 
oracle

>  <origin>  (35) 
adg

>  <m_score__min__energy>  (35) 
-8.7200000000000006

>  <m_primary>  (35) 
energy

$$$$
35:0
     RDKit          3D

 46 48  0  0  0  0  0  0  0  0999 V2000
   59.2740   35.5830   44.5430 O   0  0  0  0  0  0  0  0  0  0  0  0
   58.8620   34.7830   45.4230 C   0  0  0  0  0  0  0  0  0  0  0  0
   58.0330   33.5950   45.0080 C   0  0  0  0  0  0  0  0  0  0  0  0
   58.7530   32.2770   45.3150 C   0  0  0  0  0  0  0  0  0  0  0  0
   57.7850   31.2680   45.9330 C   0  0  0  0  0  0  0  0  0  0  0  0
   56.9760   30.6510   44.8900 N   0  0  0  0  0  0  0  0  0  0  0  0
   56.3840   29.3520   45.0040 C   0  0  0  0  0  0  0  0  0  0  0  0
   55.1500   29.2210   44.7900 O   0  0  0  0  0  0  0  0  0  0  0  0
   57.1710   28.1750   45.4170 C   0  0  0  0  0  0  0  0  0  0  0  0
   58.5700   28.2250   45.3760 C   0  0  0  0  0  0  0  0  0  0  0  0
   59.3200   27.1070   45.7410 C   0  0  0  0  0  0  0  0  0  0  0  0
   58.6600   25.9460   46.1530 C   0  0  0  0  0  0  0  0  0  0  0  0
   59.3210   24.9250   46.4760 O   0  0  0  0  0  0  0  0  0  0  0  0
   57.3020   25.9190   46.2100 N   0  0  0  0  0  0  0  0  0  0  0  0
   56.5480   26.9960   45.8630 C   0  0  0  0  0  0  0  0  0  0  0  0
   55.1650   26.9220   45.9760 O   0  0  0  0  0  0  0  0  0  0  0  0
   59.1540   35.0600   46.8020 N   0  0  0  0  0  0  0  0  0  0  0  0
   60.2030   34.4480   47.5610 C   0  0  0  0  0  0  0  0  0  0  0  0
   61.3670   33.9680   46.9380 C   0  0  0  0  0  0  0  0  0  0  0  0
   62.3350   33.2910   47.6830 C   0  0  0  0  0  0  0  0  0  0  0  0
   62.1590   33.1040   49.0600 C   0  0  0  0  0  0  0  0  0  0  0  0
   63.2810   32.1050   49.9760 S   0  0  0  0  0  0  0  0  0  0  0  0
   63.4750   32.7120   51.3370 O   0  0  0  0  0  0  0  0  0  0  0  0
   64.6140   32.0280   49.2850 O   0  0  0  0  0  0  0  0  0  0  0  0
   62.6290   30.5070   50.1490 N   0  0  0  0  0  0  0  0  0  0  0  0
   61.4370   30.1740   49.7590 C   0  0  0  0  0  0  0  0  0  0  0  0
   60.4340   29.8320   50.5960 N   0  0  0  0  0  0  0  0  0  0  0  0
   59.3040   29.5140   49.9110 C   0  0  0  0  0  0  0  0  0  0  0  0
   59.4070   29.6070   48.5280 C   0  0  0  0  0  0  0  0  0  0  0  0
   60.9710   30.1010   48.1500 S   0  0  0  0  0  0  0  0  0  0  0  0
   61.0290   33.6400   49.6930 C   0  0  0  0  0  0  0  0  0  0  0  0
   60.0630   34.3210   48.9470 C   0  0  0  0  0  0  0  0  0  0  0  0
   57.0780   33.6167   45.5534 H   0  0  0  0  0  0  0  0  0  0  0  0
   57.8636   33.6527   43.9227 H   0  0  0  0  0  0  0  0  0  0  0  0
   59.1612   31.8619   44.3817 H   0  0  0  0  0  0  0  0  0  0  0  0
   59.5652   32.4741   46.0302 H   0  0  0  0  0  0  0  0  0  0  0  0
   58.3570   30.4894   46.4590 H   0  0  0  0  0  0  0  0  0  0  0  0
   57.1245   31.7886   46.6421 H   0  0  0  0  0  0  0  0  0  0  0  0
   59.0778   29.1467   45.0557 H   0  0  0  0  0  0  0  0  0  0  0  0
   60.4189   27.1388   45.7050 H   0  0  0  0  0  0  0  0  0  0  0  0
   61.5165   34.1259   45.8597 H   0  0  0  0  0  0  0  0  0  0  0  0
   63.2375   32.9038   47.1874 H   0  0  0  0  0  0  0  0  0  0  0  0
   58.3758   29.2056   50.4143 H   0  0  0  0  0  0  0  0  0  0  0  0
   58.6052   29.3945   47.8056 H   0  0  0  0  0  0  0  0  0  0  0  0
   60.9022   33.5244   50.7795 H   0  0  0  0  0  0  0  0  0  0  0  0
   59.1892   34.7588   49.4518 H   0  0  0  0  0  0  0  0  0  0  0  0
  1  2  2  0
  2  3  1  0
  3  4  1  0
  4  5  1  0
  5  6  1  0
  6  7  1  0
  7  8  2  0
  7  9  1  0
  9 10  1  0
 10 11  2  0
 11 12  1  0
 12 13  2  0
 12 14  1  0
 14 15  1  0
 15 16  1  0
  2 17  1  0
 17 18  1  0
 18 19  2  0
 19 20  1  0
 20 21  2  0
 21 22  1  0
 22 23  2  0
 22 24  2  0
 22 25  1  0
 25 26  2  3
 26 27  1  0
 27 28  1  0
 28 29  2  0
 29 30  1  0
 21 31  1  0
 31 32  2  0
 15  9  2  0
 32 18  1  0
 30 26  1  0
  3 33  1  0
  3 34  1  0
  4 35  1  0
  4 36  1  0
  5 37  1  0
  5 38  1  0
 10 39  1  0
 11 40  1  0
 19 41  1  0
 20 42  1  0
 28 43  1  0
 29 44  1  0
 31 45  1  0
 32 46  1  0
M  CHG  5   6  -1  14  -1  16  -1  17  -1  27  -1
M  END
>  <UniqueID>  (36) 
33

>  <SMILES>  (36) 
O=C(CCC[N-]C(=O)c1ccc(=O)[n-]c1[O-])[N-]c1ccc(S(=O)(=O)N=c2[n-]ccs2)cc1

>  <Energy>  (36) 
86.36893413249733

>  <Genealogy>  (36) 
O=C(CCC[N-]C(=O)c1ccc(=O)[n-]c1[O-])[N-]c1ccc(S(=O)(=O)N=c2[n-]ccs2)cc1 (protonated)
O=C(CCC[N-]C(=O)c1ccc(=O)[n-]c1[O-])[N-]c1ccc(S(=O)(=O)N=c2[n-]ccs2)cc1 (3D coordinates assigned)
O=C(CCC[N-]C(=O)c1ccc(=O)[n-]c1[O-])[N-]c1ccc(S(=O)(=O)N=c2[n-]ccs2)cc1 (optimized conformer: 86.36893413249733 kcal/mol)

>  <smiles>  (36) 
O=C(CCCNC(=O)c1ccc(=O)[nH]c1O)Nc1ccc(S(=O)(=O)N=c2[nH]ccs2)cc1

>  <score_type>  (36) 
oracle

>  <origin>  (36) 
adg

>  <m_score__min__energy>  (36) 
-19.550000000000001

>  <m_primary>  (36) 
energy

$$$$
36:0
     RDKit          3D

 39 41  0  0  0  0  0  0  0  0999 V2000
   56.6240   29.6690   42.7620 C   0  0  0  0  0  0  0  0  0  0  0  0
   57.2730   29.3350   43.9050 C   0  0  0  0  0  0  0  0  0  0  0  0
   57.4800   30.2980   44.9490 C   0  0  0  0  0  0  0  0  0  0  0  0
   57.3680   31.6370   44.7290 C   0  0  0  0  0  0  0  0  0  0  0  0
   58.1930   32.6930   45.3570 C   0  0  0  0  0  0  0  0  0  0  0  0
   59.3660   32.4920   45.9860 N   0  0  0  0  0  0  0  0  0  0  0  0
   59.6690   33.7090   46.4850 C   0  0  0  0  0  0  0  0  0  0  0  0
   60.7200   33.9310   47.1410 O   0  0  0  0  0  0  0  0  0  0  0  0
   58.7510   34.6670   46.2360 N   0  0  0  0  0  0  0  0  0  0  0  0
   57.8190   34.0040   45.5320 C   0  0  0  0  0  0  0  0  0  0  0  0
   56.6460   34.5820   45.0590 O   0  0  0  0  0  0  0  0  0  0  0  0
   57.8920   29.8290   46.2120 C   0  0  0  0  0  0  0  0  0  0  0  0
   58.0380   28.4740   46.4700 C   0  0  0  0  0  0  0  0  0  0  0  0
   57.8640   27.5160   45.4640 C   0  0  0  0  0  0  0  0  0  0  0  0
   57.8730   26.2120   45.8500 C   0  0  0  0  0  0  0  0  0  0  0  0
   56.7470   25.2530   45.7260 C   0  0  0  0  0  0  0  0  0  0  0  0
   55.4310   25.7180   45.7930 C   0  0  0  0  0  0  0  0  0  0  0  0
   55.1650   27.0670   46.0010 O   0  0  0  0  0  0  0  0  0  0  0  0
   54.4010   24.8480   45.6750 N   0  0  0  0  0  0  0  0  0  0  0  0
   54.6080   23.5240   45.4660 C   0  0  0  0  0  0  0  0  0  0  0  0
   53.6100   22.7570   45.3910 O   0  0  0  0  0  0  0  0  0  0  0  0
   55.8830   23.0340   45.3380 N   0  0  0  0  0  0  0  0  0  0  0  0
   56.1060   21.5940   45.1270 C   0  0  0  0  0  0  0  0  0  0  0  0
   56.9530   23.8830   45.4720 C   0  0  0  0  0  0  0  0  0  0  0  0
   58.1310   23.4410   45.3560 O   0  0  0  0  0  0  0  0  0  0  0  0
   57.6750   27.9740   44.1220 C   0  0  0  0  0  0  0  0  0  0  0  0
   58.0210   27.1910   43.0730 C   0  0  0  0  0  0  0  0  0  0  0  0
   56.4755   28.9162   41.9738 H   0  0  0  0  0  0  0  0  0  0  0  0
   56.2461   30.6927   42.6231 H   0  0  0  0  0  0  0  0  0  0  0  0
   56.5934   31.9638   44.0196 H   0  0  0  0  0  0  0  0  0  0  0  0
   55.9660   34.9690   45.7020 H   0  0  0  0  0  0  0  0  0  0  0  0
   58.1027   30.5541   47.0119 H   0  0  0  0  0  0  0  0  0  0  0  0
   58.2962   28.1449   47.4874 H   0  0  0  0  0  0  0  0  0  0  0  0
   58.8035   25.8317   46.2967 H   0  0  0  0  0  0  0  0  0  0  0  0
   56.1843   21.0885   46.1008 H   0  0  0  0  0  0  0  0  0  0  0  0
   55.2626   21.1714   44.5613 H   0  0  0  0  0  0  0  0  0  0  0  0
   57.0377   21.4463   44.5613 H   0  0  0  0  0  0  0  0  0  0  0  0
   57.8719   27.5518   42.0446 H   0  0  0  0  0  0  0  0  0  0  0  0
   58.4512   26.1941   43.2492 H   0  0  0  0  0  0  0  0  0  0  0  0
  1  2  2  0
  2  3  1  0
  3  4  2  3
  4  5  1  0
  5  6  1  0
  6  7  1  0
  7  8  2  0
  7  9  1  0
  9 10  1  0
 10 11  1  0
  3 12  1  0
 12 13  2  0
 13 14  1  0
 14 15  2  3
 15 16  1  0
 16 17  2  0
 17 18  1  0
 17 19  1  0
 19 20  1  0
 20 21  2  0
 20 22  1  0
 22 23  1  0
 22 24  1  0
 24 25  2  0
 14 26  1  0
 26 27  2  0
 26  2  1  0
 10  5  2  0
 24 16  1  0
  1 28  1  0
  1 29  1  0
  4 30  1  0
 11 31  1  0
 12 32  1  0
 13 33  1  0
 15 34  1  0
 23 35  1  0
 23 36  1  0
 23 37  1  0
 27 38  1  0
 27 39  1  0
M  CHG  4   6  -1   9  -1  18  -1  19  -1
M  END
>  <UniqueID>  (37) 
34

>  <SMILES>  (37) 
C=c1c(=Cc2[n-]c(=O)[n-]c2O)ccc(=Cc2c([O-])[n-]c(=O)n(C)c2=O)c1=C

>  <Energy>  (37) 
122.88878490730237

>  <Genealogy>  (37) 
C=c1c(=Cc2[n-]c(=O)[n-]c2O)ccc(=Cc2c([O-])[n-]c(=O)n(C)c2=O)c1=C (protonated)
C=c1c(=Cc2[n-]c(=O)[n-]c2O)ccc(=Cc2c([O-])[n-]c(=O)n(C)c2=O)c1=C (3D coordinates assigned)
C=c1c(=Cc2[n-]c(=O)[n-]c2O)ccc(=Cc2c([O-])[n-]c(=O)n(C)c2=O)c1=C (optimized conformer: 122.88878490730237 kcal/mol)

>  <smiles>  (37) 
C=c1c(=Cc2[nH]c(=O)[nH]c2O)ccc(=Cc2c(O)[nH]c(=O)n(C)c2=O)c1=C

>  <score_type>  (37) 
oracle

>  <origin>  (37) 
adg

>  <m_score__min__energy>  (37) 
-15.640000000000001

>  <m_primary>  (37) 
energy

$$$$
37:0
     RDKit          3D

 49 51  0  0  0  0  0  0  0  0999 V2000
   59.0240   34.6140   47.0850 C   0  0  0  0  0  0  0  0  0  0  0  0
   60.0300   34.1930   46.0190 C   0  0  0  0  0  0  0  0  0  0  0  0
   61.3900   33.8530   46.6430 C   0  0  0  0  0  0  0  0  0  0  0  0
   61.3070   33.6800   48.1680 C   0  0  0  0  0  0  0  0  0  0  0  0
   62.5470   33.0390   48.7390 C   0  0  0  0  0  0  0  0  0  0  0  0
   63.8130   33.6060   48.7280 C   0  0  0  0  0  0  0  0  0  0  0  0
   64.5980   32.6670   49.3600 C   0  0  0  0  0  0  0  0  0  0  0  0
   65.8360   32.7680   49.5670 O   0  0  0  0  0  0  0  0  0  0  0  0
   63.8590   31.6110   49.7350 N   0  0  0  0  0  0  0  0  0  0  0  0
   62.6070   31.8360   49.3660 N   0  0  0  0  0  0  0  0  0  0  0  0
   61.5110   30.8970   49.6130 C   0  0  0  0  0  0  0  0  0  0  0  0
   60.6330   30.7670   48.3960 C   0  0  0  0  0  0  0  0  0  0  0  0
   61.1120   30.1280   47.2420 C   0  0  0  0  0  0  0  0  0  0  0  0
   60.3030   30.0210   46.1080 C   0  0  0  0  0  0  0  0  0  0  0  0
   58.9960   30.5270   46.1220 C   0  0  0  0  0  0  0  0  0  0  0  0
   58.1530   30.4330   44.9130 C   0  0  0  0  0  0  0  0  0  0  0  0
   58.1490   31.5170   44.0200 C   0  0  0  0  0  0  0  0  0  0  0  0
   57.3470   31.4910   42.8780 C   0  0  0  0  0  0  0  0  0  0  0  0
   56.5440   30.3830   42.6130 C   0  0  0  0  0  0  0  0  0  0  0  0
   56.5470   29.2920   43.4840 C   0  0  0  0  0  0  0  0  0  0  0  0
   57.3540   29.2960   44.6340 C   0  0  0  0  0  0  0  0  0  0  0  0
   57.3700   27.8610   45.6750 S   0  0  0  0  0  0  0  0  0  0  0  0
   55.8080   27.1200   45.7110 N   0  0  0  0  0  0  0  0  0  0  0  0
   57.7600   28.2540   47.0730 O   0  0  0  0  0  0  0  0  0  0  0  0
   58.3520   26.8550   45.1450 O   0  0  0  0  0  0  0  0  0  0  0  0
   58.5110   31.1540   47.2780 C   0  0  0  0  0  0  0  0  0  0  0  0
   59.3200   31.2670   48.4110 C   0  0  0  0  0  0  0  0  0  0  0  0
   59.4509   34.4354   48.0829 H   0  0  0  0  0  0  0  0  0  0  0  0
   58.7945   35.6837   46.9705 H   0  0  0  0  0  0  0  0  0  0  0  0
   58.1010   34.0266   46.9705 H   0  0  0  0  0  0  0  0  0  0  0  0
   59.6453   33.3071   45.4925 H   0  0  0  0  0  0  0  0  0  0  0  0
   60.1674   35.0307   45.3195 H   0  0  0  0  0  0  0  0  0  0  0  0
   61.7575   32.9154   46.2004 H   0  0  0  0  0  0  0  0  0  0  0  0
   62.0729   34.6903   46.4367 H   0  0  0  0  0  0  0  0  0  0  0  0
   61.1756   34.6697   48.6298 H   0  0  0  0  0  0  0  0  0  0  0  0
   60.4552   33.0190   48.3861 H   0  0  0  0  0  0  0  0  0  0  0  0
   64.1184   34.5775   48.3122 H   0  0  0  0  0  0  0  0  0  0  0  0
   64.1980   30.7570   50.2310 H   0  0  0  0  0  0  0  0  0  0  0  0
   61.9302   29.9110   49.8621 H   0  0  0  0  0  0  0  0  0  0  0  0
   60.9029   31.2767   50.4473 H   0  0  0  0  0  0  0  0  0  0  0  0
   62.1292   29.7094   47.2303 H   0  0  0  0  0  0  0  0  0  0  0  0
   60.6934   29.5376   45.2003 H   0  0  0  0  0  0  0  0  0  0  0  0
   58.7827   32.3931   44.2221 H   0  0  0  0  0  0  0  0  0  0  0  0
   57.3487   32.3462   42.1861 H   0  0  0  0  0  0  0  0  0  0  0  0
   55.9070   30.3682   41.7163 H   0  0  0  0  0  0  0  0  0  0  0  0
   55.9113   28.4207   43.2678 H   0  0  0  0  0  0  0  0  0  0  0  0
   55.2840   27.4610   44.8730 H   0  0  0  0  0  0  0  0  0  0  0  0
   57.4884   31.5590   47.2930 H   0  0  0  0  0  0  0  0  0  0  0  0
   58.9277   31.7493   49.3185 H   0  0  0  0  0  0  0  0  0  0  0  0
  1  2  1  0
  2  3  1  0
  3  4  1  0
  4  5  1  0
  5  6  2  0
  6  7  1  0
  7  8  2  0
  7  9  1  0
  9 10  1  0
 10 11  1  0
 11 12  1  0
 12 13  2  0
 13 14  1  0
 14 15  2  0
 15 16  1  0
 16 17  2  0
 17 18  1  0
 18 19  2  0
 19 20  1  0
 20 21  2  0
 21 22  1  0
 22 23  1  0
 22 24  2  0
 22 25  2  0
 15 26  1  0
 26 27  2  0
 10  5  1  0
 27 12  1  0
 21 16  1  0
  1 28  1  0
  1 29  1  0
  1 30  1  0
  2 31  1  0
  2 32  1  0
  3 33  1  0
  3 34  1  0
  4 35  1  0
  4 36  1  0
  6 37  1  0
  9 38  1  0
 11 39  1  0
 11 40  1  0
 13 41  1  0
 14 42  1  0
 17 43  1  0
 18 44  1  0
 19 45  1  0
 20 46  1  0
 23 47  1  0
 26 48  1  0
 27 49  1  0
M  CHG  1  23  -1
M  END
>  <UniqueID>  (38) 
35

>  <SMILES>  (38) 
CCCCc1cc(=O)[nH]n1Cc1ccc(-c2ccccc2S([NH-])(=O)=O)cc1

>  <Energy>  (38) 
80.61130661574144

>  <Genealogy>  (38) 
CCCCc1cc(=O)[nH]n1Cc1ccc(-c2ccccc2S([NH-])(=O)=O)cc1 (protonated)
CCCCc1cc(=O)[nH]n1Cc1ccc(-c2ccccc2S([NH-])(=O)=O)cc1 (3D coordinates assigned)
CCCCc1cc(=O)[nH]n1Cc1ccc(-c2ccccc2S([NH-])(=O)=O)cc1 (optimized conformer: 80.61130661574144 kcal/mol)

>  <smiles>  (38) 
CCCCc1cc(=O)[nH]n1Cc1ccc(-c2ccccc2S(N)(=O)=O)cc1

>  <score_type>  (38) 
oracle

>  <origin>  (38) 
adg

>  <m_score__min__energy>  (38) 
-11.08

>  <m_primary>  (38) 
energy

$$$$
38:0
     RDKit          3D

 89 91  0  0  0  0  0  0  0  0999 V2000
   57.8980   32.3310   42.7630 C   0  0  0  0  0  0  0  0  0  0  0  0
   57.9410   32.6020   44.2340 C   0  0  0  0  0  0  0  0  0  0  0  0
   57.5030   34.0670   44.9350 S   0  0  0  0  0  0  0  0  0  0  0  0
   57.8080   33.5480   46.5060 C   0  0  0  0  0  0  0  0  0  0  0  0
   58.2450   32.2290   46.4440 C   0  0  0  0  0  0  0  0  0  0  0  0
   58.3060   31.7030   45.1860 N   0  0  0  0  0  0  0  0  0  0  0  0
   58.7800   30.3410   44.9210 C   0  0  0  0  0  0  0  0  0  0  0  0
   57.5950   29.3660   44.8880 C   0  0  0  0  0  0  0  0  0  0  0  0
   57.8990   28.0950   44.0770 C   0  0  0  0  0  0  0  0  0  0  0  0
   58.4200   26.9490   44.9620 C   0  0  0  0  0  0  0  0  0  0  0  0
   58.5840   27.3610   46.4340 C   0  0  0  0  0  0  0  0  0  0  0  0
   60.0490   27.6140   46.8220 C   0  0  0  0  0  0  0  0  0  0  0  0
   60.2080   28.9660   47.5370 C   0  0  0  0  0  0  0  0  0  0  0  0
   59.8370   28.8800   49.0390 C   0  0  2  0  0  0  0  0  0  0  0  0
   58.8860   30.0270   49.4740 C   0  0  0  0  0  0  0  0  0  0  0  0
   58.9080   30.2940   50.9930 C   0  0  0  0  0  0  0  0  0  0  0  0
   59.2370   29.0270   51.7910 C   0  0  0  0  0  0  0  0  0  0  0  0
   60.6030   28.4180   51.3960 C   0  0  0  0  0  0  0  0  0  0  0  0
   61.0840   28.8100   49.9670 C   0  0  2  0  0  0  0  0  0  0  0  0
   61.8170   30.1010   49.9570 N   0  0  0  0  0  0  0  0  0  0  0  0
   62.7970   30.3030   51.0440 C   0  0  0  0  0  0  0  0  0  0  0  0
   63.4730   31.6870   51.0290 C   0  0  0  0  0  0  0  0  0  0  0  0
   62.6320   32.6830   50.4480 O   0  0  0  0  0  0  0  0  0  0  0  0
   62.5930   33.0450   49.0890 C   0  0  0  0  0  0  0  0  0  0  0  0
   63.7640   33.2580   48.3350 C   0  0  0  0  0  0  0  0  0  0  0  0
   63.6830   33.6140   46.9870 C   0  0  0  0  0  0  0  0  0  0  0  0
   62.4380   33.7670   46.3770 C   0  0  0  0  0  0  0  0  0  0  0  0
   61.2690   33.5620   47.1120 C   0  0  0  0  0  0  0  0  0  0  0  0
   61.3350   33.2030   48.4680 C   0  0  0  0  0  0  0  0  0  0  0  0
   60.0570   33.0320   49.2580 C   0  0  0  0  0  0  0  0  0  0  0  0
   60.0460   33.8940   50.5300 C   0  0  0  0  0  0  0  0  0  0  0  0
   58.9160   33.4790   51.5040 C   0  0  0  0  0  0  0  0  0  0  0  0
   59.3420   33.2790   52.9240 N   0  0  0  0  0  0  0  0  0  0  0  0
   60.7590   32.8480   53.0040 C   0  0  0  0  0  0  0  0  0  0  0  0
   59.2120   34.5800   53.6250 C   0  0  0  0  0  0  0  0  0  0  0  0
   58.4810   32.2900   53.6160 C   0  0  0  0  0  0  0  0  0  0  0  0
   57.7277   31.2577   42.5927 H   0  0  0  0  0  0  0  0  0  0  0  0
   57.0803   32.9088   42.3075 H   0  0  0  0  0  0  0  0  0  0  0  0
   58.8544   32.6273   42.3075 H   0  0  0  0  0  0  0  0  0  0  0  0
   57.6837   34.1462   47.4207 H   0  0  0  0  0  0  0  0  0  0  0  0
   58.5204   31.6538   47.3403 H   0  0  0  0  0  0  0  0  0  0  0  0
   59.2967   30.3183   43.9502 H   0  0  0  0  0  0  0  0  0  0  0  0
   59.4719   30.0390   45.7211 H   0  0  0  0  0  0  0  0  0  0  0  0
   57.3488   29.0753   45.9199 H   0  0  0  0  0  0  0  0  0  0  0  0
   56.7535   29.8798   44.4003 H   0  0  0  0  0  0  0  0  0  0  0  0
   56.9763   27.7649   43.5774 H   0  0  0  0  0  0  0  0  0  0  0  0
   58.6846   28.3409   43.3473 H   0  0  0  0  0  0  0  0  0  0  0  0
   57.7083   26.1120   44.9084 H   0  0  0  0  0  0  0  0  0  0  0  0
   59.4134   26.6644   44.5849 H   0  0  0  0  0  0  0  0  0  0  0  0
   58.0104   28.2836   46.6067 H   0  0  0  0  0  0  0  0  0  0  0  0
   58.2162   26.5297   47.0534 H   0  0  0  0  0  0  0  0  0  0  0  0
   60.3864   26.8108   47.4936 H   0  0  0  0  0  0  0  0  0  0  0  0
   60.6550   27.6314   45.9041 H   0  0  0  0  0  0  0  0  0  0  0  0
   61.2546   29.2927   47.4486 H   0  0  0  0  0  0  0  0  0  0  0  0
   59.5236   29.6831   47.0602 H   0  0  0  0  0  0  0  0  0  0  0  0
   59.2945   27.9303   49.1564 H   0  0  0  0  0  0  0  0  0  0  0  0
   59.1881   30.9476   48.9532 H   0  0  0  0  0  0  0  0  0  0  0  0
   57.8629   29.7194   49.2118 H   0  0  0  0  0  0  0  0  0  0  0  0
   59.6693   31.0581   51.2089 H   0  0  0  0  0  0  0  0  0  0  0  0
   57.9067   30.6361   51.2937 H   0  0  0  0  0  0  0  0  0  0  0  0
   59.2594   29.2798   52.8613 H   0  0  0  0  0  0  0  0  0  0  0  0
   58.4605   28.2802   51.5688 H   0  0  0  0  0  0  0  0  0  0  0  0
   61.3566   28.7606   52.1204 H   0  0  0  0  0  0  0  0  0  0  0  0
   60.4765   27.3253   51.3998 H   0  0  0  0  0  0  0  0  0  0  0  0
   61.7916   28.0489   49.6064 H   0  0  0  0  0  0  0  0  0  0  0  0
   62.3420   30.1970   49.0600 H   0  0  0  0  0  0  0  0  0  0  0  0
   62.2766   30.1826   52.0056 H   0  0  0  0  0  0  0  0  0  0  0  0
   63.5932   29.5584   50.8971 H   0  0  0  0  0  0  0  0  0  0  0  0
   63.7084   31.9792   52.0630 H   0  0  0  0  0  0  0  0  0  0  0  0
   64.3863   31.6141   50.4202 H   0  0  0  0  0  0  0  0  0  0  0  0
   64.7488   33.1431   48.8114 H   0  0  0  0  0  0  0  0  0  0  0  0
   64.6027   33.7740   46.4052 H   0  0  0  0  0  0  0  0  0  0  0  0
   62.3772   34.0495   45.3156 H   0  0  0  0  0  0  0  0  0  0  0  0
   60.2897   33.6825   46.6258 H   0  0  0  0  0  0  0  0  0  0  0  0
   59.2063   33.3233   48.6244 H   0  0  0  0  0  0  0  0  0  0  0  0
   59.9844   31.9773   49.5620 H   0  0  0  0  0  0  0  0  0  0  0  0
   61.0136   33.7841   51.0415 H   0  0  0  0  0  0  0  0  0  0  0  0
   59.8696   34.9377   50.2308 H   0  0  0  0  0  0  0  0  0  0  0  0
   58.1462   34.2645   51.4869 H   0  0  0  0  0  0  0  0  0  0  0  0
   58.5535   32.5016   51.1530 H   0  0  0  0  0  0  0  0  0  0  0  0
   61.0558   32.7577   54.0594 H   0  0  0  0  0  0  0  0  0  0  0  0
   60.8747   31.8740   52.5060 H   0  0  0  0  0  0  0  0  0  0  0  0
   61.3974   33.5926   52.5060 H   0  0  0  0  0  0  0  0  0  0  0  0
   59.2286   34.4139   54.7123 H   0  0  0  0  0  0  0  0  0  0  0  0
   60.0492   35.2347   53.3413 H   0  0  0  0  0  0  0  0  0  0  0  0
   58.2618   35.0561   53.3413 H   0  0  0  0  0  0  0  0  0  0  0  0
   58.5859   32.4105   54.7043 H   0  0  0  0  0  0  0  0  0  0  0  0
   57.4318   32.4526   53.3285 H   0  0  0  0  0  0  0  0  0  0  0  0
   58.7866   31.2731   53.3285 H   0  0  0  0  0  0  0  0  0  0  0  0
  1  2  1  0
  2  3  1  0
  3  4  1  0
  4  5  2  0
  5  6  1  0
  6  7  1  0
  7  8  1  0
  8  9  1  0
  9 10  1  0
 10 11  1  0
 11 12  1  0
 12 13  1  0
 13 14  1  0
 14 15  1  0
 15 16  1  0
 16 17  1  0
 17 18  1  0
 18 19  1  0
 19 20  1  0
 20 21  1  0
 21 22  1  0
 22 23  1  0
 23 24  1  0
 24 25  2  0
 25 26  1  0
 26 27  2  0
 27 28  1  0
 28 29  2  0
 29 30  1  0
 30 31  1  0
 31 32  1  0
 32 33  1  0
 33 34  1  0
 33 35  1  0
 33 36  1  0
  6  2  2  0
 19 14  1  0
 29 24  1  0
  1 37  1  0
  1 38  1  0
  1 39  1  0
  4 40  1  0
  5 41  1  0
  7 42  1  0
  7 43  1  0
  8 44  1  0
  8 45  1  0
  9 46  1  0
  9 47  1  0
 10 48  1  0
 10 49  1  0
 11 50  1  0
 11 51  1  0
 12 52  1  0
 12 53  1  0
 13 54  1  0
 13 55  1  0
 14 56  1  6
 15 57  1  0
 15 58  1  0
 16 59  1  0
 16 60  1  0
 17 61  1  0
 17 62  1  0
 18 63  1  0
 18 64  1  0
 19 65  1  6
 20 66  1  0
 21 67  1  0
 21 68  1  0
 22 69  1  0
 22 70  1  0
 25 71  1  0
 26 72  1  0
 27 73  1  0
 28 74  1  0
 30 75  1  0
 30 76  1  0
 31 77  1  0
 31 78  1  0
 32 79  1  0
 32 80  1  0
 34 81  1  0
 34 82  1  0
 34 83  1  0
 35 84  1  0
 35 85  1  0
 35 86  1  0
 36 87  1  0
 36 88  1  0
 36 89  1  0
M  CHG  2   6   1  33   1
M  END
>  <UniqueID>  (39) 
36

>  <SMILES>  (39) 
Cc1scc[n+]1CCCCCCC[C@@H]1CCCC[C@@H]1NCCOc1ccccc1CCC[N+](C)(C)C

>  <Energy>  (39) 
115.09874955658113

>  <Genealogy>  (39) 
Cc1scc[n+]1CCCCCCC[C@@H]1CCCC[C@@H]1NCCOc1ccccc1CCC[N+](C)(C)C (chirality)
Cc1scc[n+]1CCCCCCC[C@@H]1CCCC[C@@H]1NCCOc1ccccc1CCC[N+](C)(C)C (3D coordinates assigned)
Cc1scc[n+]1CCCCCCC[C@@H]1CCCC[C@@H]1NCCOc1ccccc1CCC[N+](C)(C)C (nonaromatic ring conformer: 115.09874955658113 kcal/mol)

>  <smiles>  (39) 
Cc1scc[n+]1CCCCCCCC1CCCCC1NCCOc1ccccc1CCC[N+](C)(C)C

>  <score_type>  (39) 
oracle

>  <origin>  (39) 
adg

>  <m_score__min__energy>  (39) 
-5.2199999999999998

>  <m_primary>  (39) 
energy

$$$$
39:0
     RDKit          3D

 61 64  0  0  0  0  0  0  0  0999 V2000
   65.0300   29.7250   51.9830 C   0  0  0  0  0  0  0  0  0  0  0  0
   65.0230   30.7530   51.0110 O   0  0  0  0  0  0  0  0  0  0  0  0
   66.3350   31.2520   50.8090 C   0  0  0  0  0  0  0  0  0  0  0  0
   66.2920   32.6220   50.1150 C   0  0  2  0  0  0  0  0  0  0  0  0
   67.5160   33.4610   50.5060 C   0  0  0  0  0  0  0  0  0  0  0  0
   65.0970   33.3040   50.5060 O   0  0  0  0  0  0  0  0  0  0  0  0
   63.9590   33.4890   49.7030 C   0  0  0  0  0  0  0  0  0  0  0  0
   64.0400   33.1460   48.3490 C   0  0  0  0  0  0  0  0  0  0  0  0
   62.9450   33.3430   47.5050 C   0  0  0  0  0  0  0  0  0  0  0  0
   61.7770   33.9140   48.0190 C   0  0  0  0  0  0  0  0  0  0  0  0
   60.6640   34.1760   47.1690 N   0  0  0  0  0  0  0  0  0  0  0  0
   59.4230   34.9700   47.2300 C   0  0  0  0  0  0  0  0  0  0  0  0
   58.9730   34.6650   45.8380 C   0  0  0  0  0  0  0  0  0  0  0  0
   57.7860   33.8740   45.8340 O   0  0  0  0  0  0  0  0  0  0  0  0
   57.7500   32.4860   45.6360 C   0  0  0  0  0  0  0  0  0  0  0  0
   57.2890   31.9000   44.4440 C   0  0  0  0  0  0  0  0  0  0  0  0
   57.3040   30.5100   44.2910 C   0  0  0  0  0  0  0  0  0  0  0  0
   57.7580   29.6820   45.3330 C   0  0  0  0  0  0  0  0  0  0  0  0
   57.8170   28.1800   45.1670 C   0  0  2  0  0  0  0  0  0  0  0  0
   58.1210   27.8200   43.7080 C   0  0  0  0  0  0  0  0  0  0  0  0
   56.5490   27.5800   45.5810 N   0  0  0  0  0  0  0  0  0  0  0  0
   56.3640   26.1720   45.7840 C   0  0  0  0  0  0  0  0  0  0  0  0
   55.5510   25.7640   46.6590 O   0  0  0  0  0  0  0  0  0  0  0  0
   57.1140   25.1600   44.9630 C   0  0  0  0  0  0  0  0  0  0  0  0
   56.2240   24.1050   44.3270 C   0  0  0  0  0  0  0  0  0  0  0  0
   57.1440   23.7260   45.4790 C   0  0  0  0  0  0  0  0  0  0  0  0
   58.2090   30.2710   46.5220 C   0  0  0  0  0  0  0  0  0  0  0  0
   58.2090   31.6610   46.6690 C   0  0  0  0  0  0  0  0  0  0  0  0
   60.2310   33.8550   45.7970 C   0  0  0  0  0  0  0  0  0  0  0  0
   61.7080   34.2350   49.3390 N   0  0  0  0  0  0  0  0  0  0  0  0
   62.7480   34.0230   50.1900 C   0  0  0  0  0  0  0  0  0  0  0  0
   65.0270   30.1711   52.9885 H   0  0  0  0  0  0  0  0  0  0  0  0
   64.1361   29.0962   51.8581 H   0  0  0  0  0  0  0  0  0  0  0  0
   65.9324   29.1084   51.8581 H   0  0  0  0  0  0  0  0  0  0  0  0
   66.8362   31.3556   51.7827 H   0  0  0  0  0  0  0  0  0  0  0  0
   66.8875   30.5479   50.1695 H   0  0  0  0  0  0  0  0  0  0  0  0
   66.3029   32.4754   49.0249 H   0  0  0  0  0  0  0  0  0  0  0  0
   67.5905   33.5121   51.6023 H   0  0  0  0  0  0  0  0  0  0  0  0
   68.4252   32.9953   50.0980 H   0  0  0  0  0  0  0  0  0  0  0  0
   67.4096   34.4770   50.0980 H   0  0  0  0  0  0  0  0  0  0  0  0
   64.9708   32.7191   47.9473 H   0  0  0  0  0  0  0  0  0  0  0  0
   63.0010   33.0516   46.4458 H   0  0  0  0  0  0  0  0  0  0  0  0
   58.7211   34.6032   47.9934 H   0  0  0  0  0  0  0  0  0  0  0  0
   59.5192   36.0307   47.5049 H   0  0  0  0  0  0  0  0  0  0  0  0
   58.7122   35.4165   45.0783 H   0  0  0  0  0  0  0  0  0  0  0  0
   56.9152   32.5371   43.6289 H   0  0  0  0  0  0  0  0  0  0  0  0
   56.9580   30.0609   43.3483 H   0  0  0  0  0  0  0  0  0  0  0  0
   58.6224   27.7838   45.8029 H   0  0  0  0  0  0  0  0  0  0  0  0
   58.8304   26.9799   43.6778 H   0  0  0  0  0  0  0  0  0  0  0  0
   57.1891   27.5315   43.1997 H   0  0  0  0  0  0  0  0  0  0  0  0
   58.5616   28.6904   43.1997 H   0  0  0  0  0  0  0  0  0  0  0  0
   57.8903   25.8613   44.6232 H   0  0  0  0  0  0  0  0  0  0  0  0
   55.1354   24.1387   44.4812 H   0  0  0  0  0  0  0  0  0  0  0  0
   56.0680   23.7346   43.3030 H   0  0  0  0  0  0  0  0  0  0  0  0
   56.7207   23.4871   46.4658 H   0  0  0  0  0  0  0  0  0  0  0  0
   57.9281   22.9701   45.6331 H   0  0  0  0  0  0  0  0  0  0  0  0
   58.5656   29.6348   47.3455 H   0  0  0  0  0  0  0  0  0  0  0  0
   58.5729   32.1103   47.6048 H   0  0  0  0  0  0  0  0  0  0  0  0
   60.0409   32.7814   45.6514 H   0  0  0  0  0  0  0  0  0  0  0  0
   60.9399   34.0689   44.9835 H   0  0  0  0  0  0  0  0  0  0  0  0
   62.6444   34.2680   51.2574 H   0  0  0  0  0  0  0  0  0  0  0  0
  1  2  1  0
  2  3  1  0
  3  4  1  0
  4  5  1  0
  4  6  1  0
  6  7  1  0
  7  8  2  0
  8  9  1  0
  9 10  2  0
 10 11  1  0
 11 12  1  0
 12 13  1  0
 13 14  1  0
 14 15  1  0
 15 16  2  0
 16 17  1  0
 17 18  2  0
 18 19  1  0
 19 20  1  0
 19 21  1  0
 21 22  1  0
 22 23  2  0
 22 24  1  0
 24 25  1  0
 25 26  1  0
 18 27  1  0
 27 28  2  0
 13 29  1  0
 10 30  1  0
 30 31  2  0
 31  7  1  0
 29 11  1  0
 28 15  1  0
 26 24  1  0
  1 32  1  0
  1 33  1  0
  1 34  1  0
  3 35  1  0
  3 36  1  0
  4 37  1  6
  5 38  1  0
  5 39  1  0
  5 40  1  0
  8 41  1  0
  9 42  1  0
 12 43  1  0
 12 44  1  0
 13 45  1  0
 16 46  1  0
 17 47  1  0
 19 48  1  1
 20 49  1  0
 20 50  1  0
 20 51  1  0
 24 52  1  0
 25 53  1  0
 25 54  1  0
 26 55  1  0
 26 56  1  0
 27 57  1  0
 28 58  1  0
 29 59  1  0
 29 60  1  0
 31 61  1  0
M  CHG  1  21  -1
M  END
>  <UniqueID>  (40) 
37

>  <SMILES>  (40) 
COC[C@H](C)Oc1ccc(N2CC(Oc3ccc([C@H](C)[N-]C(=O)C4CC4)cc3)C2)nc1

>  <Energy>  (40) 
368.04201906291786

>  <Genealogy>  (40) 
COCC(C)Oc1ccc(N2CC(Oc3ccc(C(C)[N-]C(=O)C4CC4)cc3)C2)nc1 (protonated)
COC[C@H](C)Oc1ccc(N2CC(Oc3ccc([C@H](C)[N-]C(=O)C4CC4)cc3)C2)nc1 (chirality)
COC[C@H](C)Oc1ccc(N2CC(Oc3ccc([C@H](C)[N-]C(=O)C4CC4)cc3)C2)nc1 (3D coordinates assigned)
COC[C@H](C)Oc1ccc(N2CC(Oc3ccc([C@H](C)[N-]C(=O)C4CC4)cc3)C2)nc1 (nonaromatic ring conformer: 368.04201906291786 kcal/mol)

>  <smiles>  (40) 
COCC(C)Oc1ccc(N2CC(Oc3ccc(C(C)NC(=O)C4CC4)cc3)C2)nc1

>  <score_type>  (40) 
oracle

>  <origin>  (40) 
adg

>  <m_score__min__energy>  (40) 
-10.300000000000001

>  <m_primary>  (40) 
energy

$$$$
40:0
     RDKit          3D

 58 61  0  0  0  0  0  0  0  0999 V2000
   57.7550   25.0200   46.8580 C   0  0  0  0  0  0  0  0  0  0  0  0
   58.6030   26.1360   46.6060 O   0  0  0  0  0  0  0  0  0  0  0  0
   58.1560   27.3980   46.1810 C   0  0  0  0  0  0  0  0  0  0  0  0
   56.8480   27.5950   45.7020 C   0  0  0  0  0  0  0  0  0  0  0  0
   56.4280   28.8560   45.2710 C   0  0  0  0  0  0  0  0  0  0  0  0
   55.1460   29.0060   44.7520 O   0  0  0  0  0  0  0  0  0  0  0  0
   57.3080   29.9490   45.3330 C   0  0  0  0  0  0  0  0  0  0  0  0
   56.9300   31.2290   44.9040 O   0  0  0  0  0  0  0  0  0  0  0  0
   57.5940   32.4200   45.2400 C   0  0  0  0  0  0  0  0  0  0  0  0
   57.6720   32.8640   46.5740 C   0  0  0  0  0  0  0  0  0  0  0  0
   58.3510   34.0440   46.8880 C   0  0  0  0  0  0  0  0  0  0  0  0
   58.9630   34.7890   45.8770 C   0  0  0  0  0  0  0  0  0  0  0  0
   58.9040   34.3510   44.5520 C   0  0  0  0  0  0  0  0  0  0  0  0
   58.2330   33.1600   44.2250 C   0  0  0  0  0  0  0  0  0  0  0  0
   58.1590   32.7060   42.7940 C   0  0  0  0  0  0  0  0  0  0  0  0
   58.6150   29.7530   45.7830 C   0  0  0  0  0  0  0  0  0  0  0  0
   59.0440   28.4930   46.2280 C   0  0  0  0  0  0  0  0  0  0  0  0
   60.4780   28.3180   46.6550 C   0  0  0  0  0  0  0  0  0  0  0  0
   60.8490   29.4050   47.5560 N   0  0  0  0  0  0  0  0  0  0  0  0
   60.4720   29.3850   48.9370 C   0  0  0  0  0  0  0  0  0  0  0  0
   59.3410   28.9470   49.2810 O   0  0  0  0  0  0  0  0  0  0  0  0
   61.4630   29.7960   49.9800 C   0  0  0  0  0  0  0  0  0  0  0  0
   62.2340   30.9940   49.4870 C   0  0  0  0  0  0  0  0  0  0  0  0
   61.7050   31.6950   48.4500 N   0  0  0  0  0  0  0  0  0  0  0  0
   62.3260   32.7290   47.8810 N   0  0  0  0  0  0  0  0  0  0  0  0
   61.6510   33.4260   46.7850 C   0  0  0  0  0  0  0  0  0  0  0  0
   63.5440   33.1490   48.3340 C   0  0  0  0  0  0  0  0  0  0  0  0
   64.1090   34.1470   47.8030 O   0  0  0  0  0  0  0  0  0  0  0  0
   64.1690   32.4620   49.3880 C   0  0  0  0  0  0  0  0  0  0  0  0
   65.4400   32.8480   49.8590 C   0  0  0  0  0  0  0  0  0  0  0  0
   66.0500   32.1470   50.8990 C   0  0  0  0  0  0  0  0  0  0  0  0
   65.4090   31.0540   51.4770 C   0  0  0  0  0  0  0  0  0  0  0  0
   64.1510   30.6540   51.0210 C   0  0  0  0  0  0  0  0  0  0  0  0
   63.5090   31.3550   49.9760 C   0  0  0  0  0  0  0  0  0  0  0  0
   57.6477   24.8788   47.9436 H   0  0  0  0  0  0  0  0  0  0  0  0
   56.7660   25.2030   46.4125 H   0  0  0  0  0  0  0  0  0  0  0  0
   58.1963   24.1162   46.4125 H   0  0  0  0  0  0  0  0  0  0  0  0
   56.1483   26.7470   45.6664 H   0  0  0  0  0  0  0  0  0  0  0  0
   57.1954   32.2782   47.3738 H   0  0  0  0  0  0  0  0  0  0  0  0
   58.4037   34.3866   47.9319 H   0  0  0  0  0  0  0  0  0  0  0  0
   59.4918   35.7213   46.1246 H   0  0  0  0  0  0  0  0  0  0  0  0
   59.3858   34.9420   43.7592 H   0  0  0  0  0  0  0  0  0  0  0  0
   57.9821   31.6208   42.7623 H   0  0  0  0  0  0  0  0  0  0  0  0
   57.3339   33.2270   42.2862 H   0  0  0  0  0  0  0  0  0  0  0  0
   59.1068   32.9380   42.2862 H   0  0  0  0  0  0  0  0  0  0  0  0
   59.3187   30.5984   45.7889 H   0  0  0  0  0  0  0  0  0  0  0  0
   60.5919   27.3551   47.1744 H   0  0  0  0  0  0  0  0  0  0  0  0
   61.1307   28.3340   45.7697 H   0  0  0  0  0  0  0  0  0  0  0  0
   61.6570   30.0050   47.2740 H   0  0  0  0  0  0  0  0  0  0  0  0
   60.9334   30.0560   50.9084 H   0  0  0  0  0  0  0  0  0  0  0  0
   62.1571   28.9658   50.1776 H   0  0  0  0  0  0  0  0  0  0  0  0
   60.9417   34.1584   47.1979 H   0  0  0  0  0  0  0  0  0  0  0  0
   62.3972   33.9465   46.1667 H   0  0  0  0  0  0  0  0  0  0  0  0
   61.1068   32.6969   46.1667 H   0  0  0  0  0  0  0  0  0  0  0  0
   65.9540   33.7073   49.4036 H   0  0  0  0  0  0  0  0  0  0  0  0
   67.0400   32.4582   51.2637 H   0  0  0  0  0  0  0  0  0  0  0  0
   65.8954   30.5036   52.2958 H   0  0  0  0  0  0  0  0  0  0  0  0
   63.6557   29.7854   51.4796 H   0  0  0  0  0  0  0  0  0  0  0  0
  1  2  1  0
  2  3  1  0
  3  4  2  0
  4  5  1  0
  5  6  1  0
  5  7  2  0
  7  8  1  0
  8  9  1  0
  9 10  2  0
 10 11  1  0
 11 12  2  0
 12 13  1  0
 13 14  2  0
 14 15  1  0
  7 16  1  0
 16 17  2  0
 17 18  1  0
 18 19  1  0
 19 20  1  0
 20 21  2  0
 20 22  1  0
 22 23  1  0
 23 24  2  0
 24 25  1  0
 25 26  1  0
 25 27  1  0
 27 28  2  0
 27 29  1  0
 29 30  2  0
 30 31  1  0
 31 32  2  0
 32 33  1  0
 33 34  2  0
 17  3  1  0
 34 23  1  0
 14  9  1  0
 34 29  1  0
  1 35  1  0
  1 36  1  0
  1 37  1  0
  4 38  1  0
 10 39  1  0
 11 40  1  0
 12 41  1  0
 13 42  1  0
 15 43  1  0
 15 44  1  0
 15 45  1  0
 16 46  1  0
 18 47  1  0
 18 48  1  0
 19 49  1  0
 22 50  1  0
 22 51  1  0
 26 52  1  0
 26 53  1  0
 26 54  1  0
 30 55  1  0
 31 56  1  0
 32 57  1  0
 33 58  1  0
M  CHG  1   6  -1
M  END
>  <UniqueID>  (41) 
38

>  <SMILES>  (41) 
COc1cc([O-])c(Oc2ccccc2C)cc1CNC(=O)Cc1nn(C)c(=O)c2ccccc12

>  <Energy>  (41) 
66.46332607474447

>  <Genealogy>  (41) 
COc1cc([O-])c(Oc2ccccc2C)cc1CNC(=O)Cc1nn(C)c(=O)c2ccccc12 (protonated)
COc1cc([O-])c(Oc2ccccc2C)cc1CNC(=O)Cc1nn(C)c(=O)c2ccccc12 (3D coordinates assigned)
COc1cc([O-])c(Oc2ccccc2C)cc1CNC(=O)Cc1nn(C)c(=O)c2ccccc12 (optimized conformer: 66.46332607474447 kcal/mol)

>  <smiles>  (41) 
COc1cc(O)c(Oc2ccccc2C)cc1CNC(=O)Cc1nn(C)c(=O)c2ccccc12

>  <score_type>  (41) 
oracle

>  <origin>  (41) 
adg

>  <m_score__min__energy>  (41) 
-12.69

>  <m_primary>  (41) 
energy

$$$$
41:0
     RDKit          3D

 38 40  0  0  0  0  0  0  0  0999 V2000
   63.8110   32.9290   46.8340 C   0  0  0  0  0  0  0  0  0  0  0  0
   62.3870   33.0740   47.2510 C   0  0  0  0  0  0  0  0  0  0  0  0
   61.6940   32.2050   48.0720 C   0  0  0  0  0  0  0  0  0  0  0  0
   60.4410   32.7700   48.1860 C   0  0  0  0  0  0  0  0  0  0  0  0
   60.4230   33.9130   47.4730 N   0  0  0  0  0  0  0  0  0  0  0  0
   59.2800   34.8090   47.3190 C   0  0  0  0  0  0  0  0  0  0  0  0
   58.0500   34.0510   46.8080 C   0  0  0  0  0  0  0  0  0  0  0  0
   58.0720   33.9040   45.3070 C   0  0  0  0  0  0  0  0  0  0  0  0
   57.7980   34.9080   44.5990 O   0  0  0  0  0  0  0  0  0  0  0  0
   58.5220   32.7090   44.6540 N   0  0  0  0  0  0  0  0  0  0  0  0
   58.1890   31.3600   45.0030 C   0  0  0  0  0  0  0  0  0  0  0  0
   59.1830   30.5330   45.5320 C   0  0  0  0  0  0  0  0  0  0  0  0
   58.8890   29.2180   45.8940 C   0  0  0  0  0  0  0  0  0  0  0  0
   57.5990   28.6950   45.7100 C   0  0  0  0  0  0  0  0  0  0  0  0
   57.3330   27.3000   46.1380 C   0  0  0  0  0  0  0  0  0  0  0  0
   58.2320   26.3560   46.5930 C   0  0  0  0  0  0  0  0  0  0  0  0
   57.5710   25.2120   46.8470 N   0  0  0  0  0  0  0  0  0  0  0  0
   56.2930   25.5050   46.5360 C   0  0  0  0  0  0  0  0  0  0  0  0
   56.1490   26.7390   46.1100 O   0  0  0  0  0  0  0  0  0  0  0  0
   56.6150   29.5030   45.0990 C   0  0  0  0  0  0  0  0  0  0  0  0
   55.3490   28.9940   44.8140 O   0  0  0  0  0  0  0  0  0  0  0  0
   56.9180   30.8270   44.7460 C   0  0  0  0  0  0  0  0  0  0  0  0
   61.6000   34.1100   46.9020 N   0  0  0  0  0  0  0  0  0  0  0  0
   64.4498   32.8640   47.7271 H   0  0  0  0  0  0  0  0  0  0  0  0
   63.9259   32.0145   46.2336 H   0  0  0  0  0  0  0  0  0  0  0  0
   64.1079   33.8016   46.2336 H   0  0  0  0  0  0  0  0  0  0  0  0
   62.0588   31.2740   48.5305 H   0  0  0  0  0  0  0  0  0  0  0  0
   59.5992   32.3574   48.7614 H   0  0  0  0  0  0  0  0  0  0  0  0
   59.0441   35.2612   48.2936 H   0  0  0  0  0  0  0  0  0  0  0  0
   59.5413   35.5860   46.5855 H   0  0  0  0  0  0  0  0  0  0  0  0
   58.0324   33.0503   47.2644 H   0  0  0  0  0  0  0  0  0  0  0  0
   57.1531   34.6248   47.0843 H   0  0  0  0  0  0  0  0  0  0  0  0
   60.2038   30.9210   45.6639 H   0  0  0  0  0  0  0  0  0  0  0  0
   59.6763   28.5842   46.3282 H   0  0  0  0  0  0  0  0  0  0  0  0
   59.3125   26.5136   46.7261 H   0  0  0  0  0  0  0  0  0  0  0  0
   55.4623   24.7899   46.6287 H   0  0  0  0  0  0  0  0  0  0  0  0
   55.1420   28.0040   44.8880 H   0  0  0  0  0  0  0  0  0  0  0  0
   56.1519   31.4518   44.2636 H   0  0  0  0  0  0  0  0  0  0  0  0
  1  2  1  0
  2  3  1  0
  3  4  2  0
  4  5  1  0
  5  6  1  0
  6  7  1  0
  7  8  1  0
  8  9  2  0
  8 10  1  0
 10 11  1  0
 11 12  2  0
 12 13  1  0
 13 14  2  0
 14 15  1  0
 15 16  2  0
 16 17  1  0
 17 18  2  0
 18 19  1  0
 14 20  1  0
 20 21  1  0
 20 22  2  0
  5 23  1  0
 23  2  2  0
 22 11  1  0
 19 15  1  0
  1 24  1  0
  1 25  1  0
  1 26  1  0
  3 27  1  0
  4 28  1  0
  6 29  1  0
  6 30  1  0
  7 31  1  0
  7 32  1  0
 12 33  1  0
 13 34  1  0
 16 35  1  0
 18 36  1  0
 21 37  1  0
 22 38  1  0
M  CHG  1  10  -1
M  END
>  <UniqueID>  (42) 
39

>  <SMILES>  (42) 
Cc1ccn(CCC(=O)[N-]c2ccc(-c3cnco3)c(O)c2)n1

>  <Energy>  (42) 
99.76696633894296

>  <Genealogy>  (42) 
Cc1ccn(CCC(=O)[N-]c2ccc(-c3cnco3)c(O)c2)n1 (protonated)
Cc1ccn(CCC(=O)[N-]c2ccc(-c3cnco3)c(O)c2)n1 (3D coordinates assigned)
Cc1ccn(CCC(=O)[N-]c2ccc(-c3cnco3)c(O)c2)n1 (optimized conformer: 99.76696633894296 kcal/mol)

>  <smiles>  (42) 
Cc1ccn(CCC(=O)Nc2ccc(-c3cnco3)c(O)c2)n1

>  <score_type>  (42) 
oracle

>  <origin>  (42) 
adg

>  <m_score__min__energy>  (42) 
-9.4199999999999999

>  <m_primary>  (42) 
energy

$$$$
42:0
     RDKit          3D

 41 42  0  0  0  0  0  0  0  0999 V2000
   58.6850   27.8510   44.2550 C   0  0  0  0  0  0  0  0  0  0  0  0
   57.9130   27.9700   45.3350 C   0  0  0  0  0  0  0  0  0  0  0  0
   56.4460   28.1290   45.2470 C   0  0  0  0  0  0  0  0  0  0  0  0
   55.6880   27.1970   45.6270 O   0  0  0  0  0  0  0  0  0  0  0  0
   55.8570   29.3580   44.8060 N   0  0  0  0  0  0  0  0  0  0  0  0
   56.5340   30.4410   44.1540 C   0  0  0  0  0  0  0  0  0  0  0  0
   56.6360   30.5110   42.7540 C   0  0  0  0  0  0  0  0  0  0  0  0
   57.2870   31.5910   42.1500 C   0  0  0  0  0  0  0  0  0  0  0  0
   57.8160   32.6180   42.9340 C   0  0  0  0  0  0  0  0  0  0  0  0
   57.6690   32.5890   44.3300 C   0  0  0  0  0  0  0  0  0  0  0  0
   58.2550   33.6460   45.1770 C   0  0  0  0  0  0  0  0  0  0  0  0
   59.3280   33.4850   45.9770 C   0  0  0  0  0  0  0  0  0  0  0  0
   60.1100   34.6940   46.4150 C   0  0  0  0  0  0  0  0  0  0  0  0
   60.6400   34.5400   47.8540 C   0  0  0  0  0  0  0  0  0  0  0  0
   61.1970   33.2050   48.1560 N   0  0  0  0  0  0  0  0  0  0  0  0
   62.8860   33.0070   47.7270 S   0  0  0  0  0  0  0  0  0  0  0  0
   64.0100   33.1130   49.1050 C   0  0  0  0  0  0  0  0  0  0  0  0
   63.2870   34.0430   46.7130 O   0  0  0  0  0  0  0  0  0  0  0  0
   63.0530   31.6490   47.1050 O   0  0  0  0  0  0  0  0  0  0  0  0
   60.3260   32.0840   47.7570 C   0  0  0  0  0  0  0  0  0  0  0  0
   59.9410   32.1430   46.2800 C   0  0  0  0  0  0  0  0  0  0  0  0
   57.0420   31.4890   44.9340 C   0  0  0  0  0  0  0  0  0  0  0  0
   59.7731   27.7345   44.3668 H   0  0  0  0  0  0  0  0  0  0  0  0
   58.2340   27.8693   43.2519 H   0  0  0  0  0  0  0  0  0  0  0  0
   58.3849   27.9491   46.3284 H   0  0  0  0  0  0  0  0  0  0  0  0
   56.2026   29.7141   42.1319 H   0  0  0  0  0  0  0  0  0  0  0  0
   57.3825   31.6316   41.0549 H   0  0  0  0  0  0  0  0  0  0  0  0
   58.3498   33.4528   42.4563 H   0  0  0  0  0  0  0  0  0  0  0  0
   57.7812   34.6385   45.1538 H   0  0  0  0  0  0  0  0  0  0  0  0
   60.9627   34.8328   45.7341 H   0  0  0  0  0  0  0  0  0  0  0  0
   59.4383   35.5647   46.3885 H   0  0  0  0  0  0  0  0  0  0  0  0
   61.4314   35.2875   48.0117 H   0  0  0  0  0  0  0  0  0  0  0  0
   59.7793   34.6818   48.5241 H   0  0  0  0  0  0  0  0  0  0  0  0
   63.4427   33.0595   50.0459 H   0  0  0  0  0  0  0  0  0  0  0  0
   64.7250   32.2783   49.0600 H   0  0  0  0  0  0  0  0  0  0  0  0
   64.5564   34.0667   49.0600 H   0  0  0  0  0  0  0  0  0  0  0  0
   60.8570   31.1394   47.9462 H   0  0  0  0  0  0  0  0  0  0  0  0
   59.4006   32.1515   48.3478 H   0  0  0  0  0  0  0  0  0  0  0  0
   60.8389   32.0012   45.6606 H   0  0  0  0  0  0  0  0  0  0  0  0
   59.2142   31.3479   46.0573 H   0  0  0  0  0  0  0  0  0  0  0  0
   56.9482   31.4485   46.0292 H   0  0  0  0  0  0  0  0  0  0  0  0
  1  2  2  0
  2  3  1  0
  3  4  2  0
  3  5  1  0
  5  6  1  0
  6  7  2  0
  7  8  1  0
  8  9  2  0
  9 10  1  0
 10 11  1  0
 11 12  2  3
 12 13  1  0
 13 14  1  0
 14 15  1  0
 15 16  1  0
 16 17  1  0
 16 18  2  0
 16 19  2  0
 15 20  1  0
 20 21  1  0
 10 22  2  0
 22  6  1  0
 21 12  1  0
  1 23  1  0
  1 24  1  0
  2 25  1  0
  7 26  1  0
  8 27  1  0
  9 28  1  0
 11 29  1  0
 13 30  1  0
 13 31  1  0
 14 32  1  0
 14 33  1  0
 17 34  1  0
 17 35  1  0
 17 36  1  0
 20 37  1  0
 20 38  1  0
 21 39  1  0
 21 40  1  0
 22 41  1  0
M  CHG  1   5  -1
M  END
>  <UniqueID>  (43) 
40

>  <SMILES>  (43) 
C=CC(=O)[N-]c1cccc(C=C2CCN(S(C)(=O)=O)CC2)c1

>  <Energy>  (43) 
52.32995366166098

>  <Genealogy>  (43) 
C=CC(=O)[N-]c1cccc(C=C2CCN(S(C)(=O)=O)CC2)c1 (protonated)
C=CC(=O)[N-]c1cccc(C=C2CCN(S(C)(=O)=O)CC2)c1 (3D coordinates assigned)
C=CC(=O)[N-]c1cccc(C=C2CCN(S(C)(=O)=O)CC2)c1 (nonaromatic ring conformer: 52.32995366166098 kcal/mol)

>  <smiles>  (43) 
C=CC(=O)Nc1cccc(C=C2CCN(S(C)(=O)=O)CC2)c1

>  <score_type>  (43) 
oracle

>  <origin>  (43) 
adg

>  <m_score__min__energy>  (43) 
-10.529999999999999

>  <m_primary>  (43) 
energy

$$$$
43:0
     RDKit          3D

 41 43  0  0  0  0  0  0  0  0999 V2000
   59.6532   31.3593   45.5322 H   0  0  0  0  0  0  0  0  0  0  0  0
   59.5980   30.3570   45.9820 C   0  0  0  0  0  0  0  0  0  0  0  0
   60.3240   29.9120   47.0040 C   0  0  0  0  0  0  0  0  0  0  0  0
   61.4090   30.6750   47.7020 C   0  0  0  0  0  0  0  0  0  0  0  0
   61.8846   30.0254   48.4515 H   0  0  0  0  0  0  0  0  0  0  0  0
   62.1517   31.0005   46.9588 H   0  0  0  0  0  0  0  0  0  0  0  0
   60.8380   31.8900   48.3880 C   0  0  0  0  0  0  0  0  0  0  0  0
   59.9990   31.7210   49.5030 C   0  0  0  0  0  0  0  0  0  0  0  0
   59.7896   30.7096   49.8813 H   0  0  0  0  0  0  0  0  0  0  0  0
   59.4300   32.8290   50.1330 C   0  0  0  0  0  0  0  0  0  0  0  0
   58.7808   32.6888   51.0099 H   0  0  0  0  0  0  0  0  0  0  0  0
   59.6830   34.1120   49.6530 C   0  0  0  0  0  0  0  0  0  0  0  0
   59.2348   34.9830   50.1536 H   0  0  0  0  0  0  0  0  0  0  0  0
   60.5040   34.2960   48.5380 C   0  0  0  0  0  0  0  0  0  0  0  0
   60.6977   35.3121   48.1638 H   0  0  0  0  0  0  0  0  0  0  0  0
   61.0860   33.1880   47.8890 C   0  0  0  0  0  0  0  0  0  0  0  0
   61.9080   33.3340   46.7570 O   0  0  0  0  0  0  0  0  0  0  0  0
   63.3270   33.4700   46.7750 C   0  0  0  0  0  0  0  0  0  0  0  0
   63.7220   34.1860   47.8900 F   0  0  0  0  0  0  0  0  0  0  0  0
   63.9260   32.2240   46.7750 F   0  0  0  0  0  0  0  0  0  0  0  0
   63.7240   34.1550   45.6420 F   0  0  0  0  0  0  0  0  0  0  0  0
   59.9330   28.5270   47.2480 C   0  0  0  0  0  0  0  0  0  0  0  0
   60.4060   27.7730   48.1380 O   0  0  0  0  0  0  0  0  0  0  0  0
   58.9440   28.1480   46.3570 O   0  0  0  0  0  0  0  0  0  0  0  0
   58.7110   29.2670   45.5650 C   0  0  0  0  0  0  0  0  0  0  0  0
   57.8270   29.3310   44.5650 C   0  0  0  0  0  0  0  0  0  0  0  0
   58.1360   28.9734   43.5717 H   0  0  0  0  0  0  0  0  0  0  0  0
   56.4570   29.8570   44.7250 C   0  0  0  0  0  0  0  0  0  0  0  0
   55.5150   29.0420   44.8940 O   0  0  0  0  0  0  0  0  0  0  0  0
   56.1610   31.2620   44.7130 N   0  0  0  0  0  0  0  0  0  0  0  0
   57.1000   32.3290   44.9090 C   0  0  0  0  0  0  0  0  0  0  0  0
   57.0740   33.0380   46.1180 C   0  0  0  0  0  0  0  0  0  0  0  0
   56.3405   32.7716   46.8932 H   0  0  0  0  0  0  0  0  0  0  0  0
   57.9760   34.0820   46.3430 C   0  0  0  0  0  0  0  0  0  0  0  0
   57.9592   34.6262   47.2988 H   0  0  0  0  0  0  0  0  0  0  0  0
   58.8990   34.4350   45.3550 C   0  0  0  0  0  0  0  0  0  0  0  0
   59.6121   35.2529   45.5354 H   0  0  0  0  0  0  0  0  0  0  0  0
   58.9160   33.7490   44.1380 C   0  0  0  0  0  0  0  0  0  0  0  0
   59.6386   34.0316   43.3582 H   0  0  0  0  0  0  0  0  0  0  0  0
   58.0160   32.7040   43.9100 C   0  0  0  0  0  0  0  0  0  0  0  0
   58.0243   32.1735   42.9464 H   0  0  0  0  0  0  0  0  0  0  0  0
  1  2  1  0
  2  3  2  0
  3  4  1  0
  4  5  1  0
  4  6  1  0
  4  7  1  0
  7  8  2  0
  8  9  1  0
  8 10  1  0
 10 11  1  0
 10 12  2  0
 12 13  1  0
 12 14  1  0
 14 15  1  0
 14 16  2  0
 16 17  1  0
 17 18  1  0
 18 19  1  0
 18 20  1  0
 18 21  1  0
  3 22  1  0
 22 23  2  0
 22 24  1  0
 24 25  1  0
 25 26  2  0
 26 27  1  0
 26 28  1  0
 28 29  2  0
 28 30  1  0
 30 31  1  0
 31 32  2  0
 32 33  1  0
 32 34  1  0
 34 35  1  0
 34 36  2  0
 36 37  1  0
 36 38  1  0
 38 39  1  0
 38 40  2  0
 40 41  1  0
 25  2  1  0
 40 31  1  0
 16  7  1  0
M  CHG  1  30  -1
M  END
>  <UniqueID>  (44) 
41

>  <SMILES>  (44) 
O=C(/C=C1/C=C(Cc2ccccc2OC(F)(F)F)C(=O)O1)[N-]c1ccccc1

>  <Energy>  (44) 
72.74483321859526

>  <Genealogy>  (44) 
O=C(C=C1C=C(Cc2ccccc2OC(F)(F)F)C(=O)O1)[N-]c1ccccc1 (protonated)
O=C(/C=C1/C=C(Cc2ccccc2OC(F)(F)F)C(=O)O1)[N-]c1ccccc1 (cis-trans isomerization)
O=C(/C=C1/C=C(Cc2ccccc2OC(F)(F)F)C(=O)O1)[N-]c1ccccc1 (3D coordinates assigned)
O=C(/C=C1/C=C(Cc2ccccc2OC(F)(F)F)C(=O)O1)[N-]c1ccccc1 (nonaromatic ring conformer: 72.74483321859526 kcal/mol)

>  <smiles>  (44) 
O=C(C=C1C=C(Cc2ccccc2OC(F)(F)F)C(=O)O1)Nc1ccccc1

>  <score_type>  (44) 
oracle

>  <origin>  (44) 
adg

>  <m_score__min__energy>  (44) 
-10.49

>  <m_primary>  (44) 
energy

$$$$
44:0
     RDKit          3D

 40 42  0  0  0  0  0  0  0  0999 V2000
   55.2160   29.6570   43.0210 O   0  0  0  0  0  0  0  0  0  0  0  0
   55.9580   29.9140   44.0060 C   0  0  0  0  0  0  0  0  0  0  0  0
   55.8530   29.0900   45.1780 N   0  0  0  0  0  0  0  0  0  0  0  0
   56.6670   28.1300   45.5120 C   0  0  0  0  0  0  0  0  0  0  0  0
   58.0180   28.2950   45.4280 N   0  0  0  0  0  0  0  0  0  0  0  0
   58.8870   27.3020   45.7550 C   0  0  0  0  0  0  0  0  0  0  0  0
   58.4060   26.0680   46.1940 C   0  0  0  0  0  0  0  0  0  0  0  0
   57.0270   25.8660   46.2800 C   0  0  0  0  0  0  0  0  0  0  0  0
   56.1490   26.8960   45.9330 C   0  0  0  0  0  0  0  0  0  0  0  0
   54.7750   26.6910   46.0130 O   0  0  0  0  0  0  0  0  0  0  0  0
   56.8530   31.0960   43.9560 C   0  0  0  0  0  0  0  0  0  0  0  0
   57.2330   31.7420   45.1450 C   0  0  0  0  0  0  0  0  0  0  0  0
   58.0780   32.8590   45.1120 C   0  0  0  0  0  0  0  0  0  0  0  0
   58.5890   33.6310   46.6130 S   0  0  0  0  0  0  0  0  0  0  0  0
   59.1990   34.9670   46.2900 O   0  0  0  0  0  0  0  0  0  0  0  0
   57.3950   33.8530   47.5010 O   0  0  0  0  0  0  0  0  0  0  0  0
   59.7670   32.6340   47.4310 N   0  0  0  0  0  0  0  0  0  0  0  0
   61.1110   32.8790   46.8700 C   0  0  0  0  0  0  0  0  0  0  0  0
   62.0480   31.6970   47.1660 C   0  0  0  0  0  0  0  0  0  0  0  0
   61.6060   30.4560   46.6280 O   0  0  0  0  0  0  0  0  0  0  0  0
   60.2100   30.4060   46.3720 C   0  0  0  0  0  0  0  0  0  0  0  0
   59.3770   31.2070   47.3900 C   0  0  0  0  0  0  0  0  0  0  0  0
   58.5460   33.3380   43.8830 C   0  0  0  0  0  0  0  0  0  0  0  0
   58.1600   32.7140   42.6960 C   0  0  0  0  0  0  0  0  0  0  0  0
   57.3150   31.6010   42.7250 C   0  0  0  0  0  0  0  0  0  0  0  0
   56.9730   31.0030   41.5550 F   0  0  0  0  0  0  0  0  0  0  0  0
   59.9708   27.4716   45.6734 H   0  0  0  0  0  0  0  0  0  0  0  0
   59.1046   25.2641   46.4690 H   0  0  0  0  0  0  0  0  0  0  0  0
   56.6325   24.8973   46.6205 H   0  0  0  0  0  0  0  0  0  0  0  0
   56.8634   31.3670   46.1108 H   0  0  0  0  0  0  0  0  0  0  0  0
   61.0290   33.0107   45.7810 H   0  0  0  0  0  0  0  0  0  0  0  0
   61.5278   33.7850   47.3341 H   0  0  0  0  0  0  0  0  0  0  0  0
   63.0366   31.9251   46.7411 H   0  0  0  0  0  0  0  0  0  0  0  0
   62.0725   31.5779   48.2593 H   0  0  0  0  0  0  0  0  0  0  0  0
   60.0238   30.8159   45.3683 H   0  0  0  0  0  0  0  0  0  0  0  0
   59.9006   29.3535   46.4527 H   0  0  0  0  0  0  0  0  0  0  0  0
   58.3151   31.1377   47.1117 H   0  0  0  0  0  0  0  0  0  0  0  0
   59.5580   30.7784   48.3867 H   0  0  0  0  0  0  0  0  0  0  0  0
   59.2190   34.2076   43.8527 H   0  0  0  0  0  0  0  0  0  0  0  0
   58.5228   33.1002   41.7320 H   0  0  0  0  0  0  0  0  0  0  0  0
  1  2  2  0
  2  3  1  0
  3  4  2  3
  4  5  1  0
  5  6  1  0
  6  7  2  0
  7  8  1  0
  8  9  2  0
  9 10  1  0
  2 11  1  0
 11 12  2  0
 12 13  1  0
 13 14  1  0
 14 15  2  0
 14 16  2  0
 14 17  1  0
 17 18  1  0
 18 19  1  0
 19 20  1  0
 20 21  1  0
 21 22  1  0
 13 23  2  0
 23 24  1  0
 24 25  2  0
 25 26  1  0
  9  4  1  0
 25 11  1  0
 22 17  1  0
  6 27  1  0
  7 28  1  0
  8 29  1  0
 12 30  1  0
 18 31  1  0
 18 32  1  0
 19 33  1  0
 19 34  1  0
 21 35  1  0
 21 36  1  0
 22 37  1  0
 22 38  1  0
 23 39  1  0
 24 40  1  0
M  CHG  2   5  -1  10  -1
M  END
>  <UniqueID>  (45) 
42

>  <SMILES>  (45) 
O=C(N=c1[n-]cccc1[O-])c1cc(S(=O)(=O)N2CCOCC2)ccc1F

>  <Energy>  (45) 
61.28310417830873

>  <Genealogy>  (45) 
O=C(N=c1[n-]cccc1[O-])c1cc(S(=O)(=O)N2CCOCC2)ccc1F (protonated)
O=C(N=c1[n-]cccc1[O-])c1cc(S(=O)(=O)N2CCOCC2)ccc1F (3D coordinates assigned)
O=C(N=c1[n-]cccc1[O-])c1cc(S(=O)(=O)N2CCOCC2)ccc1F (nonaromatic ring conformer: 61.28310417830873 kcal/mol)

>  <smiles>  (45) 
O=C(N=c1[nH]cccc1O)c1cc(S(=O)(=O)N2CCOCC2)ccc1F

>  <score_type>  (45) 
oracle

>  <origin>  (45) 
adg

>  <m_score__min__energy>  (45) 
-13.77

>  <m_primary>  (45) 
energy

$$$$
45:0
     RDKit          3D

 51 53  0  0  0  0  0  0  0  0999 V2000
   57.3660   21.5360   43.0570 C   0  0  0  0  0  0  0  0  0  0  0  0
   57.1370   21.7060   44.5300 C   0  0  0  0  0  0  0  0  0  0  0  0
   57.2250   20.6000   45.3880 C   0  0  0  0  0  0  0  0  0  0  0  0
   56.9790   20.7440   46.7600 C   0  0  0  0  0  0  0  0  0  0  0  0
   57.1250   19.5680   47.6770 C   0  0  0  0  0  0  0  0  0  0  0  0
   56.6540   22.0070   47.2760 C   0  0  0  0  0  0  0  0  0  0  0  0
   56.5270   23.1160   46.4230 C   0  0  0  0  0  0  0  0  0  0  0  0
   56.1520   24.4640   46.9840 C   0  0  0  0  0  0  0  0  0  0  0  0
   55.4190   25.3020   45.9670 C   0  0  0  0  0  0  0  0  0  0  0  0
   54.6740   24.7320   45.1260 O   0  0  0  0  0  0  0  0  0  0  0  0
   55.4870   26.7330   45.9660 N   0  0  0  0  0  0  0  0  0  0  0  0
   56.6760   27.4920   45.7250 C   0  0  0  0  0  0  0  0  0  0  0  0
   57.9170   26.8760   45.8960 C   0  0  0  0  0  0  0  0  0  0  0  0
   59.0880   27.5850   45.6470 C   0  0  0  0  0  0  0  0  0  0  0  0
   59.0290   28.9210   45.2520 C   0  0  0  0  0  0  0  0  0  0  0  0
   57.7920   29.5830   45.1230 C   0  0  0  0  0  0  0  0  0  0  0  0
   57.7140   31.3080   44.6730 S   0  0  0  0  0  0  0  0  0  0  0  0
   58.4350   31.4790   43.3660 O   0  0  0  0  0  0  0  0  0  0  0  0
   56.2690   31.6770   44.4770 O   0  0  0  0  0  0  0  0  0  0  0  0
   58.3920   32.4430   45.8180 N   0  0  0  0  0  0  0  0  0  0  0  0
   59.6790   31.9770   46.3620 C   0  0  0  0  0  0  0  0  0  0  0  0
   60.2580   32.9970   47.3700 C   0  0  0  0  0  0  0  0  0  0  0  0
   59.6590   34.2800   47.2930 O   0  0  0  0  0  0  0  0  0  0  0  0
   59.5040   34.6640   45.9460 C   0  0  0  0  0  0  0  0  0  0  0  0
   58.3950   33.8250   45.3010 C   0  0  0  0  0  0  0  0  0  0  0  0
   56.6010   28.8470   45.3570 C   0  0  0  0  0  0  0  0  0  0  0  0
   55.3330   29.4230   45.2440 O   0  0  0  0  0  0  0  0  0  0  0  0
   56.7730   22.9580   45.0490 C   0  0  0  0  0  0  0  0  0  0  0  0
   58.2395   20.8876   42.8942 H   0  0  0  0  0  0  0  0  0  0  0  0
   56.4778   21.0768   42.5984 H   0  0  0  0  0  0  0  0  0  0  0  0
   57.5486   22.5191   42.5984 H   0  0  0  0  0  0  0  0  0  0  0  0
   57.4889   19.6127   44.9811 H   0  0  0  0  0  0  0  0  0  0  0  0
   57.0825   19.9101   48.7216 H   0  0  0  0  0  0  0  0  0  0  0  0
   56.3085   18.8546   47.4913 H   0  0  0  0  0  0  0  0  0  0  0  0
   58.0911   19.0760   47.4913 H   0  0  0  0  0  0  0  0  0  0  0  0
   56.4972   22.1303   48.3578 H   0  0  0  0  0  0  0  0  0  0  0  0
   55.5040   24.3184   47.8609 H   0  0  0  0  0  0  0  0  0  0  0  0
   57.0765   24.9907   47.2630 H   0  0  0  0  0  0  0  0  0  0  0  0
   57.9692   25.8286   46.2281 H   0  0  0  0  0  0  0  0  0  0  0  0
   60.0635   27.0900   45.7621 H   0  0  0  0  0  0  0  0  0  0  0  0
   59.9607   29.4653   45.0383 H   0  0  0  0  0  0  0  0  0  0  0  0
   59.5263   31.0145   46.8722 H   0  0  0  0  0  0  0  0  0  0  0  0
   60.3902   31.8645   45.5304 H   0  0  0  0  0  0  0  0  0  0  0  0
   60.1072   32.6042   48.3863 H   0  0  0  0  0  0  0  0  0  0  0  0
   61.3220   33.1245   47.1218 H   0  0  0  0  0  0  0  0  0  0  0  0
   59.2338   35.7292   45.8969 H   0  0  0  0  0  0  0  0  0  0  0  0
   60.4487   34.5007   45.4067 H   0  0  0  0  0  0  0  0  0  0  0  0
   57.4223   34.2902   45.5189 H   0  0  0  0  0  0  0  0  0  0  0  0
   58.5771   33.7874   44.2168 H   0  0  0  0  0  0  0  0  0  0  0  0
   55.1530   30.4140   45.3270 H   0  0  0  0  0  0  0  0  0  0  0  0
   56.6796   23.8222   44.3748 H   0  0  0  0  0  0  0  0  0  0  0  0
  1  2  1  0
  2  3  2  0
  3  4  1  0
  4  5  1  0
  4  6  2  0
  6  7  1  0
  7  8  1  0
  8  9  1  0
  9 10  2  0
  9 11  1  0
 11 12  1  0
 12 13  2  0
 13 14  1  0
 14 15  2  0
 15 16  1  0
 16 17  1  0
 17 18  2  0
 17 19  2  0
 17 20  1  0
 20 21  1  0
 21 22  1  0
 22 23  1  0
 23 24  1  0
 24 25  1  0
 16 26  2  0
 26 27  1  0
  7 28  2  0
 28  2  1  0
 26 12  1  0
 25 20  1  0
  1 29  1  0
  1 30  1  0
  1 31  1  0
  3 32  1  0
  5 33  1  0
  5 34  1  0
  5 35  1  0
  6 36  1  0
  8 37  1  0
  8 38  1  0
 13 39  1  0
 14 40  1  0
 15 41  1  0
 21 42  1  0
 21 43  1  0
 22 44  1  0
 22 45  1  0
 24 46  1  0
 24 47  1  0
 25 48  1  0
 25 49  1  0
 27 50  1  0
 28 51  1  0
M  CHG  1  11  -1
M  END
>  <UniqueID>  (46) 
43

>  <SMILES>  (46) 
Cc1cc(C)cc(CC(=O)[N-]c2cccc(S(=O)(=O)N3CCOCC3)c2O)c1

>  <Energy>  (46) 
70.65048562512573

>  <Genealogy>  (46) 
Cc1cc(C)cc(CC(=O)[N-]c2cccc(S(=O)(=O)N3CCOCC3)c2O)c1 (protonated)
Cc1cc(C)cc(CC(=O)[N-]c2cccc(S(=O)(=O)N3CCOCC3)c2O)c1 (3D coordinates assigned)
Cc1cc(C)cc(CC(=O)[N-]c2cccc(S(=O)(=O)N3CCOCC3)c2O)c1 (nonaromatic ring conformer: 70.65048562512573 kcal/mol)

>  <smiles>  (46) 
Cc1cc(C)cc(CC(=O)Nc2cccc(S(=O)(=O)N3CCOCC3)c2O)c1

>  <score_type>  (46) 
oracle

>  <origin>  (46) 
adg

>  <m_score__min__energy>  (46) 
-13.210000000000001

>  <m_primary>  (46) 
energy

$$$$
46:0
     RDKit          3D

 31 32  0  0  0  0  0  0  0  0999 V2000
   60.5380   30.0370   49.6310 C   0  0  0  0  0  0  0  0  0  0  0  0
   59.1220   29.9170   49.7420 O   0  0  0  0  0  0  0  0  0  0  0  0
   58.3500   30.5320   50.7380 C   0  0  0  0  0  0  0  0  0  0  0  0
   57.5800   29.7920   51.6570 C   0  0  0  0  0  0  0  0  0  0  0  0
   56.7810   30.4480   52.6120 C   0  0  0  0  0  0  0  0  0  0  0  0
   55.9670   29.6670   53.6120 C   0  0  0  0  0  0  0  0  0  0  0  0
   54.6340   29.3520   53.1000 N   0  0  0  0  0  0  0  0  0  0  0  0
   53.8690   30.1420   52.1810 C   0  0  0  0  0  0  0  0  0  0  0  0
   54.4520   30.6340   51.1790 O   0  0  0  0  0  0  0  0  0  0  0  0
   52.4030   30.4210   52.3770 C   0  0  0  0  0  0  0  0  0  0  0  0
   51.7300   30.8230   51.0970 C   0  0  0  0  0  0  0  0  0  0  0  0
   51.6990   30.0490   49.9970 N   0  0  0  0  0  0  0  0  0  0  0  0
   51.0700   30.8200   49.0850 C   0  0  0  0  0  0  0  0  0  0  0  0
   50.8370   30.4290   47.9120 O   0  0  0  0  0  0  0  0  0  0  0  0
   50.7140   32.0450   49.5270 N   0  0  0  0  0  0  0  0  0  0  0  0
   51.1480   32.0360   50.7980 C   0  0  0  0  0  0  0  0  0  0  0  0
   51.0210   33.1170   51.6600 O   0  0  0  0  0  0  0  0  0  0  0  0
   56.8060   31.8490   52.6800 C   0  0  0  0  0  0  0  0  0  0  0  0
   57.5840   32.5850   51.7840 C   0  0  0  0  0  0  0  0  0  0  0  0
   58.3480   31.9320   50.8140 C   0  0  0  0  0  0  0  0  0  0  0  0
   59.1060   32.6780   49.9190 O   0  0  0  0  0  0  0  0  0  0  0  0
   60.9827   30.0747   50.6364 H   0  0  0  0  0  0  0  0  0  0  0  0
   60.9379   29.1695   49.0855 H   0  0  0  0  0  0  0  0  0  0  0  0
   60.7862   30.9594   49.0855 H   0  0  0  0  0  0  0  0  0  0  0  0
   57.6035   28.6926   51.6279 H   0  0  0  0  0  0  0  0  0  0  0  0
   56.4912   28.7277   53.8418 H   0  0  0  0  0  0  0  0  0  0  0  0
   55.8493   30.2852   54.5142 H   0  0  0  0  0  0  0  0  0  0  0  0
   51.9174   29.5127   52.7633 H   0  0  0  0  0  0  0  0  0  0  0  0
   52.3085   31.2560   53.0868 H   0  0  0  0  0  0  0  0  0  0  0  0
   56.2096   32.3705   53.4431 H   0  0  0  0  0  0  0  0  0  0  0  0
   57.5953   33.6834   51.8423 H   0  0  0  0  0  0  0  0  0  0  0  0
  1  2  1  0
  2  3  1  0
  3  4  2  0
  4  5  1  0
  5  6  1  0
  6  7  1  0
  7  8  1  0
  8  9  2  0
  8 10  1  0
 10 11  1  0
 11 12  1  0
 12 13  1  0
 13 14  2  0
 13 15  1  0
 15 16  1  0
 16 17  1  0
  5 18  2  0
 18 19  1  0
 19 20  2  0
 20 21  1  0
 20  3  1  0
 16 11  2  0
  1 22  1  0
  1 23  1  0
  1 24  1  0
  4 25  1  0
  6 26  1  0
  6 27  1  0
 10 28  1  0
 10 29  1  0
 18 30  1  0
 19 31  1  0
M  CHG  5   7  -1  12  -1  15  -1  17  -1  21  -1
M  END
>  <UniqueID>  (47) 
44

>  <SMILES>  (47) 
COc1cc(C[N-]C(=O)Cc2[n-]c(=O)[n-]c2[O-])ccc1[O-]

>  <Energy>  (47) 
54.924980674603844

>  <Genealogy>  (47) 
COc1cc(C[N-]C(=O)Cc2[n-]c(=O)[n-]c2[O-])ccc1[O-] (protonated)
COc1cc(C[N-]C(=O)Cc2[n-]c(=O)[n-]c2[O-])ccc1[O-] (3D coordinates assigned)
COc1cc(C[N-]C(=O)Cc2[n-]c(=O)[n-]c2[O-])ccc1[O-] (optimized conformer: 54.924980674603844 kcal/mol)

>  <smiles>  (47) 
COc1cc(CNC(=O)Cc2[nH]c(=O)[nH]c2O)ccc1O

>  <score_type>  (47) 
oracle

>  <origin>  (47) 
adg

>  <m_score__min__energy>  (47) 
-16.280000000000001

>  <m_primary>  (47) 
energy

$$$$
47:0
     RDKit          3D

 47 49  0  0  0  0  0  0  0  0999 V2000
   55.9530   24.4710   47.0010 H   0  0  0  0  0  0  0  0  0  0  0  0
   56.8940   24.8350   46.9210 O   0  0  0  0  0  0  0  0  0  0  0  0
   57.1450   26.0910   46.3750 C   0  0  0  0  0  0  0  0  0  0  0  0
   58.4670   26.5400   46.2710 C   0  0  0  0  0  0  0  0  0  0  0  0
   59.2918   25.8926   46.6035 H   0  0  0  0  0  0  0  0  0  0  0  0
   58.7450   27.8040   45.7480 C   0  0  0  0  0  0  0  0  0  0  0  0
   59.7860   28.1528   45.6793 H   0  0  0  0  0  0  0  0  0  0  0  0
   57.7000   28.6300   45.3100 C   0  0  0  0  0  0  0  0  0  0  0  0
   57.9940   29.9790   44.7890 C   0  0  0  0  0  0  0  0  0  0  0  0
   57.9909   30.1225   43.6984 H   0  0  0  0  0  0  0  0  0  0  0  0
   58.2630   31.0340   45.5570 C   0  0  0  0  0  0  0  0  0  0  0  0
   57.5779   31.8927   45.4993 H   0  0  0  0  0  0  0  0  0  0  0  0
   59.4140   31.1380   46.4820 C   0  0  0  0  0  0  0  0  0  0  0  0
   60.5800   31.3060   46.0390 O   0  0  0  0  0  0  0  0  0  0  0  0
   59.2080   30.9980   47.9390 C   0  0  0  0  0  0  0  0  0  0  0  0
   59.2800   29.7170   48.5030 C   0  0  0  0  0  0  0  0  0  0  0  0
   59.5604   28.8590   47.8743 H   0  0  0  0  0  0  0  0  0  0  0  0
   59.0000   29.5220   49.8500 C   0  0  0  0  0  0  0  0  0  0  0  0
   59.0603   28.5108   50.2788 H   0  0  0  0  0  0  0  0  0  0  0  0
   58.6430   30.5980   50.6630 C   0  0  0  0  0  0  0  0  0  0  0  0
   58.3850   30.3480   51.9990 O   0  0  0  0  0  0  0  0  0  0  0  0
   58.5720   31.9060   50.1220 C   0  0  0  0  0  0  0  0  0  0  0  0
   58.2330   33.0400   50.8850 O   0  0  0  0  0  0  0  0  0  0  0  0
   58.7680   33.3890   52.1600 C   0  0  0  0  0  0  0  0  0  0  0  0
   58.1290   32.9721   52.9524 H   0  0  0  0  0  0  0  0  0  0  0  0
   59.7846   32.9798   52.2556 H   0  0  0  0  0  0  0  0  0  0  0  0
   58.8031   34.4843   52.2556 H   0  0  0  0  0  0  0  0  0  0  0  0
   58.8830   32.1060   48.7610 C   0  0  0  0  0  0  0  0  0  0  0  0
   58.8690   33.4940   48.2370 C   0  0  0  0  0  0  0  0  0  0  0  0
   57.9029   33.9051   47.9087 H   0  0  0  0  0  0  0  0  0  0  0  0
   59.9500   34.2860   48.1340 C   0  0  0  0  0  0  0  0  0  0  0  0
   59.7908   35.3168   47.7845 H   0  0  0  0  0  0  0  0  0  0  0  0
   61.3400   33.8810   48.4540 C   0  0  0  0  0  0  0  0  0  0  0  0
   61.7540   33.8730   49.7970 C   0  0  0  0  0  0  0  0  0  0  0  0
   61.0486   34.1651   50.5889 H   0  0  0  0  0  0  0  0  0  0  0  0
   63.0600   33.4950   50.1320 C   0  0  0  0  0  0  0  0  0  0  0  0
   63.3789   33.4994   51.1847 H   0  0  0  0  0  0  0  0  0  0  0  0
   63.9600   33.1120   49.1330 C   0  0  0  0  0  0  0  0  0  0  0  0
   65.2580   32.7360   49.4680 O   0  0  0  0  0  0  0  0  0  0  0  0
   63.5510   33.0890   47.7930 C   0  0  0  0  0  0  0  0  0  0  0  0
   64.2557   32.7805   47.0067 H   0  0  0  0  0  0  0  0  0  0  0  0
   62.2420   33.4600   47.4570 C   0  0  0  0  0  0  0  0  0  0  0  0
   61.9164   33.4222   46.4070 H   0  0  0  0  0  0  0  0  0  0  0  0
   56.3720   28.1810   45.4030 C   0  0  0  0  0  0  0  0  0  0  0  0
   55.3250   28.9870   44.9670 O   0  0  0  0  0  0  0  0  0  0  0  0
   56.0930   26.9180   45.9290 C   0  0  0  0  0  0  0  0  0  0  0  0
   54.7760   26.4800   46.0100 O   0  0  0  0  0  0  0  0  0  0  0  0
  1  2  1  0
  2  3  1  0
  3  4  2  0
  4  5  1  0
  4  6  1  0
  6  7  1  0
  6  8  2  0
  8  9  1  0
  9 10  1  0
  9 11  2  0
 11 12  1  0
 11 13  1  0
 13 14  2  0
 13 15  1  0
 15 16  2  0
 16 17  1  0
 16 18  1  0
 18 19  1  0
 18 20  2  0
 20 21  1  0
 20 22  1  0
 22 23  1  0
 23 24  1  0
 24 25  1  0
 24 26  1  0
 24 27  1  0
 22 28  2  0
 28 29  1  0
 29 30  1  0
 29 31  2  3
 31 32  1  0
 31 33  1  0
 33 34  2  0
 34 35  1  0
 34 36  1  0
 36 37  1  0
 36 38  2  0
 38 39  1  0
 38 40  1  0
 40 41  1  0
 40 42  2  0
 42 43  1  0
  8 44  1  0
 44 45  1  0
 44 46  2  0
 46 47  1  0
 46  3  1  0
 28 15  1  0
 42 33  1  0
M  CHG  4  21  -1  39  -1  45  -1  47  -1
M  END
>  <UniqueID>  (48) 
45

>  <SMILES>  (48) 
COc1c([O-])ccc(C(=O)/C=C\c2ccc(O)c([O-])c2[O-])c1C=Cc1ccc([O-])cc1

>  <Energy>  (48) 
77.80516534774924

>  <Genealogy>  (48) 
COc1c([O-])ccc(C(=O)C=Cc2ccc(O)c([O-])c2[O-])c1C=Cc1ccc([O-])cc1 (protonated)
COc1c([O-])ccc(C(=O)/C=C\c2ccc(O)c([O-])c2[O-])c1C=Cc1ccc([O-])cc1 (cis-trans isomerization)
COc1c([O-])ccc(C(=O)/C=C\c2ccc(O)c([O-])c2[O-])c1C=Cc1ccc([O-])cc1 (3D coordinates assigned)
COc1c([O-])ccc(C(=O)/C=C\c2ccc(O)c([O-])c2[O-])c1C=Cc1ccc([O-])cc1 (optimized conformer: 77.80516534774924 kcal/mol)

>  <smiles>  (48) 
COc1c(O)ccc(C(=O)C=Cc2ccc(O)c(O)c2O)c1C=Cc1ccc(O)cc1

>  <score_type>  (48) 
oracle

>  <origin>  (48) 
adg

>  <m_score__min__energy>  (48) 
-17.199999999999999

>  <m_primary>  (48) 
energy

$$$$
48:0
     RDKit          3D

 46 48  0  0  1  0  0  0  0  0999 V2000
   55.4870   26.0200   46.1200 O   0  0  0  0  0  0  0  0  0  0  0  0
   56.6270   26.4590   45.7990 C   0  0  0  0  0  0  0  0  0  0  0  0
   57.7950   25.5320   45.5910 C   0  0  0  0  0  0  0  0  0  0  0  0
   57.3690   24.3310   44.8650 C   0  0  0  0  0  0  0  0  0  0  0  0
   56.6520   24.3320   43.6880 C   0  0  0  0  0  0  0  0  0  0  0  0
   56.2800   23.1520   43.0540 C   0  0  0  0  0  0  0  0  0  0  0  0
   56.6290   21.9340   43.6020 C   0  0  0  0  0  0  0  0  0  0  0  0
   56.2850   20.7160   43.0120 O   0  0  0  0  0  0  0  0  0  0  0  0
   57.3490   21.9080   44.7810 C   0  0  0  0  0  0  0  0  0  0  0  0
   57.7100   23.0900   45.3980 C   0  0  0  0  0  0  0  0  0  0  0  0
   56.8820   27.8460   45.6140 N   0  0  0  0  0  0  0  0  0  0  0  0
   58.0160   28.4000   45.7460 C   0  0  0  0  0  0  0  0  0  0  0  0
   58.3860   28.9450   46.9620 C   0  0  0  0  0  0  0  0  0  0  0  0
   59.6360   29.5540   47.0960 C   0  0  0  0  0  0  0  0  0  0  0  0
   59.9360   30.0860   48.3740 N   0  0  0  0  0  0  0  0  0  0  0  0
   60.1440   31.5060   48.6140 C   0  0  0  0  0  0  0  0  0  0  0  0
   58.7970   32.1550   48.3870 C   0  0  0  0  0  0  0  0  0  0  0  0
   58.7810   33.0390   47.2030 C   0  0  0  0  0  0  0  0  0  0  0  0
   59.6210   34.1200   47.0380 C   0  0  0  0  0  0  0  0  0  0  0  0
   59.5220   34.8850   45.8830 C   0  0  0  0  0  0  0  0  0  0  0  0
   58.5950   34.5840   44.8930 C   0  0  0  0  0  0  0  0  0  0  0  0
   57.7550   33.5020   45.0620 C   0  0  0  0  0  0  0  0  0  0  0  0
   57.8440   32.7290   46.2100 C   0  0  0  0  0  0  0  0  0  0  0  0
   60.4370   29.5910   46.0410 N   0  0  0  0  0  0  0  0  0  0  0  0
   60.0500   29.0480   44.8530 C   0  0  0  0  0  0  0  0  0  0  0  0
   58.8480   28.4540   44.7000 N   0  0  0  0  0  0  0  0  0  0  0  0
   58.5712   26.0512   45.0096 H   0  0  0  0  0  0  0  0  0  0  0  0
   58.1944   25.2343   46.5717 H   0  0  0  0  0  0  0  0  0  0  0  0
   56.3659   25.2938   43.2374 H   0  0  0  0  0  0  0  0  0  0  0  0
   55.7074   23.1889   42.1155 H   0  0  0  0  0  0  0  0  0  0  0  0
   56.8740   19.9080   43.1830 H   0  0  0  0  0  0  0  0  0  0  0  0
   57.6351   20.9449   45.2288 H   0  0  0  0  0  0  0  0  0  0  0  0
   58.2827   23.0502   46.3363 H   0  0  0  0  0  0  0  0  0  0  0  0
   57.6990   28.8991   47.8199 H   0  0  0  0  0  0  0  0  0  0  0  0
   60.0050   29.4020   49.1590 H   0  0  0  0  0  0  0  0  0  0  0  0
   60.4836   31.6758   49.6464 H   0  0  0  0  0  0  0  0  0  0  0  0
   60.9155   31.9236   47.9504 H   0  0  0  0  0  0  0  0  0  0  0  0
   58.0451   31.3646   48.2460 H   0  0  0  0  0  0  0  0  0  0  0  0
   58.5752   32.7758   49.2676 H   0  0  0  0  0  0  0  0  0  0  0  0
   60.3606   34.3734   47.8118 H   0  0  0  0  0  0  0  0  0  0  0  0
   60.1917   35.7474   45.7493 H   0  0  0  0  0  0  0  0  0  0  0  0
   58.5312   35.2011   43.9846 H   0  0  0  0  0  0  0  0  0  0  0  0
   57.0155   33.2529   44.2867 H   0  0  0  0  0  0  0  0  0  0  0  0
   57.1739   31.8666   46.3412 H   0  0  0  0  0  0  0  0  0  0  0  0
   61.3690   30.0440   46.1390 H   0  0  0  0  0  0  0  0  0  0  0  0
   60.7363   29.0951   43.9947 H   0  0  0  0  0  0  0  0  0  0  0  0
  1  2  2  0
  2  3  1  0
  3  4  1  0
  4  5  2  0
  5  6  1  0
  6  7  2  0
  7  8  1  0
  7  9  1  0
  9 10  2  0
  2 11  1  0
 11 12  2  0
 12 13  1  0
 13 14  2  0
 14 15  1  0
 15 16  1  0
 16 17  1  0
 17 18  1  0
 18 19  2  0
 19 20  1  0
 20 21  2  0
 21 22  1  0
 22 23  2  0
 14 24  1  0
 24 25  1  0
 25 26  2  0
 10  4  1  0
 26 12  1  0
 23 18  1  0
  3 27  1  0
  3 28  1  0
  5 29  1  0
  6 30  1  0
  8 31  1  0
  9 32  1  0
 10 33  1  0
 13 34  1  0
 15 35  1  0
 16 36  1  0
 16 37  1  0
 17 38  1  0
 17 39  1  0
 19 40  1  0
 20 41  1  0
 21 42  1  0
 22 43  1  0
 23 44  1  0
 24 45  1  0
 25 46  1  0
M  END
>  <smiles>  (49) 
O=C(Cc1ccc(O)cc1)N=c1cc(NCCc2ccccc2)[nH]cn1

>  <score_type>  (49) 
oracle

>  <origin>  (49) 
adg

>  <m_score__min__energy>  (49) 
-8.8200000000000003

>  <m_primary>  (49) 
energy

$$$$
49:0
     RDKit          3D

 47 49  0  0  0  0  0  0  0  0999 V2000
   59.3120   25.6360   46.0000 C   0  0  0  0  0  0  0  0  0  0  0  0
   59.8470   26.9310   45.7500 O   0  0  0  0  0  0  0  0  0  0  0  0
   59.6000   28.0610   46.5450 C   0  0  0  0  0  0  0  0  0  0  0  0
   60.3950   28.3760   47.6630 C   0  0  0  0  0  0  0  0  0  0  0  0
   60.1320   29.5210   48.4190 C   0  0  0  0  0  0  0  0  0  0  0  0
   59.0480   30.3580   48.0960 C   0  0  0  0  0  0  0  0  0  0  0  0
   58.7960   31.6640   48.8300 C   0  0  1  0  0  0  0  0  0  0  0  0
   59.1780   31.6700   50.3050 C   0  0  0  0  0  0  0  0  0  0  0  0
   59.4610   33.0720   50.6630 N   0  0  0  0  0  0  0  0  0  0  0  0
   60.6160   33.1760   51.5690 C   0  0  0  0  0  0  0  0  0  0  0  0
   59.6790   33.8190   49.4080 C   0  0  0  0  0  0  0  0  0  0  0  0
   59.6000   32.8190   48.2550 C   0  0  2  0  0  0  0  0  0  0  0  0
   58.9990   33.3740   46.9740 C   0  0  0  0  0  0  0  0  0  0  0  0
   59.7890   34.0460   46.0200 C   0  0  0  0  0  0  0  0  0  0  0  0
   59.2020   34.5980   44.8770 C   0  0  0  0  0  0  0  0  0  0  0  0
   57.8240   34.4920   44.6760 C   0  0  0  0  0  0  0  0  0  0  0  0
   57.0290   33.8380   45.6190 C   0  0  0  0  0  0  0  0  0  0  0  0
   57.6110   33.2830   46.7630 C   0  0  0  0  0  0  0  0  0  0  0  0
   58.2550   30.0370   46.9840 C   0  0  0  0  0  0  0  0  0  0  0  0
   58.5350   28.9100   46.2060 C   0  0  0  0  0  0  0  0  0  0  0  0
   57.5420   28.5910   44.7440 S   0  0  0  0  0  0  0  0  0  0  0  0
   57.2100   30.3350   44.4770 C   0  0  0  0  0  0  0  0  0  0  0  0
   58.2210   31.1960   43.7860 C   0  0  0  0  0  0  0  0  0  0  0  0
   56.1530   30.8130   44.8590 O   0  0  0  0  0  0  0  0  0  0  0  0
   59.2437   25.4707   47.0854 H   0  0  0  0  0  0  0  0  0  0  0  0
   58.3093   25.5611   45.5539 H   0  0  0  0  0  0  0  0  0  0  0  0
   59.9695   24.8753   45.5539 H   0  0  0  0  0  0  0  0  0  0  0  0
   61.2292   27.7160   47.9434 H   0  0  0  0  0  0  0  0  0  0  0  0
   60.7777   29.7703   49.2739 H   0  0  0  0  0  0  0  0  0  0  0  0
   57.7085   31.7744   48.7073 H   0  0  0  0  0  0  0  0  0  0  0  0
   58.3471   31.2835   50.9135 H   0  0  0  0  0  0  0  0  0  0  0  0
   60.0531   31.0297   50.4900 H   0  0  0  0  0  0  0  0  0  0  0  0
   60.2679   33.1447   52.6120 H   0  0  0  0  0  0  0  0  0  0  0  0
   61.3023   32.3360   51.3861 H   0  0  0  0  0  0  0  0  0  0  0  0
   61.1412   34.1251   51.3861 H   0  0  0  0  0  0  0  0  0  0  0  0
   58.9025   34.5892   49.2903 H   0  0  0  0  0  0  0  0  0  0  0  0
   60.6596   34.3173   49.4205 H   0  0  0  0  0  0  0  0  0  0  0  0
   60.6046   32.5200   47.9213 H   0  0  0  0  0  0  0  0  0  0  0  0
   60.8742   34.1369   46.1753 H   0  0  0  0  0  0  0  0  0  0  0  0
   59.8268   35.1166   44.1349 H   0  0  0  0  0  0  0  0  0  0  0  0
   57.3650   34.9239   43.7745 H   0  0  0  0  0  0  0  0  0  0  0  0
   55.9431   33.7592   45.4619 H   0  0  0  0  0  0  0  0  0  0  0  0
   56.9787   32.7714   47.5036 H   0  0  0  0  0  0  0  0  0  0  0  0
   57.4023   30.6803   46.7211 H   0  0  0  0  0  0  0  0  0  0  0  0
   58.8331   31.7173   44.5367 H   0  0  0  0  0  0  0  0  0  0  0  0
   58.8687   30.5679   43.1567 H   0  0  0  0  0  0  0  0  0  0  0  0
   57.7041   31.9355   43.1567 H   0  0  0  0  0  0  0  0  0  0  0  0
  1  2  1  0
  2  3  1  0
  3  4  2  0
  4  5  1  0
  5  6  2  0
  6  7  1  0
  7  8  1  0
  8  9  1  0
  9 10  1  0
  9 11  1  0
 11 12  1  0
 12 13  1  0
 13 14  2  0
 14 15  1  0
 15 16  2  0
 16 17  1  0
 17 18  2  0
  6 19  1  0
 19 20  2  0
 20 21  1  0
 21 22  1  0
 22 23  1  0
 22 24  2  0
 20  3  1  0
 12  7  1  0
 18 13  1  0
  1 25  1  0
  1 26  1  0
  1 27  1  0
  4 28  1  0
  5 29  1  0
  7 30  1  1
  8 31  1  0
  8 32  1  0
 10 33  1  0
 10 34  1  0
 10 35  1  0
 11 36  1  0
 11 37  1  0
 12 38  1  6
 14 39  1  0
 15 40  1  0
 16 41  1  0
 17 42  1  0
 18 43  1  0
 19 44  1  0
 23 45  1  0
 23 46  1  0
 23 47  1  0
M  END
>  <UniqueID>  (50) 
46

>  <SMILES>  (50) 
COc1ccc([C@H]2CN(C)C[C@@H]2c2ccccc2)cc1SC(C)=O

>  <Energy>  (50) 
46.970374659327405

>  <Genealogy>  (50) 
COc1ccc([C@H]2CN(C)C[C@@H]2c2ccccc2)cc1SC(C)=O (chirality)
COc1ccc([C@H]2CN(C)C[C@@H]2c2ccccc2)cc1SC(C)=O (3D coordinates assigned)
COc1ccc([C@H]2CN(C)C[C@@H]2c2ccccc2)cc1SC(C)=O (nonaromatic ring conformer: 46.970374659327405 kcal/mol)

>  <smiles>  (50) 
COc1ccc(C2CN(C)CC2c2ccccc2)cc1SC(C)=O

>  <score_type>  (50) 
oracle

>  <origin>  (50) 
adg

>  <m_score__min__energy>  (50) 
-7.8799999999999999

>  <m_primary>  (50) 
energy

$$$$
50:0
     RDKit          3D

 45 47  0  0  0  0  0  0  0  0999 V2000
   58.1190   32.7430   43.4220 C   0  0  0  0  0  0  0  0  0  0  0  0
   58.2440   33.1740   44.8490 C   0  0  0  0  0  0  0  0  0  0  0  0
   57.1660   33.0480   45.7290 C   0  0  0  0  0  0  0  0  0  0  0  0
   57.3380   33.4540   47.0530 C   0  0  0  0  0  0  0  0  0  0  0  0
   58.5350   33.9510   47.4620 N   0  0  0  0  0  0  0  0  0  0  0  0
   59.5800   34.0600   46.5990 C   0  0  0  0  0  0  0  0  0  0  0  0
   60.7090   34.5420   47.0220 N   0  0  0  0  0  0  0  0  0  0  0  0
   62.0730   33.5560   47.4410 S   0  0  0  0  0  0  0  0  0  0  0  0
   62.8310   34.2050   48.5660 O   0  0  0  0  0  0  0  0  0  0  0  0
   62.9860   33.4400   46.2530 O   0  0  0  0  0  0  0  0  0  0  0  0
   61.5240   31.9480   47.9060 C   0  0  0  0  0  0  0  0  0  0  0  0
   61.0100   31.0640   46.9470 C   0  0  0  0  0  0  0  0  0  0  0  0
   60.6230   29.7730   47.3170 C   0  0  0  0  0  0  0  0  0  0  0  0
   60.7590   29.3470   48.6500 C   0  0  0  0  0  0  0  0  0  0  0  0
   60.3670   28.0330   49.0720 N   0  0  0  0  0  0  0  0  0  0  0  0
   60.0400   26.9300   48.2190 C   0  0  0  0  0  0  0  0  0  0  0  0
   59.2050   26.0610   48.5910 O   0  0  0  0  0  0  0  0  0  0  0  0
   60.7030   26.8270   46.9070 C   0  0  0  0  0  0  0  0  0  0  0  0
   60.1680   27.1880   45.7310 C   0  0  0  0  0  0  0  0  0  0  0  0
   58.8220   27.7710   45.5500 C   0  0  0  0  0  0  0  0  0  0  0  0
   58.6530   29.0470   44.9840 C   0  0  0  0  0  0  0  0  0  0  0  0
   57.3690   29.5580   44.7710 C   0  0  0  0  0  0  0  0  0  0  0  0
   56.2440   28.7940   45.0980 C   0  0  0  0  0  0  0  0  0  0  0  0
   54.9750   29.3160   44.8770 O   0  0  0  0  0  0  0  0  0  0  0  0
   56.4040   27.5060   45.6380 C   0  0  0  0  0  0  0  0  0  0  0  0
   55.3000   26.7190   45.9640 O   0  0  0  0  0  0  0  0  0  0  0  0
   57.6910   26.9980   45.8510 C   0  0  0  0  0  0  0  0  0  0  0  0
   61.2490   30.2430   49.6080 C   0  0  0  0  0  0  0  0  0  0  0  0
   61.6400   31.5330   49.2370 C   0  0  0  0  0  0  0  0  0  0  0  0
   59.4270   33.6670   45.3040 N   0  0  0  0  0  0  0  0  0  0  0  0
   57.8128   31.6872   43.3833 H   0  0  0  0  0  0  0  0  0  0  0  0
   57.3635   33.3626   42.9167 H   0  0  0  0  0  0  0  0  0  0  0  0
   59.0887   32.8623   42.9167 H   0  0  0  0  0  0  0  0  0  0  0  0
   56.2044   32.6384   45.3862 H   0  0  0  0  0  0  0  0  0  0  0  0
   56.5044   33.3717   47.7660 H   0  0  0  0  0  0  0  0  0  0  0  0
   60.9110   31.3874   45.9003 H   0  0  0  0  0  0  0  0  0  0  0  0
   60.2103   29.0874   46.5622 H   0  0  0  0  0  0  0  0  0  0  0  0
   61.7244   26.4190   46.8905 H   0  0  0  0  0  0  0  0  0  0  0  0
   60.7800   27.0381   44.8293 H   0  0  0  0  0  0  0  0  0  0  0  0
   59.5338   29.6452   44.7079 H   0  0  0  0  0  0  0  0  0  0  0  0
   57.2432   30.5643   44.3448 H   0  0  0  0  0  0  0  0  0  0  0  0
   55.1440   26.3760   46.9040 H   0  0  0  0  0  0  0  0  0  0  0  0
   57.8164   25.9838   46.2580 H   0  0  0  0  0  0  0  0  0  0  0  0
   61.3268   29.9298   50.6596 H   0  0  0  0  0  0  0  0  0  0  0  0
   62.0400   32.2237   49.9939 H   0  0  0  0  0  0  0  0  0  0  0  0
  1  2  1  0
  2  3  1  0
  3  4  2  0
  4  5  1  0
  5  6  1  0
  6  7  2  3
  7  8  1  0
  8  9  2  0
  8 10  2  0
  8 11  1  0
 11 12  2  0
 12 13  1  0
 13 14  2  0
 14 15  1  0
 15 16  1  0
 16 17  2  0
 16 18  1  0
 18 19  2  3
 19 20  1  0
 20 21  2  0
 21 22  1  0
 22 23  2  0
 23 24  1  0
 23 25  1  0
 25 26  1  0
 25 27  2  0
 14 28  1  0
 28 29  2  0
  6 30  1  0
 30  2  2  0
 29 11  1  0
 27 20  1  0
  1 31  1  0
  1 32  1  0
  1 33  1  0
  3 34  1  0
  4 35  1  0
 12 36  1  0
 13 37  1  0
 18 38  1  0
 19 39  1  0
 21 40  1  0
 22 41  1  0
 26 42  1  0
 27 43  1  0
 28 44  1  0
 29 45  1  0
M  CHG  3   5  -1  15  -1  24  -1
M  END
>  <UniqueID>  (51) 
47

>  <SMILES>  (51) 
Cc1cc[n-]c(=NS(=O)(=O)c2ccc([N-]C(=O)C=Cc3ccc([O-])c(O)c3)cc2)n1

>  <Energy>  (51) 
60.91733089655283

>  <Genealogy>  (51) 
Cc1cc[n-]c(=NS(=O)(=O)c2ccc([N-]C(=O)C=Cc3ccc([O-])c(O)c3)cc2)n1 (protonated)
Cc1cc[n-]c(=NS(=O)(=O)c2ccc([N-]C(=O)C=Cc3ccc([O-])c(O)c3)cc2)n1 (3D coordinates assigned)
Cc1cc[n-]c(=NS(=O)(=O)c2ccc([N-]C(=O)C=Cc3ccc([O-])c(O)c3)cc2)n1 (optimized conformer: 60.91733089655283 kcal/mol)

>  <smiles>  (51) 
Cc1cc[nH]c(=NS(=O)(=O)c2ccc(NC(=O)C=Cc3ccc(O)c(O)c3)cc2)n1

>  <score_type>  (51) 
oracle

>  <origin>  (51) 
adg

>  <m_score__min__energy>  (51) 
-14.31

>  <m_primary>  (51) 
energy

$$$$
51:0
     RDKit          3D

 55 58  0  0  0  0  0  0  0  0999 V2000
   59.9370   34.5830   47.4790 C   0  0  0  0  0  0  0  0  0  0  0  0
   59.5410   34.7510   46.0070 C   0  0  0  0  0  0  0  0  0  0  0  0
   58.7580   33.5570   45.5240 C   0  0  0  0  0  0  0  0  0  0  0  0
   58.4500   32.5020   46.4090 C   0  0  0  0  0  0  0  0  0  0  0  0
   57.7680   31.3710   45.9490 C   0  0  0  0  0  0  0  0  0  0  0  0
   57.3980   31.2760   44.5960 C   0  0  0  0  0  0  0  0  0  0  0  0
   56.6480   29.8080   43.9740 S   0  0  0  0  0  0  0  0  0  0  0  0
   55.5180   29.3770   44.8680 O   0  0  0  0  0  0  0  0  0  0  0  0
   56.1070   30.0780   42.5980 O   0  0  0  0  0  0  0  0  0  0  0  0
   57.8430   28.5590   43.8870 N   0  0  0  0  0  0  0  0  0  0  0  0
   58.4690   28.0530   45.0690 C   0  0  0  0  0  0  0  0  0  0  0  0
   59.7780   28.4500   45.3600 C   0  0  0  0  0  0  0  0  0  0  0  0
   60.3950   28.0390   46.5440 C   0  0  0  0  0  0  0  0  0  0  0  0
   59.7110   27.2150   47.4490 C   0  0  0  0  0  0  0  0  0  0  0  0
   60.3930   26.7310   48.7010 C   0  0  0  0  0  0  0  0  0  0  0  0
   60.4320   27.8310   49.7290 C   0  0  0  0  0  0  0  0  0  0  0  0
   61.1640   27.6680   50.9170 C   0  0  0  0  0  0  0  0  0  0  0  0
   61.1590   28.6870   51.8730 C   0  0  0  0  0  0  0  0  0  0  0  0
   60.4420   29.8240   51.6550 N   0  0  0  0  0  0  0  0  0  0  0  0
   59.7170   30.0050   50.5170 C   0  0  0  0  0  0  0  0  0  0  0  0
   59.6930   29.0090   49.5360 C   0  0  0  0  0  0  0  0  0  0  0  0
   58.4100   26.7850   47.1440 C   0  0  0  0  0  0  0  0  0  0  0  0
   57.7710   27.2100   45.9630 C   0  0  0  0  0  0  0  0  0  0  0  0
   56.4640   26.7110   45.6210 N   0  0  0  0  0  0  0  0  0  0  0  0
   55.8800   25.5390   46.2260 C   0  0  0  0  0  0  0  0  0  0  0  0
   56.3330   25.1140   47.3240 O   0  0  0  0  0  0  0  0  0  0  0  0
   54.7150   24.7930   45.6120 C   0  0  0  0  0  0  0  0  0  0  0  0
   54.5400   23.3320   46.0010 C   0  0  0  0  0  0  0  0  0  0  0  0
   55.0640   23.6930   44.6160 C   0  0  0  0  0  0  0  0  0  0  0  0
   57.7130   32.3230   43.7100 C   0  0  0  0  0  0  0  0  0  0  0  0
   58.3880   33.4580   44.1700 C   0  0  0  0  0  0  0  0  0  0  0  0
   59.1153   34.9316   48.1218 H   0  0  0  0  0  0  0  0  0  0  0  0
   60.1391   33.5216   47.6855 H   0  0  0  0  0  0  0  0  0  0  0  0
   60.8407   35.1753   47.6855 H   0  0  0  0  0  0  0  0  0  0  0  0
   58.9229   35.6547   45.9007 H   0  0  0  0  0  0  0  0  0  0  0  0
   60.4563   34.8401   45.4035 H   0  0  0  0  0  0  0  0  0  0  0  0
   58.7477   32.5695   47.4658 H   0  0  0  0  0  0  0  0  0  0  0  0
   57.5212   30.5561   46.6455 H   0  0  0  0  0  0  0  0  0  0  0  0
   60.3252   29.0899   44.6521 H   0  0  0  0  0  0  0  0  0  0  0  0
   61.4221   28.3633   46.7673 H   0  0  0  0  0  0  0  0  0  0  0  0
   59.8389   25.8724   49.1081 H   0  0  0  0  0  0  0  0  0  0  0  0
   61.4226   26.4309   48.4564 H   0  0  0  0  0  0  0  0  0  0  0  0
   61.7366   26.7454   51.0932 H   0  0  0  0  0  0  0  0  0  0  0  0
   61.7350   28.5706   52.8029 H   0  0  0  0  0  0  0  0  0  0  0  0
   59.1496   30.9357   50.3692 H   0  0  0  0  0  0  0  0  0  0  0  0
   59.0997   29.1473   48.6201 H   0  0  0  0  0  0  0  0  0  0  0  0
   57.8842   26.1092   47.8345 H   0  0  0  0  0  0  0  0  0  0  0  0
   55.9200   27.2530   44.9130 H   0  0  0  0  0  0  0  0  0  0  0  0
   54.0587   25.6758   45.6061 H   0  0  0  0  0  0  0  0  0  0  0  0
   55.2131   22.8758   46.7419 H   0  0  0  0  0  0  0  0  0  0  0  0
   53.7070   22.7235   46.3828 H   0  0  0  0  0  0  0  0  0  0  0  0
   56.1153   23.4981   44.3574 H   0  0  0  0  0  0  0  0  0  0  0  0
   54.7663   23.4539   43.5844 H   0  0  0  0  0  0  0  0  0  0  0  0
   57.4269   32.2482   42.6505 H   0  0  0  0  0  0  0  0  0  0  0  0
   58.6299   34.2739   43.4730 H   0  0  0  0  0  0  0  0  0  0  0  0
  1  2  1  0
  2  3  1  0
  3  4  2  0
  4  5  1  0
  5  6  2  0
  6  7  1  0
  7  8  2  0
  7  9  2  0
  7 10  1  0
 10 11  1  0
 11 12  2  0
 12 13  1  0
 13 14  2  0
 14 15  1  0
 15 16  1  0
 16 17  2  0
 17 18  1  0
 18 19  2  0
 19 20  1  0
 20 21  2  0
 14 22  1  0
 22 23  2  0
 23 24  1  0
 24 25  1  0
 25 26  2  0
 25 27  1  0
 27 28  1  0
 28 29  1  0
  6 30  1  0
 30 31  2  0
 31  3  1  0
 23 11  1  0
 29 27  1  0
 21 16  1  0
  1 32  1  0
  1 33  1  0
  1 34  1  0
  2 35  1  0
  2 36  1  0
  4 37  1  0
  5 38  1  0
 12 39  1  0
 13 40  1  0
 15 41  1  0
 15 42  1  0
 17 43  1  0
 18 44  1  0
 20 45  1  0
 21 46  1  0
 22 47  1  0
 24 48  1  0
 27 49  1  0
 28 50  1  0
 28 51  1  0
 29 52  1  0
 29 53  1  0
 30 54  1  0
 31 55  1  0
M  CHG  1  10  -1
M  END
>  <UniqueID>  (52) 
48

>  <SMILES>  (52) 
CCc1ccc(S(=O)(=O)[N-]c2ccc(Cc3ccncc3)cc2NC(=O)C2CC2)cc1

>  <Energy>  (52) 
330.47264042219047

>  <Genealogy>  (52) 
CCc1ccc(S(=O)(=O)[N-]c2ccc(Cc3ccncc3)cc2NC(=O)C2CC2)cc1 (protonated)
CCc1ccc(S(=O)(=O)[N-]c2ccc(Cc3ccncc3)cc2NC(=O)C2CC2)cc1 (3D coordinates assigned)
CCc1ccc(S(=O)(=O)[N-]c2ccc(Cc3ccncc3)cc2NC(=O)C2CC2)cc1 (nonaromatic ring conformer: 330.47264042219047 kcal/mol)

>  <smiles>  (52) 
CCc1ccc(S(=O)(=O)Nc2ccc(Cc3ccncc3)cc2NC(=O)C2CC2)cc1

>  <score_type>  (52) 
oracle

>  <origin>  (52) 
adg

>  <m_score__min__energy>  (52) 
-10.369999999999999

>  <m_primary>  (52) 
energy

$$$$
52:0
     RDKit          3D

 29 30  0  0  0  0  0  0  0  0999 V2000
   52.7780   24.0980   44.8380 C   0  0  0  0  0  0  0  0  0  0  0  0
   53.5820   23.7390   45.9570 O   0  0  0  0  0  0  0  0  0  0  0  0
   54.9660   23.9580   46.0430 C   0  0  0  0  0  0  0  0  0  0  0  0
   55.8850   22.8980   46.1310 C   0  0  0  0  0  0  0  0  0  0  0  0
   57.2510   23.1570   46.2180 C   0  0  0  0  0  0  0  0  0  0  0  0
   57.7180   24.4720   46.2160 C   0  0  0  0  0  0  0  0  0  0  0  0
   56.8220   25.5550   46.1230 C   0  0  0  0  0  0  0  0  0  0  0  0
   57.3570   26.9440   46.1200 C   0  0  0  0  0  0  0  0  0  0  0  0
   57.6700   27.4940   47.2110 O   0  0  0  0  0  0  0  0  0  0  0  0
   57.5780   27.6400   44.8860 N   0  0  0  0  0  0  0  0  0  0  0  0
   57.5680   29.0620   44.6890 C   0  0  0  0  0  0  0  0  0  0  0  0
   58.7580   29.8050   44.5680 C   0  0  0  0  0  0  0  0  0  0  0  0
   58.7090   31.1920   44.4010 C   0  0  0  0  0  0  0  0  0  0  0  0
   57.4790   31.8510   44.3680 C   0  0  0  0  0  0  0  0  0  0  0  0
   56.2930   31.1250   44.5120 C   0  0  0  0  0  0  0  0  0  0  0  0
   56.3360   29.7370   44.6780 C   0  0  0  0  0  0  0  0  0  0  0  0
   55.1490   29.0280   44.8280 O   0  0  0  0  0  0  0  0  0  0  0  0
   55.4350   25.2820   46.0410 C   0  0  0  0  0  0  0  0  0  0  0  0
   54.5050   26.3140   45.9660 O   0  0  0  0  0  0  0  0  0  0  0  0
   51.8268   24.5227   45.1912 H   0  0  0  0  0  0  0  0  0  0  0  0
   53.3093   24.8444   44.2292 H   0  0  0  0  0  0  0  0  0  0  0  0
   52.5769   23.2042   44.2292 H   0  0  0  0  0  0  0  0  0  0  0  0
   55.5238   21.8590   46.1312 H   0  0  0  0  0  0  0  0  0  0  0  0
   57.9638   22.3222   46.2885 H   0  0  0  0  0  0  0  0  0  0  0  0
   58.7985   24.6652   46.2879 H   0  0  0  0  0  0  0  0  0  0  0  0
   59.7303   29.2918   44.6050 H   0  0  0  0  0  0  0  0  0  0  0  0
   59.6418   31.7653   44.2954 H   0  0  0  0  0  0  0  0  0  0  0  0
   57.4429   32.9415   44.2287 H   0  0  0  0  0  0  0  0  0  0  0  0
   55.3245   31.6463   44.4947 H   0  0  0  0  0  0  0  0  0  0  0  0
  1  2  1  0
  2  3  1  0
  3  4  2  0
  4  5  1  0
  5  6  2  0
  6  7  1  0
  7  8  1  0
  8  9  2  0
  8 10  1  0
 10 11  1  0
 11 12  2  0
 12 13  1  0
 13 14  2  0
 14 15  1  0
 15 16  2  0
 16 17  1  0
  7 18  2  0
 18 19  1  0
 18  3  1  0
 16 11  1  0
  1 20  1  0
  1 21  1  0
  1 22  1  0
  4 23  1  0
  5 24  1  0
  6 25  1  0
 12 26  1  0
 13 27  1  0
 14 28  1  0
 15 29  1  0
M  CHG  3  10  -1  17  -1  19  -1
M  END
>  <UniqueID>  (53) 
49

>  <SMILES>  (53) 
COc1cccc(C(=O)[N-]c2ccccc2[O-])c1[O-]

>  <Energy>  (53) 
36.38334231080891

>  <Genealogy>  (53) 
COc1cccc(C(=O)[N-]c2ccccc2[O-])c1[O-] (protonated)
COc1cccc(C(=O)[N-]c2ccccc2[O-])c1[O-] (3D coordinates assigned)
COc1cccc(C(=O)[N-]c2ccccc2[O-])c1[O-] (optimized conformer: 36.38334231080891 kcal/mol)

>  <smiles>  (53) 
COc1cccc(C(=O)Nc2ccccc2O)c1O

>  <score_type>  (53) 
oracle

>  <origin>  (53) 
adg

>  <m_score__min__energy>  (53) 
-14.4

>  <m_primary>  (53) 
energy

$$$$
53:0
     RDKit          3D

 33 35  0  0  0  0  0  0  0  0999 V2000
   55.6480   31.5910   45.2340 H   0  0  0  0  0  0  0  0  0  0  0  0
   56.5520   31.9530   44.9690 O   0  0  0  0  0  0  0  0  0  0  0  0
   57.7580   31.6410   45.6080 C   0  0  0  0  0  0  0  0  0  0  0  0
   58.1020   30.2820   45.7750 C   0  0  0  0  0  0  0  0  0  0  0  0
   57.2140   29.2070   45.2580 C   0  0  0  0  0  0  0  0  0  0  0  0
   56.0270   29.4800   44.9300 O   0  0  0  0  0  0  0  0  0  0  0  0
   57.7270   27.8760   45.0690 N   0  0  0  0  0  0  0  0  0  0  0  0
   57.6560   26.8720   45.8980 C   0  0  0  0  0  0  0  0  0  0  0  0
   58.1657   26.9686   46.8680 H   0  0  0  0  0  0  0  0  0  0  0  0
   56.9340   25.6110   45.6180 C   0  0  0  0  0  0  0  0  0  0  0  0
   57.6330   24.4600   45.2130 C   0  0  0  0  0  0  0  0  0  0  0  0
   58.7303   24.4833   45.1392 H   0  0  0  0  0  0  0  0  0  0  0  0
   56.9400   23.2870   44.9040 C   0  0  0  0  0  0  0  0  0  0  0  0
   57.4935   22.3855   44.6027 H   0  0  0  0  0  0  0  0  0  0  0  0
   55.5460   23.2570   44.9770 C   0  0  0  0  0  0  0  0  0  0  0  0
   55.0028   22.3305   44.7391 H   0  0  0  0  0  0  0  0  0  0  0  0
   54.8410   24.4030   45.3520 C   0  0  0  0  0  0  0  0  0  0  0  0
   53.7425   24.3788   45.4030 H   0  0  0  0  0  0  0  0  0  0  0  0
   55.5280   25.5820   45.6630 C   0  0  0  0  0  0  0  0  0  0  0  0
   54.8090   26.7160   46.0260 O   0  0  0  0  0  0  0  0  0  0  0  0
   59.3010   29.9720   46.4520 C   0  0  0  0  0  0  0  0  0  0  0  0
   59.6600   28.7760   46.6150 O   0  0  0  0  0  0  0  0  0  0  0  0
   60.0840   30.9370   46.9130 O   0  0  0  0  0  0  0  0  0  0  0  0
   59.8060   32.2270   46.7720 C   0  0  0  0  0  0  0  0  0  0  0  0
   60.6970   33.1730   47.2910 C   0  0  0  0  0  0  0  0  0  0  0  0
   61.6085   32.8414   47.8098 H   0  0  0  0  0  0  0  0  0  0  0  0
   60.4320   34.5360   47.1520 C   0  0  0  0  0  0  0  0  0  0  0  0
   61.1348   35.2768   47.5610 H   0  0  0  0  0  0  0  0  0  0  0  0
   59.2770   34.9600   46.4950 C   0  0  0  0  0  0  0  0  0  0  0  0
   59.0717   36.0354   46.3879 H   0  0  0  0  0  0  0  0  0  0  0  0
   58.3790   34.0250   45.9720 C   0  0  0  0  0  0  0  0  0  0  0  0
   57.4725   34.3693   45.4527 H   0  0  0  0  0  0  0  0  0  0  0  0
   58.6280   32.6410   46.1060 C   0  0  0  0  0  0  0  0  0  0  0  0
  1  2  1  0
  2  3  1  0
  3  4  2  0
  4  5  1  0
  5  6  2  0
  5  7  1  0
  7  8  2  0
  8  9  1  0
  8 10  1  0
 10 11  2  0
 11 12  1  0
 11 13  1  0
 13 14  1  0
 13 15  2  0
 15 16  1  0
 15 17  1  0
 17 18  1  0
 17 19  2  0
 19 20  1  0
  4 21  1  0
 21 22  2  0
 21 23  1  0
 23 24  1  0
 24 25  2  0
 25 26  1  0
 25 27  1  0
 27 28  1  0
 27 29  2  0
 29 30  1  0
 29 31  1  0
 31 32  1  0
 31 33  2  0
 33  3  1  0
 19 10  1  0
 33 24  1  0
M  CHG  1  20  -1
M  END
>  <UniqueID>  (54) 
50

>  <SMILES>  (54) 
O=C(/N=C/c1ccccc1[O-])c1c(O)c2ccccc2oc1=O

>  <Energy>  (54) 
58.24539183018016

>  <Genealogy>  (54) 
O=C(N=Cc1ccccc1[O-])c1c(O)c2ccccc2oc1=O (protonated)
O=C(/N=C/c1ccccc1[O-])c1c(O)c2ccccc2oc1=O (cis-trans isomerization)
O=C(/N=C/c1ccccc1[O-])c1c(O)c2ccccc2oc1=O (3D coordinates assigned)
O=C(/N=C/c1ccccc1[O-])c1c(O)c2ccccc2oc1=O (optimized conformer: 58.24539183018016 kcal/mol)

>  <smiles>  (54) 
O=C(N=Cc1ccccc1O)c1c(O)c2ccccc2oc1=O

>  <score_type>  (54) 
oracle

>  <origin>  (54) 
adg

>  <m_score__min__energy>  (54) 
-11.279999999999999

>  <m_primary>  (54) 
energy

$$$$
54:0
     RDKit          3D

 33 34  0  0  0  0  0  0  0  0999 V2000
   55.1440   29.3450   44.8580 O   0  0  0  0  0  0  0  0  0  0  0  0
   56.2020   29.8820   44.4330 C   0  0  0  0  0  0  0  0  0  0  0  0
   57.0060   29.1980   43.3730 C   0  0  0  0  0  0  0  0  0  0  0  0
   57.7510   28.1210   43.9340 O   0  0  0  0  0  0  0  0  0  0  0  0
   57.9950   27.9850   45.3080 C   0  0  0  0  0  0  0  0  0  0  0  0
   57.3960   27.0930   45.9710 O   0  0  0  0  0  0  0  0  0  0  0  0
   58.9540   28.8900   45.9780 C   0  0  0  0  0  0  0  0  0  0  0  0
   60.1830   29.2000   45.3760 C   0  0  0  0  0  0  0  0  0  0  0  0
   61.0610   30.0310   45.9970 N   0  0  0  0  0  0  0  0  0  0  0  0
   60.7930   30.5900   47.2070 C   0  0  0  0  0  0  0  0  0  0  0  0
   61.9870   31.6520   47.9330 Cl  0  0  0  0  0  0  0  0  0  0  0  0
   59.5770   30.3110   47.8490 C   0  0  0  0  0  0  0  0  0  0  0  0
   59.1820   31.0100   49.4140 Cl  0  0  0  0  0  0  0  0  0  0  0  0
   58.6600   29.4580   47.2280 C   0  0  0  0  0  0  0  0  0  0  0  0
   56.6580   31.1240   44.9810 N   0  0  0  0  0  0  0  0  0  0  0  0
   57.4910   32.0710   44.2490 C   0  0  0  0  0  0  0  0  0  0  0  0
   58.1480   33.0340   45.1980 C   0  0  0  0  0  0  0  0  0  0  0  0
   57.9200   32.9430   46.5820 C   0  0  0  0  0  0  0  0  0  0  0  0
   58.5200   33.8560   47.4560 C   0  0  0  0  0  0  0  0  0  0  0  0
   59.3440   34.8670   46.9550 C   0  0  0  0  0  0  0  0  0  0  0  0
   59.5710   34.9670   45.5800 C   0  0  0  0  0  0  0  0  0  0  0  0
   58.9730   34.0560   44.7030 C   0  0  0  0  0  0  0  0  0  0  0  0
   56.3285   28.8064   42.5999 H   0  0  0  0  0  0  0  0  0  0  0  0
   57.7045   29.9234   42.9303 H   0  0  0  0  0  0  0  0  0  0  0  0
   60.4371   28.7683   44.3967 H   0  0  0  0  0  0  0  0  0  0  0  0
   57.7033   29.2306   47.7211 H   0  0  0  0  0  0  0  0  0  0  0  0
   58.2667   31.5200   43.6970 H   0  0  0  0  0  0  0  0  0  0  0  0
   56.8580   32.6360   43.5490 H   0  0  0  0  0  0  0  0  0  0  0  0
   57.2677   32.1514   46.9792 H   0  0  0  0  0  0  0  0  0  0  0  0
   58.3428   33.7778   48.5388 H   0  0  0  0  0  0  0  0  0  0  0  0
   59.8143   35.5846   47.6434 H   0  0  0  0  0  0  0  0  0  0  0  0
   60.2206   35.7629   45.1868 H   0  0  0  0  0  0  0  0  0  0  0  0
   59.1501   34.1409   43.6207 H   0  0  0  0  0  0  0  0  0  0  0  0
  1  2  2  0
  2  3  1  0
  3  4  1  0
  4  5  1  0
  5  6  2  0
  5  7  1  0
  7  8  2  0
  8  9  1  0
  9 10  2  0
 10 11  1  0
 10 12  1  0
 12 13  1  0
 12 14  2  0
  2 15  1  0
 15 16  1  0
 16 17  1  0
 17 18  2  0
 18 19  1  0
 19 20  2  0
 20 21  1  0
 21 22  2  0
 14  7  1  0
 22 17  1  0
  3 23  1  0
  3 24  1  0
  8 25  1  0
 14 26  1  0
 16 27  1  0
 16 28  1  0
 18 29  1  0
 19 30  1  0
 20 31  1  0
 21 32  1  0
 22 33  1  0
M  CHG  1  15  -1
M  END
>  <UniqueID>  (55) 
51

>  <SMILES>  (55) 
O=C(COC(=O)c1cnc(Cl)c(Cl)c1)[N-]Cc1ccccc1

>  <Energy>  (55) 
30.70803212740944

>  <Genealogy>  (55) 
O=C(COC(=O)c1cnc(Cl)c(Cl)c1)[N-]Cc1ccccc1 (protonated)
O=C(COC(=O)c1cnc(Cl)c(Cl)c1)[N-]Cc1ccccc1 (3D coordinates assigned)
O=C(COC(=O)c1cnc(Cl)c(Cl)c1)[N-]Cc1ccccc1 (optimized conformer: 30.70803212740944 kcal/mol)

>  <smiles>  (55) 
O=C(COC(=O)c1cnc(Cl)c(Cl)c1)NCc1ccccc1

>  <score_type>  (55) 
oracle

>  <origin>  (55) 
adg

>  <m_score__min__energy>  (55) 
-9.6799999999999997

>  <m_primary>  (55) 
energy

$$$$
55:0
     RDKit          3D

 56 59  0  0  0  0  0  0  0  0999 V2000
   64.8810   32.2980   46.6650 H   0  0  0  0  0  0  0  0  0  0  0  0
   64.1380   32.9250   46.3640 O   0  0  0  0  0  0  0  0  0  0  0  0
   63.1390   33.3320   47.2570 C   0  0  0  0  0  0  0  0  0  0  0  0
   61.8910   33.7890   46.7760 C   0  0  0  0  0  0  0  0  0  0  0  0
   61.7057   33.8415   45.6930 H   0  0  0  0  0  0  0  0  0  0  0  0
   60.8900   34.1750   47.6760 C   0  0  0  0  0  0  0  0  0  0  0  0
   59.9177   34.5266   47.3004 H   0  0  0  0  0  0  0  0  0  0  0  0
   61.1280   34.1130   49.0550 C   0  0  0  0  0  0  0  0  0  0  0  0
   60.3367   34.4063   49.7606 H   0  0  0  0  0  0  0  0  0  0  0  0
   62.3810   33.6750   49.5450 C   0  0  0  0  0  0  0  0  0  0  0  0
   62.7080   33.6440   51.2810 S   0  0  0  0  0  0  0  0  0  0  0  0
   63.5410   32.4340   51.6510 O   0  0  0  0  0  0  0  0  0  0  0  0
   63.4820   34.8940   51.6260 O   0  0  0  0  0  0  0  0  0  0  0  0
   61.2290   33.6340   52.2030 N   0  0  0  0  0  0  0  0  0  0  0  0
   60.1190   32.7410   51.9920 C   0  0  0  0  0  0  0  0  0  0  0  0
   59.0170   32.8140   52.8550 C   0  0  0  0  0  0  0  0  0  0  0  0
   59.0507   33.4826   53.7278 H   0  0  0  0  0  0  0  0  0  0  0  0
   57.8700   32.0400   52.6140 C   0  0  0  0  0  0  0  0  0  0  0  0
   57.0104   32.1083   53.2970 H   0  0  0  0  0  0  0  0  0  0  0  0
   57.8150   31.1820   51.5090 C   0  0  0  0  0  0  0  0  0  0  0  0
   56.6770   30.4750   51.2560 F   0  0  0  0  0  0  0  0  0  0  0  0
   58.9280   31.0660   50.6690 C   0  0  0  0  0  0  0  0  0  0  0  0
   58.8760   30.2500   49.4820 C   0  0  0  0  0  0  0  0  0  0  0  0
   58.8160   29.5270   48.5200 C   0  0  0  0  0  0  0  0  0  0  0  0
   58.7860   28.6570   47.3730 C   0  0  0  0  0  0  0  0  0  0  0  0
   59.3530   27.3810   47.4440 C   0  0  0  0  0  0  0  0  0  0  0  0
   59.8521   27.0531   48.3678 H   0  0  0  0  0  0  0  0  0  0  0  0
   59.2870   26.5160   46.3380 C   0  0  0  0  0  0  0  0  0  0  0  0
   59.8160   25.2170   46.3710 O   0  0  0  0  0  0  0  0  0  0  0  0
   59.2890   24.1040   45.6290 C   0  0  0  0  0  0  0  0  0  0  0  0
   58.9255   23.3364   46.3281 H   0  0  0  0  0  0  0  0  0  0  0  0
   58.4574   24.4464   44.9956 H   0  0  0  0  0  0  0  0  0  0  0  0
   60.0809   23.6777   44.9956 H   0  0  0  0  0  0  0  0  0  0  0  0
   58.6590   26.9520   45.1610 C   0  0  0  0  0  0  0  0  0  0  0  0
   58.6029   26.2756   44.2954 H   0  0  0  0  0  0  0  0  0  0  0  0
   58.1000   28.2400   45.0700 C   0  0  0  0  0  0  0  0  0  0  0  0
   57.3750   28.6770   43.8470 C   0  0  0  0  0  0  0  0  0  0  0  0
   57.4970   28.0120   42.7870 O   0  0  0  0  0  0  0  0  0  0  0  0
   56.6210   29.9000   43.8050 N   0  0  0  0  0  0  0  0  0  0  0  0
   57.0900   31.0890   44.0380 C   0  0  0  0  0  0  0  0  0  0  0  0
   56.9790   31.6880   45.2420 N   0  0  0  0  0  0  0  0  0  0  0  0
   57.5800   32.8680   45.1400 N   0  0  0  0  0  0  0  0  0  0  0  0
   57.6810   33.8200   46.2460 C   0  0  0  0  0  0  0  0  0  0  0  0
   57.6236   33.2789   47.2020 H   0  0  0  0  0  0  0  0  0  0  0  0
   58.6408   34.3538   46.1839 H   0  0  0  0  0  0  0  0  0  0  0  0
   56.8545   34.5433   46.1839 H   0  0  0  0  0  0  0  0  0  0  0  0
   58.0710   33.0380   43.8950 C   0  0  0  0  0  0  0  0  0  0  0  0
   58.6127   33.9242   43.5327 H   0  0  0  0  0  0  0  0  0  0  0  0
   57.7770   31.9060   43.1490 C   0  0  0  0  0  0  0  0  0  0  0  0
   58.0292   31.7026   42.0978 H   0  0  0  0  0  0  0  0  0  0  0  0
   58.1640   29.0850   46.1920 C   0  0  0  0  0  0  0  0  0  0  0  0
   57.7220   30.0911   46.1425 H   0  0  0  0  0  0  0  0  0  0  0  0
   60.0900   31.8120   50.9390 C   0  0  0  0  0  0  0  0  0  0  0  0
   60.9862   31.6659   50.3181 H   0  0  0  0  0  0  0  0  0  0  0  0
   63.3840   33.2790   48.6400 C   0  0  0  0  0  0  0  0  0  0  0  0
   64.3573   32.9289   49.0144 H   0  0  0  0  0  0  0  0  0  0  0  0
  1  2  1  0
  2  3  1  0
  3  4  2  0
  4  5  1  0
  4  6  1  0
  6  7  1  0
  6  8  2  0
  8  9  1  0
  8 10  1  0
 10 11  1  0
 11 12  2  0
 11 13  2  0
 11 14  1  0
 14 15  1  0
 15 16  2  0
 16 17  1  0
 16 18  1  0
 18 19  1  0
 18 20  2  0
 20 21  1  0
 20 22  1  0
 22 23  1  0
 23 24  3  0
 24 25  1  0
 25 26  2  0
 26 27  1  0
 26 28  1  0
 28 29  1  0
 29 30  1  0
 30 31  1  0
 30 32  1  0
 30 33  1  0
 28 34  2  0
 34 35  1  0
 34 36  1  0
 36 37  1  0
 37 38  2  0
 37 39  1  0
 39 40  2  0
 40 41  1  0
 41 42  1  0
 42 43  1  0
 43 44  1  0
 43 45  1  0
 43 46  1  0
 42 47  1  0
 47 48  1  0
 47 49  2  0
 49 50  1  0
 36 51  2  0
 51 52  1  0
 22 53  2  0
 53 54  1  0
 10 55  2  0
 55 56  1  0
 55  3  1  0
 53 15  1  0
 51 25  1  0
 49 40  1  0
M  CHG  2  14  -1  41  -1
M  END
>  <UniqueID>  (56) 
52

>  <SMILES>  (56) 
COc1cc(C#Cc2cc([N-]S(=O)(=O)c3cccc(O)c3)ccc2F)cc(C(=O)/N=c2\ccn(C)[n-]2)c1

>  <Energy>  (56) 
99.49854956045246

>  <Genealogy>  (56) 
COc1cc(C#Cc2cc([N-]S(=O)(=O)c3cccc(O)c3)ccc2F)cc(C(=O)N=c2ccn(C)[n-]2)c1 (protonated)
COc1cc(C#Cc2cc([N-]S(=O)(=O)c3cccc(O)c3)ccc2F)cc(C(=O)/N=c2\ccn(C)[n-]2)c1 (cis-trans isomerization)
COc1cc(C#Cc2cc([N-]S(=O)(=O)c3cccc(O)c3)ccc2F)cc(C(=O)/N=c2\ccn(C)[n-]2)c1 (3D coordinates assigned)
COc1cc(C#Cc2cc([N-]S(=O)(=O)c3cccc(O)c3)ccc2F)cc(C(=O)/N=c2\ccn(C)[n-]2)c1 (optimized conformer: 99.49854956045246 kcal/mol)

>  <smiles>  (56) 
COc1cc(C#Cc2cc(NS(=O)(=O)c3cccc(O)c3)ccc2F)cc(C(=O)N=c2ccn(C)[nH]2)c1

>  <score_type>  (56) 
oracle

>  <origin>  (56) 
adg

>  <m_score__min__energy>  (56) 
-12.949999999999999

>  <m_primary>  (56) 
energy

$$$$
56:0
     RDKit          3D

 32 33  0  0  0  0  0  0  0  0999 V2000
   59.2160   35.1190   48.9040 H   0  0  0  0  0  0  0  0  0  0  0  0
   59.2300   34.2110   48.3860 N   0  0  0  0  0  0  0  0  0  0  0  0
   59.1020   34.1450   47.0980 C   0  0  0  0  0  0  0  0  0  0  0  0
   59.5370   35.1780   46.3300 N   0  0  0  0  0  0  0  0  0  0  0  0
   59.4350   35.1550   44.9750 C   0  0  0  0  0  0  0  0  0  0  0  0
   59.7972   36.0090   44.3838 H   0  0  0  0  0  0  0  0  0  0  0  0
   58.8720   34.0510   44.3300 C   0  0  0  0  0  0  0  0  0  0  0  0
   58.7979   34.0305   43.2327 H   0  0  0  0  0  0  0  0  0  0  0  0
   58.4000   32.9650   45.0910 C   0  0  0  0  0  0  0  0  0  0  0  0
   57.8000   31.7500   44.4800 C   0  0  0  0  0  0  0  0  0  0  0  0
   58.3525   31.2586   43.6655 H   0  0  0  0  0  0  0  0  0  0  0  0
   56.6320   31.2140   44.8550 C   0  0  0  0  0  0  0  0  0  0  0  0
   56.1210   31.5988   45.7499 H   0  0  0  0  0  0  0  0  0  0  0  0
   56.0100   30.0950   44.0710 C   0  0  0  0  0  0  0  0  0  0  0  0
   54.9723   30.3607   43.8210 H   0  0  0  0  0  0  0  0  0  0  0  0
   56.5918   29.9373   43.1509 H   0  0  0  0  0  0  0  0  0  0  0  0
   56.0160   28.8610   44.8530 N   0  0  0  0  0  0  0  0  0  0  0  0
   55.1130   28.5470   45.2740 H   0  0  0  0  0  0  0  0  0  0  0  0
   57.1710   28.0090   44.9280 C   0  0  0  0  0  0  0  0  0  0  0  0
   58.1510   28.2210   44.1630 O   0  0  0  0  0  0  0  0  0  0  0  0
   57.2220   26.8650   45.8710 C   0  0  0  0  0  0  0  0  0  0  0  0
   56.0570   26.2310   46.3520 C   0  0  0  0  0  0  0  0  0  0  0  0
   54.7920   26.6990   46.0170 O   0  0  0  0  0  0  0  0  0  0  0  0
   56.1580   25.1650   47.1910 N   0  0  0  0  0  0  0  0  0  0  0  0
   57.3600   24.6800   47.6010 C   0  0  0  0  0  0  0  0  0  0  0  0
   57.4040   23.6880   48.3740 O   0  0  0  0  0  0  0  0  0  0  0  0
   58.5390   25.2870   47.1680 C   0  0  0  0  0  0  0  0  0  0  0  0
   59.5154   24.9054   47.5013 H   0  0  0  0  0  0  0  0  0  0  0  0
   58.4670   26.3830   46.3080 C   0  0  0  0  0  0  0  0  0  0  0  0
   59.3917   26.8733   45.9696 H   0  0  0  0  0  0  0  0  0  0  0  0
   58.5290   33.0170   46.4890 C   0  0  0  0  0  0  0  0  0  0  0  0
   58.1815   32.1751   47.1058 H   0  0  0  0  0  0  0  0  0  0  0  0
  1  2  1  0
  2  3  2  0
  3  4  1  0
  4  5  1  0
  5  6  1  0
  5  7  2  0
  7  8  1  0
  7  9  1  0
  9 10  1  0
 10 11  1  0
 10 12  2  3
 12 13  1  0
 12 14  1  0
 14 15  1  0
 14 16  1  0
 14 17  1  0
 17 18  1  0
 17 19  1  0
 19 20  2  0
 19 21  1  0
 21 22  2  0
 22 23  1  0
 22 24  1  0
 24 25  1  0
 25 26  2  0
 25 27  1  0
 27 28  1  0
 27 29  2  0
 29 30  1  0
  9 31  2  0
 31 32  1  0
 31  3  1  0
 29 21  1  0
M  CHG  3   4  -1  23  -1  24  -1
M  END
>  <UniqueID>  (57) 
53

>  <SMILES>  (57) 
[H]/N=c1\cc(C=CCNC(=O)c2ccc(=O)[n-]c2[O-])cc[n-]1

>  <Energy>  (57) 
37.64268275568949

>  <Genealogy>  (57) 
N=c1cc(C=CCNC(=O)c2ccc(=O)[n-]c2[O-])cc[n-]1 (protonated)
[H]/N=c1\cc(C=CCNC(=O)c2ccc(=O)[n-]c2[O-])cc[n-]1 (cis-trans isomerization)
[H]/N=c1\cc(C=CCNC(=O)c2ccc(=O)[n-]c2[O-])cc[n-]1 (3D coordinates assigned)
[H]/N=c1\cc(C=CCNC(=O)c2ccc(=O)[n-]c2[O-])cc[n-]1 (optimized conformer: 37.64268275568949 kcal/mol)

>  <smiles>  (57) 
N=c1cc(C=CCNC(=O)c2ccc(=O)[nH]c2O)cc[nH]1

>  <score_type>  (57) 
oracle

>  <origin>  (57) 
adg

>  <m_score__min__energy>  (57) 
-14.880000000000001

>  <m_primary>  (57) 
energy

$$$$
57:0
     RDKit          3D

 37 38  0  0  0  0  0  0  0  0999 V2000
   57.7010   21.3170   43.8000 C   0  0  0  0  0  0  0  0  0  0  0  0
   56.2980   21.5490   43.8040 O   0  0  0  0  0  0  0  0  0  0  0  0
   55.7380   22.8000   43.5330 C   0  0  0  0  0  0  0  0  0  0  0  0
   55.1440   23.0040   42.4380 O   0  0  0  0  0  0  0  0  0  0  0  0
   55.8340   23.8910   44.5180 C   0  0  0  0  0  0  0  0  0  0  0  0
   57.2790   24.6400   44.9590 S   0  0  0  0  0  0  0  0  0  0  0  0
   56.5280   25.6820   46.0370 C   0  0  0  0  0  0  0  0  0  0  0  0
   57.1720   26.5460   46.7650 N   0  0  0  0  0  0  0  0  0  0  0  0
   58.5810   26.8230   46.7240 C   0  0  0  0  0  0  0  0  0  0  0  0
   59.3790   25.9320   47.1190 O   0  0  0  0  0  0  0  0  0  0  0  0
   59.1290   28.1410   46.2260 C   0  0  0  0  0  0  0  0  0  0  0  0
   58.1650   29.3160   46.4620 C   0  0  0  0  0  0  0  0  0  0  0  0
   57.5960   29.8470   45.1640 C   0  0  0  0  0  0  0  0  0  0  0  0
   58.3090   30.8400   44.4670 C   0  0  0  0  0  0  0  0  0  0  0  0
   57.8320   31.3380   43.2520 C   0  0  0  0  0  0  0  0  0  0  0  0
   56.6410   30.8510   42.7160 C   0  0  0  0  0  0  0  0  0  0  0  0
   55.9240   29.8630   43.3920 C   0  0  0  0  0  0  0  0  0  0  0  0
   56.3870   29.3530   44.6120 C   0  0  0  0  0  0  0  0  0  0  0  0
   55.6260   28.3630   45.2380 O   0  0  0  0  0  0  0  0  0  0  0  0
   55.1940   25.4770   46.0950 N   0  0  0  0  0  0  0  0  0  0  0  0
   54.7960   24.4870   45.2500 C   0  0  0  0  0  0  0  0  0  0  0  0
   53.3550   24.0990   45.1490 C   0  0  0  0  0  0  0  0  0  0  0  0
   58.0656   21.2567   44.8361 H   0  0  0  0  0  0  0  0  0  0  0  0
   57.9148   20.3713   43.2804 H   0  0  0  0  0  0  0  0  0  0  0  0
   58.2078   22.1435   43.2804 H   0  0  0  0  0  0  0  0  0  0  0  0
   60.0727   28.3500   46.7512 H   0  0  0  0  0  0  0  0  0  0  0  0
   59.2776   28.0482   45.1400 H   0  0  0  0  0  0  0  0  0  0  0  0
   57.3368   28.9742   47.1001 H   0  0  0  0  0  0  0  0  0  0  0  0
   58.7282   30.1279   46.9454 H   0  0  0  0  0  0  0  0  0  0  0  0
   59.2507   31.2277   44.8827 H   0  0  0  0  0  0  0  0  0  0  0  0
   58.3972   32.1157   42.7175 H   0  0  0  0  0  0  0  0  0  0  0  0
   56.2663   31.2456   41.7600 H   0  0  0  0  0  0  0  0  0  0  0  0
   54.9861   29.4808   42.9628 H   0  0  0  0  0  0  0  0  0  0  0  0
   55.8700   27.3820   45.2310 H   0  0  0  0  0  0  0  0  0  0  0  0
   52.9341   23.9857   46.1590 H   0  0  0  0  0  0  0  0  0  0  0  0
   52.8020   24.8802   44.6069 H   0  0  0  0  0  0  0  0  0  0  0  0
   53.2691   23.1457   44.6069 H   0  0  0  0  0  0  0  0  0  0  0  0
  1  2  1  0
  2  3  1  0
  3  4  2  0
  3  5  1  0
  5  6  1  0
  6  7  1  0
  7  8  2  3
  8  9  1  0
  9 10  2  0
  9 11  1  0
 11 12  1  0
 12 13  1  0
 13 14  2  0
 14 15  1  0
 15 16  2  0
 16 17  1  0
 17 18  2  0
 18 19  1  0
  7 20  1  0
 20 21  1  0
 21 22  1  0
 21  5  2  0
 18 13  1  0
  1 23  1  0
  1 24  1  0
  1 25  1  0
 11 26  1  0
 11 27  1  0
 12 28  1  0
 12 29  1  0
 14 30  1  0
 15 31  1  0
 16 32  1  0
 17 33  1  0
 19 34  1  0
 22 35  1  0
 22 36  1  0
 22 37  1  0
M  CHG  1  20  -1
M  END
>  <UniqueID>  (58) 
54

>  <SMILES>  (58) 
COC(=O)c1sc(=NC(=O)CCc2ccccc2O)[n-]c1C

>  <Energy>  (58) 
67.82079860874305

>  <Genealogy>  (58) 
COC(=O)c1sc(=NC(=O)CCc2ccccc2O)[n-]c1C (protonated)
COC(=O)c1sc(=NC(=O)CCc2ccccc2O)[n-]c1C (3D coordinates assigned)
COC(=O)c1sc(=NC(=O)CCc2ccccc2O)[n-]c1C (optimized conformer: 67.82079860874305 kcal/mol)

>  <smiles>  (58) 
COC(=O)c1sc(=NC(=O)CCc2ccccc2O)[nH]c1C

>  <score_type>  (58) 
oracle

>  <origin>  (58) 
adg

>  <m_score__min__energy>  (58) 
-9.3499999999999996

>  <m_primary>  (58) 
energy

$$$$
58:0
     RDKit          3D

 43 44  0  0  0  0  0  0  0  0999 V2000
   54.6190   26.3360   46.0000 O   0  0  0  0  0  0  0  0  0  0  0  0
   55.1560   25.2210   45.7660 C   0  0  0  0  0  0  0  0  0  0  0  0
   54.4040   24.0580   45.8730 O   0  0  0  0  0  0  0  0  0  0  0  0
   56.6100   25.1440   45.4250 C   0  0  0  0  0  0  0  0  0  0  0  0
   57.0890   26.4360   44.9360 N   0  0  0  0  0  0  0  0  0  0  0  0
   58.4890   26.7250   44.8270 C   0  0  0  0  0  0  0  0  0  0  0  0
   59.3430   25.9070   45.2630 O   0  0  0  0  0  0  0  0  0  0  0  0
   58.9480   27.9890   44.1630 C   0  0  0  0  0  0  0  0  0  0  0  0
   57.8120   28.7610   43.6570 N   0  0  0  0  0  0  0  0  0  0  0  0
   57.0290   29.6660   44.9240 S   0  0  0  0  0  0  0  0  0  0  0  0
   55.6990   29.0360   45.2350 O   0  0  0  0  0  0  0  0  0  0  0  0
   56.7870   31.0680   44.4440 O   0  0  0  0  0  0  0  0  0  0  0  0
   58.0270   29.7320   46.3750 C   0  0  0  0  0  0  0  0  0  0  0  0
   58.1650   28.5910   47.1720 C   0  0  0  0  0  0  0  0  0  0  0  0
   58.9270   28.6380   48.3390 C   0  0  0  0  0  0  0  0  0  0  0  0
   59.5570   29.8260   48.7270 C   0  0  0  0  0  0  0  0  0  0  0  0
   60.5340   29.8140   50.1930 Cl  0  0  0  0  0  0  0  0  0  0  0  0
   59.4280   30.9820   47.9290 C   0  0  0  0  0  0  0  0  0  0  0  0
   60.0530   32.2640   48.3240 C   0  0  0  0  0  0  0  0  0  0  0  0
   59.3750   33.0830   49.0030 O   0  0  0  0  0  0  0  0  0  0  0  0
   61.4060   32.5980   47.9430 N   0  0  0  0  0  0  0  0  0  0  0  0
   61.8070   34.0040   47.8010 C   0  0  0  0  0  0  0  0  0  0  0  0
   63.2750   34.1720   48.2040 C   0  0  0  0  0  0  0  0  0  0  0  0
   64.0960   33.2490   47.5150 O   0  0  0  0  0  0  0  0  0  0  0  0
   63.7700   31.9330   47.9140 C   0  0  0  0  0  0  0  0  0  0  0  0
   62.3460   31.5700   47.4810 C   0  0  0  0  0  0  0  0  0  0  0  0
   58.6600   30.9230   46.7550 C   0  0  0  0  0  0  0  0  0  0  0  0
   57.1785   24.8635   46.3239 H   0  0  0  0  0  0  0  0  0  0  0  0
   56.7517   24.3899   44.6369 H   0  0  0  0  0  0  0  0  0  0  0  0
   56.4010   27.1700   44.6530 H   0  0  0  0  0  0  0  0  0  0  0  0
   59.4998   28.5987   44.8936 H   0  0  0  0  0  0  0  0  0  0  0  0
   59.5952   27.7227   43.3143 H   0  0  0  0  0  0  0  0  0  0  0  0
   57.6709   27.6535   46.8773 H   0  0  0  0  0  0  0  0  0  0  0  0
   59.0336   27.7354   48.9587 H   0  0  0  0  0  0  0  0  0  0  0  0
   61.6785   34.3157   46.7539 H   0  0  0  0  0  0  0  0  0  0  0  0
   61.1790   34.6269   48.4548 H   0  0  0  0  0  0  0  0  0  0  0  0
   63.6004   35.1944   47.9615 H   0  0  0  0  0  0  0  0  0  0  0  0
   63.3666   33.9859   49.2843 H   0  0  0  0  0  0  0  0  0  0  0  0
   64.4780   31.2300   47.4509 H   0  0  0  0  0  0  0  0  0  0  0  0
   63.8314   31.8717   49.0106 H   0  0  0  0  0  0  0  0  0  0  0  0
   62.3041   31.5041   46.3838 H   0  0  0  0  0  0  0  0  0  0  0  0
   62.0691   30.6013   47.9226 H   0  0  0  0  0  0  0  0  0  0  0  0
   58.5542   31.8203   46.1276 H   0  0  0  0  0  0  0  0  0  0  0  0
  1  2  2  0
  2  3  1  0
  2  4  1  0
  4  5  1  0
  5  6  1  0
  6  7  2  0
  6  8  1  0
  8  9  1  0
  9 10  1  0
 10 11  2  0
 10 12  2  0
 10 13  1  0
 13 14  2  0
 14 15  1  0
 15 16  2  0
 16 17  1  0
 16 18  1  0
 18 19  1  0
 19 20  2  0
 19 21  1  0
 21 22  1  0
 22 23  1  0
 23 24  1  0
 24 25  1  0
 25 26  1  0
 18 27  2  0
 27 13  1  0
 26 21  1  0
  4 28  1  0
  4 29  1  0
  5 30  1  0
  8 31  1  0
  8 32  1  0
 14 33  1  0
 15 34  1  0
 22 35  1  0
 22 36  1  0
 23 37  1  0
 23 38  1  0
 25 39  1  0
 25 40  1  0
 26 41  1  0
 26 42  1  0
 27 43  1  0
M  CHG  2   3  -1   9  -1
M  END
>  <UniqueID>  (59) 
55

>  <SMILES>  (59) 
O=C([O-])CNC(=O)C[N-]S(=O)(=O)c1ccc(Cl)c(C(=O)N2CCOCC2)c1

>  <Energy>  (59) 
43.76898561184716

>  <Genealogy>  (59) 
O=C([O-])CNC(=O)C[N-]S(=O)(=O)c1ccc(Cl)c(C(=O)N2CCOCC2)c1 (protonated)
O=C([O-])CNC(=O)C[N-]S(=O)(=O)c1ccc(Cl)c(C(=O)N2CCOCC2)c1 (3D coordinates assigned)
O=C([O-])CNC(=O)C[N-]S(=O)(=O)c1ccc(Cl)c(C(=O)N2CCOCC2)c1 (nonaromatic ring conformer: 43.76898561184716 kcal/mol)

>  <smiles>  (59) 
O=C(O)CNC(=O)CNS(=O)(=O)c1ccc(Cl)c(C(=O)N2CCOCC2)c1

>  <score_type>  (59) 
oracle

>  <origin>  (59) 
adg

>  <m_score__min__energy>  (59) 
-13.16

>  <m_primary>  (59) 
energy

$$$$
59:0
     RDKit          3D

 59 62  0  0  0  0  0  0  0  0999 V2000
   59.3428   28.5695   47.8475 H   0  0  0  0  0  0  0  0  0  0  0  0
   58.9580   27.9230   47.0450 C   0  0  0  0  0  0  0  0  0  0  0  0
   58.9379   26.8315   47.1800 H   0  0  0  0  0  0  0  0  0  0  0  0
   58.5130   28.4660   45.9010 C   0  0  0  0  0  0  0  0  0  0  0  0
   57.9970   27.7770   44.7950 C   0  0  0  0  0  0  0  0  0  0  0  0
   57.8150   26.4440   44.6830 C   0  0  0  0  0  0  0  0  0  0  0  0
   58.1274   25.9677   43.7419 H   0  0  0  0  0  0  0  0  0  0  0  0
   57.2290   25.5730   45.7250 C   0  0  0  0  0  0  0  0  0  0  0  0
   57.8400   24.5290   46.3090 N   0  0  0  0  0  0  0  0  0  0  0  0
   56.9320   24.0930   47.2090 C   0  0  0  0  0  0  0  0  0  0  0  0
   57.1440   23.1060   47.9610 O   0  0  0  0  0  0  0  0  0  0  0  0
   55.7800   24.7970   47.2360 N   0  0  0  0  0  0  0  0  0  0  0  0
   55.9860   25.7330   46.2950 C   0  0  0  0  0  0  0  0  0  0  0  0
   55.0540   26.7090   45.9610 O   0  0  0  0  0  0  0  0  0  0  0  0
   57.7040   28.7470   43.8410 C   0  0  0  0  0  0  0  0  0  0  0  0
   57.2833   28.5758   42.8392 H   0  0  0  0  0  0  0  0  0  0  0  0
   58.0430   29.9650   44.3940 C   0  0  0  0  0  0  0  0  0  0  0  0
   57.9040   31.2820   43.6880 C   0  0  0  0  0  0  0  0  0  0  0  0
   57.8188   32.0890   44.4307 H   0  0  0  0  0  0  0  0  0  0  0  0
   58.7888   31.4554   43.0579 H   0  0  0  0  0  0  0  0  0  0  0  0
   57.0025   31.2669   43.0579 H   0  0  0  0  0  0  0  0  0  0  0  0
   58.5440   29.7960   45.6370 N   0  0  0  0  0  0  0  0  0  0  0  0
   59.0130   30.8460   46.4990 C   0  0  0  0  0  0  0  0  0  0  0  0
   58.1270   31.8210   46.9740 C   0  0  0  0  0  0  0  0  0  0  0  0
   57.0656   31.7830   46.6876 H   0  0  0  0  0  0  0  0  0  0  0  0
   58.5870   32.8440   47.8120 C   0  0  0  0  0  0  0  0  0  0  0  0
   57.8916   33.6225   48.1589 H   0  0  0  0  0  0  0  0  0  0  0  0
   59.9350   32.8800   48.2120 C   0  0  0  0  0  0  0  0  0  0  0  0
   60.4210   33.9620   49.0880 C   0  0  0  0  0  0  0  0  0  0  0  0
   61.1350   34.8790   48.5990 O   0  0  0  0  0  0  0  0  0  0  0  0
   60.1090   33.9970   50.4870 N   0  0  0  0  0  0  0  0  0  0  0  0
   60.3460   32.8950   51.4220 C   0  0  0  0  0  0  0  0  0  0  0  0
   60.5506   31.9757   50.8537 H   0  0  0  0  0  0  0  0  0  0  0  0
   61.2073   33.1471   52.0581 H   0  0  0  0  0  0  0  0  0  0  0  0
   59.1170   32.6740   52.3150 C   0  0  0  0  0  0  0  0  0  0  0  0
   59.3185   31.8411   53.0047 H   0  0  0  0  0  0  0  0  0  0  0  0
   58.9202   33.5996   52.8759 H   0  0  0  0  0  0  0  0  0  0  0  0
   57.9200   32.3510   51.5010 N   0  0  0  0  0  0  0  0  0  0  0  0
   56.6970   32.1160   52.3150 C   0  0  0  0  0  0  0  0  0  0  0  0
   56.9684   32.1903   53.3784 H   0  0  0  0  0  0  0  0  0  0  0  0
   55.9609   32.8762   52.0147 H   0  0  0  0  0  0  0  0  0  0  0  0
   56.0470   30.7430   52.0750 C   0  0  0  0  0  0  0  0  0  0  0  0
   55.3253   30.5459   52.8814 H   0  0  0  0  0  0  0  0  0  0  0  0
   55.5502   30.7691   51.0939 H   0  0  0  0  0  0  0  0  0  0  0  0
   57.0440   29.6560   52.0520 N   0  0  0  0  0  0  0  0  0  0  0  0
   57.5340   29.3350   53.4010 C   0  0  0  0  0  0  0  0  0  0  0  0
   56.8604   29.7763   54.1504 H   0  0  0  0  0  0  0  0  0  0  0  0
   57.5619   28.2430   53.5308 H   0  0  0  0  0  0  0  0  0  0  0  0
   58.5462   29.7456   53.5308 H   0  0  0  0  0  0  0  0  0  0  0  0
   58.1570   29.8870   51.0980 C   0  0  0  0  0  0  0  0  0  0  0  0
   59.1074   29.7298   51.6290 H   0  0  0  0  0  0  0  0  0  0  0  0
   58.0182   29.1808   50.2661 H   0  0  0  0  0  0  0  0  0  0  0  0
   58.1690   31.3040   50.4880 C   0  0  0  0  0  0  0  0  0  0  0  0
   59.1520   31.4831   50.0279 H   0  0  0  0  0  0  0  0  0  0  0  0
   57.3619   31.3572   49.7426 H   0  0  0  0  0  0  0  0  0  0  0  0
   60.8210   31.9000   47.7370 C   0  0  0  0  0  0  0  0  0  0  0  0
   61.8789   31.9254   48.0372 H   0  0  0  0  0  0  0  0  0  0  0  0
   60.3620   30.8900   46.8820 C   0  0  0  0  0  0  0  0  0  0  0  0
   61.0622   30.1280   46.5092 H   0  0  0  0  0  0  0  0  0  0  0  0
  1  2  1  0
  2  3  1  0
  2  4  2  0
  4  5  1  0
  5  6  2  0
  6  7  1  0
  6  8  1  0
  8  9  1  0
  9 10  1  0
 10 11  2  0
 10 12  1  0
 12 13  1  0
 13 14  1  0
  5 15  1  0
 15 16  1  0
 15 17  2  0
 17 18  1  0
 18 19  1  0
 18 20  1  0
 18 21  1  0
 17 22  1  0
 22 23  1  0
 23 24  2  0
 24 25  1  0
 24 26  1  0
 26 27  1  0
 26 28  2  0
 28 29  1  0
 29 30  2  0
 29 31  1  0
 31 32  1  0
 32 33  1  0
 32 34  1  0
 32 35  1  0
 35 36  1  0
 35 37  1  0
 35 38  1  0
 38 39  1  0
 39 40  1  0
 39 41  1  0
 39 42  1  0
 42 43  1  0
 42 44  1  0
 42 45  1  0
 45 46  1  0
 46 47  1  0
 46 48  1  0
 46 49  1  0
 45 50  1  0
 50 51  1  0
 50 52  1  0
 50 53  1  0
 53 54  1  0
 53 55  1  0
 28 56  1  0
 56 57  1  0
 56 58  2  0
 58 59  1  0
 22  4  1  0
 58 23  1  0
 13  8  2  0
 53 38  1  0
M  CHG  4   9  -1  12  -1  14  -1  31  -1
M  END
>  <UniqueID>  (60) 
56

>  <SMILES>  (60) 
C=c1/c(=C/c2[n-]c(=O)[n-]c2[O-])cc(C)n1-c1ccc(C(=O)[N-]CCN2CCN(C)CC2)cc1

>  <Energy>  (60) 
147.68357107173222

>  <Genealogy>  (60) 
C=c1c(=Cc2[n-]c(=O)[n-]c2[O-])cc(C)n1-c1ccc(C(=O)[N-]CCN2CCN(C)CC2)cc1 (protonated)
C=c1/c(=C/c2[n-]c(=O)[n-]c2[O-])cc(C)n1-c1ccc(C(=O)[N-]CCN2CCN(C)CC2)cc1 (cis-trans isomerization)
C=c1/c(=C/c2[n-]c(=O)[n-]c2[O-])cc(C)n1-c1ccc(C(=O)[N-]CCN2CCN(C)CC2)cc1 (3D coordinates assigned)
C=c1/c(=C/c2[n-]c(=O)[n-]c2[O-])cc(C)n1-c1ccc(C(=O)[N-]CCN2CCN(C)CC2)cc1 (nonaromatic ring conformer: 147.68357107173222 kcal/mol)

>  <smiles>  (60) 
C=c1c(=Cc2[nH]c(=O)[nH]c2O)cc(C)n1-c1ccc(C(=O)NCCN2CCN(C)CC2)cc1

>  <score_type>  (60) 
oracle

>  <origin>  (60) 
adg

>  <m_score__min__energy>  (60) 
-16.600000000000001

>  <m_primary>  (60) 
energy

$$$$
60:0
     RDKit          3D

 40 40  0  0  0  0  0  0  0  0999 V2000
   60.7260   30.2010   47.8800 C   0  0  0  0  0  0  0  0  0  0  0  0
   61.3940   31.4930   47.4870 C   0  0  0  0  0  0  0  0  0  0  0  0
   62.8000   31.5600   47.4990 C   0  0  0  0  0  0  0  0  0  0  0  0
   63.4590   32.7290   47.1190 C   0  0  0  0  0  0  0  0  0  0  0  0
   62.7290   33.8470   46.7210 C   0  0  0  0  0  0  0  0  0  0  0  0
   61.3350   33.8020   46.7050 C   0  0  0  0  0  0  0  0  0  0  0  0
   60.6470   32.6370   47.0930 C   0  0  0  0  0  0  0  0  0  0  0  0
   59.1330   32.6580   47.0690 C   0  0  0  0  0  0  0  0  0  0  0  0
   58.5010   34.3370   46.7070 S   0  0  0  0  0  0  0  0  0  0  0  0
   57.5730   33.8690   45.2010 C   0  0  0  0  0  0  0  0  0  0  0  0
   58.5020   33.2780   44.1340 C   0  0  0  0  0  0  0  0  0  0  0  0
   57.7660   32.4610   43.0560 C   0  0  0  0  0  0  0  0  0  0  0  0
   57.8280   31.0220   43.3190 N   0  0  0  0  0  0  0  0  0  0  0  0
   56.8280   30.3230   44.0780 C   0  0  0  0  0  0  0  0  0  0  0  0
   55.8840   30.9610   44.6200 O   0  0  0  0  0  0  0  0  0  0  0  0
   56.8910   28.8620   44.2260 C   0  0  0  0  0  0  0  0  0  0  0  0
   57.5900   28.1760   43.4320 O   0  0  0  0  0  0  0  0  0  0  0  0
   56.1530   28.2190   45.2700 N   0  0  0  0  0  0  0  0  0  0  0  0
   56.6840   27.0920   46.0230 C   0  0  0  0  0  0  0  0  0  0  0  0
   55.6090   26.0760   46.2230 C   0  0  0  0  0  0  0  0  0  0  0  0
   54.4210   26.3380   45.9000 O   0  0  0  0  0  0  0  0  0  0  0  0
   55.9200   24.8300   46.7560 O   0  0  0  0  0  0  0  0  0  0  0  0
   60.6877   30.1269   48.9768 H   0  0  0  0  0  0  0  0  0  0  0  0
   59.7035   30.1789   47.4751 H   0  0  0  0  0  0  0  0  0  0  0  0
   61.2991   29.3539   47.4751 H   0  0  0  0  0  0  0  0  0  0  0  0
   63.3846   30.6820   47.8111 H   0  0  0  0  0  0  0  0  0  0  0  0
   64.5582   32.7684   47.1336 H   0  0  0  0  0  0  0  0  0  0  0  0
   63.2526   34.7661   46.4191 H   0  0  0  0  0  0  0  0  0  0  0  0
   60.7664   34.6877   46.3853 H   0  0  0  0  0  0  0  0  0  0  0  0
   58.7767   31.9652   46.2925 H   0  0  0  0  0  0  0  0  0  0  0  0
   58.7643   32.3527   48.0594 H   0  0  0  0  0  0  0  0  0  0  0  0
   56.8119   33.1208   45.4674 H   0  0  0  0  0  0  0  0  0  0  0  0
   57.1025   34.7737   44.7885 H   0  0  0  0  0  0  0  0  0  0  0  0
   59.0340   34.1046   43.6403 H   0  0  0  0  0  0  0  0  0  0  0  0
   59.1855   32.5875   44.6498 H   0  0  0  0  0  0  0  0  0  0  0  0
   56.7113   32.7725   43.0331 H   0  0  0  0  0  0  0  0  0  0  0  0
   58.2587   32.6510   42.0911 H   0  0  0  0  0  0  0  0  0  0  0  0
   58.6460   30.4930   42.9390 H   0  0  0  0  0  0  0  0  0  0  0  0
   57.5175   26.6391   45.4661 H   0  0  0  0  0  0  0  0  0  0  0  0
   57.0441   27.4421   47.0017 H   0  0  0  0  0  0  0  0  0  0  0  0
  1  2  1  0
  2  3  2  0
  3  4  1  0
  4  5  2  0
  5  6  1  0
  6  7  2  0
  7  8  1  0
  8  9  1  0
  9 10  1  0
 10 11  1  0
 11 12  1  0
 12 13  1  0
 13 14  1  0
 14 15  2  0
 14 16  1  0
 16 17  2  0
 16 18  1  0
 18 19  1  0
 19 20  1  0
 20 21  2  0
 20 22  1  0
  7  2  1  0
  1 23  1  0
  1 24  1  0
  1 25  1  0
  3 26  1  0
  4 27  1  0
  5 28  1  0
  6 29  1  0
  8 30  1  0
  8 31  1  0
 10 32  1  0
 10 33  1  0
 11 34  1  0
 11 35  1  0
 12 36  1  0
 12 37  1  0
 13 38  1  0
 19 39  1  0
 19 40  1  0
M  CHG  2  18  -1  22  -1
M  END
>  <UniqueID>  (61) 
57

>  <SMILES>  (61) 
Cc1ccccc1CSCCCNC(=O)C(=O)[N-]CC(=O)[O-]

>  <Energy>  (61) 
23.430443584512044

>  <Genealogy>  (61) 
Cc1ccccc1CSCCCNC(=O)C(=O)[N-]CC(=O)[O-] (protonated)
Cc1ccccc1CSCCCNC(=O)C(=O)[N-]CC(=O)[O-] (3D coordinates assigned)
Cc1ccccc1CSCCCNC(=O)C(=O)[N-]CC(=O)[O-] (optimized conformer: 23.430443584512044 kcal/mol)

>  <smiles>  (61) 
Cc1ccccc1CSCCCNC(=O)C(=O)NCC(=O)O

>  <score_type>  (61) 
oracle

>  <origin>  (61) 
adg

>  <m_score__min__energy>  (61) 
-12.609999999999999

>  <m_primary>  (61) 
energy

$$$$
61:0
     RDKit          3D

 55 58  0  0  1  0  0  0  0  0999 V2000
   58.7700   26.2400   47.4640 C   0  0  0  0  0  0  0  0  0  0  0  0
   59.2020   27.3900   48.1700 O   0  0  0  0  0  0  0  0  0  0  0  0
   59.3310   28.6310   47.5400 C   0  0  0  0  0  0  0  0  0  0  0  0
   58.2830   29.3090   47.0430 N   0  0  0  0  0  0  0  0  0  0  0  0
   58.5030   33.7310   47.2970 C   0  0  0  0  0  0  0  0  0  0  0  0
   57.8990   33.8050   46.1390 N   0  0  0  0  0  0  0  0  0  0  0  0
   57.3230   31.2050   44.5660 C   0  0  0  0  0  0  0  0  0  0  0  0
   56.7440   30.2440   43.7690 C   0  0  0  0  0  0  0  0  0  0  0  0
   56.7410   30.4700   42.4150 C   0  0  0  0  0  0  0  0  0  0  0  0
   57.2830   31.5920   41.8330 C   0  0  0  0  0  0  0  0  0  0  0  0
   57.8520   32.5260   42.6610 C   0  0  0  0  0  0  0  0  0  0  0  0
   57.8930   32.3700   44.0430 C   0  0  0  0  0  0  0  0  0  0  0  0
   58.4900   33.3480   44.9350 C   0  0  0  0  0  0  0  0  0  0  0  0
   59.6260   33.8290   44.6090 O   0  0  0  0  0  0  0  0  0  0  0  0
   57.3950   31.0920   45.9930 N   0  0  0  0  0  0  0  0  0  0  0  0
   58.4580   30.5140   46.4380 C   0  0  0  0  0  0  0  0  0  0  0  0
   58.1570   32.7760   48.1810 N   0  0  0  0  0  0  0  0  0  0  0  0
   58.7580   32.6630   49.3770 C   0  0  0  0  0  0  0  0  0  0  0  0
   59.7640   33.5270   49.7500 C   0  0  0  0  0  0  0  0  0  0  0  0
   60.1540   34.5220   48.8810 C   0  0  0  0  0  0  0  0  0  0  0  0
   59.5060   34.5970   47.6660 C   0  0  0  0  0  0  0  0  0  0  0  0
   59.9130   35.6040   46.8040 O   0  0  0  0  0  0  0  0  0  0  0  0
   59.6860   31.0490   46.3280 N   0  0  0  0  0  0  0  0  0  0  0  0
   60.7440   30.3820   46.8210 C   0  0  0  0  0  0  0  0  0  0  0  0
   61.9250   30.8350   46.7430 N   0  0  0  0  0  0  0  0  0  0  0  0
   62.4540   31.7810   47.6630 C   0  0  0  0  0  0  0  0  0  0  0  0
   62.9720   32.9970   47.3070 C   0  0  0  0  0  0  0  0  0  0  0  0
   63.4710   33.8450   48.2760 C   0  0  0  0  0  0  0  0  0  0  0  0
   63.4570   33.4830   49.6080 C   0  0  0  0  0  0  0  0  0  0  0  0
   62.9360   32.2560   49.9810 C   0  0  0  0  0  0  0  0  0  0  0  0
   62.4260   31.3870   49.0080 C   0  0  0  0  0  0  0  0  0  0  0  0
   61.9020   30.1510   49.3630 O   0  0  0  0  0  0  0  0  0  0  0  0
   61.0420   30.0690   50.4610 C   0  0  0  0  0  0  0  0  0  0  0  0
   60.5460   29.1840   47.4190 N   0  0  0  0  0  0  0  0  0  0  0  0
   58.4765   25.4587   48.1805 H   0  0  0  0  0  0  0  0  0  0  0  0
   57.9083   26.5001   46.8317 H   0  0  0  0  0  0  0  0  0  0  0  0
   59.5898   25.8684   46.8317 H   0  0  0  0  0  0  0  0  0  0  0  0
   56.3021   29.3330   44.1989 H   0  0  0  0  0  0  0  0  0  0  0  0
   56.2811   29.7142   41.7614 H   0  0  0  0  0  0  0  0  0  0  0  0
   57.2610   31.7353   40.7426 H   0  0  0  0  0  0  0  0  0  0  0  0
   58.2917   33.4309   42.2163 H   0  0  0  0  0  0  0  0  0  0  0  0
   57.3950   32.0890   47.9530 H   0  0  0  0  0  0  0  0  0  0  0  0
   58.4421   31.8685   50.0690 H   0  0  0  0  0  0  0  0  0  0  0  0
   60.2505   33.4234   50.7311 H   0  0  0  0  0  0  0  0  0  0  0  0
   60.9526   35.2304   49.1463 H   0  0  0  0  0  0  0  0  0  0  0  0
   59.5630   35.5920   45.8510 H   0  0  0  0  0  0  0  0  0  0  0  0
   59.8340   31.9720   45.8690 H   0  0  0  0  0  0  0  0  0  0  0  0
   62.9908   33.2986   46.2493 H   0  0  0  0  0  0  0  0  0  0  0  0
   63.8848   34.8211   47.9828 H   0  0  0  0  0  0  0  0  0  0  0  0
   63.8584   34.1671   50.3702 H   0  0  0  0  0  0  0  0  0  0  0  0
   62.9225   31.9634   51.0413 H   0  0  0  0  0  0  0  0  0  0  0  0
   61.6277   30.1248   51.3904 H   0  0  0  0  0  0  0  0  0  0  0  0
   60.3254   30.9029   50.4285 H   0  0  0  0  0  0  0  0  0  0  0  0
   60.4959   29.1147   50.4285 H   0  0  0  0  0  0  0  0  0  0  0  0
   61.3590   28.6340   47.8160 H   0  0  0  0  0  0  0  0  0  0  0  0
  1  2  1  0
  2  3  1  0
  3  4  2  0
  4  5  1  0
  5  6  2  0
  6  7  1  0
  7  8  2  0
  8  9  1  0
  9 10  2  0
 10 11  1  0
 11 12  2  0
 12 13  1  0
 13 14  2  0
 13 15  1  0
 15 16  2  0
 16 17  1  0
 17 18  1  0
 18 19  2  0
 19 20  1  0
 20 21  2  0
 21 22  1  0
  5 23  1  0
 23 24  1  0
 24 25  2  0
 25 26  1  0
 26 27  2  0
 27 28  1  0
 28 29  2  0
 29 30  1  0
 30 31  2  0
 31 32  1  0
 32 33  1  0
 24 34  1  0
 34  3  1  0
 12  7  1  0
 21 16  1  0
 31 26  1  0
  1 35  1  0
  1 36  1  0
  1 37  1  0
  8 38  1  0
  9 39  1  0
 10 40  1  0
 11 41  1  0
 17 42  1  0
 18 43  1  0
 19 44  1  0
 20 45  1  0
 22 46  1  0
 23 47  1  0
 27 48  1  0
 28 49  1  0
 29 50  1  0
 30 51  1  0
 33 52  1  0
 33 53  1  0
 33 54  1  0
 34 55  1  0
M  END
>  <smiles>  (62) 
COc1nc(=Nc2ccccc2C(=O)N=c2[nH]cccc2O)[nH]c(=Nc2ccccc2OC)[nH]1

>  <score_type>  (62) 
oracle

>  <origin>  (62) 
adg

>  <m_score__min__energy>  (62) 
-9.2100000000000009

>  <m_primary>  (62) 
energy

$$$$
62:0
     RDKit          3D

 53 56  0  0  0  0  0  0  0  0999 V2000
   61.6281   29.6529   49.3320 H   0  0  0  0  0  0  0  0  0  0  0  0
   60.6000   29.2710   49.2470 C   0  0  0  0  0  0  0  0  0  0  0  0
   59.4990   30.0370   49.8670 C   0  0  0  0  0  0  0  0  0  0  0  0
   58.5390   30.4490   49.1620 O   0  0  0  0  0  0  0  0  0  0  0  0
   59.5330   30.3960   51.2550 N   0  0  0  0  0  0  0  0  0  0  0  0
   59.3210   31.7070   51.8010 C   0  0  0  0  0  0  0  0  0  0  0  0
   60.3660   32.4040   52.4340 C   0  0  0  0  0  0  0  0  0  0  0  0
   61.3668   31.9514   52.4946 H   0  0  0  0  0  0  0  0  0  0  0  0
   60.1410   33.6670   52.9860 C   0  0  0  0  0  0  0  0  0  0  0  0
   60.9675   34.2117   53.4658 H   0  0  0  0  0  0  0  0  0  0  0  0
   58.8700   34.2390   52.9300 C   0  0  0  0  0  0  0  0  0  0  0  0
   58.6965   35.2368   53.3593 H   0  0  0  0  0  0  0  0  0  0  0  0
   57.8180   33.5450   52.3290 C   0  0  0  0  0  0  0  0  0  0  0  0
   56.8156   33.9967   52.2936 H   0  0  0  0  0  0  0  0  0  0  0  0
   58.0300   32.2760   51.7700 C   0  0  0  0  0  0  0  0  0  0  0  0
   56.9340   31.5820   51.1620 N   0  0  0  0  0  0  0  0  0  0  0  0
   55.9760   31.9970   51.1250 H   0  0  0  0  0  0  0  0  0  0  0  0
   57.0710   30.6370   50.7370 H   0  0  0  0  0  0  0  0  0  0  0  0
   60.3860   28.1250   48.5840 C   0  0  0  0  0  0  0  0  0  0  0  0
   60.7490   27.1893   49.0343 H   0  0  0  0  0  0  0  0  0  0  0  0
   59.6870   28.0480   47.2770 C   0  0  0  0  0  0  0  0  0  0  0  0
   60.2940   28.6400   46.1560 C   0  0  0  0  0  0  0  0  0  0  0  0
   61.2629   29.1490   46.2664 H   0  0  0  0  0  0  0  0  0  0  0  0
   59.6780   28.5880   44.9020 C   0  0  0  0  0  0  0  0  0  0  0  0
   60.1562   29.0704   44.0367 H   0  0  0  0  0  0  0  0  0  0  0  0
   58.4520   27.9230   44.7420 C   0  0  0  0  0  0  0  0  0  0  0  0
   57.7720   27.8990   43.4040 C   0  0  0  0  0  0  0  0  0  0  0  0
   58.5275   27.8157   42.6089 H   0  0  0  0  0  0  0  0  0  0  0  0
   57.0916   27.0363   43.3510 H   0  0  0  0  0  0  0  0  0  0  0  0
   57.0150   29.1300   43.2290 N   0  0  0  0  0  0  0  0  0  0  0  0
   56.6340   30.0600   44.2540 C   0  0  0  0  0  0  0  0  0  0  0  0
   55.5490   29.8580   44.8610 O   0  0  0  0  0  0  0  0  0  0  0  0
   57.4350   31.2510   44.6210 C   0  0  0  0  0  0  0  0  0  0  0  0
   57.7740   32.5960   43.6680 S   0  0  0  0  0  0  0  0  0  0  0  0
   58.7630   33.3870   44.7700 C   0  0  0  0  0  0  0  0  0  0  0  0
   59.2537   34.3590   44.6134 H   0  0  0  0  0  0  0  0  0  0  0  0
   58.8560   32.6000   45.9190 C   0  0  0  0  0  0  0  0  0  0  0  0
   59.6560   32.9830   47.1100 C   0  0  0  0  0  0  0  0  0  0  0  0
   59.2380   34.0250   47.9570 C   0  0  0  0  0  0  0  0  0  0  0  0
   58.3061   34.5666   47.7375 H   0  0  0  0  0  0  0  0  0  0  0  0
   59.9780   34.3680   49.0460 N   0  0  0  0  0  0  0  0  0  0  0  0
   61.1340   33.7240   49.3560 C   0  0  0  0  0  0  0  0  0  0  0  0
   61.7090   34.0230   50.2448 H   0  0  0  0  0  0  0  0  0  0  0  0
   61.5910   32.6840   48.5470 C   0  0  0  0  0  0  0  0  0  0  0  0
   62.5269   32.1607   48.7923 H   0  0  0  0  0  0  0  0  0  0  0  0
   60.8510   32.3130   47.4240 C   0  0  0  0  0  0  0  0  0  0  0  0
   61.2042   31.4928   46.7817 H   0  0  0  0  0  0  0  0  0  0  0  0
   58.1180   31.4040   45.8260 C   0  0  0  0  0  0  0  0  0  0  0  0
   58.0838   30.6571   46.6328 H   0  0  0  0  0  0  0  0  0  0  0  0
   57.8430   27.3310   45.8560 C   0  0  0  0  0  0  0  0  0  0  0  0
   56.8744   26.8222   45.7425 H   0  0  0  0  0  0  0  0  0  0  0  0
   58.4570   27.3820   47.1110 C   0  0  0  0  0  0  0  0  0  0  0  0
   57.9764   26.8988   47.9745 H   0  0  0  0  0  0  0  0  0  0  0  0
  1  2  1  0
  2  3  1  0
  3  4  2  0
  3  5  1  0
  5  6  1  0
  6  7  2  0
  7  8  1  0
  7  9  1  0
  9 10  1  0
  9 11  2  0
 11 12  1  0
 11 13  1  0
 13 14  1  0
 13 15  2  0
 15 16  1  0
 16 17  1  0
 16 18  1  0
  2 19  2  0
 19 20  1  0
 19 21  1  0
 21 22  2  0
 22 23  1  0
 22 24  1  0
 24 25  1  0
 24 26  2  0
 26 27  1  0
 27 28  1  0
 27 29  1  0
 27 30  1  0
 30 31  1  0
 31 32  2  0
 31 33  1  0
 33 34  1  0
 34 35  1  0
 35 36  1  0
 35 37  2  0
 37 38  1  0
 38 39  2  0
 39 40  1  0
 39 41  1  0
 41 42  2  0
 42 43  1  0
 42 44  1  0
 44 45  1  0
 44 46  2  0
 46 47  1  0
 37 48  1  0
 48 49  1  0
 26 50  1  0
 50 51  1  0
 50 52  2  0
 52 53  1  0
 15  6  1  0
 52 21  1  0
 48 33  2  0
 46 38  1  0
M  CHG  2   5  -1  30  -1
M  END
>  <UniqueID>  (63) 
58

>  <SMILES>  (63) 
Nc1ccccc1[N-]C(=O)/C=C/c1ccc(C[N-]C(=O)c2cc(-c3cccnc3)cs2)cc1

>  <Energy>  (63) 
95.17826350636648

>  <Genealogy>  (63) 
Nc1ccccc1[N-]C(=O)C=Cc1ccc(C[N-]C(=O)c2cc(-c3cccnc3)cs2)cc1 (protonated)
Nc1ccccc1[N-]C(=O)/C=C/c1ccc(C[N-]C(=O)c2cc(-c3cccnc3)cs2)cc1 (cis-trans isomerization)
Nc1ccccc1[N-]C(=O)/C=C/c1ccc(C[N-]C(=O)c2cc(-c3cccnc3)cs2)cc1 (3D coordinates assigned)
Nc1ccccc1[N-]C(=O)/C=C/c1ccc(C[N-]C(=O)c2cc(-c3cccnc3)cs2)cc1 (optimized conformer: 95.17826350636648 kcal/mol)

>  <smiles>  (63) 
Nc1ccccc1NC(=O)C=Cc1ccc(CNC(=O)c2cc(-c3cccnc3)cs2)cc1

>  <score_type>  (63) 
oracle

>  <origin>  (63) 
adg

>  <m_score__min__energy>  (63) 
-12.85

>  <m_primary>  (63) 
energy

$$$$
63:0
     RDKit          3D

 81 86  0  0  0  0  0  0  0  0999 V2000
   57.3900   29.7010   50.4100 H   0  0  0  0  0  0  0  0  0  0  0  0
   57.8260   29.4200   51.2800 O   0  0  0  0  0  0  0  0  0  0  0  0
   59.1870   29.6110   51.5040 C   0  0  0  0  0  0  0  0  0  0  0  0
   60.1220   29.9720   50.5500 C   0  0  0  0  0  0  0  0  0  0  0  0
   59.8800   30.1870   49.1150 C   0  0  0  0  0  0  0  0  0  0  0  0
   59.9779   29.3162   48.4500 H   0  0  0  0  0  0  0  0  0  0  0  0
   59.5470   31.3680   48.5470 C   0  0  0  0  0  0  0  0  0  0  0  0
   58.9870   32.4830   49.1530 C   0  0  0  0  0  0  0  0  0  0  0  0
   58.8140   32.7260   50.5530 N   0  0  0  0  0  0  0  0  0  0  0  0
   59.2790   33.7240   51.5380 C   0  0  0  0  0  0  0  0  0  0  0  0
   60.2753   33.4893   51.9409 H   0  0  0  0  0  0  0  0  0  0  0  0
   59.4169   34.7540   51.1774 H   0  0  0  0  0  0  0  0  0  0  0  0
   58.1900   33.4950   52.5300 C   0  0  0  0  0  0  0  0  0  0  0  0
   58.5072   33.0734   53.4952 H   0  0  0  0  0  0  0  0  0  0  0  0
   57.5597   34.2940   52.9476 H   0  0  0  0  0  0  0  0  0  0  0  0
   57.7210   32.5050   51.5170 C   0  0  0  0  0  0  0  0  0  0  0  0
   57.7022   31.4767   51.9072 H   0  0  0  0  0  0  0  0  0  0  0  0
   56.6940   32.6250   51.1416 H   0  0  0  0  0  0  0  0  0  0  0  0
   58.7980   33.4490   48.2420 N   0  0  0  0  0  0  0  0  0  0  0  0
   59.2480   32.9330   47.0790 C   0  0  0  0  0  0  0  0  0  0  0  0
   59.2530   33.7050   45.9700 C   0  0  0  0  0  0  0  0  0  0  0  0
   60.2193   34.1582   45.7039 H   0  0  0  0  0  0  0  0  0  0  0  0
   58.1050   34.0220   45.0550 C   0  0  0  0  0  0  0  0  0  0  0  0
   58.4756   34.6303   44.2167 H   0  0  0  0  0  0  0  0  0  0  0  0
   57.3465   34.5678   45.6353 H   0  0  0  0  0  0  0  0  0  0  0  0
   57.4510   32.7470   44.4940 C   0  0  0  0  0  0  0  0  0  0  0  0
   56.3749   32.9288   44.3566 H   0  0  0  0  0  0  0  0  0  0  0  0
   57.6236   31.9291   45.2090 H   0  0  0  0  0  0  0  0  0  0  0  0
   58.0600   32.3450   43.1540 C   0  0  0  0  0  0  0  0  0  0  0  0
   58.9665   31.7466   43.3280 H   0  0  0  0  0  0  0  0  0  0  0  0
   57.3315   31.7497   42.5840 H   0  0  0  0  0  0  0  0  0  0  0  0
   58.3211   33.2488   42.5840 H   0  0  0  0  0  0  0  0  0  0  0  0
   59.7050   31.6500   47.2230 N   0  0  0  0  0  0  0  0  0  0  0  0
   60.0020   30.6500   46.1790 C   0  0  0  0  0  0  0  0  0  0  0  0
   60.0482   31.1642   45.2077 H   0  0  0  0  0  0  0  0  0  0  0  0
   60.9583   30.1771   46.4472 H   0  0  0  0  0  0  0  0  0  0  0  0
   58.9710   29.5470   46.0880 C   0  0  0  0  0  0  0  0  0  0  0  0
   57.7970   29.6730   45.3210 C   0  0  0  0  0  0  0  0  0  0  0  0
   57.5683   30.6282   44.8258 H   0  0  0  0  0  0  0  0  0  0  0  0
   56.9190   28.5920   45.1840 C   0  0  0  0  0  0  0  0  0  0  0  0
   56.0028   28.7049   44.5858 H   0  0  0  0  0  0  0  0  0  0  0  0
   57.2000   27.3620   45.8060 C   0  0  0  0  0  0  0  0  0  0  0  0
   56.3160   26.1890   45.6320 C   0  0  0  0  0  0  0  0  0  0  0  0
   55.0150   26.2280   45.8160 O   0  0  0  0  0  0  0  0  0  0  0  0
   54.5170   25.0300   45.6110 C   0  0  0  0  0  0  0  0  0  0  0  0
   53.4532   24.7624   45.6923 H   0  0  0  0  0  0  0  0  0  0  0  0
   55.5340   24.1590   45.2780 C   0  0  0  0  0  0  0  0  0  0  0  0
   55.4369   23.0875   45.0488 H   0  0  0  0  0  0  0  0  0  0  0  0
   56.6970   24.9010   45.2900 C   0  0  0  0  0  0  0  0  0  0  0  0
   57.7148   24.5446   45.0733 H   0  0  0  0  0  0  0  0  0  0  0  0
   58.3550   27.2480   46.5980 C   0  0  0  0  0  0  0  0  0  0  0  0
   58.5666   26.3046   47.1226 H   0  0  0  0  0  0  0  0  0  0  0  0
   59.2370   28.3250   46.7240 C   0  0  0  0  0  0  0  0  0  0  0  0
   60.1494   28.2133   47.3282 H   0  0  0  0  0  0  0  0  0  0  0  0
   61.3400   29.9870   51.1390 N   0  0  0  0  0  0  0  0  0  0  0  0
   62.6210   30.3700   50.5380 C   0  0  0  0  0  0  0  0  0  0  0  0
   63.4417   30.0741   51.2080 H   0  0  0  0  0  0  0  0  0  0  0  0
   62.7333   29.8631   49.5682 H   0  0  0  0  0  0  0  0  0  0  0  0
   62.6610   31.9000   50.3220 C   0  0  0  0  0  0  0  0  0  0  0  0
   61.9823   32.3668   51.0510 H   0  0  0  0  0  0  0  0  0  0  0  0
   63.7101   32.2046   50.4506 H   0  0  0  0  0  0  0  0  0  0  0  0
   62.2590   32.3450   48.9660 N   0  0  0  0  0  0  0  0  0  0  0  0
   62.9790   31.6590   47.8820 C   0  0  0  0  0  0  0  0  0  0  0  0
   63.7132   30.9597   48.3085 H   0  0  0  0  0  0  0  0  0  0  0  0
   62.2714   31.0934   47.2580 H   0  0  0  0  0  0  0  0  0  0  0  0
   63.6960   32.7070   47.0400 C   0  0  0  0  0  0  0  0  0  0  0  0
   64.7524   32.4328   46.9025 H   0  0  0  0  0  0  0  0  0  0  0  0
   63.2549   32.7958   46.0362 H   0  0  0  0  0  0  0  0  0  0  0  0
   63.5820   33.9990   47.8200 C   0  0  0  0  0  0  0  0  0  0  0  0
   64.4962   34.1817   48.4038 H   0  0  0  0  0  0  0  0  0  0  0  0
   63.4522   34.8718   47.1632 H   0  0  0  0  0  0  0  0  0  0  0  0
   62.3930   33.7900   48.7390 C   0  0  0  0  0  0  0  0  0  0  0  0
   62.5623   34.3063   49.6954 H   0  0  0  0  0  0  0  0  0  0  0  0
   61.4771   34.1976   48.2863 H   0  0  0  0  0  0  0  0  0  0  0  0
   61.1070   29.6920   52.4370 C   0  0  0  0  0  0  0  0  0  0  0  0
   62.0100   29.6470   53.3150 O   0  0  0  0  0  0  0  0  0  0  0  0
   59.8040   29.4540   52.6920 N   0  0  0  0  0  0  0  0  0  0  0  0
   59.1920   29.0860   53.9660 C   0  0  0  0  0  0  0  0  0  0  0  0
   59.8137   29.4598   54.7929 H   0  0  0  0  0  0  0  0  0  0  0  0
   58.1879   29.5302   54.0323 H   0  0  0  0  0  0  0  0  0  0  0  0
   59.1135   27.9908   54.0323 H   0  0  0  0  0  0  0  0  0  0  0  0
  1  2  1  0
  2  3  1  0
  3  4  2  0
  4  5  1  0
  5  6  1  0
  5  7  2  0
  7  8  1  0
  8  9  1  0
  9 10  1  0
 10 11  1  0
 10 12  1  0
 10 13  1  0
 13 14  1  0
 13 15  1  0
 13 16  1  0
 16 17  1  0
 16 18  1  0
  8 19  2  0
 19 20  1  0
 20 21  2  3
 21 22  1  0
 21 23  1  0
 23 24  1  0
 23 25  1  0
 23 26  1  0
 26 27  1  0
 26 28  1  0
 26 29  1  0
 29 30  1  0
 29 31  1  0
 29 32  1  0
 20 33  1  0
 33 34  1  0
 34 35  1  0
 34 36  1  0
 34 37  1  0
 37 38  2  0
 38 39  1  0
 38 40  1  0
 40 41  1  0
 40 42  2  0
 42 43  1  0
 43 44  1  0
 44 45  1  0
 45 46  1  0
 45 47  2  0
 47 48  1  0
 47 49  1  0
 49 50  1  0
 42 51  1  0
 51 52  1  0
 51 53  2  0
 53 54  1  0
  4 55  1  0
 55 56  1  0
 56 57  1  0
 56 58  1  0
 56 59  1  0
 59 60  1  0
 59 61  1  0
 59 62  1  0
 62 63  1  0
 63 64  1  0
 63 65  1  0
 63 66  1  0
 66 67  1  0
 66 68  1  0
 66 69  1  0
 69 70  1  0
 69 71  1  0
 69 72  1  0
 72 73  1  0
 72 74  1  0
 55 75  1  0
 75 76  2  0
 75 77  1  0
 77 78  1  0
 78 79  1  0
 78 80  1  0
 78 81  1  0
 77  3  1  0
 33  7  1  0
 53 37  1  0
 72 62  1  0
 16  9  1  0
 49 43  2  0
M  END
>  <UniqueID>  (64) 
59

>  <SMILES>  (64) 
CCCC=c1nc(N2CCC2)/c(=C\c2c(O)n(C)c(=O)n2CCN2CCCC2)n1Cc1ccc(-c2ccco2)cc1

>  <Energy>  (64) 
240.60888064801318

>  <Genealogy>  (64) 
CCCC=c1nc(N2CCC2)/c(=C\c2c(O)n(C)c(=O)n2CCN2CCCC2)n1Cc1ccc(-c2ccco2)cc1 (cis-trans isomerization)
CCCC=c1nc(N2CCC2)/c(=C\c2c(O)n(C)c(=O)n2CCN2CCCC2)n1Cc1ccc(-c2ccco2)cc1 (3D coordinates assigned)
CCCC=c1nc(N2CCC2)/c(=C\c2c(O)n(C)c(=O)n2CCN2CCCC2)n1Cc1ccc(-c2ccco2)cc1 (nonaromatic ring conformer: 240.60888064801318 kcal/mol)

>  <smiles>  (64) 
CCCC=c1nc(N2CCC2)c(=Cc2c(O)n(C)c(=O)n2CCN2CCCC2)n1Cc1ccc(-c2ccco2)cc1

>  <score_type>  (64) 
oracle

>  <origin>  (64) 
adg

>  <m_score__min__energy>  (64) 
-9.4700000000000006

>  <m_primary>  (64) 
energy

$$$$
64:0
     RDKit          3D

 41 43  0  0  0  0  0  0  0  0999 V2000
   54.7770   27.4660   46.2540 H   0  0  0  0  0  0  0  0  0  0  0  0
   54.8860   26.4790   46.0520 O   0  0  0  0  0  0  0  0  0  0  0  0
   56.1460   25.8840   45.9780 C   0  0  0  0  0  0  0  0  0  0  0  0
   56.2700   24.4940   45.8710 C   0  0  0  0  0  0  0  0  0  0  0  0
   55.3702   23.8621   45.8397 H   0  0  0  0  0  0  0  0  0  0  0  0
   57.5360   23.9100   45.8040 C   0  0  0  0  0  0  0  0  0  0  0  0
   57.6416   22.8181   45.7222 H   0  0  0  0  0  0  0  0  0  0  0  0
   58.6650   24.7270   45.8420 C   0  0  0  0  0  0  0  0  0  0  0  0
   59.6685   24.2796   45.7885 H   0  0  0  0  0  0  0  0  0  0  0  0
   58.5280   26.0750   45.9450 N   0  0  0  0  0  0  0  0  0  0  0  0
   57.3040   26.6750   46.0120 C   0  0  0  0  0  0  0  0  0  0  0  0
   57.1920   27.9670   46.1270 N   0  0  0  0  0  0  0  0  0  0  0  0
   56.7260   28.8890   45.1270 C   0  0  0  0  0  0  0  0  0  0  0  0
   55.4970   29.1400   44.9940 O   0  0  0  0  0  0  0  0  0  0  0  0
   57.7180   29.5930   44.2520 C   0  0  0  0  0  0  0  0  0  0  0  0
   58.6833   29.0680   44.3038 H   0  0  0  0  0  0  0  0  0  0  0  0
   57.3427   29.5947   43.2180 H   0  0  0  0  0  0  0  0  0  0  0  0
   57.9040   31.0240   44.7080 C   0  0  0  0  0  0  0  0  0  0  0  0
   58.1210   31.2810   46.0760 C   0  0  0  0  0  0  0  0  0  0  0  0
   58.2520   30.2460   46.9430 F   0  0  0  0  0  0  0  0  0  0  0  0
   58.2020   32.5980   46.5480 C   0  0  0  0  0  0  0  0  0  0  0  0
   58.3420   32.8730   47.9490 N   0  0  0  0  0  0  0  0  0  0  0  0
   57.5760   32.5210   48.5650 H   0  0  0  0  0  0  0  0  0  0  0  0
   59.6250   33.1560   48.6130 C   0  0  2  0  0  0  0  0  0  0  0  0
   59.3065   33.0065   49.6552 H   0  0  0  0  0  0  0  0  0  0  0  0
   60.2580   34.4630   48.1430 C   0  0  0  0  0  0  0  0  0  0  0  0
   59.6822   34.9870   47.3659 H   0  0  0  0  0  0  0  0  0  0  0  0
   60.3991   35.2977   48.8454 H   0  0  0  0  0  0  0  0  0  0  0  0
   61.4600   33.6890   47.6120 C   0  0  2  0  0  0  0  0  0  0  0  0
   62.4821   33.9623   47.9130 H   0  0  0  0  0  0  0  0  0  0  0  0
   61.5410   33.7550   46.2130 O   0  0  0  0  0  0  0  0  0  0  0  0
   62.1940   34.4740   46.0130 H   0  0  0  0  0  0  0  0  0  0  0  0
   60.8410   32.3790   48.0920 C   0  0  0  0  0  0  0  0  0  0  0  0
   60.6094   31.6679   47.2853 H   0  0  0  0  0  0  0  0  0  0  0  0
   61.4016   31.7051   48.7565 H   0  0  0  0  0  0  0  0  0  0  0  0
   58.1220   33.6640   45.6460 C   0  0  0  0  0  0  0  0  0  0  0  0
   58.2284   34.6972   46.0081 H   0  0  0  0  0  0  0  0  0  0  0  0
   57.9080   33.4220   44.2900 C   0  0  0  0  0  0  0  0  0  0  0  0
   57.8417   34.2666   43.5884 H   0  0  0  0  0  0  0  0  0  0  0  0
   57.7770   32.1130   43.8150 C   0  0  0  0  0  0  0  0  0  0  0  0
   57.4370   31.8880   42.1010 Cl  0  0  0  0  0  0  0  0  0  0  0  0
  1  2  1  0
  2  3  1  0
  3  4  2  0
  4  5  1  0
  4  6  1  0
  6  7  1  0
  6  8  2  0
  8  9  1  0
  8 10  1  0
 10 11  1  0
 11 12  2  0
 12 13  1  0
 13 14  2  0
 13 15  1  0
 15 16  1  0
 15 17  1  0
 15 18  1  0
 18 19  2  0
 19 20  1  0
 19 21  1  0
 21 22  1  0
 22 23  1  0
 22 24  1  0
 24 25  1  1
 24 26  1  0
 26 27  1  0
 26 28  1  0
 26 29  1  0
 29 30  1  1
 29 31  1  0
 31 32  1  0
 29 33  1  0
 33 34  1  0
 33 35  1  0
 21 36  2  0
 36 37  1  0
 36 38  1  0
 38 39  1  0
 38 40  2  0
 40 41  1  0
 11  3  1  0
 40 18  1  0
 33 24  1  0
M  CHG  1  10  -1
M  END
>  <UniqueID>  (65) 
60

>  <SMILES>  (65) 
O=C(Cc1c(Cl)ccc(NC2CC(O)C2)c1F)/N=c1\[n-]cccc1O

>  <Energy>  (65) 
114.4708338704455

>  <Genealogy>  (65) 
O=C(Cc1c(Cl)ccc(NC2CC(O)C2)c1F)N=c1[n-]cccc1O (protonated)
O=C(Cc1c(Cl)ccc(NC2CC(O)C2)c1F)/N=c1\[n-]cccc1O (cis-trans isomerization)
O=C(Cc1c(Cl)ccc(NC2CC(O)C2)c1F)/N=c1\[n-]cccc1O (3D coordinates assigned)
O=C(Cc1c(Cl)ccc(NC2CC(O)C2)c1F)/N=c1\[n-]cccc1O (nonaromatic ring conformer: 114.4708338704455 kcal/mol)

>  <smiles>  (65) 
O=C(Cc1c(Cl)ccc(NC2CC(O)C2)c1F)N=c1[nH]cccc1O

>  <score_type>  (65) 
oracle

>  <origin>  (65) 
adg

>  <m_score__min__energy>  (65) 
-10.42

>  <m_primary>  (65) 
energy

$$$$
65:0
     RDKit          3D

 53 56  0  0  0  0  0  0  0  0999 V2000
   57.7683   34.0931   53.1772 H   0  0  0  0  0  0  0  0  0  0  0  0
   58.0820   33.4470   52.3440 C   0  0  0  0  0  0  0  0  0  0  0  0
   59.2190   33.7310   51.6560 N   0  0  0  0  0  0  0  0  0  0  0  0
   59.6360   32.9710   50.6060 C   0  0  0  0  0  0  0  0  0  0  0  0
   58.8940   31.8230   50.2320 C   0  0  0  0  0  0  0  0  0  0  0  0
   57.7200   31.5250   50.9390 C   0  0  0  0  0  0  0  0  0  0  0  0
   57.1193   30.6471   50.6588 H   0  0  0  0  0  0  0  0  0  0  0  0
   57.3120   32.3370   51.9950 C   0  0  0  0  0  0  0  0  0  0  0  0
   56.3905   32.1050   52.5490 H   0  0  0  0  0  0  0  0  0  0  0  0
   59.2830   30.9710   49.0430 C   0  0  0  0  0  0  0  0  0  0  0  0
   59.1668   29.9104   49.3106 H   0  0  0  0  0  0  0  0  0  0  0  0
   58.6286   31.2375   48.2000 H   0  0  0  0  0  0  0  0  0  0  0  0
   60.7400   31.2220   48.6190 C   0  0  1  0  0  0  0  0  0  0  0  0
   61.4136   30.7596   49.3554 H   0  0  0  0  0  0  0  0  0  0  0  0
   61.0850   30.5440   47.2880 C   0  0  0  0  0  0  0  0  0  0  0  0
   61.5759   29.5794   47.4843 H   0  0  0  0  0  0  0  0  0  0  0  0
   60.1629   30.3758   46.7123 H   0  0  0  0  0  0  0  0  0  0  0  0
   61.7638   31.1904   46.7123 H   0  0  0  0  0  0  0  0  0  0  0  0
   60.9880   32.6730   48.6000 N   0  0  0  0  0  0  0  0  0  0  0  0
   60.7380   33.4650   47.4260 C   0  0  0  0  0  0  0  0  0  0  0  0
   61.6510   34.2150   46.9820 O   0  0  0  0  0  0  0  0  0  0  0  0
   59.4290   33.4090   46.7340 C   0  0  0  0  0  0  0  0  0  0  0  0
   58.2370   33.4890   47.4670 C   0  0  0  0  0  0  0  0  0  0  0  0
   58.2682   33.5949   48.5614 H   0  0  0  0  0  0  0  0  0  0  0  0
   57.0130   33.4340   46.8050 C   0  0  0  0  0  0  0  0  0  0  0  0
   56.0758   33.5129   47.3755 H   0  0  0  0  0  0  0  0  0  0  0  0
   56.9750   33.2830   45.4550 N   0  0  0  0  0  0  0  0  0  0  0  0
   58.1000   33.1760   44.7000 C   0  0  0  0  0  0  0  0  0  0  0  0
   57.9610   33.0440   43.4100 N   0  0  0  0  0  0  0  0  0  0  0  0
   57.4920   31.9120   42.6610 C   0  0  0  0  0  0  0  0  0  0  0  0
   57.9730   31.6380   41.5290 O   0  0  0  0  0  0  0  0  0  0  0  0
   56.5290   30.9640   43.3060 C   0  0  0  0  0  0  0  0  0  0  0  0
   55.9842   30.4163   42.5229 H   0  0  0  0  0  0  0  0  0  0  0  0
   55.8305   31.5429   43.9281 H   0  0  0  0  0  0  0  0  0  0  0  0
   57.2520   29.9760   44.1870 C   0  0  0  0  0  0  0  0  0  0  0  0
   58.6550   29.9750   44.2310 C   0  0  0  0  0  0  0  0  0  0  0  0
   59.2209   30.7016   43.6295 H   0  0  0  0  0  0  0  0  0  0  0  0
   59.3380   29.0570   45.0340 C   0  0  0  0  0  0  0  0  0  0  0  0
   60.4376   29.0643   45.0609 H   0  0  0  0  0  0  0  0  0  0  0  0
   58.6260   28.1260   45.8060 C   0  0  0  0  0  0  0  0  0  0  0  0
   59.3530   27.1170   46.6450 C   0  0  0  0  0  0  0  0  0  0  0  0
   59.1916   27.3410   47.7098 H   0  0  0  0  0  0  0  0  0  0  0  0
   58.9715   26.1101   46.4202 H   0  0  0  0  0  0  0  0  0  0  0  0
   60.4289   27.1601   46.4202 H   0  0  0  0  0  0  0  0  0  0  0  0
   57.2250   28.1010   45.7380 C   0  0  0  0  0  0  0  0  0  0  0  0
   56.6628   27.3560   46.3202 H   0  0  0  0  0  0  0  0  0  0  0  0
   56.5380   29.0180   44.9340 C   0  0  0  0  0  0  0  0  0  0  0  0
   55.1500   28.9680   44.8790 O   0  0  0  0  0  0  0  0  0  0  0  0
   59.3580   33.2580   45.3360 C   0  0  0  0  0  0  0  0  0  0  0  0
   60.2811   33.2040   44.7402 H   0  0  0  0  0  0  0  0  0  0  0  0
   60.9220   33.3330   49.9070 C   0  0  0  0  0  0  0  0  0  0  0  0
   61.7742   33.0083   50.5220 H   0  0  0  0  0  0  0  0  0  0  0  0
   60.9586   34.4228   49.7622 H   0  0  0  0  0  0  0  0  0  0  0  0
  1  2  1  0
  2  3  2  0
  3  4  1  0
  4  5  2  0
  5  6  1  0
  6  7  1  0
  6  8  2  0
  8  9  1  0
  5 10  1  0
 10 11  1  0
 10 12  1  0
 10 13  1  0
 13 14  1  1
 13 15  1  0
 15 16  1  0
 15 17  1  0
 15 18  1  0
 13 19  1  0
 19 20  1  0
 20 21  2  0
 20 22  1  0
 22 23  1  0
 23 24  1  0
 23 25  2  0
 25 26  1  0
 25 27  1  0
 27 28  1  0
 28 29  2  0
 29 30  1  0
 30 31  2  0
 30 32  1  0
 32 33  1  0
 32 34  1  0
 32 35  1  0
 35 36  2  0
 36 37  1  0
 36 38  1  0
 38 39  1  0
 38 40  2  0
 40 41  1  0
 41 42  1  0
 41 43  1  0
 41 44  1  0
 40 45  1  0
 45 46  1  0
 45 47  2  0
 47 48  1  0
 28 49  1  0
 49 50  1  0
 19 51  1  0
 51 52  1  0
 51 53  1  0
  8  2  1  0
 49 22  2  0
 51  4  1  0
 47 35  1  0
M  CHG  2  27  -1  48  -1
M  END
>  <UniqueID>  (66) 
61

>  <SMILES>  (66) 
Cc1ccc(CC(=O)/N=c2\cc(C(=O)N3Cc4ncccc4C[C@H]3C)cc[n-]2)c([O-])c1

>  <Energy>  (66) 
71.96323748943864

>  <Genealogy>  (66) 
Cc1ccc(CC(=O)N=c2cc(C(=O)N3Cc4ncccc4CC3C)cc[n-]2)c([O-])c1 (protonated)
Cc1ccc(CC(=O)N=c2cc(C(=O)N3Cc4ncccc4C[C@H]3C)cc[n-]2)c([O-])c1 (chirality)
Cc1ccc(CC(=O)/N=c2\cc(C(=O)N3Cc4ncccc4C[C@H]3C)cc[n-]2)c([O-])c1 (cis-trans isomerization)
Cc1ccc(CC(=O)/N=c2\cc(C(=O)N3Cc4ncccc4C[C@H]3C)cc[n-]2)c([O-])c1 (3D coordinates assigned)
Cc1ccc(CC(=O)/N=c2\cc(C(=O)N3Cc4ncccc4C[C@H]3C)cc[n-]2)c([O-])c1 (nonaromatic ring conformer: 71.96323748943864 kcal/mol)

>  <smiles>  (66) 
Cc1ccc(CC(=O)N=c2cc(C(=O)N3Cc4ncccc4CC3C)cc[nH]2)c(O)c1

>  <score_type>  (66) 
oracle

>  <origin>  (66) 
adg

>  <m_score__min__energy>  (66) 
-14.48

>  <m_primary>  (66) 
energy

$$$$
66:0
     RDKit          3D

 56 58  0  0  0  0  0  0  0  0999 V2000
   57.3210   31.9360   51.6850 C   0  0  0  0  0  0  0  0  0  0  0  0
   58.6090   33.1960   51.9560 S   0  0  0  0  0  0  0  0  0  0  0  0
   59.2630   33.1880   50.2460 C   0  0  0  0  0  0  0  0  0  0  0  0
   60.5970   32.4400   50.1570 C   0  0  0  0  0  0  0  0  0  0  0  0
   60.3970   30.9870   49.8330 C   0  0  0  0  0  0  0  0  0  0  0  0
   59.6420   30.1660   50.5860 N   0  0  0  0  0  0  0  0  0  0  0  0
   59.6630   28.9760   50.0050 N   0  0  0  0  0  0  0  0  0  0  0  0
   60.4320   29.0860   48.9010 C   0  0  0  0  0  0  0  0  0  0  0  0
   60.7210   27.9540   47.9530 C   0  0  0  0  0  0  0  0  0  0  0  0
   59.5050   27.5720   47.1340 C   0  0  0  0  0  0  0  0  0  0  0  0
   58.8160   26.4010   47.4850 C   0  0  0  0  0  0  0  0  0  0  0  0
   57.6870   26.0010   46.7800 C   0  0  0  0  0  0  0  0  0  0  0  0
   57.2240   26.7600   45.7090 C   0  0  0  0  0  0  0  0  0  0  0  0
   57.8990   27.9260   45.3090 C   0  0  0  0  0  0  0  0  0  0  0  0
   57.3270   28.7150   44.1480 C   0  0  0  0  0  0  0  0  0  0  0  0
   56.3060   29.7280   44.6030 C   0  0  0  0  0  0  0  0  0  0  0  0
   55.1340   29.3490   44.8750 O   0  0  0  0  0  0  0  0  0  0  0  0
   56.6050   31.1270   44.6620 N   0  0  0  0  0  0  0  0  0  0  0  0
   57.7980   31.7390   44.0920 C   0  0  0  0  0  0  0  0  0  0  0  0
   58.2480   32.8650   44.9710 C   0  0  0  0  0  0  0  0  0  0  0  0
   58.6250   34.1220   44.5470 C   0  0  0  0  0  0  0  0  0  0  0  0
   59.0030   34.7780   45.7040 C   0  0  0  0  0  0  0  0  0  0  0  0
   58.8670   33.9520   46.7600 N   0  0  0  0  0  0  0  0  0  0  0  0
   58.4130   32.7940   46.3080 N   0  0  0  0  0  0  0  0  0  0  0  0
   58.1510   31.6410   47.1600 C   0  0  0  0  0  0  0  0  0  0  0  0
   59.0740   28.3310   46.0080 C   0  0  0  0  0  0  0  0  0  0  0  0
   59.8230   29.5910   45.6210 C   0  0  0  0  0  0  0  0  0  0  0  0
   60.8960   30.3450   48.7540 N   0  0  0  0  0  0  0  0  0  0  0  0
   61.8310   30.8470   47.7490 C   0  0  0  0  0  0  0  0  0  0  0  0
   56.9515   31.5746   52.6560 H   0  0  0  0  0  0  0  0  0  0  0  0
   56.4889   32.3784   51.1177 H   0  0  0  0  0  0  0  0  0  0  0  0
   57.7450   31.0944   51.1177 H   0  0  0  0  0  0  0  0  0  0  0  0
   58.5329   32.6959   49.5867 H   0  0  0  0  0  0  0  0  0  0  0  0
   59.4311   34.2301   49.9366 H   0  0  0  0  0  0  0  0  0  0  0  0
   61.2120   32.8998   49.3693 H   0  0  0  0  0  0  0  0  0  0  0  0
   61.0952   32.5084   51.1353 H   0  0  0  0  0  0  0  0  0  0  0  0
   61.5268   28.2604   47.2698 H   0  0  0  0  0  0  0  0  0  0  0  0
   61.0156   27.0787   48.5505 H   0  0  0  0  0  0  0  0  0  0  0  0
   59.1738   25.7922   48.3284 H   0  0  0  0  0  0  0  0  0  0  0  0
   57.1574   25.0813   47.0694 H   0  0  0  0  0  0  0  0  0  0  0  0
   56.3192   26.4435   45.1694 H   0  0  0  0  0  0  0  0  0  0  0  0
   58.1471   29.2415   43.6379 H   0  0  0  0  0  0  0  0  0  0  0  0
   56.8262   28.0081   43.4701 H   0  0  0  0  0  0  0  0  0  0  0  0
   58.5977   30.9871   44.0205 H   0  0  0  0  0  0  0  0  0  0  0  0
   57.5686   32.1257   43.0881 H   0  0  0  0  0  0  0  0  0  0  0  0
   58.6250   34.5145   43.5194 H   0  0  0  0  0  0  0  0  0  0  0  0
   59.3606   35.8170   45.7548 H   0  0  0  0  0  0  0  0  0  0  0  0
   58.2194   31.9421   48.2158 H   0  0  0  0  0  0  0  0  0  0  0  0
   57.1421   31.2543   46.9537 H   0  0  0  0  0  0  0  0  0  0  0  0
   58.8937   30.8563   46.9537 H   0  0  0  0  0  0  0  0  0  0  0  0
   60.1394   30.1233   46.5301 H   0  0  0  0  0  0  0  0  0  0  0  0
   60.7086   29.3230   45.0260 H   0  0  0  0  0  0  0  0  0  0  0  0
   59.1645   30.2409   45.0260 H   0  0  0  0  0  0  0  0  0  0  0  0
   62.6938   31.3103   48.2499 H   0  0  0  0  0  0  0  0  0  0  0  0
   62.1763   30.0130   47.1204 H   0  0  0  0  0  0  0  0  0  0  0  0
   61.3266   31.5956   47.1204 H   0  0  0  0  0  0  0  0  0  0  0  0
  1  2  1  0
  2  3  1  0
  3  4  1  0
  4  5  1  0
  5  6  2  0
  6  7  1  0
  7  8  2  0
  8  9  1  0
  9 10  1  0
 10 11  2  0
 11 12  1  0
 12 13  2  0
 13 14  1  0
 14 15  1  0
 15 16  1  0
 16 17  2  0
 16 18  1  0
 18 19  1  0
 19 20  1  0
 20 21  2  0
 21 22  1  0
 22 23  2  0
 23 24  1  0
 24 25  1  0
 14 26  2  0
 26 27  1  0
  8 28  1  0
 28 29  1  0
 28  5  1  0
 26 10  1  0
 24 20  1  0
  1 30  1  0
  1 31  1  0
  1 32  1  0
  3 33  1  0
  3 34  1  0
  4 35  1  0
  4 36  1  0
  9 37  1  0
  9 38  1  0
 11 39  1  0
 12 40  1  0
 13 41  1  0
 15 42  1  0
 15 43  1  0
 19 44  1  0
 19 45  1  0
 21 46  1  0
 22 47  1  0
 25 48  1  0
 25 49  1  0
 25 50  1  0
 27 51  1  0
 27 52  1  0
 27 53  1  0
 29 54  1  0
 29 55  1  0
 29 56  1  0
M  CHG  1  18  -1
M  END
>  <UniqueID>  (67) 
62

>  <SMILES>  (67) 
CSCCc1nnc(Cc2cccc(CC(=O)[N-]Cc3ccnn3C)c2C)n1C

>  <Energy>  (67) 
115.10616253834633

>  <Genealogy>  (67) 
CSCCc1nnc(Cc2cccc(CC(=O)[N-]Cc3ccnn3C)c2C)n1C (protonated)
CSCCc1nnc(Cc2cccc(CC(=O)[N-]Cc3ccnn3C)c2C)n1C (3D coordinates assigned)
CSCCc1nnc(Cc2cccc(CC(=O)[N-]Cc3ccnn3C)c2C)n1C (optimized conformer: 115.10616253834633 kcal/mol)

>  <smiles>  (67) 
CSCCc1nnc(Cc2cccc(CC(=O)NCc3ccnn3C)c2C)n1C

>  <score_type>  (67) 
oracle

>  <origin>  (67) 
adg

>  <m_score__min__energy>  (67) 
-10.380000000000001

>  <m_primary>  (67) 
energy

$$$$
67:0
     RDKit          3D

 52 54  0  0  0  0  0  0  0  0999 V2000
   58.6140   28.3440   47.5830 C   0  0  0  0  0  0  0  0  0  0  0  0
   58.4630   28.3290   46.1240 N   0  0  0  0  0  0  0  0  0  0  0  0
   57.7340   27.2280   45.4800 C   0  0  0  0  0  0  0  0  0  0  0  0
   56.2600   27.4450   45.6160 C   0  0  0  0  0  0  0  0  0  0  0  0
   55.7540   28.5380   45.2330 O   0  0  0  0  0  0  0  0  0  0  0  0
   55.4340   26.3830   46.1150 N   0  0  0  0  0  0  0  0  0  0  0  0
   55.7310   24.9800   46.0710 C   0  0  0  0  0  0  0  0  0  0  0  0
   55.5570   24.2930   44.8570 C   0  0  0  0  0  0  0  0  0  0  0  0
   55.8480   22.9270   44.7670 C   0  0  0  0  0  0  0  0  0  0  0  0
   56.3290   22.2390   45.8850 C   0  0  0  0  0  0  0  0  0  0  0  0
   56.6110   20.9170   45.7950 F   0  0  0  0  0  0  0  0  0  0  0  0
   56.5300   22.9200   47.0930 C   0  0  0  0  0  0  0  0  0  0  0  0
   56.2420   24.2880   47.1870 C   0  0  0  0  0  0  0  0  0  0  0  0
   59.0380   29.3820   45.3250 C   0  0  0  0  0  0  0  0  0  0  0  0
   59.7520   29.0920   44.3250 O   0  0  0  0  0  0  0  0  0  0  0  0
   58.7700   30.8060   45.6220 C   0  0  0  0  0  0  0  0  0  0  0  0
   59.7290   31.5360   46.3450 C   0  0  0  0  0  0  0  0  0  0  0  0
   59.4800   32.8570   46.7360 C   0  0  0  0  0  0  0  0  0  0  0  0
   60.6740   33.7310   47.6970 S   0  0  0  0  0  0  0  0  0  0  0  0
   60.0230   34.9310   48.3250 O   0  0  0  0  0  0  0  0  0  0  0  0
   61.7610   34.2230   46.7820 O   0  0  0  0  0  0  0  0  0  0  0  0
   61.3800   32.7340   48.9540 N   0  0  0  0  0  0  0  0  0  0  0  0
   61.8540   33.5210   50.1140 C   0  0  0  0  0  0  0  0  0  0  0  0
   63.3800   33.6970   50.1360 C   0  0  0  0  0  0  0  0  0  0  0  0
   63.8910   33.7150   48.8240 O   0  0  0  0  0  0  0  0  0  0  0  0
   63.7840   32.4280   48.2500 C   0  0  0  0  0  0  0  0  0  0  0  0
   62.3840   31.7910   48.4260 C   0  0  0  0  0  0  0  0  0  0  0  0
   58.2630   33.4610   46.3900 C   0  0  0  0  0  0  0  0  0  0  0  0
   57.3070   32.7490   45.6610 C   0  0  0  0  0  0  0  0  0  0  0  0
   57.5490   31.4270   45.2670 C   0  0  0  0  0  0  0  0  0  0  0  0
   56.5720   30.7720   44.5130 O   0  0  0  0  0  0  0  0  0  0  0  0
   57.6253   28.2458   48.0550 H   0  0  0  0  0  0  0  0  0  0  0  0
   59.2538   27.5050   47.8941 H   0  0  0  0  0  0  0  0  0  0  0  0
   59.0762   29.2925   47.8941 H   0  0  0  0  0  0  0  0  0  0  0  0
   58.0001   27.1890   44.4134 H   0  0  0  0  0  0  0  0  0  0  0  0
   58.0068   26.2797   45.9661 H   0  0  0  0  0  0  0  0  0  0  0  0
   55.1896   24.8327   43.9717 H   0  0  0  0  0  0  0  0  0  0  0  0
   55.6982   22.3945   43.8162 H   0  0  0  0  0  0  0  0  0  0  0  0
   56.9150   22.3791   47.9700 H   0  0  0  0  0  0  0  0  0  0  0  0
   56.4150   24.8222   48.1329 H   0  0  0  0  0  0  0  0  0  0  0  0
   60.6872   31.0635   46.6069 H   0  0  0  0  0  0  0  0  0  0  0  0
   61.3868   34.5161   50.0771 H   0  0  0  0  0  0  0  0  0  0  0  0
   61.5730   32.9693   51.0232 H   0  0  0  0  0  0  0  0  0  0  0  0
   63.6283   34.6455   50.6347 H   0  0  0  0  0  0  0  0  0  0  0  0
   63.8286   32.8541   50.6821 H   0  0  0  0  0  0  0  0  0  0  0  0
   63.9983   32.5071   47.1740 H   0  0  0  0  0  0  0  0  0  0  0  0
   64.5038   31.7793   48.7706 H   0  0  0  0  0  0  0  0  0  0  0  0
   62.0402   31.4259   47.4470 H   0  0  0  0  0  0  0  0  0  0  0  0
   62.4847   30.9762   49.1581 H   0  0  0  0  0  0  0  0  0  0  0  0
   58.0601   34.4987   46.6934 H   0  0  0  0  0  0  0  0  0  0  0  0
   56.3552   33.2314   45.3940 H   0  0  0  0  0  0  0  0  0  0  0  0
   56.5120   29.7640   44.4430 H   0  0  0  0  0  0  0  0  0  0  0  0
  1  2  1  0
  2  3  1  0
  3  4  1  0
  4  5  2  0
  4  6  1  0
  6  7  1  0
  7  8  2  0
  8  9  1  0
  9 10  2  0
 10 11  1  0
 10 12  1  0
 12 13  2  0
  2 14  1  0
 14 15  2  0
 14 16  1  0
 16 17  2  0
 17 18  1  0
 18 19  1  0
 19 20  2  0
 19 21  2  0
 19 22  1  0
 22 23  1  0
 23 24  1  0
 24 25  1  0
 25 26  1  0
 26 27  1  0
 18 28  2  0
 28 29  1  0
 29 30  2  0
 30 31  1  0
 13  7  1  0
 30 16  1  0
 27 22  1  0
  1 32  1  0
  1 33  1  0
  1 34  1  0
  3 35  1  0
  3 36  1  0
  8 37  1  0
  9 38  1  0
 12 39  1  0
 13 40  1  0
 17 41  1  0
 23 42  1  0
 23 43  1  0
 24 44  1  0
 24 45  1  0
 26 46  1  0
 26 47  1  0
 27 48  1  0
 27 49  1  0
 28 50  1  0
 29 51  1  0
 31 52  1  0
M  CHG  1   6  -1
M  END
>  <UniqueID>  (68) 
63

>  <SMILES>  (68) 
CN(CC(=O)[N-]c1ccc(F)cc1)C(=O)c1cc(S(=O)(=O)N2CCOCC2)ccc1O

>  <Energy>  (68) 
70.91110077470178

>  <Genealogy>  (68) 
CN(CC(=O)[N-]c1ccc(F)cc1)C(=O)c1cc(S(=O)(=O)N2CCOCC2)ccc1O (protonated)
CN(CC(=O)[N-]c1ccc(F)cc1)C(=O)c1cc(S(=O)(=O)N2CCOCC2)ccc1O (3D coordinates assigned)
CN(CC(=O)[N-]c1ccc(F)cc1)C(=O)c1cc(S(=O)(=O)N2CCOCC2)ccc1O (nonaromatic ring conformer: 70.91110077470178 kcal/mol)

>  <smiles>  (68) 
CN(CC(=O)Nc1ccc(F)cc1)C(=O)c1cc(S(=O)(=O)N2CCOCC2)ccc1O

>  <score_type>  (68) 
oracle

>  <origin>  (68) 
adg

>  <m_score__min__energy>  (68) 
-11.1

>  <m_primary>  (68) 
energy

$$$$
68:0
     RDKit          3D

 25 25  0  0  0  0  0  0  0  0999 V2000
   55.8510   21.7880   50.0560 N   0  0  0  0  0  0  0  0  0  0  0  0
   56.9260   21.5350   49.1560 C   0  0  0  0  0  0  0  0  0  0  0  0
   57.7740   20.6430   49.4270 O   0  0  0  0  0  0  0  0  0  0  0  0
   57.0330   22.2990   47.9540 N   0  0  0  0  0  0  0  0  0  0  0  0
   56.6220   23.6950   47.8680 C   0  0  0  0  0  0  0  0  0  0  0  0
   56.9660   24.2580   46.4900 C   0  0  0  0  0  0  0  0  0  0  0  0
   57.3630   25.6600   46.5850 N   0  0  0  0  0  0  0  0  0  0  0  0
   56.5950   26.7450   46.0520 C   0  0  0  0  0  0  0  0  0  0  0  0
   55.3350   26.6740   46.0590 O   0  0  0  0  0  0  0  0  0  0  0  0
   57.2640   27.9560   45.5030 C   0  0  0  0  0  0  0  0  0  0  0  0
   58.6710   28.0480   45.5470 C   0  0  0  0  0  0  0  0  0  0  0  0
   59.3300   29.1710   45.0400 C   0  0  0  0  0  0  0  0  0  0  0  0
   58.5990   30.2190   44.4830 C   0  0  0  0  0  0  0  0  0  0  0  0
   57.2060   30.1490   44.4340 C   0  0  0  0  0  0  0  0  0  0  0  0
   56.5340   29.0300   44.9390 C   0  0  0  0  0  0  0  0  0  0  0  0
   55.1450   29.0090   44.8770 O   0  0  0  0  0  0  0  0  0  0  0  0
   55.2440   21.0110   50.3980 H   0  0  0  0  0  0  0  0  0  0  0  0
   55.5362   23.7655   48.0294 H   0  0  0  0  0  0  0  0  0  0  0  0
   57.1525   24.2752   48.6374 H   0  0  0  0  0  0  0  0  0  0  0  0
   57.7953   23.6770   46.0602 H   0  0  0  0  0  0  0  0  0  0  0  0
   56.0751   24.1874   45.8487 H   0  0  0  0  0  0  0  0  0  0  0  0
   59.2561   27.2262   45.9855 H   0  0  0  0  0  0  0  0  0  0  0  0
   60.4278   29.2281   45.0805 H   0  0  0  0  0  0  0  0  0  0  0  0
   59.1199   31.1010   44.0822 H   0  0  0  0  0  0  0  0  0  0  0  0
   56.6324   30.9789   43.9955 H   0  0  0  0  0  0  0  0  0  0  0  0
  1  2  1  0
  2  3  2  0
  2  4  1  0
  4  5  1  0
  5  6  1  0
  6  7  1  0
  7  8  1  0
  8  9  2  0
  8 10  1  0
 10 11  2  0
 11 12  1  0
 12 13  2  0
 13 14  1  0
 14 15  2  0
 15 16  1  0
 15 10  1  0
  1 17  1  0
  5 18  1  0
  5 19  1  0
  6 20  1  0
  6 21  1  0
 11 22  1  0
 12 23  1  0
 13 24  1  0
 14 25  1  0
M  CHG  4   1  -1   4  -1   7  -1  16  -1
M  END
>  <UniqueID>  (69) 
64

>  <SMILES>  (69) 
[NH-]C(=O)[N-]CC[N-]C(=O)c1ccccc1[O-]

>  <Energy>  (69) 
19.107820085649138

>  <Genealogy>  (69) 
[NH-]C(=O)[N-]CC[N-]C(=O)c1ccccc1[O-] (protonated)
[NH-]C(=O)[N-]CC[N-]C(=O)c1ccccc1[O-] (3D coordinates assigned)
[NH-]C(=O)[N-]CC[N-]C(=O)c1ccccc1[O-] (optimized conformer: 19.107820085649138 kcal/mol)

>  <smiles>  (69) 
NC(=O)NCCNC(=O)c1ccccc1O

>  <score_type>  (69) 
oracle

>  <origin>  (69) 
adg

>  <m_score__min__energy>  (69) 
-14.32

>  <m_primary>  (69) 
energy

$$$$
69:0
     RDKit          3D

 40 42  0  0  0  0  0  0  0  0999 V2000
   58.0890   27.0650   46.0890 O   0  0  0  0  0  0  0  0  0  0  0  0
   57.0090   27.6690   45.8560 C   0  0  0  0  0  0  0  0  0  0  0  0
   55.7800   26.9300   45.9180 N   0  0  0  0  0  0  0  0  0  0  0  0
   55.6000   25.5420   45.5960 C   0  0  0  0  0  0  0  0  0  0  0  0
   56.6900   24.8190   45.0920 C   0  0  0  0  0  0  0  0  0  0  0  0
   56.5530   23.4630   44.7780 C   0  0  0  0  0  0  0  0  0  0  0  0
   55.3240   22.8220   44.9570 C   0  0  0  0  0  0  0  0  0  0  0  0
   54.2230   23.5420   45.4330 C   0  0  0  0  0  0  0  0  0  0  0  0
   52.6760   22.7440   45.6410 Cl  0  0  0  0  0  0  0  0  0  0  0  0
   54.3550   24.9020   45.7380 C   0  0  0  0  0  0  0  0  0  0  0  0
   57.0390   29.1250   45.5680 C   0  0  0  0  0  0  0  0  0  0  0  0
   55.9890   29.7300   44.8720 C   0  0  0  0  0  0  0  0  0  0  0  0
   54.9090   28.9810   44.4150 O   0  0  0  0  0  0  0  0  0  0  0  0
   56.0060   31.0630   44.6540 N   0  0  0  0  0  0  0  0  0  0  0  0
   57.0180   31.8480   45.0990 C   0  0  0  0  0  0  0  0  0  0  0  0
   56.9600   33.0860   44.8650 O   0  0  0  0  0  0  0  0  0  0  0  0
   58.0810   31.3000   45.7830 N   0  0  0  0  0  0  0  0  0  0  0  0
   59.1820   32.1570   46.3080 C   0  0  0  0  0  0  0  0  0  0  0  0
   58.9120   32.6000   47.7630 C   0  0  0  0  0  0  0  0  0  0  0  0
   60.1140   33.3680   48.3510 C   0  0  0  0  0  0  0  0  0  0  0  0
   60.8780   34.2130   47.3090 C   0  0  0  0  0  0  0  0  0  0  0  0
   59.9940   34.6000   46.1180 C   0  0  0  0  0  0  0  0  0  0  0  0
   59.4900   33.3530   45.3650 C   0  0  0  0  0  0  0  0  0  0  0  0
   58.1070   29.9390   45.9940 C   0  0  0  0  0  0  0  0  0  0  0  0
   59.0970   29.3990   46.5610 O   0  0  0  0  0  0  0  0  0  0  0  0
   57.6576   25.3204   44.9428 H   0  0  0  0  0  0  0  0  0  0  0  0
   57.4143   22.8999   44.3894 H   0  0  0  0  0  0  0  0  0  0  0  0
   55.2225   21.7518   44.7237 H   0  0  0  0  0  0  0  0  0  0  0  0
   53.4825   25.4721   46.0898 H   0  0  0  0  0  0  0  0  0  0  0  0
   60.0942   31.5427   46.3298 H   0  0  0  0  0  0  0  0  0  0  0  0
   58.0272   33.2534   47.7796 H   0  0  0  0  0  0  0  0  0  0  0  0
   58.7448   31.7001   48.3730 H   0  0  0  0  0  0  0  0  0  0  0  0
   59.7450   34.0396   49.1402 H   0  0  0  0  0  0  0  0  0  0  0  0
   60.8191   32.6168   48.7363 H   0  0  0  0  0  0  0  0  0  0  0  0
   61.2406   35.1311   47.7943 H   0  0  0  0  0  0  0  0  0  0  0  0
   61.7123   33.6060   46.9276 H   0  0  0  0  0  0  0  0  0  0  0  0
   59.1284   35.1710   46.4850 H   0  0  0  0  0  0  0  0  0  0  0  0
   60.5940   35.2058   45.4231 H   0  0  0  0  0  0  0  0  0  0  0  0
   58.5699   33.6185   44.8238 H   0  0  0  0  0  0  0  0  0  0  0  0
   60.2914   33.0352   44.6818 H   0  0  0  0  0  0  0  0  0  0  0  0
  1  2  2  0
  2  3  1  0
  3  4  1  0
  4  5  2  0
  5  6  1  0
  6  7  2  0
  7  8  1  0
  8  9  1  0
  8 10  2  0
  2 11  1  0
 11 12  2  0
 12 13  1  0
 12 14  1  0
 14 15  1  0
 15 16  2  0
 15 17  1  0
 17 18  1  0
 18 19  1  0
 19 20  1  0
 20 21  1  0
 21 22  1  0
 22 23  1  0
 17 24  1  0
 24 25  2  0
 10  4  1  0
 24 11  1  0
 23 18  1  0
  5 26  1  0
  6 27  1  0
  7 28  1  0
 10 29  1  0
 18 30  1  0
 19 31  1  0
 19 32  1  0
 20 33  1  0
 20 34  1  0
 21 35  1  0
 21 36  1  0
 22 37  1  0
 22 38  1  0
 23 39  1  0
 23 40  1  0
M  CHG  3   3  -1  13  -1  14  -1
M  END
>  <UniqueID>  (70) 
65

>  <SMILES>  (70) 
O=C([N-]c1cccc(Cl)c1)c1c([O-])[n-]c(=O)n(C2CCCCC2)c1=O

>  <Energy>  (70) 
60.99076380898838

>  <Genealogy>  (70) 
O=C([N-]c1cccc(Cl)c1)c1c([O-])[n-]c(=O)n(C2CCCCC2)c1=O (protonated)
O=C([N-]c1cccc(Cl)c1)c1c([O-])[n-]c(=O)n(C2CCCCC2)c1=O (3D coordinates assigned)
O=C([N-]c1cccc(Cl)c1)c1c([O-])[n-]c(=O)n(C2CCCCC2)c1=O (nonaromatic ring conformer: 60.99076380898838 kcal/mol)

>  <smiles>  (70) 
O=C(Nc1cccc(Cl)c1)c1c(O)[nH]c(=O)n(C2CCCCC2)c1=O

>  <score_type>  (70) 
oracle

>  <origin>  (70) 
adg

>  <m_score__min__energy>  (70) 
-13.99

>  <m_primary>  (70) 
energy

$$$$
70:0
     RDKit          3D

 75 78  0  0  0  0  0  0  0  0999 V2000
   69.1800   34.6320   50.1010 C   0  0  0  0  0  0  0  0  0  0  0  0
   68.2450   33.6710   50.7650 C   0  0  0  0  0  0  0  0  0  0  0  0
   68.3900   33.3680   52.1230 C   0  0  0  0  0  0  0  0  0  0  0  0
   67.5080   32.4720   52.7240 C   0  0  0  0  0  0  0  0  0  0  0  0
   66.4900   31.8730   51.9700 C   0  0  0  0  0  0  0  0  0  0  0  0
   65.5680   30.9710   52.6080 N   0  0  0  0  0  0  0  0  0  0  0  0
   64.2300   30.7070   52.1500 C   0  0  0  0  0  0  0  0  0  0  0  0
   63.8040   29.3810   52.0130 C   0  0  0  0  0  0  0  0  0  0  0  0
   62.5190   29.0930   51.5560 C   0  0  0  0  0  0  0  0  0  0  0  0
   61.6340   30.1270   51.2030 C   0  0  0  0  0  0  0  0  0  0  0  0
   60.2460   29.7530   50.7260 C   0  0  0  0  0  0  0  0  0  0  0  0
   60.1310   28.2740   50.3160 C   0  0  0  0  0  0  0  0  0  0  0  0
   61.1440   27.8860   49.3220 N   0  0  0  0  0  0  0  0  0  0  0  0
   60.5860   27.6130   47.9810 C   0  0  0  0  0  0  0  0  0  0  0  0
   60.3950   28.8750   47.1090 C   0  0  2  0  0  0  0  0  0  0  0  0
   60.6030   30.0450   47.8630 O   0  0  0  0  0  0  0  0  0  0  0  0
   59.0350   28.8910   46.4410 C   0  0  0  0  0  0  0  0  0  0  0  0
   58.4410   30.0930   46.0110 C   0  0  0  0  0  0  0  0  0  0  0  0
   57.1640   30.0850   45.4430 C   0  0  0  0  0  0  0  0  0  0  0  0
   56.4590   28.8840   45.3060 C   0  0  0  0  0  0  0  0  0  0  0  0
   55.1780   28.9040   44.7620 O   0  0  0  0  0  0  0  0  0  0  0  0
   57.0390   27.6720   45.7260 C   0  0  0  0  0  0  0  0  0  0  0  0
   56.2710   26.3790   45.6560 C   0  0  0  0  0  0  0  0  0  0  0  0
   55.0680   26.5220   46.3630 O   0  0  0  0  0  0  0  0  0  0  0  0
   58.3220   27.6880   46.3030 C   0  0  0  0  0  0  0  0  0  0  0  0
   62.0780   31.4730   51.2680 C   0  0  0  0  0  0  0  0  0  0  0  0
   61.2190   32.5570   50.8650 N   0  0  0  0  0  0  0  0  0  0  0  0
   60.9520   32.8710   49.4870 C   0  0  0  0  0  0  0  0  0  0  0  0
   61.4030   32.1370   48.5670 O   0  0  0  0  0  0  0  0  0  0  0  0
   60.1640   34.1040   49.1330 C   0  0  0  0  0  0  0  0  0  0  0  0
   60.4500   34.6050   47.7040 C   0  0  0  0  0  0  0  0  0  0  0  0
   59.3890   34.1720   46.7220 C   0  0  0  0  0  0  0  0  0  0  0  0
   59.6430   34.1950   45.3400 C   0  0  0  0  0  0  0  0  0  0  0  0
   58.6390   33.8390   44.4340 C   0  0  0  0  0  0  0  0  0  0  0  0
   57.3820   33.4420   44.8980 C   0  0  0  0  0  0  0  0  0  0  0  0
   57.1270   33.4030   46.2720 C   0  0  0  0  0  0  0  0  0  0  0  0
   58.1270   33.7620   47.1810 C   0  0  0  0  0  0  0  0  0  0  0  0
   63.3700   31.7460   51.7600 C   0  0  0  0  0  0  0  0  0  0  0  0
   66.3540   32.2350   50.6180 C   0  0  0  0  0  0  0  0  0  0  0  0
   67.2280   33.1110   50.0540 N   0  0  0  0  0  0  0  0  0  0  0  0
   69.7301   35.1974   50.8677 H   0  0  0  0  0  0  0  0  0  0  0  0
   69.8924   34.0763   49.4736 H   0  0  0  0  0  0  0  0  0  0  0  0
   68.6049   35.3289   49.4736 H   0  0  0  0  0  0  0  0  0  0  0  0
   69.1941   33.8335   52.7119 H   0  0  0  0  0  0  0  0  0  0  0  0
   67.6112   32.2343   53.7930 H   0  0  0  0  0  0  0  0  0  0  0  0
   65.8880   30.4810   53.4720 H   0  0  0  0  0  0  0  0  0  0  0  0
   64.4890   28.5590   52.2681 H   0  0  0  0  0  0  0  0  0  0  0  0
   62.1939   28.0456   51.4706 H   0  0  0  0  0  0  0  0  0  0  0  0
   59.5312   29.9483   51.5389 H   0  0  0  0  0  0  0  0  0  0  0  0
   60.0289   30.3601   49.8348 H   0  0  0  0  0  0  0  0  0  0  0  0
   60.2577   27.6484   51.2119 H   0  0  0  0  0  0  0  0  0  0  0  0
   59.1409   28.1291   49.8592 H   0  0  0  0  0  0  0  0  0  0  0  0
   61.8680   28.6370   49.2760 H   0  0  0  0  0  0  0  0  0  0  0  0
   61.2689   26.9296   47.4551 H   0  0  0  0  0  0  0  0  0  0  0  0
   59.5870   27.1792   48.1350 H   0  0  0  0  0  0  0  0  0  0  0  0
   61.1524   28.8442   46.3119 H   0  0  0  0  0  0  0  0  0  0  0  0
   61.3880   29.8770   48.4460 H   0  0  0  0  0  0  0  0  0  0  0  0
   58.9845   31.0428   46.1226 H   0  0  0  0  0  0  0  0  0  0  0  0
   56.7109   31.0275   45.1019 H   0  0  0  0  0  0  0  0  0  0  0  0
   56.0543   26.1355   44.6054 H   0  0  0  0  0  0  0  0  0  0  0  0
   56.8679   25.5684   46.0995 H   0  0  0  0  0  0  0  0  0  0  0  0
   54.7990   27.4740   46.2710 H   0  0  0  0  0  0  0  0  0  0  0  0
   58.7728   26.7467   46.6506 H   0  0  0  0  0  0  0  0  0  0  0  0
   60.6800   33.0700   51.5930 H   0  0  0  0  0  0  0  0  0  0  0  0
   59.0920   33.8720   49.2162 H   0  0  0  0  0  0  0  0  0  0  0  0
   60.4642   34.9005   49.8297 H   0  0  0  0  0  0  0  0  0  0  0  0
   60.4930   35.7041   47.7165 H   0  0  0  0  0  0  0  0  0  0  0  0
   61.4065   34.1691   47.3798 H   0  0  0  0  0  0  0  0  0  0  0  0
   60.6347   34.4940   44.9697 H   0  0  0  0  0  0  0  0  0  0  0  0
   58.8393   33.8716   43.3529 H   0  0  0  0  0  0  0  0  0  0  0  0
   56.5945   33.1607   44.1833 H   0  0  0  0  0  0  0  0  0  0  0  0
   56.1384   33.0895   46.6385 H   0  0  0  0  0  0  0  0  0  0  0  0
   57.9239   33.7230   48.2614 H   0  0  0  0  0  0  0  0  0  0  0  0
   63.7099   32.7891   51.8397 H   0  0  0  0  0  0  0  0  0  0  0  0
   65.5387   31.8086   50.0152 H   0  0  0  0  0  0  0  0  0  0  0  0
  1  2  1  0
  2  3  2  0
  3  4  1  0
  4  5  2  0
  5  6  1  0
  6  7  1  0
  7  8  2  0
  8  9  1  0
  9 10  2  0
 10 11  1  0
 11 12  1  0
 12 13  1  0
 13 14  1  0
 14 15  1  0
 15 16  1  0
 15 17  1  0
 17 18  2  0
 18 19  1  0
 19 20  2  0
 20 21  1  0
 20 22  1  0
 22 23  1  0
 23 24  1  0
 22 25  2  0
 10 26  1  0
 26 27  1  0
 27 28  1  0
 28 29  2  0
 28 30  1  0
 30 31  1  0
 31 32  1  0
 32 33  2  0
 33 34  1  0
 34 35  2  0
 35 36  1  0
 36 37  2  0
 26 38  2  0
  5 39  1  0
 39 40  2  0
 40  2  1  0
 38  7  1  0
 25 17  1  0
 37 32  1  0
  1 41  1  0
  1 42  1  0
  1 43  1  0
  3 44  1  0
  4 45  1  0
  6 46  1  0
  8 47  1  0
  9 48  1  0
 11 49  1  0
 11 50  1  0
 12 51  1  0
 12 52  1  0
 13 53  1  0
 14 54  1  0
 14 55  1  0
 15 56  1  6
 16 57  1  0
 18 58  1  0
 19 59  1  0
 23 60  1  0
 23 61  1  0
 24 62  1  0
 25 63  1  0
 27 64  1  0
 30 65  1  0
 30 66  1  0
 31 67  1  0
 31 68  1  0
 33 69  1  0
 34 70  1  0
 35 71  1  0
 36 72  1  0
 37 73  1  0
 38 74  1  0
 39 75  1  0
M  CHG  1  21  -1
M  END
>  <UniqueID>  (71) 
66

>  <SMILES>  (71) 
Cc1ccc(Nc2ccc(CCNC[C@H](O)c3ccc([O-])c(CO)c3)c(NC(=O)CCc3ccccc3)c2)cn1

>  <Energy>  (71) 
86.61244187787307

>  <Genealogy>  (71) 
Cc1ccc(Nc2ccc(CCNCC(O)c3ccc([O-])c(CO)c3)c(NC(=O)CCc3ccccc3)c2)cn1 (protonated)
Cc1ccc(Nc2ccc(CCNC[C@H](O)c3ccc([O-])c(CO)c3)c(NC(=O)CCc3ccccc3)c2)cn1 (chirality)
Cc1ccc(Nc2ccc(CCNC[C@H](O)c3ccc([O-])c(CO)c3)c(NC(=O)CCc3ccccc3)c2)cn1 (3D coordinates assigned)
Cc1ccc(Nc2ccc(CCNC[C@H](O)c3ccc([O-])c(CO)c3)c(NC(=O)CCc3ccccc3)c2)cn1 (optimized conformer: 86.61244187787307 kcal/mol)

>  <smiles>  (71) 
Cc1ccc(Nc2ccc(CCNCC(O)c3ccc(O)c(CO)c3)c(NC(=O)CCc3ccccc3)c2)cn1

>  <score_type>  (71) 
oracle

>  <origin>  (71) 
adg

>  <m_score__min__energy>  (71) 
-13.44

>  <m_primary>  (71) 
energy

$$$$
71:0
     RDKit          3D

 44 46  0  0  0  0  0  0  0  0999 V2000
   55.1900   29.7730   43.2350 O   0  0  0  0  0  0  0  0  0  0  0  0
   56.1790   29.7930   44.0160 C   0  0  0  0  0  0  0  0  0  0  0  0
   57.3790   30.6420   43.6710 C   0  0  0  0  0  0  0  0  0  0  0  0
   57.7480   31.5780   44.7930 C   0  0  0  0  0  0  0  0  0  0  0  0
   57.7430   32.9670   44.5910 C   0  0  0  0  0  0  0  0  0  0  0  0
   58.1150   33.8330   45.6230 C   0  0  0  0  0  0  0  0  0  0  0  0
   58.4980   33.3200   46.8760 C   0  0  0  0  0  0  0  0  0  0  0  0
   58.8900   34.1490   47.9370 O   0  0  0  0  0  0  0  0  0  0  0  0
   59.9460   33.8890   48.8230 C   0  0  0  0  0  0  0  0  0  0  0  0
   59.7390   33.8430   50.0690 O   0  0  0  0  0  0  0  0  0  0  0  0
   61.2590   33.6130   48.2940 N   0  0  0  0  0  0  0  0  0  0  0  0
   61.4070   34.1850   46.9420 C   0  0  0  0  0  0  0  0  0  0  0  0
   62.8050   33.8660   46.3650 C   0  0  0  0  0  0  0  0  0  0  0  0
   63.5440   32.9830   47.1920 O   0  0  0  0  0  0  0  0  0  0  0  0
   62.7800   31.8230   47.4540 C   0  0  0  0  0  0  0  0  0  0  0  0
   61.5230   32.1600   48.2850 C   0  0  0  0  0  0  0  0  0  0  0  0
   58.5340   31.9330   47.0650 C   0  0  0  0  0  0  0  0  0  0  0  0
   58.1610   31.0670   46.0340 C   0  0  0  0  0  0  0  0  0  0  0  0
   56.1180   28.9930   45.2090 N   0  0  0  0  0  0  0  0  0  0  0  0
   56.8360   27.9490   45.5160 C   0  0  0  0  0  0  0  0  0  0  0  0
   58.1990   27.9870   45.4700 N   0  0  0  0  0  0  0  0  0  0  0  0
   58.9630   26.9140   45.8060 C   0  0  0  0  0  0  0  0  0  0  0  0
   58.3580   25.7270   46.2210 C   0  0  0  0  0  0  0  0  0  0  0  0
   56.9650   25.6600   46.2880 C   0  0  0  0  0  0  0  0  0  0  0  0
   56.1960   26.7730   45.9380 C   0  0  0  0  0  0  0  0  0  0  0  0
   54.8080   26.7060   46.0110 O   0  0  0  0  0  0  0  0  0  0  0  0
   58.2338   29.9815   43.4635 H   0  0  0  0  0  0  0  0  0  0  0  0
   57.1240   31.2500   42.7905 H   0  0  0  0  0  0  0  0  0  0  0  0
   57.4445   33.3764   43.6146 H   0  0  0  0  0  0  0  0  0  0  0  0
   58.1083   34.9201   45.4550 H   0  0  0  0  0  0  0  0  0  0  0  0
   61.9600   34.0730   48.9240 H   0  0  0  0  0  0  0  0  0  0  0  0
   60.6377   33.7570   46.2825 H   0  0  0  0  0  0  0  0  0  0  0  0
   61.2906   35.2770   47.0048 H   0  0  0  0  0  0  0  0  0  0  0  0
   62.6809   33.4020   45.3754 H   0  0  0  0  0  0  0  0  0  0  0  0
   63.3642   34.8111   46.3007 H   0  0  0  0  0  0  0  0  0  0  0  0
   62.4694   31.3743   46.4989 H   0  0  0  0  0  0  0  0  0  0  0  0
   63.4000   31.1193   48.0288 H   0  0  0  0  0  0  0  0  0  0  0  0
   60.6562   31.6411   47.8499 H   0  0  0  0  0  0  0  0  0  0  0  0
   61.6936   31.8318   49.3210 H   0  0  0  0  0  0  0  0  0  0  0  0
   58.8584   31.5222   48.0325 H   0  0  0  0  0  0  0  0  0  0  0  0
   58.1910   29.9793   46.1953 H   0  0  0  0  0  0  0  0  0  0  0  0
   60.0595   26.9815   45.7507 H   0  0  0  0  0  0  0  0  0  0  0  0
   58.9710   24.8548   46.4920 H   0  0  0  0  0  0  0  0  0  0  0  0
   56.4735   24.7322   46.6159 H   0  0  0  0  0  0  0  0  0  0  0  0
  1  2  2  0
  2  3  1  0
  3  4  1  0
  4  5  2  0
  5  6  1  0
  6  7  2  0
  7  8  1  0
  8  9  1  0
  9 10  2  0
  9 11  1  0
 11 12  1  0
 12 13  1  0
 13 14  1  0
 14 15  1  0
 15 16  1  0
  7 17  1  0
 17 18  2  0
  2 19  1  0
 19 20  2  3
 20 21  1  0
 21 22  1  0
 22 23  2  0
 23 24  1  0
 24 25  2  0
 25 26  1  0
 18  4  1  0
 25 20  1  0
 16 11  1  0
  3 27  1  0
  3 28  1  0
  5 29  1  0
  6 30  1  0
 11 31  1  0
 12 32  1  0
 12 33  1  0
 13 34  1  0
 13 35  1  0
 15 36  1  0
 15 37  1  0
 16 38  1  0
 16 39  1  0
 17 40  1  0
 18 41  1  0
 22 42  1  0
 23 43  1  0
 24 44  1  0
M  CHG  3  11   1  21  -1  26  -1
M  END
>  <UniqueID>  (72) 
67

>  <SMILES>  (72) 
O=C(Cc1ccc(OC(=O)[NH+]2CCOCC2)cc1)N=c1[n-]cccc1[O-]

>  <Energy>  (72) 
66.38872421467958

>  <Genealogy>  (72) 
O=C(Cc1ccc(OC(=O)[NH+]2CCOCC2)cc1)N=c1[n-]cccc1[O-] (protonated)
O=C(Cc1ccc(OC(=O)[NH+]2CCOCC2)cc1)N=c1[n-]cccc1[O-] (3D coordinates assigned)
O=C(Cc1ccc(OC(=O)[NH+]2CCOCC2)cc1)N=c1[n-]cccc1[O-] (nonaromatic ring conformer: 66.38872421467958 kcal/mol)

>  <smiles>  (72) 
O=C(Cc1ccc(OC(=O)N2CCOCC2)cc1)N=c1[nH]cccc1O

>  <score_type>  (72) 
oracle

>  <origin>  (72) 
adg

>  <m_score__min__energy>  (72) 
-12.619999999999999

>  <m_primary>  (72) 
energy

$$$$
72:0
     RDKit          3D

 38 40  0  0  0  0  0  0  0  0999 V2000
   59.7801   25.9133   48.0334 H   0  0  0  0  0  0  0  0  0  0  0  0
   59.6390   26.6610   47.2390 C   0  0  0  0  0  0  0  0  0  0  0  0
   60.4723   27.3168   46.9466 H   0  0  0  0  0  0  0  0  0  0  0  0
   58.4510   26.7730   46.6270 C   0  0  0  0  0  0  0  0  0  0  0  0
   58.1070   27.6640   45.6060 C   0  0  0  0  0  0  0  0  0  0  0  0
   58.9060   28.5760   45.0200 C   0  0  0  0  0  0  0  0  0  0  0  0
   59.1279   28.4641   43.9484 H   0  0  0  0  0  0  0  0  0  0  0  0
   59.5000   29.7200   45.7440 C   0  0  0  0  0  0  0  0  0  0  0  0
   60.8280   29.6210   46.1850 C   0  0  0  0  0  0  0  0  0  0  0  0
   61.4060   28.7085   45.9768 H   0  0  0  0  0  0  0  0  0  0  0  0
   61.4210   30.6720   46.8860 C   0  0  0  0  0  0  0  0  0  0  0  0
   62.4664   30.5910   47.2185 H   0  0  0  0  0  0  0  0  0  0  0  0
   60.6870   31.8260   47.1650 C   0  0  0  0  0  0  0  0  0  0  0  0
   61.1589   32.6583   47.7078 H   0  0  0  0  0  0  0  0  0  0  0  0
   59.3550   31.9270   46.7570 C   0  0  0  0  0  0  0  0  0  0  0  0
   58.7816   32.8380   46.9834 H   0  0  0  0  0  0  0  0  0  0  0  0
   58.7410   30.8690   46.0570 C   0  0  0  0  0  0  0  0  0  0  0  0
   57.3890   30.9160   45.6700 O   0  0  0  0  0  0  0  0  0  0  0  0
   56.9120   31.0380   44.3300 C   0  0  0  0  0  0  0  0  0  0  0  0
   56.3168   31.9588   44.2413 H   0  0  0  0  0  0  0  0  0  0  0  0
   57.7757   31.0740   43.6498 H   0  0  0  0  0  0  0  0  0  0  0  0
   56.0600   29.8660   43.9620 C   0  0  0  0  0  0  0  0  0  0  0  0
   56.1580   29.3460   42.8190 O   0  0  0  0  0  0  0  0  0  0  0  0
   55.1370   29.3630   44.8710 O   0  0  0  0  0  0  0  0  0  0  0  0
   56.8230   27.4310   45.2530 N   0  0  0  0  0  0  0  0  0  0  0  0
   56.2650   27.8880   44.4970 H   0  0  0  0  0  0  0  0  0  0  0  0
   56.4130   26.4300   46.0510 C   0  0  0  0  0  0  0  0  0  0  0  0
   55.2580   25.9290   45.9860 O   0  0  0  0  0  0  0  0  0  0  0  0
   57.3640   26.0110   46.9100 N   0  0  0  0  0  0  0  0  0  0  0  0
   57.2480   24.9000   47.8600 C   0  0  0  0  0  0  0  0  0  0  0  0
   58.0343   24.9902   48.6240 H   0  0  0  0  0  0  0  0  0  0  0  0
   56.2580   24.9352   48.3382 H   0  0  0  0  0  0  0  0  0  0  0  0
   57.4010   23.5990   47.1440 C   0  0  0  0  0  0  0  0  0  0  0  0
   57.3580   22.3940   47.7470 N   0  0  0  0  0  0  0  0  0  0  0  0
   57.5000   21.4930   46.7870 N   0  0  0  0  0  0  0  0  0  0  0  0
   57.6170   22.1870   45.6410 C   0  0  0  0  0  0  0  0  0  0  0  0
   57.8080   21.4990   44.1730 S   0  0  0  0  0  0  0  0  0  0  0  0
   57.5560   23.4800   45.8460 O   0  0  0  0  0  0  0  0  0  0  0  0
  1  2  1  0
  2  3  1  0
  2  4  2  0
  4  5  1  0
  5  6  2  0
  6  7  1  0
  6  8  1  0
  8  9  2  0
  9 10  1  0
  9 11  1  0
 11 12  1  0
 11 13  2  0
 13 14  1  0
 13 15  1  0
 15 16  1  0
 15 17  2  0
 17 18  1  0
 18 19  1  0
 19 20  1  0
 19 21  1  0
 19 22  1  0
 22 23  2  0
 22 24  1  0
  5 25  1  0
 25 26  1  0
 25 27  1  0
 27 28  2  0
 27 29  1  0
 29 30  1  0
 30 31  1  0
 30 32  1  0
 30 33  1  0
 33 34  2  0
 34 35  1  0
 35 36  1  0
 36 37  2  0
 36 38  1  0
 29  4  1  0
 38 33  1  0
 17  8  1  0
M  CHG  2  24  -1  35  -1
M  END
>  <UniqueID>  (73) 
68

>  <SMILES>  (73) 
C=c1/c(=C/c2ccccc2OCC(=O)[O-])[nH]c(=O)n1Cc1n[n-]c(=S)o1

>  <Energy>  (73) 
115.36628253731668

>  <Genealogy>  (73) 
C=c1c(=Cc2ccccc2OCC(=O)[O-])[nH]c(=O)n1Cc1n[n-]c(=S)o1 (protonated)
C=c1/c(=C/c2ccccc2OCC(=O)[O-])[nH]c(=O)n1Cc1n[n-]c(=S)o1 (cis-trans isomerization)
C=c1/c(=C/c2ccccc2OCC(=O)[O-])[nH]c(=O)n1Cc1n[n-]c(=S)o1 (3D coordinates assigned)
C=c1/c(=C/c2ccccc2OCC(=O)[O-])[nH]c(=O)n1Cc1n[n-]c(=S)o1 (optimized conformer: 115.36628253731668 kcal/mol)

>  <smiles>  (73) 
C=c1c(=Cc2ccccc2OCC(=O)O)[nH]c(=O)n1Cc1n[nH]c(=S)o1

>  <score_type>  (73) 
oracle

>  <origin>  (73) 
adg

>  <m_score__min__energy>  (73) 
-13.07

>  <m_primary>  (73) 
energy

$$$$
73:0
     RDKit          3D

 46 48  0  0  0  0  0  0  0  0999 V2000
   64.5740   32.8720   50.6640 C   0  0  0  0  0  0  0  0  0  0  0  0
   63.3630   33.1630   49.8240 C   0  0  0  0  0  0  0  0  0  0  0  0
   62.1170   33.3360   50.4280 C   0  0  0  0  0  0  0  0  0  0  0  0
   60.9820   33.6520   49.6640 C   0  0  0  0  0  0  0  0  0  0  0  0
   59.6770   33.8450   50.3950 C   0  0  0  0  0  0  0  0  0  0  0  0
   61.0900   33.7690   48.2490 C   0  0  0  0  0  0  0  0  0  0  0  0
   59.6430   34.1510   47.2690 S   0  0  0  0  0  0  0  0  0  0  0  0
   58.3800   33.6270   47.8920 O   0  0  0  0  0  0  0  0  0  0  0  0
   59.4820   35.6390   47.1330 O   0  0  0  0  0  0  0  0  0  0  0  0
   59.8390   33.4590   45.6960 N   0  0  0  0  0  0  0  0  0  0  0  0
   58.9320   32.4580   45.2320 C   0  0  0  0  0  0  0  0  0  0  0  0
   58.0570   32.7680   44.1870 C   0  0  0  0  0  0  0  0  0  0  0  0
   57.1150   31.8370   43.7530 C   0  0  0  0  0  0  0  0  0  0  0  0
   57.0310   30.5850   44.3650 C   0  0  0  0  0  0  0  0  0  0  0  0
   57.9000   30.2440   45.4190 C   0  0  0  0  0  0  0  0  0  0  0  0
   57.8080   28.9870   46.0620 C   0  0  0  0  0  0  0  0  0  0  0  0
   56.8360   28.0250   45.6150 N   0  0  0  0  0  0  0  0  0  0  0  0
   56.9150   26.6010   45.7600 C   0  0  0  0  0  0  0  0  0  0  0  0
   57.9940   25.9900   45.5410 O   0  0  0  0  0  0  0  0  0  0  0  0
   55.7410   25.8520   46.2210 C   0  0  0  0  0  0  0  0  0  0  0  0
   55.8840   24.7650   46.8380 O   0  0  0  0  0  0  0  0  0  0  0  0
   54.4630   26.3410   45.9790 O   0  0  0  0  0  0  0  0  0  0  0  0
   58.7080   28.6740   47.0940 C   0  0  0  0  0  0  0  0  0  0  0  0
   59.6630   29.6000   47.5090 C   0  0  0  0  0  0  0  0  0  0  0  0
   59.7480   30.8480   46.8950 C   0  0  0  0  0  0  0  0  0  0  0  0
   58.8720   31.1890   45.8500 C   0  0  0  0  0  0  0  0  0  0  0  0
   62.3780   33.6590   47.6510 C   0  0  0  0  0  0  0  0  0  0  0  0
   62.6090   33.8510   46.1740 C   0  0  0  0  0  0  0  0  0  0  0  0
   63.4910   33.3460   48.4470 C   0  0  0  0  0  0  0  0  0  0  0  0
   64.3057   32.9365   51.7288 H   0  0  0  0  0  0  0  0  0  0  0  0
   64.9417   31.8599   50.4391 H   0  0  0  0  0  0  0  0  0  0  0  0
   65.3613   33.6065   50.4391 H   0  0  0  0  0  0  0  0  0  0  0  0
   62.0226   33.2232   51.5181 H   0  0  0  0  0  0  0  0  0  0  0  0
   59.8570   33.8184   51.4798 H   0  0  0  0  0  0  0  0  0  0  0  0
   59.2425   34.8172   50.1192 H   0  0  0  0  0  0  0  0  0  0  0  0
   58.9797   33.0402   50.1192 H   0  0  0  0  0  0  0  0  0  0  0  0
   58.1123   33.7544   43.7034 H   0  0  0  0  0  0  0  0  0  0  0  0
   56.4355   32.0895   42.9256 H   0  0  0  0  0  0  0  0  0  0  0  0
   56.2797   29.8590   44.0209 H   0  0  0  0  0  0  0  0  0  0  0  0
   58.6584   27.6881   47.5794 H   0  0  0  0  0  0  0  0  0  0  0  0
   60.3538   29.3443   48.3260 H   0  0  0  0  0  0  0  0  0  0  0  0
   60.5059   31.5713   47.2304 H   0  0  0  0  0  0  0  0  0  0  0  0
   63.4468   34.5473   46.0214 H   0  0  0  0  0  0  0  0  0  0  0  0
   62.8485   32.8822   45.7113 H   0  0  0  0  0  0  0  0  0  0  0  0
   61.7003   34.2636   45.7113 H   0  0  0  0  0  0  0  0  0  0  0  0
   64.4804   33.2433   47.9773 H   0  0  0  0  0  0  0  0  0  0  0  0
  1  2  1  0
  2  3  2  0
  3  4  1  0
  4  5  1  0
  4  6  2  0
  6  7  1  0
  7  8  2  0
  7  9  2  0
  7 10  1  0
 10 11  1  0
 11 12  2  0
 12 13  1  0
 13 14  2  0
 14 15  1  0
 15 16  2  0
 16 17  1  0
 17 18  1  0
 18 19  2  0
 18 20  1  0
 20 21  2  0
 20 22  1  0
 16 23  1  0
 23 24  2  0
 24 25  1  0
 25 26  2  0
  6 27  1  0
 27 28  1  0
 27 29  2  0
 29  2  1  0
 26 11  1  0
 26 15  1  0
  1 30  1  0
  1 31  1  0
  1 32  1  0
  3 33  1  0
  5 34  1  0
  5 35  1  0
  5 36  1  0
 12 37  1  0
 13 38  1  0
 14 39  1  0
 23 40  1  0
 24 41  1  0
 25 42  1  0
 28 43  1  0
 28 44  1  0
 28 45  1  0
 29 46  1  0
M  CHG  3  10  -1  17  -1  22  -1
M  END
>  <UniqueID>  (74) 
69

>  <SMILES>  (74) 
Cc1cc(C)c(S(=O)(=O)[N-]c2cccc3c([N-]C(=O)C(=O)[O-])cccc23)c(C)c1

>  <Energy>  (74) 
67.63532691896373

>  <Genealogy>  (74) 
Cc1cc(C)c(S(=O)(=O)[N-]c2cccc3c([N-]C(=O)C(=O)[O-])cccc23)c(C)c1 (protonated)
Cc1cc(C)c(S(=O)(=O)[N-]c2cccc3c([N-]C(=O)C(=O)[O-])cccc23)c(C)c1 (3D coordinates assigned)
Cc1cc(C)c(S(=O)(=O)[N-]c2cccc3c([N-]C(=O)C(=O)[O-])cccc23)c(C)c1 (optimized conformer: 67.63532691896373 kcal/mol)

>  <smiles>  (74) 
Cc1cc(C)c(S(=O)(=O)Nc2cccc3c(NC(=O)C(=O)O)cccc23)c(C)c1

>  <score_type>  (74) 
oracle

>  <origin>  (74) 
adg

>  <m_score__min__energy>  (74) 
-14.199999999999999

>  <m_primary>  (74) 
energy

$$$$
74:0
     RDKit          3D

 44 46  0  0  0  0  0  0  0  0999 V2000
   57.6920   32.1940   41.6370 O   0  0  0  0  0  0  0  0  0  0  0  0
   57.3710   31.5890   42.7000 C   0  0  0  0  0  0  0  0  0  0  0  0
   56.6850   30.2610   42.6070 C   0  0  0  0  0  0  0  0  0  0  0  0
   55.5230   30.0740   44.0100 S   0  0  0  0  0  0  0  0  0  0  0  0
   56.6460   29.1230   45.0360 C   0  0  0  0  0  0  0  0  0  0  0  0
   57.8920   29.5240   45.3460 N   0  0  0  0  0  0  0  0  0  0  0  0
   58.4040   28.5790   46.1180 N   0  0  0  0  0  0  0  0  0  0  0  0
   57.4490   27.6380   46.2410 C   0  0  0  0  0  0  0  0  0  0  0  0
   57.6260   26.3540   46.9890 C   0  0  0  0  0  0  0  0  0  0  0  0
   56.3460   25.6590   47.0940 N   0  0  0  0  0  0  0  0  0  0  0  0
   55.6180   25.1810   45.9580 C   0  0  0  0  0  0  0  0  0  0  0  0
   54.5280   25.7240   45.6390 O   0  0  0  0  0  0  0  0  0  0  0  0
   56.1510   24.0700   45.1400 C   0  0  0  0  0  0  0  0  0  0  0  0
   55.8200   23.9900   43.7750 C   0  0  0  0  0  0  0  0  0  0  0  0
   56.2990   22.9390   42.9900 C   0  0  0  0  0  0  0  0  0  0  0  0
   57.1260   21.9650   43.5510 C   0  0  0  0  0  0  0  0  0  0  0  0
   57.4700   22.0350   44.9020 C   0  0  0  0  0  0  0  0  0  0  0  0
   56.9820   23.0780   45.6990 C   0  0  0  0  0  0  0  0  0  0  0  0
   57.2960   23.0940   47.0180 F   0  0  0  0  0  0  0  0  0  0  0  0
   56.3650   27.9640   45.5770 O   0  0  0  0  0  0  0  0  0  0  0  0
   57.6990   32.1440   43.9770 N   0  0  0  0  0  0  0  0  0  0  0  0
   58.4770   33.3740   44.1110 C   0  0  0  0  0  0  0  0  0  0  0  0
   58.7850   33.6480   45.5610 C   0  0  0  0  0  0  0  0  0  0  0  0
   59.6190   34.7240   45.9230 C   0  0  0  0  0  0  0  0  0  0  0  0
   59.9120   34.9630   47.2710 C   0  0  0  0  0  0  0  0  0  0  0  0
   59.3990   34.1190   48.2600 C   0  0  0  0  0  0  0  0  0  0  0  0
   58.5860   33.0340   47.9050 C   0  0  0  0  0  0  0  0  0  0  0  0
   58.2850   32.7950   46.5590 C   0  0  0  0  0  0  0  0  0  0  0  0
   56.1288   30.2012   41.6599 H   0  0  0  0  0  0  0  0  0  0  0  0
   57.4354   29.4575   42.6431 H   0  0  0  0  0  0  0  0  0  0  0  0
   58.3445   25.7160   46.4534 H   0  0  0  0  0  0  0  0  0  0  0  0
   58.0032   26.5725   47.9989 H   0  0  0  0  0  0  0  0  0  0  0  0
   55.1791   24.7611   43.3226 H   0  0  0  0  0  0  0  0  0  0  0  0
   56.0237   22.8788   41.9267 H   0  0  0  0  0  0  0  0  0  0  0  0
   57.5069   21.1419   42.9285 H   0  0  0  0  0  0  0  0  0  0  0  0
   58.1259   21.2692   45.3416 H   0  0  0  0  0  0  0  0  0  0  0  0
   57.4770   31.5880   44.8340 H   0  0  0  0  0  0  0  0  0  0  0  0
   59.4198   33.2686   43.5542 H   0  0  0  0  0  0  0  0  0  0  0  0
   57.8901   34.2122   43.7072 H   0  0  0  0  0  0  0  0  0  0  0  0
   60.0408   35.3776   45.1452 H   0  0  0  0  0  0  0  0  0  0  0  0
   60.5468   35.8162   47.5522 H   0  0  0  0  0  0  0  0  0  0  0  0
   59.6336   34.3066   49.3182 H   0  0  0  0  0  0  0  0  0  0  0  0
   58.1842   32.3699   48.6845 H   0  0  0  0  0  0  0  0  0  0  0  0
   57.6551   31.9368   46.2819 H   0  0  0  0  0  0  0  0  0  0  0  0
  1  2  2  0
  2  3  1  0
  3  4  1  0
  4  5  1  0
  5  6  2  0
  6  7  1  0
  7  8  2  0
  8  9  1  0
  9 10  1  0
 10 11  1  0
 11 12  2  0
 11 13  1  0
 13 14  2  0
 14 15  1  0
 15 16  2  0
 16 17  1  0
 17 18  2  0
 18 19  1  0
  8 20  1  0
  2 21  1  0
 21 22  1  0
 22 23  1  0
 23 24  2  0
 24 25  1  0
 25 26  2  0
 26 27  1  0
 27 28  2  0
 20  5  1  0
 28 23  1  0
 18 13  1  0
  3 29  1  0
  3 30  1  0
  9 31  1  0
  9 32  1  0
 14 33  1  0
 15 34  1  0
 16 35  1  0
 17 36  1  0
 21 37  1  0
 22 38  1  0
 22 39  1  0
 24 40  1  0
 25 41  1  0
 26 42  1  0
 27 43  1  0
 28 44  1  0
M  CHG  1  10  -1
M  END
>  <UniqueID>  (75) 
70

>  <SMILES>  (75) 
O=C(CSc1nnc(C[N-]C(=O)c2ccccc2F)o1)NCc1ccccc1

>  <Energy>  (75) 
70.55010023866083

>  <Genealogy>  (75) 
O=C(CSc1nnc(C[N-]C(=O)c2ccccc2F)o1)NCc1ccccc1 (protonated)
O=C(CSc1nnc(C[N-]C(=O)c2ccccc2F)o1)NCc1ccccc1 (3D coordinates assigned)
O=C(CSc1nnc(C[N-]C(=O)c2ccccc2F)o1)NCc1ccccc1 (optimized conformer: 70.55010023866083 kcal/mol)

>  <smiles>  (75) 
O=C(CSc1nnc(CNC(=O)c2ccccc2F)o1)NCc1ccccc1

>  <score_type>  (75) 
oracle

>  <origin>  (75) 
adg

>  <m_score__min__energy>  (75) 
-11

>  <m_primary>  (75) 
energy

$$$$
75:0
     RDKit          3D

 47 49  0  0  0  0  0  0  0  0999 V2000
   57.1120   23.2440   44.1890 C   0  0  0  0  0  0  0  0  0  0  0  0
   58.1480   22.9620   45.2530 C   0  0  0  0  0  0  0  0  0  0  0  0
   58.1530   23.8960   46.3380 N   0  0  0  0  0  0  0  0  0  0  0  0
   56.8460   24.3650   46.6450 C   0  0  0  0  0  0  0  0  0  0  0  0
   56.7220   25.8670   46.6620 C   0  0  0  0  0  0  0  0  0  0  0  0
   57.3200   26.4530   45.4100 C   0  0  0  0  0  0  0  0  0  0  0  0
   57.2070   27.9120   45.3840 C   0  0  0  0  0  0  0  0  0  0  0  0
   58.1900   28.8150   45.6180 C   0  0  0  0  0  0  0  0  0  0  0  0
   57.6690   30.0610   45.4950 C   0  0  0  0  0  0  0  0  0  0  0  0
   58.4050   31.3290   45.6720 C   0  0  0  0  0  0  0  0  0  0  0  0
   59.6350   31.2800   45.9300 O   0  0  0  0  0  0  0  0  0  0  0  0
   57.7270   32.5660   45.5480 N   0  0  0  0  0  0  0  0  0  0  0  0
   58.3130   33.8560   45.6920 C   0  0  0  0  0  0  0  0  0  0  0  0
   59.4050   33.9410   46.6900 C   0  0  0  0  0  0  0  0  0  0  0  0
   59.1860   34.1000   48.0430 C   0  0  0  0  0  0  0  0  0  0  0  0
   60.2310   34.1730   48.9220 C   0  0  0  0  0  0  0  0  0  0  0  0
   61.5400   34.0930   48.5030 C   0  0  0  0  0  0  0  0  0  0  0  0
   61.7620   33.9340   47.1460 C   0  0  0  0  0  0  0  0  0  0  0  0
   60.7060   33.8580   46.2390 C   0  0  0  0  0  0  0  0  0  0  0  0
   56.3660   29.9340   45.1860 N   0  0  0  0  0  0  0  0  0  0  0  0
   56.0910   28.6440   45.1200 N   0  0  0  0  0  0  0  0  0  0  0  0
   58.7520   26.0500   45.2850 C   0  0  0  0  0  0  0  0  0  0  0  0
   59.1180   24.9350   46.2320 C   0  0  0  0  0  0  0  0  0  0  0  0
   56.1563   23.5041   44.6676 H   0  0  0  0  0  0  0  0  0  0  0  0
   57.4488   24.0832   43.5626 H   0  0  0  0  0  0  0  0  0  0  0  0
   56.9770   22.3499   43.5626 H   0  0  0  0  0  0  0  0  0  0  0  0
   57.9554   21.9597   45.6632 H   0  0  0  0  0  0  0  0  0  0  0  0
   59.1298   23.0448   44.7639 H   0  0  0  0  0  0  0  0  0  0  0  0
   56.1503   23.9690   45.8905 H   0  0  0  0  0  0  0  0  0  0  0  0
   56.6128   24.0149   47.6614 H   0  0  0  0  0  0  0  0  0  0  0  0
   55.6588   26.1431   46.7204 H   0  0  0  0  0  0  0  0  0  0  0  0
   57.2613   26.2616   47.5358 H   0  0  0  0  0  0  0  0  0  0  0  0
   56.7519   26.0573   44.5552 H   0  0  0  0  0  0  0  0  0  0  0  0
   59.2350   28.5772   45.8660 H   0  0  0  0  0  0  0  0  0  0  0  0
   56.6870   32.4930   45.3280 H   0  0  0  0  0  0  0  0  0  0  0  0
   58.7196   34.1569   44.7152 H   0  0  0  0  0  0  0  0  0  0  0  0
   57.5129   34.5178   46.0553 H   0  0  0  0  0  0  0  0  0  0  0  0
   58.1551   34.1691   48.4203 H   0  0  0  0  0  0  0  0  0  0  0  0
   60.0198   34.2992   49.9941 H   0  0  0  0  0  0  0  0  0  0  0  0
   62.3747   34.1529   49.2169 H   0  0  0  0  0  0  0  0  0  0  0  0
   62.7952   33.8661   46.7748 H   0  0  0  0  0  0  0  0  0  0  0  0
   60.9099   33.7321   45.1654 H   0  0  0  0  0  0  0  0  0  0  0  0
   55.1490   28.2140   44.8960 H   0  0  0  0  0  0  0  0  0  0  0  0
   58.9359   25.7131   44.2541 H   0  0  0  0  0  0  0  0  0  0  0  0
   59.3706   26.9235   45.5388 H   0  0  0  0  0  0  0  0  0  0  0  0
   60.0625   24.4896   45.8861 H   0  0  0  0  0  0  0  0  0  0  0  0
   59.1902   25.3908   47.2305 H   0  0  0  0  0  0  0  0  0  0  0  0
  1  2  1  0
  2  3  1  0
  3  4  1  0
  4  5  1  0
  5  6  1  0
  6  7  1  0
  7  8  2  0
  8  9  1  0
  9 10  1  0
 10 11  2  0
 10 12  1  0
 12 13  1  0
 13 14  1  0
 14 15  2  0
 15 16  1  0
 16 17  2  0
 17 18  1  0
 18 19  2  0
  9 20  2  0
 20 21  1  0
  6 22  1  0
 22 23  1  0
 23  3  1  0
 21  7  1  0
 19 14  1  0
  1 24  1  0
  1 25  1  0
  1 26  1  0
  2 27  1  0
  2 28  1  0
  4 29  1  0
  4 30  1  0
  5 31  1  0
  5 32  1  0
  6 33  1  0
  8 34  1  0
 12 35  1  0
 13 36  1  0
 13 37  1  0
 15 38  1  0
 16 39  1  0
 17 40  1  0
 18 41  1  0
 19 42  1  0
 21 43  1  0
 22 44  1  0
 22 45  1  0
 23 46  1  0
 23 47  1  0
M  END
>  <smiles>  (76) 
CCN1CCC(c2cc(C(=O)NCc3ccccc3)n[nH]2)CC1

>  <score_type>  (76) 
oracle

>  <origin>  (76) 
adg

>  <m_score__min__energy>  (76) 
-8.2400000000000002

>  <m_primary>  (76) 
energy

$$$$
76:0
     RDKit          3D

 44 46  0  0  0  0  0  0  0  0999 V2000
   59.4632   28.8547   46.0586 H   0  0  0  0  0  0  0  0  0  0  0  0
   58.8930   29.3770   46.8410 C   0  0  0  0  0  0  0  0  0  0  0  0
   59.4410   29.3340   48.2180 C   0  0  0  0  0  0  0  0  0  0  0  0
   60.2750   28.4300   48.4910 O   0  0  0  0  0  0  0  0  0  0  0  0
   59.0270   30.2730   49.2880 C   0  0  0  0  0  0  0  0  0  0  0  0
   59.2730   31.6470   49.1440 C   0  0  0  0  0  0  0  0  0  0  0  0
   59.8115   32.0175   48.2593 H   0  0  0  0  0  0  0  0  0  0  0  0
   58.8370   32.5450   50.1190 C   0  0  0  0  0  0  0  0  0  0  0  0
   59.0379   33.6202   50.0028 H   0  0  0  0  0  0  0  0  0  0  0  0
   58.1470   32.0840   51.2410 C   0  0  0  0  0  0  0  0  0  0  0  0
   57.7962   32.8015   51.9974 H   0  0  0  0  0  0  0  0  0  0  0  0
   57.8960   30.7130   51.4140 C   0  0  0  0  0  0  0  0  0  0  0  0
   57.1170   30.2870   52.6050 C   0  0  0  0  0  0  0  0  0  0  0  0
   57.2967   30.8174   53.5518 H   0  0  0  0  0  0  0  0  0  0  0  0
   56.2090   29.2990   52.6040 C   0  0  0  0  0  0  0  0  0  0  0  0
   56.4206   28.3849   52.0299 H   0  0  0  0  0  0  0  0  0  0  0  0
   54.9360   29.3950   53.3460 C   0  0  0  0  0  0  0  0  0  0  0  0
   54.8030   28.7000   54.3890 O   0  0  0  0  0  0  0  0  0  0  0  0
   53.8060   30.2460   52.9000 C   0  0  0  0  0  0  0  0  0  0  0  0
   52.7340   30.5370   53.7640 C   0  0  0  0  0  0  0  0  0  0  0  0
   52.7212   30.1172   54.7806 H   0  0  0  0  0  0  0  0  0  0  0  0
   51.6850   31.3570   53.3370 C   0  0  0  0  0  0  0  0  0  0  0  0
   50.8449   31.5710   54.0141 H   0  0  0  0  0  0  0  0  0  0  0  0
   51.7020   31.9050   52.0520 C   0  0  0  0  0  0  0  0  0  0  0  0
   50.6580   32.7200   51.6310 O   0  0  0  0  0  0  0  0  0  0  0  0
   52.7700   31.6370   51.1920 C   0  0  0  0  0  0  0  0  0  0  0  0
   52.7842   32.0713   50.1815 H   0  0  0  0  0  0  0  0  0  0  0  0
   53.8210   30.8170   51.6150 C   0  0  0  0  0  0  0  0  0  0  0  0
   54.6648   30.6174   50.9382 H   0  0  0  0  0  0  0  0  0  0  0  0
   58.3790   29.8080   50.4470 C   0  0  0  0  0  0  0  0  0  0  0  0
   58.2478   28.7267   50.6003 H   0  0  0  0  0  0  0  0  0  0  0  0
   57.7620   29.9970   46.4630 C   0  0  0  0  0  0  0  0  0  0  0  0
   57.0927   30.3571   47.2582 H   0  0  0  0  0  0  0  0  0  0  0  0
   57.3450   30.2340   45.0640 C   0  0  0  0  0  0  0  0  0  0  0  0
   58.0240   31.2060   44.3110 C   0  0  0  0  0  0  0  0  0  0  0  0
   58.8195   31.8038   44.7800 H   0  0  0  0  0  0  0  0  0  0  0  0
   57.6950   31.4180   42.9700 C   0  0  0  0  0  0  0  0  0  0  0  0
   58.2469   32.1647   42.3802 H   0  0  0  0  0  0  0  0  0  0  0  0
   56.6650   30.6820   42.3770 C   0  0  0  0  0  0  0  0  0  0  0  0
   56.4162   30.8395   41.3171 H   0  0  0  0  0  0  0  0  0  0  0  0
   55.9520   29.7470   43.1300 C   0  0  0  0  0  0  0  0  0  0  0  0
   55.1321   29.1800   42.6650 H   0  0  0  0  0  0  0  0  0  0  0  0
   56.2760   29.5280   44.4740 C   0  0  0  0  0  0  0  0  0  0  0  0
   55.5300   28.6160   45.2140 O   0  0  0  0  0  0  0  0  0  0  0  0
  1  2  1  0
  2  3  1  0
  3  4  2  0
  3  5  1  0
  5  6  2  0
  6  7  1  0
  6  8  1  0
  8  9  1  0
  8 10  2  0
 10 11  1  0
 10 12  1  0
 12 13  1  0
 13 14  1  0
 13 15  2  0
 15 16  1  0
 15 17  1  0
 17 18  2  0
 17 19  1  0
 19 20  2  0
 20 21  1  0
 20 22  1  0
 22 23  1  0
 22 24  2  0
 24 25  1  0
 24 26  1  0
 26 27  1  0
 26 28  2  0
 28 29  1  0
 12 30  2  0
 30 31  1  0
  2 32  2  3
 32 33  1  0
 32 34  1  0
 34 35  2  0
 35 36  1  0
 35 37  1  0
 37 38  1  0
 37 39  2  0
 39 40  1  0
 39 41  1  0
 41 42  1  0
 41 43  2  0
 43 44  1  0
 30  5  1  0
 43 34  1  0
 28 19  1  0
M  CHG  2  25  -1  44  -1
M  END
>  <UniqueID>  (77) 
71

>  <SMILES>  (77) 
O=C(C=Cc1ccccc1[O-])c1cccc(/C=C/C(=O)c2ccc([O-])cc2)c1

>  <Energy>  (77) 
64.01699328711162

>  <Genealogy>  (77) 
O=C(C=Cc1cccc(C(=O)C=Cc2ccccc2[O-])c1)c1ccc([O-])cc1 (protonated)
O=C(C=Cc1ccccc1[O-])c1cccc(/C=C/C(=O)c2ccc([O-])cc2)c1 (cis-trans isomerization)
O=C(C=Cc1ccccc1[O-])c1cccc(/C=C/C(=O)c2ccc([O-])cc2)c1 (3D coordinates assigned)
O=C(C=Cc1ccccc1[O-])c1cccc(/C=C/C(=O)c2ccc([O-])cc2)c1 (optimized conformer: 64.01699328711162 kcal/mol)

>  <smiles>  (77) 
O=C(C=Cc1cccc(C(=O)C=Cc2ccccc2O)c1)c1ccc(O)cc1

>  <score_type>  (77) 
oracle

>  <origin>  (77) 
adg

>  <m_score__min__energy>  (77) 
-15.800000000000001

>  <m_primary>  (77) 
energy

$$$$
77:0
     RDKit          3D

 41 43  0  0  0  0  0  0  0  0999 V2000
   55.5330   27.2780   45.3740 H   0  0  0  0  0  0  0  0  0  0  0  0
   55.2020   26.5070   45.9980 N   0  0  0  0  0  0  0  0  0  0  0  0
   55.2270   25.2690   45.6190 C   0  0  0  0  0  0  0  0  0  0  0  0
   54.1030   24.5080   45.7400 N   0  0  0  0  0  0  0  0  0  0  0  0
   54.0700   23.2040   45.3580 C   0  0  0  0  0  0  0  0  0  0  0  0
   53.1437   22.6217   45.4714 H   0  0  0  0  0  0  0  0  0  0  0  0
   55.2080   22.6040   44.8230 C   0  0  0  0  0  0  0  0  0  0  0  0
   55.1860   21.5490   44.5125 H   0  0  0  0  0  0  0  0  0  0  0  0
   56.3760   23.3550   44.6850 C   0  0  0  0  0  0  0  0  0  0  0  0
   57.2785   22.8904   44.2611 H   0  0  0  0  0  0  0  0  0  0  0  0
   56.4050   24.6990   45.0840 C   0  0  0  0  0  0  0  0  0  0  0  0
   57.6810   25.4900   44.9090 C   0  0  0  0  0  0  0  0  0  0  0  0
   58.1971   25.5646   45.8776 H   0  0  0  0  0  0  0  0  0  0  0  0
   58.3223   24.9760   44.1779 H   0  0  0  0  0  0  0  0  0  0  0  0
   57.3840   26.8310   44.4180 N   0  0  0  0  0  0  0  0  0  0  0  0
   57.6820   28.0270   45.1440 C   0  0  0  0  0  0  0  0  0  0  0  0
   57.2790   28.1630   46.3320 O   0  0  0  0  0  0  0  0  0  0  0  0
   58.4050   29.0800   44.4930 N   0  0  0  0  0  0  0  0  0  0  0  0
   58.4920   29.0290   43.4530 H   0  0  0  0  0  0  0  0  0  0  0  0
   58.9000   30.2550   45.1600 C   0  0  0  0  0  0  0  0  0  0  0  0
   59.9920   30.1930   46.0420 C   0  0  0  0  0  0  0  0  0  0  0  0
   60.4742   29.2260   46.2479 H   0  0  0  0  0  0  0  0  0  0  0  0
   60.4690   31.3520   46.6590 C   0  0  0  0  0  0  0  0  0  0  0  0
   61.3246   31.2927   47.3478 H   0  0  0  0  0  0  0  0  0  0  0  0
   59.8610   32.5940   46.4040 C   0  0  0  0  0  0  0  0  0  0  0  0
   60.3250   33.7770   47.0030 O   0  0  0  0  0  0  0  0  0  0  0  0
   61.3660   33.8550   47.9400 C   0  0  0  0  0  0  0  0  0  0  0  0
   61.0410   34.0200   49.2920 C   0  0  0  0  0  0  0  0  0  0  0  0
   59.9863   34.0894   49.5966 H   0  0  0  0  0  0  0  0  0  0  0  0
   62.0500   34.0970   50.2570 C   0  0  0  0  0  0  0  0  0  0  0  0
   61.7877   34.2373   51.3160 H   0  0  0  0  0  0  0  0  0  0  0  0
   63.3900   33.9960   49.8780 C   0  0  0  0  0  0  0  0  0  0  0  0
   64.1830   34.0659   50.6371 H   0  0  0  0  0  0  0  0  0  0  0  0
   63.7240   33.8060   48.5340 C   0  0  0  0  0  0  0  0  0  0  0  0
   64.7798   33.7184   48.2380 H   0  0  0  0  0  0  0  0  0  0  0  0
   62.7180   33.7270   47.5640 C   0  0  0  0  0  0  0  0  0  0  0  0
   63.0610   33.4820   46.2750 F   0  0  0  0  0  0  0  0  0  0  0  0
   58.7980   32.6640   45.4920 C   0  0  0  0  0  0  0  0  0  0  0  0
   58.0410   34.2050   45.1220 Cl  0  0  0  0  0  0  0  0  0  0  0  0
   58.3240   31.5010   44.8740 C   0  0  0  0  0  0  0  0  0  0  0  0
   57.4920   31.5651   44.1574 H   0  0  0  0  0  0  0  0  0  0  0  0
  1  2  1  0
  2  3  2  0
  3  4  1  0
  4  5  1  0
  5  6  1  0
  5  7  2  0
  7  8  1  0
  7  9  1  0
  9 10  1  0
  9 11  2  0
 11 12  1  0
 12 13  1  0
 12 14  1  0
 12 15  1  0
 15 16  1  0
 16 17  2  0
 16 18  1  0
 18 19  1  0
 18 20  1  0
 20 21  2  0
 21 22  1  0
 21 23  1  0
 23 24  1  0
 23 25  2  0
 25 26  1  0
 26 27  1  0
 27 28  2  0
 28 29  1  0
 28 30  1  0
 30 31  1  0
 30 32  2  0
 32 33  1  0
 32 34  1  0
 34 35  1  0
 34 36  2  0
 36 37  1  0
 25 38  1  0
 38 39  1  0
 38 40  2  0
 40 41  1  0
 11  3  1  0
 40 20  1  0
 36 27  1  0
M  CHG  2   4  -1  15  -1
M  END
>  <UniqueID>  (78) 
72

>  <SMILES>  (78) 
[H]/N=c1\[n-]cccc1C[N-]C(=O)Nc1ccc(Oc2ccccc2F)c(Cl)c1

>  <Energy>  (78) 
54.42558917764874

>  <Genealogy>  (78) 
N=c1[n-]cccc1C[N-]C(=O)Nc1ccc(Oc2ccccc2F)c(Cl)c1 (protonated)
[H]/N=c1\[n-]cccc1C[N-]C(=O)Nc1ccc(Oc2ccccc2F)c(Cl)c1 (cis-trans isomerization)
[H]/N=c1\[n-]cccc1C[N-]C(=O)Nc1ccc(Oc2ccccc2F)c(Cl)c1 (3D coordinates assigned)
[H]/N=c1\[n-]cccc1C[N-]C(=O)Nc1ccc(Oc2ccccc2F)c(Cl)c1 (optimized conformer: 54.42558917764874 kcal/mol)

>  <smiles>  (78) 
N=c1[nH]cccc1CNC(=O)Nc1ccc(Oc2ccccc2F)c(Cl)c1

>  <score_type>  (78) 
oracle

>  <origin>  (78) 
adg

>  <m_score__min__energy>  (78) 
-11.699999999999999

>  <m_primary>  (78) 
energy

$$$$
78:0
     RDKit          3D

 42 43  0  0  0  0  0  0  0  0999 V2000
   64.6420   32.6800   49.5830 C   0  0  0  0  0  0  0  0  0  0  0  0
   63.1280   32.5960   49.7530 C   0  0  0  0  0  0  0  0  0  0  0  0
   62.4480   32.9680   48.4990 N   0  0  0  0  0  0  0  0  0  0  0  0
   63.2290   32.6220   47.2910 C   0  0  0  0  0  0  0  0  0  0  0  0
   63.3620   33.8530   46.4070 C   0  0  0  0  0  0  0  0  0  0  0  0
   60.8320   32.2900   48.4500 S   0  0  0  0  0  0  0  0  0  0  0  0
   60.1450   32.4640   49.7760 O   0  0  0  0  0  0  0  0  0  0  0  0
   60.9620   30.8170   48.1800 O   0  0  0  0  0  0  0  0  0  0  0  0
   59.8380   33.0280   47.1850 C   0  0  0  0  0  0  0  0  0  0  0  0
   60.0750   34.3500   46.7780 C   0  0  0  0  0  0  0  0  0  0  0  0
   59.3000   34.9240   45.7680 C   0  0  0  0  0  0  0  0  0  0  0  0
   58.2830   34.1840   45.1570 C   0  0  0  0  0  0  0  0  0  0  0  0
   58.0390   32.8570   45.5530 C   0  0  0  0  0  0  0  0  0  0  0  0
   56.9840   32.0810   44.9690 N   0  0  0  0  0  0  0  0  0  0  0  0
   57.1600   30.9380   44.1220 C   0  0  0  0  0  0  0  0  0  0  0  0
   57.1950   31.1060   42.8740 O   0  0  0  0  0  0  0  0  0  0  0  0
   57.2790   29.5700   44.6740 C   0  0  0  0  0  0  0  0  0  0  0  0
   58.5510   28.9900   44.8160 C   0  0  0  0  0  0  0  0  0  0  0  0
   58.6890   27.7110   45.3600 C   0  0  0  0  0  0  0  0  0  0  0  0
   57.5590   26.9940   45.7570 C   0  0  0  0  0  0  0  0  0  0  0  0
   56.2850   27.5470   45.6000 C   0  0  0  0  0  0  0  0  0  0  0  0
   55.1640   26.8190   45.9850 O   0  0  0  0  0  0  0  0  0  0  0  0
   56.1390   28.8300   45.0540 C   0  0  0  0  0  0  0  0  0  0  0  0
   54.8610   29.3490   44.8720 O   0  0  0  0  0  0  0  0  0  0  0  0
   58.8070   32.2930   46.5790 C   0  0  0  0  0  0  0  0  0  0  0  0
   65.1212   32.7066   50.5728 H   0  0  0  0  0  0  0  0  0  0  0  0
   64.9979   31.8002   49.0268 H   0  0  0  0  0  0  0  0  0  0  0  0
   64.8984   33.5938   49.0268 H   0  0  0  0  0  0  0  0  0  0  0  0
   62.8504   31.5667   50.0242 H   0  0  0  0  0  0  0  0  0  0  0  0
   62.8191   33.2926   50.5463 H   0  0  0  0  0  0  0  0  0  0  0  0
   64.2291   32.2732   47.5878 H   0  0  0  0  0  0  0  0  0  0  0  0
   62.7139   31.8243   46.7358 H   0  0  0  0  0  0  0  0  0  0  0  0
   63.4588   34.7488   47.0380 H   0  0  0  0  0  0  0  0  0  0  0  0
   64.2546   33.7537   45.7719 H   0  0  0  0  0  0  0  0  0  0  0  0
   62.4687   33.9466   45.7719 H   0  0  0  0  0  0  0  0  0  0  0  0
   60.8738   34.9360   47.2561 H   0  0  0  0  0  0  0  0  0  0  0  0
   59.4900   35.9605   45.4524 H   0  0  0  0  0  0  0  0  0  0  0  0
   57.6723   34.6411   44.3645 H   0  0  0  0  0  0  0  0  0  0  0  0
   59.4441   29.5470   44.4966 H   0  0  0  0  0  0  0  0  0  0  0  0
   59.6893   27.2682   45.4757 H   0  0  0  0  0  0  0  0  0  0  0  0
   57.6715   25.9911   46.1946 H   0  0  0  0  0  0  0  0  0  0  0  0
   58.6007   31.2654   46.9129 H   0  0  0  0  0  0  0  0  0  0  0  0
  1  2  1  0
  2  3  1  0
  3  4  1  0
  4  5  1  0
  3  6  1  0
  6  7  2  0
  6  8  2  0
  6  9  1  0
  9 10  2  0
 10 11  1  0
 11 12  2  0
 12 13  1  0
 13 14  1  0
 14 15  1  0
 15 16  2  0
 15 17  1  0
 17 18  2  0
 18 19  1  0
 19 20  2  0
 20 21  1  0
 21 22  1  0
 21 23  2  0
 23 24  1  0
 13 25  2  0
 25  9  1  0
 23 17  1  0
  1 26  1  0
  1 27  1  0
  1 28  1  0
  2 29  1  0
  2 30  1  0
  4 31  1  0
  4 32  1  0
  5 33  1  0
  5 34  1  0
  5 35  1  0
 10 36  1  0
 11 37  1  0
 12 38  1  0
 18 39  1  0
 19 40  1  0
 20 41  1  0
 25 42  1  0
M  CHG  3  14  -1  22  -1  24  -1
M  END
>  <UniqueID>  (79) 
73

>  <SMILES>  (79) 
CCN(CC)S(=O)(=O)c1cccc([N-]C(=O)c2cccc([O-])c2[O-])c1

>  <Energy>  (79) 
49.5139663932042

>  <Genealogy>  (79) 
CCN(CC)S(=O)(=O)c1cccc([N-]C(=O)c2cccc([O-])c2[O-])c1 (protonated)
CCN(CC)S(=O)(=O)c1cccc([N-]C(=O)c2cccc([O-])c2[O-])c1 (3D coordinates assigned)
CCN(CC)S(=O)(=O)c1cccc([N-]C(=O)c2cccc([O-])c2[O-])c1 (optimized conformer: 49.5139663932042 kcal/mol)

>  <smiles>  (79) 
CCN(CC)S(=O)(=O)c1cccc(NC(=O)c2cccc(O)c2O)c1

>  <score_type>  (79) 
oracle

>  <origin>  (79) 
adg

>  <m_score__min__energy>  (79) 
-16.870000000000001

>  <m_primary>  (79) 
energy

$$$$
79:0
     RDKit          3D

 50 52  0  0  0  0  0  0  0  0999 V2000
   58.7260   34.5620   46.1830 C   0  0  0  0  0  0  0  0  0  0  0  0
   58.2730   33.4500   45.2990 C   0  0  0  0  0  0  0  0  0  0  0  0
   57.8130   32.2190   45.7250 C   0  0  0  0  0  0  0  0  0  0  0  0
   57.5410   31.5080   44.5740 C   0  0  0  0  0  0  0  0  0  0  0  0
   57.0230   30.1310   44.5200 C   0  0  0  0  0  0  0  0  0  0  0  0
   55.8250   29.8890   44.8340 O   0  0  0  0  0  0  0  0  0  0  0  0
   57.8730   29.0950   44.1210 O   0  0  0  0  0  0  0  0  0  0  0  0
   57.5570   27.7140   44.2920 C   0  0  0  0  0  0  0  0  0  0  0  0
   57.1600   27.4360   45.7160 C   0  0  0  0  0  0  0  0  0  0  0  0
   55.9810   27.0750   45.9630 O   0  0  0  0  0  0  0  0  0  0  0  0
   58.0750   27.6120   46.8060 N   0  0  0  0  0  0  0  0  0  0  0  0
   58.8850   28.7670   47.0610 C   0  0  0  0  0  0  0  0  0  0  0  0
   59.9390   29.0610   46.1870 C   0  0  0  0  0  0  0  0  0  0  0  0
   60.7290   30.1950   46.3900 C   0  0  0  0  0  0  0  0  0  0  0  0
   60.4660   31.0570   47.4620 C   0  0  0  0  0  0  0  0  0  0  0  0
   61.4600   32.4930   47.6900 S   0  0  0  0  0  0  0  0  0  0  0  0
   61.6570   33.1940   46.3750 O   0  0  0  0  0  0  0  0  0  0  0  0
   60.7410   33.4230   48.6270 O   0  0  0  0  0  0  0  0  0  0  0  0
   63.0010   32.0190   48.3730 N   0  0  0  0  0  0  0  0  0  0  0  0
   63.9170   33.1720   48.5180 C   0  0  0  0  0  0  0  0  0  0  0  0
   63.9570   33.7260   49.9550 C   0  0  0  0  0  0  0  0  0  0  0  0
   62.7000   33.5710   50.5720 O   0  0  0  0  0  0  0  0  0  0  0  0
   62.4370   32.1980   50.8130 C   0  0  0  0  0  0  0  0  0  0  0  0
   62.8320   31.2760   49.6340 C   0  0  0  0  0  0  0  0  0  0  0  0
   59.3910   30.7840   48.3200 C   0  0  0  0  0  0  0  0  0  0  0  0
   58.6000   29.6490   48.1180 C   0  0  0  0  0  0  0  0  0  0  0  0
   57.8580   32.3520   43.5170 C   0  0  0  0  0  0  0  0  0  0  0  0
   57.7440   32.0500   42.0590 C   0  0  0  0  0  0  0  0  0  0  0  0
   58.2940   33.5000   43.9860 O   0  0  0  0  0  0  0  0  0  0  0  0
   58.6054   34.2660   47.2355 H   0  0  0  0  0  0  0  0  0  0  0  0
   59.7852   34.7813   45.9828 H   0  0  0  0  0  0  0  0  0  0  0  0
   58.1216   35.4590   45.9828 H   0  0  0  0  0  0  0  0  0  0  0  0
   57.6895   31.8774   46.7633 H   0  0  0  0  0  0  0  0  0  0  0  0
   56.7232   27.4484   43.6255 H   0  0  0  0  0  0  0  0  0  0  0  0
   58.4452   27.1132   44.0469 H   0  0  0  0  0  0  0  0  0  0  0  0
   60.1459   28.3953   45.3361 H   0  0  0  0  0  0  0  0  0  0  0  0
   61.5616   30.4120   45.7046 H   0  0  0  0  0  0  0  0  0  0  0  0
   64.9312   32.8527   48.2361 H   0  0  0  0  0  0  0  0  0  0  0  0
   63.5452   33.9745   47.8640 H   0  0  0  0  0  0  0  0  0  0  0  0
   64.7158   33.1793   50.5341 H   0  0  0  0  0  0  0  0  0  0  0  0
   64.2098   34.7960   49.9200 H   0  0  0  0  0  0  0  0  0  0  0  0
   63.0031   31.8863   51.7032 H   0  0  0  0  0  0  0  0  0  0  0  0
   61.3505   32.0969   50.9521 H   0  0  0  0  0  0  0  0  0  0  0  0
   63.7804   30.7756   49.8791 H   0  0  0  0  0  0  0  0  0  0  0  0
   62.0190   30.5494   49.4891 H   0  0  0  0  0  0  0  0  0  0  0  0
   59.1693   31.4651   49.1548 H   0  0  0  0  0  0  0  0  0  0  0  0
   57.7519   29.4455   48.7883 H   0  0  0  0  0  0  0  0  0  0  0  0
   57.3584   31.0285   41.9252 H   0  0  0  0  0  0  0  0  0  0  0  0
   57.0545   32.7667   41.5889 H   0  0  0  0  0  0  0  0  0  0  0  0
   58.7351   32.1323   41.5889 H   0  0  0  0  0  0  0  0  0  0  0  0
  1  2  1  0
  2  3  2  0
  3  4  1  0
  4  5  1  0
  5  6  2  0
  5  7  1  0
  7  8  1  0
  8  9  1  0
  9 10  2  0
  9 11  1  0
 11 12  1  0
 12 13  2  0
 13 14  1  0
 14 15  2  0
 15 16  1  0
 16 17  2  0
 16 18  2  0
 16 19  1  0
 19 20  1  0
 20 21  1  0
 21 22  1  0
 22 23  1  0
 23 24  1  0
 15 25  1  0
 25 26  2  0
  4 27  2  0
 27 28  1  0
 27 29  1  0
 29  2  1  0
 26 12  1  0
 24 19  1  0
  1 30  1  0
  1 31  1  0
  1 32  1  0
  3 33  1  0
  8 34  1  0
  8 35  1  0
 13 36  1  0
 14 37  1  0
 20 38  1  0
 20 39  1  0
 21 40  1  0
 21 41  1  0
 23 42  1  0
 23 43  1  0
 24 44  1  0
 24 45  1  0
 25 46  1  0
 26 47  1  0
 28 48  1  0
 28 49  1  0
 28 50  1  0
M  CHG  1  11  -1
M  END
>  <UniqueID>  (80) 
74

>  <SMILES>  (80) 
Cc1cc(C(=O)OCC(=O)[N-]c2ccc(S(=O)(=O)N3CCOCC3)cc2)c(C)o1

>  <Energy>  (80) 
88.09950483279061

>  <Genealogy>  (80) 
Cc1cc(C(=O)OCC(=O)[N-]c2ccc(S(=O)(=O)N3CCOCC3)cc2)c(C)o1 (protonated)
Cc1cc(C(=O)OCC(=O)[N-]c2ccc(S(=O)(=O)N3CCOCC3)cc2)c(C)o1 (3D coordinates assigned)
Cc1cc(C(=O)OCC(=O)[N-]c2ccc(S(=O)(=O)N3CCOCC3)cc2)c(C)o1 (nonaromatic ring conformer: 88.09950483279061 kcal/mol)

>  <smiles>  (80) 
Cc1cc(C(=O)OCC(=O)Nc2ccc(S(=O)(=O)N3CCOCC3)cc2)c(C)o1

>  <score_type>  (80) 
oracle

>  <origin>  (80) 
adg

>  <m_score__min__energy>  (80) 
-10.380000000000001

>  <m_primary>  (80) 
energy

$$$$
80:0
     RDKit          3D

 49 51  0  0  0  0  0  0  0  0999 V2000
   64.7420   33.7530   51.2810 C   0  0  0  0  0  0  0  0  0  0  0  0
   64.1410   33.4680   49.6340 S   0  0  0  0  0  0  0  0  0  0  0  0
   64.6560   31.9840   49.0310 O   0  0  0  0  0  0  0  0  0  0  0  0
   62.3950   33.6090   49.5530 C   0  0  0  0  0  0  0  0  0  0  0  0
   61.6470   33.6950   50.7310 C   0  0  0  0  0  0  0  0  0  0  0  0
   60.2570   33.8260   50.6680 C   0  0  0  0  0  0  0  0  0  0  0  0
   59.6110   33.8600   49.4280 C   0  0  0  0  0  0  0  0  0  0  0  0
   60.3480   33.7520   48.2370 C   0  0  0  0  0  0  0  0  0  0  0  0
   59.6630   33.8230   46.9730 N   0  0  0  0  0  0  0  0  0  0  0  0
   58.4040   33.1840   46.7130 C   0  0  0  0  0  0  0  0  0  0  0  0
   57.5640   33.0600   47.6470 O   0  0  0  0  0  0  0  0  0  0  0  0
   58.0680   32.6890   45.3540 C   0  0  0  0  0  0  0  0  0  0  0  0
   58.5350   33.3550   44.2060 C   0  0  0  0  0  0  0  0  0  0  0  0
   58.2600   32.8520   42.9320 C   0  0  0  0  0  0  0  0  0  0  0  0
   57.5380   31.6680   42.7870 C   0  0  0  0  0  0  0  0  0  0  0  0
   57.0810   30.9820   43.9170 C   0  0  0  0  0  0  0  0  0  0  0  0
   56.2660   29.4300   43.7550 S   0  0  0  0  0  0  0  0  0  0  0  0
   56.9410   28.5920   42.7050 O   0  0  0  0  0  0  0  0  0  0  0  0
   54.8410   29.6590   43.3520 O   0  0  0  0  0  0  0  0  0  0  0  0
   56.3090   28.5800   45.2710 N   0  0  0  0  0  0  0  0  0  0  0  0
   57.5320   27.7840   45.4020 C   0  0  0  0  0  0  0  0  0  0  0  0
   58.6050   28.6030   46.0630 C   0  0  0  0  0  0  0  0  0  0  0  0
   59.7440   28.9950   45.3310 C   0  0  0  0  0  0  0  0  0  0  0  0
   60.7440   29.7560   45.9380 C   0  0  0  0  0  0  0  0  0  0  0  0
   60.6300   30.1190   47.2830 C   0  0  0  0  0  0  0  0  0  0  0  0
   59.5100   29.7230   48.0240 C   0  0  0  0  0  0  0  0  0  0  0  0
   58.4970   28.9730   47.4160 C   0  0  0  0  0  0  0  0  0  0  0  0
   57.3290   31.5010   45.1950 C   0  0  0  0  0  0  0  0  0  0  0  0
   61.7490   33.6440   48.3090 C   0  0  0  0  0  0  0  0  0  0  0  0
   63.9972   33.3998   52.0093 H   0  0  0  0  0  0  0  0  0  0  0  0
   65.6853   33.2063   51.4268 H   0  0  0  0  0  0  0  0  0  0  0  0
   64.9157   34.8294   51.4268 H   0  0  0  0  0  0  0  0  0  0  0  0
   64.8400   32.1470   48.0710 H   0  0  0  0  0  0  0  0  0  0  0  0
   62.1525   33.6596   51.7073 H   0  0  0  0  0  0  0  0  0  0  0  0
   59.6701   33.9025   51.5952 H   0  0  0  0  0  0  0  0  0  0  0  0
   58.5176   33.9722   49.3850 H   0  0  0  0  0  0  0  0  0  0  0  0
   60.0650   34.4340   46.2280 H   0  0  0  0  0  0  0  0  0  0  0  0
   59.1215   34.2795   44.3125 H   0  0  0  0  0  0  0  0  0  0  0  0
   58.6139   33.3914   42.0410 H   0  0  0  0  0  0  0  0  0  0  0  0
   57.3275   31.2728   41.7823 H   0  0  0  0  0  0  0  0  0  0  0  0
   57.3241   26.8933   46.0130 H   0  0  0  0  0  0  0  0  0  0  0  0
   57.8738   27.4768   44.4026 H   0  0  0  0  0  0  0  0  0  0  0  0
   59.8451   28.6997   44.2762 H   0  0  0  0  0  0  0  0  0  0  0  0
   61.6234   30.0707   45.3570 H   0  0  0  0  0  0  0  0  0  0  0  0
   61.4211   30.7164   47.7598 H   0  0  0  0  0  0  0  0  0  0  0  0
   59.4263   30.0016   49.0848 H   0  0  0  0  0  0  0  0  0  0  0  0
   57.6134   28.6718   47.9979 H   0  0  0  0  0  0  0  0  0  0  0  0
   56.9431   30.9759   46.0812 H   0  0  0  0  0  0  0  0  0  0  0  0
   62.3411   33.5867   47.3837 H   0  0  0  0  0  0  0  0  0  0  0  0
  1  2  1  0
  2  3  1  1
  2  4  1  0
  4  5  2  0
  5  6  1  0
  6  7  2  0
  7  8  1  0
  8  9  1  0
  9 10  1  0
 10 11  2  0
 10 12  1  0
 12 13  2  0
 13 14  1  0
 14 15  2  0
 15 16  1  0
 16 17  1  0
 17 18  2  0
 17 19  2  0
 17 20  1  0
 20 21  1  0
 21 22  1  0
 22 23  2  0
 23 24  1  0
 24 25  2  0
 25 26  1  0
 26 27  2  0
 16 28  2  0
  8 29  2  0
 29  4  1  0
 28 12  1  0
 27 22  1  0
  1 30  1  0
  1 31  1  0
  1 32  1  0
  3 33  1  0
  5 34  1  0
  6 35  1  0
  7 36  1  0
  9 37  1  0
 13 38  1  0
 14 39  1  0
 15 40  1  0
 21 41  1  0
 21 42  1  0
 23 43  1  0
 24 44  1  0
 25 45  1  0
 26 46  1  0
 27 47  1  0
 28 48  1  0
 29 49  1  0
M  CHG  2   2   1  20  -1
M  END
>  <UniqueID>  (81) 
75

>  <SMILES>  (81) 
C[S@@+](O)c1cccc(NC(=O)c2cccc(S(=O)(=O)[N-]Cc3ccccc3)c2)c1

>  <Energy>  (81) 
47.819833739533856

>  <Genealogy>  (81) 
C[S+](O)c1cccc(NC(=O)c2cccc(S(=O)(=O)[N-]Cc3ccccc3)c2)c1 (protonated)
C[S@@+](O)c1cccc(NC(=O)c2cccc(S(=O)(=O)[N-]Cc3ccccc3)c2)c1 (chirality)
C[S@@+](O)c1cccc(NC(=O)c2cccc(S(=O)(=O)[N-]Cc3ccccc3)c2)c1 (3D coordinates assigned)
C[S@@+](O)c1cccc(NC(=O)c2cccc(S(=O)(=O)[N-]Cc3ccccc3)c2)c1 (optimized conformer: 47.819833739533856 kcal/mol)

>  <smiles>  (81) 
C[S+]([O-])c1cccc(NC(=O)c2cccc(S(=O)(=O)NCc3ccccc3)c2)c1

>  <score_type>  (81) 
oracle

>  <origin>  (81) 
adg

>  <m_score__min__energy>  (81) 
-9.9700000000000006

>  <m_primary>  (81) 
energy

$$$$
81:0
     RDKit          3D

 38 40  0  0  0  0  0  0  0  0999 V2000
   59.2313   30.7309   48.1919 H   0  0  0  0  0  0  0  0  0  0  0  0
   58.9310   30.3650   47.1990 C   0  0  0  0  0  0  0  0  0  0  0  0
   58.9182   29.2848   46.9916 H   0  0  0  0  0  0  0  0  0  0  0  0
   58.5800   31.2370   46.2400 C   0  0  0  0  0  0  0  0  0  0  0  0
   58.1750   30.9250   44.9290 C   0  0  0  0  0  0  0  0  0  0  0  0
   57.8830   29.7440   44.3460 C   0  0  0  0  0  0  0  0  0  0  0  0
   57.9233   29.7027   43.2475 H   0  0  0  0  0  0  0  0  0  0  0  0
   57.5140   28.5020   45.0540 C   0  0  0  0  0  0  0  0  0  0  0  0
   56.1700   28.1580   45.2730 C   0  0  0  0  0  0  0  0  0  0  0  0
   55.1440   29.0010   44.8590 O   0  0  0  0  0  0  0  0  0  0  0  0
   55.8610   26.9890   45.8900 N   0  0  0  0  0  0  0  0  0  0  0  0
   56.8330   26.1290   46.2880 C   0  0  0  0  0  0  0  0  0  0  0  0
   56.4330   24.7320   47.0290 S   0  0  0  0  0  0  0  0  0  0  0  0
   58.1390   26.4250   46.0600 N   0  0  0  0  0  0  0  0  0  0  0  0
   58.4990   27.5830   45.4470 C   0  0  0  0  0  0  0  0  0  0  0  0
   59.7200   27.8230   45.2470 O   0  0  0  0  0  0  0  0  0  0  0  0
   58.0730   32.1280   44.2570 C   0  0  0  0  0  0  0  0  0  0  0  0
   57.8123   32.2656   43.1972 H   0  0  0  0  0  0  0  0  0  0  0  0
   58.3600   33.1230   45.1670 C   0  0  0  0  0  0  0  0  0  0  0  0
   58.2850   34.5880   44.8610 C   0  0  0  0  0  0  0  0  0  0  0  0
   58.2558   35.1580   45.8014 H   0  0  0  0  0  0  0  0  0  0  0  0
   59.1690   34.8866   44.2785 H   0  0  0  0  0  0  0  0  0  0  0  0
   57.3751   34.7948   44.2785 H   0  0  0  0  0  0  0  0  0  0  0  0
   58.6650   32.5910   46.3740 N   0  0  0  0  0  0  0  0  0  0  0  0
   58.9670   33.3700   47.5880 C   0  0  0  0  0  0  0  0  0  0  0  0
   58.5086   34.3662   47.5018 H   0  0  0  0  0  0  0  0  0  0  0  0
   58.5602   32.8388   48.4611 H   0  0  0  0  0  0  0  0  0  0  0  0
   60.4560   33.5230   47.7620 C   0  0  0  0  0  0  0  0  0  0  0  0
   60.9930   33.8710   49.0130 C   0  0  0  0  0  0  0  0  0  0  0  0
   60.3242   34.0213   49.8733 H   0  0  0  0  0  0  0  0  0  0  0  0
   62.3730   34.0270   49.1690 C   0  0  0  0  0  0  0  0  0  0  0  0
   62.7870   34.2999   50.1509 H   0  0  0  0  0  0  0  0  0  0  0  0
   63.2280   33.8370   48.0800 C   0  0  0  0  0  0  0  0  0  0  0  0
   64.3138   33.9615   48.2050 H   0  0  0  0  0  0  0  0  0  0  0  0
   62.7040   33.4890   46.8330 C   0  0  0  0  0  0  0  0  0  0  0  0
   63.3777   33.3389   45.9765 H   0  0  0  0  0  0  0  0  0  0  0  0
   61.3230   33.3310   46.6720 C   0  0  0  0  0  0  0  0  0  0  0  0
   60.9141   33.0555   45.6887 H   0  0  0  0  0  0  0  0  0  0  0  0
  1  2  1  0
  2  3  1  0
  2  4  2  0
  4  5  1  0
  5  6  2  0
  6  7  1  0
  6  8  1  0
  8  9  2  0
  9 10  1  0
  9 11  1  0
 11 12  1  0
 12 13  2  0
 12 14  1  0
 14 15  1  0
 15 16  2  0
  5 17  1  0
 17 18  1  0
 17 19  2  0
 19 20  1  0
 20 21  1  0
 20 22  1  0
 20 23  1  0
 19 24  1  0
 24 25  1  0
 25 26  1  0
 25 27  1  0
 25 28  1  0
 28 29  2  0
 29 30  1  0
 29 31  1  0
 31 32  1  0
 31 33  2  0
 33 34  1  0
 33 35  1  0
 35 36  1  0
 35 37  2  0
 37 38  1  0
 24  4  1  0
 37 28  1  0
 15  8  1  0
M  CHG  3  10  -1  11  -1  14  -1
M  END
>  <UniqueID>  (82) 
76

>  <SMILES>  (82) 
C=c1/c(=C\c2c([O-])[n-]c(=S)[n-]c2=O)cc(C)n1Cc1ccccc1

>  <Energy>  (82) 
82.98167623709764

>  <Genealogy>  (82) 
C=c1c(=Cc2c([O-])[n-]c(=S)[n-]c2=O)cc(C)n1Cc1ccccc1 (protonated)
C=c1/c(=C\c2c([O-])[n-]c(=S)[n-]c2=O)cc(C)n1Cc1ccccc1 (cis-trans isomerization)
C=c1/c(=C\c2c([O-])[n-]c(=S)[n-]c2=O)cc(C)n1Cc1ccccc1 (3D coordinates assigned)
C=c1/c(=C\c2c([O-])[n-]c(=S)[n-]c2=O)cc(C)n1Cc1ccccc1 (optimized conformer: 82.98167623709764 kcal/mol)

>  <smiles>  (82) 
C=c1c(=Cc2c(O)[nH]c(=S)[nH]c2=O)cc(C)n1Cc1ccccc1

>  <score_type>  (82) 
oracle

>  <origin>  (82) 
adg

>  <m_score__min__energy>  (82) 
-15.210000000000001

>  <m_primary>  (82) 
energy

$$$$
82:0
     RDKit          3D

 55 58  0  0  0  0  0  0  0  0999 V2000
   64.2790   33.7620   51.5320 C   0  0  0  0  0  0  0  0  0  0  0  0
   64.4470   32.7230   50.1000 S   0  0  0  0  0  0  0  0  0  0  0  0
   65.6950   33.0970   49.3500 O   0  0  0  0  0  0  0  0  0  0  0  0
   64.5570   31.2860   50.5310 O   0  0  0  0  0  0  0  0  0  0  0  0
   63.0430   32.9300   49.0590 C   0  0  0  0  0  0  0  0  0  0  0  0
   62.1560   33.9930   49.2720 C   0  0  0  0  0  0  0  0  0  0  0  0
   61.0490   34.1650   48.4370 C   0  0  0  0  0  0  0  0  0  0  0  0
   60.8150   33.2790   47.3690 C   0  0  0  0  0  0  0  0  0  0  0  0
   59.6390   33.4600   46.4810 C   0  0  0  0  0  0  0  0  0  0  0  0
   59.2800   34.7350   46.0130 C   0  0  0  0  0  0  0  0  0  0  0  0
   58.2000   34.8880   45.2040 N   0  0  0  0  0  0  0  0  0  0  0  0
   57.4370   33.8350   44.8140 C   0  0  0  0  0  0  0  0  0  0  0  0
   57.7530   32.5360   45.2480 C   0  0  0  0  0  0  0  0  0  0  0  0
   57.0110   31.4040   44.8740 O   0  0  0  0  0  0  0  0  0  0  0  0
   57.4280   30.4190   43.9290 C   0  0  0  0  0  0  0  0  0  0  0  0
   58.0150   29.2230   44.6300 C   0  0  0  0  0  0  0  0  0  0  0  0
   59.3950   28.9810   44.5660 C   0  0  0  0  0  0  0  0  0  0  0  0
   59.9490   27.8850   45.2310 C   0  0  0  0  0  0  0  0  0  0  0  0
   59.1300   27.0200   45.9590 C   0  0  0  0  0  0  0  0  0  0  0  0
   57.7490   27.2350   46.0210 C   0  0  0  0  0  0  0  0  0  0  0  0
   56.9450   26.3320   46.7950 N   0  0  0  0  0  0  0  0  0  0  0  0
   55.7530   25.6650   46.3580 C   0  0  0  0  0  0  0  0  0  0  0  0
   54.7870   26.3250   45.8940 O   0  0  0  0  0  0  0  0  0  0  0  0
   55.6890   24.2360   46.3370 N   0  0  0  0  0  0  0  0  0  0  0  0
   56.1860   23.3820   45.2960 C   0  0  0  0  0  0  0  0  0  0  0  0
   55.8370   23.6650   43.9680 C   0  0  0  0  0  0  0  0  0  0  0  0
   56.2840   22.8430   42.9290 C   0  0  0  0  0  0  0  0  0  0  0  0
   57.0710   21.7240   43.2120 C   0  0  0  0  0  0  0  0  0  0  0  0
   57.4030   21.4180   44.5350 C   0  0  0  0  0  0  0  0  0  0  0  0
   56.9570   22.2390   45.5770 C   0  0  0  0  0  0  0  0  0  0  0  0
   57.1960   28.3560   45.3750 C   0  0  0  0  0  0  0  0  0  0  0  0
   58.8560   32.3620   46.0890 C   0  0  0  0  0  0  0  0  0  0  0  0
   61.7160   32.2190   47.1570 C   0  0  0  0  0  0  0  0  0  0  0  0
   62.8210   32.0480   47.9940 C   0  0  0  0  0  0  0  0  0  0  0  0
   64.3777   33.1514   52.4416 H   0  0  0  0  0  0  0  0  0  0  0  0
   65.0643   34.5322   51.5204 H   0  0  0  0  0  0  0  0  0  0  0  0
   63.2910   34.2455   51.5204 H   0  0  0  0  0  0  0  0  0  0  0  0
   62.3317   34.6953   50.1002 H   0  0  0  0  0  0  0  0  0  0  0  0
   60.3550   34.9995   48.6158 H   0  0  0  0  0  0  0  0  0  0  0  0
   59.8760   35.6129   46.3030 H   0  0  0  0  0  0  0  0  0  0  0  0
   56.5699   33.9987   44.1572 H   0  0  0  0  0  0  0  0  0  0  0  0
   56.5597   30.0987   43.3345 H   0  0  0  0  0  0  0  0  0  0  0  0
   58.1967   30.8585   43.2763 H   0  0  0  0  0  0  0  0  0  0  0  0
   60.0436   29.6572   43.9897 H   0  0  0  0  0  0  0  0  0  0  0  0
   61.0327   27.7030   45.1811 H   0  0  0  0  0  0  0  0  0  0  0  0
   59.5736   26.1634   46.4876 H   0  0  0  0  0  0  0  0  0  0  0  0
   55.2080   24.5387   43.7421 H   0  0  0  0  0  0  0  0  0  0  0  0
   56.0159   23.0775   41.8883 H   0  0  0  0  0  0  0  0  0  0  0  0
   57.4297   21.0831   42.3931 H   0  0  0  0  0  0  0  0  0  0  0  0
   58.0151   20.5315   44.7572 H   0  0  0  0  0  0  0  0  0  0  0  0
   57.2098   21.9901   46.6182 H   0  0  0  0  0  0  0  0  0  0  0  0
   56.1170   28.5553   45.4532 H   0  0  0  0  0  0  0  0  0  0  0  0
   59.1134   31.3544   46.4475 H   0  0  0  0  0  0  0  0  0  0  0  0
   61.5486   31.5192   46.3250 H   0  0  0  0  0  0  0  0  0  0  0  0
   63.5197   31.2172   47.8160 H   0  0  0  0  0  0  0  0  0  0  0  0
  1  2  1  0
  2  3  2  0
  2  4  2  0
  2  5  1  0
  5  6  2  0
  6  7  1  0
  7  8  2  0
  8  9  1  0
  9 10  2  0
 10 11  1  0
 11 12  2  0
 12 13  1  0
 13 14  1  0
 14 15  1  0
 15 16  1  0
 16 17  2  0
 17 18  1  0
 18 19  2  0
 19 20  1  0
 20 21  1  0
 21 22  1  0
 22 23  2  0
 22 24  1  0
 24 25  1  0
 25 26  2  0
 26 27  1  0
 27 28  2  0
 28 29  1  0
 29 30  2  0
 20 31  2  0
 13 32  2  0
  8 33  1  0
 33 34  2  0
 34  5  1  0
 32  9  1  0
 31 16  1  0
 30 25  1  0
  1 35  1  0
  1 36  1  0
  1 37  1  0
  6 38  1  0
  7 39  1  0
 10 40  1  0
 12 41  1  0
 15 42  1  0
 15 43  1  0
 17 44  1  0
 18 45  1  0
 19 46  1  0
 26 47  1  0
 27 48  1  0
 28 49  1  0
 29 50  1  0
 30 51  1  0
 31 52  1  0
 32 53  1  0
 33 54  1  0
 34 55  1  0
M  CHG  2  21  -1  24  -1
M  END
>  <UniqueID>  (83) 
77

>  <SMILES>  (83) 
CS(=O)(=O)c1ccc(-c2cncc(OCc3cccc([N-]C(=O)[N-]c4ccccc4)c3)c2)cc1

>  <Energy>  (83) 
69.33676086523296

>  <Genealogy>  (83) 
CS(=O)(=O)c1ccc(-c2cncc(OCc3cccc([N-]C(=O)[N-]c4ccccc4)c3)c2)cc1 (protonated)
CS(=O)(=O)c1ccc(-c2cncc(OCc3cccc([N-]C(=O)[N-]c4ccccc4)c3)c2)cc1 (3D coordinates assigned)
CS(=O)(=O)c1ccc(-c2cncc(OCc3cccc([N-]C(=O)[N-]c4ccccc4)c3)c2)cc1 (optimized conformer: 69.33676086523296 kcal/mol)

>  <smiles>  (83) 
CS(=O)(=O)c1ccc(-c2cncc(OCc3cccc(NC(=O)Nc4ccccc4)c3)c2)cc1

>  <score_type>  (83) 
oracle

>  <origin>  (83) 
adg

>  <m_score__min__energy>  (83) 
-13.94

>  <m_primary>  (83) 
energy

$$$$
83:0
     RDKit          3D

 59 63  0  0  0  0  0  0  0  0999 V2000
   55.9971   33.4201   45.4392 H   0  0  0  0  0  0  0  0  0  0  0  0
   57.0600   33.6610   45.5880 C   0  0  0  0  0  0  0  0  0  0  0  0
   57.5220   33.9460   46.8330 N   0  0  0  0  0  0  0  0  0  0  0  0
   58.8290   34.2620   47.0630 C   0  0  0  0  0  0  0  0  0  0  0  0
   59.2550   34.5200   48.2660 N   0  0  0  0  0  0  0  0  0  0  0  0
   60.2050   33.7490   49.0210 C   0  0  0  0  0  0  0  0  0  0  0  0
   61.0000   34.3580   49.7840 O   0  0  0  0  0  0  0  0  0  0  0  0
   60.2500   32.2690   48.9680 C   0  0  0  0  0  0  0  0  0  0  0  0
   61.4610   31.5790   49.1580 C   0  0  0  0  0  0  0  0  0  0  0  0
   62.3863   32.1418   49.3503 H   0  0  0  0  0  0  0  0  0  0  0  0
   61.4960   30.1830   49.1040 C   0  0  0  0  0  0  0  0  0  0  0  0
   62.4450   29.6515   49.2681 H   0  0  0  0  0  0  0  0  0  0  0  0
   60.3240   29.4570   48.8410 C   0  0  0  0  0  0  0  0  0  0  0  0
   60.3470   27.9510   48.7900 C   0  0  0  0  0  0  0  0  0  0  0  0
   61.3867   27.6057   48.6908 H   0  0  0  0  0  0  0  0  0  0  0  0
   59.9081   27.5515   49.7162 H   0  0  0  0  0  0  0  0  0  0  0  0
   59.5590   27.4720   47.6330 N   0  0  0  0  0  0  0  0  0  0  0  0
   59.3890   25.9980   47.6800 C   0  0  0  0  0  0  0  0  0  0  0  0
   60.3100   25.5179   47.3176 H   0  0  0  0  0  0  0  0  0  0  0  0
   59.1834   25.7018   48.7192 H   0  0  0  0  0  0  0  0  0  0  0  0
   58.2300   25.5590   46.8160 C   0  0  0  0  0  0  0  0  0  0  0  0
   57.0350   26.3060   46.8270 C   0  0  0  0  0  0  0  0  0  0  0  0
   56.9426   27.1790   47.4899 H   0  0  0  0  0  0  0  0  0  0  0  0
   55.9660   25.9450   46.0010 C   0  0  0  0  0  0  0  0  0  0  0  0
   54.8020   26.7080   46.0000 O   0  0  0  0  0  0  0  0  0  0  0  0
   56.0690   24.8220   45.1760 C   0  0  0  0  0  0  0  0  0  0  0  0
   55.2306   24.5437   44.5205 H   0  0  0  0  0  0  0  0  0  0  0  0
   57.2360   24.0510   45.1820 C   0  0  0  0  0  0  0  0  0  0  0  0
   57.3073   23.1602   44.5407 H   0  0  0  0  0  0  0  0  0  0  0  0
   58.3150   24.4090   46.0020 C   0  0  0  0  0  0  0  0  0  0  0  0
   59.4610   23.6190   45.9960 O   0  0  0  0  0  0  0  0  0  0  0  0
   60.1720   27.9220   46.3570 C   0  0  0  0  0  0  0  0  0  0  0  0
   60.7545   28.8376   46.5371 H   0  0  0  0  0  0  0  0  0  0  0  0
   60.8293   27.1269   45.9753 H   0  0  0  0  0  0  0  0  0  0  0  0
   59.1030   28.2060   45.3370 C   0  0  0  0  0  0  0  0  0  0  0  0
   58.8980   27.3020   44.2630 C   0  0  0  0  0  0  0  0  0  0  0  0
   59.4783   26.3686   44.2188 H   0  0  0  0  0  0  0  0  0  0  0  0
   57.9610   27.5870   43.2550 C   0  0  0  0  0  0  0  0  0  0  0  0
   57.7983   26.8920   42.4181 H   0  0  0  0  0  0  0  0  0  0  0  0
   57.2450   28.7780   43.3500 C   0  0  0  0  0  0  0  0  0  0  0  0
   57.4310   29.6490   44.3900 C   0  0  0  0  0  0  0  0  0  0  0  0
   58.3420   29.3960   45.4090 C   0  0  0  0  0  0  0  0  0  0  0  0
   58.4671   30.0994   46.2454 H   0  0  0  0  0  0  0  0  0  0  0  0
   56.5850   30.7210   44.1880 C   0  0  0  0  0  0  0  0  0  0  0  0
   56.4707   31.6116   44.8235 H   0  0  0  0  0  0  0  0  0  0  0  0
   55.9080   30.4320   43.0070 C   0  0  0  0  0  0  0  0  0  0  0  0
   55.1463   31.0798   42.5486 H   0  0  0  0  0  0  0  0  0  0  0  0
   56.3150   29.2440   42.4990 N   0  0  0  0  0  0  0  0  0  0  0  0
   55.9720   28.7850   41.6280 H   0  0  0  0  0  0  0  0  0  0  0  0
   59.1170   30.1450   48.6460 C   0  0  0  0  0  0  0  0  0  0  0  0
   58.1916   29.5824   48.4535 H   0  0  0  0  0  0  0  0  0  0  0  0
   59.0840   31.5400   48.6950 C   0  0  0  0  0  0  0  0  0  0  0  0
   58.1368   32.0706   48.5182 H   0  0  0  0  0  0  0  0  0  0  0  0
   59.7340   34.2760   45.9880 C   0  0  0  0  0  0  0  0  0  0  0  0
   61.0730   34.5810   46.1890 O   0  0  0  0  0  0  0  0  0  0  0  0
   59.2730   33.9760   44.7010 C   0  0  0  0  0  0  0  0  0  0  0  0
   59.9720   33.9798   43.8516 H   0  0  0  0  0  0  0  0  0  0  0  0
   57.9310   33.6730   44.4960 C   0  0  0  0  0  0  0  0  0  0  0  0
   57.5600   33.4455   43.4858 H   0  0  0  0  0  0  0  0  0  0  0  0
  1  2  1  0
  2  3  1  0
  3  4  1  0
  4  5  2  0
  5  6  1  0
  6  7  2  0
  6  8  1  0
  8  9  2  0
  9 10  1  0
  9 11  1  0
 11 12  1  0
 11 13  2  0
 13 14  1  0
 14 15  1  0
 14 16  1  0
 14 17  1  0
 17 18  1  0
 18 19  1  0
 18 20  1  0
 18 21  1  0
 21 22  2  0
 22 23  1  0
 22 24  1  0
 24 25  1  0
 24 26  2  0
 26 27  1  0
 26 28  1  0
 28 29  1  0
 28 30  2  0
 30 31  1  0
 17 32  1  0
 32 33  1  0
 32 34  1  0
 32 35  1  0
 35 36  2  0
 36 37  1  0
 36 38  1  0
 38 39  1  0
 38 40  2  0
 40 41  1  0
 41 42  2  0
 42 43  1  0
 41 44  1  0
 44 45  1  0
 44 46  2  0
 46 47  1  0
 46 48  1  0
 48 49  1  0
 13 50  1  0
 50 51  1  0
 50 52  2  0
 52 53  1  0
  4 54  1  0
 54 55  1  0
 54 56  2  0
 56 57  1  0
 56 58  1  0
 58 59  1  0
 58  2  2  0
 52  8  1  0
 30 21  1  0
 42 35  1  0
 48 40  1  0
M  CHG  4   3  -1  25  -1  31  -1  55  -1
M  END
>  <UniqueID>  (84) 
78

>  <SMILES>  (84) 
O=C(/N=c1\[n-]cccc1[O-])c1ccc(CN(Cc2ccc3[nH]ccc3c2)Cc2cc([O-])ccc2[O-])cc1

>  <Energy>  (84) 
106.68637997636885

>  <Genealogy>  (84) 
O=C(N=c1[n-]cccc1[O-])c1ccc(CN(Cc2ccc3[nH]ccc3c2)Cc2cc([O-])ccc2[O-])cc1 (protonated)
O=C(/N=c1\[n-]cccc1[O-])c1ccc(CN(Cc2ccc3[nH]ccc3c2)Cc2cc([O-])ccc2[O-])cc1 (cis-trans isomerization)
O=C(/N=c1\[n-]cccc1[O-])c1ccc(CN(Cc2ccc3[nH]ccc3c2)Cc2cc([O-])ccc2[O-])cc1 (3D coordinates assigned)
O=C(/N=c1\[n-]cccc1[O-])c1ccc(CN(Cc2ccc3[nH]ccc3c2)Cc2cc([O-])ccc2[O-])cc1 (optimized conformer: 106.68637997636885 kcal/mol)

>  <smiles>  (84) 
O=C(N=c1[nH]cccc1O)c1ccc(CN(Cc2ccc3[nH]ccc3c2)Cc2cc(O)ccc2O)cc1

>  <score_type>  (84) 
oracle

>  <origin>  (84) 
adg

>  <m_score__min__energy>  (84) 
-18.91

>  <m_primary>  (84) 
energy

$$$$
84:0
     RDKit          3D

 50 53  0  0  0  0  0  0  0  0999 V2000
   57.2910   33.8170   45.6030 C   0  0  0  0  0  0  0  0  0  0  0  0
   58.5080   33.9120   46.4550 C   0  0  0  0  0  0  0  0  0  0  0  0
   58.9960   32.8580   47.1560 N   0  0  0  0  0  0  0  0  0  0  0  0
   60.1000   33.2480   47.8330 C   0  0  0  0  0  0  0  0  0  0  0  0
   60.9130   32.3670   48.7170 C   0  0  0  0  0  0  0  0  0  0  0  0
   60.0410   31.8380   49.7300 N   0  0  0  0  0  0  0  0  0  0  0  0
   59.4620   30.6300   49.7380 C   0  0  0  0  0  0  0  0  0  0  0  0
   59.5580   29.5520   48.7550 C   0  0  0  0  0  0  0  0  0  0  0  0
   59.8700   28.3750   49.0820 O   0  0  0  0  0  0  0  0  0  0  0  0
   59.3010   29.7980   47.3930 N   0  0  0  0  0  0  0  0  0  0  0  0
   59.3750   28.7950   46.3720 C   0  0  0  0  0  0  0  0  0  0  0  0
   58.1960   27.9010   46.3010 C   0  0  0  0  0  0  0  0  0  0  0  0
   58.1670   26.6400   46.8810 C   0  0  0  0  0  0  0  0  0  0  0  0
   57.0150   25.8600   46.7620 C   0  0  0  0  0  0  0  0  0  0  0  0
   55.9300   26.3810   46.0620 C   0  0  0  0  0  0  0  0  0  0  0  0
   54.8730   25.6700   45.9490 N   0  0  0  0  0  0  0  0  0  0  0  0
   55.9740   27.6040   45.5070 N   0  0  0  0  0  0  0  0  0  0  0  0
   57.0920   28.3770   45.6150 C   0  0  0  0  0  0  0  0  0  0  0  0
   57.0840   29.7270   44.9790 C   0  0  0  0  0  0  0  0  0  0  0  0
   58.7170   30.5700   50.8970 C   0  0  0  0  0  0  0  0  0  0  0  0
   58.8410   31.7470   51.6040 C   0  0  0  0  0  0  0  0  0  0  0  0
   58.3000   32.1770   52.8080 C   0  0  0  0  0  0  0  0  0  0  0  0
   58.6260   33.4470   53.2590 C   0  0  0  0  0  0  0  0  0  0  0  0
   59.4680   34.2270   52.4980 C   0  0  0  0  0  0  0  0  0  0  0  0
   60.0120   33.8090   51.2970 C   0  0  0  0  0  0  0  0  0  0  0  0
   59.6830   32.5350   50.8480 C   0  0  0  0  0  0  0  0  0  0  0  0
   60.2750   34.5790   47.5220 C   0  0  0  0  0  0  0  0  0  0  0  0
   59.2980   34.9920   46.6740 N   0  0  0  0  0  0  0  0  0  0  0  0
   56.3995   33.7474   46.2436 H   0  0  0  0  0  0  0  0  0  0  0  0
   57.2172   34.7121   44.9679 H   0  0  0  0  0  0  0  0  0  0  0  0
   57.3570   32.9213   44.9679 H   0  0  0  0  0  0  0  0  0  0  0  0
   61.3466   31.5444   48.1293 H   0  0  0  0  0  0  0  0  0  0  0  0
   61.7353   32.9356   49.1758 H   0  0  0  0  0  0  0  0  0  0  0  0
   59.0410   30.7680   47.1200 H   0  0  0  0  0  0  0  0  0  0  0  0
   59.4814   29.3007   45.4010 H   0  0  0  0  0  0  0  0  0  0  0  0
   60.2358   28.1575   46.6223 H   0  0  0  0  0  0  0  0  0  0  0  0
   59.0420   26.2595   47.4283 H   0  0  0  0  0  0  0  0  0  0  0  0
   56.9658   24.8570   47.2109 H   0  0  0  0  0  0  0  0  0  0  0  0
   53.9550   25.9360   46.3730 H   0  0  0  0  0  0  0  0  0  0  0  0
   55.1530   28.0000   44.9780 H   0  0  0  0  0  0  0  0  0  0  0  0
   57.0794   30.5007   45.7609 H   0  0  0  0  0  0  0  0  0  0  0  0
   57.9815   29.8430   44.3536 H   0  0  0  0  0  0  0  0  0  0  0  0
   56.1852   29.8324   44.3536 H   0  0  0  0  0  0  0  0  0  0  0  0
   58.1113   29.7075   51.2119 H   0  0  0  0  0  0  0  0  0  0  0  0
   57.6298   31.5268   53.3894 H   0  0  0  0  0  0  0  0  0  0  0  0
   58.2190   33.8250   54.2084 H   0  0  0  0  0  0  0  0  0  0  0  0
   59.7206   35.2332   52.8637 H   0  0  0  0  0  0  0  0  0  0  0  0
   60.6815   34.4616   50.7174 H   0  0  0  0  0  0  0  0  0  0  0  0
   61.0874   35.2142   47.9047 H   0  0  0  0  0  0  0  0  0  0  0  0
   59.1640   35.9470   46.2610 H   0  0  0  0  0  0  0  0  0  0  0  0
  1  2  1  0
  2  3  2  0
  3  4  1  0
  4  5  1  0
  5  6  1  0
  6  7  1  0
  7  8  1  0
  8  9  2  0
  8 10  1  0
 10 11  1  0
 11 12  1  0
 12 13  1  0
 13 14  2  0
 14 15  1  0
 15 16  2  3
 15 17  1  0
 17 18  1  0
 18 19  1  0
  7 20  2  0
 20 21  1  0
 21 22  2  0
 22 23  1  0
 23 24  2  0
 24 25  1  0
 25 26  2  0
  4 27  2  0
 27 28  1  0
 28  2  1  0
 26  6  1  0
 18 12  2  0
 26 21  1  0
  1 29  1  0
  1 30  1  0
  1 31  1  0
  5 32  1  0
  5 33  1  0
 10 34  1  0
 11 35  1  0
 11 36  1  0
 13 37  1  0
 14 38  1  0
 16 39  1  0
 17 40  1  0
 19 41  1  0
 19 42  1  0
 19 43  1  0
 20 44  1  0
 22 45  1  0
 23 46  1  0
 24 47  1  0
 25 48  1  0
 27 49  1  0
 28 50  1  0
M  END
>  <smiles>  (85) 
Cc1nc(Cn2c(C(=O)NCc3ccc(=N)[nH]c3C)cc3ccccc32)c[nH]1

>  <score_type>  (85) 
oracle

>  <origin>  (85) 
adg

>  <m_score__min__energy>  (85) 
-8.4900000000000002

>  <m_primary>  (85) 
energy

$$$$
85:0
     RDKit          3D

 33 34  0  0  0  0  0  0  0  0999 V2000
   52.8260   24.5520   45.2930 H   0  0  0  0  0  0  0  0  0  0  0  0
   53.5340   23.8610   45.0780 O   0  0  0  0  0  0  0  0  0  0  0  0
   54.8960   24.1630   45.0980 C   0  0  0  0  0  0  0  0  0  0  0  0
   55.8460   23.2350   44.6410 C   0  0  0  0  0  0  0  0  0  0  0  0
   55.4480   21.9900   44.1680 O   0  0  0  0  0  0  0  0  0  0  0  0
   57.2030   23.5640   44.6520 C   0  0  0  0  0  0  0  0  0  0  0  0
   57.9452   22.8407   44.2833 H   0  0  0  0  0  0  0  0  0  0  0  0
   57.6210   24.8070   45.1290 C   0  0  0  0  0  0  0  0  0  0  0  0
   58.6902   25.0649   45.1120 H   0  0  0  0  0  0  0  0  0  0  0  0
   56.6900   25.7330   45.6310 C   0  0  0  0  0  0  0  0  0  0  0  0
   57.1710   27.0830   46.1160 C   0  0  0  0  0  0  0  0  0  0  0  0
   57.7644   26.9366   47.0306 H   0  0  0  0  0  0  0  0  0  0  0  0
   56.2820   27.7039   46.3006 H   0  0  0  0  0  0  0  0  0  0  0  0
   58.0220   27.8010   45.1000 C   0  0  0  0  0  0  0  0  0  0  0  0
   58.8565   27.2318   44.6645 H   0  0  0  0  0  0  0  0  0  0  0  0
   57.8660   29.0640   44.6720 C   0  0  0  0  0  0  0  0  0  0  0  0
   58.7093   29.5025   44.1183 H   0  0  0  0  0  0  0  0  0  0  0  0
   56.6830   29.9280   44.8650 C   0  0  0  0  0  0  0  0  0  0  0  0
   55.5740   29.3790   45.1060 O   0  0  0  0  0  0  0  0  0  0  0  0
   56.7840   31.3550   44.8680 N   0  0  0  0  0  0  0  0  0  0  0  0
   57.6780   32.1250   45.6830 C   0  0  0  0  0  0  0  0  0  0  0  0
   58.6570   31.4510   46.4250 C   0  0  0  0  0  0  0  0  0  0  0  0
   58.7171   30.3535   46.3811 H   0  0  0  0  0  0  0  0  0  0  0  0
   59.5580   32.1650   47.2210 C   0  0  0  0  0  0  0  0  0  0  0  0
   60.3159   31.6282   47.8104 H   0  0  0  0  0  0  0  0  0  0  0  0
   59.4960   33.5590   47.2680 C   0  0  0  0  0  0  0  0  0  0  0  0
   60.1977   34.1190   47.9036 H   0  0  0  0  0  0  0  0  0  0  0  0
   58.5430   34.2440   46.5080 C   0  0  0  0  0  0  0  0  0  0  0  0
   58.5012   35.3427   46.5412 H   0  0  0  0  0  0  0  0  0  0  0  0
   57.6420   33.5350   45.7050 C   0  0  0  0  0  0  0  0  0  0  0  0
   56.7460   34.2400   44.9110 O   0  0  0  0  0  0  0  0  0  0  0  0
   55.3150   25.4130   45.5780 C   0  0  0  0  0  0  0  0  0  0  0  0
   54.3570   26.3340   45.9900 O   0  0  0  0  0  0  0  0  0  0  0  0
  1  2  1  0
  2  3  1  0
  3  4  2  0
  4  5  1  0
  4  6  1  0
  6  7  1  0
  6  8  2  0
  8  9  1  0
  8 10  1  0
 10 11  1  0
 11 12  1  0
 11 13  1  0
 11 14  1  0
 14 15  1  0
 14 16  2  0
 16 17  1  0
 16 18  1  0
 18 19  2  0
 18 20  1  0
 20 21  1  0
 21 22  2  0
 22 23  1  0
 22 24  1  0
 24 25  1  0
 24 26  2  0
 26 27  1  0
 26 28  1  0
 28 29  1  0
 28 30  2  0
 30 31  1  0
 10 32  2  0
 32 33  1  0
 32  3  1  0
 30 21  1  0
M  CHG  4   5  -1  20  -1  31  -1  33  -1
M  END
>  <UniqueID>  (86) 
79

>  <SMILES>  (86) 
O=C(/C=C\Cc1ccc([O-])c(O)c1[O-])[N-]c1ccccc1[O-]

>  <Energy>  (86) 
41.83031707050254

>  <Genealogy>  (86) 
O=C(C=CCc1ccc([O-])c(O)c1[O-])[N-]c1ccccc1[O-] (protonated)
O=C(/C=C\Cc1ccc([O-])c(O)c1[O-])[N-]c1ccccc1[O-] (cis-trans isomerization)
O=C(/C=C\Cc1ccc([O-])c(O)c1[O-])[N-]c1ccccc1[O-] (3D coordinates assigned)
O=C(/C=C\Cc1ccc([O-])c(O)c1[O-])[N-]c1ccccc1[O-] (optimized conformer: 41.83031707050254 kcal/mol)

>  <smiles>  (86) 
O=C(C=CCc1ccc(O)c(O)c1O)Nc1ccccc1O

>  <score_type>  (86) 
oracle

>  <origin>  (86) 
adg

>  <m_score__min__energy>  (86) 
-16.550000000000001

>  <m_primary>  (86) 
energy

$$$$
86:0
     RDKit          3D

 53 55  0  0  0  0  0  0  0  0999 V2000
   63.5690   33.4800   46.7220 C   0  0  0  0  0  0  0  0  0  0  0  0
   62.2900   33.9960   46.3650 O   0  0  0  0  0  0  0  0  0  0  0  0
   61.0830   33.5920   46.9540 C   0  0  0  0  0  0  0  0  0  0  0  0
   61.1380   32.8470   48.1370 C   0  0  0  0  0  0  0  0  0  0  0  0
   59.9630   32.4270   48.7660 C   0  0  0  0  0  0  0  0  0  0  0  0
   58.7210   32.7480   48.2150 C   0  0  0  0  0  0  0  0  0  0  0  0
   58.6440   33.4830   47.0240 C   0  0  0  0  0  0  0  0  0  0  0  0
   57.3030   33.8300   46.4370 C   0  0  0  0  0  0  0  0  0  0  0  0
   57.3150   33.6180   44.6250 S   0  0  0  0  0  0  0  0  0  0  0  0
   57.7190   31.8760   44.6940 C   0  0  0  0  0  0  0  0  0  0  0  0
   56.8150   30.8960   44.8780 N   0  0  0  0  0  0  0  0  0  0  0  0
   57.4920   29.7600   44.8430 N   0  0  0  0  0  0  0  0  0  0  0  0
   58.7820   30.0960   44.6410 C   0  0  0  0  0  0  0  0  0  0  0  0
   59.9010   29.1130   44.5310 C   0  0  0  0  0  0  0  0  0  0  0  0
   59.9380   28.2600   45.7170 N   0  0  0  0  0  0  0  0  0  0  0  0
   59.7180   28.7720   47.0380 C   0  0  0  0  0  0  0  0  0  0  0  0
   59.5080   30.0020   47.2150 O   0  0  0  0  0  0  0  0  0  0  0  0
   59.8150   27.8510   48.2200 C   0  0  0  0  0  0  0  0  0  0  0  0
   59.4460   26.5160   47.8690 O   0  0  0  0  0  0  0  0  0  0  0  0
   58.2200   26.1350   47.3000 C   0  0  0  0  0  0  0  0  0  0  0  0
   57.4370   27.0120   46.5250 C   0  0  0  0  0  0  0  0  0  0  0  0
   56.2180   26.5810   45.9920 C   0  0  0  0  0  0  0  0  0  0  0  0
   55.7440   25.2910   46.2520 C   0  0  0  0  0  0  0  0  0  0  0  0
   54.4550   24.9200   45.7420 N   0  0  0  0  0  0  0  0  0  0  0  0
   53.9430   23.3010   45.3840 S   0  0  0  0  0  0  0  0  0  0  0  0
   53.7910   22.3540   46.8840 C   0  0  0  0  0  0  0  0  0  0  0  0
   54.9220   22.6510   44.4480 O   0  0  0  0  0  0  0  0  0  0  0  0
   52.5960   23.3550   44.7170 O   0  0  0  0  0  0  0  0  0  0  0  0
   56.5360   24.4090   47.0070 C   0  0  0  0  0  0  0  0  0  0  0  0
   57.7660   24.8300   47.5170 C   0  0  0  0  0  0  0  0  0  0  0  0
   58.9290   31.3950   44.5560 O   0  0  0  0  0  0  0  0  0  0  0  0
   59.8280   33.9120   46.4000 C   0  0  0  0  0  0  0  0  0  0  0  0
   63.6572   33.4444   47.8179 H   0  0  0  0  0  0  0  0  0  0  0  0
   63.6827   32.4657   46.3119 H   0  0  0  0  0  0  0  0  0  0  0  0
   64.3547   34.1315   46.3119 H   0  0  0  0  0  0  0  0  0  0  0  0
   62.1136   32.5899   48.5753 H   0  0  0  0  0  0  0  0  0  0  0  0
   60.0167   31.8427   49.6964 H   0  0  0  0  0  0  0  0  0  0  0  0
   57.7985   32.4225   48.7180 H   0  0  0  0  0  0  0  0  0  0  0  0
   56.5373   33.1710   46.8722 H   0  0  0  0  0  0  0  0  0  0  0  0
   57.0785   34.8819   46.6676 H   0  0  0  0  0  0  0  0  0  0  0  0
   59.7503   28.4885   43.6381 H   0  0  0  0  0  0  0  0  0  0  0  0
   60.8528   29.6584   44.4497 H   0  0  0  0  0  0  0  0  0  0  0  0
   60.1600   27.2450   45.5940 H   0  0  0  0  0  0  0  0  0  0  0  0
   60.8508   27.8510   48.5903 H   0  0  0  0  0  0  0  0  0  0  0  0
   59.1241   28.2094   48.9973 H   0  0  0  0  0  0  0  0  0  0  0  0
   57.7850   28.0387   46.3384 H   0  0  0  0  0  0  0  0  0  0  0  0
   55.6267   27.2625   45.3627 H   0  0  0  0  0  0  0  0  0  0  0  0
   53.8982   23.0217   47.7516 H   0  0  0  0  0  0  0  0  0  0  0  0
   52.8037   21.8700   46.9136 H   0  0  0  0  0  0  0  0  0  0  0  0
   54.5773   21.5853   46.9136 H   0  0  0  0  0  0  0  0  0  0  0  0
   56.1859   23.3836   47.1968 H   0  0  0  0  0  0  0  0  0  0  0  0
   58.3843   24.1278   48.0955 H   0  0  0  0  0  0  0  0  0  0  0  0
   59.7743   34.5015   45.4729 H   0  0  0  0  0  0  0  0  0  0  0  0
  1  2  1  0
  2  3  1  0
  3  4  2  0
  4  5  1  0
  5  6  2  0
  6  7  1  0
  7  8  1  0
  8  9  1  0
  9 10  1  0
 10 11  2  0
 11 12  1  0
 12 13  2  0
 13 14  1  0
 14 15  1  0
 15 16  1  0
 16 17  2  0
 16 18  1  0
 18 19  1  0
 19 20  1  0
 20 21  2  0
 21 22  1  0
 22 23  2  0
 23 24  1  0
 24 25  1  0
 25 26  1  0
 25 27  2  0
 25 28  2  0
 23 29  1  0
 29 30  2  0
 13 31  1  0
  7 32  2  0
 32  3  1  0
 31 10  1  0
 30 20  1  0
  1 33  1  0
  1 34  1  0
  1 35  1  0
  4 36  1  0
  5 37  1  0
  6 38  1  0
  8 39  1  0
  8 40  1  0
 14 41  1  0
 14 42  1  0
 15 43  1  0
 18 44  1  0
 18 45  1  0
 21 46  1  0
 22 47  1  0
 26 48  1  0
 26 49  1  0
 26 50  1  0
 29 51  1  0
 30 52  1  0
 32 53  1  0
M  CHG  1  24  -1
M  END
>  <UniqueID>  (87) 
80

>  <SMILES>  (87) 
COc1cccc(CSc2nnc(CNC(=O)COc3ccc([N-]S(C)(=O)=O)cc3)o2)c1

>  <Energy>  (87) 
71.52440582240514

>  <Genealogy>  (87) 
COc1cccc(CSc2nnc(CNC(=O)COc3ccc([N-]S(C)(=O)=O)cc3)o2)c1 (protonated)
COc1cccc(CSc2nnc(CNC(=O)COc3ccc([N-]S(C)(=O)=O)cc3)o2)c1 (3D coordinates assigned)
COc1cccc(CSc2nnc(CNC(=O)COc3ccc([N-]S(C)(=O)=O)cc3)o2)c1 (optimized conformer: 71.52440582240514 kcal/mol)

>  <smiles>  (87) 
COc1cccc(CSc2nnc(CNC(=O)COc3ccc(NS(C)(=O)=O)cc3)o2)c1

>  <score_type>  (87) 
oracle

>  <origin>  (87) 
adg

>  <m_score__min__energy>  (87) 
-9.5299999999999994

>  <m_primary>  (87) 
energy

$$$$
87:0
     RDKit          3D

 39 40  0  0  0  0  0  0  0  0999 V2000
   59.4970   34.6870   46.8320 C   0  0  0  0  0  0  0  0  0  0  0  0
   59.5620   33.1670   46.6480 C   0  0  0  0  0  0  0  0  0  0  0  0
   59.6420   32.4540   48.0010 C   0  0  0  0  0  0  0  0  0  0  0  0
   58.3720   32.6770   45.8720 C   0  0  0  0  0  0  0  0  0  0  0  0
   57.1120   33.0960   46.1020 N   0  0  0  0  0  0  0  0  0  0  0  0
   56.3890   32.4800   45.2170 O   0  0  0  0  0  0  0  0  0  0  0  0
   57.1570   31.7220   44.4750 C   0  0  0  0  0  0  0  0  0  0  0  0
   56.6670   30.8940   43.3310 C   0  0  0  0  0  0  0  0  0  0  0  0
   55.7630   29.7680   43.8380 C   0  0  0  0  0  0  0  0  0  0  0  0
   56.0970   29.4430   45.2240 N   0  0  0  0  0  0  0  0  0  0  0  0
   57.4590   28.3620   45.3160 S   0  0  0  0  0  0  0  0  0  0  0  0
   57.5990   27.6290   44.0110 O   0  0  0  0  0  0  0  0  0  0  0  0
   58.7300   29.1140   45.6000 O   0  0  0  0  0  0  0  0  0  0  0  0
   57.1690   27.1850   46.6240 C   0  0  0  0  0  0  0  0  0  0  0  0
   56.8630   25.8310   46.0400 C   0  0  0  0  0  0  0  0  0  0  0  0
   57.9160   24.9490   45.7400 C   0  0  0  0  0  0  0  0  0  0  0  0
   57.6530   23.7110   45.1440 C   0  0  0  0  0  0  0  0  0  0  0  0
   56.3400   23.3460   44.8390 C   0  0  0  0  0  0  0  0  0  0  0  0
   55.2870   24.2180   45.1270 C   0  0  0  0  0  0  0  0  0  0  0  0
   55.5410   25.4580   45.7220 C   0  0  0  0  0  0  0  0  0  0  0  0
   54.4780   26.3150   45.9870 O   0  0  0  0  0  0  0  0  0  0  0  0
   58.4510   31.8100   44.8390 N   0  0  0  0  0  0  0  0  0  0  0  0
   59.4868   34.9263   47.9056 H   0  0  0  0  0  0  0  0  0  0  0  0
   60.3761   35.1513   46.3612 H   0  0  0  0  0  0  0  0  0  0  0  0
   58.5815   35.0745   46.3612 H   0  0  0  0  0  0  0  0  0  0  0  0
   60.4744   32.9334   46.0796 H   0  0  0  0  0  0  0  0  0  0  0  0
   59.5590   33.1938   48.8108 H   0  0  0  0  0  0  0  0  0  0  0  0
   58.8197   31.7279   48.0820 H   0  0  0  0  0  0  0  0  0  0  0  0
   60.6048   31.9282   48.0820 H   0  0  0  0  0  0  0  0  0  0  0  0
   56.0980   31.5322   42.6389 H   0  0  0  0  0  0  0  0  0  0  0  0
   57.5313   30.4527   42.8131 H   0  0  0  0  0  0  0  0  0  0  0  0
   54.7130   30.0912   43.7827 H   0  0  0  0  0  0  0  0  0  0  0  0
   55.9127   28.8758   43.2122 H   0  0  0  0  0  0  0  0  0  0  0  0
   58.0664   27.1146   47.2563 H   0  0  0  0  0  0  0  0  0  0  0  0
   56.3126   27.5198   47.2277 H   0  0  0  0  0  0  0  0  0  0  0  0
   58.9521   25.2339   45.9752 H   0  0  0  0  0  0  0  0  0  0  0  0
   58.4813   23.0243   44.9153 H   0  0  0  0  0  0  0  0  0  0  0  0
   56.1347   22.3715   44.3718 H   0  0  0  0  0  0  0  0  0  0  0  0
   54.2539   23.9281   44.8848 H   0  0  0  0  0  0  0  0  0  0  0  0
  1  2  1  0
  2  3  1  0
  2  4  1  0
  4  5  2  0
  5  6  1  0
  6  7  1  0
  7  8  1  0
  8  9  1  0
  9 10  1  0
 10 11  1  0
 11 12  2  0
 11 13  2  0
 11 14  1  0
 14 15  1  0
 15 16  2  0
 16 17  1  0
 17 18  2  0
 18 19  1  0
 19 20  2  0
 20 21  1  0
  7 22  2  0
 22  4  1  0
 20 15  1  0
  1 23  1  0
  1 24  1  0
  1 25  1  0
  2 26  1  0
  3 27  1  0
  3 28  1  0
  3 29  1  0
  8 30  1  0
  8 31  1  0
  9 32  1  0
  9 33  1  0
 14 34  1  0
 14 35  1  0
 16 36  1  0
 17 37  1  0
 18 38  1  0
 19 39  1  0
M  CHG  2  10  -1  21  -1
M  END
>  <UniqueID>  (88) 
81

>  <SMILES>  (88) 
CC(C)c1noc(CC[N-]S(=O)(=O)Cc2ccccc2[O-])n1

>  <Energy>  (88) 
57.96799826280445

>  <Genealogy>  (88) 
CC(C)c1noc(CC[N-]S(=O)(=O)Cc2ccccc2[O-])n1 (protonated)
CC(C)c1noc(CC[N-]S(=O)(=O)Cc2ccccc2[O-])n1 (3D coordinates assigned)
CC(C)c1noc(CC[N-]S(=O)(=O)Cc2ccccc2[O-])n1 (optimized conformer: 57.96799826280445 kcal/mol)

>  <smiles>  (88) 
CC(C)c1noc(CCNS(=O)(=O)Cc2ccccc2O)n1

>  <score_type>  (88) 
oracle

>  <origin>  (88) 
adg

>  <m_score__min__energy>  (88) 
-12.960000000000001

>  <m_primary>  (88) 
energy

$$$$
88:0
     RDKit          3D

 48 50  0  0  0  0  0  0  0  0999 V2000
   60.4132   34.3042   49.2999 H   0  0  0  0  0  0  0  0  0  0  0  0
   61.2860   33.7510   48.9230 C   0  0  0  0  0  0  0  0  0  0  0  0
   62.1430   33.1080   49.8210 C   0  0  0  0  0  0  0  0  0  0  0  0
   61.9430   33.1605   50.9014 H   0  0  0  0  0  0  0  0  0  0  0  0
   63.2570   32.3960   49.3510 C   0  0  0  0  0  0  0  0  0  0  0  0
   64.2040   31.7330   50.3130 C   0  0  0  0  0  0  0  0  0  0  0  0
   63.6431   31.3808   51.1913 H   0  0  0  0  0  0  0  0  0  0  0  0
   64.6885   30.8817   49.8125 H   0  0  0  0  0  0  0  0  0  0  0  0
   65.2300   32.6830   50.7430 N   0  0  0  0  0  0  0  0  0  0  0  0
   66.6250   32.4950   50.6200 C   0  0  0  0  0  0  0  0  0  0  0  0
   67.1410   31.4560   50.1290 O   0  0  0  0  0  0  0  0  0  0  0  0
   67.4060   33.6470   51.1100 C   0  0  0  0  0  0  0  0  0  0  0  0
   67.9891   34.1021   50.2959 H   0  0  0  0  0  0  0  0  0  0  0  0
   68.1387   33.3716   51.8828 H   0  0  0  0  0  0  0  0  0  0  0  0
   66.3280   34.6160   51.6230 C   0  0  0  0  0  0  0  0  0  0  0  0
   66.4267   35.5888   51.1190 H   0  0  0  0  0  0  0  0  0  0  0  0
   66.4359   34.7782   52.7056 H   0  0  0  0  0  0  0  0  0  0  0  0
   64.9550   33.9930   51.3010 C   0  0  0  0  0  0  0  0  0  0  0  0
   64.4157   34.6138   50.5704 H   0  0  0  0  0  0  0  0  0  0  0  0
   64.3241   33.9233   52.1994 H   0  0  0  0  0  0  0  0  0  0  0  0
   63.5110   32.3480   47.9720 C   0  0  0  0  0  0  0  0  0  0  0  0
   64.3882   31.8014   47.5955 H   0  0  0  0  0  0  0  0  0  0  0  0
   62.6540   32.9920   47.0740 C   0  0  0  0  0  0  0  0  0  0  0  0
   62.8593   32.9478   45.9942 H   0  0  0  0  0  0  0  0  0  0  0  0
   61.5340   33.6940   47.5430 C   0  0  0  0  0  0  0  0  0  0  0  0
   60.6330   34.4060   46.5720 C   0  0  0  0  0  0  0  0  0  0  0  0
   61.2374   34.8158   45.7493 H   0  0  0  0  0  0  0  0  0  0  0  0
   60.1117   35.2197   47.0975 H   0  0  0  0  0  0  0  0  0  0  0  0
   59.6430   33.4800   46.0280 N   0  0  0  0  0  0  0  0  0  0  0  0
   59.8160   32.4570   46.1460 H   0  0  0  0  0  0  0  0  0  0  0  0
   58.5260   33.9240   45.2390 C   0  0  0  0  0  0  0  0  0  0  0  0
   58.4720   35.1190   44.8450 O   0  0  0  0  0  0  0  0  0  0  0  0
   57.4930   33.0150   44.8280 N   0  0  0  0  0  0  0  0  0  0  0  0
   57.5360   31.7160   44.8840 C   0  0  0  0  0  0  0  0  0  0  0  0
   58.7160   31.0530   45.0130 N   0  0  0  0  0  0  0  0  0  0  0  0
   58.7700   29.6980   45.0950 C   0  0  0  0  0  0  0  0  0  0  0  0
   60.1120   29.0410   45.2270 C   0  0  0  0  0  0  0  0  0  0  0  0
   60.3581   28.9205   46.2923 H   0  0  0  0  0  0  0  0  0  0  0  0
   60.0861   28.0537   44.7427 H   0  0  0  0  0  0  0  0  0  0  0  0
   60.8759   29.6670   44.7427 H   0  0  0  0  0  0  0  0  0  0  0  0
   57.5730   28.9520   45.0730 C   0  0  0  0  0  0  0  0  0  0  0  0
   57.5850   27.4450   45.1450 C   0  0  0  0  0  0  0  0  0  0  0  0
   57.5875   27.1283   46.1984 H   0  0  0  0  0  0  0  0  0  0  0  0
   56.6900   27.0469   44.6445 H   0  0  0  0  0  0  0  0  0  0  0  0
   58.4862   27.0612   44.6445 H   0  0  0  0  0  0  0  0  0  0  0  0
   56.3650   29.6600   44.9340 C   0  0  0  0  0  0  0  0  0  0  0  0
   55.1470   28.9910   44.8780 O   0  0  0  0  0  0  0  0  0  0  0  0
   56.3760   31.0150   44.8500 N   0  0  0  0  0  0  0  0  0  0  0  0
  1  2  1  0
  2  3  2  0
  3  4  1  0
  3  5  1  0
  5  6  1  0
  6  7  1  0
  6  8  1  0
  6  9  1  0
  9 10  1  0
 10 11  2  0
 10 12  1  0
 12 13  1  0
 12 14  1  0
 12 15  1  0
 15 16  1  0
 15 17  1  0
 15 18  1  0
 18 19  1  0
 18 20  1  0
  5 21  2  0
 21 22  1  0
 21 23  1  0
 23 24  1  0
 23 25  2  0
 25 26  1  0
 26 27  1  0
 26 28  1  0
 26 29  1  0
 29 30  1  0
 29 31  1  0
 31 32  2  0
 31 33  1  0
 33 34  2  0
 34 35  1  0
 35 36  2  0
 36 37  1  0
 37 38  1  0
 37 39  1  0
 37 40  1  0
 36 41  1  0
 41 42  1  0
 42 43  1  0
 42 44  1  0
 42 45  1  0
 41 46  2  0
 46 47  1  0
 46 48  1  0
 25  2  1  0
 48 34  1  0
 18  9  1  0
M  CHG  2  47  -1  48  -1
M  END
>  <UniqueID>  (89) 
82

>  <SMILES>  (89) 
Cc1n/c(=N\C(=O)NCc2ccc(CN3CCCC3=O)cc2)[n-]c([O-])c1C

>  <Energy>  (89) 
55.9714055126905

>  <Genealogy>  (89) 
Cc1nc(=NC(=O)NCc2ccc(CN3CCCC3=O)cc2)[n-]c([O-])c1C (protonated)
Cc1n/c(=N\C(=O)NCc2ccc(CN3CCCC3=O)cc2)[n-]c([O-])c1C (cis-trans isomerization)
Cc1n/c(=N\C(=O)NCc2ccc(CN3CCCC3=O)cc2)[n-]c([O-])c1C (3D coordinates assigned)
Cc1n/c(=N\C(=O)NCc2ccc(CN3CCCC3=O)cc2)[n-]c([O-])c1C (nonaromatic ring conformer: 55.9714055126905 kcal/mol)

>  <smiles>  (89) 
Cc1nc(=NC(=O)NCc2ccc(CN3CCCC3=O)cc2)[nH]c(O)c1C

>  <score_type>  (89) 
oracle

>  <origin>  (89) 
adg

>  <m_score__min__energy>  (89) 
-13.99

>  <m_primary>  (89) 
energy

$$$$
89:0
     RDKit          3D

 67 69  0  0  1  0  0  0  0  0999 V2000
   64.0260   33.4960   48.1470 C   0  0  0  0  0  0  0  0  0  0  0  0
   64.5980   32.5220   49.0750 C   0  0  0  0  0  0  0  0  0  0  0  0
   64.0520   32.2420   50.3260 N   0  0  0  0  0  0  0  0  0  0  0  0
   63.4820   33.4570   50.9570 C   0  0  0  0  0  0  0  0  0  0  0  0
   64.5660   34.2210   51.6620 C   0  0  0  0  0  0  0  0  0  0  0  0
   64.7790   31.5010   51.3020 C   0  0  0  0  0  0  0  0  0  0  0  0
   63.9420   31.0150   52.4240 C   0  0  0  0  0  0  0  0  0  0  0  0
   61.0640   33.0420   48.0650 C   0  0  0  0  0  0  0  0  0  0  0  0
   61.0050   31.6530   47.7270 N   0  0  0  0  0  0  0  0  0  0  0  0
   60.8230   30.7450   48.6210 C   0  0  0  0  0  0  0  0  0  0  0  0
   60.6970   28.7480   50.4690 N   0  0  0  0  0  0  0  0  0  0  0  0
   60.0750   28.5550   49.3110 C   0  0  0  0  0  0  0  0  0  0  0  0
   60.1420   29.5860   48.3570 C   0  0  0  0  0  0  0  0  0  0  0  0
   59.3530   29.3210   47.1550 C   0  0  0  0  0  0  0  0  0  0  0  0
   59.0590   28.1270   46.7920 O   0  0  0  0  0  0  0  0  0  0  0  0
   58.9160   30.4570   46.4150 N   0  0  0  0  0  0  0  0  0  0  0  0
   58.1430   30.4420   45.2390 C   0  0  0  0  0  0  0  0  0  0  0  0
   57.0680   29.5830   45.1760 C   0  0  0  0  0  0  0  0  0  0  0  0
   56.2310   29.5540   44.0640 C   0  0  0  0  0  0  0  0  0  0  0  0
   56.4210   30.3740   42.9680 C   0  0  0  0  0  0  0  0  0  0  0  0
   57.5070   31.2410   43.0350 C   0  0  0  0  0  0  0  0  0  0  0  0
   57.8210   32.3410   41.6800 Cl  0  0  0  0  0  0  0  0  0  0  0  0
   58.3440   31.2650   44.1530 C   0  0  0  0  0  0  0  0  0  0  0  0
   61.3780   29.8980   50.7490 C   0  0  0  0  0  0  0  0  0  0  0  0
   61.9290   29.9370   51.9000 N   0  0  0  0  0  0  0  0  0  0  0  0
   63.3270   29.6320   52.0490 C   0  0  0  0  0  0  0  0  0  0  0  0
   59.5610   33.3230   48.4370 C   0  0  0  0  0  0  0  0  0  0  0  0
   58.8330   33.6600   47.1940 C   0  0  0  0  0  0  0  0  0  0  0  0
   59.6080   34.2940   46.2100 C   0  0  0  0  0  0  0  0  0  0  0  0
   59.0840   34.6930   45.0050 C   0  0  0  0  0  0  0  0  0  0  0  0
   57.7320   34.4560   44.7590 C   0  0  0  0  0  0  0  0  0  0  0  0
   56.9500   33.8310   45.7220 C   0  0  0  0  0  0  0  0  0  0  0  0
   57.5040   33.4320   46.9410 C   0  0  0  0  0  0  0  0  0  0  0  0
   61.4400   30.8880   49.8330 N   0  0  0  0  0  0  0  0  0  0  0  0
   63.5491   34.3080   48.7156 H   0  0  0  0  0  0  0  0  0  0  0  0
   64.8237   33.9113   47.5136 H   0  0  0  0  0  0  0  0  0  0  0  0
   63.2748   33.0016   47.5136 H   0  0  0  0  0  0  0  0  0  0  0  0
   64.6162   31.5648   48.5334 H   0  0  0  0  0  0  0  0  0  0  0  0
   65.5383   33.0187   49.3564 H   0  0  0  0  0  0  0  0  0  0  0  0
   63.0315   34.0940   50.1816 H   0  0  0  0  0  0  0  0  0  0  0  0
   62.7136   33.1608   51.6862 H   0  0  0  0  0  0  0  0  0  0  0  0
   64.4327   34.1271   52.7498 H   0  0  0  0  0  0  0  0  0  0  0  0
   65.5470   33.8136   51.3762 H   0  0  0  0  0  0  0  0  0  0  0  0
   64.5122   35.2819   51.3762 H   0  0  0  0  0  0  0  0  0  0  0  0
   65.2370   30.6314   50.8080 H   0  0  0  0  0  0  0  0  0  0  0  0
   65.5287   32.1821   51.7309 H   0  0  0  0  0  0  0  0  0  0  0  0
   64.5628   30.9084   53.3258 H   0  0  0  0  0  0  0  0  0  0  0  0
   63.1344   31.7358   52.6195 H   0  0  0  0  0  0  0  0  0  0  0  0
   61.7324   33.2219   48.9199 H   0  0  0  0  0  0  0  0  0  0  0  0
   61.4626   33.6867   47.2678 H   0  0  0  0  0  0  0  0  0  0  0  0
   60.6520   27.9730   51.1980 H   0  0  0  0  0  0  0  0  0  0  0  0
   59.5278   27.6231   49.1060 H   0  0  0  0  0  0  0  0  0  0  0  0
   59.1790   31.4110   46.7810 H   0  0  0  0  0  0  0  0  0  0  0  0
   56.8671   28.9072   46.0203 H   0  0  0  0  0  0  0  0  0  0  0  0
   55.3852   28.8508   44.0575 H   0  0  0  0  0  0  0  0  0  0  0  0
   55.7532   30.3431   42.0944 H   0  0  0  0  0  0  0  0  0  0  0  0
   59.1925   31.9649   44.1666 H   0  0  0  0  0  0  0  0  0  0  0  0
   63.7521   29.2507   51.1088 H   0  0  0  0  0  0  0  0  0  0  0  0
   63.5256   28.8492   52.7959 H   0  0  0  0  0  0  0  0  0  0  0  0
   59.1176   32.4277   48.8973 H   0  0  0  0  0  0  0  0  0  0  0  0
   59.4958   34.1552   49.1533 H   0  0  0  0  0  0  0  0  0  0  0  0
   60.6736   34.4778   46.4115 H   0  0  0  0  0  0  0  0  0  0  0  0
   59.7154   35.1875   44.2521 H   0  0  0  0  0  0  0  0  0  0  0  0
   57.2848   34.7640   43.8024 H   0  0  0  0  0  0  0  0  0  0  0  0
   55.8837   33.6483   45.5228 H   0  0  0  0  0  0  0  0  0  0  0  0
   56.8761   32.9363   47.6960 H   0  0  0  0  0  0  0  0  0  0  0  0
   61.9770   31.7290   50.1000 H   0  0  0  0  0  0  0  0  0  0  0  0
  1  2  1  0
  2  3  1  0
  3  4  1  0
  4  5  1  0
  3  6  1  0
  6  7  1  0
  7  8  1  0
  8  9  1  0
  9 10  2  0
 10 11  1  0
 11 12  1  0
 12 13  2  0
 13 14  1  0
 14 15  2  0
 14 16  1  0
 16 17  1  0
 17 18  2  0
 18 19  1  0
 19 20  2  0
 20 21  1  0
 21 22  1  0
 21 23  2  0
 13 24  1  0
 24 25  2  0
 25 26  1  0
 26 27  1  0
 27 28  1  0
 28 29  2  0
 29 30  1  0
 30 31  2  0
 31 32  1  0
 32 33  2  0
 24 34  1  0
 34 10  1  0
 23 17  1  0
 33 28  1  0
  1 35  1  0
  1 36  1  0
  1 37  1  0
  2 38  1  0
  2 39  1  0
  4 40  1  0
  4 41  1  0
  5 42  1  0
  5 43  1  0
  5 44  1  0
  6 45  1  0
  6 46  1  0
  7 47  1  0
  7 48  1  0
  8 49  1  0
  8 50  1  0
 11 51  1  0
 12 52  1  0
 16 53  1  0
 18 54  1  0
 19 55  1  0
 20 56  1  0
 23 57  1  0
 26 58  1  0
 26 59  1  0
 27 60  1  0
 27 61  1  0
 29 62  1  0
 30 63  1  0
 31 64  1  0
 32 65  1  0
 33 66  1  0
 34 67  1  0
M  END
>  <smiles>  (90) 
CCN(CC)CCCN=c1[nH]cc(C(=O)Nc2cccc(Cl)c2)c(=NCCc2ccccc2)[nH]1

>  <score_type>  (90) 
oracle

>  <origin>  (90) 
adg

>  <m_score__min__energy>  (90) 
-8.8800000000000008

>  <m_primary>  (90) 
energy

$$$$
90:0
     RDKit          3D

 59 61  0  0  0  0  0  0  0  0999 V2000
   61.1430   28.5880   44.8120 C   0  0  0  0  0  0  0  0  0  0  0  0
   60.5530   29.7370   45.6240 C   0  0  0  0  0  0  0  0  0  0  0  0
   59.7030   29.2420   46.6590 O   0  0  0  0  0  0  0  0  0  0  0  0
   60.1290   28.7520   47.9070 C   0  0  0  0  0  0  0  0  0  0  0  0
   60.6900   29.5860   48.8960 C   0  0  0  0  0  0  0  0  0  0  0  0
   61.0870   29.0550   50.1240 C   0  0  0  0  0  0  0  0  0  0  0  0
   60.9370   27.6920   50.3790 C   0  0  0  0  0  0  0  0  0  0  0  0
   60.3920   26.8530   49.4050 C   0  0  0  0  0  0  0  0  0  0  0  0
   59.9880   27.3760   48.1600 C   0  0  0  0  0  0  0  0  0  0  0  0
   59.4360   26.5700   47.1480 O   0  0  0  0  0  0  0  0  0  0  0  0
   58.0760   26.1330   47.0750 C   0  0  0  0  0  0  0  0  0  0  0  0
   57.3070   26.8870   46.0270 C   0  0  0  0  0  0  0  0  0  0  0  0
   56.0500   26.7880   45.9700 O   0  0  0  0  0  0  0  0  0  0  0  0
   58.0010   27.7590   45.1250 N   0  0  0  0  0  0  0  0  0  0  0  0
   57.3050   28.6010   44.1540 C   0  0  0  0  0  0  0  0  0  0  0  0
   56.6190   29.7420   44.8390 C   0  0  0  0  0  0  0  0  0  0  0  0
   55.4660   30.0860   44.4710 O   0  0  0  0  0  0  0  0  0  0  0  0
   57.2720   30.3980   45.9330 N   0  0  0  0  0  0  0  0  0  0  0  0
   57.8930   31.6920   45.9260 C   0  0  0  0  0  0  0  0  0  0  0  0
   57.8120   32.5580   44.8190 C   0  0  0  0  0  0  0  0  0  0  0  0
   58.4510   33.8010   44.8520 C   0  0  0  0  0  0  0  0  0  0  0  0
   59.1900   34.1820   45.9750 C   0  0  0  0  0  0  0  0  0  0  0  0
   59.3090   33.3130   47.0670 C   0  0  0  0  0  0  0  0  0  0  0  0
   60.2790   33.7710   48.4700 S   0  0  0  0  0  0  0  0  0  0  0  0
   59.6340   34.9470   49.1500 O   0  0  0  0  0  0  0  0  0  0  0  0
   60.2860   32.6260   49.4450 O   0  0  0  0  0  0  0  0  0  0  0  0
   61.9320   34.1760   48.0490 N   0  0  0  0  0  0  0  0  0  0  0  0
   62.4030   33.4660   46.8460 C   0  0  0  0  0  0  0  0  0  0  0  0
   62.8780   32.0230   47.1420 C   0  0  0  0  0  0  0  0  0  0  0  0
   62.9730   31.7380   48.5230 O   0  0  0  0  0  0  0  0  0  0  0  0
   63.6850   32.7660   49.1730 C   0  0  0  0  0  0  0  0  0  0  0  0
   62.8600   34.0660   49.1940 C   0  0  0  0  0  0  0  0  0  0  0  0
   58.6550   32.0730   47.0380 C   0  0  0  0  0  0  0  0  0  0  0  0
   61.5369   27.8208   45.4949 H   0  0  0  0  0  0  0  0  0  0  0  0
   60.3598   28.1471   44.1778 H   0  0  0  0  0  0  0  0  0  0  0  0
   61.9577   28.9676   44.1778 H   0  0  0  0  0  0  0  0  0  0  0  0
   61.3713   30.3168   46.0758 H   0  0  0  0  0  0  0  0  0  0  0  0
   59.9577   30.3738   44.9531 H   0  0  0  0  0  0  0  0  0  0  0  0
   60.8154   30.6608   48.6985 H   0  0  0  0  0  0  0  0  0  0  0  0
   61.5191   29.7128   50.8925 H   0  0  0  0  0  0  0  0  0  0  0  0
   61.2486   27.2773   51.3490 H   0  0  0  0  0  0  0  0  0  0  0  0
   60.2773   25.7784   49.6103 H   0  0  0  0  0  0  0  0  0  0  0  0
   58.0584   25.0612   46.8283 H   0  0  0  0  0  0  0  0  0  0  0  0
   57.6022   26.3201   48.0499 H   0  0  0  0  0  0  0  0  0  0  0  0
   59.0420   27.8350   45.1920 H   0  0  0  0  0  0  0  0  0  0  0  0
   58.0340   28.9985   43.4326 H   0  0  0  0  0  0  0  0  0  0  0  0
   56.5486   27.9928   43.6363 H   0  0  0  0  0  0  0  0  0  0  0  0
   57.2448   32.2560   43.9262 H   0  0  0  0  0  0  0  0  0  0  0  0
   58.3718   34.4812   43.9912 H   0  0  0  0  0  0  0  0  0  0  0  0
   59.6795   35.1667   46.0015 H   0  0  0  0  0  0  0  0  0  0  0  0
   61.5779   33.4213   46.1199 H   0  0  0  0  0  0  0  0  0  0  0  0
   63.2667   34.0223   46.4528 H   0  0  0  0  0  0  0  0  0  0  0  0
   62.1633   31.3203   46.6888 H   0  0  0  0  0  0  0  0  0  0  0  0
   63.8875   31.9188   46.7176 H   0  0  0  0  0  0  0  0  0  0  0  0
   63.9015   32.4583   50.2067 H   0  0  0  0  0  0  0  0  0  0  0  0
   64.6221   32.9490   48.6267 H   0  0  0  0  0  0  0  0  0  0  0  0
   62.2744   34.0952   50.1247 H   0  0  0  0  0  0  0  0  0  0  0  0
   63.5664   34.9067   49.1287 H   0  0  0  0  0  0  0  0  0  0  0  0
   58.7412   31.3921   47.8976 H   0  0  0  0  0  0  0  0  0  0  0  0
  1  2  1  0
  2  3  1  0
  3  4  1  0
  4  5  2  0
  5  6  1  0
  6  7  2  0
  7  8  1  0
  8  9  2  0
  9 10  1  0
 10 11  1  0
 11 12  1  0
 12 13  2  0
 12 14  1  0
 14 15  1  0
 15 16  1  0
 16 17  2  0
 16 18  1  0
 18 19  1  0
 19 20  2  0
 20 21  1  0
 21 22  2  0
 22 23  1  0
 23 24  1  0
 24 25  2  0
 24 26  2  0
 24 27  1  0
 27 28  1  0
 28 29  1  0
 29 30  1  0
 30 31  1  0
 31 32  1  0
 23 33  2  0
  9  4  1  0
 33 19  1  0
 32 27  1  0
  1 34  1  0
  1 35  1  0
  1 36  1  0
  2 37  1  0
  2 38  1  0
  5 39  1  0
  6 40  1  0
  7 41  1  0
  8 42  1  0
 11 43  1  0
 11 44  1  0
 14 45  1  0
 15 46  1  0
 15 47  1  0
 20 48  1  0
 21 49  1  0
 22 50  1  0
 28 51  1  0
 28 52  1  0
 29 53  1  0
 29 54  1  0
 31 55  1  0
 31 56  1  0
 32 57  1  0
 32 58  1  0
 33 59  1  0
M  CHG  1  18  -1
M  END
>  <UniqueID>  (91) 
83

>  <SMILES>  (91) 
CCOc1ccccc1OCC(=O)NCC(=O)[N-]c1cccc(S(=O)(=O)N2CCOCC2)c1

>  <Energy>  (91) 
69.34362049220037

>  <Genealogy>  (91) 
CCOc1ccccc1OCC(=O)NCC(=O)[N-]c1cccc(S(=O)(=O)N2CCOCC2)c1 (protonated)
CCOc1ccccc1OCC(=O)NCC(=O)[N-]c1cccc(S(=O)(=O)N2CCOCC2)c1 (3D coordinates assigned)
CCOc1ccccc1OCC(=O)NCC(=O)[N-]c1cccc(S(=O)(=O)N2CCOCC2)c1 (nonaromatic ring conformer: 69.34362049220037 kcal/mol)

>  <smiles>  (91) 
CCOc1ccccc1OCC(=O)NCC(=O)Nc1cccc(S(=O)(=O)N2CCOCC2)c1

>  <score_type>  (91) 
oracle

>  <origin>  (91) 
adg

>  <m_score__min__energy>  (91) 
-10.48

>  <m_primary>  (91) 
energy

$$$$
91:0
     RDKit          3D

 35 36  0  0  0  0  0  0  0  0999 V2000
   62.5010   33.7830   46.5400 C   0  0  0  0  0  0  0  0  0  0  0  0
   61.5660   33.8120   47.6670 N   0  0  0  0  0  0  0  0  0  0  0  0
   61.8640   33.5320   48.9580 C   0  0  0  0  0  0  0  0  0  0  0  0
   63.1790   33.0790   49.4450 C   0  0  0  0  0  0  0  0  0  0  0  0
   63.8690   32.2750   48.7630 O   0  0  0  0  0  0  0  0  0  0  0  0
   60.7520   33.7170   49.7580 C   0  0  0  0  0  0  0  0  0  0  0  0
   59.7290   34.1110   48.9230 C   0  0  0  0  0  0  0  0  0  0  0  0
   60.2490   34.1390   47.6420 C   0  0  0  0  0  0  0  0  0  0  0  0
   59.4530   34.4810   46.4440 C   0  0  0  0  0  0  0  0  0  0  0  0
   59.9160   35.3190   45.6240 O   0  0  0  0  0  0  0  0  0  0  0  0
   58.1440   33.9290   46.2400 N   0  0  0  0  0  0  0  0  0  0  0  0
   57.4050   34.0810   44.9870 C   0  0  0  0  0  0  0  0  0  0  0  0
   57.8170   33.0130   43.9650 C   0  0  0  0  0  0  0  0  0  0  0  0
   57.6900   31.6170   44.5170 C   0  0  0  0  0  0  0  0  0  0  0  0
   58.7820   31.0110   45.1600 C   0  0  0  0  0  0  0  0  0  0  0  0
   58.6570   29.7280   45.7030 C   0  0  0  0  0  0  0  0  0  0  0  0
   57.4440   29.0420   45.6090 C   0  0  0  0  0  0  0  0  0  0  0  0
   56.3530   29.6360   44.9680 C   0  0  0  0  0  0  0  0  0  0  0  0
   55.1460   28.9540   44.8750 O   0  0  0  0  0  0  0  0  0  0  0  0
   56.4750   30.9180   44.4210 C   0  0  0  0  0  0  0  0  0  0  0  0
   63.5327   33.7510   46.9202 H   0  0  0  0  0  0  0  0  0  0  0  0
   62.3084   32.8904   45.9267 H   0  0  0  0  0  0  0  0  0  0  0  0
   62.3641   34.6858   45.9267 H   0  0  0  0  0  0  0  0  0  0  0  0
   63.5605   33.4449   50.4097 H   0  0  0  0  0  0  0  0  0  0  0  0
   60.6949   33.5771   50.8476 H   0  0  0  0  0  0  0  0  0  0  0  0
   58.6981   34.3559   49.2184 H   0  0  0  0  0  0  0  0  0  0  0  0
   57.6430   33.5030   47.0530 H   0  0  0  0  0  0  0  0  0  0  0  0
   56.3285   33.9850   45.1917 H   0  0  0  0  0  0  0  0  0  0  0  0
   57.6337   35.0713   44.5664 H   0  0  0  0  0  0  0  0  0  0  0  0
   57.1718   33.1034   43.0787 H   0  0  0  0  0  0  0  0  0  0  0  0
   58.8739   33.1801   43.7099 H   0  0  0  0  0  0  0  0  0  0  0  0
   59.7392   31.5475   45.2368 H   0  0  0  0  0  0  0  0  0  0  0  0
   59.5157   29.2584   46.2050 H   0  0  0  0  0  0  0  0  0  0  0  0
   57.3472   28.0343   46.0394 H   0  0  0  0  0  0  0  0  0  0  0  0
   55.6158   31.3807   43.9135 H   0  0  0  0  0  0  0  0  0  0  0  0
  1  2  1  0
  2  3  1  0
  3  4  1  0
  4  5  2  0
  3  6  2  0
  6  7  1  0
  7  8  2  0
  8  9  1  0
  9 10  2  0
  9 11  1  0
 11 12  1  0
 12 13  1  0
 13 14  1  0
 14 15  2  0
 15 16  1  0
 16 17  2  0
 17 18  1  0
 18 19  1  0
 18 20  2  0
  8  2  1  0
 20 14  1  0
  1 21  1  0
  1 22  1  0
  1 23  1  0
  4 24  1  0
  6 25  1  0
  7 26  1  0
 11 27  1  0
 12 28  1  0
 12 29  1  0
 13 30  1  0
 13 31  1  0
 15 32  1  0
 16 33  1  0
 17 34  1  0
 20 35  1  0
M  CHG  1  19  -1
M  END
>  <UniqueID>  (92) 
84

>  <SMILES>  (92) 
Cn1c(C=O)ccc1C(=O)NCCc1cccc([O-])c1

>  <Energy>  (92) 
59.288423918964575

>  <Genealogy>  (92) 
Cn1c(C=O)ccc1C(=O)NCCc1cccc([O-])c1 (protonated)
Cn1c(C=O)ccc1C(=O)NCCc1cccc([O-])c1 (3D coordinates assigned)
Cn1c(C=O)ccc1C(=O)NCCc1cccc([O-])c1 (optimized conformer: 59.288423918964575 kcal/mol)

>  <smiles>  (92) 
Cn1c(C=O)ccc1C(=O)NCCc1cccc(O)c1

>  <score_type>  (92) 
oracle

>  <origin>  (92) 
adg

>  <m_score__min__energy>  (92) 
-10.640000000000001

>  <m_primary>  (92) 
energy

$$$$
92:0
     RDKit          3D

 36 38  0  0  0  0  0  0  0  0999 V2000
   54.5840   24.0830   45.9900 C   0  0  0  0  0  0  0  0  0  0  0  0
   55.1080   25.4110   45.9530 O   0  0  0  0  0  0  0  0  0  0  0  0
   56.4280   25.7330   45.5930 C   0  0  0  0  0  0  0  0  0  0  0  0
   57.0410   25.2200   44.5090 C   0  0  0  0  0  0  0  0  0  0  0  0
   57.1480   23.7870   44.2070 C   0  0  0  0  0  0  0  0  0  0  0  0
   58.1410   22.9220   44.6570 C   0  0  0  0  0  0  0  0  0  0  0  0
   58.0660   21.6490   44.0780 C   0  0  0  0  0  0  0  0  0  0  0  0
   57.0420   21.5180   43.1500 C   0  0  0  0  0  0  0  0  0  0  0  0
   56.2340   22.9890   43.0460 S   0  0  0  0  0  0  0  0  0  0  0  0
   57.2130   26.6220   46.4770 C   0  0  0  0  0  0  0  0  0  0  0  0
   57.9270   27.6850   46.0770 C   0  0  0  0  0  0  0  0  0  0  0  0
   59.7200   27.6360   46.0230 S   0  0  0  0  0  0  0  0  0  0  0  0
   59.7060   29.4310   45.9550 C   0  0  0  0  0  0  0  0  0  0  0  0
   60.8390   30.2760   46.7830 S   0  0  0  0  0  0  0  0  0  0  0  0
   58.4280   30.0040   45.6560 N   0  0  0  0  0  0  0  0  0  0  0  0
   58.1900   31.3980   45.3800 C   0  0  0  0  0  0  0  0  0  0  0  0
   58.1160   32.3300   46.4280 C   0  0  0  0  0  0  0  0  0  0  0  0
   57.8830   33.6830   46.1560 C   0  0  0  0  0  0  0  0  0  0  0  0
   57.7240   34.1130   44.8360 C   0  0  0  0  0  0  0  0  0  0  0  0
   57.7970   33.1930   43.7870 C   0  0  0  0  0  0  0  0  0  0  0  0
   58.0290   31.8410   44.0560 C   0  0  0  0  0  0  0  0  0  0  0  0
   57.4230   28.9990   45.6800 C   0  0  0  0  0  0  0  0  0  0  0  0
   56.2520   29.2070   45.2650 O   0  0  0  0  0  0  0  0  0  0  0  0
   54.4593   23.7670   47.0362 H   0  0  0  0  0  0  0  0  0  0  0  0
   53.6091   24.0592   45.4811 H   0  0  0  0  0  0  0  0  0  0  0  0
   55.2800   23.3999   45.4811 H   0  0  0  0  0  0  0  0  0  0  0  0
   57.4946   25.9261   43.7979 H   0  0  0  0  0  0  0  0  0  0  0  0
   58.9069   23.2090   45.3926 H   0  0  0  0  0  0  0  0  0  0  0  0
   58.7539   20.8299   44.3345 H   0  0  0  0  0  0  0  0  0  0  0  0
   56.8006   20.6083   42.5806 H   0  0  0  0  0  0  0  0  0  0  0  0
   57.2112   26.3922   47.5527 H   0  0  0  0  0  0  0  0  0  0  0  0
   58.2418   31.9948   47.4681 H   0  0  0  0  0  0  0  0  0  0  0  0
   57.8250   34.4079   46.9813 H   0  0  0  0  0  0  0  0  0  0  0  0
   57.5412   35.1765   44.6226 H   0  0  0  0  0  0  0  0  0  0  0  0
   57.6718   33.5329   42.7484 H   0  0  0  0  0  0  0  0  0  0  0  0
   58.0858   31.1201   43.2271 H   0  0  0  0  0  0  0  0  0  0  0  0
  1  2  1  0
  2  3  1  0
  3  4  2  3
  4  5  1  0
  5  6  2  0
  6  7  1  0
  7  8  2  0
  8  9  1  0
  3 10  1  0
 10 11  2  3
 11 12  1  0
 12 13  1  0
 13 14  2  0
 13 15  1  0
 15 16  1  0
 16 17  2  0
 17 18  1  0
 18 19  2  0
 19 20  1  0
 20 21  2  0
 15 22  1  0
 22 23  2  0
  9  5  1  0
 22 11  1  0
 21 16  1  0
  1 24  1  0
  1 25  1  0
  1 26  1  0
  4 27  1  0
  6 28  1  0
  7 29  1  0
  8 30  1  0
 10 31  1  0
 17 32  1  0
 18 33  1  0
 19 34  1  0
 20 35  1  0
 21 36  1  0
M  END
>  <UniqueID>  (93) 
85

>  <SMILES>  (93) 
COC(=Cc1cccs1)C=C1SC(=S)N(c2ccccc2)C1=O

>  <Energy>  (93) 
104.4819182546443

>  <Genealogy>  (93) 
COC(=Cc1cccs1)C=C1SC(=S)N(c2ccccc2)C1=O (3D coordinates assigned)
COC(=Cc1cccs1)C=C1SC(=S)N(c2ccccc2)C1=O (nonaromatic ring conformer: 104.4819182546443 kcal/mol)

>  <smiles>  (93) 
COC(=Cc1cccs1)C=C1SC(=S)N(c2ccccc2)C1=O

>  <score_type>  (93) 
oracle

>  <origin>  (93) 
adg

>  <m_score__min__energy>  (93) 
-8.3200000000000003

>  <m_primary>  (93) 
energy

$$$$
93:0
     RDKit          3D

 47 49  0  0  0  0  0  0  0  0999 V2000
   63.3970   34.1830   46.5920 C   0  0  0  0  0  0  0  0  0  0  0  0
   62.9760   33.0080   47.4230 C   0  0  0  0  0  0  0  0  0  0  0  0
   63.7080   32.6520   48.5660 C   0  0  0  0  0  0  0  0  0  0  0  0
   63.2950   31.5790   49.3600 C   0  0  0  0  0  0  0  0  0  0  0  0
   62.1390   30.8590   49.0310 C   0  0  0  0  0  0  0  0  0  0  0  0
   61.7340   29.7820   49.8160 O   0  0  0  0  0  0  0  0  0  0  0  0
   61.3920   31.2220   47.8990 C   0  0  0  0  0  0  0  0  0  0  0  0
   60.2060   30.4950   47.5460 N   0  0  0  0  0  0  0  0  0  0  0  0
   58.9530   30.7840   48.2490 C   0  0  0  0  0  0  0  0  0  0  0  0
   59.2060   31.6770   49.4200 C   0  0  0  0  0  0  0  0  0  0  0  0
   59.7300   31.2070   50.4670 O   0  0  0  0  0  0  0  0  0  0  0  0
   58.8640   33.0650   49.3390 N   0  0  0  0  0  0  0  0  0  0  0  0
   59.5830   34.0260   48.5120 C   0  0  0  0  0  0  0  0  0  0  0  0
   58.9990   34.0740   47.1360 C   0  0  0  0  0  0  0  0  0  0  0  0
   59.5900   34.6560   46.0230 C   0  0  0  0  0  0  0  0  0  0  0  0
   58.8050   34.5610   44.8700 C   0  0  0  0  0  0  0  0  0  0  0  0
   57.5970   33.9030   45.0710 C   0  0  0  0  0  0  0  0  0  0  0  0
   57.5020   33.4510   46.6880 S   0  0  0  0  0  0  0  0  0  0  0  0
   60.2060   29.6530   46.3430 C   0  0  0  0  0  0  0  0  0  0  0  0
   58.8040   29.4630   45.8270 C   0  0  0  0  0  0  0  0  0  0  0  0
   58.1520   30.5010   45.1410 C   0  0  0  0  0  0  0  0  0  0  0  0
   56.8390   30.3300   44.6890 C   0  0  0  0  0  0  0  0  0  0  0  0
   56.1610   29.1330   44.9380 C   0  0  0  0  0  0  0  0  0  0  0  0
   54.8540   28.9690   44.4940 O   0  0  0  0  0  0  0  0  0  0  0  0
   56.7980   28.1010   45.6330 C   0  0  0  0  0  0  0  0  0  0  0  0
   58.1160   28.2630   46.0750 C   0  0  0  0  0  0  0  0  0  0  0  0
   61.8090   32.2980   47.1020 C   0  0  0  0  0  0  0  0  0  0  0  0
   63.6938   35.0114   47.2521 H   0  0  0  0  0  0  0  0  0  0  0  0
   64.2485   33.8968   45.9572 H   0  0  0  0  0  0  0  0  0  0  0  0
   62.5575   34.5027   45.9572 H   0  0  0  0  0  0  0  0  0  0  0  0
   64.6101   33.2196   48.8379 H   0  0  0  0  0  0  0  0  0  0  0  0
   63.8804   31.2981   50.2479 H   0  0  0  0  0  0  0  0  0  0  0  0
   60.8940   29.8260   50.3800 H   0  0  0  0  0  0  0  0  0  0  0  0
   58.2562   31.2811   47.5581 H   0  0  0  0  0  0  0  0  0  0  0  0
   58.5196   29.8390   48.6083 H   0  0  0  0  0  0  0  0  0  0  0  0
   59.5112   35.0233   48.9706 H   0  0  0  0  0  0  0  0  0  0  0  0
   60.6360   33.7160   48.4407 H   0  0  0  0  0  0  0  0  0  0  0  0
   60.5762   35.1427   46.0458 H   0  0  0  0  0  0  0  0  0  0  0  0
   59.1140   34.9683   43.8960 H   0  0  0  0  0  0  0  0  0  0  0  0
   56.8333   33.7107   44.3030 H   0  0  0  0  0  0  0  0  0  0  0  0
   60.8152   30.1355   45.5644 H   0  0  0  0  0  0  0  0  0  0  0  0
   60.6250   28.6689   46.5998 H   0  0  0  0  0  0  0  0  0  0  0  0
   58.6753   31.4512   44.9586 H   0  0  0  0  0  0  0  0  0  0  0  0
   56.3391   31.1392   44.1365 H   0  0  0  0  0  0  0  0  0  0  0  0
   56.2630   27.1608   45.8327 H   0  0  0  0  0  0  0  0  0  0  0  0
   58.6155   27.4476   46.6188 H   0  0  0  0  0  0  0  0  0  0  0  0
   61.2180   32.5870   46.2204 H   0  0  0  0  0  0  0  0  0  0  0  0
  1  2  1  0
  2  3  2  0
  3  4  1  0
  4  5  2  0
  5  6  1  0
  5  7  1  0
  7  8  1  0
  8  9  1  0
  9 10  1  0
 10 11  2  0
 10 12  1  0
 12 13  1  0
 13 14  1  0
 14 15  2  0
 15 16  1  0
 16 17  2  0
 17 18  1  0
  8 19  1  0
 19 20  1  0
 20 21  2  0
 21 22  1  0
 22 23  2  0
 23 24  1  0
 23 25  1  0
 25 26  2  0
  7 27  2  0
 27  2  1  0
 18 14  1  0
 26 20  1  0
  1 28  1  0
  1 29  1  0
  1 30  1  0
  3 31  1  0
  4 32  1  0
  6 33  1  0
  9 34  1  0
  9 35  1  0
 13 36  1  0
 13 37  1  0
 15 38  1  0
 16 39  1  0
 17 40  1  0
 19 41  1  0
 19 42  1  0
 21 43  1  0
 22 44  1  0
 25 45  1  0
 26 46  1  0
 27 47  1  0
M  CHG  2  12  -1  24  -1
M  END
>  <UniqueID>  (94) 
86

>  <SMILES>  (94) 
Cc1ccc(O)c(N(CC(=O)[N-]Cc2cccs2)Cc2ccc([O-])cc2)c1

>  <Energy>  (94) 
69.03999529895457

>  <Genealogy>  (94) 
Cc1ccc(O)c(N(CC(=O)[N-]Cc2cccs2)Cc2ccc([O-])cc2)c1 (protonated)
Cc1ccc(O)c(N(CC(=O)[N-]Cc2cccs2)Cc2ccc([O-])cc2)c1 (3D coordinates assigned)
Cc1ccc(O)c(N(CC(=O)[N-]Cc2cccs2)Cc2ccc([O-])cc2)c1 (optimized conformer: 69.03999529895457 kcal/mol)

>  <smiles>  (94) 
Cc1ccc(O)c(N(CC(=O)NCc2cccs2)Cc2ccc(O)cc2)c1

>  <score_type>  (94) 
oracle

>  <origin>  (94) 
adg

>  <m_score__min__energy>  (94) 
-11.56

>  <m_primary>  (94) 
energy

$$$$
94:0
     RDKit          3D

 41 43  0  0  0  0  0  0  0  0999 V2000
   58.2630   34.5480   46.0210 C   0  0  0  0  0  0  0  0  0  0  0  0
   59.4290   33.9550   46.6610 N   0  0  0  0  0  0  0  0  0  0  0  0
   59.5990   32.6460   46.9260 C   0  0  0  0  0  0  0  0  0  0  0  0
   60.7910   32.4970   47.6140 C   0  0  0  0  0  0  0  0  0  0  0  0
   61.2840   33.7910   47.7450 C   0  0  0  0  0  0  0  0  0  0  0  0
   60.4290   34.6570   47.1670 N   0  0  0  0  0  0  0  0  0  0  0  0
   62.5360   34.2340   48.4590 C   0  0  0  0  0  0  0  0  0  0  0  0
   63.8230   33.5320   47.9920 C   0  0  0  0  0  0  0  0  0  0  0  0
   63.5030   32.2930   47.2670 N   0  0  0  0  0  0  0  0  0  0  0  0
   62.9410   31.2440   48.1380 C   0  0  0  0  0  0  0  0  0  0  0  0
   61.3890   31.2420   48.2040 C   0  0  2  0  0  0  0  0  0  0  0  0
   60.8310   29.9920   47.5640 C   0  0  0  0  0  0  0  0  0  0  0  0
   60.1210   29.2020   48.2470 O   0  0  0  0  0  0  0  0  0  0  0  0
   61.1330   29.6840   46.1960 N   0  0  0  0  0  0  0  0  0  0  0  0
   60.5680   28.5230   45.5110 C   0  0  0  0  0  0  0  0  0  0  0  0
   59.1070   28.7430   45.2360 C   0  0  0  0  0  0  0  0  0  0  0  0
   58.6570   29.9470   44.6680 C   0  0  0  0  0  0  0  0  0  0  0  0
   57.2990   30.1320   44.3940 C   0  0  0  0  0  0  0  0  0  0  0  0
   56.3800   29.1180   44.6820 C   0  0  0  0  0  0  0  0  0  0  0  0
   55.0640   29.2990   44.4140 F   0  0  0  0  0  0  0  0  0  0  0  0
   56.8210   27.9150   45.2430 C   0  0  0  0  0  0  0  0  0  0  0  0
   58.1790   27.7260   45.5180 C   0  0  0  0  0  0  0  0  0  0  0  0
   57.5632   34.9039   46.7914 H   0  0  0  0  0  0  0  0  0  0  0  0
   58.5797   35.3946   45.3941 H   0  0  0  0  0  0  0  0  0  0  0  0
   57.7654   33.7934   45.3941 H   0  0  0  0  0  0  0  0  0  0  0  0
   58.9104   31.8357   46.6447 H   0  0  0  0  0  0  0  0  0  0  0  0
   62.6577   35.3154   48.2988 H   0  0  0  0  0  0  0  0  0  0  0  0
   62.4020   33.9666   49.5176 H   0  0  0  0  0  0  0  0  0  0  0  0
   64.3815   34.2064   47.3263 H   0  0  0  0  0  0  0  0  0  0  0  0
   64.4296   33.2800   48.8743 H   0  0  0  0  0  0  0  0  0  0  0  0
   64.3860   31.9140   46.8520 H   0  0  0  0  0  0  0  0  0  0  0  0
   63.2724   30.2658   47.7594 H   0  0  0  0  0  0  0  0  0  0  0  0
   63.3026   31.4486   49.1565 H   0  0  0  0  0  0  0  0  0  0  0  0
   61.0993   31.2357   49.2652 H   0  0  0  0  0  0  0  0  0  0  0  0
   61.7830   30.3050   45.6620 H   0  0  0  0  0  0  0  0  0  0  0  0
   61.0978   28.3692   44.5593 H   0  0  0  0  0  0  0  0  0  0  0  0
   60.6831   27.6367   46.1523 H   0  0  0  0  0  0  0  0  0  0  0  0
   59.3763   30.7469   44.4382 H   0  0  0  0  0  0  0  0  0  0  0  0
   56.9523   31.0772   43.9509 H   0  0  0  0  0  0  0  0  0  0  0  0
   56.0987   27.1166   45.4682 H   0  0  0  0  0  0  0  0  0  0  0  0
   58.5222   26.7775   45.9568 H   0  0  0  0  0  0  0  0  0  0  0  0
  1  2  1  0
  2  3  1  0
  3  4  2  0
  4  5  1  0
  5  6  2  0
  5  7  1  0
  7  8  1  0
  8  9  1  0
  9 10  1  0
 10 11  1  0
 11 12  1  0
 12 13  2  0
 12 14  1  0
 14 15  1  0
 15 16  1  0
 16 17  2  0
 17 18  1  0
 18 19  2  0
 19 20  1  0
 19 21  1  0
 21 22  2  0
  6  2  1  0
 22 16  1  0
 11  4  1  0
  1 23  1  0
  1 24  1  0
  1 25  1  0
  3 26  1  0
  7 27  1  0
  7 28  1  0
  8 29  1  0
  8 30  1  0
  9 31  1  0
 10 32  1  0
 10 33  1  0
 11 34  1  1
 14 35  1  0
 15 36  1  0
 15 37  1  0
 17 38  1  0
 18 39  1  0
 21 40  1  0
 22 41  1  0
M  END
>  <UniqueID>  (95) 
87

>  <SMILES>  (95) 
Cn1cc2c(n1)CCNC[C@@H]2C(=O)NCc1ccc(F)cc1

>  <Energy>  (95) 
76.2857148240222

>  <Genealogy>  (95) 
Cn1cc2c(n1)CCNC[C@@H]2C(=O)NCc1ccc(F)cc1 (chirality)
Cn1cc2c(n1)CCNC[C@@H]2C(=O)NCc1ccc(F)cc1 (3D coordinates assigned)
Cn1cc2c(n1)CCNC[C@@H]2C(=O)NCc1ccc(F)cc1 (nonaromatic ring conformer: 76.2857148240222 kcal/mol)

>  <smiles>  (95) 
Cn1cc2c(n1)CCNCC2C(=O)NCc1ccc(F)cc1

>  <score_type>  (95) 
oracle

>  <origin>  (95) 
adg

>  <m_score__min__energy>  (95) 
-5.6699999999999999

>  <m_primary>  (95) 
energy

$$$$
95:0
     RDKit          3D

 73 77  0  0  0  0  0  0  0  0999 V2000
   56.2760   31.9560   44.8480 O   0  0  0  0  0  0  0  0  0  0  0  0
   57.1190   31.0390   44.6650 C   0  0  0  0  0  0  0  0  0  0  0  0
   56.6990   29.7750   43.9700 C   0  0  0  0  0  0  0  0  0  0  0  0
   56.1620   28.8480   44.9120 O   0  0  0  0  0  0  0  0  0  0  0  0
   56.8830   27.7740   45.4590 C   0  0  0  0  0  0  0  0  0  0  0  0
   58.2930   27.7470   45.4800 C   0  0  0  0  0  0  0  0  0  0  0  0
   58.9680   26.6590   46.0440 C   0  0  0  0  0  0  0  0  0  0  0  0
   58.2490   25.5930   46.5880 C   0  0  0  0  0  0  0  0  0  0  0  0
   56.8530   25.6080   46.5670 C   0  0  0  0  0  0  0  0  0  0  0  0
   56.1700   26.6940   46.0050 C   0  0  0  0  0  0  0  0  0  0  0  0
   54.7790   26.6980   45.9920 O   0  0  0  0  0  0  0  0  0  0  0  0
   58.4740   31.2490   45.0800 N   0  0  0  0  0  0  0  0  0  0  0  0
   58.8910   31.2280   46.4500 C   0  0  0  0  0  0  0  0  0  0  0  0
   59.7830   30.2310   46.8630 C   0  0  0  0  0  0  0  0  0  0  0  0
   60.2580   30.2060   48.1760 C   0  0  0  0  0  0  0  0  0  0  0  0
   59.8360   31.1730   49.0890 C   0  0  0  0  0  0  0  0  0  0  0  0
   58.9310   32.1610   48.6940 C   0  0  0  0  0  0  0  0  0  0  0  0
   58.4410   32.1980   47.3770 C   0  0  0  0  0  0  0  0  0  0  0  0
   57.3920   33.2290   47.0160 C   0  0  0  0  0  0  0  0  0  0  0  0
   57.8990   34.2150   45.9540 C   0  0  0  0  0  0  0  0  0  0  0  0
   59.3500   34.5480   46.1430 C   0  0  0  0  0  0  0  0  0  0  0  0
   59.6700   35.6580   46.6480 O   0  0  0  0  0  0  0  0  0  0  0  0
   60.3680   33.6150   45.7500 N   0  0  0  0  0  0  0  0  0  0  0  0
   61.7880   33.8500   46.0030 C   0  0  0  0  0  0  0  0  0  0  0  0
   62.1500   33.4240   47.4020 C   0  0  0  0  0  0  0  0  0  0  0  0
   63.0240   32.3480   47.6160 C   0  0  0  0  0  0  0  0  0  0  0  0
   63.4160   32.0020   48.9120 C   0  0  0  0  0  0  0  0  0  0  0  0
   62.9340   32.7230   50.0190 C   0  0  0  0  0  0  0  0  0  0  0  0
   63.3850   32.3780   51.3890 C   0  0  0  0  0  0  0  0  0  0  0  0
   64.6210   32.2920   51.6320 O   0  0  0  0  0  0  0  0  0  0  0  0
   62.4420   32.1460   52.4490 N   0  0  0  0  0  0  0  0  0  0  0  0
   62.0960   30.7810   52.8410 C   0  0  0  0  0  0  0  0  0  0  0  0
   60.7750   30.3890   52.1770 C   0  0  0  0  0  0  0  0  0  0  0  0
   59.7330   31.4790   52.2900 C   0  0  0  0  0  0  0  0  0  0  0  0
   58.3940   31.1680   52.0140 C   0  0  0  0  0  0  0  0  0  0  0  0
   57.4130   32.1610   52.0570 C   0  0  0  0  0  0  0  0  0  0  0  0
   57.7610   33.4770   52.3670 C   0  0  0  0  0  0  0  0  0  0  0  0
   59.0910   33.8060   52.6280 C   0  0  0  0  0  0  0  0  0  0  0  0
   60.0910   32.8220   52.5710 C   0  0  0  0  0  0  0  0  0  0  0  0
   61.5220   33.2070   52.8690 C   0  0  0  0  0  0  0  0  0  0  0  0
   62.0550   33.7990   49.8000 C   0  0  0  0  0  0  0  0  0  0  0  0
   61.6640   34.1440   48.5030 C   0  0  0  0  0  0  0  0  0  0  0  0
   55.9331   30.0121   43.2169 H   0  0  0  0  0  0  0  0  0  0  0  0
   57.5773   29.3243   43.4847 H   0  0  0  0  0  0  0  0  0  0  0  0
   58.8638   28.5840   45.0516 H   0  0  0  0  0  0  0  0  0  0  0  0
   60.0678   26.6434   46.0589 H   0  0  0  0  0  0  0  0  0  0  0  0
   58.7828   24.7406   47.0335 H   0  0  0  0  0  0  0  0  0  0  0  0
   56.2885   24.7653   46.9927 H   0  0  0  0  0  0  0  0  0  0  0  0
   60.1119   29.4621   46.1484 H   0  0  0  0  0  0  0  0  0  0  0  0
   60.9648   29.4240   48.4904 H   0  0  0  0  0  0  0  0  0  0  0  0
   60.2164   31.1573   50.1210 H   0  0  0  0  0  0  0  0  0  0  0  0
   58.5986   32.9172   49.4204 H   0  0  0  0  0  0  0  0  0  0  0  0
   56.5040   32.7108   46.6249 H   0  0  0  0  0  0  0  0  0  0  0  0
   57.1500   33.8010   47.9239 H   0  0  0  0  0  0  0  0  0  0  0  0
   57.7645   33.7655   44.9591 H   0  0  0  0  0  0  0  0  0  0  0  0
   57.3213   35.1460   46.0515 H   0  0  0  0  0  0  0  0  0  0  0  0
   60.0860   32.7130   45.3000 H   0  0  0  0  0  0  0  0  0  0  0  0
   62.3850   33.2720   45.2823 H   0  0  0  0  0  0  0  0  0  0  0  0
   61.9971   34.9242   45.8919 H   0  0  0  0  0  0  0  0  0  0  0  0
   63.4032   31.7729   46.7584 H   0  0  0  0  0  0  0  0  0  0  0  0
   64.1064   31.1598   49.0673 H   0  0  0  0  0  0  0  0  0  0  0  0
   62.8899   30.0922   52.5166 H   0  0  0  0  0  0  0  0  0  0  0  0
   61.9920   30.7247   53.9346 H   0  0  0  0  0  0  0  0  0  0  0  0
   60.9606   30.1855   51.1120 H   0  0  0  0  0  0  0  0  0  0  0  0
   60.3888   29.4980   52.6937 H   0  0  0  0  0  0  0  0  0  0  0  0
   58.1142   30.1345   51.7618 H   0  0  0  0  0  0  0  0  0  0  0  0
   56.3640   31.9058   51.8462 H   0  0  0  0  0  0  0  0  0  0  0  0
   56.9850   34.2557   52.4055 H   0  0  0  0  0  0  0  0  0  0  0  0
   59.3582   34.8428   52.8801 H   0  0  0  0  0  0  0  0  0  0  0  0
   61.7671   34.1327   52.3277 H   0  0  0  0  0  0  0  0  0  0  0  0
   61.6289   33.3592   53.9532 H   0  0  0  0  0  0  0  0  0  0  0  0
   61.6722   34.3737   50.6563 H   0  0  0  0  0  0  0  0  0  0  0  0
   60.9718   34.9842   48.3452 H   0  0  0  0  0  0  0  0  0  0  0  0
  1  2  2  0
  2  3  1  0
  3  4  1  0
  4  5  1  0
  5  6  2  0
  6  7  1  0
  7  8  2  0
  8  9  1  0
  9 10  2  0
 10 11  1  0
  2 12  1  0
 12 13  1  0
 13 14  2  0
 14 15  1  0
 15 16  2  0
 16 17  1  0
 17 18  2  0
 18 19  1  0
 19 20  1  0
 20 21  1  0
 21 22  2  0
 21 23  1  0
 23 24  1  0
 24 25  1  0
 25 26  2  0
 26 27  1  0
 27 28  2  0
 28 29  1  0
 29 30  2  0
 29 31  1  0
 31 32  1  0
 32 33  1  0
 33 34  1  0
 34 35  2  0
 35 36  1  0
 36 37  2  0
 37 38  1  0
 38 39  2  0
 39 40  1  0
 28 41  1  0
 41 42  2  0
 10  5  1  0
 18 13  1  0
 42 25  1  0
 40 31  1  0
 39 34  1  0
  3 43  1  0
  3 44  1  0
  6 45  1  0
  7 46  1  0
  8 47  1  0
  9 48  1  0
 14 49  1  0
 15 50  1  0
 16 51  1  0
 17 52  1  0
 19 53  1  0
 19 54  1  0
 20 55  1  0
 20 56  1  0
 23 57  1  0
 24 58  1  0
 24 59  1  0
 26 60  1  0
 27 61  1  0
 32 62  1  0
 32 63  1  0
 33 64  1  0
 33 65  1  0
 35 66  1  0
 36 67  1  0
 37 68  1  0
 38 69  1  0
 40 70  1  0
 40 71  1  0
 41 72  1  0
 42 73  1  0
M  CHG  2  11  -1  12  -1
M  END
>  <UniqueID>  (96) 
88

>  <SMILES>  (96) 
O=C(COc1ccccc1[O-])[N-]c1ccccc1CCC(=O)NCc1ccc(C(=O)N2CCc3ccccc3C2)cc1

>  <Energy>  (96) 
87.58987378430942

>  <Genealogy>  (96) 
O=C(COc1ccccc1[O-])[N-]c1ccccc1CCC(=O)NCc1ccc(C(=O)N2CCc3ccccc3C2)cc1 (protonated)
O=C(COc1ccccc1[O-])[N-]c1ccccc1CCC(=O)NCc1ccc(C(=O)N2CCc3ccccc3C2)cc1 (3D coordinates assigned)
O=C(COc1ccccc1[O-])[N-]c1ccccc1CCC(=O)NCc1ccc(C(=O)N2CCc3ccccc3C2)cc1 (nonaromatic ring conformer: 87.58987378430942 kcal/mol)

>  <smiles>  (96) 
O=C(CCc1ccccc1NC(=O)COc1ccccc1O)NCc1ccc(C(=O)N2CCc3ccccc3C2)cc1

>  <score_type>  (96) 
oracle

>  <origin>  (96) 
adg

>  <m_score__min__energy>  (96) 
-15.77

>  <m_primary>  (96) 
energy

$$$$
