0:0
     RDKit          3D

 67 70  0  0  0  0  0  0  0  0999 V2000
   59.1410   33.4150   45.7690 C   0  0  0  0  0  0  0  0  0  0  0  0
   60.0180   34.3730   46.5850 C   0  0  0  0  0  0  0  0  0  0  0  0
   61.1350   33.7110   47.3020 N   0  0  0  0  0  0  0  0  0  0  0  0
   62.3920   33.6180   46.5130 C   0  0  0  0  0  0  0  0  0  0  0  0
   63.4380   32.7340   47.1920 C   0  0  0  0  0  0  0  0  0  0  0  0
   61.3740   34.3030   48.6370 C   0  0  0  0  0  0  0  0  0  0  0  0
   60.0470   34.5910   49.3350 C   0  0  0  0  0  0  0  0  0  0  0  0
   60.0830   34.0400   50.6480 O   0  0  0  0  0  0  0  0  0  0  0  0
   59.1750   33.0790   51.1160 C   0  0  0  0  0  0  0  0  0  0  0  0
   58.3940   33.3010   52.2610 C   0  0  0  0  0  0  0  0  0  0  0  0
   57.4440   32.3610   52.6600 C   0  0  0  0  0  0  0  0  0  0  0  0
   57.2360   31.1930   51.9080 C   0  0  0  0  0  0  0  0  0  0  0  0
   56.1730   30.2760   52.2540 N   0  0  0  0  0  0  0  0  0  0  0  0
   54.8130   30.4700   51.7410 C   0  0  0  0  0  0  0  0  0  0  0  0
   53.7820   30.3310   52.8760 C   0  0  0  0  0  0  0  0  0  0  0  0
   54.1310   29.3010   53.8910 N   0  0  0  0  0  0  0  0  0  0  0  0
   54.4820   29.9070   55.1870 C   0  0  0  0  0  0  0  0  0  0  0  0
   55.1660   28.3450   53.4360 C   0  0  0  0  0  0  0  0  0  0  0  0
   56.4620   29.0570   53.0230 C   0  0  0  0  0  0  0  0  0  0  0  0
   58.0690   30.9420   50.8040 C   0  0  0  0  0  0  0  0  0  0  0  0
   59.0570   31.8630   50.4230 C   0  0  0  0  0  0  0  0  0  0  0  0
   59.9110   31.5930   49.2980 N   0  0  0  0  0  0  0  0  0  0  0  0
   60.3000   29.9850   48.7670 S   0  0  0  0  0  0  0  0  0  0  0  0
   61.6100   30.0160   48.0280 O   0  0  0  0  0  0  0  0  0  0  0  0
   60.4520   29.0570   49.9410 O   0  0  0  0  0  0  0  0  0  0  0  0
   59.0320   29.3960   47.6980 C   0  0  0  0  0  0  0  0  0  0  0  0
   58.6690   28.0240   47.7000 C   0  0  0  0  0  0  0  0  0  0  0  0
   57.6610   27.5520   46.8380 C   0  0  0  0  0  0  0  0  0  0  0  0
   57.0420   28.4740   45.9990 C   0  0  0  0  0  0  0  0  0  0  0  0
   56.0780   28.2390   45.0980 N   0  0  0  0  0  0  0  0  0  0  0  0
   55.8730   29.4780   44.5770 C   0  0  0  0  0  0  0  0  0  0  0  0
   55.0250   29.6960   43.6750 O   0  0  0  0  0  0  0  0  0  0  0  0
   56.6510   30.4630   45.0970 N   0  0  0  0  0  0  0  0  0  0  0  0
   57.3820   29.7920   45.9990 C   0  0  0  0  0  0  0  0  0  0  0  0
   58.3720   30.2970   46.8360 C   0  0  0  0  0  0  0  0  0  0  0  0
   58.5588   32.7790   46.4521 H   0  0  0  0  0  0  0  0  0  0  0  0
   58.4552   33.9959   45.1349 H   0  0  0  0  0  0  0  0  0  0  0  0
   59.7801   32.7830   45.1349 H   0  0  0  0  0  0  0  0  0  0  0  0
   60.4429   35.1208   45.8993 H   0  0  0  0  0  0  0  0  0  0  0  0
   59.3694   34.8199   47.3529 H   0  0  0  0  0  0  0  0  0  0  0  0
   62.1590   33.1951   45.5246 H   0  0  0  0  0  0  0  0  0  0  0  0
   62.8116   34.6312   46.4272 H   0  0  0  0  0  0  0  0  0  0  0  0
   63.3371   32.8193   48.2840 H   0  0  0  0  0  0  0  0  0  0  0  0
   63.2851   31.6873   46.8903 H   0  0  0  0  0  0  0  0  0  0  0  0
   64.4446   33.0593   46.8903 H   0  0  0  0  0  0  0  0  0  0  0  0
   61.9592   33.5988   49.2466 H   0  0  0  0  0  0  0  0  0  0  0  0
   61.9265   35.2465   48.5160 H   0  0  0  0  0  0  0  0  0  0  0  0
   59.8908   35.6782   49.3957 H   0  0  0  0  0  0  0  0  0  0  0  0
   59.2221   34.1384   48.7652 H   0  0  0  0  0  0  0  0  0  0  0  0
   58.5320   34.2216   52.8470 H   0  0  0  0  0  0  0  0  0  0  0  0
   56.8528   32.5358   53.5710 H   0  0  0  0  0  0  0  0  0  0  0  0
   54.7325   31.4746   51.3003 H   0  0  0  0  0  0  0  0  0  0  0  0
   54.6081   29.7034   50.9792 H   0  0  0  0  0  0  0  0  0  0  0  0
   53.6957   31.3023   53.3851 H   0  0  0  0  0  0  0  0  0  0  0  0
   52.8387   30.0101   52.4100 H   0  0  0  0  0  0  0  0  0  0  0  0
   54.1121   29.2683   56.0026 H   0  0  0  0  0  0  0  0  0  0  0  0
   55.5752   30.0024   55.2631 H   0  0  0  0  0  0  0  0  0  0  0  0
   54.0208   30.9028   55.2631 H   0  0  0  0  0  0  0  0  0  0  0  0
   55.3898   27.6466   54.2558 H   0  0  0  0  0  0  0  0  0  0  0  0
   54.7748   27.8125   52.5566 H   0  0  0  0  0  0  0  0  0  0  0  0
   57.0271   29.3278   53.9270 H   0  0  0  0  0  0  0  0  0  0  0  0
   57.0493   28.3753   52.3903 H   0  0  0  0  0  0  0  0  0  0  0  0
   57.9448   30.0113   50.2310 H   0  0  0  0  0  0  0  0  0  0  0  0
   60.4350   32.3780   48.8550 H   0  0  0  0  0  0  0  0  0  0  0  0
   59.1785   27.3249   48.3794 H   0  0  0  0  0  0  0  0  0  0  0  0
   57.3724   26.4906   46.8279 H   0  0  0  0  0  0  0  0  0  0  0  0
   58.6321   31.3658   46.8260 H   0  0  0  0  0  0  0  0  0  0  0  0
  1  2  1  0
  2  3  1  0
  3  4  1  0
  4  5  1  0
  3  6  1  0
  6  7  1  0
  7  8  1  0
  8  9  1  0
  9 10  2  0
 10 11  1  0
 11 12  2  0
 12 13  1  0
 13 14  1  0
 14 15  1  0
 15 16  1  0
 16 17  1  0
 16 18  1  0
 18 19  1  0
 12 20  1  0
 20 21  2  0
 21 22  1  0
 22 23  1  0
 23 24  2  0
 23 25  2  0
 23 26  1  0
 26 27  2  0
 27 28  1  0
 28 29  2  0
 29 30  1  0
 30 31  1  0
 31 32  2  0
 31 33  1  0
 33 34  1  0
 34 35  2  0
 21  9  1  0
 35 26  1  0
 19 13  1  0
 34 29  1  0
  1 36  1  0
  1 37  1  0
  1 38  1  0
  2 39  1  0
  2 40  1  0
  4 41  1  0
  4 42  1  0
  5 43  1  0
  5 44  1  0
  5 45  1  0
  6 46  1  0
  6 47  1  0
  7 48  1  0
  7 49  1  0
 10 50  1  0
 11 51  1  0
 14 52  1  0
 14 53  1  0
 15 54  1  0
 15 55  1  0
 17 56  1  0
 17 57  1  0
 17 58  1  0
 18 59  1  0
 18 60  1  0
 19 61  1  0
 19 62  1  0
 20 63  1  0
 22 64  1  0
 27 65  1  0
 28 66  1  0
 35 67  1  0
M  CHG  2  30  -1  33  -1
M  END
>  <UniqueID>  (1) 
1

>  <SMILES>  (1) 
CCN(CC)CCOc1ccc(N2CCN(C)CC2)cc1NS(=O)(=O)c1ccc2[n-]c(=O)[n-]c2c1

>  <Energy>  (1) 
122.93185809398528

>  <Genealogy>  (1) 
CCN(CC)CCOc1ccc(N2CCN(C)CC2)cc1NS(=O)(=O)c1ccc2[n-]c(=O)[n-]c2c1 (protonated)
CCN(CC)CCOc1ccc(N2CCN(C)CC2)cc1NS(=O)(=O)c1ccc2[n-]c(=O)[n-]c2c1 (3D coordinates assigned)
CCN(CC)CCOc1ccc(N2CCN(C)CC2)cc1NS(=O)(=O)c1ccc2[n-]c(=O)[n-]c2c1 (nonaromatic ring conformer: 122.93185809398528 kcal/mol)

>  <smiles>  (1) 
CCN(CC)CCOc1ccc(N2CCN(C)CC2)cc1NS(=O)(=O)c1ccc2[nH]c(=O)[nH]c2c1

>  <score_type>  (1) 
oracle

>  <origin>  (1) 
adg

>  <m_score__min__energy>  (1) 
-12.890000000000001

>  <m_primary>  (1) 
energy

$$$$
1:0
     RDKit          3D

 48 50  0  0  0  0  0  0  0  0999 V2000
   57.4680   21.7230   43.4750 C   0  0  0  0  0  0  0  0  0  0  0  0
   56.6970   22.5870   44.3640 N   0  0  0  0  0  0  0  0  0  0  0  0
   55.7330   22.2250   45.2480 C   0  0  0  0  0  0  0  0  0  0  0  0
   55.3360   21.0380   45.3980 O   0  0  0  0  0  0  0  0  0  0  0  0
   55.2570   23.2700   45.9710 N   0  0  0  0  0  0  0  0  0  0  0  0
   54.2870   23.2430   47.0620 C   0  0  0  0  0  0  0  0  0  0  0  0
   55.9780   24.3240   45.5380 C   0  0  0  0  0  0  0  0  0  0  0  0
   55.9390   25.6460   45.9810 C   0  0  0  0  0  0  0  0  0  0  0  0
   56.8540   26.5650   45.4110 C   0  0  0  0  0  0  0  0  0  0  0  0
   56.9150   27.9340   45.8340 N   0  0  0  0  0  0  0  0  0  0  0  0
   56.6550   29.3070   44.8060 S   0  0  0  0  0  0  0  0  0  0  0  0
   57.0120   28.9390   43.3920 O   0  0  0  0  0  0  0  0  0  0  0  0
   55.2030   29.6920   44.8640 O   0  0  0  0  0  0  0  0  0  0  0  0
   57.6750   30.6460   45.3240 C   0  0  0  0  0  0  0  0  0  0  0  0
   57.4240   31.9450   44.8730 C   0  0  0  0  0  0  0  0  0  0  0  0
   58.1790   33.0160   45.3550 C   0  0  0  0  0  0  0  0  0  0  0  0
   59.2140   32.8160   46.2970 C   0  0  0  0  0  0  0  0  0  0  0  0
   59.9980   34.0300   46.8370 C   0  0  0  0  0  0  0  0  0  0  0  0
   59.6300   35.2900   46.0230 C   0  0  0  0  0  0  0  0  0  0  0  0
   61.5330   33.8480   46.7510 C   0  0  0  0  0  0  0  0  0  0  0  0
   59.6320   34.2520   48.3220 C   0  0  0  0  0  0  0  0  0  0  0  0
   59.4650   31.4910   46.7260 C   0  0  0  0  0  0  0  0  0  0  0  0
   58.7030   30.4230   46.2430 C   0  0  0  0  0  0  0  0  0  0  0  0
   57.7520   26.1290   44.4060 C   0  0  0  0  0  0  0  0  0  0  0  0
   57.7610   24.7870   43.9760 C   0  0  0  0  0  0  0  0  0  0  0  0
   56.8540   23.9100   44.5700 C   0  0  0  0  0  0  0  0  0  0  0  0
   58.0821   21.0348   44.0743 H   0  0  0  0  0  0  0  0  0  0  0  0
   56.7813   21.1436   42.8404 H   0  0  0  0  0  0  0  0  0  0  0  0
   58.1215   22.3396   42.8404 H   0  0  0  0  0  0  0  0  0  0  0  0
   54.8180   23.2578   48.0252 H   0  0  0  0  0  0  0  0  0  0  0  0
   53.6311   24.1232   46.9914 H   0  0  0  0  0  0  0  0  0  0  0  0
   53.6811   22.3276   46.9914 H   0  0  0  0  0  0  0  0  0  0  0  0
   55.2197   25.9652   46.7495 H   0  0  0  0  0  0  0  0  0  0  0  0
   56.6282   32.1243   44.1351 H   0  0  0  0  0  0  0  0  0  0  0  0
   57.9647   34.0333   44.9955 H   0  0  0  0  0  0  0  0  0  0  0  0
   59.3894   36.1138   46.7111 H   0  0  0  0  0  0  0  0  0  0  0  0
   60.4814   35.5786   45.3891 H   0  0  0  0  0  0  0  0  0  0  0  0
   58.7571   35.0750   45.3891 H   0  0  0  0  0  0  0  0  0  0  0  0
   61.9538   33.7981   47.7661 H   0  0  0  0  0  0  0  0  0  0  0  0
   61.7622   32.9164   46.2129 H   0  0  0  0  0  0  0  0  0  0  0  0
   61.9737   34.7002   46.2129 H   0  0  0  0  0  0  0  0  0  0  0  0
   60.3972   33.7879   48.9616 H   0  0  0  0  0  0  0  0  0  0  0  0
   59.5849   35.3310   48.5307 H   0  0  0  0  0  0  0  0  0  0  0  0
   58.6534   33.7951   48.5307 H   0  0  0  0  0  0  0  0  0  0  0  0
   60.2709   31.2987   47.4496 H   0  0  0  0  0  0  0  0  0  0  0  0
   58.9144   29.4004   46.5889 H   0  0  0  0  0  0  0  0  0  0  0  0
   58.4519   26.8478   43.9550 H   0  0  0  0  0  0  0  0  0  0  0  0
   58.4593   24.4432   43.1987 H   0  0  0  0  0  0  0  0  0  0  0  0
  1  2  1  0
  2  3  1  0
  3  4  2  0
  3  5  1  0
  5  6  1  0
  5  7  1  0
  7  8  2  0
  8  9  1  0
  9 10  1  0
 10 11  1  0
 11 12  2  0
 11 13  2  0
 11 14  1  0
 14 15  2  0
 15 16  1  0
 16 17  2  0
 17 18  1  0
 18 19  1  0
 18 20  1  0
 18 21  1  0
 17 22  1  0
 22 23  2  0
  9 24  2  0
 24 25  1  0
 25 26  2  0
 26  2  1  0
 26  7  1  0
 23 14  1  0
  1 27  1  0
  1 28  1  0
  1 29  1  0
  6 30  1  0
  6 31  1  0
  6 32  1  0
  8 33  1  0
 15 34  1  0
 16 35  1  0
 19 36  1  0
 19 37  1  0
 19 38  1  0
 20 39  1  0
 20 40  1  0
 20 41  1  0
 21 42  1  0
 21 43  1  0
 21 44  1  0
 22 45  1  0
 23 46  1  0
 24 47  1  0
 25 48  1  0
M  CHG  1  10  -1
M  END
>  <UniqueID>  (2) 
2

>  <SMILES>  (2) 
Cn1c(=O)n(C)c2cc([N-]S(=O)(=O)c3ccc(C(C)(C)C)cc3)ccc21

>  <Energy>  (2) 
93.49268389055986

>  <Genealogy>  (2) 
Cn1c(=O)n(C)c2cc([N-]S(=O)(=O)c3ccc(C(C)(C)C)cc3)ccc21 (protonated)
Cn1c(=O)n(C)c2cc([N-]S(=O)(=O)c3ccc(C(C)(C)C)cc3)ccc21 (3D coordinates assigned)
Cn1c(=O)n(C)c2cc([N-]S(=O)(=O)c3ccc(C(C)(C)C)cc3)ccc21 (optimized conformer: 93.49268389055986 kcal/mol)

>  <smiles>  (2) 
Cn1c(=O)n(C)c2cc(NS(=O)(=O)c3ccc(C(C)(C)C)cc3)ccc21

>  <score_type>  (2) 
oracle

>  <origin>  (2) 
adg

>  <m_score__min__energy>  (2) 
-9.9499999999999993

>  <m_primary>  (2) 
energy

$$$$
2:0
     RDKit          3D

 47 49  0  0  0  0  0  0  0  0999 V2000
   54.8700   21.5480   46.2090 C   0  0  0  0  0  0  0  0  0  0  0  0
   53.6530   22.8400   46.3500 S   0  0  0  0  0  0  0  0  0  0  0  0
   52.6380   22.7280   45.2450 O   0  0  0  0  0  0  0  0  0  0  0  0
   52.9500   22.6990   47.6700 O   0  0  0  0  0  0  0  0  0  0  0  0
   54.4290   24.3900   46.2980 N   0  0  0  0  0  0  0  0  0  0  0  0
   55.5620   24.7370   45.4880 C   0  0  0  0  0  0  0  0  0  0  0  0
   55.8760   24.0500   44.3020 C   0  0  0  0  0  0  0  0  0  0  0  0
   56.9700   24.4470   43.5290 C   0  0  0  0  0  0  0  0  0  0  0  0
   57.7690   25.5200   43.9370 C   0  0  0  0  0  0  0  0  0  0  0  0
   57.4870   26.1950   45.1320 C   0  0  0  0  0  0  0  0  0  0  0  0
   58.3180   27.2940   45.5410 N   0  0  0  0  0  0  0  0  0  0  0  0
   59.0710   27.2990   46.7660 C   0  0  0  0  0  0  0  0  0  0  0  0
   59.2950   26.2110   47.3670 O   0  0  0  0  0  0  0  0  0  0  0  0
   59.6280   28.5590   47.3110 C   0  0  0  0  0  0  0  0  0  0  0  0
   60.1440   29.5490   46.4580 C   0  0  0  0  0  0  0  0  0  0  0  0
   60.6440   30.7450   46.9810 C   0  0  0  0  0  0  0  0  0  0  0  0
   60.6450   30.9720   48.3620 C   0  0  0  0  0  0  0  0  0  0  0  0
   61.1750   32.2110   48.8540 N   0  0  0  0  0  0  0  0  0  0  0  0
   60.3430   33.7340   48.8270 S   0  0  0  0  0  0  0  0  0  0  0  0
   59.4000   33.8010   49.9950 O   0  0  0  0  0  0  0  0  0  0  0  0
   61.3410   34.8510   48.9540 O   0  0  0  0  0  0  0  0  0  0  0  0
   59.4130   33.8830   47.3370 C   0  0  0  0  0  0  0  0  0  0  0  0
   59.9350   34.6180   46.2630 C   0  0  0  0  0  0  0  0  0  0  0  0
   59.2060   34.7450   45.0780 C   0  0  0  0  0  0  0  0  0  0  0  0
   57.9510   34.1420   44.9590 C   0  0  0  0  0  0  0  0  0  0  0  0
   57.4230   33.4090   46.0280 C   0  0  0  0  0  0  0  0  0  0  0  0
   58.1520   33.2770   47.2130 C   0  0  0  0  0  0  0  0  0  0  0  0
   60.1250   29.9880   49.2190 C   0  0  0  0  0  0  0  0  0  0  0  0
   59.6160   28.7960   48.6960 C   0  0  0  0  0  0  0  0  0  0  0  0
   56.3680   25.8100   45.8930 C   0  0  0  0  0  0  0  0  0  0  0  0
   55.1769   21.2222   47.2138 H   0  0  0  0  0  0  0  0  0  0  0  0
   54.4387   20.6960   45.6630 H   0  0  0  0  0  0  0  0  0  0  0  0
   55.7462   21.9276   45.6630 H   0  0  0  0  0  0  0  0  0  0  0  0
   55.2586   23.1977   43.9819 H   0  0  0  0  0  0  0  0  0  0  0  0
   57.2039   23.9136   42.5958 H   0  0  0  0  0  0  0  0  0  0  0  0
   58.6217   25.8350   43.3176 H   0  0  0  0  0  0  0  0  0  0  0  0
   58.4930   28.0600   44.8510 H   0  0  0  0  0  0  0  0  0  0  0  0
   60.1546   29.3817   45.3708 H   0  0  0  0  0  0  0  0  0  0  0  0
   61.0400   31.5141   46.3015 H   0  0  0  0  0  0  0  0  0  0  0  0
   60.9215   35.0961   46.3538 H   0  0  0  0  0  0  0  0  0  0  0  0
   59.6206   35.3206   44.2373 H   0  0  0  0  0  0  0  0  0  0  0  0
   57.3782   34.2434   44.0254 H   0  0  0  0  0  0  0  0  0  0  0  0
   56.4339   32.9366   45.9354 H   0  0  0  0  0  0  0  0  0  0  0  0
   57.7372   32.6971   48.0506 H   0  0  0  0  0  0  0  0  0  0  0  0
   60.1184   30.1562   50.3060 H   0  0  0  0  0  0  0  0  0  0  0  0
   59.2020   28.0361   49.3751 H   0  0  0  0  0  0  0  0  0  0  0  0
   56.1230   26.3568   46.8155 H   0  0  0  0  0  0  0  0  0  0  0  0
  1  2  1  0
  2  3  2  0
  2  4  2  0
  2  5  1  0
  5  6  1  0
  6  7  2  0
  7  8  1  0
  8  9  2  0
  9 10  1  0
 10 11  1  0
 11 12  1  0
 12 13  2  0
 12 14  1  0
 14 15  2  0
 15 16  1  0
 16 17  2  0
 17 18  1  0
 18 19  1  0
 19 20  2  0
 19 21  2  0
 19 22  1  0
 22 23  2  0
 23 24  1  0
 24 25  2  0
 25 26  1  0
 26 27  2  0
 17 28  1  0
 28 29  2  0
 10 30  2  0
 30  6  1  0
 29 14  1  0
 27 22  1  0
  1 31  1  0
  1 32  1  0
  1 33  1  0
  7 34  1  0
  8 35  1  0
  9 36  1  0
 11 37  1  0
 15 38  1  0
 16 39  1  0
 23 40  1  0
 24 41  1  0
 25 42  1  0
 26 43  1  0
 27 44  1  0
 28 45  1  0
 29 46  1  0
 30 47  1  0
M  CHG  2   5  -1  18  -1
M  END
>  <UniqueID>  (3) 
3

>  <SMILES>  (3) 
CS(=O)(=O)[N-]c1cccc(NC(=O)c2ccc([N-]S(=O)(=O)c3ccccc3)cc2)c1

>  <Energy>  (3) 
57.75785737093026

>  <Genealogy>  (3) 
CS(=O)(=O)[N-]c1cccc(NC(=O)c2ccc([N-]S(=O)(=O)c3ccccc3)cc2)c1 (protonated)
CS(=O)(=O)[N-]c1cccc(NC(=O)c2ccc([N-]S(=O)(=O)c3ccccc3)cc2)c1 (3D coordinates assigned)
CS(=O)(=O)[N-]c1cccc(NC(=O)c2ccc([N-]S(=O)(=O)c3ccccc3)cc2)c1 (optimized conformer: 57.75785737093026 kcal/mol)

>  <smiles>  (3) 
CS(=O)(=O)Nc1cccc(NC(=O)c2ccc(NS(=O)(=O)c3ccccc3)cc2)c1

>  <score_type>  (3) 
oracle

>  <origin>  (3) 
adg

>  <m_score__min__energy>  (3) 
-11.5

>  <m_primary>  (3) 
energy

$$$$
3:0
     RDKit          3D

 32 33  0  0  0  0  0  0  0  0999 V2000
   54.8080   26.2310   45.9860 N   0  0  0  0  0  0  0  0  0  0  0  0
   56.4950   25.8700   45.8980 S   0  0  0  0  0  0  0  0  0  0  0  0
   56.9680   25.3710   47.2340 O   0  0  0  0  0  0  0  0  0  0  0  0
   56.7290   24.7970   44.8720 O   0  0  0  0  0  0  0  0  0  0  0  0
   57.3850   27.3210   45.4500 C   0  0  0  0  0  0  0  0  0  0  0  0
   58.7680   27.2650   45.2300 C   0  0  0  0  0  0  0  0  0  0  0  0
   59.4710   28.4230   44.8870 C   0  0  0  0  0  0  0  0  0  0  0  0
   58.7960   29.6390   44.7530 C   0  0  0  0  0  0  0  0  0  0  0  0
   57.4100   29.7010   44.9460 C   0  0  0  0  0  0  0  0  0  0  0  0
   56.7390   30.9560   44.7850 N   0  0  0  0  0  0  0  0  0  0  0  0
   57.3250   32.1640   44.2770 C   0  0  0  0  0  0  0  0  0  0  0  0
   57.9420   32.1190   43.1790 O   0  0  0  0  0  0  0  0  0  0  0  0
   57.1890   33.4920   44.9810 C   0  0  0  0  0  0  0  0  0  0  0  0
   58.2660   33.6930   46.0180 C   0  0  0  0  0  0  0  0  0  0  0  0
   58.1040   33.1810   47.3170 C   0  0  0  0  0  0  0  0  0  0  0  0
   59.1120   33.3430   48.2710 C   0  0  0  0  0  0  0  0  0  0  0  0
   60.2880   34.0250   47.9390 C   0  0  0  0  0  0  0  0  0  0  0  0
   61.5570   34.2200   49.1340 Cl  0  0  0  0  0  0  0  0  0  0  0  0
   60.4490   34.5530   46.6530 C   0  0  0  0  0  0  0  0  0  0  0  0
   59.4400   34.3950   45.7000 C   0  0  0  0  0  0  0  0  0  0  0  0
   56.7130   28.5450   45.3280 C   0  0  0  0  0  0  0  0  0  0  0  0
   54.7100   27.0880   46.5750 H   0  0  0  0  0  0  0  0  0  0  0  0
   59.3011   26.3078   45.3275 H   0  0  0  0  0  0  0  0  0  0  0  0
   60.5576   28.3771   44.7222 H   0  0  0  0  0  0  0  0  0  0  0  0
   59.3549   30.5507   44.4951 H   0  0  0  0  0  0  0  0  0  0  0  0
   57.2583   34.2981   44.2357 H   0  0  0  0  0  0  0  0  0  0  0  0
   56.2158   33.5076   45.4935 H   0  0  0  0  0  0  0  0  0  0  0  0
   57.1785   32.6498   47.5840 H   0  0  0  0  0  0  0  0  0  0  0  0
   58.9810   32.9341   49.2838 H   0  0  0  0  0  0  0  0  0  0  0  0
   61.3712   35.0931   46.3923 H   0  0  0  0  0  0  0  0  0  0  0  0
   59.5658   34.8230   44.6945 H   0  0  0  0  0  0  0  0  0  0  0  0
   55.6336   28.5994   45.5328 H   0  0  0  0  0  0  0  0  0  0  0  0
  1  2  1  0
  2  3  2  0
  2  4  2  0
  2  5  1  0
  5  6  2  0
  6  7  1  0
  7  8  2  0
  8  9  1  0
  9 10  1  0
 10 11  1  0
 11 12  2  0
 11 13  1  0
 13 14  1  0
 14 15  2  0
 15 16  1  0
 16 17  2  0
 17 18  1  0
 17 19  1  0
 19 20  2  0
  9 21  2  0
 21  5  1  0
 20 14  1  0
  1 22  1  0
  6 23  1  0
  7 24  1  0
  8 25  1  0
 13 26  1  0
 13 27  1  0
 15 28  1  0
 16 29  1  0
 19 30  1  0
 20 31  1  0
 21 32  1  0
M  CHG  2   1  -1  10  -1
M  END
>  <UniqueID>  (4) 
4

>  <SMILES>  (4) 
[NH-]S(=O)(=O)c1cccc([N-]C(=O)Cc2ccc(Cl)cc2)c1

>  <Energy>  (4) 
34.564434157088904

>  <Genealogy>  (4) 
[NH-]S(=O)(=O)c1cccc([N-]C(=O)Cc2ccc(Cl)cc2)c1 (protonated)
[NH-]S(=O)(=O)c1cccc([N-]C(=O)Cc2ccc(Cl)cc2)c1 (3D coordinates assigned)
[NH-]S(=O)(=O)c1cccc([N-]C(=O)Cc2ccc(Cl)cc2)c1 (optimized conformer: 34.564434157088904 kcal/mol)

>  <smiles>  (4) 
NS(=O)(=O)c1cccc(NC(=O)Cc2ccc(Cl)cc2)c1

>  <score_type>  (4) 
oracle

>  <origin>  (4) 
adg

>  <m_score__min__energy>  (4) 
-12.56

>  <m_primary>  (4) 
energy

$$$$
4:0
     RDKit          3D

 39 40  0  0  0  0  0  0  0  0999 V2000
   59.6280   34.9640   46.8260 C   0  0  0  0  0  0  0  0  0  0  0  0
   60.0000   33.8020   48.1230 S   0  0  0  0  0  0  0  0  0  0  0  0
   60.3800   34.5660   49.3600 O   0  0  0  0  0  0  0  0  0  0  0  0
   61.1520   32.9230   47.7250 O   0  0  0  0  0  0  0  0  0  0  0  0
   58.6060   32.8320   48.4740 N   0  0  0  0  0  0  0  0  0  0  0  0
   58.4870   31.8900   49.5490 C   0  0  0  0  0  0  0  0  0  0  0  0
   57.9520   32.3310   50.7660 C   0  0  0  0  0  0  0  0  0  0  0  0
   57.8140   31.4500   51.8420 C   0  0  0  0  0  0  0  0  0  0  0  0
   58.2110   30.1050   51.7140 C   0  0  0  0  0  0  0  0  0  0  0  0
   58.0900   29.1760   52.7600 O   0  0  0  0  0  0  0  0  0  0  0  0
   56.8920   28.4880   53.1190 C   0  0  0  0  0  0  0  0  0  0  0  0
   55.7250   29.4290   53.1360 C   0  0  0  0  0  0  0  0  0  0  0  0
   55.7880   30.4730   53.8400 O   0  0  0  0  0  0  0  0  0  0  0  0
   54.5440   29.1310   52.3710 N   0  0  0  0  0  0  0  0  0  0  0  0
   53.4310   30.0300   52.2300 C   0  0  0  0  0  0  0  0  0  0  0  0
   52.9520   30.7760   53.3190 C   0  0  0  0  0  0  0  0  0  0  0  0
   51.8860   31.6580   53.1500 C   0  0  0  0  0  0  0  0  0  0  0  0
   51.2900   31.8220   51.8960 C   0  0  0  0  0  0  0  0  0  0  0  0
   50.2250   32.7090   51.7760 O   0  0  0  0  0  0  0  0  0  0  0  0
   51.7710   31.0980   50.7820 C   0  0  0  0  0  0  0  0  0  0  0  0
   51.1890   31.2460   49.4700 N   0  0  0  0  0  0  0  0  0  0  0  0
   51.1470   30.2900   48.6690 O   0  0  0  0  0  0  0  0  0  0  0  0
   50.6590   32.4540   49.0760 O   0  0  0  0  0  0  0  0  0  0  0  0
   52.8500   30.2110   50.9670 C   0  0  0  0  0  0  0  0  0  0  0  0
   58.7490   29.6680   50.4990 C   0  0  0  0  0  0  0  0  0  0  0  0
   58.8880   30.5500   49.4220 C   0  0  0  0  0  0  0  0  0  0  0  0
   59.3211   35.9227   47.2695 H   0  0  0  0  0  0  0  0  0  0  0  0
   60.5219   35.1174   46.2036 H   0  0  0  0  0  0  0  0  0  0  0  0
   58.8112   34.5697   46.2036 H   0  0  0  0  0  0  0  0  0  0  0  0
   57.6379   33.3795   50.8757 H   0  0  0  0  0  0  0  0  0  0  0  0
   57.3935   31.8087   52.7930 H   0  0  0  0  0  0  0  0  0  0  0  0
   56.7012   27.6893   52.3871 H   0  0  0  0  0  0  0  0  0  0  0  0
   57.0171   28.0617   54.1253 H   0  0  0  0  0  0  0  0  0  0  0  0
   54.4430   28.1670   51.9820 H   0  0  0  0  0  0  0  0  0  0  0  0
   53.4194   30.6640   54.3084 H   0  0  0  0  0  0  0  0  0  0  0  0
   51.5103   32.2302   54.0111 H   0  0  0  0  0  0  0  0  0  0  0  0
   53.2432   29.6510   50.1058 H   0  0  0  0  0  0  0  0  0  0  0  0
   59.0660   28.6204   50.3893 H   0  0  0  0  0  0  0  0  0  0  0  0
   59.3129   30.1927   48.4723 H   0  0  0  0  0  0  0  0  0  0  0  0
  1  2  1  0
  2  3  2  0
  2  4  2  0
  2  5  1  0
  5  6  1  0
  6  7  2  0
  7  8  1  0
  8  9  2  0
  9 10  1  0
 10 11  1  0
 11 12  1  0
 12 13  2  0
 12 14  1  0
 14 15  1  0
 15 16  2  0
 16 17  1  0
 17 18  2  0
 18 19  1  0
 18 20  1  0
 20 21  1  0
 21 22  2  0
 21 23  1  0
 20 24  2  0
  9 25  1  0
 25 26  2  0
 26  6  1  0
 24 15  1  0
  1 27  1  0
  1 28  1  0
  1 29  1  0
  7 30  1  0
  8 31  1  0
 11 32  1  0
 11 33  1  0
 14 34  1  0
 16 35  1  0
 17 36  1  0
 24 37  1  0
 25 38  1  0
 26 39  1  0
M  CHG  4   5  -1  19  -1  21   1  23  -1
M  END
>  <UniqueID>  (5) 
5

>  <SMILES>  (5) 
CS(=O)(=O)[N-]c1ccc(OCC(=O)Nc2ccc([O-])c([N+](=O)[O-])c2)cc1

>  <Energy>  (5) 
44.02799401190198

>  <Genealogy>  (5) 
CS(=O)(=O)[N-]c1ccc(OCC(=O)Nc2ccc([O-])c([N+](=O)[O-])c2)cc1 (protonated)
CS(=O)(=O)[N-]c1ccc(OCC(=O)Nc2ccc([O-])c([N+](=O)[O-])c2)cc1 (3D coordinates assigned)
CS(=O)(=O)[N-]c1ccc(OCC(=O)Nc2ccc([O-])c([N+](=O)[O-])c2)cc1 (optimized conformer: 44.02799401190198 kcal/mol)

>  <smiles>  (5) 
CS(=O)(=O)Nc1ccc(OCC(=O)Nc2ccc(O)c([N+](=O)[O-])c2)cc1

>  <score_type>  (5) 
oracle

>  <origin>  (5) 
adg

>  <m_score__min__energy>  (5) 
-13.08

>  <m_primary>  (5) 
energy

$$$$
5:0
     RDKit          3D

 50 54  0  0  0  0  0  0  0  0999 V2000
   59.1940   30.3910   49.5210 O   0  0  0  0  0  0  0  0  0  0  0  0
   58.5600   31.1940   50.2590 C   0  0  0  0  0  0  0  0  0  0  0  0
   58.7200   32.6100   50.0690 N   0  0  0  0  0  0  0  0  0  0  0  0
   59.4940   33.1470   48.9870 C   0  0  0  0  0  0  0  0  0  0  0  0
   60.8650   33.3550   49.1840 C   0  0  0  0  0  0  0  0  0  0  0  0
   61.6550   33.9010   48.1710 C   0  0  0  0  0  0  0  0  0  0  0  0
   61.0860   34.2380   46.9420 C   0  0  0  0  0  0  0  0  0  0  0  0
   59.7220   34.0130   46.7100 C   0  0  0  0  0  0  0  0  0  0  0  0
   59.1570   34.3290   45.4640 C   0  0  0  0  0  0  0  0  0  0  0  0
   57.8040   34.0810   45.2230 C   0  0  0  0  0  0  0  0  0  0  0  0
   57.0070   33.5100   46.2150 C   0  0  0  0  0  0  0  0  0  0  0  0
   57.5540   33.1910   47.4620 C   0  0  0  0  0  0  0  0  0  0  0  0
   58.9120   33.4530   47.7330 C   0  0  0  0  0  0  0  0  0  0  0  0
   57.6750   30.6540   51.3200 C   0  0  0  0  0  0  0  0  0  0  0  0
   58.0030   29.4790   52.0190 C   0  0  0  0  0  0  0  0  0  0  0  0
   57.1580   28.9890   53.0180 C   0  0  0  0  0  0  0  0  0  0  0  0
   55.9700   29.6670   53.3420 C   0  0  0  0  0  0  0  0  0  0  0  0
   55.0790   29.2050   54.3650 N   0  0  0  0  0  0  0  0  0  0  0  0
   53.4040   28.8190   54.1330 S   0  0  0  0  0  0  0  0  0  0  0  0
   53.2520   28.0770   52.8350 O   0  0  0  0  0  0  0  0  0  0  0  0
   52.9500   27.9350   55.2610 O   0  0  0  0  0  0  0  0  0  0  0  0
   52.4290   30.2930   54.0620 C   0  0  0  0  0  0  0  0  0  0  0  0
   52.1220   30.9780   55.2480 C   0  0  0  0  0  0  0  0  0  0  0  0
   51.3470   32.1420   55.2160 C   0  0  0  0  0  0  0  0  0  0  0  0
   50.8750   32.6410   54.0000 C   0  0  0  0  0  0  0  0  0  0  0  0
   51.1830   31.9790   52.8090 C   0  0  0  0  0  0  0  0  0  0  0  0
   50.7390   32.4600   51.6180 N   0  0  0  0  0  0  0  0  0  0  0  0
   51.0340   31.8330   50.4490 C   0  0  0  0  0  0  0  0  0  0  0  0
   50.6070   32.3040   49.3610 O   0  0  0  0  0  0  0  0  0  0  0  0
   51.8130   30.6680   50.4690 C   0  0  0  0  0  0  0  0  0  0  0  0
   52.1010   30.0680   49.4000 O   0  0  0  0  0  0  0  0  0  0  0  0
   52.2580   30.1830   51.6580 N   0  0  0  0  0  0  0  0  0  0  0  0
   51.9650   30.8020   52.8340 C   0  0  0  0  0  0  0  0  0  0  0  0
   55.6490   30.8430   52.6550 C   0  0  0  0  0  0  0  0  0  0  0  0
   56.4920   31.3350   51.6570 C   0  0  0  0  0  0  0  0  0  0  0  0
   58.1760   33.2850   50.6490 H   0  0  0  0  0  0  0  0  0  0  0  0
   61.3238   33.0854   50.1467 H   0  0  0  0  0  0  0  0  0  0  0  0
   62.7290   34.0661   48.3419 H   0  0  0  0  0  0  0  0  0  0  0  0
   61.7102   34.6818   46.1525 H   0  0  0  0  0  0  0  0  0  0  0  0
   59.7820   34.7732   44.6753 H   0  0  0  0  0  0  0  0  0  0  0  0
   57.3653   34.3369   44.2473 H   0  0  0  0  0  0  0  0  0  0  0  0
   55.9439   33.3097   46.0158 H   0  0  0  0  0  0  0  0  0  0  0  0
   56.9205   32.7329   48.2359 H   0  0  0  0  0  0  0  0  0  0  0  0
   58.9318   28.9415   51.7776 H   0  0  0  0  0  0  0  0  0  0  0  0
   57.4242   28.0664   53.5546 H   0  0  0  0  0  0  0  0  0  0  0  0
   52.4939   30.5964   56.2103 H   0  0  0  0  0  0  0  0  0  0  0  0
   51.1082   32.6667   56.1528 H   0  0  0  0  0  0  0  0  0  0  0  0
   50.2616   33.5539   53.9801 H   0  0  0  0  0  0  0  0  0  0  0  0
   54.7243   31.3845   52.9035 H   0  0  0  0  0  0  0  0  0  0  0  0
   56.2284   32.2636   51.1296 H   0  0  0  0  0  0  0  0  0  0  0  0
  1  2  2  0
  2  3  1  0
  3  4  1  0
  4  5  2  0
  5  6  1  0
  6  7  2  0
  7  8  1  0
  8  9  2  0
  9 10  1  0
 10 11  2  0
 11 12  1  0
 12 13  2  0
  2 14  1  0
 14 15  2  0
 15 16  1  0
 16 17  2  0
 17 18  1  0
 18 19  1  0
 19 20  2  0
 19 21  2  0
 19 22  1  0
 22 23  2  0
 23 24  1  0
 24 25  2  0
 25 26  1  0
 26 27  1  0
 27 28  1  0
 28 29  2  0
 28 30  1  0
 30 31  2  0
 30 32  1  0
 32 33  1  0
 17 34  1  0
 34 35  2  0
 13  4  1  0
 35 14  1  0
 13  8  1  0
 33 22  1  0
 33 26  2  0
  3 36  1  0
  5 37  1  0
  6 38  1  0
  7 39  1  0
  9 40  1  0
 10 41  1  0
 11 42  1  0
 12 43  1  0
 15 44  1  0
 16 45  1  0
 23 46  1  0
 24 47  1  0
 25 48  1  0
 34 49  1  0
 35 50  1  0
M  CHG  3  18  -1  27  -1  32  -1
M  END
>  <UniqueID>  (6) 
6

>  <SMILES>  (6) 
O=C(Nc1cccc2ccccc12)c1ccc([N-]S(=O)(=O)c2cccc3[n-]c(=O)c(=O)[n-]c23)cc1

>  <Energy>  (6) 
79.1095620668029

>  <Genealogy>  (6) 
O=C(Nc1cccc2ccccc12)c1ccc([N-]S(=O)(=O)c2cccc3[n-]c(=O)c(=O)[n-]c23)cc1 (protonated)
O=C(Nc1cccc2ccccc12)c1ccc([N-]S(=O)(=O)c2cccc3[n-]c(=O)c(=O)[n-]c23)cc1 (3D coordinates assigned)
O=C(Nc1cccc2ccccc12)c1ccc([N-]S(=O)(=O)c2cccc3[n-]c(=O)c(=O)[n-]c23)cc1 (optimized conformer: 79.1095620668029 kcal/mol)

>  <smiles>  (6) 
O=C(Nc1cccc2ccccc12)c1ccc(NS(=O)(=O)c2cccc3[nH]c(=O)c(=O)[nH]c23)cc1

>  <score_type>  (6) 
oracle

>  <origin>  (6) 
adg

>  <m_score__min__energy>  (6) 
-15.26

>  <m_primary>  (6) 
energy

$$$$
6:0
     RDKit          3D

 26 27  0  0  1  0  0  0  0  0999 V2000
   60.4970   29.2160   44.9140 C   0  0  0  0  0  0  0  0  0  0  0  0
   59.2670   28.7110   44.7560 C   0  0  0  0  0  0  0  0  0  0  0  0
   58.9240   27.7030   43.9120 N   0  0  0  0  0  0  0  0  0  0  0  0
   57.6080   27.4730   44.0250 N   0  0  0  0  0  0  0  0  0  0  0  0
   57.1150   28.3310   44.9370 C   0  0  0  0  0  0  0  0  0  0  0  0
   55.8980   28.3520   45.2570 O   0  0  0  0  0  0  0  0  0  0  0  0
   58.1390   29.1380   45.4270 C   0  0  0  0  0  0  0  0  0  0  0  0
   58.0220   30.0980   46.3420 C   0  0  0  0  0  0  0  0  0  0  0  0
   58.2680   31.4910   45.9540 C   0  0  0  0  0  0  0  0  0  0  0  0
   59.1420   32.2460   46.6890 C   0  0  0  0  0  0  0  0  0  0  0  0
   59.3600   33.5540   46.3040 C   0  0  0  0  0  0  0  0  0  0  0  0
   58.6950   34.0500   45.2010 C   0  0  0  0  0  0  0  0  0  0  0  0
   57.8080   33.2880   44.4530 C   0  0  0  0  0  0  0  0  0  0  0  0
   57.5920   31.9630   44.8500 C   0  0  0  0  0  0  0  0  0  0  0  0
   56.6890   31.1450   44.1100 N   0  0  0  0  0  0  0  0  0  0  0  0
   55.5720   30.8170   44.5660 O   0  0  0  0  0  0  0  0  0  0  0  0
   57.0170   30.6730   42.8410 O   0  0  0  0  0  0  0  0  0  0  0  0
   60.6675   30.0357   45.6275 H   0  0  0  0  0  0  0  0  0  0  0  0
   61.3369   28.8112   44.3303 H   0  0  0  0  0  0  0  0  0  0  0  0
   59.5390   27.1650   43.2620 H   0  0  0  0  0  0  0  0  0  0  0  0
   57.0440   26.7460   43.4910 H   0  0  0  0  0  0  0  0  0  0  0  0
   57.7441   29.8494   47.3769 H   0  0  0  0  0  0  0  0  0  0  0  0
   59.6571   31.8217   47.5634 H   0  0  0  0  0  0  0  0  0  0  0  0
   60.0548   34.1926   46.8692 H   0  0  0  0  0  0  0  0  0  0  0  0
   58.8755   35.0931   44.9020 H   0  0  0  0  0  0  0  0  0  0  0  0
   57.2924   33.7109   43.5781 H   0  0  0  0  0  0  0  0  0  0  0  0
  1  2  2  0
  2  3  1  0
  3  4  1  0
  4  5  1  0
  5  6  2  0
  5  7  1  0
  7  8  2  0
  8  9  1  0
  9 10  2  0
 10 11  1  0
 11 12  2  0
 12 13  1  0
 13 14  2  0
 14 15  1  0
 15 16  2  0
 15 17  1  0
  7  2  1  0
 14  9  1  0
  1 18  1  0
  1 19  1  0
  3 20  1  0
  4 21  1  0
  8 22  1  0
 10 23  1  0
 11 24  1  0
 12 25  1  0
 13 26  1  0
M  CHG  2  15   1  17  -1
M  END
>  <smiles>  (7) 
C=c1[nH][nH]c(=O)c1=Cc1ccccc1[N+](=O)[O-]

>  <score_type>  (7) 
oracle

>  <origin>  (7) 
adg

>  <m_score__min__energy>  (7) 
-7.0199999999999996

>  <m_primary>  (7) 
energy

$$$$
7:0
     RDKit          3D

 75 80  0  0  0  0  0  0  0  0999 V2000
   52.0220   20.1640   46.0550 C   0  0  0  0  0  0  0  0  0  0  0  0
   52.8960   20.7060   46.9060 C   0  0  0  0  0  0  0  0  0  0  0  0
   53.3700   20.0540   47.9830 N   0  0  0  0  0  0  0  0  0  0  0  0
   54.1950   20.8970   48.6400 C   0  0  0  0  0  0  0  0  0  0  0  0
   54.8200   20.5270   49.7710 C   0  0  0  0  0  0  0  0  0  0  0  0
   56.0580   21.1260   50.2870 C   0  0  0  0  0  0  0  0  0  0  0  0
   57.2070   21.4190   49.5680 C   0  0  0  0  0  0  0  0  0  0  0  0
   57.4200   21.0620   48.2420 O   0  0  0  0  0  0  0  0  0  0  0  0
   58.1110   22.1140   50.2990 N   0  0  0  0  0  0  0  0  0  0  0  0
   57.5050   22.2780   51.4920 C   0  0  0  0  0  0  0  0  0  0  0  0
   58.0130   22.9620   52.5950 C   0  0  0  0  0  0  0  0  0  0  0  0
   57.2060   23.0540   53.7440 C   0  0  0  0  0  0  0  0  0  0  0  0
   55.9180   22.4730   53.7650 C   0  0  0  0  0  0  0  0  0  0  0  0
   55.4270   21.7920   52.6360 C   0  0  0  0  0  0  0  0  0  0  0  0
   56.2540   21.7070   51.5170 C   0  0  0  0  0  0  0  0  0  0  0  0
   54.2440   22.1290   47.9680 C   0  0  0  0  0  0  0  0  0  0  0  0
   55.0720   23.3360   48.3190 C   0  0  0  0  0  0  0  0  0  0  0  0
   53.4100   21.9970   46.8570 C   0  0  0  0  0  0  0  0  0  0  0  0
   53.0990   23.0240   45.8450 C   0  0  0  0  0  0  0  0  0  0  0  0
   51.9410   23.5170   45.7930 O   0  0  0  0  0  0  0  0  0  0  0  0
   54.1080   23.4410   44.9190 N   0  0  0  0  0  0  0  0  0  0  0  0
   55.3120   24.1470   45.2450 C   0  0  0  0  0  0  0  0  0  0  0  0
   56.5770   23.5920   45.2160 C   0  0  0  0  0  0  0  0  0  0  0  0
   57.4250   24.5890   45.6600 C   0  0  0  0  0  0  0  0  0  0  0  0
   58.8050   24.4650   45.7680 O   0  0  0  0  0  0  0  0  0  0  0  0
   56.7390   25.7070   45.9820 N   0  0  0  0  0  0  0  0  0  0  0  0
   57.2980   26.9750   46.4490 C   0  0  0  0  0  0  0  0  0  0  0  0
   57.7070   27.8430   45.2560 C   0  0  0  0  0  0  0  0  0  0  0  0
   58.4970   29.0120   45.7030 N   0  0  0  0  0  0  0  0  0  0  0  0
   58.8300   28.9290   47.1510 C   0  0  0  0  0  0  0  0  0  0  0  0
   59.0580   30.3030   47.8080 C   0  0  0  0  0  0  0  0  0  0  0  0
   59.5400   31.2690   46.8150 N   0  0  0  0  0  0  0  0  0  0  0  0
   60.8320   31.8940   46.9650 C   0  0  0  0  0  0  0  0  0  0  0  0
   61.9260   31.1280   47.4060 C   0  0  0  0  0  0  0  0  0  0  0  0
   63.1870   31.7090   47.5530 C   0  0  0  0  0  0  0  0  0  0  0  0
   63.3720   33.0580   47.2590 C   0  0  0  0  0  0  0  0  0  0  0  0
   62.2980   33.8330   46.8140 C   0  0  0  0  0  0  0  0  0  0  0  0
   61.0180   33.2610   46.6640 C   0  0  0  0  0  0  0  0  0  0  0  0
   59.9180   34.0220   46.2320 O   0  0  0  0  0  0  0  0  0  0  0  0
   58.9440   34.6000   47.0960 C   0  0  0  0  0  0  0  0  0  0  0  0
   58.7670   31.4500   45.5790 C   0  0  0  0  0  0  0  0  0  0  0  0
   57.8070   30.2730   45.3630 C   0  0  0  0  0  0  0  0  0  0  0  0
   55.4420   25.4380   45.7320 C   0  0  0  0  0  0  0  0  0  0  0  0
   54.4060   26.3310   45.9820 O   0  0  0  0  0  0  0  0  0  0  0  0
   51.6665   20.7420   45.1893 H   0  0  0  0  0  0  0  0  0  0  0  0
   51.6573   19.1393   46.2195 H   0  0  0  0  0  0  0  0  0  0  0  0
   53.1340   19.0740   48.2640 H   0  0  0  0  0  0  0  0  0  0  0  0
   54.3691   19.7118   50.3560 H   0  0  0  0  0  0  0  0  0  0  0  0
   59.0145   23.4162   52.5681 H   0  0  0  0  0  0  0  0  0  0  0  0
   57.5807   23.5824   54.6330 H   0  0  0  0  0  0  0  0  0  0  0  0
   55.2961   22.5536   54.6687 H   0  0  0  0  0  0  0  0  0  0  0  0
   54.4235   21.3414   52.6363 H   0  0  0  0  0  0  0  0  0  0  0  0
   55.1369   23.4306   49.4130 H   0  0  0  0  0  0  0  0  0  0  0  0
   56.0827   23.2217   47.9003 H   0  0  0  0  0  0  0  0  0  0  0  0
   54.6015   24.2378   47.9003 H   0  0  0  0  0  0  0  0  0  0  0  0
   56.8510   22.5729   44.9055 H   0  0  0  0  0  0  0  0  0  0  0  0
   56.5421   27.5082   47.0443 H   0  0  0  0  0  0  0  0  0  0  0  0
   58.1857   26.7708   47.0658 H   0  0  0  0  0  0  0  0  0  0  0  0
   58.3137   27.2412   44.5634 H   0  0  0  0  0  0  0  0  0  0  0  0
   56.7971   28.2035   44.7538 H   0  0  0  0  0  0  0  0  0  0  0  0
   58.0004   28.4277   47.6710 H   0  0  0  0  0  0  0  0  0  0  0  0
   59.7734   28.3695   47.2348 H   0  0  0  0  0  0  0  0  0  0  0  0
   58.1100   30.6632   48.2341 H   0  0  0  0  0  0  0  0  0  0  0  0
   59.8127   30.1991   48.6015 H   0  0  0  0  0  0  0  0  0  0  0  0
   61.7869   30.0616   47.6372 H   0  0  0  0  0  0  0  0  0  0  0  0
   64.0350   31.1011   47.9012 H   0  0  0  0  0  0  0  0  0  0  0  0
   64.3659   33.5141   47.3775 H   0  0  0  0  0  0  0  0  0  0  0  0
   62.4521   34.8965   46.5791 H   0  0  0  0  0  0  0  0  0  0  0  0
   59.2342   34.4278   48.1429 H   0  0  0  0  0  0  0  0  0  0  0  0
   58.8812   35.6817   46.9061 H   0  0  0  0  0  0  0  0  0  0  0  0
   57.9645   34.1369   46.9061 H   0  0  0  0  0  0  0  0  0  0  0  0
   58.1862   32.3815   45.6494 H   0  0  0  0  0  0  0  0  0  0  0  0
   59.4642   31.4984   44.7295 H   0  0  0  0  0  0  0  0  0  0  0  0
   56.9249   30.3949   46.0088 H   0  0  0  0  0  0  0  0  0  0  0  0
   57.4874   30.2463   44.3108 H   0  0  0  0  0  0  0  0  0  0  0  0
  1  2  2  0
  2  3  1  0
  3  4  1  0
  4  5  2  3
  5  6  1  0
  6  7  2  0
  7  8  1  0
  7  9  1  0
  9 10  1  0
 10 11  2  0
 11 12  1  0
 12 13  2  0
 13 14  1  0
 14 15  2  0
  4 16  1  0
 16 17  1  0
 16 18  2  0
 18 19  1  0
 19 20  2  0
 19 21  1  0
 21 22  1  0
 22 23  1  0
 23 24  2  0
 24 25  1  0
 24 26  1  0
 26 27  1  0
 27 28  1  0
 28 29  1  0
 29 30  1  0
 30 31  1  0
 31 32  1  0
 32 33  1  0
 33 34  2  0
 34 35  1  0
 35 36  2  0
 36 37  1  0
 37 38  2  0
 38 39  1  0
 39 40  1  0
 32 41  1  0
 41 42  1  0
 26 43  1  0
 43 44  1  0
 18  2  1  0
 43 22  2  0
 15  6  1  0
 42 29  1  0
 15 10  1  0
 38 33  1  0
  1 45  1  0
  1 46  1  0
  3 47  1  0
  5 48  1  0
 11 49  1  0
 12 50  1  0
 13 51  1  0
 14 52  1  0
 17 53  1  0
 17 54  1  0
 17 55  1  0
 23 56  1  0
 27 57  1  0
 27 58  1  0
 28 59  1  0
 28 60  1  0
 30 61  1  0
 30 62  1  0
 31 63  1  0
 31 64  1  0
 34 65  1  0
 35 66  1  0
 36 67  1  0
 37 68  1  0
 40 69  1  0
 40 70  1  0
 40 71  1  0
 41 72  1  0
 41 73  1  0
 42 74  1  0
 42 75  1  0
M  CHG  5   8  -1   9  -1  21  -1  25  -1  44  -1
M  END
>  <UniqueID>  (8) 
7

>  <SMILES>  (8) 
C=c1[nH]c(=Cc2c([O-])[n-]c3ccccc23)c(C)c1C(=O)[N-]c1cc([O-])n(CCN2CCN(c3ccccc3OC)CC2)c1[O-]

>  <Energy>  (8) 
198.41348982628259

>  <Genealogy>  (8) 
C=c1[nH]c(=Cc2c([O-])[n-]c3ccccc23)c(C)c1C(=O)[N-]c1cc([O-])n(CCN2CCN(c3ccccc3OC)CC2)c1[O-] (protonated)
C=c1[nH]c(=Cc2c([O-])[n-]c3ccccc23)c(C)c1C(=O)[N-]c1cc([O-])n(CCN2CCN(c3ccccc3OC)CC2)c1[O-] (3D coordinates assigned)
C=c1[nH]c(=Cc2c([O-])[n-]c3ccccc23)c(C)c1C(=O)[N-]c1cc([O-])n(CCN2CCN(c3ccccc3OC)CC2)c1[O-] (nonaromatic ring conformer: 198.41348982628259 kcal/mol)

>  <smiles>  (8) 
C=c1[nH]c(=Cc2c(O)[nH]c3ccccc23)c(C)c1C(=O)Nc1cc(O)n(CCN2CCN(c3ccccc3OC)CC2)c1O

>  <score_type>  (8) 
oracle

>  <origin>  (8) 
adg

>  <m_score__min__energy>  (8) 
-19.460000000000001

>  <m_primary>  (8) 
energy

$$$$
8:0
     RDKit          3D

 34 36  0  0  0  0  0  0  0  0999 V2000
   60.8780   26.3470   46.4590 C   0  0  0  0  0  0  0  0  0  0  0  0
   59.4170   26.4550   46.3180 N   0  0  0  0  0  0  0  0  0  0  0  0
   58.6470   25.4270   46.7900 C   0  0  0  0  0  0  0  0  0  0  0  0
   57.2480   25.4490   46.6960 C   0  0  0  0  0  0  0  0  0  0  0  0
   56.4660   24.3000   47.2280 C   0  0  0  0  0  0  0  0  0  0  0  0
   55.2150   24.2450   47.0890 O   0  0  0  0  0  0  0  0  0  0  0  0
   57.1070   23.2600   47.8920 O   0  0  0  0  0  0  0  0  0  0  0  0
   56.6320   26.5650   46.1000 C   0  0  0  0  0  0  0  0  0  0  0  0
   55.3740   26.6170   46.0010 O   0  0  0  0  0  0  0  0  0  0  0  0
   57.4170   27.6250   45.6140 C   0  0  0  0  0  0  0  0  0  0  0  0
   56.8180   28.7510   45.0140 C   0  0  0  0  0  0  0  0  0  0  0  0
   57.6010   29.8040   44.5390 C   0  0  0  0  0  0  0  0  0  0  0  0
   56.8230   31.2360   43.7910 S   0  0  0  0  0  0  0  0  0  0  0  0
   57.7330   32.3840   44.8230 C   0  0  0  0  0  0  0  0  0  0  0  0
   57.7690   32.2020   46.2130 C   0  0  0  0  0  0  0  0  0  0  0  0
   58.4850   33.0940   47.0170 C   0  0  0  0  0  0  0  0  0  0  0  0
   59.1620   34.1720   46.4360 C   0  0  0  0  0  0  0  0  0  0  0  0
   59.1240   34.3570   45.0510 C   0  0  0  0  0  0  0  0  0  0  0  0
   58.4090   33.4660   44.2450 C   0  0  0  0  0  0  0  0  0  0  0  0
   58.9890   29.7420   44.6460 C   0  0  0  0  0  0  0  0  0  0  0  0
   59.6020   28.6340   45.2360 C   0  0  0  0  0  0  0  0  0  0  0  0
   58.8300   27.5560   45.7310 C   0  0  0  0  0  0  0  0  0  0  0  0
   61.1429   26.3274   47.5264 H   0  0  0  0  0  0  0  0  0  0  0  0
   61.2253   25.4207   45.9780 H   0  0  0  0  0  0  0  0  0  0  0  0
   61.3577   27.2121   45.9780 H   0  0  0  0  0  0  0  0  0  0  0  0
   59.1386   24.5601   47.2557 H   0  0  0  0  0  0  0  0  0  0  0  0
   55.7232   28.8002   44.9193 H   0  0  0  0  0  0  0  0  0  0  0  0
   57.2337   31.3571   46.6709 H   0  0  0  0  0  0  0  0  0  0  0  0
   58.5161   32.9483   48.1069 H   0  0  0  0  0  0  0  0  0  0  0  0
   59.7242   34.8740   47.0693 H   0  0  0  0  0  0  0  0  0  0  0  0
   59.6570   35.2042   44.5949 H   0  0  0  0  0  0  0  0  0  0  0  0
   58.3773   33.6149   43.1556 H   0  0  0  0  0  0  0  0  0  0  0  0
   59.6049   30.5695   44.2641 H   0  0  0  0  0  0  0  0  0  0  0  0
   60.6985   28.5989   45.3169 H   0  0  0  0  0  0  0  0  0  0  0  0
  1  2  1  0
  2  3  1  0
  3  4  2  0
  4  5  1  0
  5  6  2  0
  5  7  1  0
  4  8  1  0
  8  9  2  0
  8 10  1  0
 10 11  2  0
 11 12  1  0
 12 13  1  0
 13 14  1  0
 14 15  2  0
 15 16  1  0
 16 17  2  0
 17 18  1  0
 18 19  2  0
 12 20  2  0
 20 21  1  0
 21 22  2  0
 22  2  1  0
 22 10  1  0
 19 14  1  0
  1 23  1  0
  1 24  1  0
  1 25  1  0
  3 26  1  0
 11 27  1  0
 15 28  1  0
 16 29  1  0
 17 30  1  0
 18 31  1  0
 19 32  1  0
 20 33  1  0
 21 34  1  0
M  CHG  1   7  -1
M  END
>  <UniqueID>  (9) 
8

>  <SMILES>  (9) 
Cn1cc(C(=O)[O-])c(=O)c2cc(Sc3ccccc3)ccc21

>  <Energy>  (9) 
43.47963123888892

>  <Genealogy>  (9) 
Cn1cc(C(=O)[O-])c(=O)c2cc(Sc3ccccc3)ccc21 (protonated)
Cn1cc(C(=O)[O-])c(=O)c2cc(Sc3ccccc3)ccc21 (3D coordinates assigned)
Cn1cc(C(=O)[O-])c(=O)c2cc(Sc3ccccc3)ccc21 (optimized conformer: 43.47963123888892 kcal/mol)

>  <smiles>  (9) 
Cn1cc(C(=O)O)c(=O)c2cc(Sc3ccccc3)ccc21

>  <score_type>  (9) 
oracle

>  <origin>  (9) 
adg

>  <m_score__min__energy>  (9) 
-10.359999999999999

>  <m_primary>  (9) 
energy

$$$$
9:0
     RDKit          3D

 64 67  0  0  0  0  0  0  0  0999 V2000
   55.4290   29.7590   52.8200 C   0  0  0  0  0  0  0  0  0  0  0  0
   56.7210   29.3580   52.3750 O   0  0  0  0  0  0  0  0  0  0  0  0
   57.5590   30.1410   51.5670 C   0  0  0  0  0  0  0  0  0  0  0  0
   58.6010   29.5880   50.7990 C   0  0  0  0  0  0  0  0  0  0  0  0
   59.4060   30.4120   50.0080 C   0  0  0  0  0  0  0  0  0  0  0  0
   59.1930   31.7990   49.9750 C   0  0  0  0  0  0  0  0  0  0  0  0
   60.0220   32.6440   49.1530 N   0  0  0  0  0  0  0  0  0  0  0  0
   59.9840   32.5170   47.6910 C   0  0  0  0  0  0  0  0  0  0  0  0
   60.7350   31.3080   47.2250 C   0  0  0  0  0  0  0  0  0  0  0  0
   61.7300   30.9050   47.8850 O   0  0  0  0  0  0  0  0  0  0  0  0
   60.3160   30.6210   46.0390 N   0  0  0  0  0  0  0  0  0  0  0  0
   59.4280   29.4970   45.9690 C   0  0  0  0  0  0  0  0  0  0  0  0
   59.7470   28.3440   46.6970 C   0  0  0  0  0  0  0  0  0  0  0  0
   58.8930   27.2370   46.6810 C   0  0  0  0  0  0  0  0  0  0  0  0
   57.6960   27.2800   45.9520 C   0  0  0  0  0  0  0  0  0  0  0  0
   56.6190   25.8890   45.9220 S   0  0  0  0  0  0  0  0  0  0  0  0
   56.9440   24.9750   47.0720 O   0  0  0  0  0  0  0  0  0  0  0  0
   55.1980   26.3650   46.0500 O   0  0  0  0  0  0  0  0  0  0  0  0
   56.8340   25.0510   44.4170 N   0  0  0  0  0  0  0  0  0  0  0  0
   56.8720   23.7590   44.2440 C   0  0  0  0  0  0  0  0  0  0  0  0
   56.5830   23.1570   43.0020 C   0  0  0  0  0  0  0  0  0  0  0  0
   56.6480   21.7690   42.8780 C   0  0  0  0  0  0  0  0  0  0  0  0
   56.9940   20.9870   43.9770 C   0  0  0  0  0  0  0  0  0  0  0  0
   57.2600   21.6050   45.2050 C   0  0  0  0  0  0  0  0  0  0  0  0
   57.6730   20.7810   46.3890 C   0  0  0  0  0  0  0  0  0  0  0  0
   57.2050   22.9660   45.3050 N   0  0  0  0  0  0  0  0  0  0  0  0
   57.3660   28.4370   45.2330 C   0  0  0  0  0  0  0  0  0  0  0  0
   58.2200   29.5440   45.2470 C   0  0  0  0  0  0  0  0  0  0  0  0
   61.1700   33.7300   49.8870 S   0  0  0  0  0  0  0  0  0  0  0  0
   61.3430   34.9430   49.0160 O   0  0  0  0  0  0  0  0  0  0  0  0
   60.6610   34.1900   51.2250 O   0  0  0  0  0  0  0  0  0  0  0  0
   62.7280   32.9290   50.0900 C   0  0  0  0  0  0  0  0  0  0  0  0
   62.8140   31.7450   50.8390 C   0  0  0  0  0  0  0  0  0  0  0  0
   64.0470   31.1070   51.0090 C   0  0  0  0  0  0  0  0  0  0  0  0
   65.2000   31.6460   50.4290 C   0  0  0  0  0  0  0  0  0  0  0  0
   66.3950   31.0250   50.5930 F   0  0  0  0  0  0  0  0  0  0  0  0
   65.1200   32.8210   49.6760 C   0  0  0  0  0  0  0  0  0  0  0  0
   63.8870   33.4610   49.5050 C   0  0  0  0  0  0  0  0  0  0  0  0
   58.1500   32.3460   50.7390 C   0  0  0  0  0  0  0  0  0  0  0  0
   57.3420   31.5210   51.5270 C   0  0  0  0  0  0  0  0  0  0  0  0
   55.4059   29.7662   53.9197 H   0  0  0  0  0  0  0  0  0  0  0  0
   55.2078   30.7681   52.4420 H   0  0  0  0  0  0  0  0  0  0  0  0
   54.6754   29.0525   52.4420 H   0  0  0  0  0  0  0  0  0  0  0  0
   58.7823   28.5033   50.8216 H   0  0  0  0  0  0  0  0  0  0  0  0
   60.2136   29.9699   49.4060 H   0  0  0  0  0  0  0  0  0  0  0  0
   58.9362   32.4338   47.3666 H   0  0  0  0  0  0  0  0  0  0  0  0
   60.4596   33.4078   47.2549 H   0  0  0  0  0  0  0  0  0  0  0  0
   60.6757   28.3090   47.2854 H   0  0  0  0  0  0  0  0  0  0  0  0
   59.1610   26.3296   47.2420 H   0  0  0  0  0  0  0  0  0  0  0  0
   56.3081   23.7778   42.1365 H   0  0  0  0  0  0  0  0  0  0  0  0
   56.4259   21.2922   41.9119 H   0  0  0  0  0  0  0  0  0  0  0  0
   57.0578   19.8930   43.8813 H   0  0  0  0  0  0  0  0  0  0  0  0
   57.4072   21.3112   47.3154 H   0  0  0  0  0  0  0  0  0  0  0  0
   57.1543   19.8114   46.3598 H   0  0  0  0  0  0  0  0  0  0  0  0
   58.7602   20.6163   46.3598 H   0  0  0  0  0  0  0  0  0  0  0  0
   57.4290   23.4170   46.2230 H   0  0  0  0  0  0  0  0  0  0  0  0
   56.4308   28.4743   44.6550 H   0  0  0  0  0  0  0  0  0  0  0  0
   57.9474   30.4541   44.6925 H   0  0  0  0  0  0  0  0  0  0  0  0
   61.9084   31.3173   51.2939 H   0  0  0  0  0  0  0  0  0  0  0  0
   64.1100   30.1808   51.5991 H   0  0  0  0  0  0  0  0  0  0  0  0
   66.0266   33.2429   49.2176 H   0  0  0  0  0  0  0  0  0  0  0  0
   63.8265   34.3842   48.9100 H   0  0  0  0  0  0  0  0  0  0  0  0
   57.9674   33.4305   50.7175 H   0  0  0  0  0  0  0  0  0  0  0  0
   56.5280   31.9621   52.1210 H   0  0  0  0  0  0  0  0  0  0  0  0
  1  2  1  0
  2  3  1  0
  3  4  2  0
  4  5  1  0
  5  6  2  0
  6  7  1  0
  7  8  1  0
  8  9  1  0
  9 10  2  0
  9 11  1  0
 11 12  1  0
 12 13  2  0
 13 14  1  0
 14 15  2  0
 15 16  1  0
 16 17  2  0
 16 18  2  0
 16 19  1  0
 19 20  2  3
 20 21  1  0
 21 22  2  0
 22 23  1  0
 23 24  2  0
 24 25  1  0
 24 26  1  0
 15 27  1  0
 27 28  2  0
  7 29  1  0
 29 30  2  0
 29 31  2  0
 29 32  1  0
 32 33  2  0
 33 34  1  0
 34 35  2  0
 35 36  1  0
 35 37  1  0
 37 38  2  0
  6 39  1  0
 39 40  2  0
 40  3  1  0
 28 12  1  0
 38 32  1  0
 26 20  1  0
  1 41  1  0
  1 42  1  0
  1 43  1  0
  4 44  1  0
  5 45  1  0
  8 46  1  0
  8 47  1  0
 13 48  1  0
 14 49  1  0
 21 50  1  0
 22 51  1  0
 23 52  1  0
 25 53  1  0
 25 54  1  0
 25 55  1  0
 26 56  1  0
 27 57  1  0
 28 58  1  0
 33 59  1  0
 34 60  1  0
 37 61  1  0
 38 62  1  0
 39 63  1  0
 40 64  1  0
M  CHG  1  11  -1
M  END
>  <UniqueID>  (10) 
9

>  <SMILES>  (10) 
COc1ccc(N(CC(=O)[N-]c2ccc(S(=O)(=O)N=c3cccc(C)[nH]3)cc2)S(=O)(=O)c2ccc(F)cc2)cc1

>  <Energy>  (10) 
82.15383961942636

>  <Genealogy>  (10) 
COc1ccc(N(CC(=O)[N-]c2ccc(S(=O)(=O)N=c3cccc(C)[nH]3)cc2)S(=O)(=O)c2ccc(F)cc2)cc1 (protonated)
COc1ccc(N(CC(=O)[N-]c2ccc(S(=O)(=O)N=c3cccc(C)[nH]3)cc2)S(=O)(=O)c2ccc(F)cc2)cc1 (3D coordinates assigned)
COc1ccc(N(CC(=O)[N-]c2ccc(S(=O)(=O)N=c3cccc(C)[nH]3)cc2)S(=O)(=O)c2ccc(F)cc2)cc1 (optimized conformer: 82.15383961942636 kcal/mol)

>  <smiles>  (10) 
COc1ccc(N(CC(=O)Nc2ccc(S(=O)(=O)N=c3cccc(C)[nH]3)cc2)S(=O)(=O)c2ccc(F)cc2)cc1

>  <score_type>  (10) 
oracle

>  <origin>  (10) 
adg

>  <m_score__min__energy>  (10) 
-11.630000000000001

>  <m_primary>  (10) 
energy

$$$$
10:0
     RDKit          3D

 43 46  0  0  0  0  0  0  0  0999 V2000
   55.3910   30.8370   44.6680 H   0  0  0  0  0  0  0  0  0  0  0  0
   56.3810   31.0400   44.4010 N   0  0  0  0  0  0  0  0  0  0  0  0
   57.3510   31.1520   45.2550 C   0  0  0  0  0  0  0  0  0  0  0  0
   57.9350   30.0180   45.7280 N   0  0  0  0  0  0  0  0  0  0  0  0
   58.9550   30.0380   46.6270 C   0  0  0  0  0  0  0  0  0  0  0  0
   59.5330   28.8370   47.0810 C   0  0  0  0  0  0  0  0  0  0  0  0
   59.0350   27.5670   46.6340 N   0  0  0  0  0  0  0  0  0  0  0  0
   58.7900   27.2560   45.2370 C   0  0  0  0  0  0  0  0  0  0  0  0
   58.0310   27.9335   44.8189 H   0  0  0  0  0  0  0  0  0  0  0  0
   59.6962   27.3766   44.6252 H   0  0  0  0  0  0  0  0  0  0  0  0
   58.2860   25.8200   45.2270 C   0  0  0  0  0  0  0  0  0  0  0  0
   57.4483   25.7133   44.5221 H   0  0  0  0  0  0  0  0  0  0  0  0
   59.0707   25.1185   44.9074 H   0  0  0  0  0  0  0  0  0  0  0  0
   57.8190   25.5290   46.6590 C   0  0  2  0  0  0  0  0  0  0  0  0
   58.0202   24.4870   46.9482 H   0  0  0  0  0  0  0  0  0  0  0  0
   56.3790   25.7470   46.7790 N   0  0  0  0  0  0  0  0  0  0  0  0
   55.4210   25.2750   45.8230 C   0  0  0  0  0  0  0  0  0  0  0  0
   54.3680   25.9390   45.6220 O   0  0  0  0  0  0  0  0  0  0  0  0
   55.6900   24.0280   45.0610 C   0  0  0  0  0  0  0  0  0  0  0  0
   55.9280   24.1140   43.6770 C   0  0  0  0  0  0  0  0  0  0  0  0
   55.9208   25.0948   43.1790 H   0  0  0  0  0  0  0  0  0  0  0  0
   56.1730   22.9590   42.9350 C   0  0  0  0  0  0  0  0  0  0  0  0
   56.3552   23.0301   41.8525 H   0  0  0  0  0  0  0  0  0  0  0  0
   56.1870   21.7480   43.5460 N   0  0  0  0  0  0  0  0  0  0  0  0
   55.9690   21.6210   44.8800 C   0  0  0  0  0  0  0  0  0  0  0  0
   55.9889   20.6238   45.3438 H   0  0  0  0  0  0  0  0  0  0  0  0
   55.7190   22.7500   45.6700 C   0  0  0  0  0  0  0  0  0  0  0  0
   55.5040   22.4980   47.4010 Cl  0  0  0  0  0  0  0  0  0  0  0  0
   58.5660   26.5310   47.5380 C   0  0  0  0  0  0  0  0  0  0  0  0
   57.8904   26.9576   48.2940 H   0  0  0  0  0  0  0  0  0  0  0  0
   59.3968   26.0570   48.0813 H   0  0  0  0  0  0  0  0  0  0  0  0
   60.6060   28.8870   47.9840 C   0  0  0  0  0  0  0  0  0  0  0  0
   61.0672   27.9523   48.3355 H   0  0  0  0  0  0  0  0  0  0  0  0
   61.0930   30.1140   48.4400 C   0  0  0  0  0  0  0  0  0  0  0  0
   61.9327   30.1403   49.1501 H   0  0  0  0  0  0  0  0  0  0  0  0
   60.5180   31.3080   47.9980 C   0  0  0  0  0  0  0  0  0  0  0  0
   60.9024   32.2718   48.3632 H   0  0  0  0  0  0  0  0  0  0  0  0
   59.4510   31.2780   47.0890 C   0  0  0  0  0  0  0  0  0  0  0  0
   58.8660   32.4610   46.6240 C   0  0  0  0  0  0  0  0  0  0  0  0
   59.2355   33.4334   46.9817 H   0  0  0  0  0  0  0  0  0  0  0  0
   57.8120   32.4100   45.7050 C   0  0  0  0  0  0  0  0  0  0  0  0
   57.2320   33.6500   45.2430 C   0  0  0  0  0  0  0  0  0  0  0  0
   56.7680   34.6440   44.8740 N   0  0  0  0  0  0  0  0  0  0  0  0
  1  2  1  0
  2  3  2  0
  3  4  1  0
  4  5  1  0
  5  6  2  0
  6  7  1  0
  7  8  1  0
  8  9  1  0
  8 10  1  0
  8 11  1  0
 11 12  1  0
 11 13  1  0
 11 14  1  0
 14 15  1  1
 14 16  1  0
 16 17  1  0
 17 18  2  0
 17 19  1  0
 19 20  2  0
 20 21  1  0
 20 22  1  0
 22 23  1  0
 22 24  2  0
 24 25  1  0
 25 26  1  0
 25 27  2  0
 27 28  1  0
 14 29  1  0
 29 30  1  0
 29 31  1  0
  6 32  1  0
 32 33  1  0
 32 34  2  0
 34 35  1  0
 34 36  1  0
 36 37  1  0
 36 38  2  0
 38 39  1  0
 39 40  1  0
 39 41  2  0
 41 42  1  0
 42 43  3  0
 41  3  1  0
 38  5  1  0
 29  7  1  0
 27 19  1  0
M  CHG  2   4  -1  16  -1
M  END
>  <UniqueID>  (11) 
10

>  <SMILES>  (11) 
[H]/N=c1/[n-]c2c(N3CC[C@H]([N-]C(=O)c4ccncc4Cl)C3)cccc2cc1C#N

>  <Energy>  (11) 
61.24973157482842

>  <Genealogy>  (11) 
N#Cc1cc2cccc(N3CCC([N-]C(=O)c4ccncc4Cl)C3)c2[n-]c1=N (protonated)
N#Cc1cc2cccc(N3CC[C@H]([N-]C(=O)c4ccncc4Cl)C3)c2[n-]c1=N (chirality)
[H]/N=c1/[n-]c2c(N3CC[C@H]([N-]C(=O)c4ccncc4Cl)C3)cccc2cc1C#N (cis-trans isomerization)
[H]/N=c1/[n-]c2c(N3CC[C@H]([N-]C(=O)c4ccncc4Cl)C3)cccc2cc1C#N (3D coordinates assigned)
[H]/N=c1/[n-]c2c(N3CC[C@H]([N-]C(=O)c4ccncc4Cl)C3)cccc2cc1C#N (nonaromatic ring conformer: 61.24973157482842 kcal/mol)

>  <smiles>  (11) 
N#Cc1cc2cccc(N3CCC(NC(=O)c4ccncc4Cl)C3)c2[nH]c1=N

>  <score_type>  (11) 
oracle

>  <origin>  (11) 
adg

>  <m_score__min__energy>  (11) 
-12.369999999999999

>  <m_primary>  (11) 
energy

$$$$
11:0
     RDKit          3D

 33 35  0  0  0  0  0  0  0  0999 V2000
   57.3140   25.7000   44.9620 C   0  0  0  0  0  0  0  0  0  0  0  0
   56.9550   26.6830   45.9280 O   0  0  0  0  0  0  0  0  0  0  0  0
   57.7540   27.7840   46.2810 C   0  0  0  0  0  0  0  0  0  0  0  0
   58.9680   27.6260   46.9740 C   0  0  0  0  0  0  0  0  0  0  0  0
   59.7310   28.7380   47.3160 C   0  0  0  0  0  0  0  0  0  0  0  0
   59.3110   30.0150   46.9530 C   0  0  0  0  0  0  0  0  0  0  0  0
   58.1120   30.2080   46.2420 C   0  0  0  0  0  0  0  0  0  0  0  0
   57.3090   29.0740   45.9360 C   0  0  0  0  0  0  0  0  0  0  0  0
   56.0470   29.1770   45.2590 N   0  0  0  0  0  0  0  0  0  0  0  0
   55.8310   29.8560   44.0220 C   0  0  0  0  0  0  0  0  0  0  0  0
   54.9840   29.4080   43.2070 O   0  0  0  0  0  0  0  0  0  0  0  0
   56.6010   31.0900   43.6970 C   0  0  0  0  0  0  0  0  0  0  0  0
   56.8340   31.8330   44.9240 N   0  0  0  0  0  0  0  0  0  0  0  0
   57.7860   31.5940   45.7820 C   0  0  0  0  0  0  0  0  0  0  0  0
   58.5150   32.7580   46.3460 C   0  0  0  0  0  0  0  0  0  0  0  0
   58.6470   32.8940   47.7400 C   0  0  0  0  0  0  0  0  0  0  0  0
   59.3320   33.9850   48.2840 C   0  0  0  0  0  0  0  0  0  0  0  0
   59.8850   34.9540   47.4450 C   0  0  0  0  0  0  0  0  0  0  0  0
   59.7480   34.8390   46.0590 C   0  0  0  0  0  0  0  0  0  0  0  0
   59.0640   33.7510   45.5070 C   0  0  0  0  0  0  0  0  0  0  0  0
   58.9120   33.6880   44.1600 F   0  0  0  0  0  0  0  0  0  0  0  0
   57.6477   24.7862   45.4754 H   0  0  0  0  0  0  0  0  0  0  0  0
   56.4421   25.4692   44.3323 H   0  0  0  0  0  0  0  0  0  0  0  0
   58.1294   26.0854   44.3323 H   0  0  0  0  0  0  0  0  0  0  0  0
   59.3156   26.6186   47.2467 H   0  0  0  0  0  0  0  0  0  0  0  0
   60.6693   28.6079   47.8751 H   0  0  0  0  0  0  0  0  0  0  0  0
   59.9254   30.8856   47.2260 H   0  0  0  0  0  0  0  0  0  0  0  0
   57.5643   30.8157   43.2422 H   0  0  0  0  0  0  0  0  0  0  0  0
   56.0329   31.7091   42.9872 H   0  0  0  0  0  0  0  0  0  0  0  0
   58.2083   32.1369   48.4066 H   0  0  0  0  0  0  0  0  0  0  0  0
   59.4353   34.0798   49.3750 H   0  0  0  0  0  0  0  0  0  0  0  0
   60.4287   35.8082   47.8749 H   0  0  0  0  0  0  0  0  0  0  0  0
   60.1796   35.6067   45.3999 H   0  0  0  0  0  0  0  0  0  0  0  0
  1  2  1  0
  2  3  1  0
  3  4  2  0
  4  5  1  0
  5  6  2  0
  6  7  1  0
  7  8  2  0
  8  9  1  0
  9 10  1  0
 10 11  2  0
 10 12  1  0
 12 13  1  0
 13 14  2  0
 14 15  1  0
 15 16  2  0
 16 17  1  0
 17 18  2  0
 18 19  1  0
 19 20  2  0
 20 21  1  0
  8  3  1  0
 20 15  1  0
 14  7  1  0
  1 22  1  0
  1 23  1  0
  1 24  1  0
  4 25  1  0
  5 26  1  0
  6 27  1  0
 12 28  1  0
 12 29  1  0
 16 30  1  0
 17 31  1  0
 18 32  1  0
 19 33  1  0
M  CHG  1   9  -1
M  END
>  <UniqueID>  (12) 
11

>  <SMILES>  (12) 
COc1cccc2c1[N-]C(=O)CN=C2c1ccccc1F

>  <Energy>  (12) 
50.26674871129972

>  <Genealogy>  (12) 
COc1cccc2c1[N-]C(=O)CN=C2c1ccccc1F (protonated)
COc1cccc2c1[N-]C(=O)CN=C2c1ccccc1F (3D coordinates assigned)
COc1cccc2c1[N-]C(=O)CN=C2c1ccccc1F (nonaromatic ring conformer: 50.26674871129972 kcal/mol)

>  <smiles>  (12) 
COc1cccc2c1NC(=O)CN=C2c1ccccc1F

>  <score_type>  (12) 
oracle

>  <origin>  (12) 
adg

>  <m_score__min__energy>  (12) 
-7.7699999999999996

>  <m_primary>  (12) 
energy

$$$$
12:0
     RDKit          3D

 90 95  0  0  0  0  0  0  0  0999 V2000
   56.4250   20.3140   43.1500 N   0  0  0  0  0  0  0  0  0  0  0  0
   56.7810   21.6470   42.6670 C   0  0  0  0  0  0  0  0  0  0  0  0
   57.1340   22.5600   43.8150 C   0  0  0  0  0  0  0  0  0  0  0  0
   58.3260   22.3720   44.5320 C   0  0  0  0  0  0  0  0  0  0  0  0
   58.6680   23.2400   45.5730 C   0  0  0  0  0  0  0  0  0  0  0  0
   57.8280   24.3160   45.9020 C   0  0  0  0  0  0  0  0  0  0  0  0
   58.2310   25.3030   46.9620 C   0  0  0  0  0  0  0  0  0  0  0  0
   59.6150   25.7100   46.7650 N   0  0  0  0  0  0  0  0  0  0  0  0
   59.9680   27.0240   46.3310 C   0  0  0  0  0  0  0  0  0  0  0  0
   61.0810   27.2090   45.7680 O   0  0  0  0  0  0  0  0  0  0  0  0
   59.0590   28.1860   46.6320 C   0  0  1  0  0  0  0  0  0  0  0  0
   57.8130   28.1130   45.7190 C   0  0  0  0  0  0  0  0  0  0  0  0
   57.6780   29.3040   44.8020 C   0  0  0  0  0  0  0  0  0  0  0  0
   56.7100   29.3080   43.7840 C   0  0  0  0  0  0  0  0  0  0  0  0
   56.5860   30.4090   42.9310 C   0  0  0  0  0  0  0  0  0  0  0  0
   57.4330   31.5100   43.0800 C   0  0  0  0  0  0  0  0  0  0  0  0
   58.4200   31.5030   44.0680 C   0  0  0  0  0  0  0  0  0  0  0  0
   58.5560   30.3980   44.9150 C   0  0  0  0  0  0  0  0  0  0  0  0
   58.6950   28.1500   48.0480 N   0  0  0  0  0  0  0  0  0  0  0  0
   59.1690   29.0560   49.0500 C   0  0  0  0  0  0  0  0  0  0  0  0
   58.4510   29.3360   50.0480 O   0  0  0  0  0  0  0  0  0  0  0  0
   60.5370   29.6790   48.8880 C   0  0  1  0  0  0  0  0  0  0  0  0
   60.4490   30.9860   48.0830 C   0  0  0  0  0  0  0  0  0  0  0  0
   61.7700   31.7080   48.0320 C   0  0  0  0  0  0  0  0  0  0  0  0
   61.9770   32.6790   47.0390 C   0  0  0  0  0  0  0  0  0  0  0  0
   63.1630   33.4150   47.0060 C   0  0  0  0  0  0  0  0  0  0  0  0
   64.1460   33.2000   47.9720 C   0  0  0  0  0  0  0  0  0  0  0  0
   63.9460   32.2490   48.9750 C   0  0  0  0  0  0  0  0  0  0  0  0
   62.7550   31.5090   49.0270 C   0  0  0  0  0  0  0  0  0  0  0  0
   62.5930   30.4590   50.1000 C   0  0  0  0  0  0  0  0  0  0  0  0
   61.2180   29.9520   50.1680 N   0  0  0  0  0  0  0  0  0  0  0  0
   60.7500   29.4320   51.4240 C   0  0  0  0  0  0  0  0  0  0  0  0
   60.3280   28.2480   51.5010 O   0  0  0  0  0  0  0  0  0  0  0  0
   60.6820   30.3280   52.6210 C   0  0  0  0  0  0  0  0  0  0  0  0
   59.4880   31.1640   52.5060 N   0  0  0  0  0  0  0  0  0  0  0  0
   59.8360   32.5730   52.3020 C   0  0  0  0  0  0  0  0  0  0  0  0
   59.4690   32.9800   50.9010 C   0  0  0  0  0  0  0  0  0  0  0  0
   58.4370   32.3280   50.2100 C   0  0  0  0  0  0  0  0  0  0  0  0
   58.1470   32.6720   48.8860 C   0  0  0  0  0  0  0  0  0  0  0  0
   58.8830   33.6760   48.2280 C   0  0  0  0  0  0  0  0  0  0  0  0
   58.5760   34.0200   46.8160 C   0  0  0  0  0  0  0  0  0  0  0  0
   59.4880   34.3830   45.9800 N   0  0  0  0  0  0  0  0  0  0  0  0
   58.8920   34.6550   44.6790 C   0  0  0  0  0  0  0  0  0  0  0  0
   57.3900   34.3970   44.8650 C   0  0  0  0  0  0  0  0  0  0  0  0
   57.2760   33.9910   46.2510 N   0  0  0  0  0  0  0  0  0  0  0  0
   59.9090   34.3340   48.9310 C   0  0  0  0  0  0  0  0  0  0  0  0
   60.1940   33.9910   50.2550 C   0  0  0  0  0  0  0  0  0  0  0  0
   56.6480   24.5160   45.1710 C   0  0  0  0  0  0  0  0  0  0  0  0
   56.3020   23.6430   44.1360 C   0  0  0  0  0  0  0  0  0  0  0  0
   57.0140   20.0860   43.9830 H   0  0  0  0  0  0  0  0  0  0  0  0
   56.6480   19.6160   42.4040 H   0  0  0  0  0  0  0  0  0  0  0  0
   57.6459   21.5663   41.9922 H   0  0  0  0  0  0  0  0  0  0  0  0
   55.9162   22.0702   42.1350 H   0  0  0  0  0  0  0  0  0  0  0  0
   58.9943   21.5375   44.2734 H   0  0  0  0  0  0  0  0  0  0  0  0
   59.5989   23.0795   46.1367 H   0  0  0  0  0  0  0  0  0  0  0  0
   57.5795   26.1873   46.9025 H   0  0  0  0  0  0  0  0  0  0  0  0
   58.1313   24.8311   47.9506 H   0  0  0  0  0  0  0  0  0  0  0  0
   59.5688   29.1397   46.4308 H   0  0  0  0  0  0  0  0  0  0  0  0
   57.8832   27.2040   45.1036 H   0  0  0  0  0  0  0  0  0  0  0  0
   56.9285   28.1017   46.3729 H   0  0  0  0  0  0  0  0  0  0  0  0
   56.0459   28.4403   43.6572 H   0  0  0  0  0  0  0  0  0  0  0  0
   55.8203   30.4083   42.1413 H   0  0  0  0  0  0  0  0  0  0  0  0
   57.3225   32.3824   42.4191 H   0  0  0  0  0  0  0  0  0  0  0  0
   59.0912   32.3673   44.1803 H   0  0  0  0  0  0  0  0  0  0  0  0
   59.3530   30.3842   45.6730 H   0  0  0  0  0  0  0  0  0  0  0  0
   61.1369   28.9322   48.3472 H   0  0  0  0  0  0  0  0  0  0  0  0
   60.1336   30.7499   47.0560 H   0  0  0  0  0  0  0  0  0  0  0  0
   59.7217   31.6436   48.5817 H   0  0  0  0  0  0  0  0  0  0  0  0
   61.1997   32.8610   46.2822 H   0  0  0  0  0  0  0  0  0  0  0  0
   63.3224   34.1652   46.2174 H   0  0  0  0  0  0  0  0  0  0  0  0
   65.0800   33.7803   47.9437 H   0  0  0  0  0  0  0  0  0  0  0  0
   64.7279   32.0788   49.7298 H   0  0  0  0  0  0  0  0  0  0  0  0
   63.2706   29.6204   49.8818 H   0  0  0  0  0  0  0  0  0  0  0  0
   62.8332   30.9222   51.0684 H   0  0  0  0  0  0  0  0  0  0  0  0
   60.6234   29.7209   53.5364 H   0  0  0  0  0  0  0  0  0  0  0  0
   61.5814   30.9594   52.6714 H   0  0  0  0  0  0  0  0  0  0  0  0
   58.9680   31.0910   53.4080 H   0  0  0  0  0  0  0  0  0  0  0  0
   59.2839   33.1954   53.0216 H   0  0  0  0  0  0  0  0  0  0  0  0
   60.9168   32.7104   52.4536 H   0  0  0  0  0  0  0  0  0  0  0  0
   57.8531   31.5424   50.7120 H   0  0  0  0  0  0  0  0  0  0  0  0
   57.3362   32.1533   48.3535 H   0  0  0  0  0  0  0  0  0  0  0  0
   59.0707   35.6993   44.3832 H   0  0  0  0  0  0  0  0  0  0  0  0
   59.3236   34.0240   43.8880 H   0  0  0  0  0  0  0  0  0  0  0  0
   56.8093   35.3119   44.6760 H   0  0  0  0  0  0  0  0  0  0  0  0
   56.9995   33.6411   44.1677 H   0  0  0  0  0  0  0  0  0  0  0  0
   56.3770   33.7940   46.7410 H   0  0  0  0  0  0  0  0  0  0  0  0
   60.4910   35.1243   48.4344 H   0  0  0  0  0  0  0  0  0  0  0  0
   60.9940   34.5187   50.7950 H   0  0  0  0  0  0  0  0  0  0  0  0
   55.9913   25.3645   45.4136 H   0  0  0  0  0  0  0  0  0  0  0  0
   55.3728   23.8058   43.5703 H   0  0  0  0  0  0  0  0  0  0  0  0
  1  2  1  0
  2  3  1  0
  3  4  2  0
  4  5  1  0
  5  6  2  0
  6  7  1  0
  7  8  1  0
  8  9  1  0
  9 10  2  0
  9 11  1  0
 11 12  1  0
 12 13  1  0
 13 14  2  0
 14 15  1  0
 15 16  2  0
 16 17  1  0
 17 18  2  0
 11 19  1  0
 19 20  1  0
 20 21  2  0
 20 22  1  0
 22 23  1  0
 23 24  1  0
 24 25  2  0
 25 26  1  0
 26 27  2  0
 27 28  1  0
 28 29  2  0
 29 30  1  0
 30 31  1  0
 31 32  1  0
 32 33  2  0
 32 34  1  0
 34 35  1  0
 35 36  1  0
 36 37  1  0
 37 38  2  0
 38 39  1  0
 39 40  2  0
 40 41  1  0
 41 42  2  0
 42 43  1  0
 43 44  1  0
 44 45  1  0
 40 46  1  0
 46 47  2  0
  6 48  1  0
 48 49  2  0
 49  3  1  0
 18 13  1  0
 31 22  1  0
 47 37  1  0
 29 24  1  0
 45 41  1  0
  1 50  1  0
  1 51  1  0
  2 52  1  0
  2 53  1  0
  4 54  1  0
  5 55  1  0
  7 56  1  0
  7 57  1  0
 11 58  1  1
 12 59  1  0
 12 60  1  0
 14 61  1  0
 15 62  1  0
 16 63  1  0
 17 64  1  0
 18 65  1  0
 22 66  1  6
 23 67  1  0
 23 68  1  0
 25 69  1  0
 26 70  1  0
 27 71  1  0
 28 72  1  0
 30 73  1  0
 30 74  1  0
 34 75  1  0
 34 76  1  0
 35 77  1  0
 36 78  1  0
 36 79  1  0
 38 80  1  0
 39 81  1  0
 43 82  1  0
 43 83  1  0
 44 84  1  0
 44 85  1  0
 45 86  1  0
 46 87  1  0
 47 88  1  0
 48 89  1  0
 49 90  1  0
M  CHG  2   8  -1  19  -1
M  END
>  <UniqueID>  (13) 
12

>  <SMILES>  (13) 
NCc1ccc(C[N-]C(=O)[C@@H](Cc2ccccc2)[N-]C(=O)[C@H]2Cc3ccccc3CN2C(=O)CNCc2ccc(C3=NCCN3)cc2)cc1

>  <Energy>  (13) 
111.76693720259757

>  <Genealogy>  (13) 
NCc1ccc(C[N-]C(=O)C(Cc2ccccc2)[N-]C(=O)C2Cc3ccccc3CN2C(=O)CNCc2ccc(C3=NCCN3)cc2)cc1 (protonated)
NCc1ccc(C[N-]C(=O)[C@@H](Cc2ccccc2)[N-]C(=O)[C@H]2Cc3ccccc3CN2C(=O)CNCc2ccc(C3=NCCN3)cc2)cc1 (chirality)
NCc1ccc(C[N-]C(=O)[C@@H](Cc2ccccc2)[N-]C(=O)[C@H]2Cc3ccccc3CN2C(=O)CNCc2ccc(C3=NCCN3)cc2)cc1 (3D coordinates assigned)
NCc1ccc(C[N-]C(=O)[C@@H](Cc2ccccc2)[N-]C(=O)[C@H]2Cc3ccccc3CN2C(=O)CNCc2ccc(C3=NCCN3)cc2)cc1 (nonaromatic ring conformer: 111.76693720259757 kcal/mol)

>  <smiles>  (13) 
NCc1ccc(CNC(=O)C(Cc2ccccc2)NC(=O)C2Cc3ccccc3CN2C(=O)CNCc2ccc(C3=NCCN3)cc2)cc1

>  <score_type>  (13) 
oracle

>  <origin>  (13) 
adg

>  <m_score__min__energy>  (13) 
-13.82

>  <m_primary>  (13) 
energy

$$$$
13:0
     RDKit          3D

 35 36  0  0  0  0  0  0  0  0999 V2000
   61.3110   28.9460   44.5150 C   0  0  0  0  0  0  0  0  0  0  0  0
   59.9410   29.1200   44.8630 O   0  0  0  0  0  0  0  0  0  0  0  0
   59.1120   28.1100   45.3770 C   0  0  0  0  0  0  0  0  0  0  0  0
   59.4560   27.3940   46.5420 C   0  0  0  0  0  0  0  0  0  0  0  0
   58.6100   26.4020   47.0390 C   0  0  0  0  0  0  0  0  0  0  0  0
   57.4110   26.1120   46.3880 C   0  0  0  0  0  0  0  0  0  0  0  0
   56.3450   24.8730   47.0240 Cl  0  0  0  0  0  0  0  0  0  0  0  0
   57.0560   26.8130   45.2330 C   0  0  0  0  0  0  0  0  0  0  0  0
   57.8990   27.8130   44.7140 C   0  0  0  0  0  0  0  0  0  0  0  0
   57.4870   28.5580   43.5450 N   0  0  0  0  0  0  0  0  0  0  0  0
   56.5830   29.6650   43.9040 C   0  0  0  0  0  0  0  0  0  0  0  0
   57.3400   30.9270   44.2210 C   0  0  0  0  0  0  0  0  0  0  0  0
   57.7890   31.3930   45.7750 S   0  0  0  0  0  0  0  0  0  0  0  0
   58.4410   32.8770   45.3370 C   0  0  0  0  0  0  0  0  0  0  0  0
   58.9550   33.9030   46.2890 C   0  0  0  0  0  0  0  0  0  0  0  0
   58.2920   33.0480   43.9670 C   0  0  0  0  0  0  0  0  0  0  0  0
   57.6860   31.9520   43.3330 C   0  0  0  0  0  0  0  0  0  0  0  0
   57.4160   31.9180   41.8590 C   0  0  0  0  0  0  0  0  0  0  0  0
   61.9151   28.8693   45.4311 H   0  0  0  0  0  0  0  0  0  0  0  0
   61.4249   28.0262   43.9226 H   0  0  0  0  0  0  0  0  0  0  0  0
   61.6512   29.8082   43.9226 H   0  0  0  0  0  0  0  0  0  0  0  0
   60.3983   27.6192   47.0629 H   0  0  0  0  0  0  0  0  0  0  0  0
   58.8894   25.8471   47.9468 H   0  0  0  0  0  0  0  0  0  0  0  0
   56.1086   26.5811   44.7245 H   0  0  0  0  0  0  0  0  0  0  0  0
   58.3140   28.9220   43.0170 H   0  0  0  0  0  0  0  0  0  0  0  0
   56.9790   27.9150   42.8940 H   0  0  0  0  0  0  0  0  0  0  0  0
   55.9056   29.8592   43.0594 H   0  0  0  0  0  0  0  0  0  0  0  0
   56.0215   29.3692   44.8025 H   0  0  0  0  0  0  0  0  0  0  0  0
   58.7848   33.5633   47.3213 H   0  0  0  0  0  0  0  0  0  0  0  0
   60.0327   34.0490   46.1240 H   0  0  0  0  0  0  0  0  0  0  0  0
   58.4267   34.8536   46.1240 H   0  0  0  0  0  0  0  0  0  0  0  0
   58.6166   33.9525   43.4317 H   0  0  0  0  0  0  0  0  0  0  0  0
   56.3381   31.7823   41.6867 H   0  0  0  0  0  0  0  0  0  0  0  0
   57.7437   32.8645   41.4043 H   0  0  0  0  0  0  0  0  0  0  0  0
   57.9681   31.0823   41.4043 H   0  0  0  0  0  0  0  0  0  0  0  0
  1  2  1  0
  2  3  1  0
  3  4  2  0
  4  5  1  0
  5  6  2  0
  6  7  1  0
  6  8  1  0
  8  9  2  0
  9 10  1  0
 10 11  1  0
 11 12  1  0
 12 13  1  0
 13 14  1  0
 14 15  1  0
 14 16  2  0
 16 17  1  0
 17 18  1  0
  9  3  1  0
 17 12  2  0
  1 19  1  0
  1 20  1  0
  1 21  1  0
  4 22  1  0
  5 23  1  0
  8 24  1  0
 10 25  1  0
 10 26  1  0
 11 27  1  0
 11 28  1  0
 15 29  1  0
 15 30  1  0
 15 31  1  0
 16 32  1  0
 18 33  1  0
 18 34  1  0
 18 35  1  0
M  CHG  1  10   1
M  END
>  <UniqueID>  (14) 
13

>  <SMILES>  (14) 
COc1ccc(Cl)cc1[NH2+]Cc1sc(C)cc1C

>  <Energy>  (14) 
55.91600253775787

>  <Genealogy>  (14) 
COc1ccc(Cl)cc1[NH2+]Cc1sc(C)cc1C (protonated)
COc1ccc(Cl)cc1[NH2+]Cc1sc(C)cc1C (3D coordinates assigned)
COc1ccc(Cl)cc1[NH2+]Cc1sc(C)cc1C (optimized conformer: 55.91600253775787 kcal/mol)

>  <smiles>  (14) 
COc1ccc(Cl)cc1NCc1sc(C)cc1C

>  <score_type>  (14) 
oracle

>  <origin>  (14) 
adg

>  <m_score__min__energy>  (14) 
-5.3399999999999999

>  <m_primary>  (14) 
energy

$$$$
14:0
     RDKit          3D

 47 49  0  0  0  0  0  0  0  0999 V2000
   62.9780   33.8400   46.7450 C   0  0  0  0  0  0  0  0  0  0  0  0
   63.2600   32.1900   47.4580 S   0  0  0  0  0  0  0  0  0  0  0  0
   61.6000   32.0640   48.1270 C   0  0  0  0  0  0  0  0  0  0  0  0
   60.9190   33.2170   48.5320 C   0  0  0  0  0  0  0  0  0  0  0  0
   59.6290   33.1160   49.0600 C   0  0  0  0  0  0  0  0  0  0  0  0
   59.0110   31.8680   49.1720 C   0  0  0  0  0  0  0  0  0  0  0  0
   59.6780   30.7060   48.7410 C   0  0  0  0  0  0  0  0  0  0  0  0
   59.0920   29.4020   48.8590 N   0  0  0  0  0  0  0  0  0  0  0  0
   59.5900   28.1850   48.2840 C   0  0  0  0  0  0  0  0  0  0  0  0
   60.7400   27.7670   48.5890 O   0  0  0  0  0  0  0  0  0  0  0  0
   58.7370   27.4140   47.3460 C   0  0  0  0  0  0  0  0  0  0  0  0
   58.8020   26.0080   47.3680 C   0  0  0  0  0  0  0  0  0  0  0  0
   57.9810   25.2430   46.5390 C   0  0  0  0  0  0  0  0  0  0  0  0
   57.0890   25.8670   45.6690 C   0  0  0  0  0  0  0  0  0  0  0  0
   57.0170   27.2590   45.6230 C   0  0  0  0  0  0  0  0  0  0  0  0
   57.8300   28.0470   46.4550 C   0  0  0  0  0  0  0  0  0  0  0  0
   57.7970   29.4730   46.3190 N   0  0  0  0  0  0  0  0  0  0  0  0
   57.2590   30.2510   44.8670 S   0  0  0  0  0  0  0  0  0  0  0  0
   57.7460   29.5160   43.6500 O   0  0  0  0  0  0  0  0  0  0  0  0
   55.7570   30.2740   44.8550 O   0  0  0  0  0  0  0  0  0  0  0  0
   57.8760   31.8950   44.8280 C   0  0  0  0  0  0  0  0  0  0  0  0
   58.2740   32.6540   45.9050 C   0  0  0  0  0  0  0  0  0  0  0  0
   58.6990   33.8430   45.4360 N   0  0  0  0  0  0  0  0  0  0  0  0
   59.2700   34.9180   46.2350 C   0  0  0  0  0  0  0  0  0  0  0  0
   58.6120   33.8730   44.1140 N   0  0  0  0  0  0  0  0  0  0  0  0
   58.1000   32.6900   43.7200 C   0  0  0  0  0  0  0  0  0  0  0  0
   57.8520   32.3230   42.2940 C   0  0  0  0  0  0  0  0  0  0  0  0
   60.9810   30.8120   48.2350 C   0  0  0  0  0  0  0  0  0  0  0  0
   62.8527   34.5731   47.5555 H   0  0  0  0  0  0  0  0  0  0  0  0
   63.8407   34.1235   46.1242 H   0  0  0  0  0  0  0  0  0  0  0  0
   62.0701   33.8209   46.1242 H   0  0  0  0  0  0  0  0  0  0  0  0
   61.3985   34.2022   48.4349 H   0  0  0  0  0  0  0  0  0  0  0  0
   59.0985   34.0219   49.3884 H   0  0  0  0  0  0  0  0  0  0  0  0
   57.9998   31.7933   49.5984 H   0  0  0  0  0  0  0  0  0  0  0  0
   59.5081   25.5068   48.0464 H   0  0  0  0  0  0  0  0  0  0  0  0
   58.0379   24.1450   46.5722 H   0  0  0  0  0  0  0  0  0  0  0  0
   56.4413   25.2613   45.0182 H   0  0  0  0  0  0  0  0  0  0  0  0
   56.3164   27.7451   44.9281 H   0  0  0  0  0  0  0  0  0  0  0  0
   57.9370   30.0710   47.1650 H   0  0  0  0  0  0  0  0  0  0  0  0
   58.2494   32.3448   46.9604 H   0  0  0  0  0  0  0  0  0  0  0  0
   59.1468   34.6861   47.3032 H   0  0  0  0  0  0  0  0  0  0  0  0
   60.3405   35.0187   46.0027 H   0  0  0  0  0  0  0  0  0  0  0  0
   58.7541   35.8613   46.0027 H   0  0  0  0  0  0  0  0  0  0  0  0
   57.2366   31.4123   42.2515 H   0  0  0  0  0  0  0  0  0  0  0  0
   57.3242   33.1461   41.7900 H   0  0  0  0  0  0  0  0  0  0  0  0
   58.8125   32.1403   41.7900 H   0  0  0  0  0  0  0  0  0  0  0  0
   61.5207   29.9065   47.9208 H   0  0  0  0  0  0  0  0  0  0  0  0
  1  2  1  0
  2  3  1  0
  3  4  2  0
  4  5  1  0
  5  6  2  0
  6  7  1  0
  7  8  1  0
  8  9  1  0
  9 10  2  0
  9 11  1  0
 11 12  2  0
 12 13  1  0
 13 14  2  0
 14 15  1  0
 15 16  2  0
 16 17  1  0
 17 18  1  0
 18 19  2  0
 18 20  2  0
 18 21  1  0
 21 22  2  0
 22 23  1  0
 23 24  1  0
 23 25  1  0
 25 26  2  0
 26 27  1  0
  7 28  2  0
 28  3  1  0
 16 11  1  0
 26 21  1  0
  1 29  1  0
  1 30  1  0
  1 31  1  0
  4 32  1  0
  5 33  1  0
  6 34  1  0
 12 35  1  0
 13 36  1  0
 14 37  1  0
 15 38  1  0
 17 39  1  0
 22 40  1  0
 24 41  1  0
 24 42  1  0
 24 43  1  0
 27 44  1  0
 27 45  1  0
 27 46  1  0
 28 47  1  0
M  CHG  1   8  -1
M  END
>  <UniqueID>  (15) 
14

>  <SMILES>  (15) 
CSc1cccc([N-]C(=O)c2ccccc2NS(=O)(=O)c2cn(C)nc2C)c1

>  <Energy>  (15) 
86.30316067376314

>  <Genealogy>  (15) 
CSc1cccc([N-]C(=O)c2ccccc2NS(=O)(=O)c2cn(C)nc2C)c1 (protonated)
CSc1cccc([N-]C(=O)c2ccccc2NS(=O)(=O)c2cn(C)nc2C)c1 (3D coordinates assigned)
CSc1cccc([N-]C(=O)c2ccccc2NS(=O)(=O)c2cn(C)nc2C)c1 (optimized conformer: 86.30316067376314 kcal/mol)

>  <smiles>  (15) 
CSc1cccc(NC(=O)c2ccccc2NS(=O)(=O)c2cn(C)nc2C)c1

>  <score_type>  (15) 
oracle

>  <origin>  (15) 
adg

>  <m_score__min__energy>  (15) 
-11.09

>  <m_primary>  (15) 
energy

$$$$
15:0
     RDKit          3D

 70 73  0  0  0  0  0  0  0  0999 V2000
   55.7920   24.2180   44.9320 C   0  0  0  0  0  0  0  0  0  0  0  0
   54.9110   25.2270   45.6030 C   0  0  0  0  0  0  0  0  0  0  0  0
   53.6780   24.9870   45.7010 O   0  0  0  0  0  0  0  0  0  0  0  0
   55.4300   26.4380   46.1680 N   0  0  0  0  0  0  0  0  0  0  0  0
   56.8030   26.7330   46.4700 C   0  0  0  0  0  0  0  0  0  0  0  0
   57.7060   25.7330   46.8670 C   0  0  0  0  0  0  0  0  0  0  0  0
   59.0440   26.0510   47.1110 C   0  0  0  0  0  0  0  0  0  0  0  0
   59.5010   27.3550   46.9220 C   0  0  0  0  0  0  0  0  0  0  0  0
   58.6230   28.3520   46.4760 C   0  0  0  0  0  0  0  0  0  0  0  0
   59.2020   29.9980   46.1950 S   0  0  0  0  0  0  0  0  0  0  0  0
   60.6600   30.0750   46.5460 O   0  0  0  0  0  0  0  0  0  0  0  0
   58.4660   30.9090   47.1340 O   0  0  0  0  0  0  0  0  0  0  0  0
   58.9450   30.5840   44.5620 N   0  0  0  0  0  0  0  0  0  0  0  0
   58.1120   31.8000   44.4070 C   0  0  0  0  0  0  0  0  0  0  0  0
   58.7470   32.9530   45.1750 C   0  0  0  0  0  0  0  0  0  0  0  0
   58.1280   34.0520   45.2300 O   0  0  0  0  0  0  0  0  0  0  0  0
   59.9500   32.7870   45.9430 N   0  0  0  0  0  0  0  0  0  0  0  0
   60.6050   33.9140   46.6170 C   0  0  0  0  0  0  0  0  0  0  0  0
   61.8660   33.4180   47.3690 C   0  0  0  0  0  0  0  0  0  0  0  0
   62.1190   34.2220   48.6520 C   0  0  0  0  0  0  0  0  0  0  0  0
   60.9680   34.1690   49.5880 N   0  0  0  0  0  0  0  0  0  0  0  0
   61.1730   33.3070   50.7750 C   0  0  0  0  0  0  0  0  0  0  0  0
   60.6780   31.8850   50.5940 C   0  0  0  0  0  0  0  0  0  0  0  0
   59.4390   31.4930   51.1290 C   0  0  0  0  0  0  0  0  0  0  0  0
   58.9700   30.1870   50.9510 C   0  0  0  0  0  0  0  0  0  0  0  0
   59.7420   29.2570   50.2520 C   0  0  0  0  0  0  0  0  0  0  0  0
   60.9900   29.6270   49.7420 C   0  0  0  0  0  0  0  0  0  0  0  0
   61.4610   30.9320   49.9180 C   0  0  0  0  0  0  0  0  0  0  0  0
   59.6380   34.0010   48.9530 C   0  0  0  0  0  0  0  0  0  0  0  0
   59.6020   34.6210   47.5550 C   0  0  0  0  0  0  0  0  0  0  0  0
   58.1380   32.2000   42.9000 C   0  0  0  0  0  0  0  0  0  0  0  0
   57.0250   31.5630   42.0400 C   0  0  0  0  0  0  0  0  0  0  0  0
   56.5640   30.2170   42.5990 C   0  0  0  0  0  0  0  0  0  0  0  0
   55.9960   30.3610   44.0240 C   0  0  0  0  0  0  0  0  0  0  0  0
   56.6350   31.5200   44.8220 C   0  0  0  0  0  0  0  0  0  0  0  0
   57.2710   28.0390   46.2690 C   0  0  0  0  0  0  0  0  0  0  0  0
   56.3131   23.6212   45.6950 H   0  0  0  0  0  0  0  0  0  0  0  0
   55.1783   23.5553   44.3041 H   0  0  0  0  0  0  0  0  0  0  0  0
   56.5314   24.7367   44.3041 H   0  0  0  0  0  0  0  0  0  0  0  0
   57.3583   24.6962   46.9861 H   0  0  0  0  0  0  0  0  0  0  0  0
   59.7394   25.2705   47.4533 H   0  0  0  0  0  0  0  0  0  0  0  0
   60.5539   27.6017   47.1236 H   0  0  0  0  0  0  0  0  0  0  0  0
   60.2290   31.8260   46.2400 H   0  0  0  0  0  0  0  0  0  0  0  0
   60.9361   34.6540   45.8735 H   0  0  0  0  0  0  0  0  0  0  0  0
   61.7290   32.3592   47.6338 H   0  0  0  0  0  0  0  0  0  0  0  0
   62.7335   33.5512   46.7059 H   0  0  0  0  0  0  0  0  0  0  0  0
   63.0051   33.8109   49.1578 H   0  0  0  0  0  0  0  0  0  0  0  0
   62.2706   35.2731   48.3653 H   0  0  0  0  0  0  0  0  0  0  0  0
   62.2499   33.2734   50.9969 H   0  0  0  0  0  0  0  0  0  0  0  0
   60.5867   33.7475   51.5949 H   0  0  0  0  0  0  0  0  0  0  0  0
   58.8334   32.2185   51.6920 H   0  0  0  0  0  0  0  0  0  0  0  0
   57.9929   29.8928   51.3618 H   0  0  0  0  0  0  0  0  0  0  0  0
   59.3683   28.2333   50.1026 H   0  0  0  0  0  0  0  0  0  0  0  0
   61.6025   28.8904   49.2014 H   0  0  0  0  0  0  0  0  0  0  0  0
   62.4490   31.2146   49.5257 H   0  0  0  0  0  0  0  0  0  0  0  0
   59.4128   32.9272   48.8737 H   0  0  0  0  0  0  0  0  0  0  0  0
   58.8905   34.5128   49.5769 H   0  0  0  0  0  0  0  0  0  0  0  0
   58.5878   34.5196   47.1412 H   0  0  0  0  0  0  0  0  0  0  0  0
   59.8789   35.6828   47.6323 H   0  0  0  0  0  0  0  0  0  0  0  0
   58.0370   33.2934   42.8347 H   0  0  0  0  0  0  0  0  0  0  0  0
   59.0912   31.8265   42.4976 H   0  0  0  0  0  0  0  0  0  0  0  0
   56.1646   32.2477   42.0099 H   0  0  0  0  0  0  0  0  0  0  0  0
   57.4331   31.3893   41.0334 H   0  0  0  0  0  0  0  0  0  0  0  0
   55.7825   29.8064   41.9427 H   0  0  0  0  0  0  0  0  0  0  0  0
   57.4338   29.5450   42.6409 H   0  0  0  0  0  0  0  0  0  0  0  0
   54.9134   30.5419   43.9518 H   0  0  0  0  0  0  0  0  0  0  0  0
   56.2253   29.4294   44.5621 H   0  0  0  0  0  0  0  0  0  0  0  0
   56.0436   32.4317   44.6514 H   0  0  0  0  0  0  0  0  0  0  0  0
   56.6396   31.2278   45.8825 H   0  0  0  0  0  0  0  0  0  0  0  0
   56.5724   28.8250   45.9463 H   0  0  0  0  0  0  0  0  0  0  0  0
  1  2  1  0
  2  3  2  0
  2  4  1  0
  4  5  1  0
  5  6  2  0
  6  7  1  0
  7  8  2  0
  8  9  1  0
  9 10  1  0
 10 11  2  0
 10 12  2  0
 10 13  1  0
 13 14  1  0
 14 15  1  0
 15 16  2  0
 15 17  1  0
 17 18  1  0
 18 19  1  0
 19 20  1  0
 20 21  1  0
 21 22  1  0
 22 23  1  0
 23 24  2  0
 24 25  1  0
 25 26  2  0
 26 27  1  0
 27 28  2  0
 21 29  1  0
 29 30  1  0
 14 31  1  0
 31 32  1  0
 32 33  1  0
 33 34  1  0
 34 35  1  0
  9 36  2  0
 36  5  1  0
 35 14  1  0
 30 18  1  0
 28 23  1  0
  1 37  1  0
  1 38  1  0
  1 39  1  0
  6 40  1  0
  7 41  1  0
  8 42  1  0
 17 43  1  0
 18 44  1  0
 19 45  1  0
 19 46  1  0
 20 47  1  0
 20 48  1  0
 22 49  1  0
 22 50  1  0
 24 51  1  0
 25 52  1  0
 26 53  1  0
 27 54  1  0
 28 55  1  0
 29 56  1  0
 29 57  1  0
 30 58  1  0
 30 59  1  0
 31 60  1  0
 31 61  1  0
 32 62  1  0
 32 63  1  0
 33 64  1  0
 33 65  1  0
 34 66  1  0
 34 67  1  0
 35 68  1  0
 35 69  1  0
 36 70  1  0
M  CHG  2   4  -1  13  -1
M  END
>  <UniqueID>  (16) 
15

>  <SMILES>  (16) 
CC(=O)[N-]c1cccc(S(=O)(=O)[N-]C2(C(=O)NC3CCN(Cc4ccccc4)CC3)CCCCC2)c1

>  <Energy>  (16) 
92.68034677393351

>  <Genealogy>  (16) 
CC(=O)[N-]c1cccc(S(=O)(=O)[N-]C2(C(=O)NC3CCN(Cc4ccccc4)CC3)CCCCC2)c1 (protonated)
CC(=O)[N-]c1cccc(S(=O)(=O)[N-]C2(C(=O)NC3CCN(Cc4ccccc4)CC3)CCCCC2)c1 (3D coordinates assigned)
CC(=O)[N-]c1cccc(S(=O)(=O)[N-]C2(C(=O)NC3CCN(Cc4ccccc4)CC3)CCCCC2)c1 (nonaromatic ring conformer: 92.68034677393351 kcal/mol)

>  <smiles>  (16) 
CC(=O)Nc1cccc(S(=O)(=O)NC2(C(=O)NC3CCN(Cc4ccccc4)CC3)CCCCC2)c1

>  <score_type>  (16) 
oracle

>  <origin>  (16) 
adg

>  <m_score__min__energy>  (16) 
-13.19

>  <m_primary>  (16) 
energy

$$$$
16:0
     RDKit          3D

 55 57  0  0  0  0  0  0  0  0999 V2000
   64.2960   33.0350   48.6050 C   0  0  0  0  0  0  0  0  0  0  0  0
   62.9150   33.4020   48.1600 C   0  0  0  0  0  0  0  0  0  0  0  0
   62.6460   33.6370   46.8080 C   0  0  0  0  0  0  0  0  0  0  0  0
   61.3530   33.9830   46.4170 C   0  0  0  0  0  0  0  0  0  0  0  0
   60.3340   34.0930   47.3700 C   0  0  0  0  0  0  0  0  0  0  0  0
   59.0130   34.4530   46.9400 N   0  0  0  0  0  0  0  0  0  0  0  0
   58.5490   34.1700   45.5830 C   0  0  0  0  0  0  0  0  0  0  0  0
   58.3510   32.6930   45.4090 C   0  0  0  0  0  0  0  0  0  0  0  0
   58.3730   31.8320   46.4610 N   0  0  0  0  0  0  0  0  0  0  0  0
   58.0710   30.6510   45.8940 C   0  0  0  0  0  0  0  0  0  0  0  0
   57.9330   29.4180   46.5260 C   0  0  0  0  0  0  0  0  0  0  0  0
   57.5510   28.3050   45.7450 C   0  0  0  0  0  0  0  0  0  0  0  0
   57.4260   27.0160   46.3680 N   0  0  0  0  0  0  0  0  0  0  0  0
   56.2780   26.1710   46.2010 C   0  0  0  0  0  0  0  0  0  0  0  0
   55.1500   26.6920   45.9940 O   0  0  0  0  0  0  0  0  0  0  0  0
   56.3640   24.7390   46.2800 N   0  0  0  0  0  0  0  0  0  0  0  0
   56.7790   23.7540   45.2720 C   0  0  0  0  0  0  0  0  0  0  0  0
   58.1610   23.1610   45.6100 C   0  0  0  0  0  0  0  0  0  0  0  0
   55.7200   22.6450   45.1350 C   0  0  0  0  0  0  0  0  0  0  0  0
   56.8810   24.4980   43.9300 C   0  0  0  0  0  0  0  0  0  0  0  0
   57.3420   28.4690   44.3480 C   0  0  0  0  0  0  0  0  0  0  0  0
   57.4910   29.7300   43.7420 C   0  0  0  0  0  0  0  0  0  0  0  0
   57.8640   30.8010   44.5550 C   0  0  0  0  0  0  0  0  0  0  0  0
   58.0530   32.0890   44.2250 N   0  0  0  0  0  0  0  0  0  0  0  0
   57.8350   32.7090   42.9170 C   0  0  0  0  0  0  0  0  0  0  0  0
   60.6520   33.8940   48.7330 C   0  0  0  0  0  0  0  0  0  0  0  0
   59.6380   34.0740   49.8240 C   0  0  0  0  0  0  0  0  0  0  0  0
   61.9220   33.5450   49.0790 N   0  0  0  0  0  0  0  0  0  0  0  0
   64.3363   33.0243   49.7042 H   0  0  0  0  0  0  0  0  0  0  0  0
   64.5527   32.0375   48.2189 H   0  0  0  0  0  0  0  0  0  0  0  0
   65.0140   33.7735   48.2189 H   0  0  0  0  0  0  0  0  0  0  0  0
   63.4473   33.5497   46.0595 H   0  0  0  0  0  0  0  0  0  0  0  0
   61.1331   34.1702   45.3556 H   0  0  0  0  0  0  0  0  0  0  0  0
   58.5410   35.2280   47.4580 H   0  0  0  0  0  0  0  0  0  0  0  0
   57.5951   34.6891   45.4080 H   0  0  0  0  0  0  0  0  0  0  0  0
   59.3015   34.5221   44.8620 H   0  0  0  0  0  0  0  0  0  0  0  0
   58.1167   29.3135   47.6055 H   0  0  0  0  0  0  0  0  0  0  0  0
   58.1500   26.7430   47.0630 H   0  0  0  0  0  0  0  0  0  0  0  0
   58.2808   23.1096   46.7023 H   0  0  0  0  0  0  0  0  0  0  0  0
   58.2401   22.1497   45.1845 H   0  0  0  0  0  0  0  0  0  0  0  0
   58.9484   23.8005   45.1845 H   0  0  0  0  0  0  0  0  0  0  0  0
   55.4040   22.3141   46.1353 H   0  0  0  0  0  0  0  0  0  0  0  0
   54.8501   23.0345   44.5859 H   0  0  0  0  0  0  0  0  0  0  0  0
   56.1492   21.7940   44.5859 H   0  0  0  0  0  0  0  0  0  0  0  0
   57.0282   25.5720   44.1165 H   0  0  0  0  0  0  0  0  0  0  0  0
   57.7337   24.1051   43.3568 H   0  0  0  0  0  0  0  0  0  0  0  0
   55.9540   24.3491   43.3568 H   0  0  0  0  0  0  0  0  0  0  0  0
   57.0607   27.6004   43.7344 H   0  0  0  0  0  0  0  0  0  0  0  0
   57.3193   29.8669   42.6641 H   0  0  0  0  0  0  0  0  0  0  0  0
   57.4730   33.7385   43.0550 H   0  0  0  0  0  0  0  0  0  0  0  0
   58.7814   32.7251   42.3566 H   0  0  0  0  0  0  0  0  0  0  0  0
   57.0868   32.1293   42.3566 H   0  0  0  0  0  0  0  0  0  0  0  0
   60.1327   33.9862   50.8025 H   0  0  0  0  0  0  0  0  0  0  0  0
   59.1759   35.0682   49.7347 H   0  0  0  0  0  0  0  0  0  0  0  0
   58.8619   33.2996   49.7347 H   0  0  0  0  0  0  0  0  0  0  0  0
  1  2  1  0
  2  3  2  0
  3  4  1  0
  4  5  2  0
  5  6  1  0
  6  7  1  0
  7  8  1  0
  8  9  2  0
  9 10  1  0
 10 11  2  0
 11 12  1  0
 12 13  1  0
 13 14  1  0
 14 15  2  0
 14 16  1  0
 16 17  1  0
 17 18  1  0
 17 19  1  0
 17 20  1  0
 12 21  2  0
 21 22  1  0
 22 23  2  0
 23 24  1  0
 24 25  1  0
  5 26  1  0
 26 27  1  0
 26 28  2  0
 28  2  1  0
 24  8  1  0
 23 10  1  0
  1 29  1  0
  1 30  1  0
  1 31  1  0
  3 32  1  0
  4 33  1  0
  6 34  1  0
  7 35  1  0
  7 36  1  0
 11 37  1  0
 13 38  1  0
 18 39  1  0
 18 40  1  0
 18 41  1  0
 19 42  1  0
 19 43  1  0
 19 44  1  0
 20 45  1  0
 20 46  1  0
 20 47  1  0
 21 48  1  0
 22 49  1  0
 25 50  1  0
 25 51  1  0
 25 52  1  0
 27 53  1  0
 27 54  1  0
 27 55  1  0
M  CHG  1  16  -1
M  END
>  <UniqueID>  (17) 
16

>  <SMILES>  (17) 
Cc1ccc(NCc2nc3cc(NC(=O)[N-]C(C)(C)C)ccc3n2C)c(C)n1

>  <Energy>  (17) 
97.27517914548501

>  <Genealogy>  (17) 
Cc1ccc(NCc2nc3cc(NC(=O)[N-]C(C)(C)C)ccc3n2C)c(C)n1 (protonated)
Cc1ccc(NCc2nc3cc(NC(=O)[N-]C(C)(C)C)ccc3n2C)c(C)n1 (3D coordinates assigned)
Cc1ccc(NCc2nc3cc(NC(=O)[N-]C(C)(C)C)ccc3n2C)c(C)n1 (optimized conformer: 97.27517914548501 kcal/mol)

>  <smiles>  (17) 
Cc1ccc(NCc2nc3cc(NC(=O)NC(C)(C)C)ccc3n2C)c(C)n1

>  <score_type>  (17) 
oracle

>  <origin>  (17) 
adg

>  <m_score__min__energy>  (17) 
-10.23

>  <m_primary>  (17) 
energy

$$$$
17:0
     RDKit          3D

 58 62  0  0  0  0  0  0  0  0999 V2000
   59.9083   30.1496   45.7743 H   0  0  0  0  0  0  0  0  0  0  0  0
   60.0270   29.2620   46.4130 C   0  0  0  0  0  0  0  0  0  0  0  0
   59.9910   27.9890   45.8430 C   0  0  0  0  0  0  0  0  0  0  0  0
   59.8588   27.8786   44.7566 H   0  0  0  0  0  0  0  0  0  0  0  0
   60.1230   26.8470   46.6520 C   0  0  0  0  0  0  0  0  0  0  0  0
   60.1370   25.5290   46.0870 N   0  0  0  0  0  0  0  0  0  0  0  0
   59.0020   24.6630   45.9900 C   0  0  0  0  0  0  0  0  0  0  0  0
   59.1720   23.4760   45.5980 O   0  0  0  0  0  0  0  0  0  0  0  0
   57.7090   25.1030   46.4340 N   0  0  0  0  0  0  0  0  0  0  0  0
   57.6780   25.8900   47.1260 H   0  0  0  0  0  0  0  0  0  0  0  0
   56.4860   24.4030   46.1430 C   0  0  0  0  0  0  0  0  0  0  0  0
   55.8150   23.7280   47.1740 C   0  0  0  0  0  0  0  0  0  0  0  0
   56.2405   23.7195   48.1883 H   0  0  0  0  0  0  0  0  0  0  0  0
   54.6110   23.0670   46.9220 C   0  0  0  0  0  0  0  0  0  0  0  0
   54.1075   22.5207   47.7332 H   0  0  0  0  0  0  0  0  0  0  0  0
   54.0400   23.0950   45.6430 C   0  0  0  0  0  0  0  0  0  0  0  0
   52.8060   22.3950   45.4260 N   0  0  0  0  0  0  0  0  0  0  0  0
   51.2930   23.1380   45.0170 S   0  0  0  0  0  0  0  0  0  0  0  0
   50.7570   22.5500   43.7410 O   0  0  0  0  0  0  0  0  0  0  0  0
   51.4770   24.6220   44.8570 O   0  0  0  0  0  0  0  0  0  0  0  0
   50.1280   22.8370   46.3250 C   0  0  0  0  0  0  0  0  0  0  0  0
   50.6266   22.9658   47.2970 H   0  0  0  0  0  0  0  0  0  0  0  0
   49.2935   23.5490   46.2438 H   0  0  0  0  0  0  0  0  0  0  0  0
   49.7428   21.8098   46.2438 H   0  0  0  0  0  0  0  0  0  0  0  0
   54.7000   23.7900   44.6100 C   0  0  0  0  0  0  0  0  0  0  0  0
   54.2591   23.8211   43.6027 H   0  0  0  0  0  0  0  0  0  0  0  0
   55.9120   24.4400   44.8590 C   0  0  0  0  0  0  0  0  0  0  0  0
   56.4192   24.9828   44.0477 H   0  0  0  0  0  0  0  0  0  0  0  0
   60.3100   27.0000   48.0320 C   0  0  0  0  0  0  0  0  0  0  0  0
   60.4453   26.1116   48.6664 H   0  0  0  0  0  0  0  0  0  0  0  0
   60.3260   28.2760   48.6100 C   0  0  0  0  0  0  0  0  0  0  0  0
   60.4140   28.4060   50.3550 Cl  0  0  0  0  0  0  0  0  0  0  0  0
   60.2130   29.4180   47.7910 C   0  0  0  0  0  0  0  0  0  0  0  0
   60.1830   30.7420   48.3390 N   0  0  0  0  0  0  0  0  0  0  0  0
   60.3900   31.9170   47.7900 C   0  0  0  0  0  0  0  0  0  0  0  0
   61.7070   32.4370   47.8640 C   0  0  0  0  0  0  0  0  0  0  0  0
   62.7140   31.8170   48.6400 C   0  0  0  0  0  0  0  0  0  0  0  0
   62.4743   30.9158   49.2234 H   0  0  0  0  0  0  0  0  0  0  0  0
   64.0110   32.3380   48.6730 C   0  0  0  0  0  0  0  0  0  0  0  0
   64.7829   31.8528   49.2885 H   0  0  0  0  0  0  0  0  0  0  0  0
   64.3270   33.4740   47.9250 C   0  0  0  0  0  0  0  0  0  0  0  0
   65.3477   33.8832   47.9520 H   0  0  0  0  0  0  0  0  0  0  0  0
   63.3490   34.0910   47.1430 C   0  0  0  0  0  0  0  0  0  0  0  0
   63.6048   34.9793   46.5468 H   0  0  0  0  0  0  0  0  0  0  0  0
   62.0450   33.5850   47.1140 C   0  0  0  0  0  0  0  0  0  0  0  0
   61.1070   34.2040   46.3570 N   0  0  0  0  0  0  0  0  0  0  0  0
   59.8140   33.7960   46.3240 C   0  0  0  0  0  0  0  0  0  0  0  0
   58.8950   34.5290   45.5600 C   0  0  0  0  0  0  0  0  0  0  0  0
   59.2455   35.3693   44.9427 H   0  0  0  0  0  0  0  0  0  0  0  0
   57.5370   34.2000   45.5770 C   0  0  0  0  0  0  0  0  0  0  0  0
   56.6010   34.9550   44.7990 N   0  0  0  0  0  0  0  0  0  0  0  0
   56.5900   34.8840   43.7570 H   0  0  0  0  0  0  0  0  0  0  0  0
   55.8970   35.5750   45.2620 H   0  0  0  0  0  0  0  0  0  0  0  0
   57.0940   33.1600   46.3970 C   0  0  0  0  0  0  0  0  0  0  0  0
   56.0218   32.9178   46.4389 H   0  0  0  0  0  0  0  0  0  0  0  0
   58.0010   32.4240   47.1650 C   0  0  0  0  0  0  0  0  0  0  0  0
   57.6280   31.6396   47.8400 H   0  0  0  0  0  0  0  0  0  0  0  0
   59.3920   32.6730   47.0870 C   0  0  0  0  0  0  0  0  0  0  0  0
  1  2  1  0
  2  3  2  0
  3  4  1  0
  3  5  1  0
  5  6  1  0
  6  7  1  0
  7  8  2  0
  7  9  1  0
  9 10  1  0
  9 11  1  0
 11 12  2  0
 12 13  1  0
 12 14  1  0
 14 15  1  0
 14 16  2  0
 16 17  1  0
 17 18  1  0
 18 19  2  0
 18 20  2  0
 18 21  1  0
 21 22  1  0
 21 23  1  0
 21 24  1  0
 16 25  1  0
 25 26  1  0
 25 27  2  0
 27 28  1  0
  5 29  2  0
 29 30  1  0
 29 31  1  0
 31 32  1  0
 31 33  2  0
 33 34  1  0
 34 35  2  0
 35 36  1  0
 36 37  2  0
 37 38  1  0
 37 39  1  0
 39 40  1  0
 39 41  2  0
 41 42  1  0
 41 43  1  0
 43 44  1  0
 43 45  2  0
 45 46  1  0
 46 47  1  0
 47 48  2  0
 48 49  1  0
 48 50  1  0
 50 51  1  0
 51 52  1  0
 51 53  1  0
 50 54  2  0
 54 55  1  0
 54 56  1  0
 56 57  1  0
 56 58  2  0
 33  2  1  0
 58 35  1  0
 27 11  1  0
 45 36  1  0
 58 47  1  0
M  CHG  3   6  -1  17  -1  46  -1
M  END
>  <UniqueID>  (18) 
17

>  <SMILES>  (18) 
CS(=O)(=O)[N-]c1ccc(NC(=O)[N-]c2ccc(/N=c3/c4ccccc4[n-]c4cc(N)ccc34)c(Cl)c2)cc1

>  <Energy>  (18) 
99.3679282712043

>  <Genealogy>  (18) 
CS(=O)(=O)[N-]c1ccc(NC(=O)[N-]c2ccc(N=c3c4ccccc4[n-]c4cc(N)ccc34)c(Cl)c2)cc1 (protonated)
CS(=O)(=O)[N-]c1ccc(NC(=O)[N-]c2ccc(/N=c3/c4ccccc4[n-]c4cc(N)ccc34)c(Cl)c2)cc1 (cis-trans isomerization)
CS(=O)(=O)[N-]c1ccc(NC(=O)[N-]c2ccc(/N=c3/c4ccccc4[n-]c4cc(N)ccc34)c(Cl)c2)cc1 (3D coordinates assigned)
CS(=O)(=O)[N-]c1ccc(NC(=O)[N-]c2ccc(/N=c3/c4ccccc4[n-]c4cc(N)ccc34)c(Cl)c2)cc1 (optimized conformer: 99.3679282712043 kcal/mol)

>  <smiles>  (18) 
CS(=O)(=O)Nc1ccc(NC(=O)Nc2ccc(N=c3c4ccccc4[nH]c4cc(N)ccc34)c(Cl)c2)cc1

>  <score_type>  (18) 
oracle

>  <origin>  (18) 
adg

>  <m_score__min__energy>  (18) 
-14

>  <m_primary>  (18) 
energy

$$$$
18:0
     RDKit          3D

 55 58  0  0  0  0  0  0  0  0999 V2000
   57.7810   26.4820   43.6070 C   0  0  0  0  0  0  0  0  0  0  0  0
   57.4610   27.3200   44.7600 N   0  0  0  0  0  0  0  0  0  0  0  0
   56.6550   26.7630   45.8490 C   0  0  0  0  0  0  0  0  0  0  0  0
   57.5540   28.7410   44.6080 C   0  0  0  0  0  0  0  0  0  0  0  0
   56.6760   29.4280   43.7570 C   0  0  0  0  0  0  0  0  0  0  0  0
   56.8150   30.8090   43.5770 C   0  0  0  0  0  0  0  0  0  0  0  0
   57.8320   31.5160   44.2450 C   0  0  0  0  0  0  0  0  0  0  0  0
   58.0270   32.9920   44.0070 C   0  0  0  0  0  0  0  0  0  0  0  0
   58.7160   33.5980   45.1520 N   0  0  0  0  0  0  0  0  0  0  0  0
   58.1070   33.6580   46.4520 C   0  0  0  0  0  0  0  0  0  0  0  0
   56.8620   33.4600   46.5660 O   0  0  0  0  0  0  0  0  0  0  0  0
   58.8780   33.8410   47.7170 C   0  0  0  0  0  0  0  0  0  0  0  0
   59.7420   32.9770   48.3050 C   0  0  0  0  0  0  0  0  0  0  0  0
   59.2350   31.9500   49.2490 C   0  0  0  0  0  0  0  0  0  0  0  0
   58.3810   32.3700   50.2820 C   0  0  0  0  0  0  0  0  0  0  0  0
   57.9890   31.4970   51.2900 C   0  0  0  0  0  0  0  0  0  0  0  0
   58.4620   30.1840   51.3000 C   0  0  0  0  0  0  0  0  0  0  0  0
   59.2880   29.7300   50.2740 C   0  0  0  0  0  0  0  0  0  0  0  0
   59.6850   30.5880   49.2340 C   0  0  0  0  0  0  0  0  0  0  0  0
   60.4600   29.9200   48.1020 C   0  0  0  0  0  0  0  0  0  0  0  0
   61.1200   30.8070   47.0370 C   0  0  0  0  0  0  0  0  0  0  0  0
   61.8940   31.9360   47.6380 C   0  0  0  0  0  0  0  0  0  0  0  0
   63.2920   31.9530   47.5960 C   0  0  0  0  0  0  0  0  0  0  0  0
   63.9940   33.0960   47.9940 C   0  0  0  0  0  0  0  0  0  0  0  0
   63.3020   34.2200   48.4530 C   0  0  0  0  0  0  0  0  0  0  0  0
   61.9030   34.1860   48.5520 C   0  0  0  0  0  0  0  0  0  0  0  0
   61.2010   33.0480   48.1390 C   0  0  0  0  0  0  0  0  0  0  0  0
   58.6820   30.8210   45.1210 C   0  0  0  0  0  0  0  0  0  0  0  0
   58.5410   29.4430   45.3030 C   0  0  0  0  0  0  0  0  0  0  0  0
   58.1533   25.5070   43.9544 H   0  0  0  0  0  0  0  0  0  0  0  0
   56.8763   26.3336   42.9992 H   0  0  0  0  0  0  0  0  0  0  0  0
   58.5544   26.9744   42.9992 H   0  0  0  0  0  0  0  0  0  0  0  0
   57.0875   27.0619   46.8152 H   0  0  0  0  0  0  0  0  0  0  0  0
   55.6255   27.1433   45.7748 H   0  0  0  0  0  0  0  0  0  0  0  0
   56.6467   25.6655   45.7748 H   0  0  0  0  0  0  0  0  0  0  0  0
   55.8788   28.8819   43.2315 H   0  0  0  0  0  0  0  0  0  0  0  0
   56.1248   31.3452   42.9091 H   0  0  0  0  0  0  0  0  0  0  0  0
   58.6311   33.1380   43.0994 H   0  0  0  0  0  0  0  0  0  0  0  0
   57.0445   33.4706   43.8821 H   0  0  0  0  0  0  0  0  0  0  0  0
   59.7260   33.7670   45.0140 H   0  0  0  0  0  0  0  0  0  0  0  0
   58.7261   34.7977   48.2381 H   0  0  0  0  0  0  0  0  0  0  0  0
   58.0161   33.4077   50.2935 H   0  0  0  0  0  0  0  0  0  0  0  0
   57.3056   31.8411   52.0803 H   0  0  0  0  0  0  0  0  0  0  0  0
   58.1820   29.5061   52.1198 H   0  0  0  0  0  0  0  0  0  0  0  0
   59.6341   28.6859   50.2779 H   0  0  0  0  0  0  0  0  0  0  0  0
   61.2584   29.3217   48.5652 H   0  0  0  0  0  0  0  0  0  0  0  0
   59.6926   29.3613   47.5462 H   0  0  0  0  0  0  0  0  0  0  0  0
   61.8042   30.1892   46.4368 H   0  0  0  0  0  0  0  0  0  0  0  0
   60.3207   31.2397   46.4174 H   0  0  0  0  0  0  0  0  0  0  0  0
   63.8411   31.0652   47.2491 H   0  0  0  0  0  0  0  0  0  0  0  0
   65.0928   33.1099   47.9455 H   0  0  0  0  0  0  0  0  0  0  0  0
   63.8528   35.1291   48.7360 H   0  0  0  0  0  0  0  0  0  0  0  0
   61.3583   35.0531   48.9539 H   0  0  0  0  0  0  0  0  0  0  0  0
   59.4651   31.3662   45.6682 H   0  0  0  0  0  0  0  0  0  0  0  0
   59.2090   28.9098   45.9954 H   0  0  0  0  0  0  0  0  0  0  0  0
  1  2  1  0
  2  3  1  0
  2  4  1  0
  4  5  2  0
  5  6  1  0
  6  7  2  0
  7  8  1  0
  8  9  1  0
  9 10  1  0
 10 11  2  0
 10 12  1  0
 12 13  2  3
 13 14  1  0
 14 15  2  0
 15 16  1  0
 16 17  2  0
 17 18  1  0
 18 19  2  0
 19 20  1  0
 20 21  1  0
 21 22  1  0
 22 23  2  0
 23 24  1  0
 24 25  2  0
 25 26  1  0
 26 27  2  0
  7 28  1  0
 28 29  2  0
 29  4  1  0
 27 13  1  0
 19 14  1  0
 27 22  1  0
  1 30  1  0
  1 31  1  0
  1 32  1  0
  3 33  1  0
  3 34  1  0
  3 35  1  0
  5 36  1  0
  6 37  1  0
  8 38  1  0
  8 39  1  0
  9 40  1  0
 12 41  1  0
 15 42  1  0
 16 43  1  0
 17 44  1  0
 18 45  1  0
 20 46  1  0
 20 47  1  0
 21 48  1  0
 21 49  1  0
 23 50  1  0
 24 51  1  0
 25 52  1  0
 26 53  1  0
 28 54  1  0
 29 55  1  0
M  END
>  <UniqueID>  (19) 
18

>  <SMILES>  (19) 
CN(C)c1ccc(CNC(=O)C=C2c3ccccc3CCc3ccccc32)cc1

>  <Energy>  (19) 
91.04805521313897

>  <Genealogy>  (19) 
CN(C)c1ccc(CNC(=O)C=C2c3ccccc3CCc3ccccc32)cc1 (3D coordinates assigned)
CN(C)c1ccc(CNC(=O)C=C2c3ccccc3CCc3ccccc32)cc1 (nonaromatic ring conformer: 91.04805521313897 kcal/mol)

>  <smiles>  (19) 
CN(C)c1ccc(CNC(=O)C=C2c3ccccc3CCc3ccccc32)cc1

>  <score_type>  (19) 
oracle

>  <origin>  (19) 
adg

>  <m_score__min__energy>  (19) 
-7.4500000000000002

>  <m_primary>  (19) 
energy

$$$$
19:0
     RDKit          3D

 62 65  0  0  0  0  0  0  0  0999 V2000
   60.8220   30.3620   53.2430 H   0  0  0  0  0  0  0  0  0  0  0  0
   60.6770   30.7580   54.1440 O   0  0  0  0  0  0  0  0  0  0  0  0
   60.7380   32.1490   53.9870 C   0  0  0  0  0  0  0  0  0  0  0  0
   61.7871   32.4559   53.8634 H   0  0  0  0  0  0  0  0  0  0  0  0
   60.3103   32.6318   54.8781 H   0  0  0  0  0  0  0  0  0  0  0  0
   59.9540   32.5640   52.7790 C   0  0  0  0  0  0  0  0  0  0  0  0
   60.5100   33.1490   51.6980 N   0  0  0  0  0  0  0  0  0  0  0  0
   59.5290   33.4360   50.8560 N   0  0  0  0  0  0  0  0  0  0  0  0
   59.7250   34.1330   49.5910 C   0  0  0  0  0  0  0  0  0  0  0  0
   60.0180   35.1748   49.7879 H   0  0  0  0  0  0  0  0  0  0  0  0
   60.5171   33.6320   49.0152 H   0  0  0  0  0  0  0  0  0  0  0  0
   58.7879   34.1182   49.0152 H   0  0  0  0  0  0  0  0  0  0  0  0
   58.3420   33.0820   51.3840 C   0  0  0  0  0  0  0  0  0  0  0  0
   57.3581   33.2172   50.9111 H   0  0  0  0  0  0  0  0  0  0  0  0
   58.5760   32.5200   52.6220 C   0  0  0  0  0  0  0  0  0  0  0  0
   57.5500   31.9520   53.5670 C   0  0  0  0  0  0  0  0  0  0  0  0
   57.6675   32.4298   54.5508 H   0  0  0  0  0  0  0  0  0  0  0  0
   56.5513   32.1506   53.1508 H   0  0  0  0  0  0  0  0  0  0  0  0
   57.7050   30.4820   53.7230 N   0  0  2  0  0  0  0  0  0  0  0  0
   58.5630   30.3100   54.2990 H   0  0  0  0  0  0  0  0  0  0  0  0
   57.8680   29.8180   52.3930 C   0  0  0  0  0  0  0  0  0  0  0  0
   57.0129   29.1463   52.2268 H   0  0  0  0  0  0  0  0  0  0  0  0
   57.9163   30.6075   51.6286 H   0  0  0  0  0  0  0  0  0  0  0  0
   59.1690   28.9950   52.3000 C   0  0  0  0  0  0  0  0  0  0  0  0
   59.6411   28.9618   53.2930 H   0  0  0  0  0  0  0  0  0  0  0  0
   58.9102   27.9843   51.9514 H   0  0  0  0  0  0  0  0  0  0  0  0
   60.1140   29.5780   51.3450 N   0  0  0  0  0  0  0  0  0  0  0  0
   59.9210   29.8430   50.0790 C   0  0  0  0  0  0  0  0  0  0  0  0
   58.8460   29.2860   49.3540 C   0  0  0  0  0  0  0  0  0  0  0  0
   58.1164   28.6385   49.8623 H   0  0  0  0  0  0  0  0  0  0  0  0
   58.7090   29.5570   47.9920 C   0  0  0  0  0  0  0  0  0  0  0  0
   57.8712   29.1200   47.4289 H   0  0  0  0  0  0  0  0  0  0  0  0
   59.6030   30.3560   47.3590 N   0  0  0  0  0  0  0  0  0  0  0  0
   60.6490   30.9220   48.0160 C   0  0  0  0  0  0  0  0  0  0  0  0
   61.5540   31.7270   47.3140 C   0  0  0  0  0  0  0  0  0  0  0  0
   61.4094   31.9059   46.2383 H   0  0  0  0  0  0  0  0  0  0  0  0
   62.6410   32.3040   47.9770 C   0  0  0  0  0  0  0  0  0  0  0  0
   63.7790   33.3020   47.0910 Cl  0  0  0  0  0  0  0  0  0  0  0  0
   62.8250   32.0850   49.3440 C   0  0  0  0  0  0  0  0  0  0  0  0
   63.6793   32.5448   49.8623 H   0  0  0  0  0  0  0  0  0  0  0  0
   61.9280   31.2840   50.0560 C   0  0  0  0  0  0  0  0  0  0  0  0
   62.0792   31.1168   51.1327 H   0  0  0  0  0  0  0  0  0  0  0  0
   60.8300   30.6890   49.4010 C   0  0  0  0  0  0  0  0  0  0  0  0
   56.5350   29.9160   54.4500 C   0  0  0  0  0  0  0  0  0  0  0  0
   56.9019   29.2650   55.2572 H   0  0  0  0  0  0  0  0  0  0  0  0
   55.9474   30.7573   54.8462 H   0  0  0  0  0  0  0  0  0  0  0  0
   55.6150   29.0930   53.5310 C   0  0  0  0  0  0  0  0  0  0  0  0
   56.2090   28.6729   52.7060 H   0  0  0  0  0  0  0  0  0  0  0  0
   55.1568   28.2835   54.1181 H   0  0  0  0  0  0  0  0  0  0  0  0
   54.5240   29.9620   52.9640 C   0  0  0  0  0  0  0  0  0  0  0  0
   54.5630   30.3680   51.6230 C   0  0  0  0  0  0  0  0  0  0  0  0
   55.4114   30.0740   50.9875 H   0  0  0  0  0  0  0  0  0  0  0  0
   53.5310   31.1440   51.0880 C   0  0  0  0  0  0  0  0  0  0  0  0
   53.5780   31.4659   50.0372 H   0  0  0  0  0  0  0  0  0  0  0  0
   52.4330   31.5160   51.8840 C   0  0  0  0  0  0  0  0  0  0  0  0
   51.3380   32.3380   51.3230 C   0  0  0  0  0  0  0  0  0  0  0  0
   51.0860   32.3130   50.0890 O   0  0  0  0  0  0  0  0  0  0  0  0
   50.5690   33.1490   52.1510 O   0  0  0  0  0  0  0  0  0  0  0  0
   52.3880   31.0930   53.2230 C   0  0  0  0  0  0  0  0  0  0  0  0
   51.5317   31.3705   53.8552 H   0  0  0  0  0  0  0  0  0  0  0  0
   53.4240   30.3220   53.7570 C   0  0  0  0  0  0  0  0  0  0  0  0
   53.3767   29.9951   54.8062 H   0  0  0  0  0  0  0  0  0  0  0  0
  1  2  1  0
  2  3  1  0
  3  4  1  0
  3  5  1  0
  3  6  1  0
  6  7  2  0
  7  8  1  0
  8  9  1  0
  9 10  1  0
  9 11  1  0
  9 12  1  0
  8 13  1  0
 13 14  1  0
 13 15  2  0
 15 16  1  0
 16 17  1  0
 16 18  1  0
 16 19  1  0
 19 20  1  1
 19 21  1  0
 21 22  1  0
 21 23  1  0
 21 24  1  0
 24 25  1  0
 24 26  1  0
 24 27  1  0
 27 28  2  0
 28 29  1  0
 29 30  1  0
 29 31  2  0
 31 32  1  0
 31 33  1  0
 33 34  1  0
 34 35  2  0
 35 36  1  0
 35 37  1  0
 37 38  1  0
 37 39  2  0
 39 40  1  0
 39 41  1  0
 41 42  1  0
 41 43  2  0
 19 44  1  0
 44 45  1  0
 44 46  1  0
 44 47  1  0
 47 48  1  0
 47 49  1  0
 47 50  1  0
 50 51  2  0
 51 52  1  0
 51 53  1  0
 53 54  1  0
 53 55  2  0
 55 56  1  0
 56 57  2  0
 56 58  1  0
 55 59  1  0
 59 60  1  0
 59 61  2  0
 61 62  1  0
 15  6  1  0
 43 28  1  0
 61 50  1  0
 43 34  1  0
M  CHG  3  19   1  33  -1  58  -1
M  END
>  <UniqueID>  (20) 
19

>  <SMILES>  (20) 
Cn1cc(C[N@H+](CC/N=c2\cc[n-]c3cc(Cl)ccc23)CCc2ccc(C(=O)[O-])cc2)c(CO)n1

>  <Energy>  (20) 
100.46569914757704

>  <Genealogy>  (20) 
Cn1cc(C[NH+](CCN=c2cc[n-]c3cc(Cl)ccc23)CCc2ccc(C(=O)[O-])cc2)c(CO)n1 (protonated)
Cn1cc(C[N@H+](CCN=c2cc[n-]c3cc(Cl)ccc23)CCc2ccc(C(=O)[O-])cc2)c(CO)n1 (chirality)
Cn1cc(C[N@H+](CC/N=c2\cc[n-]c3cc(Cl)ccc23)CCc2ccc(C(=O)[O-])cc2)c(CO)n1 (cis-trans isomerization)
Cn1cc(C[N@H+](CC/N=c2\cc[n-]c3cc(Cl)ccc23)CCc2ccc(C(=O)[O-])cc2)c(CO)n1 (3D coordinates assigned)
Cn1cc(C[N@H+](CC/N=c2\cc[n-]c3cc(Cl)ccc23)CCc2ccc(C(=O)[O-])cc2)c(CO)n1 (optimized conformer: 100.46569914757704 kcal/mol)

>  <smiles>  (20) 
Cn1cc(CN(CCN=c2cc[nH]c3cc(Cl)ccc23)CCc2ccc(C(=O)O)cc2)c(CO)n1

>  <score_type>  (20) 
oracle

>  <origin>  (20) 
adg

>  <m_score__min__energy>  (20) 
-10.94

>  <m_primary>  (20) 
energy

$$$$
20:0
     RDKit          3D

 39 41  0  0  0  0  0  0  0  0999 V2000
   57.2570   28.5440   43.0330 N   0  0  0  0  0  0  0  0  0  0  0  0
   57.1850   29.9600   44.0200 S   0  0  0  0  0  0  0  0  0  0  0  0
   57.4900   31.1700   43.1840 O   0  0  0  0  0  0  0  0  0  0  0  0
   55.8020   30.1040   44.5900 O   0  0  0  0  0  0  0  0  0  0  0  0
   58.3580   29.8290   45.3290 C   0  0  0  0  0  0  0  0  0  0  0  0
   58.1370   30.4910   46.5420 C   0  0  0  0  0  0  0  0  0  0  0  0
   59.0620   30.3770   47.5850 C   0  0  0  0  0  0  0  0  0  0  0  0
   60.2060   29.5840   47.4350 C   0  0  0  0  0  0  0  0  0  0  0  0
   61.1400   29.5120   48.5210 N   0  0  0  0  0  0  0  0  0  0  0  0
   61.6310   30.6090   49.3030 C   0  0  0  0  0  0  0  0  0  0  0  0
   61.4770   30.6060   50.5540 O   0  0  0  0  0  0  0  0  0  0  0  0
   62.2320   31.8000   48.6600 C   0  0  0  0  0  0  0  0  0  0  0  0
   61.4950   32.4490   47.7190 N   0  0  0  0  0  0  0  0  0  0  0  0
   61.9640   33.5420   47.0600 C   0  0  0  0  0  0  0  0  0  0  0  0
   61.1830   34.2040   46.1040 O   0  0  0  0  0  0  0  0  0  0  0  0
   59.8060   34.0210   45.9170 C   0  0  0  0  0  0  0  0  0  0  0  0
   58.9890   33.8850   47.0480 C   0  0  0  0  0  0  0  0  0  0  0  0
   57.6080   33.7110   46.9080 C   0  0  0  0  0  0  0  0  0  0  0  0
   57.0310   33.6840   45.6350 C   0  0  0  0  0  0  0  0  0  0  0  0
   57.8340   33.8400   44.5010 C   0  0  0  0  0  0  0  0  0  0  0  0
   59.2150   34.0140   44.6380 C   0  0  0  0  0  0  0  0  0  0  0  0
   63.1960   34.0260   47.3590 N   0  0  0  0  0  0  0  0  0  0  0  0
   63.9730   33.4290   48.2960 C   0  0  0  0  0  0  0  0  0  0  0  0
   63.5160   32.3000   48.9780 C   0  0  0  0  0  0  0  0  0  0  0  0
   64.5530   31.6200   50.2300 Cl  0  0  0  0  0  0  0  0  0  0  0  0
   60.4350   28.9320   46.2090 C   0  0  0  0  0  0  0  0  0  0  0  0
   59.5090   29.0470   45.1670 C   0  0  0  0  0  0  0  0  0  0  0  0
   56.2720   28.2850   42.7990 H   0  0  0  0  0  0  0  0  0  0  0  0
   57.7150   28.8200   42.1360 H   0  0  0  0  0  0  0  0  0  0  0  0
   57.2328   31.1030   46.6757 H   0  0  0  0  0  0  0  0  0  0  0  0
   58.8895   30.9140   48.5294 H   0  0  0  0  0  0  0  0  0  0  0  0
   59.4368   33.9153   48.0523 H   0  0  0  0  0  0  0  0  0  0  0  0
   56.9755   33.5953   47.8005 H   0  0  0  0  0  0  0  0  0  0  0  0
   55.9460   33.5401   45.5255 H   0  0  0  0  0  0  0  0  0  0  0  0
   57.3789   33.8259   43.4996 H   0  0  0  0  0  0  0  0  0  0  0  0
   59.8420   34.1459   43.7439 H   0  0  0  0  0  0  0  0  0  0  0  0
   64.9697   33.8368   48.5202 H   0  0  0  0  0  0  0  0  0  0  0  0
   61.3451   28.3300   46.0698 H   0  0  0  0  0  0  0  0  0  0  0  0
   59.6852   28.5215   44.2168 H   0  0  0  0  0  0  0  0  0  0  0  0
  1  2  1  0
  2  3  2  0
  2  4  2  0
  2  5  1  0
  5  6  2  0
  6  7  1  0
  7  8  2  0
  8  9  1  0
  9 10  1  0
 10 11  2  0
 10 12  1  0
 12 13  2  0
 13 14  1  0
 14 15  1  0
 15 16  1  0
 16 17  2  0
 17 18  1  0
 18 19  2  0
 19 20  1  0
 20 21  2  0
 14 22  2  0
 22 23  1  0
 23 24  2  0
 24 25  1  0
  8 26  1  0
 26 27  2  0
 27  5  1  0
 24 12  1  0
 21 16  1  0
  1 28  1  0
  1 29  1  0
  6 30  1  0
  7 31  1  0
 17 32  1  0
 18 33  1  0
 19 34  1  0
 20 35  1  0
 21 36  1  0
 23 37  1  0
 26 38  1  0
 27 39  1  0
M  CHG  1   9  -1
M  END
>  <UniqueID>  (21) 
20

>  <SMILES>  (21) 
NS(=O)(=O)c1ccc([N-]C(=O)c2nc(Oc3ccccc3)ncc2Cl)cc1

>  <Energy>  (21) 
53.33941536663417

>  <Genealogy>  (21) 
NS(=O)(=O)c1ccc([N-]C(=O)c2nc(Oc3ccccc3)ncc2Cl)cc1 (protonated)
NS(=O)(=O)c1ccc([N-]C(=O)c2nc(Oc3ccccc3)ncc2Cl)cc1 (3D coordinates assigned)
NS(=O)(=O)c1ccc([N-]C(=O)c2nc(Oc3ccccc3)ncc2Cl)cc1 (optimized conformer: 53.33941536663417 kcal/mol)

>  <smiles>  (21) 
NS(=O)(=O)c1ccc(NC(=O)c2nc(Oc3ccccc3)ncc2Cl)cc1

>  <score_type>  (21) 
oracle

>  <origin>  (21) 
adg

>  <m_score__min__energy>  (21) 
-10.48

>  <m_primary>  (21) 
energy

$$$$
21:0
     RDKit          3D

 49 52  0  0  0  0  0  0  0  0999 V2000
   55.7520   27.1430   45.6300 O   0  0  0  0  0  0  0  0  0  0  0  0
   56.9380   27.5350   45.4600 C   0  0  0  0  0  0  0  0  0  0  0  0
   57.9180   27.3970   46.4640 N   0  0  0  0  0  0  0  0  0  0  0  0
   59.1720   27.8380   45.8890 C   0  0  2  0  0  0  0  0  0  0  0  0
   59.8380   28.8700   46.7730 C   0  0  0  0  0  0  0  0  0  0  0  0
   59.5710   28.8890   48.1530 C   0  0  0  0  0  0  0  0  0  0  0  0
   60.2100   29.8160   48.9830 C   0  0  0  0  0  0  0  0  0  0  0  0
   61.1260   30.7240   48.4470 C   0  0  0  0  0  0  0  0  0  0  0  0
   61.4090   30.7050   47.0780 C   0  0  0  0  0  0  0  0  0  0  0  0
   60.7740   29.7800   46.2440 C   0  0  0  0  0  0  0  0  0  0  0  0
   58.8180   28.3980   44.4910 C   0  0  0  0  0  0  0  0  0  0  0  0
   57.3970   28.0870   44.2290 N   0  0  2  0  0  0  0  0  0  0  0  0
   56.4790   29.5150   43.8240 S   0  0  0  0  0  0  0  0  0  0  0  0
   55.1360   29.4760   44.5010 O   0  0  0  0  0  0  0  0  0  0  0  0
   56.2650   29.5790   42.3370 O   0  0  0  0  0  0  0  0  0  0  0  0
   57.3670   30.9500   44.3310 C   0  0  0  0  0  0  0  0  0  0  0  0
   57.7130   31.1400   45.6750 C   0  0  0  0  0  0  0  0  0  0  0  0
   58.4350   32.2720   46.0610 C   0  0  0  0  0  0  0  0  0  0  0  0
   58.8260   33.2260   45.1130 C   0  0  0  0  0  0  0  0  0  0  0  0
   59.5580   34.3400   45.5540 O   0  0  0  0  0  0  0  0  0  0  0  0
   59.8210   34.6650   46.9190 C   0  0  0  0  0  0  0  0  0  0  0  0
   61.1920   34.1930   47.3280 C   0  0  0  0  0  0  0  0  0  0  0  0
   62.1410   33.8280   46.3580 C   0  0  0  0  0  0  0  0  0  0  0  0
   63.4130   33.3970   46.7450 C   0  0  0  0  0  0  0  0  0  0  0  0
   63.7510   33.3360   48.1000 C   0  0  0  0  0  0  0  0  0  0  0  0
   62.8180   33.7130   49.0710 C   0  0  0  0  0  0  0  0  0  0  0  0
   63.1510   33.6630   50.3850 F   0  0  0  0  0  0  0  0  0  0  0  0
   61.5440   34.1440   48.6880 C   0  0  0  0  0  0  0  0  0  0  0  0
   58.4730   33.0350   43.7620 C   0  0  0  0  0  0  0  0  0  0  0  0
   57.7520   31.9000   43.3770 C   0  0  0  0  0  0  0  0  0  0  0  0
   59.8989   27.0169   45.8029 H   0  0  0  0  0  0  0  0  0  0  0  0
   58.8562   28.1715   48.5822 H   0  0  0  0  0  0  0  0  0  0  0  0
   59.9905   29.8299   50.0608 H   0  0  0  0  0  0  0  0  0  0  0  0
   61.6246   31.4538   49.1018 H   0  0  0  0  0  0  0  0  0  0  0  0
   62.1322   31.4187   46.6566 H   0  0  0  0  0  0  0  0  0  0  0  0
   61.0065   29.7627   45.1690 H   0  0  0  0  0  0  0  0  0  0  0  0
   58.9726   29.4869   44.4735 H   0  0  0  0  0  0  0  0  0  0  0  0
   59.4598   27.9454   43.7208 H   0  0  0  0  0  0  0  0  0  0  0  0
   57.3040   27.3750   43.4700 H   0  0  0  0  0  0  0  0  0  0  0  0
   57.4154   30.3959   46.4285 H   0  0  0  0  0  0  0  0  0  0  0  0
   58.6988   32.4154   47.1192 H   0  0  0  0  0  0  0  0  0  0  0  0
   59.7622   35.7559   47.0475 H   0  0  0  0  0  0  0  0  0  0  0  0
   59.0730   34.1635   47.5507 H   0  0  0  0  0  0  0  0  0  0  0  0
   61.8818   33.8817   45.2903 H   0  0  0  0  0  0  0  0  0  0  0  0
   64.1495   33.1052   45.9818 H   0  0  0  0  0  0  0  0  0  0  0  0
   64.7509   32.9914   48.4025 H   0  0  0  0  0  0  0  0  0  0  0  0
   60.8145   34.4459   49.4540 H   0  0  0  0  0  0  0  0  0  0  0  0
   58.7654   33.7808   43.0081 H   0  0  0  0  0  0  0  0  0  0  0  0
   57.4861   31.7529   42.3198 H   0  0  0  0  0  0  0  0  0  0  0  0
  1  2  2  0
  2  3  1  0
  3  4  1  0
  4  5  1  0
  5  6  2  0
  6  7  1  0
  7  8  2  0
  8  9  1  0
  9 10  2  0
  4 11  1  0
 11 12  1  0
 12 13  1  0
 13 14  2  0
 13 15  2  0
 13 16  1  0
 16 17  2  0
 17 18  1  0
 18 19  2  0
 19 20  1  0
 20 21  1  0
 21 22  1  0
 22 23  2  0
 23 24  1  0
 24 25  2  0
 25 26  1  0
 26 27  1  0
 26 28  2  0
 19 29  1  0
 29 30  2  0
 12  2  1  0
 30 16  1  0
 10  5  1  0
 28 22  1  0
  4 31  1  6
  6 32  1  0
  7 33  1  0
  8 34  1  0
  9 35  1  0
 10 36  1  0
 11 37  1  0
 11 38  1  0
 12 39  1  6
 17 40  1  0
 18 41  1  0
 21 42  1  0
 21 43  1  0
 23 44  1  0
 24 45  1  0
 25 46  1  0
 28 47  1  0
 29 48  1  0
 30 49  1  0
M  CHG  2   3  -1  12   1
M  END
>  <UniqueID>  (22) 
21

>  <SMILES>  (22) 
O=C1[N-][C@H](c2ccccc2)C[N@@H+]1S(=O)(=O)c1ccc(OCc2cccc(F)c2)cc1

>  <Energy>  (22) 
61.96782990955983

>  <Genealogy>  (22) 
O=C1[N-]C(c2ccccc2)C[NH+]1S(=O)(=O)c1ccc(OCc2cccc(F)c2)cc1 (protonated)
O=C1[N-][C@H](c2ccccc2)C[N@@H+]1S(=O)(=O)c1ccc(OCc2cccc(F)c2)cc1 (chirality)
O=C1[N-][C@H](c2ccccc2)C[N@@H+]1S(=O)(=O)c1ccc(OCc2cccc(F)c2)cc1 (3D coordinates assigned)
O=C1[N-][C@H](c2ccccc2)C[N@@H+]1S(=O)(=O)c1ccc(OCc2cccc(F)c2)cc1 (nonaromatic ring conformer: 61.96782990955983 kcal/mol)

>  <smiles>  (22) 
O=C1NC(c2ccccc2)CN1S(=O)(=O)c1ccc(OCc2cccc(F)c2)cc1

>  <score_type>  (22) 
oracle

>  <origin>  (22) 
adg

>  <m_score__min__energy>  (22) 
-10.050000000000001

>  <m_primary>  (22) 
energy

$$$$
22:0
     RDKit          3D

 47 49  0  0  0  0  0  0  0  0999 V2000
   55.6410   29.7140   43.5500 C   0  0  0  0  0  0  0  0  0  0  0  0
   56.1100   29.7020   44.8940 O   0  0  0  0  0  0  0  0  0  0  0  0
   57.4130   29.3590   45.2850 C   0  0  0  0  0  0  0  0  0  0  0  0
   57.6530   28.4090   46.2940 C   0  0  0  0  0  0  0  0  0  0  0  0
   58.9580   28.0550   46.6350 C   0  0  0  0  0  0  0  0  0  0  0  0
   60.0390   28.6350   45.9720 C   0  0  0  0  0  0  0  0  0  0  0  0
   59.8160   29.5910   44.9830 C   0  0  0  0  0  0  0  0  0  0  0  0
   58.5100   29.9720   44.6420 C   0  0  0  0  0  0  0  0  0  0  0  0
   58.3270   30.9910   43.6440 N   0  0  0  0  0  0  0  0  0  0  0  0
   57.7200   32.2910   43.9360 C   0  0  0  0  0  0  0  0  0  0  0  0
   58.2710   32.8500   45.2210 C   0  0  0  0  0  0  0  0  0  0  0  0
   59.2640   33.8420   45.1980 C   0  0  0  0  0  0  0  0  0  0  0  0
   59.7320   34.4000   46.3920 C   0  0  0  0  0  0  0  0  0  0  0  0
   59.2170   33.9690   47.6250 C   0  0  0  0  0  0  0  0  0  0  0  0
   59.6840   34.6020   48.9100 C   0  0  0  0  0  0  0  0  0  0  0  0
   60.5360   33.6680   49.6600 N   0  0  0  0  0  0  0  0  0  0  0  0
   61.5240   33.0910   48.7880 C   0  0  0  0  0  0  0  0  0  0  0  0
   62.6560   33.8320   48.4020 C   0  0  0  0  0  0  0  0  0  0  0  0
   63.6260   33.2590   47.5760 C   0  0  0  0  0  0  0  0  0  0  0  0
   63.4780   31.9450   47.1320 C   0  0  0  0  0  0  0  0  0  0  0  0
   62.3640   31.1990   47.5190 C   0  0  0  0  0  0  0  0  0  0  0  0
   61.3940   31.7640   48.3480 C   0  0  0  0  0  0  0  0  0  0  0  0
   58.2080   32.9920   47.6460 C   0  0  0  0  0  0  0  0  0  0  0  0
   57.7390   32.4370   46.4530 C   0  0  0  0  0  0  0  0  0  0  0  0
   54.5414   29.7421   43.5456 H   0  0  0  0  0  0  0  0  0  0  0  0
   56.0326   30.6024   43.0329 H   0  0  0  0  0  0  0  0  0  0  0  0
   55.9866   28.8067   43.0329 H   0  0  0  0  0  0  0  0  0  0  0  0
   56.8057   27.9422   46.8176 H   0  0  0  0  0  0  0  0  0  0  0  0
   59.1353   27.3156   47.4299 H   0  0  0  0  0  0  0  0  0  0  0  0
   61.0665   28.3382   46.2294 H   0  0  0  0  0  0  0  0  0  0  0  0
   60.6711   30.0505   44.4656 H   0  0  0  0  0  0  0  0  0  0  0  0
   58.8860   30.9160   42.7640 H   0  0  0  0  0  0  0  0  0  0  0  0
   57.9409   32.9872   43.1135 H   0  0  0  0  0  0  0  0  0  0  0  0
   56.6325   32.1621   44.0399 H   0  0  0  0  0  0  0  0  0  0  0  0
   59.6759   34.1820   44.2364 H   0  0  0  0  0  0  0  0  0  0  0  0
   60.5071   35.1801   46.3650 H   0  0  0  0  0  0  0  0  0  0  0  0
   60.2585   35.5110   48.6786 H   0  0  0  0  0  0  0  0  0  0  0  0
   58.8065   34.8559   49.5228 H   0  0  0  0  0  0  0  0  0  0  0  0
   61.0090   34.1730   50.4470 H   0  0  0  0  0  0  0  0  0  0  0  0
   59.9490   32.9070   50.0750 H   0  0  0  0  0  0  0  0  0  0  0  0
   62.7778   34.8676   48.7523 H   0  0  0  0  0  0  0  0  0  0  0  0
   64.5073   33.8446   47.2755 H   0  0  0  0  0  0  0  0  0  0  0  0
   64.2394   31.4968   46.4768 H   0  0  0  0  0  0  0  0  0  0  0  0
   62.2501   30.1622   47.1695 H   0  0  0  0  0  0  0  0  0  0  0  0
   60.5237   31.1671   48.6581 H   0  0  0  0  0  0  0  0  0  0  0  0
   57.7852   32.6624   48.6065 H   0  0  0  0  0  0  0  0  0  0  0  0
   56.9487   31.6723   46.4789 H   0  0  0  0  0  0  0  0  0  0  0  0
  1  2  1  0
  2  3  1  0
  3  4  2  0
  4  5  1  0
  5  6  2  0
  6  7  1  0
  7  8  2  0
  8  9  1  0
  9 10  1  0
 10 11  1  0
 11 12  2  0
 12 13  1  0
 13 14  2  0
 14 15  1  0
 15 16  1  0
 16 17  1  0
 17 18  2  0
 18 19  1  0
 19 20  2  0
 20 21  1  0
 21 22  2  0
 14 23  1  0
 23 24  2  0
  8  3  1  0
 24 11  1  0
 22 17  1  0
  1 25  1  0
  1 26  1  0
  1 27  1  0
  4 28  1  0
  5 29  1  0
  6 30  1  0
  7 31  1  0
  9 32  1  0
 10 33  1  0
 10 34  1  0
 12 35  1  0
 13 36  1  0
 15 37  1  0
 15 38  1  0
 16 39  1  0
 16 40  1  0
 18 41  1  0
 19 42  1  0
 20 43  1  0
 21 44  1  0
 22 45  1  0
 23 46  1  0
 24 47  1  0
M  CHG  1  16   1
M  END
>  <UniqueID>  (23) 
22

>  <SMILES>  (23) 
COc1ccccc1NCc1ccc(C[NH2+]c2ccccc2)cc1

>  <Energy>  (23) 
50.74834884773744

>  <Genealogy>  (23) 
COc1ccccc1NCc1ccc(C[NH2+]c2ccccc2)cc1 (protonated)
COc1ccccc1NCc1ccc(C[NH2+]c2ccccc2)cc1 (3D coordinates assigned)
COc1ccccc1NCc1ccc(C[NH2+]c2ccccc2)cc1 (optimized conformer: 50.74834884773744 kcal/mol)

>  <smiles>  (23) 
COc1ccccc1NCc1ccc(CNc2ccccc2)cc1

>  <score_type>  (23) 
oracle

>  <origin>  (23) 
adg

>  <m_score__min__energy>  (23) 
-7.5199999999999996

>  <m_primary>  (23) 
energy

$$$$
23:0
     RDKit          3D

 60 63  0  0  0  0  0  0  0  0999 V2000
   56.9371   35.2802   44.7775 H   0  0  0  0  0  0  0  0  0  0  0  0
   57.6810   34.5330   45.0910 C   0  0  0  0  0  0  0  0  0  0  0  0
   58.8990   34.9330   45.5340 N   0  0  0  0  0  0  0  0  0  0  0  0
   59.8340   34.0280   45.9340 C   0  0  0  0  0  0  0  0  0  0  0  0
   61.0150   34.4040   46.3310 N   0  0  0  0  0  0  0  0  0  0  0  0
   61.8780   33.7080   47.2470 C   0  0  0  0  0  0  0  0  0  0  0  0
   61.3770   32.8360   48.2310 C   0  0  0  0  0  0  0  0  0  0  0  0
   60.2913   32.6921   48.3340 H   0  0  0  0  0  0  0  0  0  0  0  0
   62.2530   32.1520   49.0780 C   0  0  0  0  0  0  0  0  0  0  0  0
   61.8507   31.4833   49.8532 H   0  0  0  0  0  0  0  0  0  0  0  0
   63.6370   32.3100   48.9490 C   0  0  0  0  0  0  0  0  0  0  0  0
   64.4720   31.6030   49.8270 O   0  0  0  0  0  0  0  0  0  0  0  0
   65.8120   31.9710   50.1410 C   0  0  0  0  0  0  0  0  0  0  0  0
   66.3268   32.2857   49.2212 H   0  0  0  0  0  0  0  0  0  0  0  0
   66.3262   31.1051   50.5836 H   0  0  0  0  0  0  0  0  0  0  0  0
   65.8250   33.1320   51.1530 C   0  0  0  0  0  0  0  0  0  0  0  0
   66.0301   34.0618   50.6021 H   0  0  0  0  0  0  0  0  0  0  0  0
   66.5977   32.8825   51.8951 H   0  0  0  0  0  0  0  0  0  0  0  0
   64.5640   33.3180   51.9160 N   0  0  0  0  0  0  0  0  0  0  0  0
   63.9240   32.5410   51.6220 H   0  0  0  0  0  0  0  0  0  0  0  0
   64.7480   33.1890   53.3720 C   0  0  0  0  0  0  0  0  0  0  0  0
   63.9546   33.7453   53.8926 H   0  0  0  0  0  0  0  0  0  0  0  0
   64.6978   32.1273   53.6553 H   0  0  0  0  0  0  0  0  0  0  0  0
   65.7290   33.5981   53.6553 H   0  0  0  0  0  0  0  0  0  0  0  0
   63.8780   34.5800   51.5830 C   0  0  0  0  0  0  0  0  0  0  0  0
   63.5956   35.0996   52.5105 H   0  0  0  0  0  0  0  0  0  0  0  0
   64.5524   35.2199   50.9950 H   0  0  0  0  0  0  0  0  0  0  0  0
   62.9742   34.3620   50.9950 H   0  0  0  0  0  0  0  0  0  0  0  0
   64.1400   33.1590   47.9460 C   0  0  0  0  0  0  0  0  0  0  0  0
   65.2264   33.2867   47.8302 H   0  0  0  0  0  0  0  0  0  0  0  0
   63.2640   33.8410   47.0960 C   0  0  0  0  0  0  0  0  0  0  0  0
   63.6667   34.4873   46.3022 H   0  0  0  0  0  0  0  0  0  0  0  0
   59.5490   32.7000   45.8750 N   0  0  0  0  0  0  0  0  0  0  0  0
   58.3390   32.2440   45.4460 C   0  0  0  0  0  0  0  0  0  0  0  0
   58.0870   30.7800   45.4020 C   0  0  0  0  0  0  0  0  0  0  0  0
   57.1220   30.2630   44.5200 C   0  0  0  0  0  0  0  0  0  0  0  0
   56.5569   30.9466   43.8693 H   0  0  0  0  0  0  0  0  0  0  0  0
   56.8740   28.8900   44.4620 C   0  0  0  0  0  0  0  0  0  0  0  0
   56.1132   28.5017   43.7689 H   0  0  0  0  0  0  0  0  0  0  0  0
   57.5860   28.0040   45.2790 C   0  0  0  0  0  0  0  0  0  0  0  0
   57.3070   26.5980   45.2110 N   0  0  0  0  0  0  0  0  0  0  0  0
   56.3810   25.9300   46.1050 C   0  0  0  0  0  0  0  0  0  0  0  0
   56.7125   26.0319   47.1489 H   0  0  0  0  0  0  0  0  0  0  0  0
   55.3716   26.3632   46.0469 H   0  0  0  0  0  0  0  0  0  0  0  0
   56.3950   24.4680   45.6820 C   0  0  0  0  0  0  0  0  0  0  0  0
   57.0096   23.8750   46.3753 H   0  0  0  0  0  0  0  0  0  0  0  0
   55.3838   24.0352   45.6921 H   0  0  0  0  0  0  0  0  0  0  0  0
   57.0020   24.4430   44.2790 C   0  0  0  0  0  0  0  0  0  0  0  0
   57.6816   23.5846   44.1722 H   0  0  0  0  0  0  0  0  0  0  0  0
   56.2252   24.3432   43.5066 H   0  0  0  0  0  0  0  0  0  0  0  0
   57.7720   25.7490   44.1290 C   0  0  0  0  0  0  0  0  0  0  0  0
   58.8537   25.5702   44.2179 H   0  0  0  0  0  0  0  0  0  0  0  0
   57.6042   26.2118   43.1453 H   0  0  0  0  0  0  0  0  0  0  0  0
   58.5700   28.5060   46.1520 C   0  0  0  0  0  0  0  0  0  0  0  0
   59.3650   27.6180   46.9640 C   0  0  0  0  0  0  0  0  0  0  0  0
   60.0010   26.9050   47.6160 N   0  0  0  0  0  0  0  0  0  0  0  0
   58.8180   29.8850   46.2070 C   0  0  0  0  0  0  0  0  0  0  0  0
   59.5919   30.2719   46.8863 H   0  0  0  0  0  0  0  0  0  0  0  0
   57.3720   33.1750   45.0330 C   0  0  0  0  0  0  0  0  0  0  0  0
   56.3893   32.8389   44.6706 H   0  0  0  0  0  0  0  0  0  0  0  0
  1  2  1  0
  2  3  1  0
  3  4  1  0
  4  5  2  0
  5  6  1  0
  6  7  2  0
  7  8  1  0
  7  9  1  0
  9 10  1  0
  9 11  2  0
 11 12  1  0
 12 13  1  0
 13 14  1  0
 13 15  1  0
 13 16  1  0
 16 17  1  0
 16 18  1  0
 16 19  1  0
 19 20  1  0
 19 21  1  0
 21 22  1  0
 21 23  1  0
 21 24  1  0
 19 25  1  0
 25 26  1  0
 25 27  1  0
 25 28  1  0
 11 29  1  0
 29 30  1  0
 29 31  2  0
 31 32  1  0
  4 33  1  0
 33 34  2  0
 34 35  1  0
 35 36  2  0
 36 37  1  0
 36 38  1  0
 38 39  1  0
 38 40  2  0
 40 41  1  0
 41 42  1  0
 42 43  1  0
 42 44  1  0
 42 45  1  0
 45 46  1  0
 45 47  1  0
 45 48  1  0
 48 49  1  0
 48 50  1  0
 48 51  1  0
 51 52  1  0
 51 53  1  0
 40 54  1  0
 54 55  1  0
 55 56  3  0
 54 57  2  0
 57 58  1  0
 34 59  1  0
 59 60  1  0
 59  2  2  0
 31  6  1  0
 57 35  1  0
 51 41  1  0
M  CHG  2   3  -1  19   1
M  END
>  <UniqueID>  (24) 
23

>  <SMILES>  (24) 
C[NH+](C)CCOc1ccc(/N=c2/nc(-c3ccc(N4CCCC4)c(C#N)c3)cc[n-]2)cc1

>  <Energy>  (24) 
81.03959830113276

>  <Genealogy>  (24) 
C[NH+](C)CCOc1ccc(N=c2nc(-c3ccc(N4CCCC4)c(C#N)c3)cc[n-]2)cc1 (protonated)
C[NH+](C)CCOc1ccc(/N=c2/nc(-c3ccc(N4CCCC4)c(C#N)c3)cc[n-]2)cc1 (cis-trans isomerization)
C[NH+](C)CCOc1ccc(/N=c2/nc(-c3ccc(N4CCCC4)c(C#N)c3)cc[n-]2)cc1 (3D coordinates assigned)
C[NH+](C)CCOc1ccc(/N=c2/nc(-c3ccc(N4CCCC4)c(C#N)c3)cc[n-]2)cc1 (nonaromatic ring conformer: 81.03959830113276 kcal/mol)

>  <smiles>  (24) 
CN(C)CCOc1ccc(N=c2nc(-c3ccc(N4CCCC4)c(C#N)c3)cc[nH]2)cc1

>  <score_type>  (24) 
oracle

>  <origin>  (24) 
adg

>  <m_score__min__energy>  (24) 
-8.7599999999999998

>  <m_primary>  (24) 
energy

$$$$
24:0
     RDKit          3D

 69 74  0  0  0  0  0  0  0  0999 V2000
   67.1400   33.2150   50.5280 C   0  0  0  0  0  0  0  0  0  0  0  0
   66.1120   32.6430   49.7260 O   0  0  0  0  0  0  0  0  0  0  0  0
   64.8070   33.1480   49.6360 C   0  0  0  0  0  0  0  0  0  0  0  0
   64.1400   33.7330   50.7490 C   0  0  0  0  0  0  0  0  0  0  0  0
   62.8310   34.2320   50.6190 C   0  0  0  0  0  0  0  0  0  0  0  0
   62.2150   34.1310   49.3740 C   0  0  0  0  0  0  0  0  0  0  0  0
   60.9830   34.5450   49.0380 N   0  0  0  0  0  0  0  0  0  0  0  0
   60.8370   34.2330   47.7270 C   0  0  0  0  0  0  0  0  0  0  0  0
   59.6310   34.5350   46.9360 C   0  0  0  0  0  0  0  0  0  0  0  0
   59.0250   35.6240   47.1220 O   0  0  0  0  0  0  0  0  0  0  0  0
   59.1030   33.5890   45.9960 N   0  0  0  0  0  0  0  0  0  0  0  0
   58.7080   33.9280   44.6310 C   0  0  0  0  0  0  0  0  0  0  0  0
   58.1640   32.6200   44.0110 C   0  0  0  0  0  0  0  0  0  0  0  0
   58.4030   31.5980   45.0760 C   0  0  0  0  0  0  0  0  0  0  0  0
   58.9430   32.1920   46.1870 C   0  0  0  0  0  0  0  0  0  0  0  0
   59.3350   31.4400   47.3000 C   0  0  0  0  0  0  0  0  0  0  0  0
   59.1180   30.0550   47.2870 C   0  0  0  0  0  0  0  0  0  0  0  0
   58.5340   29.4340   46.1620 C   0  0  0  0  0  0  0  0  0  0  0  0
   58.3160   28.0480   46.1440 C   0  0  0  0  0  0  0  0  0  0  0  0
   57.7470   27.4350   45.0200 C   0  0  0  0  0  0  0  0  0  0  0  0
   57.4960   25.6920   45.0210 S   0  0  0  0  0  0  0  0  0  0  0  0
   58.7160   24.9980   45.5580 O   0  0  0  0  0  0  0  0  0  0  0  0
   57.2670   25.2460   43.6040 O   0  0  0  0  0  0  0  0  0  0  0  0
   56.0990   25.3140   46.0050 N   0  0  0  0  0  0  0  0  0  0  0  0
   56.4740   24.7510   47.3230 C   0  0  0  0  0  0  0  0  0  0  0  0
   55.9980   23.3030   47.5290 C   0  0  0  0  0  0  0  0  0  0  0  0
   56.2590   22.4980   46.3210 N   0  0  0  0  0  0  0  0  0  0  0  0
   55.9350   21.0740   46.5840 C   0  0  0  0  0  0  0  0  0  0  0  0
   57.1300   20.1450   46.3100 C   0  0  0  0  0  0  0  0  0  0  0  0
   58.3160   20.8890   46.2570 O   0  0  0  0  0  0  0  0  0  0  0  0
   55.5130   23.0220   45.1430 C   0  0  0  0  0  0  0  0  0  0  0  0
   55.1100   24.5090   45.2690 C   0  0  0  0  0  0  0  0  0  0  0  0
   57.3950   28.2100   43.9060 C   0  0  0  0  0  0  0  0  0  0  0  0
   57.6080   29.5910   43.9080 C   0  0  0  0  0  0  0  0  0  0  0  0
   58.1740   30.2140   45.0310 C   0  0  0  0  0  0  0  0  0  0  0  0
   61.9890   33.6290   47.2280 C   0  0  0  0  0  0  0  0  0  0  0  0
   62.8530   33.5690   48.3000 C   0  0  0  0  0  0  0  0  0  0  0  0
   64.1480   33.0680   48.3930 C   0  0  0  0  0  0  0  0  0  0  0  0
   66.8943   33.0783   51.5914 H   0  0  0  0  0  0  0  0  0  0  0  0
   68.0967   32.7195   50.3061 H   0  0  0  0  0  0  0  0  0  0  0  0
   67.2233   34.2892   50.3061 H   0  0  0  0  0  0  0  0  0  0  0  0
   64.6529   33.7956   51.7201 H   0  0  0  0  0  0  0  0  0  0  0  0
   62.3103   34.6877   51.4741 H   0  0  0  0  0  0  0  0  0  0  0  0
   60.2940   35.0270   49.6580 H   0  0  0  0  0  0  0  0  0  0  0  0
   57.9260   34.7016   44.6397 H   0  0  0  0  0  0  0  0  0  0  0  0
   59.5540   34.3281   44.0529 H   0  0  0  0  0  0  0  0  0  0  0  0
   57.0909   32.7089   43.7862 H   0  0  0  0  0  0  0  0  0  0  0  0
   58.6505   32.3649   43.0580 H   0  0  0  0  0  0  0  0  0  0  0  0
   59.8042   31.9260   48.1681 H   0  0  0  0  0  0  0  0  0  0  0  0
   59.4046   29.4486   48.1588 H   0  0  0  0  0  0  0  0  0  0  0  0
   58.5934   27.4393   47.0173 H   0  0  0  0  0  0  0  0  0  0  0  0
   57.5702   24.7733   47.4121 H   0  0  0  0  0  0  0  0  0  0  0  0
   55.9808   25.3662   48.0900 H   0  0  0  0  0  0  0  0  0  0  0  0
   56.5363   22.8625   48.3811 H   0  0  0  0  0  0  0  0  0  0  0  0
   54.9159   23.3083   47.7267 H   0  0  0  0  0  0  0  0  0  0  0  0
   57.2870   22.5540   46.1250 H   0  0  0  0  0  0  0  0  0  0  0  0
   55.6379   20.9673   47.6377 H   0  0  0  0  0  0  0  0  0  0  0  0
   55.1191   20.7830   45.9060 H   0  0  0  0  0  0  0  0  0  0  0  0
   57.2037   19.3998   47.1157 H   0  0  0  0  0  0  0  0  0  0  0  0
   56.9789   19.6392   45.3450 H   0  0  0  0  0  0  0  0  0  0  0  0
   58.9510   20.3740   45.6920 H   0  0  0  0  0  0  0  0  0  0  0  0
   56.1486   22.9095   44.2523 H   0  0  0  0  0  0  0  0  0  0  0  0
   54.5805   22.4429   45.0716 H   0  0  0  0  0  0  0  0  0  0  0  0
   54.9991   24.9287   44.2583 H   0  0  0  0  0  0  0  0  0  0  0  0
   54.1681   24.5471   45.8359 H   0  0  0  0  0  0  0  0  0  0  0  0
   56.9480   27.7276   43.0242 H   0  0  0  0  0  0  0  0  0  0  0  0
   57.3317   30.1906   43.0282 H   0  0  0  0  0  0  0  0  0  0  0  0
   62.1696   33.2767   46.2017 H   0  0  0  0  0  0  0  0  0  0  0  0
   64.6443   32.6212   47.5189 H   0  0  0  0  0  0  0  0  0  0  0  0
  1  2  1  0
  2  3  1  0
  3  4  2  0
  4  5  1  0
  5  6  2  0
  6  7  1  0
  7  8  1  0
  8  9  1  0
  9 10  2  0
  9 11  1  0
 11 12  1  0
 12 13  1  0
 13 14  1  0
 14 15  2  0
 15 16  1  0
 16 17  2  0
 17 18  1  0
 18 19  2  0
 19 20  1  0
 20 21  1  0
 21 22  2  0
 21 23  2  0
 21 24  1  0
 24 25  1  0
 25 26  1  0
 26 27  1  0
 27 28  1  0
 28 29  1  0
 29 30  1  0
 27 31  1  0
 31 32  1  0
 20 33  2  0
 33 34  1  0
 34 35  2  0
  8 36  2  0
 36 37  1  0
 37 38  2  0
 38  3  1  0
 37  6  1  0
 15 11  1  0
 35 18  1  0
 35 14  1  0
 32 24  1  0
  1 39  1  0
  1 40  1  0
  1 41  1  0
  4 42  1  0
  5 43  1  0
  7 44  1  0
 12 45  1  0
 12 46  1  0
 13 47  1  0
 13 48  1  0
 16 49  1  0
 17 50  1  0
 19 51  1  0
 25 52  1  0
 25 53  1  0
 26 54  1  0
 26 55  1  0
 27 56  1  0
 28 57  1  0
 28 58  1  0
 29 59  1  0
 29 60  1  0
 30 61  1  0
 31 62  1  0
 31 63  1  0
 32 64  1  0
 32 65  1  0
 33 66  1  0
 34 67  1  0
 36 68  1  0
 38 69  1  0
M  CHG  1  27   1
M  END
>  <UniqueID>  (25) 
24

>  <SMILES>  (25) 
COc1ccc2[nH]c(C(=O)N3CCc4c3ccc3cc(S(=O)(=O)N5CC[NH+](CCO)CC5)ccc43)cc2c1

>  <Energy>  (25) 
139.5273601055487

>  <Genealogy>  (25) 
COc1ccc2[nH]c(C(=O)N3CCc4c3ccc3cc(S(=O)(=O)N5CC[NH+](CCO)CC5)ccc43)cc2c1 (protonated)
COc1ccc2[nH]c(C(=O)N3CCc4c3ccc3cc(S(=O)(=O)N5CC[NH+](CCO)CC5)ccc43)cc2c1 (3D coordinates assigned)
COc1ccc2[nH]c(C(=O)N3CCc4c3ccc3cc(S(=O)(=O)N5CC[NH+](CCO)CC5)ccc43)cc2c1 (nonaromatic ring conformer: 139.5273601055487 kcal/mol)

>  <smiles>  (25) 
COc1ccc2[nH]c(C(=O)N3CCc4c3ccc3cc(S(=O)(=O)N5CCN(CCO)CC5)ccc43)cc2c1

>  <score_type>  (25) 
oracle

>  <origin>  (25) 
adg

>  <m_score__min__energy>  (25) 
-8.3100000000000005

>  <m_primary>  (25) 
energy

$$$$
25:0
     RDKit          3D

 45 47  0  0  0  0  0  0  0  0999 V2000
   58.4930   34.1470   47.7520 O   0  0  0  0  0  0  0  0  0  0  0  0
   58.5970   32.9270   47.4460 C   0  0  0  0  0  0  0  0  0  0  0  0
   58.7470   32.5440   45.9960 C   0  0  0  0  0  0  0  0  0  0  0  0
   57.7910   31.5080   45.5460 N   0  0  0  0  0  0  0  0  0  0  0  0
   57.3860   31.6440   44.1330 C   0  0  0  0  0  0  0  0  0  0  0  0
   56.3470   30.5600   43.7760 C   0  0  0  0  0  0  0  0  0  0  0  0
   56.0020   29.7700   44.9030 O   0  0  0  0  0  0  0  0  0  0  0  0
   57.1560   29.1210   45.4070 C   0  0  0  0  0  0  0  0  0  0  0  0
   58.2450   30.1330   45.8290 C   0  0  0  0  0  0  0  0  0  0  0  0
   58.6010   31.9180   48.4700 N   0  0  0  0  0  0  0  0  0  0  0  0
   58.3640   32.2070   49.8560 C   0  0  0  0  0  0  0  0  0  0  0  0
   59.1240   33.1950   50.4950 C   0  0  0  0  0  0  0  0  0  0  0  0
   58.9230   33.4720   51.8480 C   0  0  0  0  0  0  0  0  0  0  0  0
   57.9870   32.7410   52.5830 C   0  0  0  0  0  0  0  0  0  0  0  0
   57.2410   31.7210   51.9680 C   0  0  0  0  0  0  0  0  0  0  0  0
   56.2830   30.9180   52.7670 C   0  0  0  0  0  0  0  0  0  0  0  0
   56.4680   30.7900   54.0080 O   0  0  0  0  0  0  0  0  0  0  0  0
   55.1240   30.3070   52.1840 N   0  0  0  0  0  0  0  0  0  0  0  0
   53.7530   30.6000   52.5080 C   0  0  0  0  0  0  0  0  0  0  0  0
   53.1180   30.0310   53.6300 C   0  0  0  0  0  0  0  0  0  0  0  0
   51.7840   30.3380   53.9140 C   0  0  0  0  0  0  0  0  0  0  0  0
   51.0820   31.2260   53.0970 C   0  0  0  0  0  0  0  0  0  0  0  0
   51.7150   31.8190   51.9990 C   0  0  0  0  0  0  0  0  0  0  0  0
   51.0220   32.7100   51.1920 O   0  0  0  0  0  0  0  0  0  0  0  0
   53.0490   31.5120   51.7100 C   0  0  0  0  0  0  0  0  0  0  0  0
   57.4240   31.4710   50.5960 C   0  0  0  0  0  0  0  0  0  0  0  0
   58.5954   33.4445   45.3827 H   0  0  0  0  0  0  0  0  0  0  0  0
   59.7550   32.1188   45.8814 H   0  0  0  0  0  0  0  0  0  0  0  0
   56.9439   32.6387   43.9747 H   0  0  0  0  0  0  0  0  0  0  0  0
   58.2704   31.5227   43.4902 H   0  0  0  0  0  0  0  0  0  0  0  0
   55.4394   31.0491   43.3926 H   0  0  0  0  0  0  0  0  0  0  0  0
   56.7899   29.8983   43.0170 H   0  0  0  0  0  0  0  0  0  0  0  0
   56.8719   28.5180   46.2821 H   0  0  0  0  0  0  0  0  0  0  0  0
   57.5688   28.4878   44.6079 H   0  0  0  0  0  0  0  0  0  0  0  0
   58.4419   30.0286   46.9062 H   0  0  0  0  0  0  0  0  0  0  0  0
   59.1653   29.9319   45.2610 H   0  0  0  0  0  0  0  0  0  0  0  0
   58.8310   30.9350   48.2090 H   0  0  0  0  0  0  0  0  0  0  0  0
   59.8824   33.7549   49.9281 H   0  0  0  0  0  0  0  0  0  0  0  0
   59.5034   34.2683   52.3369 H   0  0  0  0  0  0  0  0  0  0  0  0
   57.8329   32.9648   53.6489 H   0  0  0  0  0  0  0  0  0  0  0  0
   53.6737   29.3432   54.2843 H   0  0  0  0  0  0  0  0  0  0  0  0
   51.2872   29.8796   54.7818 H   0  0  0  0  0  0  0  0  0  0  0  0
   50.0298   31.4598   53.3167 H   0  0  0  0  0  0  0  0  0  0  0  0
   53.5474   31.9884   50.8529 H   0  0  0  0  0  0  0  0  0  0  0  0
   56.8263   30.6930   50.0986 H   0  0  0  0  0  0  0  0  0  0  0  0
  1  2  2  0
  2  3  1  0
  3  4  1  0
  4  5  1  0
  5  6  1  0
  6  7  1  0
  7  8  1  0
  8  9  1  0
  2 10  1  0
 10 11  1  0
 11 12  2  0
 12 13  1  0
 13 14  2  0
 14 15  1  0
 15 16  1  0
 16 17  2  0
 16 18  1  0
 18 19  1  0
 19 20  2  0
 20 21  1  0
 21 22  2  0
 22 23  1  0
 23 24  1  0
 23 25  2  0
 15 26  2  0
  9  4  1  0
 26 11  1  0
 25 19  1  0
  3 27  1  0
  3 28  1  0
  5 29  1  0
  5 30  1  0
  6 31  1  0
  6 32  1  0
  8 33  1  0
  8 34  1  0
  9 35  1  0
  9 36  1  0
 10 37  1  0
 12 38  1  0
 13 39  1  0
 14 40  1  0
 20 41  1  0
 21 42  1  0
 22 43  1  0
 25 44  1  0
 26 45  1  0
M  CHG  2  18  -1  24  -1
M  END
>  <UniqueID>  (26) 
25

>  <SMILES>  (26) 
O=C(CN1CCOCC1)Nc1cccc(C(=O)[N-]c2cccc([O-])c2)c1

>  <Energy>  (26) 
68.20620078333991

>  <Genealogy>  (26) 
O=C(CN1CCOCC1)Nc1cccc(C(=O)[N-]c2cccc([O-])c2)c1 (protonated)
O=C(CN1CCOCC1)Nc1cccc(C(=O)[N-]c2cccc([O-])c2)c1 (3D coordinates assigned)
O=C(CN1CCOCC1)Nc1cccc(C(=O)[N-]c2cccc([O-])c2)c1 (nonaromatic ring conformer: 68.20620078333991 kcal/mol)

>  <smiles>  (26) 
O=C(CN1CCOCC1)Nc1cccc(C(=O)Nc2cccc(O)c2)c1

>  <score_type>  (26) 
oracle

>  <origin>  (26) 
adg

>  <m_score__min__energy>  (26) 
-13.08

>  <m_primary>  (26) 
energy

$$$$
26:0
     RDKit          3D

 45 47  0  0  0  0  0  0  0  0999 V2000
   61.2364   28.4969   45.0392 H   0  0  0  0  0  0  0  0  0  0  0  0
   60.4050   28.4720   45.7590 C   0  0  0  0  0  0  0  0  0  0  0  0
   59.6730   29.5970   45.9060 C   0  0  0  0  0  0  0  0  0  0  0  0
   58.4470   29.8420   45.1090 C   0  0  0  0  0  0  0  0  0  0  0  0
   57.6830   31.0060   45.2930 C   0  0  0  0  0  0  0  0  0  0  0  0
   57.9794   31.7422   46.0547 H   0  0  0  0  0  0  0  0  0  0  0  0
   56.5780   31.2250   44.5320 N   0  0  0  0  0  0  0  0  0  0  0  0
   56.1820   30.3420   43.5770 C   0  0  0  0  0  0  0  0  0  0  0  0
   55.2776   30.5433   42.9840 H   0  0  0  0  0  0  0  0  0  0  0  0
   56.9210   29.1810   43.3480 C   0  0  0  0  0  0  0  0  0  0  0  0
   56.6075   28.4672   42.5720 H   0  0  0  0  0  0  0  0  0  0  0  0
   58.0620   28.9340   44.1130 C   0  0  0  0  0  0  0  0  0  0  0  0
   58.6587   28.0273   43.9344 H   0  0  0  0  0  0  0  0  0  0  0  0
   60.1000   30.6410   46.8780 C   0  0  0  0  0  0  0  0  0  0  0  0
   59.2150   31.0700   47.8820 C   0  0  0  0  0  0  0  0  0  0  0  0
   58.2117   30.6241   47.9494 H   0  0  0  0  0  0  0  0  0  0  0  0
   59.5950   32.0560   48.7950 C   0  0  0  0  0  0  0  0  0  0  0  0
   58.8916   32.3785   49.5768 H   0  0  0  0  0  0  0  0  0  0  0  0
   60.8670   32.6360   48.7200 C   0  0  0  0  0  0  0  0  0  0  0  0
   61.2590   33.6270   49.6330 C   0  0  0  0  0  0  0  0  0  0  0  0
   60.5634   33.9538   50.4200 H   0  0  0  0  0  0  0  0  0  0  0  0
   62.5310   34.2000   49.5450 C   0  0  0  0  0  0  0  0  0  0  0  0
   62.8347   34.9747   50.2645 H   0  0  0  0  0  0  0  0  0  0  0  0
   63.4180   33.7910   48.5450 C   0  0  0  0  0  0  0  0  0  0  0  0
   64.4170   34.2465   48.4786 H   0  0  0  0  0  0  0  0  0  0  0  0
   63.0400   32.8060   47.6300 C   0  0  0  0  0  0  0  0  0  0  0  0
   63.7420   32.4890   46.8447 H   0  0  0  0  0  0  0  0  0  0  0  0
   61.7670   32.2190   47.7090 C   0  0  0  0  0  0  0  0  0  0  0  0
   61.3770   31.2290   46.7950 C   0  0  0  0  0  0  0  0  0  0  0  0
   62.0745   30.9092   46.0068 H   0  0  0  0  0  0  0  0  0  0  0  0
   60.1690   27.1840   46.5070 C   0  0  0  0  0  0  0  0  0  0  0  0
   60.7573   27.1971   47.4364 H   0  0  0  0  0  0  0  0  0  0  0  0
   60.4765   26.3480   45.8616 H   0  0  0  0  0  0  0  0  0  0  0  0
   58.6800   27.0020   46.8590 C   0  0  0  0  0  0  0  0  0  0  0  0
   58.1352   27.9005   46.5336 H   0  0  0  0  0  0  0  0  0  0  0  0
   58.6265   26.8454   47.9465 H   0  0  0  0  0  0  0  0  0  0  0  0
   58.0270   25.7740   46.1990 C   0  0  0  0  0  0  0  0  0  0  0  0
   58.6583   24.8961   46.4007 H   0  0  0  0  0  0  0  0  0  0  0  0
   57.9425   25.9967   45.1251 H   0  0  0  0  0  0  0  0  0  0  0  0
   56.6030   25.4740   46.7060 C   0  0  0  0  0  0  0  0  0  0  0  0
   56.5791   25.6324   47.7943 H   0  0  0  0  0  0  0  0  0  0  0  0
   56.3723   24.4335   46.4338 H   0  0  0  0  0  0  0  0  0  0  0  0
   55.5540   26.3420   46.0750 C   0  0  0  0  0  0  0  0  0  0  0  0
   54.3880   25.9040   45.8910 O   0  0  0  0  0  0  0  0  0  0  0  0
   55.8900   27.6070   45.6090 O   0  0  0  0  0  0  0  0  0  0  0  0
  1  2  1  0
  2  3  2  0
  3  4  1  0
  4  5  2  0
  5  6  1  0
  5  7  1  0
  7  8  2  0
  8  9  1  0
  8 10  1  0
 10 11  1  0
 10 12  2  0
 12 13  1  0
  3 14  1  0
 14 15  2  0
 15 16  1  0
 15 17  1  0
 17 18  1  0
 17 19  2  0
 19 20  1  0
 20 21  1  0
 20 22  2  0
 22 23  1  0
 22 24  1  0
 24 25  1  0
 24 26  2  0
 26 27  1  0
 26 28  1  0
 28 29  2  0
 29 30  1  0
  2 31  1  0
 31 32  1  0
 31 33  1  0
 31 34  1  0
 34 35  1  0
 34 36  1  0
 34 37  1  0
 37 38  1  0
 37 39  1  0
 37 40  1  0
 40 41  1  0
 40 42  1  0
 40 43  1  0
 43 44  2  0
 43 45  1  0
 12  4  1  0
 29 14  1  0
 28 19  1  0
M  CHG  1  45  -1
M  END
>  <UniqueID>  (27) 
26

>  <SMILES>  (27) 
O=C([O-])CCCC/C=C(\c1cccnc1)c1ccc2ccccc2c1

>  <Energy>  (27) 
60.746948002185775

>  <Genealogy>  (27) 
O=C([O-])CCCCC=C(c1cccnc1)c1ccc2ccccc2c1 (protonated)
O=C([O-])CCCC/C=C(\c1cccnc1)c1ccc2ccccc2c1 (cis-trans isomerization)
O=C([O-])CCCC/C=C(\c1cccnc1)c1ccc2ccccc2c1 (3D coordinates assigned)
O=C([O-])CCCC/C=C(\c1cccnc1)c1ccc2ccccc2c1 (optimized conformer: 60.746948002185775 kcal/mol)

>  <smiles>  (27) 
O=C(O)CCCCC=C(c1cccnc1)c1ccc2ccccc2c1

>  <score_type>  (27) 
oracle

>  <origin>  (27) 
adg

>  <m_score__min__energy>  (27) 
-11.369999999999999

>  <m_primary>  (27) 
energy

$$$$
27:0
     RDKit          3D

 52 55  0  0  1  0  0  0  0  0999 V2000
   59.6620   35.7350   46.2720 C   0  0  0  0  0  0  0  0  0  0  0  0
   58.8360   34.5370   45.8860 C   0  0  0  0  0  0  0  0  0  0  0  0
   58.8460   34.2040   44.5530 C   0  0  0  0  0  0  0  0  0  0  0  0
   60.6850   29.8010   46.3380 C   0  0  0  0  0  0  0  0  0  0  0  0
   59.9900   28.8650   47.0800 C   0  0  0  0  0  0  0  0  0  0  0  0
   56.6570   31.2920   44.5320 N   0  0  0  0  0  0  0  0  0  0  0  0
   57.1530   30.1160   44.4690 C   0  0  0  0  0  0  0  0  0  0  0  0
   56.8690   29.3480   43.3560 C   0  0  0  0  0  0  0  0  0  0  0  0
   57.4120   28.0760   43.2980 C   0  0  0  0  0  0  0  0  0  0  0  0
   58.1790   27.6570   44.3190 N   0  0  0  0  0  0  0  0  0  0  0  0
   58.4530   28.3990   45.3980 C   0  0  0  0  0  0  0  0  0  0  0  0
   59.2110   27.9230   46.3570 N   0  0  0  0  0  0  0  0  0  0  0  0
   57.3990   32.4090   45.0450 C   0  0  0  0  0  0  0  0  0  0  0  0
   58.1250   33.1310   44.1090 C   0  0  0  0  0  0  0  0  0  0  0  0
   61.4600   30.7420   46.9980 C   0  0  0  0  0  0  0  0  0  0  0  0
   61.5740   30.7890   48.3700 C   0  0  0  0  0  0  0  0  0  0  0  0
   62.3750   31.7590   49.0330 N   0  0  0  0  0  0  0  0  0  0  0  0
   63.5900   32.3070   48.5230 C   0  0  0  0  0  0  0  0  0  0  0  0
   63.4110   33.7970   48.2490 C   0  0  0  0  0  0  0  0  0  0  0  0
   62.6320   34.4370   49.3780 C   0  0  0  0  0  0  0  0  0  0  0  0
   62.6310   33.5700   50.6190 C   0  0  0  0  0  0  0  0  0  0  0  0
   61.9270   32.2460   50.3470 C   0  0  0  0  0  0  0  0  0  0  0  0
   60.8720   29.8430   49.0860 C   0  0  0  0  0  0  0  0  0  0  0  0
   57.3910   32.7450   46.3840 C   0  0  0  0  0  0  0  0  0  0  0  0
   57.9280   29.6390   45.4610 N   0  0  0  0  0  0  0  0  0  0  0  0
   60.0790   28.8810   48.4580 C   0  0  0  0  0  0  0  0  0  0  0  0
   58.1250   33.8410   46.8430 C   0  0  0  0  0  0  0  0  0  0  0  0
   59.7122   35.8079   47.3684 H   0  0  0  0  0  0  0  0  0  0  0  0
   60.6781   35.6264   45.8648 H   0  0  0  0  0  0  0  0  0  0  0  0
   59.1992   36.6461   45.8648 H   0  0  0  0  0  0  0  0  0  0  0  0
   59.4352   34.8018   43.8420 H   0  0  0  0  0  0  0  0  0  0  0  0
   60.6241   29.7994   45.2397 H   0  0  0  0  0  0  0  0  0  0  0  0
   56.2340   29.7337   42.5448 H   0  0  0  0  0  0  0  0  0  0  0  0
   57.2198   27.4221   42.4346 H   0  0  0  0  0  0  0  0  0  0  0  0
   58.5680   26.6800   44.2250 H   0  0  0  0  0  0  0  0  0  0  0  0
   58.1206   32.8496   43.0456 H   0  0  0  0  0  0  0  0  0  0  0  0
   62.0084   31.4843   46.3994 H   0  0  0  0  0  0  0  0  0  0  0  0
   64.3926   32.1656   49.2618 H   0  0  0  0  0  0  0  0  0  0  0  0
   63.8537   31.7949   47.5859 H   0  0  0  0  0  0  0  0  0  0  0  0
   64.3986   34.2749   48.1702 H   0  0  0  0  0  0  0  0  0  0  0  0
   62.8587   33.9288   47.3069 H   0  0  0  0  0  0  0  0  0  0  0  0
   63.0892   35.4074   49.6214 H   0  0  0  0  0  0  0  0  0  0  0  0
   61.5906   34.5640   49.0474 H   0  0  0  0  0  0  0  0  0  0  0  0
   63.6696   33.3717   50.9224 H   0  0  0  0  0  0  0  0  0  0  0  0
   62.0950   34.0988   51.4209 H   0  0  0  0  0  0  0  0  0  0  0  0
   62.1901   31.5155   51.1262 H   0  0  0  0  0  0  0  0  0  0  0  0
   60.8356   32.3831   50.3538 H   0  0  0  0  0  0  0  0  0  0  0  0
   60.9387   29.8463   50.1840 H   0  0  0  0  0  0  0  0  0  0  0  0
   56.8026   32.1455   47.0942 H   0  0  0  0  0  0  0  0  0  0  0  0
   58.1320   30.2440   46.3040 H   0  0  0  0  0  0  0  0  0  0  0  0
   59.5286   28.1405   49.0569 H   0  0  0  0  0  0  0  0  0  0  0  0
   58.1359   34.1322   47.9037 H   0  0  0  0  0  0  0  0  0  0  0  0
  1  2  1  0
  2  3  2  0
  3  4  1  0
  4  5  2  0
  5  6  1  0
  6  7  2  0
  7  8  1  0
  8  9  2  0
  9 10  1  0
 10 11  1  0
 11 12  2  0
 12 13  1  0
 13 14  2  0
 14 15  1  0
 15 16  2  0
 16 17  1  0
 17 18  1  0
 18 19  1  0
 19 20  1  0
 20 21  1  0
 21 22  1  0
 16 23  1  0
 23 24  2  0
 11 25  1  0
  5 26  1  0
 26 27  2  0
 27  2  1  0
 25  7  1  0
 24 13  1  0
 22 17  1  0
  1 28  1  0
  1 29  1  0
  1 30  1  0
  3 31  1  0
  4 32  1  0
  8 33  1  0
  9 34  1  0
 10 35  1  0
 14 36  1  0
 15 37  1  0
 18 38  1  0
 18 39  1  0
 19 40  1  0
 19 41  1  0
 20 42  1  0
 20 43  1  0
 21 44  1  0
 21 45  1  0
 22 46  1  0
 22 47  1  0
 23 48  1  0
 24 49  1  0
 25 50  1  0
 26 51  1  0
 27 52  1  0
M  END
>  <smiles>  (28) 
Cc1ccc(N=c2cc[nH]c(=Nc3ccc(N4CCCCC4)cc3)[nH]2)cc1

>  <score_type>  (28) 
oracle

>  <origin>  (28) 
adg

>  <m_score__min__energy>  (28) 
-8.5600000000000005

>  <m_primary>  (28) 
energy

$$$$
28:0
     RDKit          3D

 41 43  0  0  0  0  0  0  0  0999 V2000
   59.4206   36.0845   44.6801 H   0  0  0  0  0  0  0  0  0  0  0  0
   59.2210   35.1870   45.2840 C   0  0  0  0  0  0  0  0  0  0  0  0
   59.9120   34.9860   46.4770 C   0  0  0  0  0  0  0  0  0  0  0  0
   60.6488   35.7284   46.8177 H   0  0  0  0  0  0  0  0  0  0  0  0
   59.6690   33.8410   47.2410 C   0  0  0  0  0  0  0  0  0  0  0  0
   60.2228   33.6809   48.1778 H   0  0  0  0  0  0  0  0  0  0  0  0
   58.7210   32.8930   46.8190 C   0  0  0  0  0  0  0  0  0  0  0  0
   58.5110   31.6400   47.6250 C   0  0  0  0  0  0  0  0  0  0  0  0
   58.5517   31.8826   48.6972 H   0  0  0  0  0  0  0  0  0  0  0  0
   57.5281   31.2091   47.3836 H   0  0  0  0  0  0  0  0  0  0  0  0
   59.2997   30.9122   47.3836 H   0  0  0  0  0  0  0  0  0  0  0  0
   58.0160   33.1000   45.6140 C   0  0  0  0  0  0  0  0  0  0  0  0
   57.0600   32.1180   45.1850 N   0  0  0  0  0  0  0  0  0  0  0  0
   57.3440   30.8930   43.9900 S   0  0  0  0  0  0  0  0  0  0  0  0
   58.5910   31.2340   43.2200 O   0  0  0  0  0  0  0  0  0  0  0  0
   56.1810   30.8510   43.0390 O   0  0  0  0  0  0  0  0  0  0  0  0
   57.4970   29.3250   44.7710 C   0  0  0  0  0  0  0  0  0  0  0  0
   58.7720   28.8270   45.1440 C   0  0  0  0  0  0  0  0  0  0  0  0
   59.6732   29.4220   44.9347 H   0  0  0  0  0  0  0  0  0  0  0  0
   58.8920   27.5770   45.7800 C   0  0  0  0  0  0  0  0  0  0  0  0
   59.8746   27.1813   46.0763 H   0  0  0  0  0  0  0  0  0  0  0  0
   57.7240   26.8590   46.0210 C   0  0  0  0  0  0  0  0  0  0  0  0
   57.6070   25.6530   46.5970 N   0  0  0  0  0  0  0  0  0  0  0  0
   56.2660   25.4430   46.5590 C   0  0  0  0  0  0  0  0  0  0  0  0
   55.7330   24.3530   47.0270 N   0  0  0  0  0  0  0  0  0  0  0  0
   56.1890   23.0100   46.8030 C   0  0  0  0  0  0  0  0  0  0  0  0
   57.0170   22.5070   47.6080 O   0  0  0  0  0  0  0  0  0  0  0  0
   55.7300   22.2490   45.6790 N   0  0  0  0  0  0  0  0  0  0  0  0
   56.4860   22.0950   44.4400 C   0  0  0  0  0  0  0  0  0  0  0  0
   56.1373   21.1944   43.9133 H   0  0  0  0  0  0  0  0  0  0  0  0
   57.5543   22.0025   44.6855 H   0  0  0  0  0  0  0  0  0  0  0  0
   56.2920   23.3090   43.5390 C   0  0  0  0  0  0  0  0  0  0  0  0
   56.1486   24.2064   44.1588 H   0  0  0  0  0  0  0  0  0  0  0  0
   57.1806   23.4401   42.9040 H   0  0  0  0  0  0  0  0  0  0  0  0
   55.4068   23.1566   42.9040 H   0  0  0  0  0  0  0  0  0  0  0  0
   55.5470   26.4500   45.9930 N   0  0  0  0  0  0  0  0  0  0  0  0
   56.5010   27.3320   45.6630 C   0  0  0  0  0  0  0  0  0  0  0  0
   56.3400   28.5640   45.0350 C   0  0  0  0  0  0  0  0  0  0  0  0
   55.3422   28.9318   44.7538 H   0  0  0  0  0  0  0  0  0  0  0  0
   58.2770   34.2550   44.8520 C   0  0  0  0  0  0  0  0  0  0  0  0
   57.7334   34.4234   43.9106 H   0  0  0  0  0  0  0  0  0  0  0  0
  1  2  1  0
  2  3  2  0
  3  4  1  0
  3  5  1  0
  5  6  1  0
  5  7  2  0
  7  8  1  0
  8  9  1  0
  8 10  1  0
  8 11  1  0
  7 12  1  0
 12 13  1  0
 13 14  1  0
 14 15  2  0
 14 16  2  0
 14 17  1  0
 17 18  2  0
 18 19  1  0
 18 20  1  0
 20 21  1  0
 20 22  2  0
 22 23  1  0
 23 24  1  0
 24 25  2  0
 25 26  1  0
 26 27  2  0
 26 28  1  0
 28 29  1  0
 29 30  1  0
 29 31  1  0
 29 32  1  0
 32 33  1  0
 32 34  1  0
 32 35  1  0
 24 36  1  0
 36 37  1  0
 37 38  2  0
 38 39  1  0
 12 40  2  0
 40 41  1  0
 40  2  1  0
 38 17  1  0
 37 22  1  0
M  CHG  4  13  -1  23  -1  28  -1  36  -1
M  END
>  <UniqueID>  (29) 
27

>  <SMILES>  (29) 
CC[N-]C(=O)/N=c1/[n-]c2ccc(S(=O)(=O)[N-]c3ccccc3C)cc2[n-]1

>  <Energy>  (29) 
78.52472584354796

>  <Genealogy>  (29) 
CC[N-]C(=O)N=c1[n-]c2ccc(S(=O)(=O)[N-]c3ccccc3C)cc2[n-]1 (protonated)
CC[N-]C(=O)/N=c1/[n-]c2ccc(S(=O)(=O)[N-]c3ccccc3C)cc2[n-]1 (cis-trans isomerization)
CC[N-]C(=O)/N=c1/[n-]c2ccc(S(=O)(=O)[N-]c3ccccc3C)cc2[n-]1 (3D coordinates assigned)
CC[N-]C(=O)/N=c1/[n-]c2ccc(S(=O)(=O)[N-]c3ccccc3C)cc2[n-]1 (optimized conformer: 78.52472584354796 kcal/mol)

>  <smiles>  (29) 
CCNC(=O)N=c1[nH]c2ccc(S(=O)(=O)Nc3ccccc3C)cc2[nH]1

>  <score_type>  (29) 
oracle

>  <origin>  (29) 
adg

>  <m_score__min__energy>  (29) 
-13.390000000000001

>  <m_primary>  (29) 
energy

$$$$
29:0
     RDKit          3D

 52 54  0  0  0  0  0  0  0  0999 V2000
   54.7760   26.3240   45.8770 O   0  0  0  0  0  0  0  0  0  0  0  0
   55.9090   26.0900   46.3730 C   0  0  0  0  0  0  0  0  0  0  0  0
   56.3190   24.7440   46.6440 N   0  0  0  0  0  0  0  0  0  0  0  0
   56.6490   23.7310   45.6800 C   0  0  0  0  0  0  0  0  0  0  0  0
   56.4260   23.9220   44.3040 C   0  0  0  0  0  0  0  0  0  0  0  0
   56.7280   22.9080   43.3930 C   0  0  0  0  0  0  0  0  0  0  0  0
   57.2350   21.6890   43.8440 C   0  0  0  0  0  0  0  0  0  0  0  0
   57.4350   21.4770   45.2090 C   0  0  0  0  0  0  0  0  0  0  0  0
   57.1400   22.4940   46.1390 C   0  0  0  0  0  0  0  0  0  0  0  0
   57.3140   22.3210   47.5240 O   0  0  0  0  0  0  0  0  0  0  0  0
   56.5540   21.4490   48.3610 C   0  0  0  0  0  0  0  0  0  0  0  0
   55.4630   22.2260   49.0990 C   0  0  0  0  0  0  0  0  0  0  0  0
   54.8700   23.1630   48.2410 O   0  0  0  0  0  0  0  0  0  0  0  0
   56.7970   27.1870   46.6170 N   0  0  0  0  0  0  0  0  0  0  0  0
   57.9570   27.5730   45.8080 C   0  0  1  0  0  0  0  0  0  0  0  0
   57.5220   27.9160   44.3650 C   0  0  0  0  0  0  0  0  0  0  0  0
   56.8930   29.3110   44.2190 C   0  0  0  0  0  0  0  0  0  0  0  0
   57.9080   30.4600   44.1480 C   0  0  0  0  0  0  0  0  0  0  0  0
   58.3050   30.9070   45.4920 N   0  0  0  0  0  0  0  0  0  0  0  0
   58.7450   32.2630   45.6710 C   0  0  0  0  0  0  0  0  0  0  0  0
   59.8650   32.5400   46.4680 C   0  0  0  0  0  0  0  0  0  0  0  0
   60.2870   33.8600   46.6560 C   0  0  0  0  0  0  0  0  0  0  0  0
   59.5930   34.9090   46.0450 C   0  0  0  0  0  0  0  0  0  0  0  0
   58.4810   34.6400   45.2430 C   0  0  0  0  0  0  0  0  0  0  0  0
   58.0580   33.3210   45.0530 C   0  0  0  0  0  0  0  0  0  0  0  0
   58.1750   30.0490   46.6850 C   0  0  0  0  0  0  0  0  0  0  0  0
   58.8110   28.6520   46.5400 C   0  0  0  0  0  0  0  0  0  0  0  0
   56.0115   24.8752   43.9441 H   0  0  0  0  0  0  0  0  0  0  0  0
   56.5658   23.0706   42.3172 H   0  0  0  0  0  0  0  0  0  0  0  0
   57.4773   20.8942   43.1232 H   0  0  0  0  0  0  0  0  0  0  0  0
   57.8251   20.5106   45.5609 H   0  0  0  0  0  0  0  0  0  0  0  0
   56.0864   20.6698   47.7411 H   0  0  0  0  0  0  0  0  0  0  0  0
   57.2272   20.9931   49.1019 H   0  0  0  0  0  0  0  0  0  0  0  0
   54.6953   21.5237   49.4561 H   0  0  0  0  0  0  0  0  0  0  0  0
   55.9140   22.7554   49.9513 H   0  0  0  0  0  0  0  0  0  0  0  0
   55.6100   23.6190   47.7620 H   0  0  0  0  0  0  0  0  0  0  0  0
   58.6437   26.7214   45.6930 H   0  0  0  0  0  0  0  0  0  0  0  0
   58.4080   27.8658   43.7150 H   0  0  0  0  0  0  0  0  0  0  0  0
   56.7491   27.1861   44.0825 H   0  0  0  0  0  0  0  0  0  0  0  0
   56.2941   29.3235   43.2964 H   0  0  0  0  0  0  0  0  0  0  0  0
   56.2905   29.4799   45.1237 H   0  0  0  0  0  0  0  0  0  0  0  0
   58.8015   30.1157   43.6065 H   0  0  0  0  0  0  0  0  0  0  0  0
   57.4380   31.3063   43.6256 H   0  0  0  0  0  0  0  0  0  0  0  0
   60.4138   31.7159   46.9472 H   0  0  0  0  0  0  0  0  0  0  0  0
   61.1645   34.0730   47.2842 H   0  0  0  0  0  0  0  0  0  0  0  0
   59.9230   35.9474   46.1960 H   0  0  0  0  0  0  0  0  0  0  0  0
   57.9381   35.4663   44.7609 H   0  0  0  0  0  0  0  0  0  0  0  0
   57.1848   33.1112   44.4178 H   0  0  0  0  0  0  0  0  0  0  0  0
   58.6583   30.5605   47.5304 H   0  0  0  0  0  0  0  0  0  0  0  0
   57.0978   29.8880   46.8387 H   0  0  0  0  0  0  0  0  0  0  0  0
   59.7517   28.7691   45.9820 H   0  0  0  0  0  0  0  0  0  0  0  0
   58.9335   28.2792   47.5676 H   0  0  0  0  0  0  0  0  0  0  0  0
  1  2  2  0
  2  3  1  0
  3  4  1  0
  4  5  2  0
  5  6  1  0
  6  7  2  0
  7  8  1  0
  8  9  2  0
  9 10  1  0
 10 11  1  0
 11 12  1  0
 12 13  1  0
  2 14  1  0
 14 15  1  0
 15 16  1  0
 16 17  1  0
 17 18  1  0
 18 19  1  0
 19 20  1  0
 20 21  2  0
 21 22  1  0
 22 23  2  0
 23 24  1  0
 24 25  2  0
 19 26  1  0
 26 27  1  0
  9  4  1  0
 27 15  1  0
 25 20  1  0
  5 28  1  0
  6 29  1  0
  7 30  1  0
  8 31  1  0
 11 32  1  0
 11 33  1  0
 12 34  1  0
 12 35  1  0
 13 36  1  0
 15 37  1  6
 16 38  1  0
 16 39  1  0
 17 40  1  0
 17 41  1  0
 18 42  1  0
 18 43  1  0
 21 44  1  0
 22 45  1  0
 23 46  1  0
 24 47  1  0
 25 48  1  0
 26 49  1  0
 26 50  1  0
 27 51  1  0
 27 52  1  0
M  CHG  2   3  -1  14  -1
M  END
>  <UniqueID>  (30) 
28

>  <SMILES>  (30) 
O=C([N-]c1ccccc1OCCO)[N-][C@H]1CCCN(c2ccccc2)CC1

>  <Energy>  (30) 
62.773506031502166

>  <Genealogy>  (30) 
O=C([N-]c1ccccc1OCCO)[N-]C1CCCN(c2ccccc2)CC1 (protonated)
O=C([N-]c1ccccc1OCCO)[N-][C@H]1CCCN(c2ccccc2)CC1 (chirality)
O=C([N-]c1ccccc1OCCO)[N-][C@H]1CCCN(c2ccccc2)CC1 (3D coordinates assigned)
O=C([N-]c1ccccc1OCCO)[N-][C@H]1CCCN(c2ccccc2)CC1 (nonaromatic ring conformer: 62.773506031502166 kcal/mol)

>  <smiles>  (30) 
O=C(Nc1ccccc1OCCO)NC1CCCN(c2ccccc2)CC1

>  <score_type>  (30) 
oracle

>  <origin>  (30) 
adg

>  <m_score__min__energy>  (30) 
-10.220000000000001

>  <m_primary>  (30) 
energy

$$$$
30:0
     RDKit          3D

 54 58  0  0  0  0  0  0  0  0999 V2000
   55.9734   27.9036   44.3283 H   0  0  0  0  0  0  0  0  0  0  0  0
   56.6430   28.5280   44.9380 C   0  0  0  0  0  0  0  0  0  0  0  0
   56.6320   29.8730   44.7850 N   0  0  0  0  0  0  0  0  0  0  0  0
   60.3940   30.3530   47.7140 C   0  0  0  0  0  0  0  0  0  0  0  0
   61.3390   31.1290   48.1720 N   0  0  0  0  0  0  0  0  0  0  0  0
   58.0020   33.1170   45.7560 C   0  0  0  0  0  0  0  0  0  0  0  0
   58.7520   33.8380   44.8080 C   0  0  0  0  0  0  0  0  0  0  0  0
   58.7062   33.5589   43.7450 H   0  0  0  0  0  0  0  0  0  0  0  0
   59.5550   34.9080   45.2140 C   0  0  0  0  0  0  0  0  0  0  0  0
   60.1212   35.4844   44.4675 H   0  0  0  0  0  0  0  0  0  0  0  0
   59.6390   35.2460   46.5680 C   0  0  0  0  0  0  0  0  0  0  0  0
   60.2653   36.0925   46.8861 H   0  0  0  0  0  0  0  0  0  0  0  0
   58.9260   34.5070   47.5180 C   0  0  0  0  0  0  0  0  0  0  0  0
   59.0003   34.7665   48.5844 H   0  0  0  0  0  0  0  0  0  0  0  0
   58.1190   33.4390   47.1140 C   0  0  0  0  0  0  0  0  0  0  0  0
   57.5739   32.8494   47.8657 H   0  0  0  0  0  0  0  0  0  0  0  0
   58.4490   30.1400   46.3280 C   0  0  0  0  0  0  0  0  0  0  0  0
   58.4110   28.7430   46.5740 C   0  0  0  0  0  0  0  0  0  0  0  0
   59.3050   28.2060   47.5180 C   0  0  0  0  0  0  0  0  0  0  0  0
   59.2344   27.1438   47.7950 H   0  0  0  0  0  0  0  0  0  0  0  0
   60.2770   29.0090   48.1030 C   0  0  0  0  0  0  0  0  0  0  0  0
   60.9510   28.5938   48.8667 H   0  0  0  0  0  0  0  0  0  0  0  0
   57.4470   30.7090   45.4810 C   0  0  0  0  0  0  0  0  0  0  0  0
   57.2070   31.9880   45.3660 N   0  0  0  0  0  0  0  0  0  0  0  0
   62.4430   31.7290   47.4170 C   0  0  1  0  0  0  0  0  0  0  0  0
   62.7432   30.9573   46.6928 H   0  0  0  0  0  0  0  0  0  0  0  0
   63.5510   32.1710   48.3520 C   0  0  0  0  0  0  0  0  0  0  0  0
   64.2891   31.3623   48.4583 H   0  0  0  0  0  0  0  0  0  0  0  0
   63.1319   32.4077   49.3411 H   0  0  0  0  0  0  0  0  0  0  0  0
   64.1750   33.3130   47.8120 O   0  0  0  0  0  0  0  0  0  0  0  0
   63.3110   33.8500   46.8340 C   0  0  0  0  0  0  0  0  0  0  0  0
   63.8129   33.8356   45.8553 H   0  0  0  0  0  0  0  0  0  0  0  0
   63.0553   34.8855   47.1031 H   0  0  0  0  0  0  0  0  0  0  0  0
   62.0420   33.0220   46.7620 C   0  0  0  0  0  0  0  0  0  0  0  0
   61.7358   32.8580   45.7183 H   0  0  0  0  0  0  0  0  0  0  0  0
   61.1815   33.5051   47.2480 H   0  0  0  0  0  0  0  0  0  0  0  0
   59.4990   30.8690   46.8240 N   0  0  0  0  0  0  0  0  0  0  0  0
   59.6900   31.8320   46.4750 H   0  0  0  0  0  0  0  0  0  0  0  0
   57.4990   27.9270   45.8650 C   0  0  0  0  0  0  0  0  0  0  0  0
   57.4620   26.4530   46.0010 C   0  0  0  0  0  0  0  0  0  0  0  0
   56.2650   25.8090   46.3490 C   0  0  0  0  0  0  0  0  0  0  0  0
   55.3578   26.4024   46.5359 H   0  0  0  0  0  0  0  0  0  0  0  0
   56.2210   24.4180   46.4590 C   0  0  0  0  0  0  0  0  0  0  0  0
   55.2811   23.9191   46.7376 H   0  0  0  0  0  0  0  0  0  0  0  0
   57.3680   23.6580   46.2160 C   0  0  0  0  0  0  0  0  0  0  0  0
   57.3273   22.5627   46.3089 H   0  0  0  0  0  0  0  0  0  0  0  0
   58.5690   24.2810   45.8550 C   0  0  0  0  0  0  0  0  0  0  0  0
   59.6920   23.4740   45.6190 O   0  0  0  0  0  0  0  0  0  0  0  0
   59.6600   22.2390   44.9110 C   0  0  0  0  0  0  0  0  0  0  0  0
   59.6384   21.4055   45.6285 H   0  0  0  0  0  0  0  0  0  0  0  0
   58.7606   22.2020   44.2788 H   0  0  0  0  0  0  0  0  0  0  0  0
   60.5563   22.1555   44.2788 H   0  0  0  0  0  0  0  0  0  0  0  0
   58.6090   25.6840   45.7410 C   0  0  0  0  0  0  0  0  0  0  0  0
   59.5448   26.1815   45.4463 H   0  0  0  0  0  0  0  0  0  0  0  0
  1  2  1  0
  2  3  1  0
  3  4  1  0
  4  5  2  0
  5  6  1  0
  6  7  2  0
  7  8  1  0
  7  9  1  0
  9 10  1  0
  9 11  2  0
 11 12  1  0
 11 13  1  0
 13 14  1  0
 13 15  2  0
 15 16  1  0
  4 17  1  0
 17 18  2  0
 18 19  1  0
 19 20  1  0
 19 21  2  0
 21 22  1  0
 21 23  1  0
 23 24  2  0
 24 25  1  0
 25 26  1  6
 25 27  1  0
 27 28  1  0
 27 29  1  0
 27 30  1  0
 30 31  1  0
 31 32  1  0
 31 33  1  0
 31 34  1  0
 34 35  1  0
 34 36  1  0
 23 37  1  0
 37 38  1  0
 18 39  1  0
 39 40  1  0
 40 41  2  0
 41 42  1  0
 41 43  1  0
 43 44  1  0
 43 45  2  0
 45 46  1  0
 45 47  1  0
 47 48  1  0
 48 49  1  0
 49 50  1  0
 49 51  1  0
 49 52  1  0
 47 53  2  0
 53 54  1  0
 39  2  2  0
 53 40  1  0
 15  6  1  0
 37 17  1  0
 34 25  1  0
M  CHG  1   3  -1
M  END
>  <UniqueID>  (31) 
29

>  <SMILES>  (31) 
COc1cccc(-c2c[n-]/c(=N/c3ccccc3)c3[nH]/c(=N/[C@H]4CCOC4)ccc23)c1

>  <Energy>  (31) 
93.85136461343276

>  <Genealogy>  (31) 
COc1cccc(-c2c[n-]c(=Nc3ccccc3)c3[nH]c(=NC4CCOC4)ccc23)c1 (protonated)
COc1cccc(-c2c[n-]c(=Nc3ccccc3)c3[nH]c(=N[C@H]4CCOC4)ccc23)c1 (chirality)
COc1cccc(-c2c[n-]/c(=N/c3ccccc3)c3[nH]/c(=N/[C@H]4CCOC4)ccc23)c1 (cis-trans isomerization)
COc1cccc(-c2c[n-]/c(=N/c3ccccc3)c3[nH]/c(=N/[C@H]4CCOC4)ccc23)c1 (3D coordinates assigned)
COc1cccc(-c2c[n-]/c(=N/c3ccccc3)c3[nH]/c(=N/[C@H]4CCOC4)ccc23)c1 (nonaromatic ring conformer: 93.85136461343276 kcal/mol)

>  <smiles>  (31) 
COc1cccc(-c2c[nH]c(=Nc3ccccc3)c3[nH]c(=NC4CCOC4)ccc23)c1

>  <score_type>  (31) 
oracle

>  <origin>  (31) 
adg

>  <m_score__min__energy>  (31) 
-10.56

>  <m_primary>  (31) 
energy

$$$$
31:0
     RDKit          3D

 47 49  0  0  0  0  0  0  0  0999 V2000
   55.4680   29.7090   44.8680 O   0  0  0  0  0  0  0  0  0  0  0  0
   56.2590   28.7290   44.8820 C   0  0  0  0  0  0  0  0  0  0  0  0
   57.4720   28.7630   43.9930 C   0  0  0  0  0  0  0  0  0  0  0  0
   58.6800   28.8600   44.8100 N   0  0  0  0  0  0  0  0  0  0  0  0
   58.7520   29.7150   45.9590 C   0  0  0  0  0  0  0  0  0  0  0  0
   57.8270   30.5400   46.1910 O   0  0  0  0  0  0  0  0  0  0  0  0
   59.9050   29.6420   46.8760 C   0  0  0  0  0  0  0  0  0  0  0  0
   60.7190   28.6870   46.7780 O   0  0  0  0  0  0  0  0  0  0  0  0
   60.1530   30.6680   47.8460 N   0  0  0  0  0  0  0  0  0  0  0  0
   61.1410   31.7040   47.7350 C   0  0  0  0  0  0  0  0  0  0  0  0
   62.4540   31.5060   48.2000 C   0  0  0  0  0  0  0  0  0  0  0  0
   63.4230   32.4980   48.0290 C   0  0  0  0  0  0  0  0  0  0  0  0
   63.0970   33.6880   47.3770 C   0  0  0  0  0  0  0  0  0  0  0  0
   64.0400   34.6490   47.2100 F   0  0  0  0  0  0  0  0  0  0  0  0
   61.8030   33.8870   46.8920 C   0  0  0  0  0  0  0  0  0  0  0  0
   60.8200   32.9010   47.0660 C   0  0  0  0  0  0  0  0  0  0  0  0
   59.4910   33.1290   46.5800 N   0  0  0  0  0  0  0  0  0  0  0  0
   58.3290   33.1750   47.4490 C   0  0  0  0  0  0  0  0  0  0  0  0
   57.1430   33.4250   46.5260 C   0  0  0  0  0  0  0  0  0  0  0  0
   57.7310   33.9160   45.2030 C   0  0  0  0  0  0  0  0  0  0  0  0
   59.1970   33.4960   45.2070 C   0  0  0  0  0  0  0  0  0  0  0  0
   55.8960   27.5590   45.6250 N   0  0  0  0  0  0  0  0  0  0  0  0
   56.6560   26.3440   45.7020 C   0  0  0  0  0  0  0  0  0  0  0  0
   58.0500   26.3660   45.8850 C   0  0  0  0  0  0  0  0  0  0  0  0
   58.7660   25.1700   45.9850 C   0  0  0  0  0  0  0  0  0  0  0  0
   58.0950   23.9440   45.9210 C   0  0  0  0  0  0  0  0  0  0  0  0
   58.7950   22.7860   46.0190 F   0  0  0  0  0  0  0  0  0  0  0  0
   56.7060   23.9150   45.7680 C   0  0  0  0  0  0  0  0  0  0  0  0
   56.0540   22.7270   45.7180 F   0  0  0  0  0  0  0  0  0  0  0  0
   55.9860   25.1120   45.6690 C   0  0  0  0  0  0  0  0  0  0  0  0
   54.6360   25.0750   45.5250 F   0  0  0  0  0  0  0  0  0  0  0  0
   57.5104   27.8427   43.3917 H   0  0  0  0  0  0  0  0  0  0  0  0
   57.4113   29.6370   43.3279 H   0  0  0  0  0  0  0  0  0  0  0  0
   59.4890   28.2420   44.5740 H   0  0  0  0  0  0  0  0  0  0  0  0
   62.7195   30.5637   48.7016 H   0  0  0  0  0  0  0  0  0  0  0  0
   64.4434   32.3409   48.4085 H   0  0  0  0  0  0  0  0  0  0  0  0
   61.5526   34.8225   46.3703 H   0  0  0  0  0  0  0  0  0  0  0  0
   58.2081   32.2197   47.9808 H   0  0  0  0  0  0  0  0  0  0  0  0
   58.4226   33.9580   48.2160 H   0  0  0  0  0  0  0  0  0  0  0  0
   56.5776   32.4943   46.3704 H   0  0  0  0  0  0  0  0  0  0  0  0
   56.4484   34.1622   46.9551 H   0  0  0  0  0  0  0  0  0  0  0  0
   57.2039   33.4525   44.3561 H   0  0  0  0  0  0  0  0  0  0  0  0
   57.6266   35.0060   45.0980 H   0  0  0  0  0  0  0  0  0  0  0  0
   59.3527   32.6371   44.5376 H   0  0  0  0  0  0  0  0  0  0  0  0
   59.8539   34.3031   44.8505 H   0  0  0  0  0  0  0  0  0  0  0  0
   58.5790   27.3283   45.9497 H   0  0  0  0  0  0  0  0  0  0  0  0
   59.8582   25.1926   46.1142 H   0  0  0  0  0  0  0  0  0  0  0  0
  1  2  2  0
  2  3  1  0
  3  4  1  0
  4  5  1  0
  5  6  2  0
  5  7  1  0
  7  8  2  0
  7  9  1  0
  9 10  1  0
 10 11  2  0
 11 12  1  0
 12 13  2  0
 13 14  1  0
 13 15  1  0
 15 16  2  0
 16 17  1  0
 17 18  1  0
 18 19  1  0
 19 20  1  0
 20 21  1  0
  2 22  1  0
 22 23  1  0
 23 24  2  0
 24 25  1  0
 25 26  2  0
 26 27  1  0
 26 28  1  0
 28 29  1  0
 28 30  2  0
 30 31  1  0
 16 10  1  0
 21 17  1  0
 30 23  1  0
  3 32  1  0
  3 33  1  0
  4 34  1  0
 11 35  1  0
 12 36  1  0
 15 37  1  0
 18 38  1  0
 18 39  1  0
 19 40  1  0
 19 41  1  0
 20 42  1  0
 20 43  1  0
 21 44  1  0
 21 45  1  0
 24 46  1  0
 25 47  1  0
M  CHG  2   9  -1  22  -1
M  END
>  <UniqueID>  (32) 
30

>  <SMILES>  (32) 
O=C(CNC(=O)C(=O)[N-]c1ccc(F)cc1N1CCCC1)[N-]c1ccc(F)c(F)c1F

>  <Energy>  (32) 
60.2031910814722

>  <Genealogy>  (32) 
O=C(CNC(=O)C(=O)[N-]c1ccc(F)cc1N1CCCC1)[N-]c1ccc(F)c(F)c1F (protonated)
O=C(CNC(=O)C(=O)[N-]c1ccc(F)cc1N1CCCC1)[N-]c1ccc(F)c(F)c1F (3D coordinates assigned)
O=C(CNC(=O)C(=O)[N-]c1ccc(F)cc1N1CCCC1)[N-]c1ccc(F)c(F)c1F (nonaromatic ring conformer: 60.2031910814722 kcal/mol)

>  <smiles>  (32) 
O=C(CNC(=O)C(=O)Nc1ccc(F)cc1N1CCCC1)Nc1ccc(F)c(F)c1F

>  <score_type>  (32) 
oracle

>  <origin>  (32) 
adg

>  <m_score__min__energy>  (32) 
-10.83

>  <m_primary>  (32) 
energy

$$$$
32:0
     RDKit          3D

 32 33  0  0  0  0  0  0  0  0999 V2000
   57.9440   25.8390   46.7660 O   0  0  0  0  0  0  0  0  0  0  0  0
   57.3670   26.1070   45.6780 C   0  0  0  0  0  0  0  0  0  0  0  0
   57.7350   25.3240   44.4470 C   0  0  0  0  0  0  0  0  0  0  0  0
   57.7980   26.4040   43.0320 Cl  0  0  0  0  0  0  0  0  0  0  0  0
   56.5270   24.0490   44.1560 Cl  0  0  0  0  0  0  0  0  0  0  0  0
   56.4280   27.1950   45.6340 N   0  0  0  0  0  0  0  0  0  0  0  0
   55.1430   26.9520   45.9890 O   0  0  0  0  0  0  0  0  0  0  0  0
   56.7880   28.5240   45.2170 C   0  0  0  0  0  0  0  0  0  0  0  0
   58.1000   29.0010   45.3810 C   0  0  0  0  0  0  0  0  0  0  0  0
   58.4410   30.2880   44.9600 C   0  0  0  0  0  0  0  0  0  0  0  0
   57.4840   31.1100   44.3450 C   0  0  0  0  0  0  0  0  0  0  0  0
   57.8410   32.5110   43.9310 C   0  0  0  0  0  0  0  0  0  0  0  0
   58.3560   33.2860   45.1120 C   0  0  0  0  0  0  0  0  0  0  0  0
   59.2180   34.3810   44.9220 C   0  0  0  0  0  0  0  0  0  0  0  0
   59.6650   35.1230   46.0180 C   0  0  0  0  0  0  0  0  0  0  0  0
   59.2510   34.7850   47.3100 C   0  0  0  0  0  0  0  0  0  0  0  0
   58.3860   33.7050   47.5070 C   0  0  0  0  0  0  0  0  0  0  0  0
   57.9350   32.9610   46.4130 C   0  0  0  0  0  0  0  0  0  0  0  0
   56.1760   30.6300   44.1710 C   0  0  0  0  0  0  0  0  0  0  0  0
   55.8350   29.3430   44.5940 C   0  0  0  0  0  0  0  0  0  0  0  0
   58.7234   24.8669   44.6026 H   0  0  0  0  0  0  0  0  0  0  0  0
   58.8623   28.3569   45.8436 H   0  0  0  0  0  0  0  0  0  0  0  0
   59.4652   30.6596   45.1112 H   0  0  0  0  0  0  0  0  0  0  0  0
   58.6187   32.4733   43.1540 H   0  0  0  0  0  0  0  0  0  0  0  0
   56.9423   33.0095   43.5388 H   0  0  0  0  0  0  0  0  0  0  0  0
   59.5414   34.6541   43.9067 H   0  0  0  0  0  0  0  0  0  0  0  0
   60.3439   35.9747   45.8643 H   0  0  0  0  0  0  0  0  0  0  0  0
   59.6062   35.3693   48.1717 H   0  0  0  0  0  0  0  0  0  0  0  0
   58.0599   33.4403   48.5237 H   0  0  0  0  0  0  0  0  0  0  0  0
   57.2473   32.1171   46.5710 H   0  0  0  0  0  0  0  0  0  0  0  0
   55.4161   31.2704   43.6993 H   0  0  0  0  0  0  0  0  0  0  0  0
   54.8123   28.9695   44.4374 H   0  0  0  0  0  0  0  0  0  0  0  0
  1  2  2  0
  2  3  1  0
  3  4  1  0
  3  5  1  0
  2  6  1  0
  6  7  1  0
  6  8  1  0
  8  9  2  0
  9 10  1  0
 10 11  2  0
 11 12  1  0
 12 13  1  0
 13 14  2  0
 14 15  1  0
 15 16  2  0
 16 17  1  0
 17 18  2  0
 11 19  1  0
 19 20  2  0
 20  8  1  0
 18 13  1  0
  3 21  1  0
  9 22  1  0
 10 23  1  0
 12 24  1  0
 12 25  1  0
 14 26  1  0
 15 27  1  0
 16 28  1  0
 17 29  1  0
 18 30  1  0
 19 31  1  0
 20 32  1  0
M  CHG  1   7  -1
M  END
>  <UniqueID>  (33) 
31

>  <SMILES>  (33) 
O=C(C(Cl)Cl)N([O-])c1ccc(Cc2ccccc2)cc1

>  <Energy>  (33) 
35.42554560620296

>  <Genealogy>  (33) 
O=C(C(Cl)Cl)N([O-])c1ccc(Cc2ccccc2)cc1 (protonated)
O=C(C(Cl)Cl)N([O-])c1ccc(Cc2ccccc2)cc1 (3D coordinates assigned)
O=C(C(Cl)Cl)N([O-])c1ccc(Cc2ccccc2)cc1 (optimized conformer: 35.42554560620296 kcal/mol)

>  <smiles>  (33) 
O=C(C(Cl)Cl)N(O)c1ccc(Cc2ccccc2)cc1

>  <score_type>  (33) 
oracle

>  <origin>  (33) 
adg

>  <m_score__min__energy>  (33) 
-11.15

>  <m_primary>  (33) 
energy

$$$$
33:0
     RDKit          3D

 43 46  0  0  0  0  0  0  0  0999 V2000
   59.5448   26.7300   43.7948 H   0  0  0  0  0  0  0  0  0  0  0  0
   59.1500   27.4800   44.4960 C   0  0  0  0  0  0  0  0  0  0  0  0
   57.9940   28.1930   44.1740 C   0  0  0  0  0  0  0  0  0  0  0  0
   57.4756   27.9951   43.2242 H   0  0  0  0  0  0  0  0  0  0  0  0
   57.4900   29.1610   45.0560 C   0  0  0  0  0  0  0  0  0  0  0  0
   56.2650   29.9250   44.7190 C   0  0  0  0  0  0  0  0  0  0  0  0
   55.1720   29.3090   44.6100 O   0  0  0  0  0  0  0  0  0  0  0  0
   56.2820   31.3410   44.4800 N   0  0  0  0  0  0  0  0  0  0  0  0
   57.2570   32.1410   44.7950 C   0  0  0  0  0  0  0  0  0  0  0  0
   57.8830   32.1490   45.9460 O   0  0  0  0  0  0  0  0  0  0  0  0
   58.7790   33.1050   45.8360 C   0  0  0  0  0  0  0  0  0  0  0  0
   59.7360   33.4670   46.8980 C   0  0  0  0  0  0  0  0  0  0  0  0
   61.1160   33.4440   46.6400 C   0  0  0  0  0  0  0  0  0  0  0  0
   61.4809   33.1517   45.6443 H   0  0  0  0  0  0  0  0  0  0  0  0
   62.0290   33.7900   47.6400 C   0  0  0  0  0  0  0  0  0  0  0  0
   63.1081   33.7682   47.4276 H   0  0  0  0  0  0  0  0  0  0  0  0
   61.5740   34.1660   48.9170 C   0  0  0  0  0  0  0  0  0  0  0  0
   62.4510   34.5210   49.9530 O   0  0  0  0  0  0  0  0  0  0  0  0
   63.5530   33.7280   50.3800 C   0  0  0  0  0  0  0  0  0  0  0  0
   63.5843   33.7054   51.4793 H   0  0  0  0  0  0  0  0  0  0  0  0
   63.4386   32.7038   49.9954 H   0  0  0  0  0  0  0  0  0  0  0  0
   64.4878   34.1618   49.9954 H   0  0  0  0  0  0  0  0  0  0  0  0
   60.1990   34.1890   49.1720 C   0  0  0  0  0  0  0  0  0  0  0  0
   59.8347   34.4815   50.1679 H   0  0  0  0  0  0  0  0  0  0  0  0
   59.2830   33.8440   48.1740 C   0  0  0  0  0  0  0  0  0  0  0  0
   58.2043   33.8676   48.3880 H   0  0  0  0  0  0  0  0  0  0  0  0
   58.7120   33.7040   44.6250 N   0  0  0  0  0  0  0  0  0  0  0  0
   57.7410   33.0840   43.9740 N   0  0  0  0  0  0  0  0  0  0  0  0
   57.4320   33.3070   43.0020 H   0  0  0  0  0  0  0  0  0  0  0  0
   58.1410   29.3800   46.2810 C   0  0  0  0  0  0  0  0  0  0  0  0
   57.7338   30.1171   46.9887 H   0  0  0  0  0  0  0  0  0  0  0  0
   59.3090   28.6670   46.6140 C   0  0  0  0  0  0  0  0  0  0  0  0
   59.9860   28.9100   47.8650 N   0  0  0  0  0  0  0  0  0  0  0  0
   60.1890   28.0180   48.8570 C   0  0  0  0  0  0  0  0  0  0  0  0
   59.8602   26.9684   48.8392 H   0  0  0  0  0  0  0  0  0  0  0  0
   60.8700   28.6170   49.8970 C   0  0  0  0  0  0  0  0  0  0  0  0
   61.1775   28.1430   50.8408 H   0  0  0  0  0  0  0  0  0  0  0  0
   61.0900   29.9270   49.5220 C   0  0  0  0  0  0  0  0  0  0  0  0
   61.6083   30.7004   50.1079 H   0  0  0  0  0  0  0  0  0  0  0  0
   60.5330   30.0770   48.2690 C   0  0  0  0  0  0  0  0  0  0  0  0
   60.5341   31.0092   47.6851 H   0  0  0  0  0  0  0  0  0  0  0  0
   59.8070   27.7160   45.7060 C   0  0  0  0  0  0  0  0  0  0  0  0
   60.7204   27.1538   45.9502 H   0  0  0  0  0  0  0  0  0  0  0  0
  1  2  1  0
  2  3  2  0
  3  4  1  0
  3  5  1  0
  5  6  1  0
  6  7  2  0
  6  8  1  0
  8  9  2  0
  9 10  1  0
 10 11  1  0
 11 12  1  0
 12 13  2  0
 13 14  1  0
 13 15  1  0
 15 16  1  0
 15 17  2  0
 17 18  1  0
 18 19  1  0
 19 20  1  0
 19 21  1  0
 19 22  1  0
 17 23  1  0
 23 24  1  0
 23 25  2  0
 25 26  1  0
 11 27  2  0
 27 28  1  0
 28 29  1  0
  5 30  2  0
 30 31  1  0
 30 32  1  0
 32 33  1  0
 33 34  1  0
 34 35  1  0
 34 36  2  0
 36 37  1  0
 36 38  1  0
 38 39  1  0
 38 40  2  0
 40 41  1  0
 32 42  2  0
 42 43  1  0
 42  2  1  0
 28  9  1  0
 40 33  1  0
 25 12  1  0
M  END
>  <UniqueID>  (34) 
32

>  <SMILES>  (34) 
COc1ccc(-c2n[nH]/c(=N/C(=O)c3cccc(-n4cccc4)c3)o2)cc1

>  <Energy>  (34) 
118.17624572067099

>  <Genealogy>  (34) 
COc1ccc(-c2n[nH]/c(=N/C(=O)c3cccc(-n4cccc4)c3)o2)cc1 (cis-trans isomerization)
COc1ccc(-c2n[nH]/c(=N/C(=O)c3cccc(-n4cccc4)c3)o2)cc1 (3D coordinates assigned)
COc1ccc(-c2n[nH]/c(=N/C(=O)c3cccc(-n4cccc4)c3)o2)cc1 (optimized conformer: 118.17624572067099 kcal/mol)

>  <smiles>  (34) 
COc1ccc(-c2n[nH]c(=NC(=O)c3cccc(-n4cccc4)c3)o2)cc1

>  <score_type>  (34) 
oracle

>  <origin>  (34) 
adg

>  <m_score__min__energy>  (34) 
-8.5399999999999991

>  <m_primary>  (34) 
energy

$$$$
34:0
     RDKit          3D

 36 38  0  0  0  0  0  0  0  0999 V2000
   57.6260   31.9210   42.1840 O   0  0  0  0  0  0  0  0  0  0  0  0
   57.6200   31.8760   43.4430 C   0  0  0  0  0  0  0  0  0  0  0  0
   57.7060   33.1090   44.1720 N   0  0  0  0  0  0  0  0  0  0  0  0
   58.3630   33.3040   45.4330 C   0  0  0  0  0  0  0  0  0  0  0  0
   59.4950   34.1280   45.5570 C   0  0  0  0  0  0  0  0  0  0  0  0
   60.1060   34.3040   46.8010 C   0  0  0  0  0  0  0  0  0  0  0  0
   59.5980   33.6580   47.9420 C   0  0  0  0  0  0  0  0  0  0  0  0
   60.2300   33.8860   49.2920 C   0  0  0  0  0  0  0  0  0  0  0  0
   60.5390   32.6780   49.8960 F   0  0  0  0  0  0  0  0  0  0  0  0
   59.3670   34.5760   50.1260 F   0  0  0  0  0  0  0  0  0  0  0  0
   61.3900   34.6200   49.1340 F   0  0  0  0  0  0  0  0  0  0  0  0
   58.4360   32.8780   47.8220 C   0  0  0  0  0  0  0  0  0  0  0  0
   57.8250   32.7030   46.5760 C   0  0  0  0  0  0  0  0  0  0  0  0
   57.4620   30.5680   44.1270 C   0  0  0  0  0  0  0  0  0  0  0  0
   58.5880   29.8040   44.4600 C   0  0  0  0  0  0  0  0  0  0  0  0
   58.4290   28.5730   45.1020 C   0  0  0  0  0  0  0  0  0  0  0  0
   59.5310   27.7760   45.4440 C   0  0  0  0  0  0  0  0  0  0  0  0
   59.3330   26.5510   46.0860 C   0  0  0  0  0  0  0  0  0  0  0  0
   58.0360   26.1050   46.3840 C   0  0  0  0  0  0  0  0  0  0  0  0
   57.8300   24.8040   47.1070 C   0  0  0  0  0  0  0  0  0  0  0  0
   57.7690   23.4680   45.9330 Cl  0  0  0  0  0  0  0  0  0  0  0  0
   56.9340   26.9110   46.0550 C   0  0  0  0  0  0  0  0  0  0  0  0
   57.1250   28.1390   45.4110 C   0  0  0  0  0  0  0  0  0  0  0  0
   56.0770   28.8930   45.0970 O   0  0  0  0  0  0  0  0  0  0  0  0
   56.1910   30.0670   44.4800 C   0  0  0  0  0  0  0  0  0  0  0  0
   55.1460   30.7150   44.2050 O   0  0  0  0  0  0  0  0  0  0  0  0
   59.9017   34.6366   44.6705 H   0  0  0  0  0  0  0  0  0  0  0  0
   60.9904   34.9523   46.8885 H   0  0  0  0  0  0  0  0  0  0  0  0
   58.0035   32.4015   48.7141 H   0  0  0  0  0  0  0  0  0  0  0  0
   56.9159   32.0891   46.4944 H   0  0  0  0  0  0  0  0  0  0  0  0
   59.5955   30.1724   44.2166 H   0  0  0  0  0  0  0  0  0  0  0  0
   60.5503   28.1150   45.2070 H   0  0  0  0  0  0  0  0  0  0  0  0
   60.1998   25.9316   46.3599 H   0  0  0  0  0  0  0  0  0  0  0  0
   58.6629   24.6385   47.8062 H   0  0  0  0  0  0  0  0  0  0  0  0
   56.8822   24.8430   47.6638 H   0  0  0  0  0  0  0  0  0  0  0  0
   55.9164   26.5758   46.3045 H   0  0  0  0  0  0  0  0  0  0  0  0
  1  2  2  0
  2  3  1  0
  3  4  1  0
  4  5  2  0
  5  6  1  0
  6  7  2  0
  7  8  1  0
  8  9  1  0
  8 10  1  0
  8 11  1  0
  7 12  1  0
 12 13  2  0
  2 14  1  0
 14 15  2  0
 15 16  1  0
 16 17  2  0
 17 18  1  0
 18 19  2  0
 19 20  1  0
 20 21  1  0
 19 22  1  0
 22 23  2  0
 23 24  1  0
 24 25  1  0
 25 26  2  0
 13  4  1  0
 25 14  1  0
 23 16  1  0
  5 27  1  0
  6 28  1  0
 12 29  1  0
 13 30  1  0
 15 31  1  0
 17 32  1  0
 18 33  1  0
 20 34  1  0
 20 35  1  0
 22 36  1  0
M  CHG  1   3  -1
M  END
>  <UniqueID>  (35) 
33

>  <SMILES>  (35) 
O=C([N-]c1ccc(C(F)(F)F)cc1)c1cc2ccc(CCl)cc2oc1=O

>  <Energy>  (35) 
50.00016739444738

>  <Genealogy>  (35) 
O=C([N-]c1ccc(C(F)(F)F)cc1)c1cc2ccc(CCl)cc2oc1=O (protonated)
O=C([N-]c1ccc(C(F)(F)F)cc1)c1cc2ccc(CCl)cc2oc1=O (3D coordinates assigned)
O=C([N-]c1ccc(C(F)(F)F)cc1)c1cc2ccc(CCl)cc2oc1=O (optimized conformer: 50.00016739444738 kcal/mol)

>  <smiles>  (35) 
O=C(Nc1ccc(C(F)(F)F)cc1)c1cc2ccc(CCl)cc2oc1=O

>  <score_type>  (35) 
oracle

>  <origin>  (35) 
adg

>  <m_score__min__energy>  (35) 
-8.5800000000000001

>  <m_primary>  (35) 
energy

$$$$
35:0
     RDKit          3D

 56 60  0  0  1  0  0  0  0  0999 V2000
   57.4240   24.8570   44.0890 C   0  0  0  0  0  0  0  0  0  0  0  0
   57.1630   25.3800   45.3560 O   0  0  0  0  0  0  0  0  0  0  0  0
   57.9520   26.2160   46.1010 C   0  0  0  0  0  0  0  0  0  0  0  0
   57.5060   27.2290   46.9130 C   0  0  0  0  0  0  0  0  0  0  0  0
   58.4150   28.0160   47.6260 C   0  0  0  0  0  0  0  0  0  0  0  0
   59.7680   27.8370   47.5640 C   0  0  0  0  0  0  0  0  0  0  0  0
   60.7340   28.5300   48.1990 O   0  0  0  0  0  0  0  0  0  0  0  0
   60.7230   29.5380   49.1450 C   0  0  0  0  0  0  0  0  0  0  0  0
   59.6160   29.5220   50.1390 C   0  0  0  0  0  0  0  0  0  0  0  0
   58.7410   30.6990   50.0620 N   0  0  0  0  0  0  0  0  0  0  0  0
   59.0010   31.5590   48.9330 C   0  0  0  0  0  0  0  0  0  0  0  0
   59.9830   32.5140   49.1400 C   0  0  0  0  0  0  0  0  0  0  0  0
   60.3020   33.3780   48.1140 C   0  0  0  0  0  0  0  0  0  0  0  0
   61.2160   34.2990   48.2710 N   0  0  0  0  0  0  0  0  0  0  0  0
   62.6270   33.9980   48.1640 C   0  0  0  0  0  0  0  0  0  0  0  0
   63.0690   32.6380   47.7030 C   0  0  0  0  0  0  0  0  0  0  0  0
   63.0930   33.7280   46.7000 C   0  0  0  0  0  0  0  0  0  0  0  0
   59.6320   33.2390   46.9550 N   0  0  0  0  0  0  0  0  0  0  0  0
   59.7750   33.9540   45.8510 N   0  0  0  0  0  0  0  0  0  0  0  0
   58.9290   33.5250   44.8970 C   0  0  0  0  0  0  0  0  0  0  0  0
   58.2300   32.4730   45.4840 C   0  0  0  0  0  0  0  0  0  0  0  0
   57.2970   31.7820   44.8490 C   0  0  0  0  0  0  0  0  0  0  0  0
   57.5230   30.3510   44.5450 C   0  0  0  0  0  0  0  0  0  0  0  0
   58.7410   29.8630   44.2150 N   0  0  0  0  0  0  0  0  0  0  0  0
   58.5850   28.5290   44.0020 C   0  0  0  0  0  0  0  0  0  0  0  0
   59.5020   27.7090   43.6720 O   0  0  0  0  0  0  0  0  0  0  0  0
   57.2730   28.2220   44.2030 N   0  0  0  0  0  0  0  0  0  0  0  0
   56.5980   29.3340   44.5400 C   0  0  0  0  0  0  0  0  0  0  0  0
   55.2600   29.5090   44.8350 O   0  0  0  0  0  0  0  0  0  0  0  0
   58.6780   32.2940   46.7900 C   0  0  0  0  0  0  0  0  0  0  0  0
   58.3400   31.4340   47.7710 N   0  0  0  0  0  0  0  0  0  0  0  0
   60.2000   26.7920   46.7260 C   0  0  0  0  0  0  0  0  0  0  0  0
   59.3310   26.0090   46.0190 C   0  0  0  0  0  0  0  0  0  0  0  0
   57.9131   23.8770   44.1905 H   0  0  0  0  0  0  0  0  0  0  0  0
   56.4787   24.7398   43.5388 H   0  0  0  0  0  0  0  0  0  0  0  0
   58.0860   25.5419   43.5388 H   0  0  0  0  0  0  0  0  0  0  0  0
   56.4269   27.4226   47.0031 H   0  0  0  0  0  0  0  0  0  0  0  0
   58.0220   28.8181   48.2680 H   0  0  0  0  0  0  0  0  0  0  0  0
   61.6697   29.4800   49.7022 H   0  0  0  0  0  0  0  0  0  0  0  0
   60.5773   30.4653   48.5714 H   0  0  0  0  0  0  0  0  0  0  0  0
   59.0061   28.6231   49.9661 H   0  0  0  0  0  0  0  0  0  0  0  0
   60.0781   29.5277   51.1372 H   0  0  0  0  0  0  0  0  0  0  0  0
   57.9970   30.8960   50.7580 H   0  0  0  0  0  0  0  0  0  0  0  0
   60.5004   32.5819   50.1083 H   0  0  0  0  0  0  0  0  0  0  0  0
   62.9058   34.6325   49.0182 H   0  0  0  0  0  0  0  0  0  0  0  0
   64.0176   32.2225   48.0738 H   0  0  0  0  0  0  0  0  0  0  0  0
   62.6073   31.6399   47.7292 H   0  0  0  0  0  0  0  0  0  0  0  0
   64.0530   34.1291   46.3431 H   0  0  0  0  0  0  0  0  0  0  0  0
   62.6610   33.8814   45.7001 H   0  0  0  0  0  0  0  0  0  0  0  0
   58.8144   33.9190   43.8764 H   0  0  0  0  0  0  0  0  0  0  0  0
   56.3576   32.2689   44.5484 H   0  0  0  0  0  0  0  0  0  0  0  0
   59.6400   30.4110   44.1390 H   0  0  0  0  0  0  0  0  0  0  0  0
   56.8180   27.2860   44.1210 H   0  0  0  0  0  0  0  0  0  0  0  0
   54.7590   28.9640   45.5260 H   0  0  0  0  0  0  0  0  0  0  0  0
   61.2790   26.5979   46.6366 H   0  0  0  0  0  0  0  0  0  0  0  0
   59.7224   25.2058   45.3774 H   0  0  0  0  0  0  0  0  0  0  0  0
  1  2  1  0
  2  3  1  0
  3  4  2  0
  4  5  1  0
  5  6  2  0
  6  7  1  0
  7  8  1  0
  8  9  1  0
  9 10  1  0
 10 11  1  0
 11 12  2  0
 12 13  1  0
 13 14  2  0
 14 15  1  0
 15 16  1  0
 16 17  1  0
 13 18  1  0
 18 19  1  0
 19 20  2  0
 20 21  1  0
 21 22  2  0
 22 23  1  0
 23 24  1  0
 24 25  1  0
 25 26  2  0
 25 27  1  0
 27 28  1  0
 28 29  1  0
 21 30  1  0
 30 31  2  0
  6 32  1  0
 32 33  2  0
 33  3  1  0
 31 11  1  0
 17 15  1  0
 30 18  1  0
 28 23  2  0
  1 34  1  0
  1 35  1  0
  1 36  1  0
  4 37  1  0
  5 38  1  0
  8 39  1  0
  8 40  1  0
  9 41  1  0
  9 42  1  0
 10 43  1  0
 12 44  1  0
 15 45  1  0
 16 46  1  0
 16 47  1  0
 17 48  1  0
 17 49  1  0
 20 50  1  0
 22 51  1  0
 24 52  1  0
 27 53  1  0
 29 54  1  0
 32 55  1  0
 33 56  1  0
M  END
>  <smiles>  (36) 
COc1ccc(OCCNc2cc(=NC3CC3)n3ncc(=Cc4[nH]c(=O)[nH]c4O)c3n2)cc1

>  <score_type>  (36) 
oracle

>  <origin>  (36) 
adg

>  <m_score__min__energy>  (36) 
-9

>  <m_primary>  (36) 
energy

$$$$
36:0
     RDKit          3D

 49 52  0  0  0  0  0  0  0  0999 V2000
   62.7860   34.3440   49.1000 C   0  0  0  0  0  0  0  0  0  0  0  0
   62.0140   33.1360   48.6620 C   0  0  0  0  0  0  0  0  0  0  0  0
   60.9410   32.6650   49.4320 C   0  0  0  0  0  0  0  0  0  0  0  0
   60.2440   31.5170   49.0440 C   0  0  0  0  0  0  0  0  0  0  0  0
   60.6180   30.8140   47.8860 C   0  0  0  0  0  0  0  0  0  0  0  0
   59.8860   29.6010   47.4720 C   0  0  0  0  0  0  0  0  0  0  0  0
   60.1800   28.8900   46.3620 N   0  0  0  0  0  0  0  0  0  0  0  0
   59.2740   27.8940   46.3880 C   0  0  0  0  0  0  0  0  0  0  0  0
   59.1600   26.8290   45.3290 C   0  0  0  0  0  0  0  0  0  0  0  0
   57.8550   26.8340   44.6310 N   0  0  0  0  0  0  0  0  0  0  0  0
   57.4560   25.4800   44.2030 C   0  0  0  0  0  0  0  0  0  0  0  0
   57.8250   27.7930   43.5070 C   0  0  0  0  0  0  0  0  0  0  0  0
   57.4640   29.1600   43.9980 C   0  0  0  0  0  0  0  0  0  0  0  0
   56.1900   29.6480   44.1840 C   0  0  0  0  0  0  0  0  0  0  0  0
   56.3040   30.8630   44.6570 O   0  0  0  0  0  0  0  0  0  0  0  0
   57.5900   31.1230   44.7680 C   0  0  0  0  0  0  0  0  0  0  0  0
   58.1260   32.4030   45.2720 C   0  0  0  0  0  0  0  0  0  0  0  0
   58.6640   33.3540   44.3850 C   0  0  0  0  0  0  0  0  0  0  0  0
   59.1710   34.5630   44.8690 C   0  0  0  0  0  0  0  0  0  0  0  0
   59.1460   34.8380   46.2430 C   0  0  0  0  0  0  0  0  0  0  0  0
   59.6490   36.0400   46.7360 O   0  0  0  0  0  0  0  0  0  0  0  0
   58.6120   33.8970   47.1280 C   0  0  0  0  0  0  0  0  0  0  0  0
   58.1050   32.6860   46.6470 C   0  0  0  0  0  0  0  0  0  0  0  0
   58.3640   30.0880   44.3720 N   0  0  0  0  0  0  0  0  0  0  0  0
   58.4670   28.0320   47.4940 C   0  0  0  0  0  0  0  0  0  0  0  0
   58.8730   29.0940   48.1430 O   0  0  0  0  0  0  0  0  0  0  0  0
   61.7050   31.2790   47.1260 C   0  0  0  0  0  0  0  0  0  0  0  0
   62.4010   32.4270   47.5160 C   0  0  0  0  0  0  0  0  0  0  0  0
   62.8117   34.3841   50.1990 H   0  0  0  0  0  0  0  0  0  0  0  0
   63.8132   34.2835   48.7112 H   0  0  0  0  0  0  0  0  0  0  0  0
   62.2996   35.2508   48.7112 H   0  0  0  0  0  0  0  0  0  0  0  0
   60.6462   33.2015   50.3459 H   0  0  0  0  0  0  0  0  0  0  0  0
   59.3970   31.1615   49.6492 H   0  0  0  0  0  0  0  0  0  0  0  0
   59.9543   26.9900   44.5852 H   0  0  0  0  0  0  0  0  0  0  0  0
   59.2554   25.8564   45.8339 H   0  0  0  0  0  0  0  0  0  0  0  0
   57.2718   24.8548   45.0891 H   0  0  0  0  0  0  0  0  0  0  0  0
   56.5378   25.5416   43.6004 H   0  0  0  0  0  0  0  0  0  0  0  0
   58.2609   25.0339   43.6004 H   0  0  0  0  0  0  0  0  0  0  0  0
   58.8174   27.8281   43.0337 H   0  0  0  0  0  0  0  0  0  0  0  0
   57.0701   27.4647   42.7774 H   0  0  0  0  0  0  0  0  0  0  0  0
   55.2507   29.1155   43.9740 H   0  0  0  0  0  0  0  0  0  0  0  0
   58.6855   33.1446   43.3053 H   0  0  0  0  0  0  0  0  0  0  0  0
   59.5909   35.3009   44.1695 H   0  0  0  0  0  0  0  0  0  0  0  0
   59.1000   36.6310   47.3500 H   0  0  0  0  0  0  0  0  0  0  0  0
   58.5906   34.1100   48.2070 H   0  0  0  0  0  0  0  0  0  0  0  0
   57.6871   31.9505   47.3502 H   0  0  0  0  0  0  0  0  0  0  0  0
   57.6347   27.3721   47.7799 H   0  0  0  0  0  0  0  0  0  0  0  0
   62.0099   30.7364   46.2190 H   0  0  0  0  0  0  0  0  0  0  0  0
   63.2573   32.7761   46.9203 H   0  0  0  0  0  0  0  0  0  0  0  0
  1  2  1  0
  2  3  2  0
  3  4  1  0
  4  5  2  0
  5  6  1  0
  6  7  2  0
  7  8  1  0
  8  9  1  0
  9 10  1  0
 10 11  1  0
 10 12  1  0
 12 13  1  0
 13 14  2  0
 14 15  1  0
 15 16  1  0
 16 17  1  0
 17 18  2  0
 18 19  1  0
 19 20  2  0
 20 21  1  0
 20 22  1  0
 22 23  2  0
 16 24  2  0
  8 25  2  0
 25 26  1  0
  5 27  1  0
 27 28  2  0
 28  2  1  0
 26  6  1  0
 24 13  1  0
 23 17  1  0
  1 29  1  0
  1 30  1  0
  1 31  1  0
  3 32  1  0
  4 33  1  0
  9 34  1  0
  9 35  1  0
 11 36  1  0
 11 37  1  0
 11 38  1  0
 12 39  1  0
 12 40  1  0
 14 41  1  0
 18 42  1  0
 19 43  1  0
 21 44  1  0
 22 45  1  0
 23 46  1  0
 25 47  1  0
 27 48  1  0
 28 49  1  0
M  END
>  <UniqueID>  (37) 
34

>  <SMILES>  (37) 
Cc1ccc(-c2nc(CN(C)Cc3coc(-c4ccc(O)cc4)n3)co2)cc1

>  <Energy>  (37) 
112.40190876710969

>  <Genealogy>  (37) 
Cc1ccc(-c2nc(CN(C)Cc3coc(-c4ccc(O)cc4)n3)co2)cc1 (3D coordinates assigned)
Cc1ccc(-c2nc(CN(C)Cc3coc(-c4ccc(O)cc4)n3)co2)cc1 (optimized conformer: 112.40190876710969 kcal/mol)

>  <smiles>  (37) 
Cc1ccc(-c2nc(CN(C)Cc3coc(-c4ccc(O)cc4)n3)co2)cc1

>  <score_type>  (37) 
oracle

>  <origin>  (37) 
adg

>  <m_score__min__energy>  (37) 
-8.0800000000000001

>  <m_primary>  (37) 
energy

$$$$
37:0
     RDKit          3D

 59 63  0  0  0  0  0  0  0  0999 V2000
   57.6598   30.6090   51.0560 H   0  0  0  0  0  0  0  0  0  0  0  0
   58.3310   31.0820   50.3240 C   0  0  0  0  0  0  0  0  0  0  0  0
   58.2360   32.3550   49.8900 N   0  0  0  0  0  0  0  0  0  0  0  0
   59.2500   32.4890   49.0090 C   0  0  0  0  0  0  0  0  0  0  0  0
   59.5230   33.7590   48.3090 C   0  0  0  0  0  0  0  0  0  0  0  0
   60.2430   34.6290   48.8650 O   0  0  0  0  0  0  0  0  0  0  0  0
   59.0330   34.0120   46.9840 N   0  0  0  0  0  0  0  0  0  0  0  0
   59.5720   33.4220   45.7620 C   0  0  0  0  0  0  0  0  0  0  0  0
   60.5669   33.0014   45.9703 H   0  0  0  0  0  0  0  0  0  0  0  0
   59.6469   34.2025   44.9905 H   0  0  0  0  0  0  0  0  0  0  0  0
   58.6650   32.3290   45.2660 C   0  0  0  0  0  0  0  0  0  0  0  0
   57.8470   32.5310   44.1440 C   0  0  0  0  0  0  0  0  0  0  0  0
   57.8436   33.5074   43.6375 H   0  0  0  0  0  0  0  0  0  0  0  0
   57.0380   31.4990   43.6680 C   0  0  0  0  0  0  0  0  0  0  0  0
   56.4053   31.6619   42.7830 H   0  0  0  0  0  0  0  0  0  0  0  0
   57.0290   30.2590   44.3120 C   0  0  0  0  0  0  0  0  0  0  0  0
   56.3859   29.4513   43.9325 H   0  0  0  0  0  0  0  0  0  0  0  0
   57.8370   30.0360   45.4430 C   0  0  0  0  0  0  0  0  0  0  0  0
   57.8150   28.7270   46.1380 C   0  0  0  0  0  0  0  0  0  0  0  0
   58.8060   28.3720   46.8330 O   0  0  0  0  0  0  0  0  0  0  0  0
   56.6590   27.8800   46.0190 N   0  0  0  0  0  0  0  0  0  0  0  0
   56.6120   26.6390   45.6250 C   0  0  0  0  0  0  0  0  0  0  0  0
   55.5980   25.8160   45.9860 N   0  0  0  0  0  0  0  0  0  0  0  0
   55.7700   24.5610   45.4810 C   0  0  0  0  0  0  0  0  0  0  0  0
   56.8880   24.4010   44.6830 C   0  0  0  0  0  0  0  0  0  0  0  0
   57.7500   25.8460   44.6470 S   0  0  0  0  0  0  0  0  0  0  0  0
   57.2770   23.0890   44.0760 C   0  0  0  0  0  0  0  0  0  0  0  0
   57.6996   23.2617   43.0752 H   0  0  0  0  0  0  0  0  0  0  0  0
   58.0255   22.6019   44.7182 H   0  0  0  0  0  0  0  0  0  0  0  0
   56.0890   22.2110   43.9620 N   0  0  0  0  0  0  0  0  0  0  0  0
   56.4930   20.8790   43.4830 C   0  0  0  0  0  0  0  0  0  0  0  0
   56.6916   20.2243   44.3443 H   0  0  0  0  0  0  0  0  0  0  0  0
   55.6852   20.4480   42.8734 H   0  0  0  0  0  0  0  0  0  0  0  0
   57.4041   20.9694   42.8734 H   0  0  0  0  0  0  0  0  0  0  0  0
   55.3900   22.0950   45.2630 C   0  0  0  0  0  0  0  0  0  0  0  0
   54.5880   21.3471   45.1772 H   0  0  0  0  0  0  0  0  0  0  0  0
   56.1161   21.7875   46.0299 H   0  0  0  0  0  0  0  0  0  0  0  0
   54.7780   23.4500   45.6720 C   0  0  0  0  0  0  0  0  0  0  0  0
   53.8912   23.6474   45.0518 H   0  0  0  0  0  0  0  0  0  0  0  0
   54.4986   23.4049   46.7350 H   0  0  0  0  0  0  0  0  0  0  0  0
   58.6630   31.0790   45.9060 C   0  0  0  0  0  0  0  0  0  0  0  0
   59.3130   30.9126   46.7777 H   0  0  0  0  0  0  0  0  0  0  0  0
   59.9650   31.3460   48.8580 N   0  0  0  0  0  0  0  0  0  0  0  0
   61.2320   31.1530   48.1370 C   0  0  0  0  0  0  0  0  0  0  0  0
   61.4257   30.0753   48.0315 H   0  0  0  0  0  0  0  0  0  0  0  0
   61.1492   31.6273   47.1480 H   0  0  0  0  0  0  0  0  0  0  0  0
   62.3870   31.7950   48.8880 C   0  0  0  0  0  0  0  0  0  0  0  0
   63.0690   32.8970   48.3240 C   0  0  0  0  0  0  0  0  0  0  0  0
   62.5970   33.5950   46.7760 Cl  0  0  0  0  0  0  0  0  0  0  0  0
   64.1630   33.4590   48.9890 C   0  0  0  0  0  0  0  0  0  0  0  0
   64.6893   34.3166   48.5445 H   0  0  0  0  0  0  0  0  0  0  0  0
   64.5930   32.9420   50.2110 C   0  0  0  0  0  0  0  0  0  0  0  0
   65.4467   33.3989   50.7330 H   0  0  0  0  0  0  0  0  0  0  0  0
   63.9380   31.8440   50.7700 C   0  0  0  0  0  0  0  0  0  0  0  0
   64.2816   31.4345   51.7314 H   0  0  0  0  0  0  0  0  0  0  0  0
   62.8450   31.2590   50.1150 C   0  0  0  0  0  0  0  0  0  0  0  0
   62.0990   29.8450   50.8620 Cl  0  0  0  0  0  0  0  0  0  0  0  0
   59.3970   30.4660   49.7100 C   0  0  0  0  0  0  0  0  0  0  0  0
   59.7300   29.4321   49.8837 H   0  0  0  0  0  0  0  0  0  0  0  0
  1  2  1  0
  2  3  1  0
  3  4  2  0
  4  5  1  0
  5  6  2  0
  5  7  1  0
  7  8  1  0
  8  9  1  0
  8 10  1  0
  8 11  1  0
 11 12  2  0
 12 13  1  0
 12 14  1  0
 14 15  1  0
 14 16  2  0
 16 17  1  0
 16 18  1  0
 18 19  1  0
 19 20  2  0
 19 21  1  0
 21 22  2  0
 22 23  1  0
 23 24  1  0
 24 25  2  0
 25 26  1  0
 25 27  1  0
 27 28  1  0
 27 29  1  0
 27 30  1  0
 30 31  1  0
 31 32  1  0
 31 33  1  0
 31 34  1  0
 30 35  1  0
 35 36  1  0
 35 37  1  0
 35 38  1  0
 38 39  1  0
 38 40  1  0
 18 41  2  0
 41 42  1  0
  4 43  1  0
 43 44  1  0
 44 45  1  0
 44 46  1  0
 44 47  1  0
 47 48  2  0
 48 49  1  0
 48 50  1  0
 50 51  1  0
 50 52  2  0
 52 53  1  0
 52 54  1  0
 54 55  1  0
 54 56  2  0
 56 57  1  0
 43 58  1  0
 58 59  1  0
 58  2  2  0
 41 11  1  0
 56 47  1  0
 26 22  1  0
 38 24  1  0
M  CHG  2   7  -1  23  -1
M  END
>  <UniqueID>  (38) 
35

>  <SMILES>  (38) 
CN1CCc2[n-]/c(=N/C(=O)c3cccc(C[N-]C(=O)c4nccn4Cc4c(Cl)cccc4Cl)c3)sc2C1

>  <Energy>  (38) 
134.95954979995184

>  <Genealogy>  (38) 
CN1CCc2[n-]c(=NC(=O)c3cccc(C[N-]C(=O)c4nccn4Cc4c(Cl)cccc4Cl)c3)sc2C1 (protonated)
CN1CCc2[n-]/c(=N/C(=O)c3cccc(C[N-]C(=O)c4nccn4Cc4c(Cl)cccc4Cl)c3)sc2C1 (cis-trans isomerization)
CN1CCc2[n-]/c(=N/C(=O)c3cccc(C[N-]C(=O)c4nccn4Cc4c(Cl)cccc4Cl)c3)sc2C1 (3D coordinates assigned)
CN1CCc2[n-]/c(=N/C(=O)c3cccc(C[N-]C(=O)c4nccn4Cc4c(Cl)cccc4Cl)c3)sc2C1 (nonaromatic ring conformer: 134.95954979995184 kcal/mol)

>  <smiles>  (38) 
CN1CCc2[nH]c(=NC(=O)c3cccc(CNC(=O)c4nccn4Cc4c(Cl)cccc4Cl)c3)sc2C1

>  <score_type>  (38) 
oracle

>  <origin>  (38) 
adg

>  <m_score__min__energy>  (38) 
-12.279999999999999

>  <m_primary>  (38) 
energy

$$$$
38:0
     RDKit          3D

 35 36  0  0  0  0  0  0  0  0999 V2000
   60.2548   28.8466   44.5973 H   0  0  0  0  0  0  0  0  0  0  0  0
   59.4400   28.1630   44.8780 C   0  0  0  0  0  0  0  0  0  0  0  0
   59.6070   26.7190   45.7260 S   0  0  0  0  0  0  0  0  0  0  0  0
   57.9660   26.3690   45.6760 C   0  0  0  0  0  0  0  0  0  0  0  0
   57.4560   25.3030   46.2250 N   0  0  0  0  0  0  0  0  0  0  0  0
   56.0700   24.9540   46.3670 C   0  0  0  0  0  0  0  0  0  0  0  0
   55.1530   25.7330   45.9940 O   0  0  0  0  0  0  0  0  0  0  0  0
   55.7110   23.5890   46.8510 C   0  0  0  0  0  0  0  0  0  0  0  0
   55.7083   23.5789   47.9510 H   0  0  0  0  0  0  0  0  0  0  0  0
   54.7114   23.3193   46.4794 H   0  0  0  0  0  0  0  0  0  0  0  0
   56.4486   22.8624   46.4794 H   0  0  0  0  0  0  0  0  0  0  0  0
   57.2720   27.3390   45.0330 N   0  0  0  0  0  0  0  0  0  0  0  0
   56.2390   27.3650   44.9010 H   0  0  0  0  0  0  0  0  0  0  0  0
   58.0860   28.3400   44.5940 C   0  0  0  0  0  0  0  0  0  0  0  0
   57.5640   29.5120   43.8170 C   0  0  0  0  0  0  0  0  0  0  0  0
   57.2872   29.1816   42.8050 H   0  0  0  0  0  0  0  0  0  0  0  0
   58.3481   30.2815   43.7622 H   0  0  0  0  0  0  0  0  0  0  0  0
   56.3550   30.0950   44.4960 C   0  0  0  0  0  0  0  0  0  0  0  0
   55.3580   29.3580   44.7160 O   0  0  0  0  0  0  0  0  0  0  0  0
   56.2820   31.4810   44.8530 N   0  0  0  0  0  0  0  0  0  0  0  0
   57.3830   32.3210   45.2280 C   0  0  0  0  0  0  0  0  0  0  0  0
   57.5910   33.5660   44.6080 C   0  0  0  0  0  0  0  0  0  0  0  0
   56.8876   33.9187   43.8394 H   0  0  0  0  0  0  0  0  0  0  0  0
   58.6860   34.3570   44.9630 C   0  0  0  0  0  0  0  0  0  0  0  0
   58.8342   35.3368   44.4855 H   0  0  0  0  0  0  0  0  0  0  0  0
   59.5920   33.9050   45.9230 C   0  0  0  0  0  0  0  0  0  0  0  0
   60.4506   34.5319   46.2056 H   0  0  0  0  0  0  0  0  0  0  0  0
   59.4110   32.6580   46.5260 C   0  0  0  0  0  0  0  0  0  0  0  0
   60.1322   32.3038   47.2772 H   0  0  0  0  0  0  0  0  0  0  0  0
   58.3090   31.8510   46.1770 C   0  0  0  0  0  0  0  0  0  0  0  0
   58.0970   30.5890   46.7530 O   0  0  0  0  0  0  0  0  0  0  0  0
   58.9490   29.9930   47.7260 C   0  0  0  0  0  0  0  0  0  0  0  0
   58.5877   30.2457   48.7338 H   0  0  0  0  0  0  0  0  0  0  0  0
   58.9439   28.9005   47.5979 H   0  0  0  0  0  0  0  0  0  0  0  0
   59.9735   30.3724   47.5979 H   0  0  0  0  0  0  0  0  0  0  0  0
  1  2  1  0
  2  3  1  0
  3  4  1  0
  4  5  2  0
  5  6  1  0
  6  7  2  0
  6  8  1  0
  8  9  1  0
  8 10  1  0
  8 11  1  0
  4 12  1  0
 12 13  1  0
 12 14  1  0
 14 15  1  0
 15 16  1  0
 15 17  1  0
 15 18  1  0
 18 19  2  0
 18 20  1  0
 20 21  1  0
 21 22  2  0
 22 23  1  0
 22 24  1  0
 24 25  1  0
 24 26  2  0
 26 27  1  0
 26 28  1  0
 28 29  1  0
 28 30  2  0
 30 31  1  0
 31 32  1  0
 32 33  1  0
 32 34  1  0
 32 35  1  0
 14  2  2  0
 30 21  1  0
M  CHG  1  20  -1
M  END
>  <UniqueID>  (39) 
36

>  <SMILES>  (39) 
COc1ccccc1[N-]C(=O)Cc1cs/c(=N/C(C)=O)[nH]1

>  <Energy>  (39) 
70.7260309349433

>  <Genealogy>  (39) 
COc1ccccc1[N-]C(=O)Cc1csc(=NC(C)=O)[nH]1 (protonated)
COc1ccccc1[N-]C(=O)Cc1cs/c(=N/C(C)=O)[nH]1 (cis-trans isomerization)
COc1ccccc1[N-]C(=O)Cc1cs/c(=N/C(C)=O)[nH]1 (3D coordinates assigned)
COc1ccccc1[N-]C(=O)Cc1cs/c(=N/C(C)=O)[nH]1 (optimized conformer: 70.7260309349433 kcal/mol)

>  <smiles>  (39) 
COc1ccccc1NC(=O)Cc1csc(=NC(C)=O)[nH]1

>  <score_type>  (39) 
oracle

>  <origin>  (39) 
adg

>  <m_score__min__energy>  (39) 
-9.5500000000000007

>  <m_primary>  (39) 
energy

$$$$
39:0
     RDKit          3D

 70 73  0  0  0  0  0  0  0  0999 V2000
   59.5675   28.0253   51.9931 H   0  0  0  0  0  0  0  0  0  0  0  0
   59.7470   28.7430   51.1790 C   0  0  0  0  0  0  0  0  0  0  0  0
   58.9320   29.9830   51.1620 C   0  0  0  0  0  0  0  0  0  0  0  0
   57.7000   29.9080   50.9040 O   0  0  0  0  0  0  0  0  0  0  0  0
   59.5180   31.2670   51.4650 N   0  0  0  0  0  0  0  0  0  0  0  0
   60.7970   31.3570   52.1890 C   0  0  0  0  0  0  0  0  0  0  0  0
   60.7529   30.7026   53.0721 H   0  0  0  0  0  0  0  0  0  0  0  0
   61.5996   31.0447   51.5046 H   0  0  0  0  0  0  0  0  0  0  0  0
   61.0940   32.7940   52.6490 C   0  0  0  0  0  0  0  0  0  0  0  0
   60.3875   33.0577   53.4498 H   0  0  0  0  0  0  0  0  0  0  0  0
   62.1380   32.8172   52.9946 H   0  0  0  0  0  0  0  0  0  0  0  0
   60.9620   33.8400   51.5110 C   0  0  0  0  0  0  0  0  0  0  0  0
   60.6070   34.7549   52.0078 H   0  0  0  0  0  0  0  0  0  0  0  0
   62.3170   34.2200   50.8560 C   0  0  0  0  0  0  0  0  0  0  0  0
   62.3243   35.3074   50.6901 H   0  0  0  0  0  0  0  0  0  0  0  0
   63.1022   33.8825   51.5485 H   0  0  0  0  0  0  0  0  0  0  0  0
   62.5930   33.5390   49.5320 C   0  0  0  0  0  0  0  0  0  0  0  0
   62.3220   34.1940   48.3180 C   0  0  0  0  0  0  0  0  0  0  0  0
   61.9273   35.2207   48.3260 H   0  0  0  0  0  0  0  0  0  0  0  0
   62.5520   33.5460   47.1000 C   0  0  0  0  0  0  0  0  0  0  0  0
   62.3232   34.0582   46.1538 H   0  0  0  0  0  0  0  0  0  0  0  0
   63.0720   32.2490   47.0830 C   0  0  0  0  0  0  0  0  0  0  0  0
   63.2408   31.7366   46.1244 H   0  0  0  0  0  0  0  0  0  0  0  0
   63.3770   31.6040   48.2820 C   0  0  0  0  0  0  0  0  0  0  0  0
   63.7992   30.5884   48.2673 H   0  0  0  0  0  0  0  0  0  0  0  0
   63.1470   32.2460   49.5010 C   0  0  0  0  0  0  0  0  0  0  0  0
   63.4006   31.7374   50.4428 H   0  0  0  0  0  0  0  0  0  0  0  0
   59.8780   33.4700   50.4650 C   0  0  0  0  0  0  0  0  0  0  0  0
   59.3650   34.3889   50.1450 H   0  0  0  0  0  0  0  0  0  0  0  0
   60.3775   32.9775   49.6177 H   0  0  0  0  0  0  0  0  0  0  0  0
   58.8430   32.4990   51.0320 C   0  0  0  0  0  0  0  0  0  0  0  0
   58.3370   32.9623   51.8918 H   0  0  0  0  0  0  0  0  0  0  0  0
   58.0999   32.2590   50.2573 H   0  0  0  0  0  0  0  0  0  0  0  0
   60.6880   28.4340   50.2720 C   0  0  0  0  0  0  0  0  0  0  0  0
   61.6409   28.0330   50.6477 H   0  0  0  0  0  0  0  0  0  0  0  0
   60.5450   28.5900   48.8070 C   0  0  0  0  0  0  0  0  0  0  0  0
   60.3620   29.8710   48.2690 C   0  0  0  0  0  0  0  0  0  0  0  0
   60.3489   30.7469   48.9344 H   0  0  0  0  0  0  0  0  0  0  0  0
   60.1960   30.0420   46.8920 C   0  0  0  0  0  0  0  0  0  0  0  0
   60.0773   31.0536   46.4765 H   0  0  0  0  0  0  0  0  0  0  0  0
   60.1800   28.9300   46.0370 C   0  0  0  0  0  0  0  0  0  0  0  0
   60.0560   29.1150   44.5500 C   0  0  0  0  0  0  0  0  0  0  0  0
   60.8337   28.5273   44.0403 H   0  0  0  0  0  0  0  0  0  0  0  0
   60.1803   30.1787   44.2990 H   0  0  0  0  0  0  0  0  0  0  0  0
   58.7310   28.6580   44.1140 N   0  0  0  0  0  0  0  0  0  0  0  0
   58.3290   29.3560   43.4430 H   0  0  0  0  0  0  0  0  0  0  0  0
   57.8050   28.4510   45.2390 C   0  0  0  0  0  0  0  0  0  0  0  0
   58.3369   28.6770   46.1750 H   0  0  0  0  0  0  0  0  0  0  0  0
   57.4685   27.4046   45.1954 H   0  0  0  0  0  0  0  0  0  0  0  0
   56.5470   29.3380   45.1650 C   0  0  0  0  0  0  0  0  0  0  0  0
   56.2135   29.5705   46.1871 H   0  0  0  0  0  0  0  0  0  0  0  0
   55.7700   28.7879   44.6139 H   0  0  0  0  0  0  0  0  0  0  0  0
   56.8120   30.5910   44.4550 N   0  0  0  0  0  0  0  0  0  0  0  0
   57.4430   31.6410   44.9050 C   0  0  0  0  0  0  0  0  0  0  0  0
   57.7150   31.7100   46.2350 N   0  0  0  0  0  0  0  0  0  0  0  0
   58.3660   32.7650   46.7930 C   0  0  0  0  0  0  0  0  0  0  0  0
   58.5615   32.7792   47.8754 H   0  0  0  0  0  0  0  0  0  0  0  0
   58.7880   33.8330   45.9930 C   0  0  0  0  0  0  0  0  0  0  0  0
   59.4690   35.0200   46.6080 C   0  0  0  0  0  0  0  0  0  0  0  0
   59.4239   34.9413   47.7043 H   0  0  0  0  0  0  0  0  0  0  0  0
   60.5203   35.0475   46.2853 H   0  0  0  0  0  0  0  0  0  0  0  0
   58.9622   35.9414   46.2853 H   0  0  0  0  0  0  0  0  0  0  0  0
   58.5050   33.8010   44.6220 C   0  0  0  0  0  0  0  0  0  0  0  0
   58.8072   34.6411   43.9794 H   0  0  0  0  0  0  0  0  0  0  0  0
   57.8400   32.7050   44.0690 C   0  0  0  0  0  0  0  0  0  0  0  0
   57.6275   32.6717   42.9902 H   0  0  0  0  0  0  0  0  0  0  0  0
   60.3440   27.6450   46.5760 C   0  0  0  0  0  0  0  0  0  0  0  0
   60.3428   26.7683   45.9117 H   0  0  0  0  0  0  0  0  0  0  0  0
   60.5090   27.4740   47.9540 C   0  0  0  0  0  0  0  0  0  0  0  0
   60.6110   26.4616   48.3720 H   0  0  0  0  0  0  0  0  0  0  0  0
  1  2  1  0
  2  3  1  0
  3  4  2  0
  3  5  1  0
  5  6  1  0
  6  7  1  0
  6  8  1  0
  6  9  1  0
  9 10  1  0
  9 11  1  0
  9 12  1  0
 12 13  1  0
 12 14  1  0
 14 15  1  0
 14 16  1  0
 14 17  1  0
 17 18  2  0
 18 19  1  0
 18 20  1  0
 20 21  1  0
 20 22  2  0
 22 23  1  0
 22 24  1  0
 24 25  1  0
 24 26  2  0
 26 27  1  0
 12 28  1  0
 28 29  1  0
 28 30  1  0
 28 31  1  0
 31 32  1  0
 31 33  1  0
  2 34  2  3
 34 35  1  0
 34 36  1  0
 36 37  2  0
 37 38  1  0
 37 39  1  0
 39 40  1  0
 39 41  2  0
 41 42  1  0
 42 43  1  0
 42 44  1  0
 42 45  1  0
 45 46  1  0
 45 47  1  0
 47 48  1  0
 47 49  1  0
 47 50  1  0
 50 51  1  0
 50 52  1  0
 50 53  1  0
 53 54  2  0
 54 55  1  0
 55 56  1  0
 56 57  1  0
 56 58  2  0
 58 59  1  0
 59 60  1  0
 59 61  1  0
 59 62  1  0
 58 63  1  0
 63 64  1  0
 63 65  2  0
 65 66  1  0
 41 67  1  0
 67 68  1  0
 67 69  2  0
 69 70  1  0
 31  5  1  0
 69 36  1  0
 26 17  1  0
 65 54  1  0
M  CHG  1  55  -1
M  END
>  <UniqueID>  (40) 
37

>  <SMILES>  (40) 
Cc1cc/c(=N\CCNCc2ccc(C=CC(=O)N3CCC(Cc4ccccc4)CC3)cc2)[n-]c1

>  <Energy>  (40) 
84.97826992018366

>  <Genealogy>  (40) 
Cc1ccc(=NCCNCc2ccc(C=CC(=O)N3CCC(Cc4ccccc4)CC3)cc2)[n-]c1 (protonated)
Cc1cc/c(=N\CCNCc2ccc(C=CC(=O)N3CCC(Cc4ccccc4)CC3)cc2)[n-]c1 (cis-trans isomerization)
Cc1cc/c(=N\CCNCc2ccc(C=CC(=O)N3CCC(Cc4ccccc4)CC3)cc2)[n-]c1 (3D coordinates assigned)
Cc1cc/c(=N\CCNCc2ccc(C=CC(=O)N3CCC(Cc4ccccc4)CC3)cc2)[n-]c1 (nonaromatic ring conformer: 84.97826992018366 kcal/mol)

>  <smiles>  (40) 
Cc1ccc(=NCCNCc2ccc(C=CC(=O)N3CCC(Cc4ccccc4)CC3)cc2)[nH]c1

>  <score_type>  (40) 
oracle

>  <origin>  (40) 
adg

>  <m_score__min__energy>  (40) 
-11.300000000000001

>  <m_primary>  (40) 
energy

$$$$
40:0
     RDKit          3D

 42 44  0  0  0  0  0  0  0  0999 V2000
   60.0053   26.7873   48.4202 H   0  0  0  0  0  0  0  0  0  0  0  0
   59.4710   27.0150   47.4860 C   0  0  0  0  0  0  0  0  0  0  0  0
   60.1490   27.6130   46.4240 C   0  0  0  0  0  0  0  0  0  0  0  0
   61.2174   27.8558   46.5221 H   0  0  0  0  0  0  0  0  0  0  0  0
   59.4750   27.9040   45.2370 C   0  0  0  0  0  0  0  0  0  0  0  0
   60.0157   28.3721   44.4012 H   0  0  0  0  0  0  0  0  0  0  0  0
   58.1050   27.6010   45.1040 C   0  0  0  0  0  0  0  0  0  0  0  0
   57.3840   27.8880   43.9310 O   0  0  0  0  0  0  0  0  0  0  0  0
   57.1480   29.1940   43.4040 C   0  0  0  0  0  0  0  0  0  0  0  0
   58.0957   29.7520   43.3848 H   0  0  0  0  0  0  0  0  0  0  0  0
   56.7413   29.0960   42.3866 H   0  0  0  0  0  0  0  0  0  0  0  0
   56.1580   29.9360   44.2480 C   0  0  0  0  0  0  0  0  0  0  0  0
   55.1810   29.3130   44.7460 O   0  0  0  0  0  0  0  0  0  0  0  0
   56.3960   31.3150   44.5660 N   0  0  0  0  0  0  0  0  0  0  0  0
   57.4000   31.8040   45.2330 C   0  0  0  0  0  0  0  0  0  0  0  0
   58.8510   30.9620   45.4450 S   0  0  0  0  0  0  0  0  0  0  0  0
   59.5510   32.2370   46.2870 C   0  0  0  0  0  0  0  0  0  0  0  0
   60.8300   32.3210   46.8280 C   0  0  0  0  0  0  0  0  0  0  0  0
   61.5343   31.4801   46.7455 H   0  0  0  0  0  0  0  0  0  0  0  0
   61.1990   33.5110   47.4840 C   0  0  0  0  0  0  0  0  0  0  0  0
   62.8130   33.6760   48.1670 S   0  0  0  0  0  0  0  0  0  0  0  0
   63.7520   34.2210   47.1270 O   0  0  0  0  0  0  0  0  0  0  0  0
   62.7800   34.6240   49.3330 O   0  0  0  0  0  0  0  0  0  0  0  0
   63.3870   32.0820   48.7120 C   0  0  0  0  0  0  0  0  0  0  0  0
   63.3977   32.0524   49.8116 H   0  0  0  0  0  0  0  0  0  0  0  0
   62.7140   31.2999   48.3307 H   0  0  0  0  0  0  0  0  0  0  0  0
   64.4041   31.9085   48.3307 H   0  0  0  0  0  0  0  0  0  0  0  0
   60.2850   34.5850   47.5650 C   0  0  0  0  0  0  0  0  0  0  0  0
   60.5815   35.5164   48.0695 H   0  0  0  0  0  0  0  0  0  0  0  0
   59.0010   34.4740   47.0070 C   0  0  0  0  0  0  0  0  0  0  0  0
   58.2890   35.3101   47.0704 H   0  0  0  0  0  0  0  0  0  0  0  0
   58.6440   33.2830   46.3700 C   0  0  0  0  0  0  0  0  0  0  0  0
   57.4440   33.0490   45.7800 N   0  0  0  0  0  0  0  0  0  0  0  0
   56.6880   33.7650   45.7310 H   0  0  0  0  0  0  0  0  0  0  0  0
   57.4220   26.9960   46.1730 C   0  0  0  0  0  0  0  0  0  0  0  0
   56.0580   26.7050   46.0130 O   0  0  0  0  0  0  0  0  0  0  0  0
   55.5430   25.4230   45.6680 C   0  0  0  0  0  0  0  0  0  0  0  0
   55.3167   24.8597   46.5854 H   0  0  0  0  0  0  0  0  0  0  0  0
   54.6238   25.5443   45.0761 H   0  0  0  0  0  0  0  0  0  0  0  0
   56.2906   24.8747   45.0761 H   0  0  0  0  0  0  0  0  0  0  0  0
   58.1150   26.7050   47.3650 C   0  0  0  0  0  0  0  0  0  0  0  0
   57.5850   26.2312   48.2044 H   0  0  0  0  0  0  0  0  0  0  0  0
  1  2  1  0
  2  3  2  0
  3  4  1  0
  3  5  1  0
  5  6  1  0
  5  7  2  0
  7  8  1  0
  8  9  1  0
  9 10  1  0
  9 11  1  0
  9 12  1  0
 12 13  2  0
 12 14  1  0
 14 15  2  0
 15 16  1  0
 16 17  1  0
 17 18  2  0
 18 19  1  0
 18 20  1  0
 20 21  1  0
 21 22  2  0
 21 23  2  0
 21 24  1  0
 24 25  1  0
 24 26  1  0
 24 27  1  0
 20 28  2  0
 28 29  1  0
 28 30  1  0
 30 31  1  0
 30 32  2  0
 32 33  1  0
 33 34  1  0
  7 35  1  0
 35 36  1  0
 36 37  1  0
 37 38  1  0
 37 39  1  0
 37 40  1  0
 35 41  2  0
 41 42  1  0
 41  2  1  0
 33 15  1  0
 32 17  1  0
M  END
>  <UniqueID>  (41) 
38

>  <SMILES>  (41) 
COc1ccccc1OCC(=O)/N=c1\[nH]c2ccc(S(C)(=O)=O)cc2s1

>  <Energy>  (41) 
79.33876549453036

>  <Genealogy>  (41) 
COc1ccccc1OCC(=O)/N=c1\[nH]c2ccc(S(C)(=O)=O)cc2s1 (cis-trans isomerization)
COc1ccccc1OCC(=O)/N=c1\[nH]c2ccc(S(C)(=O)=O)cc2s1 (3D coordinates assigned)
COc1ccccc1OCC(=O)/N=c1\[nH]c2ccc(S(C)(=O)=O)cc2s1 (optimized conformer: 79.33876549453036 kcal/mol)

>  <smiles>  (41) 
COc1ccccc1OCC(=O)N=c1[nH]c2ccc(S(C)(=O)=O)cc2s1

>  <score_type>  (41) 
oracle

>  <origin>  (41) 
adg

>  <m_score__min__energy>  (41) 
-8.4800000000000004

>  <m_primary>  (41) 
energy

$$$$
41:0
     RDKit          3D

 39 41  0  0  1  0  0  0  0  0999 V2000
   55.0480   29.6200   43.5110 N   0  0  0  0  0  0  0  0  0  0  0  0
   56.1110   29.7270   44.2480 C   0  0  0  0  0  0  0  0  0  0  0  0
   56.6760   30.9460   44.4940 N   0  0  0  0  0  0  0  0  0  0  0  0
   57.7760   31.0780   45.2530 C   0  0  0  0  0  0  0  0  0  0  0  0
   58.3830   32.3740   45.5200 C   0  0  0  0  0  0  0  0  0  0  0  0
   59.1010   32.6040   46.6750 C   0  0  0  0  0  0  0  0  0  0  0  0
   59.6880   33.8490   46.9420 C   0  0  0  0  0  0  0  0  0  0  0  0
   59.5700   34.8970   46.0560 C   0  0  0  0  0  0  0  0  0  0  0  0
   58.8510   34.6630   44.9040 C   0  0  0  0  0  0  0  0  0  0  0  0
   58.2690   33.4260   44.6410 C   0  0  0  0  0  0  0  0  0  0  0  0
   58.3070   29.9150   45.7730 C   0  0  0  0  0  0  0  0  0  0  0  0
   57.7120   28.6790   45.5070 C   0  0  0  0  0  0  0  0  0  0  0  0
   58.1970   27.5760   45.9870 N   0  0  0  0  0  0  0  0  0  0  0  0
   57.7980   26.2990   45.4520 C   0  0  0  0  0  0  0  0  0  0  0  0
   57.8040   26.1170   44.0660 C   0  0  0  0  0  0  0  0  0  0  0  0
   57.4220   24.8940   43.5570 C   0  0  0  0  0  0  0  0  0  0  0  0
   57.0380   23.8650   44.4160 C   0  0  0  0  0  0  0  0  0  0  0  0
   56.5560   22.3210   43.7390 S   0  0  0  0  0  0  0  0  0  0  0  0
   57.9290   21.2970   43.6040 N   0  0  0  0  0  0  0  0  0  0  0  0
   55.8790   22.4550   42.4200 O   0  0  0  0  0  0  0  0  0  0  0  0
   55.5780   21.6800   44.6800 O   0  0  0  0  0  0  0  0  0  0  0  0
   57.0390   24.0640   45.7870 C   0  0  0  0  0  0  0  0  0  0  0  0
   57.4190   25.2850   46.3130 C   0  0  0  0  0  0  0  0  0  0  0  0
   56.6160   28.5890   44.7450 N   0  0  0  0  0  0  0  0  0  0  0  0
   55.1430   29.1350   42.5910 H   0  0  0  0  0  0  0  0  0  0  0  0
   56.1920   31.7490   44.0540 H   0  0  0  0  0  0  0  0  0  0  0  0
   59.2161   31.7897   47.4055 H   0  0  0  0  0  0  0  0  0  0  0  0
   60.2526   33.9913   47.8753 H   0  0  0  0  0  0  0  0  0  0  0  0
   60.0288   35.8760   46.2588 H   0  0  0  0  0  0  0  0  0  0  0  0
   58.7337   35.4758   44.1722 H   0  0  0  0  0  0  0  0  0  0  0  0
   57.7042   33.2864   43.7075 H   0  0  0  0  0  0  0  0  0  0  0  0
   59.2075   29.9616   46.4031 H   0  0  0  0  0  0  0  0  0  0  0  0
   58.1076   26.9337   43.3946 H   0  0  0  0  0  0  0  0  0  0  0  0
   57.4202   24.7294   42.4694 H   0  0  0  0  0  0  0  0  0  0  0  0
   57.6680   20.3220   43.3230 H   0  0  0  0  0  0  0  0  0  0  0  0
   58.4260   21.1920   44.5180 H   0  0  0  0  0  0  0  0  0  0  0  0
   56.7364   23.2478   46.4595 H   0  0  0  0  0  0  0  0  0  0  0  0
   57.4199   25.4477   47.4009 H   0  0  0  0  0  0  0  0  0  0  0  0
   56.1600   27.6650   44.5390 H   0  0  0  0  0  0  0  0  0  0  0  0
  1  2  2  3
  2  3  1  0
  3  4  1  0
  4  5  1  0
  5  6  2  0
  6  7  1  0
  7  8  2  0
  8  9  1  0
  9 10  2  0
  4 11  2  0
 11 12  1  0
 12 13  2  0
 13 14  1  0
 14 15  2  0
 15 16  1  0
 16 17  2  0
 17 18  1  0
 18 19  1  0
 18 20  2  0
 18 21  2  0
 17 22  1  0
 22 23  2  0
 12 24  1  0
 24  2  1  0
 10  5  1  0
 23 14  1  0
  1 25  1  0
  3 26  1  0
  6 27  1  0
  7 28  1  0
  8 29  1  0
  9 30  1  0
 10 31  1  0
 11 32  1  0
 15 33  1  0
 16 34  1  0
 19 35  1  0
 19 36  1  0
 22 37  1  0
 23 38  1  0
 24 39  1  0
M  END
>  <smiles>  (42) 
N=c1[nH]c(-c2ccccc2)cc(=Nc2ccc(S(N)(=O)=O)cc2)[nH]1

>  <score_type>  (42) 
oracle

>  <origin>  (42) 
adg

>  <m_score__min__energy>  (42) 
-9.3900000000000006

>  <m_primary>  (42) 
energy

$$$$
42:0
     RDKit          3D

 58 62  0  0  0  0  0  0  0  0999 V2000
   61.8290   33.8220   46.2350 O   0  0  0  0  0  0  0  0  0  0  0  0
   62.3570   33.2090   47.1500 C   0  0  0  0  0  0  0  0  0  0  0  0
   64.1310   33.4680   47.6960 S   0  0  0  0  0  0  0  0  0  0  0  0
   64.0070   32.2070   49.0130 C   0  0  0  0  0  0  0  0  0  0  0  0
   62.7120   31.7610   48.8980 C   0  0  0  0  0  0  0  0  0  0  0  0
   61.9170   32.2280   48.0160 N   0  0  0  0  0  0  0  0  0  0  0  0
   60.5080   31.7860   47.8510 C   0  0  0  0  0  0  0  0  0  0  0  0
   60.4100   30.3800   47.4540 C   0  0  0  0  0  0  0  0  0  0  0  0
   60.5340   29.9850   46.1370 C   0  0  0  0  0  0  0  0  0  0  0  0
   60.4460   28.6710   45.7360 C   0  0  0  0  0  0  0  0  0  0  0  0
   60.2270   27.6680   46.6510 C   0  0  0  0  0  0  0  0  0  0  0  0
   60.1150   26.2370   46.3270 C   0  0  0  0  0  0  0  0  0  0  0  0
   58.7220   25.8260   46.1140 C   0  0  0  0  0  0  0  0  0  0  0  0
   58.3680   24.5600   45.6610 C   0  0  0  0  0  0  0  0  0  0  0  0
   57.0350   24.4570   45.5510 N   0  0  0  0  0  0  0  0  0  0  0  0
   56.5410   25.6460   45.9310 C   0  0  0  0  0  0  0  0  0  0  0  0
   55.3220   25.9760   45.9770 O   0  0  0  0  0  0  0  0  0  0  0  0
   57.5630   26.4720   46.2710 N   0  0  0  0  0  0  0  0  0  0  0  0
   57.4140   27.8360   46.7250 C   0  0  0  0  0  0  0  0  0  0  0  0
   57.2660   28.7900   45.5750 C   0  0  0  0  0  0  0  0  0  0  0  0
   57.4650   30.1140   45.7020 N   0  0  0  0  0  0  0  0  0  0  0  0
   57.2600   30.7090   44.5020 C   0  0  0  0  0  0  0  0  0  0  0  0
   57.3870   32.1640   44.2510 C   0  0  0  0  0  0  0  0  0  0  0  0
   58.3270   32.7950   45.1290 N   0  0  0  0  0  0  0  0  0  0  0  0
   57.6920   33.3880   46.2880 C   0  0  0  0  0  0  0  0  0  0  0  0
   58.7070   34.4290   46.7540 C   0  0  0  0  0  0  0  0  0  0  0  0
   59.1160   35.0250   45.4100 C   0  0  0  0  0  0  0  0  0  0  0  0
   59.1580   33.7910   44.5370 C   0  0  0  0  0  0  0  0  0  0  0  0
   56.9260   29.6930   43.6310 C   0  0  0  0  0  0  0  0  0  0  0  0
   56.9300   28.5010   44.2980 N   0  0  0  0  0  0  0  0  0  0  0  0
   60.1020   28.0510   47.9770 C   0  0  0  0  0  0  0  0  0  0  0  0
   60.1890   29.3680   48.3830 C   0  0  0  0  0  0  0  0  0  0  0  0
   64.7808   31.8835   49.7248 H   0  0  0  0  0  0  0  0  0  0  0  0
   62.3514   30.9808   49.5845 H   0  0  0  0  0  0  0  0  0  0  0  0
   59.9805   31.9214   48.8067 H   0  0  0  0  0  0  0  0  0  0  0  0
   60.0558   32.3935   47.0532 H   0  0  0  0  0  0  0  0  0  0  0  0
   60.7113   30.7559   45.3726 H   0  0  0  0  0  0  0  0  0  0  0  0
   60.5522   28.4202   44.6703 H   0  0  0  0  0  0  0  0  0  0  0  0
   60.6884   26.0350   45.4103 H   0  0  0  0  0  0  0  0  0  0  0  0
   60.5102   25.6650   47.1794 H   0  0  0  0  0  0  0  0  0  0  0  0
   59.0808   23.7559   45.4259 H   0  0  0  0  0  0  0  0  0  0  0  0
   56.4640   23.6340   45.2370 H   0  0  0  0  0  0  0  0  0  0  0  0
   56.5200   27.9041   47.3623 H   0  0  0  0  0  0  0  0  0  0  0  0
   58.3192   28.1120   47.2858 H   0  0  0  0  0  0  0  0  0  0  0  0
   57.7185   32.3147   43.2130 H   0  0  0  0  0  0  0  0  0  0  0  0
   56.4029   32.6205   44.4332 H   0  0  0  0  0  0  0  0  0  0  0  0
   56.7384   33.8631   46.0143 H   0  0  0  0  0  0  0  0  0  0  0  0
   57.4448   32.6510   47.0662 H   0  0  0  0  0  0  0  0  0  0  0  0
   58.2467   35.1819   47.4107 H   0  0  0  0  0  0  0  0  0  0  0  0
   59.5375   34.0285   47.3539 H   0  0  0  0  0  0  0  0  0  0  0  0
   58.3714   35.7491   45.0476 H   0  0  0  0  0  0  0  0  0  0  0  0
   60.0598   35.5893   45.4368 H   0  0  0  0  0  0  0  0  0  0  0  0
   58.7870   34.0347   43.5305 H   0  0  0  0  0  0  0  0  0  0  0  0
   60.1907   33.4216   44.4525 H   0  0  0  0  0  0  0  0  0  0  0  0
   56.6925   29.8227   42.5639 H   0  0  0  0  0  0  0  0  0  0  0  0
   56.7190   27.5540   43.9120 H   0  0  0  0  0  0  0  0  0  0  0  0
   59.9265   27.2749   48.7365 H   0  0  0  0  0  0  0  0  0  0  0  0
   60.0828   29.6189   49.4487 H   0  0  0  0  0  0  0  0  0  0  0  0
  1  2  2  0
  2  3  1  0
  3  4  1  0
  4  5  2  0
  5  6  1  0
  6  7  1  0
  7  8  1  0
  8  9  2  0
  9 10  1  0
 10 11  2  0
 11 12  1  0
 12 13  1  0
 13 14  2  0
 14 15  1  0
 15 16  1  0
 16 17  2  0
 16 18  1  0
 18 19  1  0
 19 20  1  0
 20 21  2  0
 21 22  1  0
 22 23  1  0
 23 24  1  0
 24 25  1  0
 25 26  1  0
 26 27  1  0
 27 28  1  0
 22 29  2  0
 29 30  1  0
 11 31  1  0
 31 32  2  0
  6  2  1  0
 32  8  1  0
 18 13  1  0
 30 20  1  0
 28 24  1  0
  4 33  1  0
  5 34  1  0
  7 35  1  0
  7 36  1  0
  9 37  1  0
 10 38  1  0
 12 39  1  0
 12 40  1  0
 14 41  1  0
 15 42  1  0
 19 43  1  0
 19 44  1  0
 23 45  1  0
 23 46  1  0
 25 47  1  0
 25 48  1  0
 26 49  1  0
 26 50  1  0
 27 51  1  0
 27 52  1  0
 28 53  1  0
 28 54  1  0
 29 55  1  0
 30 56  1  0
 31 57  1  0
 32 58  1  0
M  END
>  <smiles>  (43) 
O=c1sccn1Cc1ccc(Cc2c[nH]c(=O)n2Cc2nc(CN3CCCC3)c[nH]2)cc1

>  <score_type>  (43) 
oracle

>  <origin>  (43) 
adg

>  <m_score__min__energy>  (43) 
-9.9299999999999997

>  <m_primary>  (43) 
energy

$$$$
43:0
     RDKit          3D

 24 24  0  0  0  0  0  0  0  0999 V2000
   63.6283   32.6257   47.3584 H   0  0  0  0  0  0  0  0  0  0  0  0
   63.0120   33.4790   47.0390 C   0  0  0  0  0  0  0  0  0  0  0  0
   63.3870   34.1760   46.0580 O   0  0  0  0  0  0  0  0  0  0  0  0
   61.7690   33.7800   47.7670 C   0  0  0  0  0  0  0  0  0  0  0  0
   61.6912   33.4940   48.8263 H   0  0  0  0  0  0  0  0  0  0  0  0
   60.7280   34.3910   47.1830 C   0  0  0  0  0  0  0  0  0  0  0  0
   60.7108   35.4908   47.1726 H   0  0  0  0  0  0  0  0  0  0  0  0
   59.5980   33.6670   46.5500 C   0  0  0  0  0  0  0  0  0  0  0  0
   58.8950   34.2960   45.5090 C   0  0  0  0  0  0  0  0  0  0  0  0
   59.1959   35.3012   45.1789 H   0  0  0  0  0  0  0  0  0  0  0  0
   57.8170   33.6580   44.8880 C   0  0  0  0  0  0  0  0  0  0  0  0
   57.2821   34.1605   44.0686 H   0  0  0  0  0  0  0  0  0  0  0  0
   57.4130   32.3780   45.3050 C   0  0  0  0  0  0  0  0  0  0  0  0
   56.3410   31.6900   44.7180 O   0  0  0  0  0  0  0  0  0  0  0  0
   56.3930   30.0580   44.2040 S   0  0  0  0  0  0  0  0  0  0  0  0
   57.6060   29.3820   44.7780 O   0  0  0  0  0  0  0  0  0  0  0  0
   55.1540   29.3420   44.6600 O   0  0  0  0  0  0  0  0  0  0  0  0
   56.4780   30.0100   42.4790 N   0  0  0  0  0  0  0  0  0  0  0  0
   55.7380   29.3470   42.1580 H   0  0  0  0  0  0  0  0  0  0  0  0
   57.3960   29.5760   42.2320 H   0  0  0  0  0  0  0  0  0  0  0  0
   58.1020   31.7550   46.3520 C   0  0  0  0  0  0  0  0  0  0  0  0
   57.7915   30.7549   46.6887 H   0  0  0  0  0  0  0  0  0  0  0  0
   59.1800   32.3900   46.9740 C   0  0  0  0  0  0  0  0  0  0  0  0
   59.7060   31.8895   47.8004 H   0  0  0  0  0  0  0  0  0  0  0  0
  1  2  1  0
  2  3  2  0
  2  4  1  0
  4  5  1  0
  4  6  2  0
  6  7  1  0
  6  8  1  0
  8  9  2  0
  9 10  1  0
  9 11  1  0
 11 12  1  0
 11 13  2  0
 13 14  1  0
 14 15  1  0
 15 16  2  0
 15 17  2  0
 15 18  1  0
 18 19  1  0
 18 20  1  0
 13 21  1  0
 21 22  1  0
 21 23  2  0
 23 24  1  0
 23  8  1  0
M  END
>  <UniqueID>  (44) 
39

>  <SMILES>  (44) 
NS(=O)(=O)Oc1ccc(/C=C/C=O)cc1

>  <Energy>  (44) 
20.510922582361232

>  <Genealogy>  (44) 
NS(=O)(=O)Oc1ccc(/C=C/C=O)cc1 (cis-trans isomerization)
NS(=O)(=O)Oc1ccc(/C=C/C=O)cc1 (3D coordinates assigned)
NS(=O)(=O)Oc1ccc(/C=C/C=O)cc1 (optimized conformer: 20.510922582361232 kcal/mol)

>  <smiles>  (44) 
NS(=O)(=O)Oc1ccc(C=CC=O)cc1

>  <score_type>  (44) 
oracle

>  <origin>  (44) 
adg

>  <m_score__min__energy>  (44) 
-6.6799999999999997

>  <m_primary>  (44) 
energy

$$$$
44:0
     RDKit          3D

 52 55  0  0  0  0  0  0  0  0999 V2000
   53.5310   24.8320   45.6190 C   0  0  0  0  0  0  0  0  0  0  0  0
   54.4850   25.8240   45.9850 O   0  0  0  0  0  0  0  0  0  0  0  0
   55.8740   25.6160   46.0360 C   0  0  0  0  0  0  0  0  0  0  0  0
   56.4200   24.3830   46.4420 C   0  0  0  0  0  0  0  0  0  0  0  0
   57.8020   24.2000   46.4820 C   0  0  0  0  0  0  0  0  0  0  0  0
   58.6550   25.2400   46.1200 C   0  0  0  0  0  0  0  0  0  0  0  0
   58.1290   26.4700   45.7160 C   0  0  0  0  0  0  0  0  0  0  0  0
   56.7360   26.6730   45.6660 C   0  0  0  0  0  0  0  0  0  0  0  0
   56.1780   27.9340   45.2420 N   0  0  0  0  0  0  0  0  0  0  0  0
   57.1140   29.3610   44.9150 S   0  0  0  0  0  0  0  0  0  0  0  0
   57.8010   29.1990   43.5900 O   0  0  0  0  0  0  0  0  0  0  0  0
   56.1950   30.5480   44.8480 O   0  0  0  0  0  0  0  0  0  0  0  0
   58.3390   29.6060   46.1570 C   0  0  0  0  0  0  0  0  0  0  0  0
   59.4840   30.3690   45.8880 C   0  0  0  0  0  0  0  0  0  0  0  0
   60.4540   30.5540   46.8780 C   0  0  0  0  0  0  0  0  0  0  0  0
   60.2830   29.9820   48.1480 C   0  0  0  0  0  0  0  0  0  0  0  0
   61.2590   30.1730   49.1760 N   0  0  0  0  0  0  0  0  0  0  0  0
   61.0210   30.8790   50.4010 C   0  0  0  0  0  0  0  0  0  0  0  0
   60.9390   30.2270   51.4750 O   0  0  0  0  0  0  0  0  0  0  0  0
   60.9640   32.3820   50.4450 C   0  0  0  0  0  0  0  0  0  0  0  0
   60.5520   32.9100   49.1350 N   0  0  0  0  0  0  0  0  0  0  0  0
   61.5130   33.3550   48.3210 N   0  0  0  0  0  0  0  0  0  0  0  0
   61.2570   33.8270   47.0750 C   0  0  0  0  0  0  0  0  0  0  0  0
   62.2140   34.2330   46.3610 O   0  0  0  0  0  0  0  0  0  0  0  0
   59.9390   33.8520   46.6030 C   0  0  0  0  0  0  0  0  0  0  0  0
   59.6240   34.3180   45.3120 C   0  0  0  0  0  0  0  0  0  0  0  0
   58.2990   34.3260   44.8710 C   0  0  0  0  0  0  0  0  0  0  0  0
   57.2780   33.8730   45.7090 C   0  0  0  0  0  0  0  0  0  0  0  0
   57.5760   33.4100   46.9910 C   0  0  0  0  0  0  0  0  0  0  0  0
   58.9080   33.3940   47.4520 C   0  0  0  0  0  0  0  0  0  0  0  0
   59.2390   32.9310   48.7380 C   0  0  0  0  0  0  0  0  0  0  0  0
   58.3280   32.5370   49.5190 O   0  0  0  0  0  0  0  0  0  0  0  0
   59.1210   29.2540   48.4290 C   0  0  0  0  0  0  0  0  0  0  0  0
   58.1590   29.0560   47.4340 C   0  0  0  0  0  0  0  0  0  0  0  0
   53.1006   24.3845   46.5270 H   0  0  0  0  0  0  0  0  0  0  0  0
   52.7304   25.2952   45.0236 H   0  0  0  0  0  0  0  0  0  0  0  0
   54.0251   24.0501   45.0236 H   0  0  0  0  0  0  0  0  0  0  0  0
   55.7515   23.5582   46.7297 H   0  0  0  0  0  0  0  0  0  0  0  0
   58.2190   23.2330   46.7999 H   0  0  0  0  0  0  0  0  0  0  0  0
   59.7446   25.0928   46.1522 H   0  0  0  0  0  0  0  0  0  0  0  0
   58.8092   27.2874   45.4344 H   0  0  0  0  0  0  0  0  0  0  0  0
   55.1490   28.0160   45.0860 H   0  0  0  0  0  0  0  0  0  0  0  0
   59.6197   30.8233   44.8954 H   0  0  0  0  0  0  0  0  0  0  0  0
   61.3532   31.1493   46.6608 H   0  0  0  0  0  0  0  0  0  0  0  0
   60.2378   32.6965   51.2090 H   0  0  0  0  0  0  0  0  0  0  0  0
   61.9615   32.7734   50.6938 H   0  0  0  0  0  0  0  0  0  0  0  0
   60.4246   34.6770   44.6485 H   0  0  0  0  0  0  0  0  0  0  0  0
   58.0590   34.6900   43.8611 H   0  0  0  0  0  0  0  0  0  0  0  0
   56.2357   33.8812   45.3574 H   0  0  0  0  0  0  0  0  0  0  0  0
   56.7666   33.0553   47.6460 H   0  0  0  0  0  0  0  0  0  0  0  0
   58.9644   28.8368   49.4347 H   0  0  0  0  0  0  0  0  0  0  0  0
   57.2570   28.4661   47.6540 H   0  0  0  0  0  0  0  0  0  0  0  0
  1  2  1  0
  2  3  1  0
  3  4  2  0
  4  5  1  0
  5  6  2  0
  6  7  1  0
  7  8  2  0
  8  9  1  0
  9 10  1  0
 10 11  2  0
 10 12  2  0
 10 13  1  0
 13 14  2  0
 14 15  1  0
 15 16  2  0
 16 17  1  0
 17 18  1  0
 18 19  2  0
 18 20  1  0
 20 21  1  0
 21 22  1  0
 22 23  1  0
 23 24  2  0
 23 25  1  0
 25 26  2  0
 26 27  1  0
 27 28  2  0
 28 29  1  0
 29 30  2  0
 30 31  1  0
 31 32  2  0
 16 33  1  0
 33 34  2  0
  8  3  1  0
 34 13  1  0
 31 21  1  0
 30 25  1  0
  1 35  1  0
  1 36  1  0
  1 37  1  0
  4 38  1  0
  5 39  1  0
  6 40  1  0
  7 41  1  0
  9 42  1  0
 14 43  1  0
 15 44  1  0
 20 45  1  0
 20 46  1  0
 26 47  1  0
 27 48  1  0
 28 49  1  0
 29 50  1  0
 33 51  1  0
 34 52  1  0
M  CHG  2  17  -1  22  -1
M  END
>  <UniqueID>  (45) 
40

>  <SMILES>  (45) 
COc1ccccc1NS(=O)(=O)c1ccc([N-]C(=O)Cn2[n-]c(=O)c3ccccc3c2=O)cc1

>  <Energy>  (45) 
69.04345584447931

>  <Genealogy>  (45) 
COc1ccccc1NS(=O)(=O)c1ccc([N-]C(=O)Cn2[n-]c(=O)c3ccccc3c2=O)cc1 (protonated)
COc1ccccc1NS(=O)(=O)c1ccc([N-]C(=O)Cn2[n-]c(=O)c3ccccc3c2=O)cc1 (3D coordinates assigned)
COc1ccccc1NS(=O)(=O)c1ccc([N-]C(=O)Cn2[n-]c(=O)c3ccccc3c2=O)cc1 (optimized conformer: 69.04345584447931 kcal/mol)

>  <smiles>  (45) 
COc1ccccc1NS(=O)(=O)c1ccc(NC(=O)Cn2[nH]c(=O)c3ccccc3c2=O)cc1

>  <score_type>  (45) 
oracle

>  <origin>  (45) 
adg

>  <m_score__min__energy>  (45) 
-12.449999999999999

>  <m_primary>  (45) 
energy

$$$$
45:0
     RDKit          3D

 64 68  0  0  0  0  0  0  0  0999 V2000
   54.0606   29.2925   44.3915 H   0  0  0  0  0  0  0  0  0  0  0  0
   55.1570   29.3800   44.4090 C   0  0  0  0  0  0  0  0  0  0  0  0
   55.8820   28.5950   45.2420 N   0  0  0  0  0  0  0  0  0  0  0  0
   57.2370   28.6700   45.2980 C   0  0  0  0  0  0  0  0  0  0  0  0
   57.9390   27.8360   46.1770 C   0  0  0  0  0  0  0  0  0  0  0  0
   57.3914   27.1287   46.8172 H   0  0  0  0  0  0  0  0  0  0  0  0
   59.3340   27.9000   46.2430 C   0  0  0  0  0  0  0  0  0  0  0  0
   60.2090   26.8520   47.3460 Cl  0  0  0  0  0  0  0  0  0  0  0  0
   60.0330   28.7990   45.4330 C   0  0  0  0  0  0  0  0  0  0  0  0
   61.1304   28.8485   45.4893 H   0  0  0  0  0  0  0  0  0  0  0  0
   59.3420   29.6360   44.5510 C   0  0  0  0  0  0  0  0  0  0  0  0
   59.8997   30.3395   43.9154 H   0  0  0  0  0  0  0  0  0  0  0  0
   57.9340   29.5840   44.4710 C   0  0  0  0  0  0  0  0  0  0  0  0
   57.2000   30.4100   43.5880 C   0  0  0  0  0  0  0  0  0  0  0  0
   57.8350   31.2510   42.8160 N   0  0  0  0  0  0  0  0  0  0  0  0
   58.1610   32.6530   43.0870 C   0  0  0  0  0  0  0  0  0  0  0  0
   57.2608   33.2671   42.9368 H   0  0  0  0  0  0  0  0  0  0  0  0
   58.9604   32.9660   42.3992 H   0  0  0  0  0  0  0  0  0  0  0  0
   58.6570   32.8340   44.5270 C   0  0  0  0  0  0  0  0  0  0  0  0
   59.7559   32.8841   44.5274 H   0  0  0  0  0  0  0  0  0  0  0  0
   58.3151   31.9799   45.1301 H   0  0  0  0  0  0  0  0  0  0  0  0
   58.1120   34.0820   45.1130 N   0  0  0  0  0  0  0  0  0  0  0  0
   57.4440   33.8390   46.4090 C   0  0  0  0  0  0  0  0  0  0  0  0
   56.7128   33.0260   46.2892 H   0  0  0  0  0  0  0  0  0  0  0  0
   56.9433   34.7668   46.7229 H   0  0  0  0  0  0  0  0  0  0  0  0
   58.4600   33.4440   47.4900 C   0  0  0  0  0  0  0  0  0  0  0  0
   58.7696   32.4004   47.3319 H   0  0  0  0  0  0  0  0  0  0  0  0
   57.9894   33.5541   48.4781 H   0  0  0  0  0  0  0  0  0  0  0  0
   59.6380   34.3110   47.4270 N   0  0  0  0  0  0  0  0  0  0  0  0
   60.8190   33.9520   48.1610 C   0  0  0  0  0  0  0  0  0  0  0  0
   60.8360   33.6500   49.4890 N   0  0  0  0  0  0  0  0  0  0  0  0
   59.6920   33.4960   50.3940 C   0  0  0  0  0  0  0  0  0  0  0  0
   58.7754   33.8229   49.8811 H   0  0  0  0  0  0  0  0  0  0  0  0
   59.8570   34.1100   51.2917 H   0  0  0  0  0  0  0  0  0  0  0  0
   59.5450   32.0290   50.8090 C   0  0  0  0  0  0  0  0  0  0  0  0
   58.9286   31.9729   51.7183 H   0  0  0  0  0  0  0  0  0  0  0  0
   60.5475   31.6164   50.9956 H   0  0  0  0  0  0  0  0  0  0  0  0
   58.8780   31.2060   49.7000 C   0  0  0  0  0  0  0  0  0  0  0  0
   58.2545   31.8713   49.0847 H   0  0  0  0  0  0  0  0  0  0  0  0
   58.2634   30.4230   50.1681 H   0  0  0  0  0  0  0  0  0  0  0  0
   59.9200   30.5360   48.8100 C   0  0  0  0  0  0  0  0  0  0  0  0
   60.6794   30.0477   49.4383 H   0  0  0  0  0  0  0  0  0  0  0  0
   59.4302   29.7831   48.1749 H   0  0  0  0  0  0  0  0  0  0  0  0
   60.4017   31.2940   48.1749 H   0  0  0  0  0  0  0  0  0  0  0  0
   62.1170   33.2960   49.7240 C   0  0  0  0  0  0  0  0  0  0  0  0
   62.6990   32.8250   50.9040 C   0  0  0  0  0  0  0  0  0  0  0  0
   62.1099   32.7204   51.8270 H   0  0  0  0  0  0  0  0  0  0  0  0
   64.0660   32.4890   50.8700 C   0  0  0  0  0  0  0  0  0  0  0  0
   64.5612   32.1228   51.7814 H   0  0  0  0  0  0  0  0  0  0  0  0
   64.8070   32.6190   49.6720 C   0  0  0  0  0  0  0  0  0  0  0  0
   65.8753   32.3570   49.6593 H   0  0  0  0  0  0  0  0  0  0  0  0
   64.1870   33.0810   48.4970 C   0  0  0  0  0  0  0  0  0  0  0  0
   64.7497   33.1789   47.5569 H   0  0  0  0  0  0  0  0  0  0  0  0
   62.8360   33.4100   48.5660 C   0  0  0  0  0  0  0  0  0  0  0  0
   62.0320   33.8180   47.5710 N   0  0  0  0  0  0  0  0  0  0  0  0
   62.2820   33.9770   46.5700 H   0  0  0  0  0  0  0  0  0  0  0  0
   59.6140   35.5130   46.5900 C   0  0  0  0  0  0  0  0  0  0  0  0
   60.6294   35.9318   46.5300 H   0  0  0  0  0  0  0  0  0  0  0  0
   58.9262   36.2441   47.0399 H   0  0  0  0  0  0  0  0  0  0  0  0
   59.1200   35.1760   45.1680 C   0  0  0  0  0  0  0  0  0  0  0  0
   59.9885   34.8749   44.5639 H   0  0  0  0  0  0  0  0  0  0  0  0
   58.6250   36.0801   44.7839 H   0  0  0  0  0  0  0  0  0  0  0  0
   55.7930   30.2990   43.5730 C   0  0  0  0  0  0  0  0  0  0  0  0
   55.1979   30.9366   42.9027 H   0  0  0  0  0  0  0  0  0  0  0  0
  1  2  1  0
  2  3  1  0
  3  4  1  0
  4  5  2  0
  5  6  1  0
  5  7  1  0
  7  8  1  0
  7  9  2  0
  9 10  1  0
  9 11  1  0
 11 12  1  0
 11 13  2  0
 13 14  1  0
 14 15  2  0
 15 16  1  0
 16 17  1  0
 16 18  1  0
 16 19  1  0
 19 20  1  0
 19 21  1  0
 19 22  1  0
 22 23  1  0
 23 24  1  0
 23 25  1  0
 23 26  1  0
 26 27  1  0
 26 28  1  0
 26 29  1  0
 29 30  1  0
 30 31  1  0
 31 32  1  0
 32 33  1  0
 32 34  1  0
 32 35  1  0
 35 36  1  0
 35 37  1  0
 35 38  1  0
 38 39  1  0
 38 40  1  0
 38 41  1  0
 41 42  1  0
 41 43  1  0
 41 44  1  0
 31 45  1  0
 45 46  2  0
 46 47  1  0
 46 48  1  0
 48 49  1  0
 48 50  2  0
 50 51  1  0
 50 52  1  0
 52 53  1  0
 52 54  2  0
 54 55  1  0
 55 56  1  0
 29 57  1  0
 57 58  1  0
 57 59  1  0
 57 60  1  0
 60 61  1  0
 60 62  1  0
 14 63  1  0
 63 64  1  0
 63  2  2  0
 13  4  1  0
 60 22  1  0
 55 30  2  0
 54 45  1  0
M  CHG  2   3  -1  55   1
M  END
>  <UniqueID>  (46) 
41

>  <SMILES>  (46) 
CCCCn1c(N2CCN(CC/N=c3\cc[n-]c4cc(Cl)ccc34)CC2)[nH+]c2ccccc21

>  <Energy>  (46) 
117.92877761154675

>  <Genealogy>  (46) 
CCCCn1c(N2CCN(CCN=c3cc[n-]c4cc(Cl)ccc34)CC2)[nH+]c2ccccc21 (protonated)
CCCCn1c(N2CCN(CC/N=c3\cc[n-]c4cc(Cl)ccc34)CC2)[nH+]c2ccccc21 (cis-trans isomerization)
CCCCn1c(N2CCN(CC/N=c3\cc[n-]c4cc(Cl)ccc34)CC2)[nH+]c2ccccc21 (3D coordinates assigned)
CCCCn1c(N2CCN(CC/N=c3\cc[n-]c4cc(Cl)ccc34)CC2)[nH+]c2ccccc21 (nonaromatic ring conformer: 117.92877761154675 kcal/mol)

>  <smiles>  (46) 
CCCCn1c(N2CCN(CCN=c3cc[nH]c4cc(Cl)ccc34)CC2)nc2ccccc21

>  <score_type>  (46) 
oracle

>  <origin>  (46) 
adg

>  <m_score__min__energy>  (46) 
-9.7300000000000004

>  <m_primary>  (46) 
energy

$$$$
46:0
     RDKit          3D

 65 67  0  0  0  0  0  0  0  0999 V2000
   54.0260   30.5880   51.6500 C   0  0  0  0  0  0  0  0  0  0  0  0
   54.7810   29.9740   52.8150 C   0  0  0  0  0  0  0  0  0  0  0  0
   56.1350   29.7450   52.4350 O   0  0  0  0  0  0  0  0  0  0  0  0
   57.0650   30.7790   52.2870 C   0  0  0  0  0  0  0  0  0  0  0  0
   57.1600   31.6740   53.1710 O   0  0  0  0  0  0  0  0  0  0  0  0
   57.9160   30.8280   51.0820 C   0  0  0  0  0  0  0  0  0  0  0  0
   58.1490   32.0510   50.4310 C   0  0  0  0  0  0  0  0  0  0  0  0
   58.9910   32.1130   49.3200 C   0  0  0  0  0  0  0  0  0  0  0  0
   59.6490   30.9610   48.8570 C   0  0  0  0  0  0  0  0  0  0  0  0
   60.5760   31.0330   47.6610 C   0  0  0  0  0  0  0  0  0  0  0  0
   59.9420   31.3710   46.3510 N   0  0  2  0  0  0  0  0  0  0  0  0
   59.1900   32.6180   46.3830 C   0  0  0  0  0  0  0  0  0  0  0  0
   57.9680   32.6100   46.3780 O   0  0  0  0  0  0  0  0  0  0  0  0
   59.9000   33.9480   46.3420 C   0  0  0  0  0  0  0  0  0  0  0  0
   61.1990   33.8600   47.0960 C   0  0  0  0  0  0  0  0  0  0  0  0
   61.2480   34.1970   48.4590 C   0  0  0  0  0  0  0  0  0  0  0  0
   62.4680   34.1920   49.1440 C   0  0  0  0  0  0  0  0  0  0  0  0
   63.6460   33.8530   48.4720 C   0  0  0  0  0  0  0  0  0  0  0  0
   63.6050   33.5120   47.1180 C   0  0  0  0  0  0  0  0  0  0  0  0
   62.3880   33.5150   46.4290 C   0  0  0  0  0  0  0  0  0  0  0  0
   59.2150   30.2940   45.6060 C   0  0  1  0  0  0  0  0  0  0  0  0
   60.1010   29.0670   45.3100 C   0  0  0  0  0  0  0  0  0  0  0  0
   59.4390   28.1100   44.2980 C   0  0  0  0  0  0  0  0  0  0  0  0
   57.9010   28.2090   44.2640 C   0  0  0  0  0  0  0  0  0  0  0  0
   57.2870   28.5300   45.6440 C   0  0  1  0  0  0  0  0  0  0  0  0
   57.4640   27.3460   46.6270 C   0  0  0  0  0  0  0  0  0  0  0  0
   56.4680   25.9260   46.1750 S   0  0  0  0  0  0  0  0  0  0  0  0
   54.8020   26.3540   45.9990 N   0  0  0  0  0  0  0  0  0  0  0  0
   56.5930   24.8820   47.2500 O   0  0  0  0  0  0  0  0  0  0  0  0
   56.9730   25.3560   44.8790 O   0  0  0  0  0  0  0  0  0  0  0  0
   57.8430   29.8700   46.2110 C   0  0  0  0  0  0  0  0  0  0  0  0
   59.3540   29.7270   49.4600 C   0  0  0  0  0  0  0  0  0  0  0  0
   58.5080   29.6610   50.5700 C   0  0  0  0  0  0  0  0  0  0  0  0
   53.2261   31.2385   52.0335 H   0  0  0  0  0  0  0  0  0  0  0  0
   54.7191   31.1820   51.0362 H   0  0  0  0  0  0  0  0  0  0  0  0
   53.5857   29.7884   51.0362 H   0  0  0  0  0  0  0  0  0  0  0  0
   54.7522   30.6610   53.6736 H   0  0  0  0  0  0  0  0  0  0  0  0
   54.3117   29.0190   53.0939 H   0  0  0  0  0  0  0  0  0  0  0  0
   57.6639   32.9667   50.7999 H   0  0  0  0  0  0  0  0  0  0  0  0
   59.1409   33.0719   48.8022 H   0  0  0  0  0  0  0  0  0  0  0  0
   61.3369   31.7987   47.8725 H   0  0  0  0  0  0  0  0  0  0  0  0
   60.9766   30.0158   47.5390 H   0  0  0  0  0  0  0  0  0  0  0  0
   60.7730   31.5710   45.7440 H   0  0  0  0  0  0  0  0  0  0  0  0
   60.1035   34.2204   45.2959 H   0  0  0  0  0  0  0  0  0  0  0  0
   59.2621   34.7130   46.8088 H   0  0  0  0  0  0  0  0  0  0  0  0
   60.3230   34.4660   48.9901 H   0  0  0  0  0  0  0  0  0  0  0  0
   62.5002   34.4549   50.2116 H   0  0  0  0  0  0  0  0  0  0  0  0
   64.6056   33.8548   49.0097 H   0  0  0  0  0  0  0  0  0  0  0  0
   64.5323   33.2404   46.5924 H   0  0  0  0  0  0  0  0  0  0  0  0
   62.3607   33.2468   45.3625 H   0  0  0  0  0  0  0  0  0  0  0  0
   58.9673   30.7754   44.6484 H   0  0  0  0  0  0  0  0  0  0  0  0
   61.0605   29.4124   44.8976 H   0  0  0  0  0  0  0  0  0  0  0  0
   60.2486   28.5181   46.2518 H   0  0  0  0  0  0  0  0  0  0  0  0
   59.8241   28.3452   43.2948 H   0  0  0  0  0  0  0  0  0  0  0  0
   59.6877   27.0863   44.6145 H   0  0  0  0  0  0  0  0  0  0  0  0
   57.6163   29.0047   43.5599 H   0  0  0  0  0  0  0  0  0  0  0  0
   57.5147   27.2275   43.9520 H   0  0  0  0  0  0  0  0  0  0  0  0
   56.2038   28.6696   45.5132 H   0  0  0  0  0  0  0  0  0  0  0  0
   58.5226   27.0472   46.6328 H   0  0  0  0  0  0  0  0  0  0  0  0
   57.1343   27.6836   47.6207 H   0  0  0  0  0  0  0  0  0  0  0  0
   54.5970   27.0940   46.7080 H   0  0  0  0  0  0  0  0  0  0  0  0
   57.1119   30.6644   46.0004 H   0  0  0  0  0  0  0  0  0  0  0  0
   58.0041   29.7170   47.2883 H   0  0  0  0  0  0  0  0  0  0  0  0
   59.7933   28.8037   49.0543 H   0  0  0  0  0  0  0  0  0  0  0  0
   58.3043   28.6903   51.0456 H   0  0  0  0  0  0  0  0  0  0  0  0
  1  2  1  0
  2  3  1  0
  3  4  1  0
  4  5  2  0
  4  6  1  0
  6  7  2  0
  7  8  1  0
  8  9  2  0
  9 10  1  0
 10 11  1  0
 11 12  1  0
 12 13  2  0
 12 14  1  0
 14 15  1  0
 15 16  2  0
 16 17  1  0
 17 18  2  0
 18 19  1  0
 19 20  2  0
 11 21  1  0
 21 22  1  0
 22 23  1  0
 23 24  1  0
 24 25  1  0
 25 26  1  0
 26 27  1  0
 27 28  1  0
 27 29  2  0
 27 30  2  0
 25 31  1  0
  9 32  1  0
 32 33  2  0
 33  6  1  0
 20 15  1  0
 31 21  1  0
  1 34  1  0
  1 35  1  0
  1 36  1  0
  2 37  1  0
  2 38  1  0
  7 39  1  0
  8 40  1  0
 10 41  1  0
 10 42  1  0
 11 43  1  6
 14 44  1  0
 14 45  1  0
 16 46  1  0
 17 47  1  0
 18 48  1  0
 19 49  1  0
 20 50  1  0
 21 51  1  6
 22 52  1  0
 22 53  1  0
 23 54  1  0
 23 55  1  0
 24 56  1  0
 24 57  1  0
 25 58  1  6
 26 59  1  0
 26 60  1  0
 28 61  1  0
 31 62  1  0
 31 63  1  0
 32 64  1  0
 33 65  1  0
M  CHG  2  11   1  28  -1
M  END
>  <UniqueID>  (47) 
42

>  <SMILES>  (47) 
CCOC(=O)c1ccc(C[N@H+](C(=O)Cc2ccccc2)[C@H]2CCCC(CS([NH-])(=O)=O)C2)cc1

>  <Energy>  (47) 
70.98483623292604

>  <Genealogy>  (47) 
CCOC(=O)c1ccc(C[NH+](C(=O)Cc2ccccc2)C2CCCC(CS([NH-])(=O)=O)C2)cc1 (protonated)
CCOC(=O)c1ccc(C[N@H+](C(=O)Cc2ccccc2)[C@H]2CCCC(CS([NH-])(=O)=O)C2)cc1 (chirality)
CCOC(=O)c1ccc(C[N@H+](C(=O)Cc2ccccc2)[C@H]2CCCC(CS([NH-])(=O)=O)C2)cc1 (3D coordinates assigned)
CCOC(=O)c1ccc(C[N@H+](C(=O)Cc2ccccc2)[C@H]2CCCC(CS([NH-])(=O)=O)C2)cc1 (nonaromatic ring conformer: 70.98483623292604 kcal/mol)

>  <smiles>  (47) 
CCOC(=O)c1ccc(CN(C(=O)Cc2ccccc2)C2CCCC(CS(N)(=O)=O)C2)cc1

>  <score_type>  (47) 
oracle

>  <origin>  (47) 
adg

>  <m_score__min__energy>  (47) 
-11.130000000000001

>  <m_primary>  (47) 
energy

$$$$
47:0
     RDKit          3D

 23 23  0  0  0  0  0  0  0  0999 V2000
   56.2830   30.9990   44.7270 O   0  0  0  0  0  0  0  0  0  0  0  0
   56.3060   29.7450   44.6100 C   0  0  0  0  0  0  0  0  0  0  0  0
   55.1440   29.0180   44.8500 O   0  0  0  0  0  0  0  0  0  0  0  0
   57.5770   29.0560   44.1720 C   0  0  1  0  0  0  0  0  0  0  0  0
   58.8380   29.8490   44.5100 C   0  0  0  0  0  0  0  0  0  0  0  0
   60.2220   28.6780   44.5250 S   0  0  0  0  0  0  0  0  0  0  0  0
   59.0900   27.2540   44.3940 C   0  0  0  0  0  0  0  0  0  0  0  0
   57.7140   27.6800   44.6940 N   0  0  1  0  0  0  0  0  0  0  0  0
   57.4530   27.5500   46.1230 C   0  0  0  0  0  0  0  0  0  0  0  0
   57.7010   28.4740   46.8870 O   0  0  0  0  0  0  0  0  0  0  0  0
   56.9700   26.2420   46.7030 C   0  0  0  0  0  0  0  0  0  0  0  0
   56.2770   25.3640   45.6580 C   0  0  0  0  0  0  0  0  0  0  0  0
   54.5200   25.6660   45.6280 S   0  0  0  0  0  0  0  0  0  0  0  0
   57.4797   28.9999   43.0777 H   0  0  0  0  0  0  0  0  0  0  0  0
   59.0097   30.6253   43.7498 H   0  0  0  0  0  0  0  0  0  0  0  0
   58.7365   30.3451   45.4865 H   0  0  0  0  0  0  0  0  0  0  0  0
   59.1317   26.8475   43.3727 H   0  0  0  0  0  0  0  0  0  0  0  0
   59.3953   26.4807   45.1143 H   0  0  0  0  0  0  0  0  0  0  0  0
   57.0540   27.0620   44.1660 H   0  0  0  0  0  0  0  0  0  0  0  0
   57.8336   25.6945   47.1085 H   0  0  0  0  0  0  0  0  0  0  0  0
   56.2358   26.4730   47.4889 H   0  0  0  0  0  0  0  0  0  0  0  0
   56.6968   25.5872   44.6660 H   0  0  0  0  0  0  0  0  0  0  0  0
   56.4455   24.3093   45.9211 H   0  0  0  0  0  0  0  0  0  0  0  0
  1  2  2  0
  2  3  1  0
  2  4  1  0
  4  5  1  0
  5  6  1  0
  6  7  1  0
  7  8  1  0
  8  9  1  0
  9 10  2  0
  9 11  1  0
 11 12  1  0
 12 13  1  0
  8  4  1  0
  4 14  1  6
  5 15  1  0
  5 16  1  0
  7 17  1  0
  7 18  1  0
  8 19  1  6
 11 20  1  0
 11 21  1  0
 12 22  1  0
 12 23  1  0
M  CHG  3   3  -1   8   1  13  -1
M  END
>  <UniqueID>  (48) 
43

>  <SMILES>  (48) 
O=C([O-])[C@H]1CSC[N@H+]1C(=O)CC[S-]

>  <Energy>  (48) 
20.48640778595553

>  <Genealogy>  (48) 
O=C([O-])C1CSC[NH+]1C(=O)CC[S-] (protonated)
O=C([O-])[C@H]1CSC[N@H+]1C(=O)CC[S-] (chirality)
O=C([O-])[C@H]1CSC[N@H+]1C(=O)CC[S-] (3D coordinates assigned)
O=C([O-])[C@H]1CSC[N@H+]1C(=O)CC[S-] (nonaromatic ring conformer: 20.48640778595553 kcal/mol)

>  <smiles>  (48) 
O=C(O)C1CSCN1C(=O)CCS

>  <score_type>  (48) 
oracle

>  <origin>  (48) 
adg

>  <m_score__min__energy>  (48) 
-7.9299999999999997

>  <m_primary>  (48) 
energy

$$$$
48:0
     RDKit          3D

 44 47  0  0  0  0  0  0  0  0999 V2000
   55.8000   29.0120   44.8810 O   0  0  0  0  0  0  0  0  0  0  0  0
   56.5580   30.0690   44.1280 S   0  0  0  0  0  0  0  0  0  0  0  0
   56.1150   30.0790   42.6920 O   0  0  0  0  0  0  0  0  0  0  0  0
   56.2710   31.6150   44.8590 N   0  0  0  0  0  0  0  0  0  0  0  0
   57.2840   32.5770   45.1810 C   0  0  0  0  0  0  0  0  0  0  0  0
   57.3630   33.1860   46.4480 C   0  0  0  0  0  0  0  0  0  0  0  0
   58.3650   34.1250   46.7150 C   0  0  0  0  0  0  0  0  0  0  0  0
   59.2940   34.4610   45.7260 C   0  0  0  0  0  0  0  0  0  0  0  0
   59.2250   33.8550   44.4690 C   0  0  0  0  0  0  0  0  0  0  0  0
   58.2250   32.9150   44.1980 C   0  0  0  0  0  0  0  0  0  0  0  0
   58.2540   29.7090   44.1970 N   0  0  0  0  0  0  0  0  0  0  0  0
   58.9120   29.1950   45.3690 C   0  0  0  0  0  0  0  0  0  0  0  0
   59.7000   28.0400   45.2610 C   0  0  0  0  0  0  0  0  0  0  0  0
   60.3620   27.5260   46.3790 C   0  0  0  0  0  0  0  0  0  0  0  0
   60.2440   28.1590   47.6180 C   0  0  0  0  0  0  0  0  0  0  0  0
   59.4550   29.3120   47.7490 C   0  0  0  0  0  0  0  0  0  0  0  0
   59.3190   30.0030   49.0800 C   0  0  0  0  0  0  0  0  0  0  0  0
   59.8680   31.3560   49.0080 N   0  0  0  0  0  0  0  0  0  0  0  0
   59.2870   32.4990   49.4530 C   0  0  0  0  0  0  0  0  0  0  0  0
   60.0130   33.6130   49.1730 N   0  0  0  0  0  0  0  0  0  0  0  0
   61.0830   33.1230   48.5210 C   0  0  0  0  0  0  0  0  0  0  0  0
   62.1540   33.8360   47.9860 C   0  0  0  0  0  0  0  0  0  0  0  0
   63.1600   33.1100   47.3220 C   0  0  0  0  0  0  0  0  0  0  0  0
   63.0700   31.7030   47.2090 C   0  0  0  0  0  0  0  0  0  0  0  0
   61.9750   31.0110   47.7600 C   0  0  0  0  0  0  0  0  0  0  0  0
   61.0000   31.7650   48.4150 C   0  0  0  0  0  0  0  0  0  0  0  0
   58.7870   29.8210   46.6240 C   0  0  0  0  0  0  0  0  0  0  0  0
   56.6352   32.9228   47.2297 H   0  0  0  0  0  0  0  0  0  0  0  0
   58.4220   34.6000   47.7055 H   0  0  0  0  0  0  0  0  0  0  0  0
   60.0789   35.2021   45.9373 H   0  0  0  0  0  0  0  0  0  0  0  0
   59.9577   34.1173   43.6916 H   0  0  0  0  0  0  0  0  0  0  0  0
   58.1766   32.4382   43.2079 H   0  0  0  0  0  0  0  0  0  0  0  0
   58.8270   29.9520   43.3570 H   0  0  0  0  0  0  0  0  0  0  0  0
   59.7977   27.5348   44.2888 H   0  0  0  0  0  0  0  0  0  0  0  0
   60.9781   26.6198   46.2828 H   0  0  0  0  0  0  0  0  0  0  0  0
   60.7710   27.7527   48.4939 H   0  0  0  0  0  0  0  0  0  0  0  0
   58.2549   30.0573   49.3536 H   0  0  0  0  0  0  0  0  0  0  0  0
   59.8745   29.4315   49.8382 H   0  0  0  0  0  0  0  0  0  0  0  0
   58.3253   32.5213   49.9866 H   0  0  0  0  0  0  0  0  0  0  0  0
   62.2112   34.9305   48.0797 H   0  0  0  0  0  0  0  0  0  0  0  0
   64.0211   33.6396   46.8884 H   0  0  0  0  0  0  0  0  0  0  0  0
   63.8614   31.1455   46.6867 H   0  0  0  0  0  0  0  0  0  0  0  0
   61.8909   29.9173   47.6775 H   0  0  0  0  0  0  0  0  0  0  0  0
   58.1591   30.7186   46.7241 H   0  0  0  0  0  0  0  0  0  0  0  0
  1  2  2  0
  2  3  2  0
  2  4  1  0
  4  5  1  0
  5  6  2  0
  6  7  1  0
  7  8  2  0
  8  9  1  0
  9 10  2  0
  2 11  1  0
 11 12  1  0
 12 13  2  0
 13 14  1  0
 14 15  2  0
 15 16  1  0
 16 17  1  0
 17 18  1  0
 18 19  1  0
 19 20  2  0
 20 21  1  0
 21 22  2  0
 22 23  1  0
 23 24  2  0
 24 25  1  0
 25 26  2  0
 16 27  2  0
 10  5  1  0
 27 12  1  0
 26 18  1  0
 26 21  1  0
  6 28  1  0
  7 29  1  0
  8 30  1  0
  9 31  1  0
 10 32  1  0
 11 33  1  0
 13 34  1  0
 14 35  1  0
 15 36  1  0
 17 37  1  0
 17 38  1  0
 19 39  1  0
 22 40  1  0
 23 41  1  0
 24 42  1  0
 25 43  1  0
 27 44  1  0
M  CHG  1   4  -1
M  END
>  <UniqueID>  (49) 
44

>  <SMILES>  (49) 
O=S(=O)([N-]c1ccccc1)Nc1cccc(Cn2cnc3ccccc32)c1

>  <Energy>  (49) 
88.77762157940043

>  <Genealogy>  (49) 
O=S(=O)([N-]c1ccccc1)Nc1cccc(Cn2cnc3ccccc32)c1 (protonated)
O=S(=O)([N-]c1ccccc1)Nc1cccc(Cn2cnc3ccccc32)c1 (3D coordinates assigned)
O=S(=O)([N-]c1ccccc1)Nc1cccc(Cn2cnc3ccccc32)c1 (optimized conformer: 88.77762157940043 kcal/mol)

>  <smiles>  (49) 
O=S(=O)(Nc1ccccc1)Nc1cccc(Cn2cnc3ccccc32)c1

>  <score_type>  (49) 
oracle

>  <origin>  (49) 
adg

>  <m_score__min__energy>  (49) 
-10.710000000000001

>  <m_primary>  (49) 
energy

$$$$
49:0
     RDKit          3D

 31 32  0  0  0  0  0  0  0  0999 V2000
   56.9050   30.1470   42.5720 O   0  0  0  0  0  0  0  0  0  0  0  0
   56.8400   30.1150   43.8190 N   0  0  0  0  0  0  0  0  0  0  0  0
   56.2730   31.1820   44.4800 O   0  0  0  0  0  0  0  0  0  0  0  0
   57.3460   28.9860   44.5530 C   0  0  0  0  0  0  0  0  0  0  0  0
   57.3890   29.0120   45.9580 C   0  0  0  0  0  0  0  0  0  0  0  0
   57.8790   27.9150   46.6720 C   0  0  0  0  0  0  0  0  0  0  0  0
   58.3250   26.7760   45.9940 C   0  0  0  0  0  0  0  0  0  0  0  0
   58.9440   25.3640   46.9140 S   0  0  0  0  0  0  0  0  0  0  0  0
   58.1220   24.1680   45.8370 C   0  0  0  0  0  0  0  0  0  0  0  0
   58.8840   23.2000   45.1410 C   0  0  0  0  0  0  0  0  0  0  0  0
   60.2900   23.0290   45.3940 N   0  0  0  0  0  0  0  0  0  0  0  0
   60.7580   21.8880   45.5950 O   0  0  0  0  0  0  0  0  0  0  0  0
   61.1000   24.1210   45.6010 O   0  0  0  0  0  0  0  0  0  0  0  0
   58.2610   22.3900   44.1780 C   0  0  0  0  0  0  0  0  0  0  0  0
   56.8900   22.5050   43.9130 C   0  0  0  0  0  0  0  0  0  0  0  0
   56.2690   21.6650   42.9220 N   0  0  0  0  0  0  0  0  0  0  0  0
   56.3710   20.4210   42.9850 O   0  0  0  0  0  0  0  0  0  0  0  0
   55.5430   22.2160   41.8910 O   0  0  0  0  0  0  0  0  0  0  0  0
   56.1330   23.4380   44.6360 C   0  0  0  0  0  0  0  0  0  0  0  0
   56.7270   24.2600   45.6040 C   0  0  0  0  0  0  0  0  0  0  0  0
   55.9000   25.1870   46.3290 N   0  0  0  0  0  0  0  0  0  0  0  0
   55.9400   25.2340   47.5760 O   0  0  0  0  0  0  0  0  0  0  0  0
   54.9220   25.8970   45.6720 O   0  0  0  0  0  0  0  0  0  0  0  0
   58.2970   26.7440   44.5960 C   0  0  0  0  0  0  0  0  0  0  0  0
   57.8080   27.8390   43.8790 C   0  0  0  0  0  0  0  0  0  0  0  0
   57.0346   29.9018   46.4990 H   0  0  0  0  0  0  0  0  0  0  0  0
   57.9140   27.9476   47.7710 H   0  0  0  0  0  0  0  0  0  0  0  0
   58.8593   21.6529   43.6224 H   0  0  0  0  0  0  0  0  0  0  0  0
   55.0542   23.5265   44.4402 H   0  0  0  0  0  0  0  0  0  0  0  0
   58.6607   25.8550   44.0599 H   0  0  0  0  0  0  0  0  0  0  0  0
   57.7837   27.8049   42.7798 H   0  0  0  0  0  0  0  0  0  0  0  0
  1  2  2  0
  2  3  1  0
  2  4  1  0
  4  5  2  0
  5  6  1  0
  6  7  2  0
  7  8  1  0
  8  9  1  0
  9 10  2  0
 10 11  1  0
 11 12  2  0
 11 13  1  0
 10 14  1  0
 14 15  2  0
 15 16  1  0
 16 17  2  0
 16 18  1  0
 15 19  1  0
 19 20  2  0
 20 21  1  0
 21 22  2  0
 21 23  1  0
  7 24  1  0
 24 25  2  0
 25  4  1  0
 20  9  1  0
  5 26  1  0
  6 27  1  0
 14 28  1  0
 19 29  1  0
 24 30  1  0
 25 31  1  0
M  CHG  8   2   1   3  -1  11   1  13  -1  16   1  18  -1  21   1  23  -1
M  END
>  <UniqueID>  (50) 
45

>  <SMILES>  (50) 
O=[N+]([O-])c1ccc(Sc2c([N+](=O)[O-])cc([N+](=O)[O-])cc2[N+](=O)[O-])cc1

>  <Energy>  (50) 
40.30480377092582

>  <Genealogy>  (50) 
O=[N+]([O-])c1ccc(Sc2c([N+](=O)[O-])cc([N+](=O)[O-])cc2[N+](=O)[O-])cc1 (3D coordinates assigned)
O=[N+]([O-])c1ccc(Sc2c([N+](=O)[O-])cc([N+](=O)[O-])cc2[N+](=O)[O-])cc1 (optimized conformer: 40.30480377092582 kcal/mol)

>  <smiles>  (50) 
O=[N+]([O-])c1ccc(Sc2c([N+](=O)[O-])cc([N+](=O)[O-])cc2[N+](=O)[O-])cc1

>  <score_type>  (50) 
oracle

>  <origin>  (50) 
adg

>  <m_score__min__energy>  (50) 
-7.9900000000000002

>  <m_primary>  (50) 
energy

$$$$
50:0
     RDKit          3D

 50 53  0  0  0  0  0  0  0  0999 V2000
   66.3960   31.5280   50.8740 C   0  0  0  0  0  0  0  0  0  0  0  0
   65.2200   32.0010   50.1240 N   0  0  0  0  0  0  0  0  0  0  0  0
   64.0240   31.2270   50.5040 C   0  0  0  0  0  0  0  0  0  0  0  0
   62.8750   31.5490   49.5430 C   0  0  0  0  0  0  0  0  0  0  0  0
   62.8060   32.9910   49.2660 N   0  0  0  0  0  0  0  0  0  0  0  0
   61.7820   33.4850   48.3790 C   0  0  0  0  0  0  0  0  0  0  0  0
   60.6220   34.0850   48.8960 C   0  0  0  0  0  0  0  0  0  0  0  0
   59.6290   34.5630   48.0360 C   0  0  0  0  0  0  0  0  0  0  0  0
   59.7740   34.4350   46.6440 C   0  0  0  0  0  0  0  0  0  0  0  0
   58.7810   34.9300   45.7350 N   0  0  0  0  0  0  0  0  0  0  0  0
   57.6940   34.1780   45.1820 C   0  0  0  0  0  0  0  0  0  0  0  0
   56.6330   34.7810   44.8730 O   0  0  0  0  0  0  0  0  0  0  0  0
   57.8020   32.7320   44.9110 C   0  0  0  0  0  0  0  0  0  0  0  0
   57.5970   32.0960   43.6910 C   0  0  0  0  0  0  0  0  0  0  0  0
   57.7410   30.7040   43.7550 C   0  0  0  0  0  0  0  0  0  0  0  0
   58.0490   30.2290   45.0310 C   0  0  0  0  0  0  0  0  0  0  0  0
   58.2610   28.8110   45.4270 C   0  0  0  0  0  0  0  0  0  0  0  0
   57.1600   27.9480   45.5910 C   0  0  0  0  0  0  0  0  0  0  0  0
   57.3510   26.6130   45.9630 C   0  0  0  0  0  0  0  0  0  0  0  0
   58.6410   26.1230   46.1760 C   0  0  0  0  0  0  0  0  0  0  0  0
   59.7420   26.9650   46.0150 C   0  0  0  0  0  0  0  0  0  0  0  0
   59.5570   28.3010   45.6430 C   0  0  0  0  0  0  0  0  0  0  0  0
   58.1380   31.5580   46.0660 S   0  0  0  0  0  0  0  0  0  0  0  0
   60.9400   33.8610   46.1270 C   0  0  0  0  0  0  0  0  0  0  0  0
   61.9340   33.3800   46.9860 C   0  0  0  0  0  0  0  0  0  0  0  0
   63.5690   33.9320   50.0990 C   0  0  0  0  0  0  0  0  0  0  0  0
   65.0220   33.4580   50.3360 C   0  0  0  0  0  0  0  0  0  0  0  0
   66.1988   31.6073   51.9533 H   0  0  0  0  0  0  0  0  0  0  0  0
   66.5986   30.4784   50.6144 H   0  0  0  0  0  0  0  0  0  0  0  0
   67.2689   32.1450   50.6144 H   0  0  0  0  0  0  0  0  0  0  0  0
   65.4170   31.8370   49.1070 H   0  0  0  0  0  0  0  0  0  0  0  0
   64.2526   30.1522   50.4538 H   0  0  0  0  0  0  0  0  0  0  0  0
   63.7276   31.4936   51.5292 H   0  0  0  0  0  0  0  0  0  0  0  0
   63.0346   31.0088   48.5982 H   0  0  0  0  0  0  0  0  0  0  0  0
   61.9297   31.2373   50.0113 H   0  0  0  0  0  0  0  0  0  0  0  0
   60.4941   34.1793   49.9845 H   0  0  0  0  0  0  0  0  0  0  0  0
   58.7297   35.0417   48.4509 H   0  0  0  0  0  0  0  0  0  0  0  0
   57.3460   32.6343   42.7651 H   0  0  0  0  0  0  0  0  0  0  0  0
   57.6224   30.0465   42.8811 H   0  0  0  0  0  0  0  0  0  0  0  0
   56.1408   28.3271   45.4251 H   0  0  0  0  0  0  0  0  0  0  0  0
   56.4835   25.9483   46.0879 H   0  0  0  0  0  0  0  0  0  0  0  0
   58.7893   25.0736   46.4706 H   0  0  0  0  0  0  0  0  0  0  0  0
   60.7580   26.5774   46.1810 H   0  0  0  0  0  0  0  0  0  0  0  0
   60.4300   28.9585   45.5181 H   0  0  0  0  0  0  0  0  0  0  0  0
   61.0763   33.7873   45.0380 H   0  0  0  0  0  0  0  0  0  0  0  0
   62.8401   32.9168   46.5684 H   0  0  0  0  0  0  0  0  0  0  0  0
   63.5932   34.9103   49.5967 H   0  0  0  0  0  0  0  0  0  0  0  0
   63.0712   33.9963   51.0778 H   0  0  0  0  0  0  0  0  0  0  0  0
   65.6814   34.0019   49.6436 H   0  0  0  0  0  0  0  0  0  0  0  0
   65.2576   33.6630   51.3907 H   0  0  0  0  0  0  0  0  0  0  0  0
  1  2  1  0
  2  3  1  0
  3  4  1  0
  4  5  1  0
  5  6  1  0
  6  7  2  0
  7  8  1  0
  8  9  2  0
  9 10  1  0
 10 11  1  0
 11 12  2  0
 11 13  1  0
 13 14  2  0
 14 15  1  0
 15 16  2  0
 16 17  1  0
 17 18  2  0
 18 19  1  0
 19 20  2  0
 20 21  1  0
 21 22  2  0
 16 23  1  0
  9 24  1  0
 24 25  2  0
  5 26  1  0
 26 27  1  0
 27  2  1  0
 25  6  1  0
 23 13  1  0
 22 17  1  0
  1 28  1  0
  1 29  1  0
  1 30  1  0
  2 31  1  0
  3 32  1  0
  3 33  1  0
  4 34  1  0
  4 35  1  0
  7 36  1  0
  8 37  1  0
 14 38  1  0
 15 39  1  0
 18 40  1  0
 19 41  1  0
 20 42  1  0
 21 43  1  0
 22 44  1  0
 24 45  1  0
 25 46  1  0
 26 47  1  0
 26 48  1  0
 27 49  1  0
 27 50  1  0
M  CHG  2   2   1  10  -1
M  END
>  <UniqueID>  (51) 
46

>  <SMILES>  (51) 
C[NH+]1CCN(c2ccc([N-]C(=O)c3ccc(-c4ccccc4)s3)cc2)CC1

>  <Energy>  (51) 
96.46845767059939

>  <Genealogy>  (51) 
C[NH+]1CCN(c2ccc([N-]C(=O)c3ccc(-c4ccccc4)s3)cc2)CC1 (protonated)
C[NH+]1CCN(c2ccc([N-]C(=O)c3ccc(-c4ccccc4)s3)cc2)CC1 (3D coordinates assigned)
C[NH+]1CCN(c2ccc([N-]C(=O)c3ccc(-c4ccccc4)s3)cc2)CC1 (nonaromatic ring conformer: 96.46845767059939 kcal/mol)

>  <smiles>  (51) 
CN1CCN(c2ccc(NC(=O)c3ccc(-c4ccccc4)s3)cc2)CC1

>  <score_type>  (51) 
oracle

>  <origin>  (51) 
adg

>  <m_score__min__energy>  (51) 
-7.8399999999999999

>  <m_primary>  (51) 
energy

$$$$
51:0
     RDKit          3D

 43 46  0  0  1  0  0  0  0  0999 V2000
   56.1180   29.7300   43.4490 C   0  0  0  0  0  0  0  0  0  0  0  0
   55.9590   30.6830   44.4960 O   0  0  0  0  0  0  0  0  0  0  0  0
   57.0470   31.4210   44.9240 C   0  0  0  0  0  0  0  0  0  0  0  0
   57.0180   32.7850   44.6120 C   0  0  0  0  0  0  0  0  0  0  0  0
   58.0680   33.5880   45.0050 C   0  0  0  0  0  0  0  0  0  0  0  0
   59.0980   32.9820   45.6940 C   0  0  0  0  0  0  0  0  0  0  0  0
   60.1280   33.7270   46.0880 N   0  0  0  0  0  0  0  0  0  0  0  0
   61.1430   33.1560   46.7610 C   0  0  0  0  0  0  0  0  0  0  0  0
   62.1160   33.9000   47.1250 N   0  0  0  0  0  0  0  0  0  0  0  0
   62.8920   33.6340   48.2880 C   0  0  0  0  0  0  0  0  0  0  0  0
   64.1580   33.0580   48.2210 C   0  0  0  0  0  0  0  0  0  0  0  0
   64.8490   32.8330   49.4060 C   0  0  0  0  0  0  0  0  0  0  0  0
   64.2710   33.1810   50.6170 C   0  0  0  0  0  0  0  0  0  0  0  0
   64.9450   32.9610   51.7890 F   0  0  0  0  0  0  0  0  0  0  0  0
   63.0160   33.7530   50.7030 C   0  0  0  0  0  0  0  0  0  0  0  0
   62.3350   33.9730   49.5110 C   0  0  0  0  0  0  0  0  0  0  0  0
   61.0990   34.5340   49.5550 F   0  0  0  0  0  0  0  0  0  0  0  0
   61.1640   31.8490   47.0560 N   0  0  0  0  0  0  0  0  0  0  0  0
   60.1510   31.0450   46.6840 C   0  0  0  0  0  0  0  0  0  0  0  0
   60.2080   29.6490   47.0190 C   0  0  0  0  0  0  0  0  0  0  0  0
   60.3120   28.7710   46.0320 C   0  0  0  0  0  0  0  0  0  0  0  0
   60.3790   27.3030   46.2560 C   0  0  0  0  0  0  0  0  0  0  0  0
   59.7100   27.0180   47.4290 O   0  0  0  0  0  0  0  0  0  0  0  0
   60.3530   27.6660   48.4740 C   0  0  0  0  0  0  0  0  0  0  0  0
   60.1550   29.1650   48.4250 C   0  0  0  0  0  0  0  0  0  0  0  0
   59.1090   31.6290   45.9930 C   0  0  0  0  0  0  0  0  0  0  0  0
   58.0720   30.8740   45.5980 N   0  0  0  0  0  0  0  0  0  0  0  0
   56.2843   28.7330   43.8829 H   0  0  0  0  0  0  0  0  0  0  0  0
   55.2103   29.7128   42.8279 H   0  0  0  0  0  0  0  0  0  0  0  0
   56.9821   30.0084   42.8279 H   0  0  0  0  0  0  0  0  0  0  0  0
   56.1676   33.2116   44.0598 H   0  0  0  0  0  0  0  0  0  0  0  0
   58.0835   34.6644   44.7790 H   0  0  0  0  0  0  0  0  0  0  0  0
   60.1520   34.7510   45.8780 H   0  0  0  0  0  0  0  0  0  0  0  0
   64.6016   32.7870   47.2516 H   0  0  0  0  0  0  0  0  0  0  0  0
   65.8512   32.3803   49.3829 H   0  0  0  0  0  0  0  0  0  0  0  0
   62.5744   34.0229   51.6736 H   0  0  0  0  0  0  0  0  0  0  0  0
   60.3506   29.1460   44.9986 H   0  0  0  0  0  0  0  0  0  0  0  0
   59.9019   26.7755   45.4169 H   0  0  0  0  0  0  0  0  0  0  0  0
   61.4267   26.9752   46.3251 H   0  0  0  0  0  0  0  0  0  0  0  0
   59.9528   27.2867   49.4258 H   0  0  0  0  0  0  0  0  0  0  0  0
   61.4307   27.4646   48.3842 H   0  0  0  0  0  0  0  0  0  0  0  0
   59.1754   29.4156   48.8580 H   0  0  0  0  0  0  0  0  0  0  0  0
   60.9575   29.6501   49.0001 H   0  0  0  0  0  0  0  0  0  0  0  0
  1  2  1  0
  2  3  1  0
  3  4  2  0
  4  5  1  0
  5  6  2  0
  6  7  1  0
  7  8  1  0
  8  9  2  0
  9 10  1  0
 10 11  2  0
 11 12  1  0
 12 13  2  0
 13 14  1  0
 13 15  1  0
 15 16  2  0
 16 17  1  0
  8 18  1  0
 18 19  2  0
 19 20  1  0
 20 21  2  0
 21 22  1  0
 22 23  1  0
 23 24  1  0
 24 25  1  0
 19 26  1  0
 26 27  2  0
 27  3  1  0
 26  6  1  0
 16 10  1  0
 25 20  1  0
  1 28  1  0
  1 29  1  0
  1 30  1  0
  4 31  1  0
  5 32  1  0
  7 33  1  0
 11 34  1  0
 12 35  1  0
 15 36  1  0
 21 37  1  0
 22 38  1  0
 22 39  1  0
 24 40  1  0
 24 41  1  0
 25 42  1  0
 25 43  1  0
M  END
>  <smiles>  (52) 
COc1ccc2[nH]c(=Nc3ccc(F)cc3F)nc(C3=CCOCC3)c2n1

>  <score_type>  (52) 
oracle

>  <origin>  (52) 
adg

>  <m_score__min__energy>  (52) 
-7.3600000000000003

>  <m_primary>  (52) 
energy

$$$$
52:0
     RDKit          3D

 42 45  0  0  0  0  0  0  0  0999 V2000
   55.9790   21.7610   42.8750 O   0  0  0  0  0  0  0  0  0  0  0  0
   57.0260   22.2440   43.3770 C   0  0  0  0  0  0  0  0  0  0  0  0
   57.0620   22.5520   44.7700 N   0  0  0  0  0  0  0  0  0  0  0  0
   56.7520   23.8250   45.3490 C   0  0  0  0  0  0  0  0  0  0  0  0
   56.0490   24.0300   46.5300 C   0  0  0  0  0  0  0  0  0  0  0  0
   55.9410   25.3610   46.7690 N   0  0  0  0  0  0  0  0  0  0  0  0
   56.5530   25.9820   45.7740 N   0  0  0  0  0  0  0  0  0  0  0  0
   56.6850   27.3180   45.6080 C   0  0  0  0  0  0  0  0  0  0  0  0
   57.3720   27.7850   44.4700 C   0  0  0  0  0  0  0  0  0  0  0  0
   57.5500   29.2380   44.2260 C   0  0  0  0  0  0  0  0  0  0  0  0
   56.9500   29.8530   43.1130 C   0  0  0  0  0  0  0  0  0  0  0  0
   57.1010   31.2240   42.8960 C   0  0  0  0  0  0  0  0  0  0  0  0
   57.8610   31.9950   43.7760 C   0  0  0  0  0  0  0  0  0  0  0  0
   58.4920   31.4000   44.8770 C   0  0  0  0  0  0  0  0  0  0  0  0
   59.2560   32.2210   45.7770 N   0  0  0  0  0  0  0  0  0  0  0  0
   58.9690   33.5990   46.0540 C   0  0  0  0  0  0  0  0  0  0  0  0
   57.9010   34.1250   45.6390 O   0  0  0  0  0  0  0  0  0  0  0  0
   59.9170   34.3720   46.7990 N   0  0  0  0  0  0  0  0  0  0  0  0
   61.2070   33.9370   47.2570 C   0  0  0  0  0  0  0  0  0  0  0  0
   62.3000   33.8310   46.3780 C   0  0  0  0  0  0  0  0  0  0  0  0
   63.5500   33.4270   46.8520 C   0  0  0  0  0  0  0  0  0  0  0  0
   63.7270   33.1410   48.2060 C   0  0  0  0  0  0  0  0  0  0  0  0
   62.6580   33.2660   49.0980 C   0  0  0  0  0  0  0  0  0  0  0  0
   62.9280   32.9100   50.7990 Cl  0  0  0  0  0  0  0  0  0  0  0  0
   61.3950   33.6730   48.6270 C   0  0  0  0  0  0  0  0  0  0  0  0
   60.0410   33.8380   49.7440 Cl  0  0  0  0  0  0  0  0  0  0  0  0
   58.3160   30.0250   45.1090 C   0  0  0  0  0  0  0  0  0  0  0  0
   57.8880   26.8220   43.5650 C   0  0  0  0  0  0  0  0  0  0  0  0
   57.7200   25.4870   43.7970 N   0  0  0  0  0  0  0  0  0  0  0  0
   57.0500   25.0950   44.9060 C   0  0  0  0  0  0  0  0  0  0  0  0
   57.9084   22.4279   42.7464 H   0  0  0  0  0  0  0  0  0  0  0  0
   55.6425   23.2350   47.1725 H   0  0  0  0  0  0  0  0  0  0  0  0
   56.2667   28.0218   46.3427 H   0  0  0  0  0  0  0  0  0  0  0  0
   56.3579   29.2502   42.4087 H   0  0  0  0  0  0  0  0  0  0  0  0
   56.6190   31.6979   42.0282 H   0  0  0  0  0  0  0  0  0  0  0  0
   57.9656   33.0765   43.6047 H   0  0  0  0  0  0  0  0  0  0  0  0
   60.0130   31.7670   46.3380 H   0  0  0  0  0  0  0  0  0  0  0  0
   62.1695   34.0676   45.3117 H   0  0  0  0  0  0  0  0  0  0  0  0
   64.3969   33.3341   46.1562 H   0  0  0  0  0  0  0  0  0  0  0  0
   64.7117   32.8159   48.5731 H   0  0  0  0  0  0  0  0  0  0  0  0
   58.7813   29.5580   45.9896 H   0  0  0  0  0  0  0  0  0  0  0  0
   58.4292   27.1544   42.6669 H   0  0  0  0  0  0  0  0  0  0  0  0
  1  2  2  0
  2  3  1  0
  3  4  1  0
  4  5  1  0
  5  6  2  0
  6  7  1  0
  7  8  1  0
  8  9  2  0
  9 10  1  0
 10 11  2  0
 11 12  1  0
 12 13  2  0
 13 14  1  0
 14 15  1  0
 15 16  1  0
 16 17  2  0
 16 18  1  0
 18 19  1  0
 19 20  2  0
 20 21  1  0
 21 22  2  0
 22 23  1  0
 23 24  1  0
 23 25  2  0
 25 26  1  0
 14 27  2  0
  9 28  1  0
 28 29  2  0
 29 30  1  0
 30  4  2  0
 30  7  1  0
 27 10  1  0
 25 19  1  0
  2 31  1  0
  5 32  1  0
  8 33  1  0
 11 34  1  0
 12 35  1  0
 13 36  1  0
 15 37  1  0
 20 38  1  0
 21 39  1  0
 22 40  1  0
 27 41  1  0
 28 42  1  0
M  CHG  2   3  -1  18  -1
M  END
>  <UniqueID>  (53) 
47

>  <SMILES>  (53) 
O=C[N-]c1cnn2cc(-c3cccc(NC(=O)[N-]c4cccc(Cl)c4Cl)c3)cnc12

>  <Energy>  (53) 
99.85361702547169

>  <Genealogy>  (53) 
O=C[N-]c1cnn2cc(-c3cccc(NC(=O)[N-]c4cccc(Cl)c4Cl)c3)cnc12 (protonated)
O=C[N-]c1cnn2cc(-c3cccc(NC(=O)[N-]c4cccc(Cl)c4Cl)c3)cnc12 (3D coordinates assigned)
O=C[N-]c1cnn2cc(-c3cccc(NC(=O)[N-]c4cccc(Cl)c4Cl)c3)cnc12 (optimized conformer: 99.85361702547169 kcal/mol)

>  <smiles>  (53) 
O=CNc1cnn2cc(-c3cccc(NC(=O)Nc4cccc(Cl)c4Cl)c3)cnc12

>  <score_type>  (53) 
oracle

>  <origin>  (53) 
adg

>  <m_score__min__energy>  (53) 
-11.720000000000001

>  <m_primary>  (53) 
energy

$$$$
53:0
     RDKit          3D

 56 59  0  0  0  0  0  0  0  0999 V2000
   55.3190   23.6520   44.0530 C   0  0  0  0  0  0  0  0  0  0  0  0
   54.5330   24.3730   45.0680 N   0  0  0  0  0  0  0  0  0  0  0  0
   53.1700   23.8150   45.1220 C   0  0  0  0  0  0  0  0  0  0  0  0
   55.1950   24.2730   46.3850 C   0  0  0  0  0  0  0  0  0  0  0  0
   56.4910   25.0480   46.3880 C   0  0  0  0  0  0  0  0  0  0  0  0
   56.5060   26.3940   45.9820 C   0  0  0  0  0  0  0  0  0  0  0  0
   57.7070   27.1250   45.9630 C   0  0  0  0  0  0  0  0  0  0  0  0
   57.7160   28.5440   45.5310 C   0  0  0  0  0  0  0  0  0  0  0  0
   56.8050   29.0020   44.5660 C   0  0  0  0  0  0  0  0  0  0  0  0
   56.8250   30.3340   44.1450 C   0  0  0  0  0  0  0  0  0  0  0  0
   57.7470   31.2410   44.6970 C   0  0  0  0  0  0  0  0  0  0  0  0
   57.7990   32.6160   44.2850 N   0  0  0  0  0  0  0  0  0  0  0  0
   57.4980   33.9950   45.2910 S   0  0  0  0  0  0  0  0  0  0  0  0
   59.0330   34.7960   45.7070 C   0  0  0  0  0  0  0  0  0  0  0  0
   56.7700   33.5770   46.5380 O   0  0  0  0  0  0  0  0  0  0  0  0
   56.6390   34.9670   44.5330 O   0  0  0  0  0  0  0  0  0  0  0  0
   58.6380   30.8000   45.6890 C   0  0  0  0  0  0  0  0  0  0  0  0
   59.6080   31.7160   46.2250 N   0  0  0  0  0  0  0  0  0  0  0  0
   59.7580   32.0830   47.4720 C   0  0  0  0  0  0  0  0  0  0  0  0
   58.6550   32.2980   48.3240 C   0  0  0  0  0  0  0  0  0  0  0  0
   58.8600   32.6960   49.6450 C   0  0  0  0  0  0  0  0  0  0  0  0
   60.1180   32.8920   50.1130 N   0  0  0  0  0  0  0  0  0  0  0  0
   61.2110   32.7180   49.3260 C   0  0  0  0  0  0  0  0  0  0  0  0
   62.4870   32.9440   49.8540 C   0  0  0  0  0  0  0  0  0  0  0  0
   63.6210   32.7750   49.0530 C   0  0  0  0  0  0  0  0  0  0  0  0
   65.2170   33.0610   49.7210 Cl  0  0  0  0  0  0  0  0  0  0  0  0
   63.4810   32.3770   47.7210 C   0  0  0  0  0  0  0  0  0  0  0  0
   62.2120   32.1450   47.1830 C   0  0  0  0  0  0  0  0  0  0  0  0
   61.0590   32.3140   47.9760 C   0  0  0  0  0  0  0  0  0  0  0  0
   58.6410   29.4500   46.0770 C   0  0  0  0  0  0  0  0  0  0  0  0
   58.8980   26.4900   46.3540 C   0  0  0  0  0  0  0  0  0  0  0  0
   58.8900   25.1500   46.7490 C   0  0  0  0  0  0  0  0  0  0  0  0
   57.6950   24.4270   46.7650 C   0  0  0  0  0  0  0  0  0  0  0  0
   57.7120   23.0920   47.1570 O   0  0  0  0  0  0  0  0  0  0  0  0
   56.0416   22.9892   44.5515 H   0  0  0  0  0  0  0  0  0  0  0  0
   54.6442   23.0522   43.4246 H   0  0  0  0  0  0  0  0  0  0  0  0
   55.8584   24.3760   43.4246 H   0  0  0  0  0  0  0  0  0  0  0  0
   52.8661   23.6906   46.1718 H   0  0  0  0  0  0  0  0  0  0  0  0
   52.4730   24.5002   44.6172 H   0  0  0  0  0  0  0  0  0  0  0  0
   53.1536   22.8378   44.6172 H   0  0  0  0  0  0  0  0  0  0  0  0
   54.5272   24.6822   47.1574 H   0  0  0  0  0  0  0  0  0  0  0  0
   55.4136   23.2152   46.5929 H   0  0  0  0  0  0  0  0  0  0  0  0
   55.5681   26.8804   45.6759 H   0  0  0  0  0  0  0  0  0  0  0  0
   56.0689   28.3059   44.1375 H   0  0  0  0  0  0  0  0  0  0  0  0
   56.1152   30.6753   43.3771 H   0  0  0  0  0  0  0  0  0  0  0  0
   59.1343   34.8488   46.8011 H   0  0  0  0  0  0  0  0  0  0  0  0
   59.8720   34.2207   45.2885 H   0  0  0  0  0  0  0  0  0  0  0  0
   59.0410   35.8132   45.2885 H   0  0  0  0  0  0  0  0  0  0  0  0
   57.6322   32.1517   47.9465 H   0  0  0  0  0  0  0  0  0  0  0  0
   57.9978   32.8516   50.3101 H   0  0  0  0  0  0  0  0  0  0  0  0
   62.5986   33.2557   50.9030 H   0  0  0  0  0  0  0  0  0  0  0  0
   64.3741   32.2456   47.0925 H   0  0  0  0  0  0  0  0  0  0  0  0
   62.1125   31.8286   46.1342 H   0  0  0  0  0  0  0  0  0  0  0  0
   59.3755   29.0982   46.8164 H   0  0  0  0  0  0  0  0  0  0  0  0
   59.8435   27.0521   46.3490 H   0  0  0  0  0  0  0  0  0  0  0  0
   59.8291   24.6620   47.0488 H   0  0  0  0  0  0  0  0  0  0  0  0
  1  2  1  0
  2  3  1  0
  2  4  1  0
  4  5  1  0
  5  6  2  0
  6  7  1  0
  7  8  1  0
  8  9  2  0
  9 10  1  0
 10 11  2  0
 11 12  1  0
 12 13  1  0
 13 14  1  0
 13 15  2  0
 13 16  2  0
 11 17  1  0
 17 18  1  0
 18 19  2  3
 19 20  1  0
 20 21  2  0
 21 22  1  0
 22 23  1  0
 23 24  2  0
 24 25  1  0
 25 26  1  0
 25 27  2  0
 27 28  1  0
 28 29  2  0
 17 30  2  0
  7 31  2  0
 31 32  1  0
 32 33  2  0
 33 34  1  0
 33  5  1  0
 30  8  1  0
 29 19  1  0
 29 23  1  0
  1 35  1  0
  1 36  1  0
  1 37  1  0
  3 38  1  0
  3 39  1  0
  3 40  1  0
  4 41  1  0
  4 42  1  0
  6 43  1  0
  9 44  1  0
 10 45  1  0
 14 46  1  0
 14 47  1  0
 14 48  1  0
 20 49  1  0
 21 50  1  0
 24 51  1  0
 27 52  1  0
 28 53  1  0
 30 54  1  0
 31 55  1  0
 32 56  1  0
M  CHG  3  12  -1  22  -1  34  -1
M  END
>  <UniqueID>  (54) 
48

>  <SMILES>  (54) 
CN(C)Cc1cc(-c2ccc([N-]S(C)(=O)=O)c(N=c3cc[n-]c4cc(Cl)ccc34)c2)ccc1[O-]

>  <Energy>  (54) 
79.23981222275627

>  <Genealogy>  (54) 
CN(C)Cc1cc(-c2ccc([N-]S(C)(=O)=O)c(N=c3cc[n-]c4cc(Cl)ccc34)c2)ccc1[O-] (protonated)
CN(C)Cc1cc(-c2ccc([N-]S(C)(=O)=O)c(N=c3cc[n-]c4cc(Cl)ccc34)c2)ccc1[O-] (3D coordinates assigned)
CN(C)Cc1cc(-c2ccc([N-]S(C)(=O)=O)c(N=c3cc[n-]c4cc(Cl)ccc34)c2)ccc1[O-] (optimized conformer: 79.23981222275627 kcal/mol)

>  <smiles>  (54) 
CN(C)Cc1cc(-c2ccc(NS(C)(=O)=O)c(N=c3cc[nH]c4cc(Cl)ccc34)c2)ccc1O

>  <score_type>  (54) 
oracle

>  <origin>  (54) 
adg

>  <m_score__min__energy>  (54) 
-12.869999999999999

>  <m_primary>  (54) 
energy

$$$$
54:0
     RDKit          3D

 38 40  0  0  0  0  0  0  0  0999 V2000
   55.1420   26.6800   45.9890 N   0  0  0  0  0  0  0  0  0  0  0  0
   56.8400   27.0030   45.9770 S   0  0  0  0  0  0  0  0  0  0  0  0
   57.5080   26.0060   45.0720 O   0  0  0  0  0  0  0  0  0  0  0  0
   57.3890   26.8590   47.3680 O   0  0  0  0  0  0  0  0  0  0  0  0
   57.1500   28.6340   45.3890 C   0  0  0  0  0  0  0  0  0  0  0  0
   56.2120   29.2880   44.5810 C   0  0  0  0  0  0  0  0  0  0  0  0
   56.4580   30.5860   44.1240 C   0  0  0  0  0  0  0  0  0  0  0  0
   57.6470   31.2520   44.4720 C   0  0  0  0  0  0  0  0  0  0  0  0
   57.9080   32.6280   43.9880 C   0  0  0  0  0  0  0  0  0  0  0  0
   58.2930   32.8210   42.8020 O   0  0  0  0  0  0  0  0  0  0  0  0
   57.7210   33.7460   44.8620 N   0  0  0  0  0  0  0  0  0  0  0  0
   58.8210   34.4120   45.5460 C   0  0  0  0  0  0  0  0  0  0  0  0
   59.2210   33.6090   46.7600 C   0  0  0  0  0  0  0  0  0  0  0  0
   58.2070   33.1030   47.5920 C   0  0  0  0  0  0  0  0  0  0  0  0
   58.5190   32.3630   48.7320 C   0  0  0  0  0  0  0  0  0  0  0  0
   59.8490   32.1170   49.0690 C   0  0  0  0  0  0  0  0  0  0  0  0
   60.8840   32.6180   48.2690 C   0  0  0  0  0  0  0  0  0  0  0  0
   62.2210   32.3740   48.6210 C   0  0  0  0  0  0  0  0  0  0  0  0
   63.2580   32.8760   47.8350 C   0  0  0  0  0  0  0  0  0  0  0  0
   62.9740   33.6230   46.6930 C   0  0  0  0  0  0  0  0  0  0  0  0
   61.6490   33.8740   46.3260 C   0  0  0  0  0  0  0  0  0  0  0  0
   60.5810   33.3740   47.1040 C   0  0  0  0  0  0  0  0  0  0  0  0
   58.5800   30.5930   45.2910 C   0  0  0  0  0  0  0  0  0  0  0  0
   58.3310   29.2950   45.7470 C   0  0  0  0  0  0  0  0  0  0  0  0
   54.7570   27.0780   46.8740 H   0  0  0  0  0  0  0  0  0  0  0  0
   55.2773   28.7781   44.3046 H   0  0  0  0  0  0  0  0  0  0  0  0
   55.7161   31.0903   43.4874 H   0  0  0  0  0  0  0  0  0  0  0  0
   59.6795   34.4963   44.8634 H   0  0  0  0  0  0  0  0  0  0  0  0
   58.5016   35.4165   45.8607 H   0  0  0  0  0  0  0  0  0  0  0  0
   57.1532   33.2934   47.3403 H   0  0  0  0  0  0  0  0  0  0  0  0
   57.7117   31.9715   49.3684 H   0  0  0  0  0  0  0  0  0  0  0  0
   60.0867   31.5272   49.9666 H   0  0  0  0  0  0  0  0  0  0  0  0
   62.4517   31.7844   49.5205 H   0  0  0  0  0  0  0  0  0  0  0  0
   64.3033   32.6818   48.1172 H   0  0  0  0  0  0  0  0  0  0  0  0
   63.7965   34.0168   46.0778 H   0  0  0  0  0  0  0  0  0  0  0  0
   61.4359   34.4659   45.4237 H   0  0  0  0  0  0  0  0  0  0  0  0
   59.5127   31.1021   45.5752 H   0  0  0  0  0  0  0  0  0  0  0  0
   59.0669   28.7905   46.3904 H   0  0  0  0  0  0  0  0  0  0  0  0
  1  2  1  0
  2  3  2  0
  2  4  2  0
  2  5  1  0
  5  6  2  0
  6  7  1  0
  7  8  2  0
  8  9  1  0
  9 10  2  0
  9 11  1  0
 11 12  1  0
 12 13  1  0
 13 14  2  0
 14 15  1  0
 15 16  2  0
 16 17  1  0
 17 18  2  0
 18 19  1  0
 19 20  2  0
 20 21  1  0
 21 22  2  0
  8 23  1  0
 23 24  2  0
 24  5  1  0
 22 13  1  0
 22 17  1  0
  1 25  1  0
  6 26  1  0
  7 27  1  0
 12 28  1  0
 12 29  1  0
 14 30  1  0
 15 31  1  0
 16 32  1  0
 18 33  1  0
 19 34  1  0
 20 35  1  0
 21 36  1  0
 23 37  1  0
 24 38  1  0
M  CHG  2   1  -1  11  -1
M  END
>  <UniqueID>  (55) 
49

>  <SMILES>  (55) 
[NH-]S(=O)(=O)c1ccc(C(=O)[N-]Cc2cccc3ccccc23)cc1

>  <Energy>  (55) 
44.29000965021964

>  <Genealogy>  (55) 
[NH-]S(=O)(=O)c1ccc(C(=O)[N-]Cc2cccc3ccccc23)cc1 (protonated)
[NH-]S(=O)(=O)c1ccc(C(=O)[N-]Cc2cccc3ccccc23)cc1 (3D coordinates assigned)
[NH-]S(=O)(=O)c1ccc(C(=O)[N-]Cc2cccc3ccccc23)cc1 (optimized conformer: 44.29000965021964 kcal/mol)

>  <smiles>  (55) 
NS(=O)(=O)c1ccc(C(=O)NCc2cccc3ccccc23)cc1

>  <score_type>  (55) 
oracle

>  <origin>  (55) 
adg

>  <m_score__min__energy>  (55) 
-12.34

>  <m_primary>  (55) 
energy

$$$$
55:0
     RDKit          3D

 48 51  0  0  0  0  0  0  0  0999 V2000
   57.6680   34.9700   44.8350 O   0  0  0  0  0  0  0  0  0  0  0  0
   58.5860   34.4120   45.4940 C   0  0  0  0  0  0  0  0  0  0  0  0
   59.6230   35.2620   46.1760 C   0  0  0  0  0  0  0  0  0  0  0  0
   60.2220   34.5290   47.3780 C   0  0  0  0  0  0  0  0  0  0  0  0
   60.6660   33.1910   46.9750 N   0  0  0  0  0  0  0  0  0  0  0  0
   62.3340   32.7280   47.1720 S   0  0  0  0  0  0  0  0  0  0  0  0
   62.4710   31.2530   46.9230 O   0  0  0  0  0  0  0  0  0  0  0  0
   63.2010   33.4720   46.1940 O   0  0  0  0  0  0  0  0  0  0  0  0
   62.8890   33.1370   48.7940 C   0  0  0  0  0  0  0  0  0  0  0  0
   64.2530   33.0830   49.1220 C   0  0  0  0  0  0  0  0  0  0  0  0
   64.6730   33.3910   50.4200 C   0  0  0  0  0  0  0  0  0  0  0  0
   63.7370   33.7530   51.3930 C   0  0  0  0  0  0  0  0  0  0  0  0
   62.3780   33.8060   51.0700 C   0  0  0  0  0  0  0  0  0  0  0  0
   61.9540   33.4990   49.7740 C   0  0  0  0  0  0  0  0  0  0  0  0
   59.7210   32.3420   46.2950 C   0  0  0  0  0  0  0  0  0  0  0  0
   59.7950   30.9410   46.3890 C   0  0  0  0  0  0  0  0  0  0  0  0
   58.8670   30.1400   45.7220 C   0  0  0  0  0  0  0  0  0  0  0  0
   57.8490   30.7230   44.9600 C   0  0  0  0  0  0  0  0  0  0  0  0
   56.7070   29.6950   44.0980 S   0  0  0  0  0  0  0  0  0  0  0  0
   56.4340   30.2370   42.7230 O   0  0  0  0  0  0  0  0  0  0  0  0
   55.4190   29.6520   44.8720 O   0  0  0  0  0  0  0  0  0  0  0  0
   57.3470   28.0880   43.9570 N   0  0  0  0  0  0  0  0  0  0  0  0
   57.8460   27.3270   45.0730 C   0  0  0  0  0  0  0  0  0  0  0  0
   59.2240   27.0930   45.2510 C   0  0  0  0  0  0  0  0  0  0  0  0
   59.6810   26.3570   46.3480 C   0  0  0  0  0  0  0  0  0  0  0  0
   58.7740   25.8410   47.2740 C   0  0  0  0  0  0  0  0  0  0  0  0
   57.4050   26.0570   47.1040 C   0  0  0  0  0  0  0  0  0  0  0  0
   56.9400   26.7930   46.0100 C   0  0  0  0  0  0  0  0  0  0  0  0
   55.6050   26.9960   45.8700 F   0  0  0  0  0  0  0  0  0  0  0  0
   57.7490   32.1170   44.8840 C   0  0  0  0  0  0  0  0  0  0  0  0
   58.6780   32.9320   45.5520 C   0  0  0  0  0  0  0  0  0  0  0  0
   60.4248   35.4962   45.4603 H   0  0  0  0  0  0  0  0  0  0  0  0
   59.1436   36.1865   46.5301 H   0  0  0  0  0  0  0  0  0  0  0  0
   61.0814   35.0985   47.7615 H   0  0  0  0  0  0  0  0  0  0  0  0
   59.4577   34.4360   48.1636 H   0  0  0  0  0  0  0  0  0  0  0  0
   64.9915   32.7984   48.3580 H   0  0  0  0  0  0  0  0  0  0  0  0
   65.7420   33.3483   50.6757 H   0  0  0  0  0  0  0  0  0  0  0  0
   64.0698   33.9962   52.4129 H   0  0  0  0  0  0  0  0  0  0  0  0
   61.6416   34.0896   51.8364 H   0  0  0  0  0  0  0  0  0  0  0  0
   60.8840   33.5415   49.5223 H   0  0  0  0  0  0  0  0  0  0  0  0
   60.5882   30.4740   46.9912 H   0  0  0  0  0  0  0  0  0  0  0  0
   58.9364   29.0447   45.7958 H   0  0  0  0  0  0  0  0  0  0  0  0
   57.2710   27.6350   43.0200 H   0  0  0  0  0  0  0  0  0  0  0  0
   59.9447   27.4920   44.5221 H   0  0  0  0  0  0  0  0  0  0  0  0
   60.7591   26.1841   46.4816 H   0  0  0  0  0  0  0  0  0  0  0  0
   59.1371   25.2644   48.1375 H   0  0  0  0  0  0  0  0  0  0  0  0
   56.6904   25.6470   47.8328 H   0  0  0  0  0  0  0  0  0  0  0  0
   56.9391   32.5766   44.2984 H   0  0  0  0  0  0  0  0  0  0  0  0
  1  2  2  0
  2  3  1  0
  3  4  1  0
  4  5  1  0
  5  6  1  0
  6  7  2  0
  6  8  2  0
  6  9  1  0
  9 10  2  0
 10 11  1  0
 11 12  2  0
 12 13  1  0
 13 14  2  0
  5 15  1  0
 15 16  2  0
 16 17  1  0
 17 18  2  0
 18 19  1  0
 19 20  2  0
 19 21  2  0
 19 22  1  0
 22 23  1  0
 23 24  2  0
 24 25  1  0
 25 26  2  0
 26 27  1  0
 27 28  2  0
 28 29  1  0
 18 30  1  0
 30 31  2  0
 31  2  1  0
 14  9  1  0
 31 15  1  0
 28 23  1  0
  3 32  1  0
  3 33  1  0
  4 34  1  0
  4 35  1  0
 10 36  1  0
 11 37  1  0
 12 38  1  0
 13 39  1  0
 14 40  1  0
 16 41  1  0
 17 42  1  0
 22 43  1  0
 24 44  1  0
 25 45  1  0
 26 46  1  0
 27 47  1  0
 30 48  1  0
M  END
>  <UniqueID>  (56) 
50

>  <SMILES>  (56) 
O=C1CCN(S(=O)(=O)c2ccccc2)c2ccc(S(=O)(=O)Nc3ccccc3F)cc21

>  <Energy>  (56) 
59.53379847817988

>  <Genealogy>  (56) 
O=C1CCN(S(=O)(=O)c2ccccc2)c2ccc(S(=O)(=O)Nc3ccccc3F)cc21 (3D coordinates assigned)
O=C1CCN(S(=O)(=O)c2ccccc2)c2ccc(S(=O)(=O)Nc3ccccc3F)cc21 (nonaromatic ring conformer: 59.53379847817988 kcal/mol)

>  <smiles>  (56) 
O=C1CCN(S(=O)(=O)c2ccccc2)c2ccc(S(=O)(=O)Nc3ccccc3F)cc21

>  <score_type>  (56) 
oracle

>  <origin>  (56) 
adg

>  <m_score__min__energy>  (56) 
-10.99

>  <m_primary>  (56) 
energy

$$$$
56:0
     RDKit          3D

 32 33  0  0  0  0  0  0  0  0999 V2000
   56.6890   34.3380   45.1210 N   0  0  0  0  0  0  0  0  0  0  0  0
   57.4030   33.3380   45.7990 N   0  0  0  0  0  0  0  0  0  0  0  0
   57.9500   33.4170   47.0200 C   0  0  0  0  0  0  0  0  0  0  0  0
   58.5480   32.2530   47.3440 N   0  0  0  0  0  0  0  0  0  0  0  0
   58.3790   31.4220   46.3210 N   0  0  0  0  0  0  0  0  0  0  0  0
   57.6780   32.0910   45.3870 C   0  0  0  0  0  0  0  0  0  0  0  0
   57.1860   31.3910   43.8090 S   0  0  0  0  0  0  0  0  0  0  0  0
   57.6940   29.6900   44.2330 C   0  0  0  0  0  0  0  0  0  0  0  0
   56.6500   29.0210   45.0670 C   0  0  0  0  0  0  0  0  0  0  0  0
   55.4310   29.2510   44.8400 O   0  0  0  0  0  0  0  0  0  0  0  0
   57.0460   28.0520   46.0460 N   0  0  0  0  0  0  0  0  0  0  0  0
   57.4220   26.6890   45.8030 C   0  0  0  0  0  0  0  0  0  0  0  0
   57.4170   26.1310   44.5130 C   0  0  0  0  0  0  0  0  0  0  0  0
   57.7720   24.7910   44.3240 C   0  0  0  0  0  0  0  0  0  0  0  0
   58.1270   23.9940   45.4200 C   0  0  0  0  0  0  0  0  0  0  0  0
   58.5560   22.3030   45.1840 S   0  0  0  0  0  0  0  0  0  0  0  0
   60.2670   22.1120   45.3330 N   0  0  0  0  0  0  0  0  0  0  0  0
   58.1180   21.8530   43.8180 O   0  0  0  0  0  0  0  0  0  0  0  0
   57.8660   21.4540   46.2140 O   0  0  0  0  0  0  0  0  0  0  0  0
   58.1020   24.5410   46.7100 C   0  0  0  0  0  0  0  0  0  0  0  0
   57.7460   25.8800   46.8990 C   0  0  0  0  0  0  0  0  0  0  0  0
   56.0600   34.9890   45.6400 H   0  0  0  0  0  0  0  0  0  0  0  0
   56.7830   34.4410   44.0870 H   0  0  0  0  0  0  0  0  0  0  0  0
   57.9158   34.3062   47.6666 H   0  0  0  0  0  0  0  0  0  0  0  0
   57.8398   29.1149   43.3067 H   0  0  0  0  0  0  0  0  0  0  0  0
   58.6318   29.7328   44.8064 H   0  0  0  0  0  0  0  0  0  0  0  0
   57.1330   26.7499   43.6491 H   0  0  0  0  0  0  0  0  0  0  0  0
   57.7724   24.3617   43.3112 H   0  0  0  0  0  0  0  0  0  0  0  0
   60.6990   22.5590   44.4940 H   0  0  0  0  0  0  0  0  0  0  0  0
   60.4670   21.0880   45.2650 H   0  0  0  0  0  0  0  0  0  0  0  0
   58.3631   23.9153   47.5762 H   0  0  0  0  0  0  0  0  0  0  0  0
   57.7203   26.3005   47.9151 H   0  0  0  0  0  0  0  0  0  0  0  0
  1  2  1  0
  2  3  1  0
  3  4  2  0
  4  5  1  0
  5  6  2  0
  6  7  1  0
  7  8  1  0
  8  9  1  0
  9 10  2  0
  9 11  1  0
 11 12  1  0
 12 13  2  0
 13 14  1  0
 14 15  2  0
 15 16  1  0
 16 17  1  0
 16 18  2  0
 16 19  2  0
 15 20  1  0
 20 21  2  0
  6  2  1  0
 21 12  1  0
  1 22  1  0
  1 23  1  0
  3 24  1  0
  8 25  1  0
  8 26  1  0
 13 27  1  0
 14 28  1  0
 17 29  1  0
 17 30  1  0
 20 31  1  0
 21 32  1  0
M  CHG  1  11  -1
M  END
>  <UniqueID>  (57) 
51

>  <SMILES>  (57) 
Nn1cnnc1SCC(=O)[N-]c1ccc(S(N)(=O)=O)cc1

>  <Energy>  (57) 
64.2102453681191

>  <Genealogy>  (57) 
Nn1cnnc1SCC(=O)[N-]c1ccc(S(N)(=O)=O)cc1 (protonated)
Nn1cnnc1SCC(=O)[N-]c1ccc(S(N)(=O)=O)cc1 (3D coordinates assigned)
Nn1cnnc1SCC(=O)[N-]c1ccc(S(N)(=O)=O)cc1 (optimized conformer: 64.2102453681191 kcal/mol)

>  <smiles>  (57) 
Nn1cnnc1SCC(=O)Nc1ccc(S(N)(=O)=O)cc1

>  <score_type>  (57) 
oracle

>  <origin>  (57) 
adg

>  <m_score__min__energy>  (57) 
-8.9000000000000004

>  <m_primary>  (57) 
energy

$$$$
57:0
     RDKit          3D

 34 35  0  0  0  0  0  0  0  0999 V2000
   54.7500   27.0760   46.5830 H   0  0  0  0  0  0  0  0  0  0  0  0
   55.1490   26.3570   45.9380 N   0  0  0  0  0  0  0  0  0  0  0  0
   56.8510   26.6390   45.8610 S   0  0  0  0  0  0  0  0  0  0  0  0
   57.4740   25.6740   44.8910 O   0  0  0  0  0  0  0  0  0  0  0  0
   57.4600   26.4160   47.2180 O   0  0  0  0  0  0  0  0  0  0  0  0
   57.1520   28.2920   45.3360 C   0  0  0  0  0  0  0  0  0  0  0  0
   56.0930   29.0920   44.8890 C   0  0  0  0  0  0  0  0  0  0  0  0
   55.0711   28.6855   44.8679 H   0  0  0  0  0  0  0  0  0  0  0  0
   56.3280   30.4030   44.4700 C   0  0  0  0  0  0  0  0  0  0  0  0
   55.4905   31.0261   44.1231 H   0  0  0  0  0  0  0  0  0  0  0  0
   57.6310   30.9290   44.4900 C   0  0  0  0  0  0  0  0  0  0  0  0
   57.9140   32.2830   44.1170 N   0  0  0  0  0  0  0  0  0  0  0  0
   57.7600   33.6660   45.1540 S   0  0  0  0  0  0  0  0  0  0  0  0
   56.6860   34.5680   44.6160 O   0  0  0  0  0  0  0  0  0  0  0  0
   57.3590   33.1990   46.5250 O   0  0  0  0  0  0  0  0  0  0  0  0
   59.2690   34.5780   45.2710 C   0  0  0  0  0  0  0  0  0  0  0  0
   59.5929   35.1375   44.3810 H   0  0  0  0  0  0  0  0  0  0  0  0
   60.0500   34.6420   46.3580 C   0  0  0  0  0  0  0  0  0  0  0  0
   59.9617   35.5339   46.9957 H   0  0  0  0  0  0  0  0  0  0  0  0
   61.0190   33.6070   46.7640 C   0  0  0  0  0  0  0  0  0  0  0  0
   60.5470   32.3660   47.2180 C   0  0  0  0  0  0  0  0  0  0  0  0
   59.4646   32.1779   47.2722 H   0  0  0  0  0  0  0  0  0  0  0  0
   61.4480   31.3670   47.6020 C   0  0  0  0  0  0  0  0  0  0  0  0
   61.0738   30.3892   47.9394 H   0  0  0  0  0  0  0  0  0  0  0  0
   62.8230   31.6110   47.5570 C   0  0  0  0  0  0  0  0  0  0  0  0
   63.5309   30.8217   47.8500 H   0  0  0  0  0  0  0  0  0  0  0  0
   63.3000   32.8570   47.1400 C   0  0  0  0  0  0  0  0  0  0  0  0
   64.3825   33.0512   47.1162 H   0  0  0  0  0  0  0  0  0  0  0  0
   62.4020   33.8570   46.7530 C   0  0  0  0  0  0  0  0  0  0  0  0
   62.7791   34.8416   46.4392 H   0  0  0  0  0  0  0  0  0  0  0  0
   58.6900   30.1190   44.9180 C   0  0  0  0  0  0  0  0  0  0  0  0
   59.7152   30.5178   44.9223 H   0  0  0  0  0  0  0  0  0  0  0  0
   58.4540   28.8070   45.3400 C   0  0  0  0  0  0  0  0  0  0  0  0
   59.2922   28.1787   45.6755 H   0  0  0  0  0  0  0  0  0  0  0  0
  1  2  1  0
  2  3  1  0
  3  4  2  0
  3  5  2  0
  3  6  1  0
  6  7  2  0
  7  8  1  0
  7  9  1  0
  9 10  1  0
  9 11  2  0
 11 12  1  0
 12 13  1  0
 13 14  2  0
 13 15  2  0
 13 16  1  0
 16 17  1  0
 16 18  2  0
 18 19  1  0
 18 20  1  0
 20 21  2  0
 21 22  1  0
 21 23  1  0
 23 24  1  0
 23 25  2  0
 25 26  1  0
 25 27  1  0
 27 28  1  0
 27 29  2  0
 29 30  1  0
 11 31  1  0
 31 32  1  0
 31 33  2  0
 33 34  1  0
 33  6  1  0
 29 20  1  0
M  CHG  2   2  -1  12  -1
M  END
>  <UniqueID>  (58) 
52

>  <SMILES>  (58) 
[NH-]S(=O)(=O)c1ccc([N-]S(=O)(=O)/C=C\c2ccccc2)cc1

>  <Energy>  (58) 
41.676280817610056

>  <Genealogy>  (58) 
[NH-]S(=O)(=O)c1ccc([N-]S(=O)(=O)C=Cc2ccccc2)cc1 (protonated)
[NH-]S(=O)(=O)c1ccc([N-]S(=O)(=O)/C=C\c2ccccc2)cc1 (cis-trans isomerization)
[NH-]S(=O)(=O)c1ccc([N-]S(=O)(=O)/C=C\c2ccccc2)cc1 (3D coordinates assigned)
[NH-]S(=O)(=O)c1ccc([N-]S(=O)(=O)/C=C\c2ccccc2)cc1 (optimized conformer: 41.676280817610056 kcal/mol)

>  <smiles>  (58) 
NS(=O)(=O)c1ccc(NS(=O)(=O)C=Cc2ccccc2)cc1

>  <score_type>  (58) 
oracle

>  <origin>  (58) 
adg

>  <m_score__min__energy>  (58) 
-12.279999999999999

>  <m_primary>  (58) 
energy

$$$$
58:0
     RDKit          3D

 40 42  0  0  0  0  0  0  0  0999 V2000
   56.9220   31.2080   42.6760 O   0  0  0  0  0  0  0  0  0  0  0  0
   57.1970   30.8370   44.1050 S   0  0  0  0  0  0  0  0  0  0  0  0
   55.9120   30.4010   44.7490 O   0  0  0  0  0  0  0  0  0  0  0  0
   58.3330   29.5270   44.1460 N   0  0  0  0  0  0  0  0  0  0  0  0
   58.2500   28.3890   45.0140 C   0  0  0  0  0  0  0  0  0  0  0  0
   59.4390   27.7910   45.4500 C   0  0  0  0  0  0  0  0  0  0  0  0
   59.4070   26.6860   46.3040 C   0  0  0  0  0  0  0  0  0  0  0  0
   58.1780   26.1550   46.7300 C   0  0  0  0  0  0  0  0  0  0  0  0
   58.0960   25.0270   47.6110 N   0  0  0  0  0  0  0  0  0  0  0  0
   56.9370   23.7440   47.4790 S   0  0  0  0  0  0  0  0  0  0  0  0
   55.5980   24.2340   47.9550 O   0  0  0  0  0  0  0  0  0  0  0  0
   57.3690   22.5950   48.3460 O   0  0  0  0  0  0  0  0  0  0  0  0
   56.8540   23.1960   45.8080 C   0  0  0  0  0  0  0  0  0  0  0  0
   55.9420   23.7940   44.9280 C   0  0  0  0  0  0  0  0  0  0  0  0
   55.8500   23.3540   43.6040 C   0  0  0  0  0  0  0  0  0  0  0  0
   56.6670   22.3120   43.1550 C   0  0  0  0  0  0  0  0  0  0  0  0
   56.5730   21.8830   41.8720 F   0  0  0  0  0  0  0  0  0  0  0  0
   57.5800   21.7130   44.0280 C   0  0  0  0  0  0  0  0  0  0  0  0
   57.6770   22.1540   45.3520 C   0  0  0  0  0  0  0  0  0  0  0  0
   56.9890   26.7470   46.2870 C   0  0  0  0  0  0  0  0  0  0  0  0
   57.0200   27.8570   45.4390 C   0  0  0  0  0  0  0  0  0  0  0  0
   57.8780   32.2340   44.9340 C   0  0  0  0  0  0  0  0  0  0  0  0
   58.1500   32.1600   46.3070 C   0  0  0  0  0  0  0  0  0  0  0  0
   58.6840   33.2640   46.9790 C   0  0  0  0  0  0  0  0  0  0  0  0
   58.9450   34.4480   46.2820 C   0  0  0  0  0  0  0  0  0  0  0  0
   59.4630   35.5180   46.9350 F   0  0  0  0  0  0  0  0  0  0  0  0
   58.6750   34.5250   44.9120 C   0  0  0  0  0  0  0  0  0  0  0  0
   58.1440   33.4220   44.2380 C   0  0  0  0  0  0  0  0  0  0  0  0
   60.4065   28.1950   45.1171 H   0  0  0  0  0  0  0  0  0  0  0  0
   60.3482   26.2296   46.6444 H   0  0  0  0  0  0  0  0  0  0  0  0
   55.2964   24.6122   45.2800 H   0  0  0  0  0  0  0  0  0  0  0  0
   55.1347   23.8277   42.9155 H   0  0  0  0  0  0  0  0  0  0  0  0
   58.2229   20.8939   43.6733 H   0  0  0  0  0  0  0  0  0  0  0  0
   58.3986   21.6840   46.0364 H   0  0  0  0  0  0  0  0  0  0  0  0
   56.0217   26.3344   46.6095 H   0  0  0  0  0  0  0  0  0  0  0  0
   56.0787   28.3163   45.1027 H   0  0  0  0  0  0  0  0  0  0  0  0
   57.9428   31.2306   46.8577 H   0  0  0  0  0  0  0  0  0  0  0  0
   58.8988   33.2011   48.0560 H   0  0  0  0  0  0  0  0  0  0  0  0
   58.8811   35.4560   44.3636 H   0  0  0  0  0  0  0  0  0  0  0  0
   57.9344   33.4857   43.1600 H   0  0  0  0  0  0  0  0  0  0  0  0
  1  2  2  0
  2  3  2  0
  2  4  1  0
  4  5  1  0
  5  6  2  0
  6  7  1  0
  7  8  2  0
  8  9  1  0
  9 10  1  0
 10 11  2  0
 10 12  2  0
 10 13  1  0
 13 14  2  0
 14 15  1  0
 15 16  2  0
 16 17  1  0
 16 18  1  0
 18 19  2  0
  8 20  1  0
 20 21  2  0
  2 22  1  0
 22 23  2  0
 23 24  1  0
 24 25  2  0
 25 26  1  0
 25 27  1  0
 27 28  2  0
 21  5  1  0
 28 22  1  0
 19 13  1  0
  6 29  1  0
  7 30  1  0
 14 31  1  0
 15 32  1  0
 18 33  1  0
 19 34  1  0
 20 35  1  0
 21 36  1  0
 23 37  1  0
 24 38  1  0
 27 39  1  0
 28 40  1  0
M  CHG  2   4  -1   9  -1
M  END
>  <UniqueID>  (59) 
53

>  <SMILES>  (59) 
O=S(=O)([N-]c1ccc([N-]S(=O)(=O)c2ccc(F)cc2)cc1)c1ccc(F)cc1

>  <Energy>  (59) 
49.23069101919829

>  <Genealogy>  (59) 
O=S(=O)([N-]c1ccc([N-]S(=O)(=O)c2ccc(F)cc2)cc1)c1ccc(F)cc1 (protonated)
O=S(=O)([N-]c1ccc([N-]S(=O)(=O)c2ccc(F)cc2)cc1)c1ccc(F)cc1 (3D coordinates assigned)
O=S(=O)([N-]c1ccc([N-]S(=O)(=O)c2ccc(F)cc2)cc1)c1ccc(F)cc1 (optimized conformer: 49.23069101919829 kcal/mol)

>  <smiles>  (59) 
O=S(=O)(Nc1ccc(NS(=O)(=O)c2ccc(F)cc2)cc1)c1ccc(F)cc1

>  <score_type>  (59) 
oracle

>  <origin>  (59) 
adg

>  <m_score__min__energy>  (59) 
-11.1

>  <m_primary>  (59) 
energy

$$$$
59:0
     RDKit          3D

 66 70  0  0  0  0  0  0  0  0999 V2000
   59.5366   32.7491   53.8603 H   0  0  0  0  0  0  0  0  0  0  0  0
   59.5520   32.0910   52.9790 C   0  0  0  0  0  0  0  0  0  0  0  0
   60.4006   32.1275   52.2800 H   0  0  0  0  0  0  0  0  0  0  0  0
   58.5420   31.2490   52.7580 C   0  0  0  0  0  0  0  0  0  0  0  0
   57.7069   31.2343   53.4738 H   0  0  0  0  0  0  0  0  0  0  0  0
   58.4900   30.3360   51.6000 C   0  0  0  0  0  0  0  0  0  0  0  0
   57.4040   29.7510   51.3460 O   0  0  0  0  0  0  0  0  0  0  0  0
   59.6570   30.0640   50.8040 N   0  0  0  0  0  0  0  0  0  0  0  0
   60.5940   30.1700   51.2530 H   0  0  0  0  0  0  0  0  0  0  0  0
   59.6090   29.5030   49.4800 C   0  0  0  0  0  0  0  0  0  0  0  0
   60.2720   28.2930   49.2210 C   0  0  0  0  0  0  0  0  0  0  0  0
   60.8087   27.7798   50.0325 H   0  0  0  0  0  0  0  0  0  0  0  0
   60.2550   27.7360   47.9400 C   0  0  0  0  0  0  0  0  0  0  0  0
   60.7698   26.7830   47.7482 H   0  0  0  0  0  0  0  0  0  0  0  0
   59.5850   28.3880   46.9030 C   0  0  0  0  0  0  0  0  0  0  0  0
   59.5640   27.9402   45.8985 H   0  0  0  0  0  0  0  0  0  0  0  0
   58.9390   29.6100   47.1350 C   0  0  0  0  0  0  0  0  0  0  0  0
   58.2900   30.3000   46.0500 N   0  0  0  0  0  0  0  0  0  0  0  0
   57.2910   29.6420   45.2530 C   0  0  0  0  0  0  0  0  0  0  0  0
   56.9370   28.4610   45.5240 O   0  0  0  0  0  0  0  0  0  0  0  0
   56.6980   30.3340   44.1380 N   0  0  0  0  0  0  0  0  0  0  0  0
   55.5760   29.7210   43.4230 C   0  0  0  0  0  0  0  0  0  0  0  0
   54.8509   29.3249   44.1492 H   0  0  0  0  0  0  0  0  0  0  0  0
   55.0866   30.4771   42.7914 H   0  0  0  0  0  0  0  0  0  0  0  0
   55.9479   28.9007   42.7914 H   0  0  0  0  0  0  0  0  0  0  0  0
   57.3390   31.5320   43.5820 C   0  0  0  0  0  0  0  0  0  0  0  0
   58.0228   31.2247   42.7771 H   0  0  0  0  0  0  0  0  0  0  0  0
   56.5436   32.1929   43.2070 H   0  0  0  0  0  0  0  0  0  0  0  0
   58.1220   32.2990   44.6140 C   0  0  0  0  0  0  0  0  0  0  0  0
   58.6090   31.6750   45.7740 C   0  0  0  0  0  0  0  0  0  0  0  0
   59.3530   32.3950   46.6550 N   0  0  0  0  0  0  0  0  0  0  0  0
   59.6630   33.7000   46.4310 C   0  0  0  0  0  0  0  0  0  0  0  0
   60.3530   34.3850   47.2960 N   0  0  0  0  0  0  0  0  0  0  0  0
   61.4830   33.9120   48.0490 C   0  0  0  0  0  0  0  0  0  0  0  0
   62.7430   33.7430   47.4480 C   0  0  0  0  0  0  0  0  0  0  0  0
   62.8718   33.9670   46.3788 H   0  0  0  0  0  0  0  0  0  0  0  0
   63.8300   33.2940   48.1960 C   0  0  0  0  0  0  0  0  0  0  0  0
   64.8062   33.1513   47.7094 H   0  0  0  0  0  0  0  0  0  0  0  0
   63.6880   33.0230   49.5640 C   0  0  0  0  0  0  0  0  0  0  0  0
   64.8120   32.5690   50.3420 N   0  0  0  0  0  0  0  0  0  0  0  0
   64.8110   31.2230   50.9280 C   0  0  0  0  0  0  0  0  0  0  0  0
   64.1566   31.2114   51.8121 H   0  0  0  0  0  0  0  0  0  0  0  0
   64.4426   30.5048   50.1807 H   0  0  0  0  0  0  0  0  0  0  0  0
   66.2320   30.8300   51.3440 C   0  0  0  0  0  0  0  0  0  0  0  0
   66.4597   31.2658   52.3280 H   0  0  0  0  0  0  0  0  0  0  0  0
   66.3071   29.7341   51.4020 H   0  0  0  0  0  0  0  0  0  0  0  0
   67.1530   31.3150   50.3900 O   0  0  0  0  0  0  0  0  0  0  0  0
   67.2810   32.7260   50.4930 C   0  0  0  0  0  0  0  0  0  0  0  0
   67.9075   32.9543   51.3678 H   0  0  0  0  0  0  0  0  0  0  0  0
   67.7285   33.0764   49.5512 H   0  0  0  0  0  0  0  0  0  0  0  0
   65.9320   33.4660   50.6530 C   0  0  0  0  0  0  0  0  0  0  0  0
   65.8345   33.8204   51.6898 H   0  0  0  0  0  0  0  0  0  0  0  0
   65.9091   34.3174   49.9568 H   0  0  0  0  0  0  0  0  0  0  0  0
   62.4430   33.2420   50.1770 C   0  0  0  0  0  0  0  0  0  0  0  0
   62.3295   33.0607   51.2560 H   0  0  0  0  0  0  0  0  0  0  0  0
   61.3380   33.6910   49.4270 C   0  0  0  0  0  0  0  0  0  0  0  0
   60.0820   33.9190   50.0130 O   0  0  0  0  0  0  0  0  0  0  0  0
   58.9390   33.0920   49.8200 C   0  0  0  0  0  0  0  0  0  0  0  0
   58.5308   32.7967   50.7978 H   0  0  0  0  0  0  0  0  0  0  0  0
   58.1751   33.6479   49.2565 H   0  0  0  0  0  0  0  0  0  0  0  0
   59.2281   32.1926   49.2565 H   0  0  0  0  0  0  0  0  0  0  0  0
   59.2100   34.3120   45.3080 N   0  0  0  0  0  0  0  0  0  0  0  0
   58.4580   33.6400   44.3970 C   0  0  0  0  0  0  0  0  0  0  0  0
   58.1125   34.1516   43.4866 H   0  0  0  0  0  0  0  0  0  0  0  0
   58.9590   30.1670   48.4220 C   0  0  0  0  0  0  0  0  0  0  0  0
   58.4625   31.1311   48.6065 H   0  0  0  0  0  0  0  0  0  0  0  0
  1  2  1  0
  2  3  1  0
  2  4  2  0
  4  5  1  0
  4  6  1  0
  6  7  2  0
  6  8  1  0
  8  9  1  0
  8 10  1  0
 10 11  2  0
 11 12  1  0
 11 13  1  0
 13 14  1  0
 13 15  2  0
 15 16  1  0
 15 17  1  0
 17 18  1  0
 18 19  1  0
 19 20  2  0
 19 21  1  0
 21 22  1  0
 22 23  1  0
 22 24  1  0
 22 25  1  0
 21 26  1  0
 26 27  1  0
 26 28  1  0
 26 29  1  0
 29 30  1  0
 30 31  2  0
 31 32  1  0
 32 33  2  0
 33 34  1  0
 34 35  2  0
 35 36  1  0
 35 37  1  0
 37 38  1  0
 37 39  2  0
 39 40  1  0
 40 41  1  0
 41 42  1  0
 41 43  1  0
 41 44  1  0
 44 45  1  0
 44 46  1  0
 44 47  1  0
 47 48  1  0
 48 49  1  0
 48 50  1  0
 48 51  1  0
 51 52  1  0
 51 53  1  0
 39 54  1  0
 54 55  1  0
 54 56  2  0
 56 57  1  0
 57 58  1  0
 58 59  1  0
 58 60  1  0
 58 61  1  0
 32 62  1  0
 62 63  1  0
 63 64  1  0
 17 65  2  0
 65 66  1  0
 65 10  1  0
 30 18  1  0
 56 34  1  0
 63 29  2  0
 51 40  1  0
M  CHG  1  62  -1
M  END
>  <UniqueID>  (60) 
54

>  <SMILES>  (60) 
C=CC(=O)Nc1cccc(N2C(=O)N(C)Cc3c[n-]/c(=N/c4ccc(N5CCOCC5)cc4OC)nc32)c1

>  <Energy>  (60) 
95.51326422985245

>  <Genealogy>  (60) 
C=CC(=O)Nc1cccc(N2C(=O)N(C)Cc3c[n-]c(=Nc4ccc(N5CCOCC5)cc4OC)nc32)c1 (protonated)
C=CC(=O)Nc1cccc(N2C(=O)N(C)Cc3c[n-]/c(=N/c4ccc(N5CCOCC5)cc4OC)nc32)c1 (cis-trans isomerization)
C=CC(=O)Nc1cccc(N2C(=O)N(C)Cc3c[n-]/c(=N/c4ccc(N5CCOCC5)cc4OC)nc32)c1 (3D coordinates assigned)
C=CC(=O)Nc1cccc(N2C(=O)N(C)Cc3c[n-]/c(=N/c4ccc(N5CCOCC5)cc4OC)nc32)c1 (nonaromatic ring conformer: 95.51326422985245 kcal/mol)

>  <smiles>  (60) 
C=CC(=O)Nc1cccc(N2C(=O)N(C)Cc3c[nH]c(=Nc4ccc(N5CCOCC5)cc4OC)nc32)c1

>  <score_type>  (60) 
oracle

>  <origin>  (60) 
adg

>  <m_score__min__energy>  (60) 
-10.34

>  <m_primary>  (60) 
energy

$$$$
60:0
     RDKit          3D

 48 51  0  0  0  0  0  0  0  0999 V2000
   57.2834   21.9817   45.6977 H   0  0  0  0  0  0  0  0  0  0  0  0
   57.0530   23.0570   45.6740 C   0  0  0  0  0  0  0  0  0  0  0  0
   57.3200   23.8040   44.5240 C   0  0  0  0  0  0  0  0  0  0  0  0
   57.7568   23.3147   43.6409 H   0  0  0  0  0  0  0  0  0  0  0  0
   57.0330   25.1730   44.4930 C   0  0  0  0  0  0  0  0  0  0  0  0
   57.2374   25.7551   43.5823 H   0  0  0  0  0  0  0  0  0  0  0  0
   56.4840   25.8080   45.6220 C   0  0  0  0  0  0  0  0  0  0  0  0
   56.1460   27.2050   45.6040 N   0  0  0  0  0  0  0  0  0  0  0  0
   55.1480   27.4600   45.4230 H   0  0  0  0  0  0  0  0  0  0  0  0
   57.0810   28.2610   45.8920 C   0  0  0  0  0  0  0  0  0  0  0  0
   56.8250   29.4900   45.3960 N   0  0  0  0  0  0  0  0  0  0  0  0
   57.4270   30.6380   45.6650 N   0  0  0  0  0  0  0  0  0  0  0  0
   58.5380   30.9100   46.3870 C   0  0  0  0  0  0  0  0  0  0  0  0
   58.6550   32.1630   46.7420 N   0  0  0  0  0  0  0  0  0  0  0  0
   58.9130   32.7220   48.0350 C   0  0  0  0  0  0  0  0  0  0  0  0
   59.6910   33.8820   48.1580 C   0  0  0  0  0  0  0  0  0  0  0  0
   60.0474   34.4017   47.2564 H   0  0  0  0  0  0  0  0  0  0  0  0
   60.0150   34.3800   49.4240 C   0  0  0  0  0  0  0  0  0  0  0  0
   60.6113   35.2997   49.5170 H   0  0  0  0  0  0  0  0  0  0  0  0
   59.5810   33.7090   50.5720 C   0  0  0  0  0  0  0  0  0  0  0  0
   59.8840   34.2000   51.8000 F   0  0  0  0  0  0  0  0  0  0  0  0
   58.8430   32.5270   50.4530 C   0  0  0  0  0  0  0  0  0  0  0  0
   58.5101   31.9935   51.3555 H   0  0  0  0  0  0  0  0  0  0  0  0
   58.5280   32.0230   49.1870 C   0  0  0  0  0  0  0  0  0  0  0  0
   57.9767   31.0756   49.0953 H   0  0  0  0  0  0  0  0  0  0  0  0
   59.5690   30.0010   46.5540 N   0  0  0  0  0  0  0  0  0  0  0  0
   60.9680   30.4790   46.3660 C   0  0  0  0  0  0  0  0  0  0  0  0
   61.5760   29.6275   46.0265 H   0  0  0  0  0  0  0  0  0  0  0  0
   60.9150   31.2995   45.6353 H   0  0  0  0  0  0  0  0  0  0  0  0
   61.6250   31.0610   47.6080 C   0  0  0  0  0  0  0  0  0  0  0  0
   62.4880   32.1580   47.4430 C   0  0  0  0  0  0  0  0  0  0  0  0
   62.6586   32.5688   46.4370 H   0  0  0  0  0  0  0  0  0  0  0  0
   63.1320   32.7330   48.5420 C   0  0  0  0  0  0  0  0  0  0  0  0
   63.7973   33.5971   48.3985 H   0  0  0  0  0  0  0  0  0  0  0  0
   62.9320   32.2120   49.8220 C   0  0  0  0  0  0  0  0  0  0  0  0
   63.7300   32.9430   51.2020 Cl  0  0  0  0  0  0  0  0  0  0  0  0
   62.0920   31.1100   50.0010 C   0  0  0  0  0  0  0  0  0  0  0  0
   61.9400   30.6943   51.0080 H   0  0  0  0  0  0  0  0  0  0  0  0
   61.4440   30.5340   48.9040 C   0  0  0  0  0  0  0  0  0  0  0  0
   60.7882   29.6635   49.0526 H   0  0  0  0  0  0  0  0  0  0  0  0
   59.4170   28.6400   46.6990 C   0  0  0  0  0  0  0  0  0  0  0  0
   60.4350   27.9380   46.9670 O   0  0  0  0  0  0  0  0  0  0  0  0
   58.2260   27.9280   46.6000 C   0  0  0  0  0  0  0  0  0  0  0  0
   58.1875   26.9788   47.1546 H   0  0  0  0  0  0  0  0  0  0  0  0
   56.2020   25.0450   46.7670 C   0  0  0  0  0  0  0  0  0  0  0  0
   55.7499   25.5257   47.6471 H   0  0  0  0  0  0  0  0  0  0  0  0
   56.4930   23.6770   46.7940 C   0  0  0  0  0  0  0  0  0  0  0  0
   56.2806   23.0883   47.6986 H   0  0  0  0  0  0  0  0  0  0  0  0
  1  2  1  0
  2  3  2  0
  3  4  1  0
  3  5  1  0
  5  6  1  0
  5  7  2  0
  7  8  1  0
  8  9  1  0
  8 10  1  0
 10 11  1  0
 11 12  2  0
 12 13  1  0
 13 14  2  0
 14 15  1  0
 15 16  2  0
 16 17  1  0
 16 18  1  0
 18 19  1  0
 18 20  2  0
 20 21  1  0
 20 22  1  0
 22 23  1  0
 22 24  2  0
 24 25  1  0
 13 26  1  0
 26 27  1  0
 27 28  1  0
 27 29  1  0
 27 30  1  0
 30 31  2  0
 31 32  1  0
 31 33  1  0
 33 34  1  0
 33 35  2  0
 35 36  1  0
 35 37  1  0
 37 38  1  0
 37 39  2  0
 39 40  1  0
 26 41  1  0
 41 42  2  0
 41 43  1  0
 43 44  1  0
  7 45  1  0
 45 46  1  0
 45 47  2  0
 47 48  1  0
 47  2  1  0
 43 10  2  0
 24 15  1  0
 39 30  1  0
M  END
>  <UniqueID>  (61) 
55

>  <SMILES>  (61) 
O=c1cc(Nc2ccccc2)nn/c(=N/c2ccc(F)cc2)n1Cc1ccc(Cl)cc1

>  <Energy>  (61) 
115.6519426771356

>  <Genealogy>  (61) 
O=c1cc(Nc2ccccc2)nn/c(=N/c2ccc(F)cc2)n1Cc1ccc(Cl)cc1 (cis-trans isomerization)
O=c1cc(Nc2ccccc2)nn/c(=N/c2ccc(F)cc2)n1Cc1ccc(Cl)cc1 (3D coordinates assigned)
O=c1cc(Nc2ccccc2)nn/c(=N/c2ccc(F)cc2)n1Cc1ccc(Cl)cc1 (optimized conformer: 115.6519426771356 kcal/mol)

>  <smiles>  (61) 
O=c1cc(Nc2ccccc2)nnc(=Nc2ccc(F)cc2)n1Cc1ccc(Cl)cc1

>  <score_type>  (61) 
oracle

>  <origin>  (61) 
adg

>  <m_score__min__energy>  (61) 
-8.4100000000000001

>  <m_primary>  (61) 
energy

$$$$
61:0
     RDKit          3D

 29 31  0  0  0  0  0  0  0  0999 V2000
   60.6055   26.8633   45.8515 H   0  0  0  0  0  0  0  0  0  0  0  0
   59.6210   27.1180   45.4320 C   0  0  0  0  0  0  0  0  0  0  0  0
   59.5750   28.1040   44.5210 C   0  0  0  0  0  0  0  0  0  0  0  0
   60.1678   27.9726   43.6038 H   0  0  0  0  0  0  0  0  0  0  0  0
   58.7920   29.3520   44.6510 C   0  0  0  0  0  0  0  0  0  0  0  0
   57.6110   29.5070   43.8840 C   0  0  0  0  0  0  0  0  0  0  0  0
   57.3031   28.7098   43.1914 H   0  0  0  0  0  0  0  0  0  0  0  0
   56.8280   30.6700   43.9990 C   0  0  0  0  0  0  0  0  0  0  0  0
   55.9176   30.8039   43.3963 H   0  0  0  0  0  0  0  0  0  0  0  0
   57.2430   31.6450   44.9000 C   0  0  0  0  0  0  0  0  0  0  0  0
   58.3580   31.4960   45.6570 C   0  0  0  0  0  0  0  0  0  0  0  0
   59.1600   30.3610   45.5760 C   0  0  0  0  0  0  0  0  0  0  0  0
   60.0519   30.2506   46.2103 H   0  0  0  0  0  0  0  0  0  0  0  0
   58.5200   32.6060   46.4640 O   0  0  0  0  0  0  0  0  0  0  0  0
   57.4400   33.5110   46.1930 C   0  0  0  0  0  0  0  0  0  0  0  0
   56.8452   33.6856   47.1017 H   0  0  0  0  0  0  0  0  0  0  0  0
   57.8007   34.4946   45.8577 H   0  0  0  0  0  0  0  0  0  0  0  0
   56.6480   32.8580   45.1900 O   0  0  0  0  0  0  0  0  0  0  0  0
   58.4560   26.3470   45.9170 C   0  0  0  0  0  0  0  0  0  0  0  0
   57.1670   26.8750   45.7460 C   0  0  0  0  0  0  0  0  0  0  0  0
   57.0378   27.8591   45.2719 H   0  0  0  0  0  0  0  0  0  0  0  0
   56.0450   26.1570   46.1750 C   0  0  0  0  0  0  0  0  0  0  0  0
   54.7740   26.6950   46.0170 O   0  0  0  0  0  0  0  0  0  0  0  0
   56.2030   24.8970   46.7610 C   0  0  0  0  0  0  0  0  0  0  0  0
   55.3215   24.3370   47.1064 H   0  0  0  0  0  0  0  0  0  0  0  0
   57.4800   24.3490   46.9080 C   0  0  0  0  0  0  0  0  0  0  0  0
   57.6350   23.0900   47.4760 O   0  0  0  0  0  0  0  0  0  0  0  0
   58.6040   25.0640   46.4790 C   0  0  0  0  0  0  0  0  0  0  0  0
   59.6063   24.6225   46.5811 H   0  0  0  0  0  0  0  0  0  0  0  0
  1  2  1  0
  2  3  2  0
  3  4  1  0
  3  5  1  0
  5  6  2  0
  6  7  1  0
  6  8  1  0
  8  9  1  0
  8 10  2  0
 10 11  1  0
 11 12  2  0
 12 13  1  0
 11 14  1  0
 14 15  1  0
 15 16  1  0
 15 17  1  0
 15 18  1  0
  2 19  1  0
 19 20  2  0
 20 21  1  0
 20 22  1  0
 22 23  1  0
 22 24  2  0
 24 25  1  0
 24 26  1  0
 26 27  1  0
 26 28  2  0
 28 29  1  0
 12  5  1  0
 28 19  1  0
 18 10  1  0
M  CHG  2  23  -1  27  -1
M  END
>  <UniqueID>  (62) 
56

>  <SMILES>  (62) 
[O-]c1cc([O-])cc(/C=C\c2ccc3c(c2)OCO3)c1

>  <Energy>  (62) 
68.64510771433517

>  <Genealogy>  (62) 
[O-]c1cc([O-])cc(C=Cc2ccc3c(c2)OCO3)c1 (protonated)
[O-]c1cc([O-])cc(/C=C\c2ccc3c(c2)OCO3)c1 (cis-trans isomerization)
[O-]c1cc([O-])cc(/C=C\c2ccc3c(c2)OCO3)c1 (3D coordinates assigned)
[O-]c1cc([O-])cc(/C=C\c2ccc3c(c2)OCO3)c1 (nonaromatic ring conformer: 68.64510771433517 kcal/mol)

>  <smiles>  (62) 
Oc1cc(O)cc(C=Cc2ccc3c(c2)OCO3)c1

>  <score_type>  (62) 
oracle

>  <origin>  (62) 
adg

>  <m_score__min__energy>  (62) 
-12.050000000000001

>  <m_primary>  (62) 
energy

$$$$
62:0
     RDKit          3D

 32 34  0  0  0  0  0  0  0  0999 V2000
   54.9750   26.2610   46.0030 N   0  0  0  0  0  0  0  0  0  0  0  0
   56.7010   26.2460   45.9230 S   0  0  0  0  0  0  0  0  0  0  0  0
   57.2590   25.7410   47.2250 O   0  0  0  0  0  0  0  0  0  0  0  0
   57.1430   25.3240   44.8220 O   0  0  0  0  0  0  0  0  0  0  0  0
   57.2910   27.8750   45.6130 C   0  0  0  0  0  0  0  0  0  0  0  0
   56.5710   28.7400   44.7790 C   0  0  0  0  0  0  0  0  0  0  0  0
   57.0360   30.0380   44.5430 C   0  0  0  0  0  0  0  0  0  0  0  0
   58.2100   30.4930   45.1640 C   0  0  0  0  0  0  0  0  0  0  0  0
   58.7350   31.7990   44.8940 N   0  0  0  0  0  0  0  0  0  0  0  0
   58.8100   32.7850   45.7410 C   0  0  0  0  0  0  0  0  0  0  0  0
   57.7980   33.7810   46.1090 C   0  0  0  0  0  0  0  0  0  0  0  0
   56.6320   33.8590   45.6410 O   0  0  0  0  0  0  0  0  0  0  0  0
   58.2740   34.6310   47.1550 N   0  0  0  0  0  0  0  0  0  0  0  0
   59.5780   34.1180   47.4330 C   0  0  0  0  0  0  0  0  0  0  0  0
   60.4550   34.6010   48.3990 C   0  0  0  0  0  0  0  0  0  0  0  0
   61.7010   33.9700   48.5500 C   0  0  0  0  0  0  0  0  0  0  0  0
   62.0590   32.8620   47.7390 C   0  0  0  0  0  0  0  0  0  0  0  0
   63.3380   32.2250   47.9060 N   0  0  0  0  0  0  0  0  0  0  0  0
   63.7550   31.4020   47.0640 O   0  0  0  0  0  0  0  0  0  0  0  0
   64.1250   32.5120   48.9980 O   0  0  0  0  0  0  0  0  0  0  0  0
   61.1460   32.3930   46.7670 C   0  0  0  0  0  0  0  0  0  0  0  0
   59.9180   33.0410   46.6400 C   0  0  0  0  0  0  0  0  0  0  0  0
   58.9420   29.6170   45.9750 C   0  0  0  0  0  0  0  0  0  0  0  0
   58.4780   28.3200   46.2110 C   0  0  0  0  0  0  0  0  0  0  0  0
   54.7040   27.0910   46.5760 H   0  0  0  0  0  0  0  0  0  0  0  0
   55.6375   28.3977   44.3084 H   0  0  0  0  0  0  0  0  0  0  0  0
   56.4795   30.7049   43.8681 H   0  0  0  0  0  0  0  0  0  0  0  0
   60.1788   35.4582   49.0307 H   0  0  0  0  0  0  0  0  0  0  0  0
   62.4084   34.3397   49.3069 H   0  0  0  0  0  0  0  0  0  0  0  0
   61.3987   31.5361   46.1253 H   0  0  0  0  0  0  0  0  0  0  0  0
   59.8868   29.9513   46.4285 H   0  0  0  0  0  0  0  0  0  0  0  0
   59.0465   27.6459   46.8685 H   0  0  0  0  0  0  0  0  0  0  0  0
  1  2  1  0
  2  3  2  0
  2  4  2  0
  2  5  1  0
  5  6  2  0
  6  7  1  0
  7  8  2  0
  8  9  1  0
  9 10  2  3
 10 11  1  0
 11 12  2  0
 11 13  1  0
 13 14  1  0
 14 15  2  0
 15 16  1  0
 16 17  2  0
 17 18  1  0
 18 19  2  0
 18 20  1  0
 17 21  1  0
 21 22  2  0
  8 23  1  0
 23 24  2  0
 24  5  1  0
 22 10  1  0
 22 14  1  0
  1 25  1  0
  6 26  1  0
  7 27  1  0
 15 28  1  0
 16 29  1  0
 21 30  1  0
 23 31  1  0
 24 32  1  0
M  CHG  4   1  -1  13  -1  18   1  20  -1
M  END
>  <UniqueID>  (63) 
57

>  <SMILES>  (63) 
[NH-]S(=O)(=O)c1ccc(N=C2C(=O)[N-]c3ccc([N+](=O)[O-])cc32)cc1

>  <Energy>  (63) 
73.69508368496525

>  <Genealogy>  (63) 
[NH-]S(=O)(=O)c1ccc(N=C2C(=O)[N-]c3ccc([N+](=O)[O-])cc32)cc1 (protonated)
[NH-]S(=O)(=O)c1ccc(N=C2C(=O)[N-]c3ccc([N+](=O)[O-])cc32)cc1 (3D coordinates assigned)
[NH-]S(=O)(=O)c1ccc(N=C2C(=O)[N-]c3ccc([N+](=O)[O-])cc32)cc1 (nonaromatic ring conformer: 73.69508368496525 kcal/mol)

>  <smiles>  (63) 
NS(=O)(=O)c1ccc(N=C2C(=O)Nc3ccc([N+](=O)[O-])cc32)cc1

>  <score_type>  (63) 
oracle

>  <origin>  (63) 
adg

>  <m_score__min__energy>  (63) 
-11.67

>  <m_primary>  (63) 
energy

$$$$
63:0
     RDKit          3D

 49 52  0  0  0  0  0  0  0  0999 V2000
   53.9060   26.7080   46.3840 H   0  0  0  0  0  0  0  0  0  0  0  0
   54.7330   26.2100   45.9810 N   0  0  0  0  0  0  0  0  0  0  0  0
   55.9220   26.7130   46.0490 C   0  0  0  0  0  0  0  0  0  0  0  0
   56.1630   27.9470   45.5340 N   0  0  0  0  0  0  0  0  0  0  0  0
   57.3990   28.5170   45.5940 C   0  0  0  0  0  0  0  0  0  0  0  0
   57.6050   29.8720   45.0190 C   0  0  0  0  0  0  0  0  0  0  0  0
   57.2820   30.1170   43.6730 C   0  0  0  0  0  0  0  0  0  0  0  0
   56.8847   29.3016   43.0507 H   0  0  0  0  0  0  0  0  0  0  0  0
   57.4610   31.3860   43.1190 C   0  0  0  0  0  0  0  0  0  0  0  0
   57.2067   31.5647   42.0638 H   0  0  0  0  0  0  0  0  0  0  0  0
   57.9620   32.4290   43.9010 C   0  0  0  0  0  0  0  0  0  0  0  0
   58.1048   33.4263   43.4594 H   0  0  0  0  0  0  0  0  0  0  0  0
   58.2830   32.2080   45.2460 C   0  0  0  0  0  0  0  0  0  0  0  0
   58.8050   33.2840   46.0470 N   0  0  0  0  0  0  0  0  0  0  0  0
   60.0890   33.9030   45.6930 C   0  0  0  0  0  0  0  0  0  0  0  0
   60.2451   33.8236   44.6070 H   0  0  0  0  0  0  0  0  0  0  0  0
   60.0747   34.9620   45.9900 H   0  0  0  0  0  0  0  0  0  0  0  0
   61.2090   33.2030   46.4100 C   0  0  0  0  0  0  0  0  0  0  0  0
   62.3540   33.9170   46.8040 C   0  0  0  0  0  0  0  0  0  0  0  0
   62.4504   34.9830   46.5502 H   0  0  0  0  0  0  0  0  0  0  0  0
   63.3710   33.2750   47.5180 C   0  0  0  0  0  0  0  0  0  0  0  0
   64.2693   33.8345   47.8178 H   0  0  0  0  0  0  0  0  0  0  0  0
   63.2470   31.9230   47.8510 C   0  0  0  0  0  0  0  0  0  0  0  0
   64.0491   31.4188   48.4100 H   0  0  0  0  0  0  0  0  0  0  0  0
   62.1040   31.2110   47.4740 C   0  0  0  0  0  0  0  0  0  0  0  0
   62.0062   30.1478   47.7387 H   0  0  0  0  0  0  0  0  0  0  0  0
   61.0860   31.8500   46.7610 C   0  0  0  0  0  0  0  0  0  0  0  0
   60.1841   31.2897   46.4736 H   0  0  0  0  0  0  0  0  0  0  0  0
   58.1150   33.6710   47.2810 C   0  0  0  0  0  0  0  0  0  0  0  0
   57.9714   34.7615   47.2921 H   0  0  0  0  0  0  0  0  0  0  0  0
   57.1380   33.1673   47.3233 H   0  0  0  0  0  0  0  0  0  0  0  0
   58.9340   33.2640   48.4730 C   0  0  0  0  0  0  0  0  0  0  0  0
   59.7750   34.1980   49.1040 C   0  0  0  0  0  0  0  0  0  0  0  0
   59.8613   35.2180   48.7013 H   0  0  0  0  0  0  0  0  0  0  0  0
   60.5020   33.8340   50.2420 C   0  0  0  0  0  0  0  0  0  0  0  0
   61.1643   34.5656   50.7279 H   0  0  0  0  0  0  0  0  0  0  0  0
   60.3880   32.5410   50.7630 C   0  0  0  0  0  0  0  0  0  0  0  0
   61.0940   32.1900   51.8660 F   0  0  0  0  0  0  0  0  0  0  0  0
   59.5450   31.6120   50.1470 C   0  0  0  0  0  0  0  0  0  0  0  0
   59.4555   30.5954   50.5575 H   0  0  0  0  0  0  0  0  0  0  0  0
   58.8150   31.9720   49.0100 C   0  0  0  0  0  0  0  0  0  0  0  0
   58.1451   31.2405   48.5345 H   0  0  0  0  0  0  0  0  0  0  0  0
   58.0960   30.9340   45.8040 C   0  0  0  0  0  0  0  0  0  0  0  0
   58.3350   30.7629   46.8640 H   0  0  0  0  0  0  0  0  0  0  0  0
   58.4490   27.7990   46.1920 C   0  0  0  0  0  0  0  0  0  0  0  0
   59.4609   28.2268   46.2476 H   0  0  0  0  0  0  0  0  0  0  0  0
   58.1820   26.5320   46.7140 C   0  0  0  0  0  0  0  0  0  0  0  0
   59.1020   25.8660   47.2570 O   0  0  0  0  0  0  0  0  0  0  0  0
   56.9290   26.0150   46.6370 N   0  0  0  0  0  0  0  0  0  0  0  0
  1  2  1  0
  2  3  2  0
  3  4  1  0
  4  5  1  0
  5  6  1  0
  6  7  2  0
  7  8  1  0
  7  9  1  0
  9 10  1  0
  9 11  2  0
 11 12  1  0
 11 13  1  0
 13 14  1  0
 14 15  1  0
 15 16  1  0
 15 17  1  0
 15 18  1  0
 18 19  2  0
 19 20  1  0
 19 21  1  0
 21 22  1  0
 21 23  2  0
 23 24  1  0
 23 25  1  0
 25 26  1  0
 25 27  2  0
 27 28  1  0
 14 29  1  0
 29 30  1  0
 29 31  1  0
 29 32  1  0
 32 33  2  0
 33 34  1  0
 33 35  1  0
 35 36  1  0
 35 37  2  0
 37 38  1  0
 37 39  1  0
 39 40  1  0
 39 41  2  0
 41 42  1  0
 13 43  2  0
 43 44  1  0
  5 45  2  0
 45 46  1  0
 45 47  1  0
 47 48  2  0
 47 49  1  0
 49  3  1  0
 43  6  1  0
 27 18  1  0
 41 32  1  0
M  CHG  2   4  -1  49  -1
M  END
>  <UniqueID>  (64) 
58

>  <SMILES>  (64) 
[H]/N=c1/[n-]c(-c2cccc(N(Cc3ccccc3)Cc3ccc(F)cc3)c2)cc(=O)[n-]1

>  <Energy>  (64) 
58.66398866178574

>  <Genealogy>  (64) 
N=c1[n-]c(-c2cccc(N(Cc3ccccc3)Cc3ccc(F)cc3)c2)cc(=O)[n-]1 (protonated)
[H]/N=c1/[n-]c(-c2cccc(N(Cc3ccccc3)Cc3ccc(F)cc3)c2)cc(=O)[n-]1 (cis-trans isomerization)
[H]/N=c1/[n-]c(-c2cccc(N(Cc3ccccc3)Cc3ccc(F)cc3)c2)cc(=O)[n-]1 (3D coordinates assigned)
[H]/N=c1/[n-]c(-c2cccc(N(Cc3ccccc3)Cc3ccc(F)cc3)c2)cc(=O)[n-]1 (optimized conformer: 58.66398866178574 kcal/mol)

>  <smiles>  (64) 
N=c1[nH]c(-c2cccc(N(Cc3ccccc3)Cc3ccc(F)cc3)c2)cc(=O)[nH]1

>  <score_type>  (64) 
oracle

>  <origin>  (64) 
adg

>  <m_score__min__energy>  (64) 
-13.91

>  <m_primary>  (64) 
energy

$$$$
64:0
     RDKit          3D

 58 60  0  0  0  0  0  0  0  0999 V2000
   65.3670   32.9140   49.9260 C   0  0  0  0  0  0  0  0  0  0  0  0
   64.3060   32.4550   49.0090 N   0  0  0  0  0  0  0  0  0  0  0  0
   63.2830   31.6520   49.7350 C   0  0  0  0  0  0  0  0  0  0  0  0
   61.8330   31.9510   49.3100 C   0  0  0  0  0  0  0  0  0  0  0  0
   61.7600   32.1840   47.8640 N   0  0  0  0  0  0  0  0  0  0  0  0
   60.6990   31.5970   47.0830 C   0  0  0  0  0  0  0  0  0  0  0  0
   60.4940   30.2090   47.0960 C   0  0  0  0  0  0  0  0  0  0  0  0
   59.4350   29.6410   46.3870 C   0  0  0  0  0  0  0  0  0  0  0  0
   58.5580   30.4490   45.6440 C   0  0  0  0  0  0  0  0  0  0  0  0
   57.4290   29.8220   44.9220 C   0  0  0  0  0  0  0  0  0  0  0  0
   56.3250   30.4270   44.8580 O   0  0  0  0  0  0  0  0  0  0  0  0
   57.5670   28.5630   44.2410 N   0  0  0  0  0  0  0  0  0  0  0  0
   57.4440   27.2590   44.8290 C   0  0  0  0  0  0  0  0  0  0  0  0
   56.9790   27.0780   46.1420 C   0  0  0  0  0  0  0  0  0  0  0  0
   56.9000   25.7960   46.6930 C   0  0  0  0  0  0  0  0  0  0  0  0
   57.2580   24.6610   45.9390 C   0  0  0  0  0  0  0  0  0  0  0  0
   57.1930   23.3300   46.5150 N   0  0  0  0  0  0  0  0  0  0  0  0
   57.7340   22.1710   45.7890 C   0  0  0  0  0  0  0  0  0  0  0  0
   56.6120   23.1240   47.8490 C   0  0  0  0  0  0  0  0  0  0  0  0
   57.6770   24.8510   44.6040 C   0  0  0  0  0  0  0  0  0  0  0  0
   57.7560   26.1370   44.0570 C   0  0  0  0  0  0  0  0  0  0  0  0
   58.7730   31.8450   45.6010 C   0  0  0  0  0  0  0  0  0  0  0  0
   57.8720   32.7130   44.8940 N   0  0  0  0  0  0  0  0  0  0  0  0
   57.2460   33.8240   45.6130 C   0  0  0  0  0  0  0  0  0  0  0  0
   57.8560   32.6960   43.4320 C   0  0  0  0  0  0  0  0  0  0  0  0
   59.8390   32.4060   46.3200 C   0  0  0  0  0  0  0  0  0  0  0  0
   62.7180   33.1090   47.2410 C   0  0  0  0  0  0  0  0  0  0  0  0
   63.7450   33.6020   48.2660 C   0  0  0  0  0  0  0  0  0  0  0  0
   65.0391   32.7722   50.9664 H   0  0  0  0  0  0  0  0  0  0  0  0
   66.2830   32.3317   49.7476 H   0  0  0  0  0  0  0  0  0  0  0  0
   65.5698   33.9803   49.7476 H   0  0  0  0  0  0  0  0  0  0  0  0
   63.4847   30.5866   49.5501 H   0  0  0  0  0  0  0  0  0  0  0  0
   63.3642   31.9207   50.7986 H   0  0  0  0  0  0  0  0  0  0  0  0
   61.1950   31.0939   49.5713 H   0  0  0  0  0  0  0  0  0  0  0  0
   61.4874   32.8543   49.8341 H   0  0  0  0  0  0  0  0  0  0  0  0
   61.1742   29.5629   47.6703 H   0  0  0  0  0  0  0  0  0  0  0  0
   59.2855   28.5515   46.4099 H   0  0  0  0  0  0  0  0  0  0  0  0
   56.6754   27.9500   46.7398 H   0  0  0  0  0  0  0  0  0  0  0  0
   56.5536   25.6715   47.7296 H   0  0  0  0  0  0  0  0  0  0  0  0
   58.0854   21.4182   46.5099 H   0  0  0  0  0  0  0  0  0  0  0  0
   56.9468   21.7341   45.1570 H   0  0  0  0  0  0  0  0  0  0  0  0
   58.5745   22.4939   45.1570 H   0  0  0  0  0  0  0  0  0  0  0  0
   57.3543   23.3872   48.6169 H   0  0  0  0  0  0  0  0  0  0  0  0
   55.7232   23.7618   47.9643 H   0  0  0  0  0  0  0  0  0  0  0  0
   56.3235   22.0688   47.9643 H   0  0  0  0  0  0  0  0  0  0  0  0
   57.9440   23.9798   43.9878 H   0  0  0  0  0  0  0  0  0  0  0  0
   58.0666   26.2655   43.0096 H   0  0  0  0  0  0  0  0  0  0  0  0
   57.3392   33.6585   46.6965 H   0  0  0  0  0  0  0  0  0  0  0  0
   57.7467   34.7650   45.3414 H   0  0  0  0  0  0  0  0  0  0  0  0
   56.1817   33.8832   45.3414 H   0  0  0  0  0  0  0  0  0  0  0  0
   57.1413   31.9366   43.0819 H   0  0  0  0  0  0  0  0  0  0  0  0
   57.5533   33.6849   43.0571 H   0  0  0  0  0  0  0  0  0  0  0  0
   58.8614   32.4537   43.0571 H   0  0  0  0  0  0  0  0  0  0  0  0
   60.0041   33.4930   46.2863 H   0  0  0  0  0  0  0  0  0  0  0  0
   63.2430   32.5893   46.4260 H   0  0  0  0  0  0  0  0  0  0  0  0
   62.1664   33.9766   46.8498 H   0  0  0  0  0  0  0  0  0  0  0  0
   64.5565   34.1302   47.7439 H   0  0  0  0  0  0  0  0  0  0  0  0
   63.2511   34.2844   48.9733 H   0  0  0  0  0  0  0  0  0  0  0  0
  1  2  1  0
  2  3  1  0
  3  4  1  0
  4  5  1  0
  5  6  1  0
  6  7  2  0
  7  8  1  0
  8  9  2  0
  9 10  1  0
 10 11  2  0
 10 12  1  0
 12 13  1  0
 13 14  2  0
 14 15  1  0
 15 16  2  0
 16 17  1  0
 17 18  1  0
 17 19  1  0
 16 20  1  0
 20 21  2  0
  9 22  1  0
 22 23  1  0
 23 24  1  0
 23 25  1  0
 22 26  2  0
  5 27  1  0
 27 28  1  0
 28  2  1  0
 26  6  1  0
 21 13  1  0
  1 29  1  0
  1 30  1  0
  1 31  1  0
  3 32  1  0
  3 33  1  0
  4 34  1  0
  4 35  1  0
  7 36  1  0
  8 37  1  0
 14 38  1  0
 15 39  1  0
 18 40  1  0
 18 41  1  0
 18 42  1  0
 19 43  1  0
 19 44  1  0
 19 45  1  0
 20 46  1  0
 21 47  1  0
 24 48  1  0
 24 49  1  0
 24 50  1  0
 25 51  1  0
 25 52  1  0
 25 53  1  0
 26 54  1  0
 27 55  1  0
 27 56  1  0
 28 57  1  0
 28 58  1  0
M  CHG  1  12  -1
M  END
>  <UniqueID>  (65) 
59

>  <SMILES>  (65) 
CN1CCN(c2ccc(C(=O)[N-]c3ccc(N(C)C)cc3)c(N(C)C)c2)CC1

>  <Energy>  (65) 
81.13358476893174

>  <Genealogy>  (65) 
CN1CCN(c2ccc(C(=O)[N-]c3ccc(N(C)C)cc3)c(N(C)C)c2)CC1 (protonated)
CN1CCN(c2ccc(C(=O)[N-]c3ccc(N(C)C)cc3)c(N(C)C)c2)CC1 (3D coordinates assigned)
CN1CCN(c2ccc(C(=O)[N-]c3ccc(N(C)C)cc3)c(N(C)C)c2)CC1 (nonaromatic ring conformer: 81.13358476893174 kcal/mol)

>  <smiles>  (65) 
CN1CCN(c2ccc(C(=O)Nc3ccc(N(C)C)cc3)c(N(C)C)c2)CC1

>  <score_type>  (65) 
oracle

>  <origin>  (65) 
adg

>  <m_score__min__energy>  (65) 
-8.6600000000000001

>  <m_primary>  (65) 
energy

$$$$
65:0
     RDKit          3D

 42 44  0  0  0  0  0  0  0  0999 V2000
   54.8940   26.3220   46.0020 N   0  0  0  0  0  0  0  0  0  0  0  0
   56.3700   25.4300   46.1270 S   0  0  0  0  0  0  0  0  0  0  0  0
   56.3870   24.3750   45.0560 O   0  0  0  0  0  0  0  0  0  0  0  0
   56.4430   24.7760   47.4770 O   0  0  0  0  0  0  0  0  0  0  0  0
   57.7460   26.5090   45.9230 C   0  0  0  0  0  0  0  0  0  0  0  0
   58.9630   26.2220   46.5550 C   0  0  0  0  0  0  0  0  0  0  0  0
   60.0610   27.0670   46.3770 C   0  0  0  0  0  0  0  0  0  0  0  0
   59.9460   28.2080   45.5790 C   0  0  0  0  0  0  0  0  0  0  0  0
   58.7250   28.5250   44.9620 C   0  0  0  0  0  0  0  0  0  0  0  0
   58.6440   29.6880   44.1220 N   0  0  0  0  0  0  0  0  0  0  0  0
   57.6930   30.7500   44.3020 C   0  0  0  0  0  0  0  0  0  0  0  0
   57.0300   30.8430   45.3710 O   0  0  0  0  0  0  0  0  0  0  0  0
   57.5270   31.7990   43.2460 C   0  0  0  0  0  0  0  0  0  0  0  0
   58.2260   33.0200   43.6280 N   0  0  0  0  0  0  0  0  0  0  0  0
   57.9360   33.7690   44.8150 C   0  0  0  0  0  0  0  0  0  0  0  0
   56.8520   34.4090   44.9030 O   0  0  0  0  0  0  0  0  0  0  0  0
   58.9040   33.7920   45.9370 C   0  0  0  0  0  0  0  0  0  0  0  0
   58.4510   33.8630   47.2680 C   0  0  0  0  0  0  0  0  0  0  0  0
   59.3590   33.8890   48.3300 C   0  0  0  0  0  0  0  0  0  0  0  0
   60.7380   33.8470   48.0810 C   0  0  0  0  0  0  0  0  0  0  0  0
   61.6570   33.8730   49.1410 C   0  0  0  0  0  0  0  0  0  0  0  0
   63.0300   33.8300   48.8810 C   0  0  0  0  0  0  0  0  0  0  0  0
   63.4940   33.7640   47.5640 C   0  0  0  0  0  0  0  0  0  0  0  0
   62.5880   33.7360   46.5000 C   0  0  0  0  0  0  0  0  0  0  0  0
   61.2070   33.7790   46.7480 C   0  0  0  0  0  0  0  0  0  0  0  0
   60.2890   33.7500   45.6870 C   0  0  0  0  0  0  0  0  0  0  0  0
   57.6290   27.6580   45.1270 C   0  0  0  0  0  0  0  0  0  0  0  0
   55.1440   27.3350   46.0550 H   0  0  0  0  0  0  0  0  0  0  0  0
   59.0540   25.3300   47.1923 H   0  0  0  0  0  0  0  0  0  0  0  0
   61.0182   26.8336   46.8662 H   0  0  0  0  0  0  0  0  0  0  0  0
   60.8179   28.8626   45.4330 H   0  0  0  0  0  0  0  0  0  0  0  0
   59.3670   29.8020   43.3750 H   0  0  0  0  0  0  0  0  0  0  0  0
   57.9403   31.4266   42.2971 H   0  0  0  0  0  0  0  0  0  0  0  0
   56.4561   32.0223   43.1302 H   0  0  0  0  0  0  0  0  0  0  0  0
   57.3711   33.8984   47.4742 H   0  0  0  0  0  0  0  0  0  0  0  0
   58.9904   33.9426   49.3650 H   0  0  0  0  0  0  0  0  0  0  0  0
   61.2964   33.9273   50.1788 H   0  0  0  0  0  0  0  0  0  0  0  0
   63.7471   33.8482   49.7150 H   0  0  0  0  0  0  0  0  0  0  0  0
   64.5753   33.7340   47.3644 H   0  0  0  0  0  0  0  0  0  0  0  0
   62.9581   33.6801   45.4656 H   0  0  0  0  0  0  0  0  0  0  0  0
   60.6546   33.6940   44.6510 H   0  0  0  0  0  0  0  0  0  0  0  0
   56.6745   27.8827   44.6286 H   0  0  0  0  0  0  0  0  0  0  0  0
  1  2  1  0
  2  3  2  0
  2  4  2  0
  2  5  1  0
  5  6  2  0
  6  7  1  0
  7  8  2  0
  8  9  1  0
  9 10  1  0
 10 11  1  0
 11 12  2  0
 11 13  1  0
 13 14  1  0
 14 15  1  0
 15 16  2  0
 15 17  1  0
 17 18  2  0
 18 19  1  0
 19 20  2  0
 20 21  1  0
 21 22  2  0
 22 23  1  0
 23 24  2  0
 24 25  1  0
 25 26  2  0
  9 27  2  0
 27  5  1  0
 26 17  1  0
 25 20  1  0
  1 28  1  0
  6 29  1  0
  7 30  1  0
  8 31  1  0
 10 32  1  0
 13 33  1  0
 13 34  1  0
 18 35  1  0
 19 36  1  0
 21 37  1  0
 22 38  1  0
 23 39  1  0
 24 40  1  0
 26 41  1  0
 27 42  1  0
M  CHG  2   1  -1  14  -1
M  END
>  <UniqueID>  (66) 
60

>  <SMILES>  (66) 
[NH-]S(=O)(=O)c1cccc(NC(=O)C[N-]C(=O)c2ccc3ccccc3c2)c1

>  <Energy>  (66) 
48.50812382693167

>  <Genealogy>  (66) 
[NH-]S(=O)(=O)c1cccc(NC(=O)C[N-]C(=O)c2ccc3ccccc3c2)c1 (protonated)
[NH-]S(=O)(=O)c1cccc(NC(=O)C[N-]C(=O)c2ccc3ccccc3c2)c1 (3D coordinates assigned)
[NH-]S(=O)(=O)c1cccc(NC(=O)C[N-]C(=O)c2ccc3ccccc3c2)c1 (optimized conformer: 48.50812382693167 kcal/mol)

>  <smiles>  (66) 
NS(=O)(=O)c1cccc(NC(=O)CNC(=O)c2ccc3ccccc3c2)c1

>  <score_type>  (66) 
oracle

>  <origin>  (66) 
adg

>  <m_score__min__energy>  (66) 
-14.359999999999999

>  <m_primary>  (66) 
energy

$$$$
66:0
     RDKit          3D

 43 45  0  0  0  0  0  0  0  0999 V2000
   59.6480   35.5030   45.8100 C   0  0  0  0  0  0  0  0  0  0  0  0
   59.1180   34.9350   44.6160 O   0  0  0  0  0  0  0  0  0  0  0  0
   58.5190   33.6680   44.5420 C   0  0  0  0  0  0  0  0  0  0  0  0
   58.0130   33.0050   45.6740 C   0  0  0  0  0  0  0  0  0  0  0  0
   57.4160   31.7470   45.5460 C   0  0  0  0  0  0  0  0  0  0  0  0
   57.3120   31.1290   44.2870 C   0  0  0  0  0  0  0  0  0  0  0  0
   56.6420   29.8160   44.1490 C   0  0  0  0  0  0  0  0  0  0  0  0
   56.3790   29.3590   43.0030 O   0  0  0  0  0  0  0  0  0  0  0  0
   56.2810   29.0600   45.3120 N   0  0  0  0  0  0  0  0  0  0  0  0
   57.0380   27.9510   45.8160 C   0  0  0  0  0  0  0  0  0  0  0  0
   56.6270   26.6520   45.4880 C   0  0  0  0  0  0  0  0  0  0  0  0
   57.3510   25.5470   45.9400 C   0  0  0  0  0  0  0  0  0  0  0  0
   58.4790   25.7290   46.7420 C   0  0  0  0  0  0  0  0  0  0  0  0
   58.8790   27.0180   47.1050 C   0  0  0  0  0  0  0  0  0  0  0  0
   58.1660   28.1390   46.6490 C   0  0  0  0  0  0  0  0  0  0  0  0
   58.5040   29.4530   47.1230 N   0  0  0  0  0  0  0  0  0  0  0  0
   59.8260   29.8180   47.5560 C   0  0  0  0  0  0  0  0  0  0  0  0
   60.7010   28.9250   47.7260 O   0  0  0  0  0  0  0  0  0  0  0  0
   60.1880   31.2370   47.7910 C   0  0  0  0  0  0  0  0  0  0  0  0
   59.3580   32.0520   48.5830 C   0  0  0  0  0  0  0  0  0  0  0  0
   59.6990   33.3860   48.8270 C   0  0  0  0  0  0  0  0  0  0  0  0
   60.8760   33.9190   48.2950 C   0  0  0  0  0  0  0  0  0  0  0  0
   61.7160   33.1180   47.5180 C   0  0  0  0  0  0  0  0  0  0  0  0
   63.3370   33.8390   46.8080 Br  0  0  0  0  0  0  0  0  0  0  0  0
   61.3770   31.7840   47.2680 C   0  0  0  0  0  0  0  0  0  0  0  0
   57.8240   31.7950   43.1590 C   0  0  0  0  0  0  0  0  0  0  0  0
   58.4220   33.0510   43.2900 C   0  0  0  0  0  0  0  0  0  0  0  0
   59.1914   35.0136   46.6829 H   0  0  0  0  0  0  0  0  0  0  0  0
   60.7376   35.3542   45.8345 H   0  0  0  0  0  0  0  0  0  0  0  0
   59.4243   36.5797   45.8345 H   0  0  0  0  0  0  0  0  0  0  0  0
   58.0871   33.4779   46.6644 H   0  0  0  0  0  0  0  0  0  0  0  0
   57.0242   31.2362   46.4380 H   0  0  0  0  0  0  0  0  0  0  0  0
   55.7288   26.5021   44.8709 H   0  0  0  0  0  0  0  0  0  0  0  0
   57.0320   24.5312   45.6636 H   0  0  0  0  0  0  0  0  0  0  0  0
   59.0534   24.8573   47.0885 H   0  0  0  0  0  0  0  0  0  0  0  0
   59.7579   27.1555   47.7520 H   0  0  0  0  0  0  0  0  0  0  0  0
   57.7620   30.1840   47.0650 H   0  0  0  0  0  0  0  0  0  0  0  0
   58.4346   31.6368   49.0131 H   0  0  0  0  0  0  0  0  0  0  0  0
   59.0388   34.0176   49.4395 H   0  0  0  0  0  0  0  0  0  0  0  0
   61.1409   34.9690   48.4880 H   0  0  0  0  0  0  0  0  0  0  0  0
   62.0439   31.1568   46.6582 H   0  0  0  0  0  0  0  0  0  0  0  0
   57.7532   31.3241   42.1674 H   0  0  0  0  0  0  0  0  0  0  0  0
   58.8205   33.5598   42.3999 H   0  0  0  0  0  0  0  0  0  0  0  0
  1  2  1  0
  2  3  1  0
  3  4  2  0
  4  5  1  0
  5  6  2  0
  6  7  1  0
  7  8  2  0
  7  9  1  0
  9 10  1  0
 10 11  2  0
 11 12  1  0
 12 13  2  0
 13 14  1  0
 14 15  2  0
 15 16  1  0
 16 17  1  0
 17 18  2  0
 17 19  1  0
 19 20  2  0
 20 21  1  0
 21 22  2  0
 22 23  1  0
 23 24  1  0
 23 25  2  0
  6 26  1  0
 26 27  2  0
 27  3  1  0
 15 10  1  0
 25 19  1  0
  1 28  1  0
  1 29  1  0
  1 30  1  0
  4 31  1  0
  5 32  1  0
 11 33  1  0
 12 34  1  0
 13 35  1  0
 14 36  1  0
 16 37  1  0
 20 38  1  0
 21 39  1  0
 22 40  1  0
 25 41  1  0
 26 42  1  0
 27 43  1  0
M  CHG  1   9  -1
M  END
>  <UniqueID>  (67) 
61

>  <SMILES>  (67) 
COc1ccc(C(=O)[N-]c2ccccc2NC(=O)c2cccc(Br)c2)cc1

>  <Energy>  (67) 
56.28505993244527

>  <Genealogy>  (67) 
COc1ccc(C(=O)[N-]c2ccccc2NC(=O)c2cccc(Br)c2)cc1 (protonated)
COc1ccc(C(=O)[N-]c2ccccc2NC(=O)c2cccc(Br)c2)cc1 (3D coordinates assigned)
COc1ccc(C(=O)[N-]c2ccccc2NC(=O)c2cccc(Br)c2)cc1 (optimized conformer: 56.28505993244527 kcal/mol)

>  <smiles>  (67) 
COc1ccc(C(=O)Nc2ccccc2NC(=O)c2cccc(Br)c2)cc1

>  <score_type>  (67) 
oracle

>  <origin>  (67) 
adg

>  <m_score__min__energy>  (67) 
-9.7300000000000004

>  <m_primary>  (67) 
energy

$$$$
67:0
     RDKit          3D

 48 51  0  0  1  0  0  0  0  0999 V2000
   55.2180   26.6360   45.9900 O   0  0  0  0  0  0  0  0  0  0  0  0
   56.4250   26.3170   46.1570 C   0  0  0  0  0  0  0  0  0  0  0  0
   57.2530   27.1670   46.8920 O   0  0  0  0  0  0  0  0  0  0  0  0
   58.3140   27.8460   46.2790 C   0  0  0  0  0  0  0  0  0  0  0  0
   58.7970   27.4830   45.0400 C   0  0  0  0  0  0  0  0  0  0  0  0
   59.8470   28.1880   44.4790 C   0  0  0  0  0  0  0  0  0  0  0  0
   60.4060   29.2520   45.1590 C   0  0  0  0  0  0  0  0  0  0  0  0
   59.8990   29.5990   46.4100 C   0  0  0  0  0  0  0  0  0  0  0  0
   57.8200   33.5080   44.7170 N   0  0  0  0  0  0  0  0  0  0  0  0
   58.7210   33.3510   45.6440 C   0  0  0  0  0  0  0  0  0  0  0  0
   60.6140   32.9690   47.5870 C   0  0  0  0  0  0  0  0  0  0  0  0
   60.1820   34.2250   47.2870 C   0  0  0  0  0  0  0  0  0  0  0  0
   59.2460   34.3890   46.3230 N   0  0  0  0  0  0  0  0  0  0  0  0
   60.0980   31.8970   46.9120 C   0  0  0  0  0  0  0  0  0  0  0  0
   60.4530   30.6880   47.1380 N   0  0  0  0  0  0  0  0  0  0  0  0
   57.3470   32.3210   44.0720 C   0  0  0  0  0  0  0  0  0  0  0  0
   57.5180   32.1280   42.7130 C   0  0  0  0  0  0  0  0  0  0  0  0
   57.0270   30.9450   42.1600 C   0  0  0  0  0  0  0  0  0  0  0  0
   56.3960   30.0100   42.9600 C   0  0  0  0  0  0  0  0  0  0  0  0
   56.2320   30.2160   44.3230 C   0  0  0  0  0  0  0  0  0  0  0  0
   55.5990   29.2830   45.1320 O   0  0  0  0  0  0  0  0  0  0  0  0
   56.7120   31.3790   44.8690 C   0  0  0  0  0  0  0  0  0  0  0  0
   59.1610   32.1180   45.9550 N   0  0  0  0  0  0  0  0  0  0  0  0
   58.8510   28.8970   46.9750 C   0  0  0  0  0  0  0  0  0  0  0  0
   56.9140   25.0690   45.5770 C   0  0  0  0  0  0  0  0  0  0  0  0
   58.0600   24.5350   46.1290 C   0  0  0  0  0  0  0  0  0  0  0  0
   58.5410   23.3400   45.5830 C   0  0  0  0  0  0  0  0  0  0  0  0
   57.8830   22.7330   44.5350 C   0  0  0  0  0  0  0  0  0  0  0  0
   56.7210   23.2890   43.9870 C   0  0  0  0  0  0  0  0  0  0  0  0
   56.2390   24.4820   44.5290 C   0  0  0  0  0  0  0  0  0  0  0  0
   58.3493   26.6360   44.4994 H   0  0  0  0  0  0  0  0  0  0  0  0
   60.2366   27.9009   43.4912 H   0  0  0  0  0  0  0  0  0  0  0  0
   61.2403   29.8181   44.7192 H   0  0  0  0  0  0  0  0  0  0  0  0
   61.3737   32.8173   48.3679 H   0  0  0  0  0  0  0  0  0  0  0  0
   60.5888   35.0960   47.8217 H   0  0  0  0  0  0  0  0  0  0  0  0
   58.9140   35.3410   46.0900 H   0  0  0  0  0  0  0  0  0  0  0  0
   58.0234   32.8808   42.0902 H   0  0  0  0  0  0  0  0  0  0  0  0
   57.1423   30.7551   41.0827 H   0  0  0  0  0  0  0  0  0  0  0  0
   56.0157   29.0828   42.5064 H   0  0  0  0  0  0  0  0  0  0  0  0
   56.1230   28.6340   45.6840 H   0  0  0  0  0  0  0  0  0  0  0  0
   56.5928   31.5664   45.9463 H   0  0  0  0  0  0  0  0  0  0  0  0
   58.7720   31.2930   45.4450 H   0  0  0  0  0  0  0  0  0  0  0  0
   58.4562   29.1763   47.9630 H   0  0  0  0  0  0  0  0  0  0  0  0
   58.5754   25.0294   46.9656 H   0  0  0  0  0  0  0  0  0  0  0  0
   59.4523   22.8809   45.9937 H   0  0  0  0  0  0  0  0  0  0  0  0
   58.2785   21.7936   44.1213 H   0  0  0  0  0  0  0  0  0  0  0  0
   56.2010   22.7986   43.1509 H   0  0  0  0  0  0  0  0  0  0  0  0
   55.3293   24.9487   44.1233 H   0  0  0  0  0  0  0  0  0  0  0  0
  1  2  2  0
  2  3  1  0
  3  4  1  0
  4  5  2  0
  5  6  1  0
  6  7  2  0
  7  8  1  0
  8  9  1  0
  9 10  2  0
 10 11  1  0
 11 12  2  0
 12 13  1  0
 13 14  1  0
 14 15  2  0
 15 16  1  0
 16 17  2  0
 17 18  1  0
 18 19  2  0
 19 20  1  0
 20 21  1  0
 20 22  2  0
 14 23  1  0
  8 24  2  0
  2 25  1  0
 25 26  2  0
 26 27  1  0
 27 28  2  0
 28 29  1  0
 29 30  2  0
 24  4  1  0
 30 25  1  0
 23 10  1  0
 22 16  1  0
  5 31  1  0
  6 32  1  0
  7 33  1  0
 11 34  1  0
 12 35  1  0
 13 36  1  0
 17 37  1  0
 18 38  1  0
 19 39  1  0
 21 40  1  0
 22 41  1  0
 23 42  1  0
 24 43  1  0
 26 44  1  0
 27 45  1  0
 28 46  1  0
 29 47  1  0
 30 48  1  0
M  END
>  <smiles>  (68) 
O=C(Oc1cccc(N=c2cc[nH]c(=Nc3cccc(O)c3)[nH]2)c1)c1ccccc1

>  <score_type>  (68) 
oracle

>  <origin>  (68) 
adg

>  <m_score__min__energy>  (68) 
-10.710000000000001

>  <m_primary>  (68) 
energy

$$$$
68:0
     RDKit          3D

 53 56  0  0  0  0  0  0  0  0999 V2000
   55.1470   27.4640   45.2500 H   0  0  0  0  0  0  0  0  0  0  0  0
   55.5530   27.0610   46.0870 O   0  0  0  0  0  0  0  0  0  0  0  0
   56.4620   26.0050   46.0230 C   0  0  0  0  0  0  0  0  0  0  0  0
   56.1240   24.7620   46.5770 C   0  0  0  0  0  0  0  0  0  0  0  0
   55.1439   24.6253   47.0573 H   0  0  0  0  0  0  0  0  0  0  0  0
   57.0260   23.6960   46.5220 C   0  0  0  0  0  0  0  0  0  0  0  0
   56.7552   22.7235   46.9589 H   0  0  0  0  0  0  0  0  0  0  0  0
   58.2700   23.8650   45.9130 C   0  0  0  0  0  0  0  0  0  0  0  0
   58.9782   23.0245   45.8688 H   0  0  0  0  0  0  0  0  0  0  0  0
   58.6180   25.1000   45.3590 C   0  0  0  0  0  0  0  0  0  0  0  0
   59.6018   25.2282   44.8840 H   0  0  0  0  0  0  0  0  0  0  0  0
   57.7190   26.1790   45.4050 C   0  0  0  0  0  0  0  0  0  0  0  0
   58.1340   27.5070   44.8200 C   0  0  0  0  0  0  0  0  0  0  0  0
   58.9773   27.3519   44.1310 H   0  0  0  0  0  0  0  0  0  0  0  0
   58.4328   28.1794   45.6376 H   0  0  0  0  0  0  0  0  0  0  0  0
   57.0200   28.1130   44.0900 N   0  0  0  0  0  0  0  0  0  0  0  0
   56.6930   27.6490   43.2140 H   0  0  0  0  0  0  0  0  0  0  0  0
   56.3580   29.3080   44.5290 C   0  0  0  0  0  0  0  0  0  0  0  0
   56.7120   29.8640   45.6540 N   0  0  0  0  0  0  0  0  0  0  0  0
   57.8580   30.6940   45.8890 C   0  0  0  0  0  0  0  0  0  0  0  0
   59.0900   30.1440   46.3320 C   0  0  0  0  0  0  0  0  0  0  0  0
   59.1873   29.0551   46.4541 H   0  0  0  0  0  0  0  0  0  0  0  0
   60.1860   30.9760   46.6160 C   0  0  0  0  0  0  0  0  0  0  0  0
   61.1489   30.5546   46.9402 H   0  0  0  0  0  0  0  0  0  0  0  0
   60.0150   32.3530   46.4740 C   0  0  0  0  0  0  0  0  0  0  0  0
   58.8180   32.8890   46.0790 C   0  0  0  0  0  0  0  0  0  0  0  0
   57.7130   32.0920   45.7890 C   0  0  0  0  0  0  0  0  0  0  0  0
   56.7544   32.5413   45.4904 H   0  0  0  0  0  0  0  0  0  0  0  0
   58.9650   34.2610   46.0430 C   0  0  0  0  0  0  0  0  0  0  0  0
   58.2038   35.0069   45.7704 H   0  0  0  0  0  0  0  0  0  0  0  0
   60.2810   34.4990   46.4250 C   0  0  0  0  0  0  0  0  0  0  0  0
   60.7424   35.4946   46.5023 H   0  0  0  0  0  0  0  0  0  0  0  0
   60.9130   33.3320   46.6880 N   0  0  0  0  0  0  0  0  0  0  0  0
   62.5690   33.1520   47.1700 S   0  0  0  0  0  0  0  0  0  0  0  0
   63.4000   34.1680   46.4360 O   0  0  0  0  0  0  0  0  0  0  0  0
   63.0560   31.7740   46.8220 O   0  0  0  0  0  0  0  0  0  0  0  0
   62.7050   33.3850   48.9090 C   0  0  0  0  0  0  0  0  0  0  0  0
   61.5580   33.5690   49.6930 C   0  0  0  0  0  0  0  0  0  0  0  0
   60.5654   33.5765   49.2189 H   0  0  0  0  0  0  0  0  0  0  0  0
   61.6710   33.7430   51.0750 C   0  0  0  0  0  0  0  0  0  0  0  0
   60.7660   33.8766   51.6859 H   0  0  0  0  0  0  0  0  0  0  0  0
   62.9340   33.7480   51.6870 C   0  0  0  0  0  0  0  0  0  0  0  0
   63.0540   33.8910   53.1750 C   0  0  0  0  0  0  0  0  0  0  0  0
   62.4219   33.1377   53.6679 H   0  0  0  0  0  0  0  0  0  0  0  0
   64.1021   33.7427   53.4743 H   0  0  0  0  0  0  0  0  0  0  0  0
   62.7261   34.8974   53.4743 H   0  0  0  0  0  0  0  0  0  0  0  0
   64.0810   33.5500   50.9010 C   0  0  0  0  0  0  0  0  0  0  0  0
   65.0736   33.5303   51.3746 H   0  0  0  0  0  0  0  0  0  0  0  0
   63.9650   33.3780   49.5190 C   0  0  0  0  0  0  0  0  0  0  0  0
   64.8683   33.2364   48.9074 H   0  0  0  0  0  0  0  0  0  0  0  0
   55.2750   29.8260   43.7460 N   0  0  0  0  0  0  0  0  0  0  0  0
   54.5990   30.5230   44.1280 H   0  0  0  0  0  0  0  0  0  0  0  0
   55.0670   29.4140   42.8100 H   0  0  0  0  0  0  0  0  0  0  0  0
  1  2  1  0
  2  3  1  0
  3  4  2  0
  4  5  1  0
  4  6  1  0
  6  7  1  0
  6  8  2  0
  8  9  1  0
  8 10  1  0
 10 11  1  0
 10 12  2  0
 12 13  1  0
 13 14  1  0
 13 15  1  0
 13 16  1  0
 16 17  1  0
 16 18  1  0
 18 19  2  0
 19 20  1  0
 20 21  2  0
 21 22  1  0
 21 23  1  0
 23 24  1  0
 23 25  2  0
 25 26  1  0
 26 27  2  0
 27 28  1  0
 26 29  1  0
 29 30  1  0
 29 31  2  0
 31 32  1  0
 31 33  1  0
 33 34  1  0
 34 35  2  0
 34 36  2  0
 34 37  1  0
 37 38  2  0
 38 39  1  0
 38 40  1  0
 40 41  1  0
 40 42  2  0
 42 43  1  0
 43 44  1  0
 43 45  1  0
 43 46  1  0
 42 47  1  0
 47 48  1  0
 47 49  2  0
 49 50  1  0
 18 51  1  0
 51 52  1  0
 51 53  1  0
 12  3  1  0
 27 20  1  0
 49 37  1  0
 33 25  1  0
M  END
>  <UniqueID>  (69) 
62

>  <SMILES>  (69) 
Cc1ccc(S(=O)(=O)n2ccc3cc(/N=C(\N)NCc4ccccc4O)ccc32)cc1

>  <Energy>  (69) 
94.71377031861

>  <Genealogy>  (69) 
Cc1ccc(S(=O)(=O)n2ccc3cc(/N=C(\N)NCc4ccccc4O)ccc32)cc1 (cis-trans isomerization)
Cc1ccc(S(=O)(=O)n2ccc3cc(/N=C(\N)NCc4ccccc4O)ccc32)cc1 (3D coordinates assigned)
Cc1ccc(S(=O)(=O)n2ccc3cc(/N=C(\N)NCc4ccccc4O)ccc32)cc1 (optimized conformer: 94.71377031861 kcal/mol)

>  <smiles>  (69) 
Cc1ccc(S(=O)(=O)n2ccc3cc(N=C(N)NCc4ccccc4O)ccc32)cc1

>  <score_type>  (69) 
oracle

>  <origin>  (69) 
adg

>  <m_score__min__energy>  (69) 
-11.199999999999999

>  <m_primary>  (69) 
energy

$$$$
69:0
     RDKit          3D

 51 53  0  0  0  0  0  0  0  0999 V2000
   66.9430   32.5500   50.6950 C   0  0  0  0  0  0  0  0  0  0  0  0
   65.5480   32.6570   51.3010 C   0  0  0  0  0  0  0  0  0  0  0  0
   64.5400   33.0310   50.2480 C   0  0  0  0  0  0  0  0  0  0  0  0
   63.5730   34.0100   50.5120 C   0  0  0  0  0  0  0  0  0  0  0  0
   62.6140   34.3340   49.5480 C   0  0  0  0  0  0  0  0  0  0  0  0
   62.5970   33.6810   48.3010 C   0  0  0  0  0  0  0  0  0  0  0  0
   61.5650   34.0390   47.2910 C   0  0  0  0  0  0  0  0  0  0  0  0
   61.7570   33.7470   46.0790 O   0  0  0  0  0  0  0  0  0  0  0  0
   60.2770   34.7250   47.6560 C   0  0  0  0  0  0  0  0  0  0  0  0
   59.3870   35.3080   46.1680 S   0  0  0  0  0  0  0  0  0  0  0  0
   58.7330   33.6960   45.7370 C   0  0  0  0  0  0  0  0  0  0  0  0
   58.6930   32.6760   46.6880 C   0  0  0  0  0  0  0  0  0  0  0  0
   58.1740   31.4300   46.3350 C   0  0  0  0  0  0  0  0  0  0  0  0
   57.6970   31.2020   45.0330 C   0  0  0  0  0  0  0  0  0  0  0  0
   57.1570   29.8710   44.6530 C   0  0  0  0  0  0  0  0  0  0  0  0
   55.9370   29.6170   44.8530 O   0  0  0  0  0  0  0  0  0  0  0  0
   57.9870   28.8870   44.0130 N   0  0  0  0  0  0  0  0  0  0  0  0
   57.7520   27.4700   44.0930 C   0  0  0  0  0  0  0  0  0  0  0  0
   57.8080   26.6930   42.9260 C   0  0  0  0  0  0  0  0  0  0  0  0
   57.5880   25.3130   42.9810 C   0  0  0  0  0  0  0  0  0  0  0  0
   57.3230   24.6900   44.2050 C   0  0  0  0  0  0  0  0  0  0  0  0
   56.9980   22.9600   44.2690 S   0  0  0  0  0  0  0  0  0  0  0  0
   55.9080   22.5330   42.9980 N   0  0  0  0  0  0  0  0  0  0  0  0
   56.3900   22.6030   45.5970 O   0  0  0  0  0  0  0  0  0  0  0  0
   58.2800   22.1940   44.1040 O   0  0  0  0  0  0  0  0  0  0  0  0
   57.2850   25.4550   45.3780 C   0  0  0  0  0  0  0  0  0  0  0  0
   57.5080   26.8340   45.3260 C   0  0  0  0  0  0  0  0  0  0  0  0
   57.7710   32.2590   44.1070 C   0  0  0  0  0  0  0  0  0  0  0  0
   58.2740   33.4660   44.4800 N   0  0  0  0  0  0  0  0  0  0  0  0
   63.5660   32.6900   48.0470 C   0  0  0  0  0  0  0  0  0  0  0  0
   64.5230   32.3650   49.0130 C   0  0  0  0  0  0  0  0  0  0  0  0
   67.6895   32.4927   51.5009 H   0  0  0  0  0  0  0  0  0  0  0  0
   67.0043   31.6445   50.0734 H   0  0  0  0  0  0  0  0  0  0  0  0
   67.1417   33.4355   50.0734 H   0  0  0  0  0  0  0  0  0  0  0  0
   65.2693   31.6877   51.7401 H   0  0  0  0  0  0  0  0  0  0  0  0
   65.5571   33.4375   52.0761 H   0  0  0  0  0  0  0  0  0  0  0  0
   63.5685   34.5265   51.4832 H   0  0  0  0  0  0  0  0  0  0  0  0
   61.8638   35.1083   49.7664 H   0  0  0  0  0  0  0  0  0  0  0  0
   59.6363   34.0167   48.2018 H   0  0  0  0  0  0  0  0  0  0  0  0
   60.5147   35.5979   48.2817 H   0  0  0  0  0  0  0  0  0  0  0  0
   59.0674   32.8526   47.7071 H   0  0  0  0  0  0  0  0  0  0  0  0
   58.1380   30.6215   47.0800 H   0  0  0  0  0  0  0  0  0  0  0  0
   58.7160   29.2230   43.3460 H   0  0  0  0  0  0  0  0  0  0  0  0
   58.0266   27.1729   41.9606 H   0  0  0  0  0  0  0  0  0  0  0  0
   57.6235   24.7153   42.0583 H   0  0  0  0  0  0  0  0  0  0  0  0
   56.2550   22.9980   42.1280 H   0  0  0  0  0  0  0  0  0  0  0  0
   57.0790   24.9690   46.3431 H   0  0  0  0  0  0  0  0  0  0  0  0
   57.4929   27.4258   46.2531 H   0  0  0  0  0  0  0  0  0  0  0  0
   57.4199   32.1080   43.0755 H   0  0  0  0  0  0  0  0  0  0  0  0
   63.5695   32.1670   47.0793 H   0  0  0  0  0  0  0  0  0  0  0  0
   65.2672   31.5825   48.8036 H   0  0  0  0  0  0  0  0  0  0  0  0
  1  2  1  0
  2  3  1  0
  3  4  2  0
  4  5  1  0
  5  6  2  0
  6  7  1  0
  7  8  2  0
  7  9  1  0
  9 10  1  0
 10 11  1  0
 11 12  2  0
 12 13  1  0
 13 14  2  0
 14 15  1  0
 15 16  2  0
 15 17  1  0
 17 18  1  0
 18 19  2  0
 19 20  1  0
 20 21  2  0
 21 22  1  0
 22 23  1  0
 22 24  2  0
 22 25  2  0
 21 26  1  0
 26 27  2  0
 14 28  1  0
 28 29  2  0
  6 30  1  0
 30 31  2  0
 31  3  1  0
 29 11  1  0
 27 18  1  0
  1 32  1  0
  1 33  1  0
  1 34  1  0
  2 35  1  0
  2 36  1  0
  4 37  1  0
  5 38  1  0
  9 39  1  0
  9 40  1  0
 12 41  1  0
 13 42  1  0
 17 43  1  0
 19 44  1  0
 20 45  1  0
 23 46  1  0
 26 47  1  0
 27 48  1  0
 28 49  1  0
 30 50  1  0
 31 51  1  0
M  CHG  1  23  -1
M  END
>  <UniqueID>  (70) 
63

>  <SMILES>  (70) 
CCc1ccc(C(=O)CSc2ccc(C(=O)Nc3ccc(S([NH-])(=O)=O)cc3)cn2)cc1

>  <Energy>  (70) 
53.4222191552462

>  <Genealogy>  (70) 
CCc1ccc(C(=O)CSc2ccc(C(=O)Nc3ccc(S([NH-])(=O)=O)cc3)cn2)cc1 (protonated)
CCc1ccc(C(=O)CSc2ccc(C(=O)Nc3ccc(S([NH-])(=O)=O)cc3)cn2)cc1 (3D coordinates assigned)
CCc1ccc(C(=O)CSc2ccc(C(=O)Nc3ccc(S([NH-])(=O)=O)cc3)cn2)cc1 (optimized conformer: 53.4222191552462 kcal/mol)

>  <smiles>  (70) 
CCc1ccc(C(=O)CSc2ccc(C(=O)Nc3ccc(S(N)(=O)=O)cc3)cn2)cc1

>  <score_type>  (70) 
oracle

>  <origin>  (70) 
adg

>  <m_score__min__energy>  (70) 
-11.050000000000001

>  <m_primary>  (70) 
energy

$$$$
70:0
     RDKit          3D

 44 47  0  0  0  0  0  0  0  0999 V2000
   65.1010   31.5545   49.7854 H   0  0  0  0  0  0  0  0  0  0  0  0
   64.2530   32.1740   49.4580 C   0  0  0  0  0  0  0  0  0  0  0  0
   64.1100   33.4750   49.9580 C   0  0  0  0  0  0  0  0  0  0  0  0
   65.0670   33.9430   50.8710 O   0  0  0  0  0  0  0  0  0  0  0  0
   64.7690   34.7550   52.0030 C   0  0  0  0  0  0  0  0  0  0  0  0
   64.9762   34.1904   52.9240 H   0  0  0  0  0  0  0  0  0  0  0  0
   65.3935   35.6602   51.9795 H   0  0  0  0  0  0  0  0  0  0  0  0
   63.7072   35.0414   51.9795 H   0  0  0  0  0  0  0  0  0  0  0  0
   63.0230   34.2620   49.5320 C   0  0  0  0  0  0  0  0  0  0  0  0
   62.9024   35.2851   49.9175 H   0  0  0  0  0  0  0  0  0  0  0  0
   62.0930   33.7450   48.6170 C   0  0  0  0  0  0  0  0  0  0  0  0
   61.0190   34.5120   48.1600 C   0  0  0  0  0  0  0  0  0  0  0  0
   60.8838   35.5362   48.5378 H   0  0  0  0  0  0  0  0  0  0  0  0
   60.1080   33.9920   47.2230 C   0  0  0  0  0  0  0  0  0  0  0  0
   59.0940   34.9510   46.6460 C   0  0  0  0  0  0  0  0  0  0  0  0
   58.5599   35.4561   47.4643 H   0  0  0  0  0  0  0  0  0  0  0  0
   59.6089   35.7002   46.0267 H   0  0  0  0  0  0  0  0  0  0  0  0
   58.3746   34.3952   46.0267 H   0  0  0  0  0  0  0  0  0  0  0  0
   60.2590   32.6290   46.8120 C   0  0  0  0  0  0  0  0  0  0  0  0
   59.4340   31.9940   46.0230 N   0  0  0  0  0  0  0  0  0  0  0  0
   58.8540   30.6960   46.1690 C   0  0  0  0  0  0  0  0  0  0  0  0
   57.6040   30.1130   45.1890 S   0  0  0  0  0  0  0  0  0  0  0  0
   57.7040   28.5760   45.8630 C   0  0  0  0  0  0  0  0  0  0  0  0
   56.9370   27.4500   45.5740 C   0  0  0  0  0  0  0  0  0  0  0  0
   56.1262   27.4955   44.8320 H   0  0  0  0  0  0  0  0  0  0  0  0
   57.2260   26.2490   46.2570 C   0  0  0  0  0  0  0  0  0  0  0  0
   56.4590   25.0580   46.0370 N   0  0  0  0  0  0  0  0  0  0  0  0
   55.0900   24.9860   45.6160 C   0  0  0  0  0  0  0  0  0  0  0  0
   54.3280   25.9590   45.8580 O   0  0  0  0  0  0  0  0  0  0  0  0
   54.5280   23.7750   44.9370 C   0  0  0  0  0  0  0  0  0  0  0  0
   54.1925   23.0521   45.6952 H   0  0  0  0  0  0  0  0  0  0  0  0
   53.6747   24.0699   44.3086 H   0  0  0  0  0  0  0  0  0  0  0  0
   55.3041   23.3137   44.3086 H   0  0  0  0  0  0  0  0  0  0  0  0
   58.2460   26.2290   47.2320 C   0  0  0  0  0  0  0  0  0  0  0  0
   58.4469   25.3015   47.7882 H   0  0  0  0  0  0  0  0  0  0  0  0
   59.0090   27.3790   47.5020 C   0  0  0  0  0  0  0  0  0  0  0  0
   59.8159   27.3543   48.2492 H   0  0  0  0  0  0  0  0  0  0  0  0
   58.7220   28.5520   46.8030 C   0  0  0  0  0  0  0  0  0  0  0  0
   59.3780   29.7290   46.9600 N   0  0  0  0  0  0  0  0  0  0  0  0
   60.2000   29.8680   47.5900 H   0  0  0  0  0  0  0  0  0  0  0  0
   61.3400   31.9310   47.2540 N   0  0  0  0  0  0  0  0  0  0  0  0
   62.2480   32.4380   48.1250 C   0  0  0  0  0  0  0  0  0  0  0  0
   63.3280   31.6560   48.5470 C   0  0  0  0  0  0  0  0  0  0  0  0
   63.4496   30.6328   48.1618 H   0  0  0  0  0  0  0  0  0  0  0  0
  1  2  1  0
  2  3  2  0
  3  4  1  0
  4  5  1  0
  5  6  1  0
  5  7  1  0
  5  8  1  0
  3  9  1  0
  9 10  1  0
  9 11  2  0
 11 12  1  0
 12 13  1  0
 12 14  2  0
 14 15  1  0
 15 16  1  0
 15 17  1  0
 15 18  1  0
 14 19  1  0
 19 20  2  0
 20 21  1  0
 21 22  1  0
 22 23  1  0
 23 24  2  0
 24 25  1  0
 24 26  1  0
 26 27  1  0
 27 28  1  0
 28 29  2  0
 28 30  1  0
 30 31  1  0
 30 32  1  0
 30 33  1  0
 26 34  2  0
 34 35  1  0
 34 36  1  0
 36 37  1  0
 36 38  2  0
 38 39  1  0
 39 40  1  0
 19 41  1  0
 41 42  1  0
 42 43  2  0
 43 44  1  0
 43  2  1  0
 42 11  1  0
 39 21  2  0
 38 23  1  0
M  CHG  3  27  -1  39   1  41  -1
M  END
>  <UniqueID>  (71) 
64

>  <SMILES>  (71) 
COc1ccc2[n-]/c(=N/c3[nH+]c4ccc([N-]C(C)=O)cc4s3)c(C)cc2c1

>  <Energy>  (71) 
104.83061104473789

>  <Genealogy>  (71) 
COc1ccc2[n-]c(=Nc3[nH+]c4ccc([N-]C(C)=O)cc4s3)c(C)cc2c1 (protonated)
COc1ccc2[n-]/c(=N/c3[nH+]c4ccc([N-]C(C)=O)cc4s3)c(C)cc2c1 (cis-trans isomerization)
COc1ccc2[n-]/c(=N/c3[nH+]c4ccc([N-]C(C)=O)cc4s3)c(C)cc2c1 (3D coordinates assigned)
COc1ccc2[n-]/c(=N/c3[nH+]c4ccc([N-]C(C)=O)cc4s3)c(C)cc2c1 (optimized conformer: 104.83061104473789 kcal/mol)

>  <smiles>  (71) 
COc1ccc2[nH]c(=Nc3nc4ccc(NC(C)=O)cc4s3)c(C)cc2c1

>  <score_type>  (71) 
oracle

>  <origin>  (71) 
adg

>  <m_score__min__energy>  (71) 
-9.6600000000000001

>  <m_primary>  (71) 
energy

$$$$
71:0
     RDKit          3D

 39 40  0  0  0  0  0  0  0  0999 V2000
   61.6950   33.0710   46.8910 C   0  0  0  0  0  0  0  0  0  0  0  0
   60.6140   32.1060   47.3670 C   0  0  0  0  0  0  0  0  0  0  0  0
   59.3870   32.2030   46.4940 C   0  0  0  0  0  0  0  0  0  0  0  0
   58.6190   33.3660   46.3730 C   0  0  0  0  0  0  0  0  0  0  0  0
   58.8270   34.6540   47.1050 C   0  0  0  0  0  0  0  0  0  0  0  0
   57.3960   33.1030   45.2490 S   0  0  0  0  0  0  0  0  0  0  0  0
   57.8260   31.5160   44.8860 C   0  0  0  0  0  0  0  0  0  0  0  0
   58.9280   31.1650   45.6500 C   0  0  0  0  0  0  0  0  0  0  0  0
   59.5600   29.8160   45.4890 C   0  0  0  0  0  0  0  0  0  0  0  0
   58.5140   28.7800   45.0070 C   0  0  0  0  0  0  0  0  0  0  0  0
   57.5070   28.4610   46.1370 C   0  0  0  0  0  0  0  0  0  0  0  0
   59.2470   27.4670   44.6570 C   0  0  0  0  0  0  0  0  0  0  0  0
   57.8090   29.2680   43.7900 N   0  0  0  0  0  0  0  0  0  0  0  0
   57.1740   30.6200   43.8520 C   0  0  0  0  0  0  0  0  0  0  0  0
   57.3010   31.3090   42.4730 C   0  0  0  0  0  0  0  0  0  0  0  0
   55.6730   30.4590   44.1600 C   0  0  0  0  0  0  0  0  0  0  0  0
   62.1963   33.5185   47.7619 H   0  0  0  0  0  0  0  0  0  0  0  0
   62.4323   32.5252   46.2839 H   0  0  0  0  0  0  0  0  0  0  0  0
   61.2360   33.8652   46.2839 H   0  0  0  0  0  0  0  0  0  0  0  0
   61.0048   31.0785   47.3270 H   0  0  0  0  0  0  0  0  0  0  0  0
   60.3350   32.3697   48.3979 H   0  0  0  0  0  0  0  0  0  0  0  0
   58.7971   34.4687   48.1889 H   0  0  0  0  0  0  0  0  0  0  0  0
   59.8051   35.0770   46.8322 H   0  0  0  0  0  0  0  0  0  0  0  0
   58.0318   35.3634   46.8322 H   0  0  0  0  0  0  0  0  0  0  0  0
   60.3711   29.8824   44.7490 H   0  0  0  0  0  0  0  0  0  0  0  0
   59.9591   29.4921   46.4615 H   0  0  0  0  0  0  0  0  0  0  0  0
   57.9905   28.6142   47.1131 H   0  0  0  0  0  0  0  0  0  0  0  0
   56.6359   29.1272   46.0508 H   0  0  0  0  0  0  0  0  0  0  0  0
   57.1784   27.4148   46.0508 H   0  0  0  0  0  0  0  0  0  0  0  0
   59.5357   26.9499   45.5840 H   0  0  0  0  0  0  0  0  0  0  0  0
   58.5796   26.8200   44.0688 H   0  0  0  0  0  0  0  0  0  0  0  0
   60.1480   27.6956   44.0688 H   0  0  0  0  0  0  0  0  0  0  0  0
   58.4910   29.2360   42.9950 H   0  0  0  0  0  0  0  0  0  0  0  0
   57.4987   32.3816   42.6159 H   0  0  0  0  0  0  0  0  0  0  0  0
   58.1306   30.8549   41.9112 H   0  0  0  0  0  0  0  0  0  0  0  0
   56.3640   31.1805   41.9112 H   0  0  0  0  0  0  0  0  0  0  0  0
   55.5219   30.4428   45.2495 H   0  0  0  0  0  0  0  0  0  0  0  0
   55.1169   31.3027   43.7252 H   0  0  0  0  0  0  0  0  0  0  0  0
   55.3085   29.5166   43.7252 H   0  0  0  0  0  0  0  0  0  0  0  0
  1  2  1  0
  2  3  1  0
  3  4  2  0
  4  5  1  0
  4  6  1  0
  6  7  1  0
  7  8  2  0
  8  9  1  0
  9 10  1  0
 10 11  1  0
 10 12  1  0
 10 13  1  0
 13 14  1  0
 14 15  1  0
 14 16  1  0
  8  3  1  0
 14  7  1  0
  1 17  1  0
  1 18  1  0
  1 19  1  0
  2 20  1  0
  2 21  1  0
  5 22  1  0
  5 23  1  0
  5 24  1  0
  9 25  1  0
  9 26  1  0
 11 27  1  0
 11 28  1  0
 11 29  1  0
 12 30  1  0
 12 31  1  0
 12 32  1  0
 13 33  1  0
 15 34  1  0
 15 35  1  0
 15 36  1  0
 16 37  1  0
 16 38  1  0
 16 39  1  0
M  END
>  <UniqueID>  (72) 
65

>  <SMILES>  (72) 
CCc1c(C)sc2c1CC(C)(C)NC2(C)C

>  <Energy>  (72) 
64.2103288422123

>  <Genealogy>  (72) 
CCc1c(C)sc2c1CC(C)(C)NC2(C)C (3D coordinates assigned)
CCc1c(C)sc2c1CC(C)(C)NC2(C)C (nonaromatic ring conformer: 64.2103288422123 kcal/mol)

>  <smiles>  (72) 
CCc1c(C)sc2c1CC(C)(C)NC2(C)C

>  <score_type>  (72) 
oracle

>  <origin>  (72) 
adg

>  <m_score__min__energy>  (72) 
-7.0300000000000002

>  <m_primary>  (72) 
energy

$$$$
72:0
     RDKit          3D

 24 25  0  0  0  0  0  0  0  0999 V2000
   54.9540   29.5990   43.5860 O   0  0  0  0  0  0  0  0  0  0  0  0
   55.9890   29.7120   44.2950 C   0  0  0  0  0  0  0  0  0  0  0  0
   56.5480   30.9330   44.4770 N   0  0  0  0  0  0  0  0  0  0  0  0
   57.6630   31.0890   45.2330 C   0  0  0  0  0  0  0  0  0  0  0  0
   58.2130   32.3650   45.3990 C   0  0  0  0  0  0  0  0  0  0  0  0
   59.3600   32.5380   46.1770 C   0  0  0  0  0  0  0  0  0  0  0  0
   59.9600   31.4380   46.7940 C   0  0  0  0  0  0  0  0  0  0  0  0
   59.4190   30.1590   46.6350 C   0  0  0  0  0  0  0  0  0  0  0  0
   58.2630   29.9680   45.8500 C   0  0  0  0  0  0  0  0  0  0  0  0
   57.6650   28.7020   45.6460 C   0  0  0  0  0  0  0  0  0  0  0  0
   58.2380   27.4380   46.2480 C   0  0  0  0  0  0  0  0  0  0  0  0
   57.2980   26.8130   47.0970 O   0  0  0  0  0  0  0  0  0  0  0  0
   56.2270   25.8700   46.1780 S   0  0  0  0  0  0  0  0  0  0  0  0
   56.8000   25.6080   44.8130 O   0  0  0  0  0  0  0  0  0  0  0  0
   55.9460   24.5650   46.8700 O   0  0  0  0  0  0  0  0  0  0  0  0
   54.7840   26.7110   46.0060 O   0  0  0  0  0  0  0  0  0  0  0  0
   56.5420   28.6120   44.8750 N   0  0  0  0  0  0  0  0  0  0  0  0
   57.7412   33.2333   44.9159 H   0  0  0  0  0  0  0  0  0  0  0  0
   59.7913   33.5419   46.3039 H   0  0  0  0  0  0  0  0  0  0  0  0
   60.8620   31.5788   47.4076 H   0  0  0  0  0  0  0  0  0  0  0  0
   59.8970   29.2976   47.1243 H   0  0  0  0  0  0  0  0  0  0  0  0
   58.5092   26.7444   45.4385 H   0  0  0  0  0  0  0  0  0  0  0  0
   59.1259   27.7024   46.8410 H   0  0  0  0  0  0  0  0  0  0  0  0
   56.0920   27.6810   44.7140 H   0  0  0  0  0  0  0  0  0  0  0  0
  1  2  2  0
  2  3  1  0
  3  4  2  0
  4  5  1  0
  5  6  2  0
  6  7  1  0
  7  8  2  0
  8  9  1  0
  9 10  2  0
 10 11  1  0
 11 12  1  0
 12 13  1  0
 13 14  2  0
 13 15  2  0
 13 16  1  0
 10 17  1  0
 17  2  1  0
  9  4  1  0
  5 18  1  0
  6 19  1  0
  7 20  1  0
  8 21  1  0
 11 22  1  0
 11 23  1  0
 17 24  1  0
M  CHG  1  16  -1
M  END
>  <UniqueID>  (73) 
66

>  <SMILES>  (73) 
O=c1nc2ccccc2c(COS(=O)(=O)[O-])[nH]1

>  <Energy>  (73) 
31.488342767292274

>  <Genealogy>  (73) 
O=c1nc2ccccc2c(COS(=O)(=O)[O-])[nH]1 (protonated)
O=c1nc2ccccc2c(COS(=O)(=O)[O-])[nH]1 (3D coordinates assigned)
O=c1nc2ccccc2c(COS(=O)(=O)[O-])[nH]1 (optimized conformer: 31.488342767292274 kcal/mol)

>  <smiles>  (73) 
O=c1nc2ccccc2c(COS(=O)(=O)O)[nH]1

>  <score_type>  (73) 
oracle

>  <origin>  (73) 
adg

>  <m_score__min__energy>  (73) 
-10.300000000000001

>  <m_primary>  (73) 
energy

$$$$
73:0
     RDKit          3D

 44 46  0  0  0  0  0  0  0  0999 V2000
   62.6770   33.4490   46.8460 O   0  0  0  0  0  0  0  0  0  0  0  0
   61.5120   33.3820   47.3260 C   0  0  0  0  0  0  0  0  0  0  0  0
   60.6530   34.5870   47.3100 C   0  0  0  0  0  0  0  0  0  0  0  0
   59.3650   34.6060   46.9340 C   0  0  0  0  0  0  0  0  0  0  0  0
   58.7320   33.6410   46.0090 C   0  0  0  0  0  0  0  0  0  0  0  0
   58.2660   32.3930   46.4580 C   0  0  0  0  0  0  0  0  0  0  0  0
   57.7090   31.4810   45.5580 C   0  0  0  0  0  0  0  0  0  0  0  0
   57.6090   31.8040   44.1950 C   0  0  0  0  0  0  0  0  0  0  0  0
   57.0660   30.8340   43.2250 C   0  0  0  0  0  0  0  0  0  0  0  0
   56.8310   29.5350   43.4710 C   0  0  0  0  0  0  0  0  0  0  0  0
   56.2870   28.9760   44.7340 C   0  0  0  0  0  0  0  0  0  0  0  0
   55.1920   29.3860   45.2020 O   0  0  0  0  0  0  0  0  0  0  0  0
   57.0150   27.9190   45.4650 C   0  0  0  0  0  0  0  0  0  0  0  0
   58.4100   28.0240   45.6100 C   0  0  0  0  0  0  0  0  0  0  0  0
   59.1280   27.0380   46.2920 C   0  0  0  0  0  0  0  0  0  0  0  0
   58.4610   25.9440   46.8460 C   0  0  0  0  0  0  0  0  0  0  0  0
   57.0730   25.8370   46.7280 C   0  0  0  0  0  0  0  0  0  0  0  0
   56.3450   26.8230   46.0500 C   0  0  0  0  0  0  0  0  0  0  0  0
   54.9600   26.7160   45.9900 O   0  0  0  0  0  0  0  0  0  0  0  0
   58.1300   33.0210   43.7360 C   0  0  0  0  0  0  0  0  0  0  0  0
   58.6880   33.9340   44.6380 C   0  0  0  0  0  0  0  0  0  0  0  0
   61.0090   32.0810   47.8380 C   0  0  0  0  0  0  0  0  0  0  0  0
   60.2870   32.0300   49.0470 C   0  0  0  0  0  0  0  0  0  0  0  0
   59.7990   30.8140   49.5330 C   0  0  0  0  0  0  0  0  0  0  0  0
   60.0200   29.6350   48.8190 C   0  0  0  0  0  0  0  0  0  0  0  0
   60.7250   29.6710   47.6150 C   0  0  0  0  0  0  0  0  0  0  0  0
   61.2150   30.8850   47.1230 C   0  0  0  0  0  0  0  0  0  0  0  0
   61.1039   35.5379   47.6302 H   0  0  0  0  0  0  0  0  0  0  0  0
   58.7291   35.4030   47.3467 H   0  0  0  0  0  0  0  0  0  0  0  0
   58.3403   32.1330   47.5242 H   0  0  0  0  0  0  0  0  0  0  0  0
   57.3475   30.5066   45.9183 H   0  0  0  0  0  0  0  0  0  0  0  0
   56.8343   31.2059   42.2160 H   0  0  0  0  0  0  0  0  0  0  0  0
   57.0620   28.8223   42.6656 H   0  0  0  0  0  0  0  0  0  0  0  0
   58.9397   28.8886   45.1835 H   0  0  0  0  0  0  0  0  0  0  0  0
   60.2200   27.1240   46.3924 H   0  0  0  0  0  0  0  0  0  0  0  0
   59.0289   25.1652   47.3761 H   0  0  0  0  0  0  0  0  0  0  0  0
   56.5502   24.9755   47.1690 H   0  0  0  0  0  0  0  0  0  0  0  0
   58.1003   33.2597   42.6626 H   0  0  0  0  0  0  0  0  0  0  0  0
   59.0946   34.8873   44.2695 H   0  0  0  0  0  0  0  0  0  0  0  0
   60.1059   32.9555   49.6133 H   0  0  0  0  0  0  0  0  0  0  0  0
   59.2398   30.7859   50.4798 H   0  0  0  0  0  0  0  0  0  0  0  0
   59.6387   28.6781   49.2051 H   0  0  0  0  0  0  0  0  0  0  0  0
   60.8957   28.7419   47.0514 H   0  0  0  0  0  0  0  0  0  0  0  0
   61.7653   30.9060   46.1708 H   0  0  0  0  0  0  0  0  0  0  0  0
  1  2  2  0
  2  3  1  0
  3  4  2  3
  4  5  1  0
  5  6  2  0
  6  7  1  0
  7  8  2  0
  8  9  1  0
  9 10  2  3
 10 11  1  0
 11 12  2  0
 11 13  1  0
 13 14  2  0
 14 15  1  0
 15 16  2  0
 16 17  1  0
 17 18  2  0
 18 19  1  0
  8 20  1  0
 20 21  2  0
  2 22  1  0
 22 23  2  0
 23 24  1  0
 24 25  2  0
 25 26  1  0
 26 27  2  0
 21  5  1  0
 27 22  1  0
 18 13  1  0
  3 28  1  0
  4 29  1  0
  6 30  1  0
  7 31  1  0
  9 32  1  0
 10 33  1  0
 14 34  1  0
 15 35  1  0
 16 36  1  0
 17 37  1  0
 20 38  1  0
 21 39  1  0
 23 40  1  0
 24 41  1  0
 25 42  1  0
 26 43  1  0
 27 44  1  0
M  CHG  1  19  -1
M  END
>  <UniqueID>  (74) 
67

>  <SMILES>  (74) 
O=C(C=Cc1ccc(C=CC(=O)c2ccccc2[O-])cc1)c1ccccc1

>  <Energy>  (74) 
70.84881971034413

>  <Genealogy>  (74) 
O=C(C=Cc1ccc(C=CC(=O)c2ccccc2[O-])cc1)c1ccccc1 (protonated)
O=C(C=Cc1ccc(C=CC(=O)c2ccccc2[O-])cc1)c1ccccc1 (3D coordinates assigned)
O=C(C=Cc1ccc(C=CC(=O)c2ccccc2[O-])cc1)c1ccccc1 (optimized conformer: 70.84881971034413 kcal/mol)

>  <smiles>  (74) 
O=C(C=Cc1ccc(C=CC(=O)c2ccccc2O)cc1)c1ccccc1

>  <score_type>  (74) 
oracle

>  <origin>  (74) 
adg

>  <m_score__min__energy>  (74) 
-13.68

>  <m_primary>  (74) 
energy

$$$$
74:0
     RDKit          3D

 50 52  0  0  0  0  0  0  0  0999 V2000
   60.3030   34.5720   48.1170 C   0  0  0  0  0  0  0  0  0  0  0  0
   60.1590   35.3150   46.4610 S   0  0  0  0  0  0  0  0  0  0  0  0
   58.9670   34.1030   45.8940 C   0  0  0  0  0  0  0  0  0  0  0  0
   58.7040   33.9610   44.5240 C   0  0  0  0  0  0  0  0  0  0  0  0
   57.7970   32.9920   44.0830 C   0  0  0  0  0  0  0  0  0  0  0  0
   57.1610   32.1490   45.0010 C   0  0  0  0  0  0  0  0  0  0  0  0
   56.2690   31.1340   44.5200 N   0  0  0  0  0  0  0  0  0  0  0  0
   56.3970   29.7320   44.7960 C   0  0  0  0  0  0  0  0  0  0  0  0
   55.3590   29.0270   44.8850 O   0  0  0  0  0  0  0  0  0  0  0  0
   57.6790   29.1160   44.9740 N   0  0  0  0  0  0  0  0  0  0  0  0
   57.8910   27.8190   45.5520 C   0  0  0  0  0  0  0  0  0  0  0  0
   57.7820   26.6530   44.7750 C   0  0  0  0  0  0  0  0  0  0  0  0
   58.0040   25.4000   45.3510 C   0  0  0  0  0  0  0  0  0  0  0  0
   58.3140   25.2980   46.7080 C   0  0  0  0  0  0  0  0  0  0  0  0
   58.4090   26.4500   47.4920 C   0  0  0  0  0  0  0  0  0  0  0  0
   58.2150   27.7200   46.9160 C   0  0  0  0  0  0  0  0  0  0  0  0
   58.3120   28.8950   47.6770 O   0  0  0  0  0  0  0  0  0  0  0  0
   59.4520   29.7070   47.7970 C   0  0  0  0  0  0  0  0  0  0  0  0
   60.0100   30.3680   46.6850 C   0  0  0  0  0  0  0  0  0  0  0  0
   61.1140   31.2100   46.8410 C   0  0  0  0  0  0  0  0  0  0  0  0
   61.6550   31.4270   48.1100 C   0  0  0  0  0  0  0  0  0  0  0  0
   61.0940   30.8000   49.2250 C   0  0  0  0  0  0  0  0  0  0  0  0
   60.0070   29.9260   49.0730 C   0  0  0  0  0  0  0  0  0  0  0  0
   59.4260   29.2880   50.2670 C   0  0  0  0  0  0  0  0  0  0  0  0
   60.0310   28.3170   50.7920 O   0  0  0  0  0  0  0  0  0  0  0  0
   58.1920   29.7300   50.8430 N   0  0  0  0  0  0  0  0  0  0  0  0
   57.7680   31.3840   51.1480 S   0  0  0  0  0  0  0  0  0  0  0  0
   58.8610   32.1080   52.3570 C   0  0  0  0  0  0  0  0  0  0  0  0
   56.3460   31.4760   51.6200 O   0  0  0  0  0  0  0  0  0  0  0  0
   57.9070   32.1550   49.8670 O   0  0  0  0  0  0  0  0  0  0  0  0
   57.3940   32.3250   46.3780 C   0  0  0  0  0  0  0  0  0  0  0  0
   58.2960   33.2970   46.8200 C   0  0  0  0  0  0  0  0  0  0  0  0
   60.1525   35.3484   48.8816 H   0  0  0  0  0  0  0  0  0  0  0  0
   59.5400   33.7885   48.2349 H   0  0  0  0  0  0  0  0  0  0  0  0
   61.3035   34.1303   48.2349 H   0  0  0  0  0  0  0  0  0  0  0  0
   59.2110   34.6116   43.7962 H   0  0  0  0  0  0  0  0  0  0  0  0
   57.5825   32.8921   43.0088 H   0  0  0  0  0  0  0  0  0  0  0  0
   57.5208   26.7274   43.7090 H   0  0  0  0  0  0  0  0  0  0  0  0
   57.9344   24.4920   44.7340 H   0  0  0  0  0  0  0  0  0  0  0  0
   58.4836   24.3097   47.1603 H   0  0  0  0  0  0  0  0  0  0  0  0
   58.6365   26.3646   48.5648 H   0  0  0  0  0  0  0  0  0  0  0  0
   59.5732   30.2201   45.6864 H   0  0  0  0  0  0  0  0  0  0  0  0
   61.5576   31.7026   45.9632 H   0  0  0  0  0  0  0  0  0  0  0  0
   62.5230   32.0917   48.2315 H   0  0  0  0  0  0  0  0  0  0  0  0
   61.5062   30.9923   50.2266 H   0  0  0  0  0  0  0  0  0  0  0  0
   58.4996   31.8686   53.3680 H   0  0  0  0  0  0  0  0  0  0  0  0
   59.8748   31.7022   52.2244 H   0  0  0  0  0  0  0  0  0  0  0  0
   58.8828   33.1998   52.2244 H   0  0  0  0  0  0  0  0  0  0  0  0
   56.8646   31.6956   47.1085 H   0  0  0  0  0  0  0  0  0  0  0  0
   58.4784   33.4283   47.8968 H   0  0  0  0  0  0  0  0  0  0  0  0
  1  2  1  0
  2  3  1  0
  3  4  2  0
  4  5  1  0
  5  6  2  0
  6  7  1  0
  7  8  1  0
  8  9  2  0
  8 10  1  0
 10 11  1  0
 11 12  2  0
 12 13  1  0
 13 14  2  0
 14 15  1  0
 15 16  2  0
 16 17  1  0
 17 18  1  0
 18 19  2  0
 19 20  1  0
 20 21  2  0
 21 22  1  0
 22 23  2  0
 23 24  1  0
 24 25  2  0
 24 26  1  0
 26 27  1  0
 27 28  1  0
 27 29  2  0
 27 30  2  0
  6 31  1  0
 31 32  2  0
 32  3  1  0
 16 11  1  0
 23 18  1  0
  1 33  1  0
  1 34  1  0
  1 35  1  0
  4 36  1  0
  5 37  1  0
 12 38  1  0
 13 39  1  0
 14 40  1  0
 15 41  1  0
 19 42  1  0
 20 43  1  0
 21 44  1  0
 22 45  1  0
 28 46  1  0
 28 47  1  0
 28 48  1  0
 31 49  1  0
 32 50  1  0
M  CHG  3   7  -1  10  -1  26  -1
M  END
>  <UniqueID>  (75) 
68

>  <SMILES>  (75) 
CSc1ccc([N-]C(=O)[N-]c2ccccc2Oc2ccccc2C(=O)[N-]S(C)(=O)=O)cc1

>  <Energy>  (75) 
63.61037008184487

>  <Genealogy>  (75) 
CSc1ccc([N-]C(=O)[N-]c2ccccc2Oc2ccccc2C(=O)[N-]S(C)(=O)=O)cc1 (protonated)
CSc1ccc([N-]C(=O)[N-]c2ccccc2Oc2ccccc2C(=O)[N-]S(C)(=O)=O)cc1 (3D coordinates assigned)
CSc1ccc([N-]C(=O)[N-]c2ccccc2Oc2ccccc2C(=O)[N-]S(C)(=O)=O)cc1 (optimized conformer: 63.61037008184487 kcal/mol)

>  <smiles>  (75) 
CSc1ccc(NC(=O)Nc2ccccc2Oc2ccccc2C(=O)NS(C)(=O)=O)cc1

>  <score_type>  (75) 
oracle

>  <origin>  (75) 
adg

>  <m_score__min__energy>  (75) 
-14.18

>  <m_primary>  (75) 
energy

$$$$
75:0
     RDKit          3D

 59 61  0  0  0  0  0  0  0  0999 V2000
   51.2140   32.4200   50.6660 H   0  0  0  0  0  0  0  0  0  0  0  0
   50.9170   32.6820   51.6320 N   0  0  0  0  0  0  0  0  0  0  0  0
   50.9100   31.7180   52.6810 C   0  0  0  0  0  0  0  0  0  0  0  0
   49.9260   31.6570   53.4690 O   0  0  0  0  0  0  0  0  0  0  0  0
   52.0600   30.7570   52.8230 C   0  0  1  0  0  0  0  0  0  0  0  0
   51.6940   29.7367   52.6361 H   0  0  0  0  0  0  0  0  0  0  0  0
   53.1410   31.0410   51.7980 C   0  0  0  0  0  0  0  0  0  0  0  0
   52.9040   30.9910   50.5210 N   0  0  0  0  0  0  0  0  0  0  0  0
   51.7600   30.4120   50.0150 O   0  0  0  0  0  0  0  0  0  0  0  0
   51.8450   29.3470   49.0830 C   0  0  0  0  0  0  0  0  0  0  0  0
   51.4633   28.4248   49.5454 H   0  0  0  0  0  0  0  0  0  0  0  0
   52.8948   29.2039   48.7872 H   0  0  0  0  0  0  0  0  0  0  0  0
   51.0150   29.6770   47.8530 C   0  0  0  0  0  0  0  0  0  0  0  0
   50.0350   30.0666   48.1657 H   0  0  0  0  0  0  0  0  0  0  0  0
   51.5365   30.4362   47.2516 H   0  0  0  0  0  0  0  0  0  0  0  0
   50.8729   28.7670   47.2516 H   0  0  0  0  0  0  0  0  0  0  0  0
   54.5370   31.3180   52.2740 C   0  0  0  0  0  0  0  0  0  0  0  0
   55.2394   31.2184   51.4334 H   0  0  0  0  0  0  0  0  0  0  0  0
   54.5957   32.3404   52.6757 H   0  0  0  0  0  0  0  0  0  0  0  0
   54.8870   30.3520   53.3250 N   0  0  0  0  0  0  0  0  0  0  0  0
   56.1460   29.6530   53.2750 C   0  0  0  0  0  0  0  0  0  0  0  0
   56.4720   28.7190   54.2640 C   0  0  0  0  0  0  0  0  0  0  0  0
   55.7589   28.5106   55.0752 H   0  0  0  0  0  0  0  0  0  0  0  0
   57.6960   28.0500   54.2280 C   0  0  0  0  0  0  0  0  0  0  0  0
   57.9365   27.3154   55.0107 H   0  0  0  0  0  0  0  0  0  0  0  0
   58.6270   28.3030   53.2030 C   0  0  0  0  0  0  0  0  0  0  0  0
   59.9250   27.5770   53.2080 C   0  0  0  0  0  0  0  0  0  0  0  0
   60.9160   28.0510   53.8230 O   0  0  0  0  0  0  0  0  0  0  0  0
   60.0780   26.3700   52.5330 O   0  0  0  0  0  0  0  0  0  0  0  0
   58.3070   29.2500   52.2020 C   0  0  0  0  0  0  0  0  0  0  0  0
   59.2310   29.5110   51.1780 O   0  0  0  0  0  0  0  0  0  0  0  0
   59.7310   30.8020   50.8360 C   0  0  0  0  0  0  0  0  0  0  0  0
   59.3260   31.5504   51.5331 H   0  0  0  0  0  0  0  0  0  0  0  0
   60.8291   30.8032   50.9009 H   0  0  0  0  0  0  0  0  0  0  0  0
   59.3070   31.1380   49.4360 C   0  0  0  0  0  0  0  0  0  0  0  0
   58.6270   32.3380   49.1790 C   0  0  0  0  0  0  0  0  0  0  0  0
   58.3821   33.0170   50.0090 H   0  0  0  0  0  0  0  0  0  0  0  0
   58.2590   32.6750   47.8720 C   0  0  0  0  0  0  0  0  0  0  0  0
   57.7183   33.6134   47.6792 H   0  0  0  0  0  0  0  0  0  0  0  0
   58.5770   31.8210   46.8080 C   0  0  0  0  0  0  0  0  0  0  0  0
   58.0960   32.2510   45.1700 S   0  0  0  0  0  0  0  0  0  0  0  0
   56.6010   32.3910   45.0870 O   0  0  0  0  0  0  0  0  0  0  0  0
   58.5350   31.1730   44.2200 O   0  0  0  0  0  0  0  0  0  0  0  0
   58.8520   33.7950   44.7170 C   0  0  0  0  0  0  0  0  0  0  0  0
   59.1241   34.3508   45.6264 H   0  0  0  0  0  0  0  0  0  0  0  0
   59.7565   33.5998   44.1221 H   0  0  0  0  0  0  0  0  0  0  0  0
   58.1432   34.3897   44.1221 H   0  0  0  0  0  0  0  0  0  0  0  0
   59.2650   30.6260   47.0610 C   0  0  0  0  0  0  0  0  0  0  0  0
   59.5132   29.9500   46.2295 H   0  0  0  0  0  0  0  0  0  0  0  0
   59.6370   30.2900   48.3670 C   0  0  0  0  0  0  0  0  0  0  0  0
   60.1899   29.3582   48.5570 H   0  0  0  0  0  0  0  0  0  0  0  0
   57.0650   29.9170   52.2500 C   0  0  0  0  0  0  0  0  0  0  0  0
   56.8143   30.6540   51.4728 H   0  0  0  0  0  0  0  0  0  0  0  0
   53.9280   30.0320   54.3970 C   0  0  0  0  0  0  0  0  0  0  0  0
   53.6941   28.9580   54.3553 H   0  0  0  0  0  0  0  0  0  0  0  0
   54.3903   30.3015   55.3581 H   0  0  0  0  0  0  0  0  0  0  0  0
   52.6220   30.8300   54.2580 C   0  0  0  0  0  0  0  0  0  0  0  0
   51.8766   30.4183   54.9544 H   0  0  0  0  0  0  0  0  0  0  0  0
   52.8371   31.8837   54.4894 H   0  0  0  0  0  0  0  0  0  0  0  0
  1  2  1  0
  2  3  1  0
  3  4  2  0
  3  5  1  0
  5  6  1  6
  5  7  1  0
  7  8  2  0
  8  9  1  0
  9 10  1  0
 10 11  1  0
 10 12  1  0
 10 13  1  0
 13 14  1  0
 13 15  1  0
 13 16  1  0
  7 17  1  0
 17 18  1  0
 17 19  1  0
 17 20  1  0
 20 21  1  0
 21 22  2  0
 22 23  1  0
 22 24  1  0
 24 25  1  0
 24 26  2  0
 26 27  1  0
 27 28  2  0
 27 29  1  0
 26 30  1  0
 30 31  1  0
 31 32  1  0
 32 33  1  0
 32 34  1  0
 32 35  1  0
 35 36  2  0
 36 37  1  0
 36 38  1  0
 38 39  1  0
 38 40  2  0
 40 41  1  0
 41 42  2  0
 41 43  2  0
 41 44  1  0
 44 45  1  0
 44 46  1  0
 44 47  1  0
 40 48  1  0
 48 49  1  0
 48 50  2  0
 50 51  1  0
 30 52  2  0
 52 53  1  0
 20 54  1  0
 54 55  1  0
 54 56  1  0
 54 57  1  0
 57 58  1  0
 57 59  1  0
 57  5  1  0
 52 21  1  0
 50 35  1  0
M  CHG  2   2  -1  29  -1
M  END
>  <UniqueID>  (76) 
69

>  <SMILES>  (76) 
CCO/N=C1/CN(c2ccc(C(=O)[O-])c(OCc3ccc(S(C)(=O)=O)cc3)c2)CC[C@H]1C([NH-])=O

>  <Energy>  (76) 
56.07398655794809

>  <Genealogy>  (76) 
CCON=C1CN(c2ccc(C(=O)[O-])c(OCc3ccc(S(C)(=O)=O)cc3)c2)CCC1C([NH-])=O (protonated)
CCON=C1CN(c2ccc(C(=O)[O-])c(OCc3ccc(S(C)(=O)=O)cc3)c2)CC[C@H]1C([NH-])=O (chirality)
CCO/N=C1/CN(c2ccc(C(=O)[O-])c(OCc3ccc(S(C)(=O)=O)cc3)c2)CC[C@H]1C([NH-])=O (cis-trans isomerization)
CCO/N=C1/CN(c2ccc(C(=O)[O-])c(OCc3ccc(S(C)(=O)=O)cc3)c2)CC[C@H]1C([NH-])=O (3D coordinates assigned)
CCO/N=C1/CN(c2ccc(C(=O)[O-])c(OCc3ccc(S(C)(=O)=O)cc3)c2)CC[C@H]1C([NH-])=O (nonaromatic ring conformer: 56.07398655794809 kcal/mol)

>  <smiles>  (76) 
CCON=C1CN(c2ccc(C(=O)O)c(OCc3ccc(S(C)(=O)=O)cc3)c2)CCC1C(N)=O

>  <score_type>  (76) 
oracle

>  <origin>  (76) 
adg

>  <m_score__min__energy>  (76) 
-12.199999999999999

>  <m_primary>  (76) 
energy

$$$$
76:0
     RDKit          3D

 39 41  0  0  0  0  0  0  0  0999 V2000
   56.0880   33.8670   44.5540 H   0  0  0  0  0  0  0  0  0  0  0  0
   56.7920   34.5540   44.9060 N   0  0  0  0  0  0  0  0  0  0  0  0
   57.7940   34.2060   45.6520 C   0  0  0  0  0  0  0  0  0  0  0  0
   59.0980   34.2060   45.1410 C   0  0  0  0  0  0  0  0  0  0  0  0
   59.2845   34.5034   44.0985 H   0  0  0  0  0  0  0  0  0  0  0  0
   60.1590   33.8260   45.9640 C   0  0  0  0  0  0  0  0  0  0  0  0
   61.1854   33.8226   45.5685 H   0  0  0  0  0  0  0  0  0  0  0  0
   59.9210   33.4480   47.2950 C   0  0  0  0  0  0  0  0  0  0  0  0
   61.0370   33.0410   48.1800 C   0  0  0  0  0  0  0  0  0  0  0  0
   61.7150   33.9190   48.7790 O   0  0  0  0  0  0  0  0  0  0  0  0
   61.3780   31.6540   48.3130 N   0  0  0  0  0  0  0  0  0  0  0  0
   60.6010   30.5340   47.8650 C   0  0  0  0  0  0  0  0  0  0  0  0
   59.6530   29.9030   48.6920 C   0  0  0  0  0  0  0  0  0  0  0  0
   59.5044   30.2555   49.7233 H   0  0  0  0  0  0  0  0  0  0  0  0
   58.8990   28.8290   48.2070 C   0  0  0  0  0  0  0  0  0  0  0  0
   58.1701   28.3306   48.8630 H   0  0  0  0  0  0  0  0  0  0  0  0
   59.0690   28.3860   46.8890 C   0  0  0  0  0  0  0  0  0  0  0  0
   58.1030   27.0440   46.2830 S   0  0  0  0  0  0  0  0  0  0  0  0
   57.5980   26.2410   47.4470 O   0  0  0  0  0  0  0  0  0  0  0  0
   58.9310   26.1540   45.3960 O   0  0  0  0  0  0  0  0  0  0  0  0
   56.7510   27.6440   45.3760 N   0  0  0  0  0  0  0  0  0  0  0  0
   56.6760   28.8410   44.8770 C   0  0  0  0  0  0  0  0  0  0  0  0
   55.6610   29.6810   45.1490 N   0  0  0  0  0  0  0  0  0  0  0  0
   55.9100   30.7810   44.4970 O   0  0  0  0  0  0  0  0  0  0  0  0
   57.0320   30.6870   43.8190 C   0  0  0  0  0  0  0  0  0  0  0  0
   57.6120   31.7780   42.9860 C   0  0  0  0  0  0  0  0  0  0  0  0
   58.0268   32.5583   43.6410 H   0  0  0  0  0  0  0  0  0  0  0  0
   58.4117   31.3689   42.3511 H   0  0  0  0  0  0  0  0  0  0  0  0
   56.8256   32.2121   42.3511 H   0  0  0  0  0  0  0  0  0  0  0  0
   57.5860   29.4410   44.0260 C   0  0  0  0  0  0  0  0  0  0  0  0
   58.5193   29.0275   43.6162 H   0  0  0  0  0  0  0  0  0  0  0  0
   59.9980   29.0250   46.0580 C   0  0  0  0  0  0  0  0  0  0  0  0
   60.1352   28.6818   45.0220 H   0  0  0  0  0  0  0  0  0  0  0  0
   60.7510   30.0980   46.5430 C   0  0  0  0  0  0  0  0  0  0  0  0
   61.4679   30.6045   45.8801 H   0  0  0  0  0  0  0  0  0  0  0  0
   58.5970   33.4620   47.7650 C   0  0  0  0  0  0  0  0  0  0  0  0
   58.3841   33.1691   48.8037 H   0  0  0  0  0  0  0  0  0  0  0  0
   57.5750   33.8350   46.9460 N   0  0  0  0  0  0  0  0  0  0  0  0
   56.6030   33.8350   47.3280 H   0  0  0  0  0  0  0  0  0  0  0  0
  1  2  1  0
  2  3  2  0
  3  4  1  0
  4  5  1  0
  4  6  2  0
  6  7  1  0
  6  8  1  0
  8  9  1  0
  9 10  2  0
  9 11  1  0
 11 12  1  0
 12 13  2  0
 13 14  1  0
 13 15  1  0
 15 16  1  0
 15 17  2  0
 17 18  1  0
 18 19  2  0
 18 20  2  0
 18 21  1  0
 21 22  2  3
 22 23  1  0
 23 24  1  0
 24 25  1  0
 25 26  1  0
 26 27  1  0
 26 28  1  0
 26 29  1  0
 25 30  2  0
 30 31  1  0
 17 32  1  0
 32 33  1  0
 32 34  2  0
 34 35  1  0
  8 36  2  0
 36 37  1  0
 36 38  1  0
 38 39  1  0
 38  3  1  0
 34 12  1  0
 30 22  1  0
M  CHG  2  11  -1  23  -1
M  END
>  <UniqueID>  (77) 
70

>  <SMILES>  (77) 
[H]/N=c1\ccc(C(=O)[N-]c2ccc(S(=O)(=O)N=c3cc(C)o[n-]3)cc2)c[nH]1

>  <Energy>  (77) 
79.47614022277091

>  <Genealogy>  (77) 
Cc1cc(=NS(=O)(=O)c2ccc([N-]C(=O)c3ccc(=N)[nH]c3)cc2)[n-]o1 (protonated)
[H]/N=c1\ccc(C(=O)[N-]c2ccc(S(=O)(=O)N=c3cc(C)o[n-]3)cc2)c[nH]1 (cis-trans isomerization)
[H]/N=c1\ccc(C(=O)[N-]c2ccc(S(=O)(=O)N=c3cc(C)o[n-]3)cc2)c[nH]1 (3D coordinates assigned)
[H]/N=c1\ccc(C(=O)[N-]c2ccc(S(=O)(=O)N=c3cc(C)o[n-]3)cc2)c[nH]1 (optimized conformer: 79.47614022277091 kcal/mol)

>  <smiles>  (77) 
Cc1cc(=NS(=O)(=O)c2ccc(NC(=O)c3ccc(=N)[nH]c3)cc2)[nH]o1

>  <score_type>  (77) 
oracle

>  <origin>  (77) 
adg

>  <m_score__min__energy>  (77) 
-11.880000000000001

>  <m_primary>  (77) 
energy

$$$$
77:0
     RDKit          3D

 37 39  0  0  0  0  0  0  0  0999 V2000
   57.4440   32.3760   42.9590 O   0  0  0  0  0  0  0  0  0  0  0  0
   57.3890   32.0720   44.1800 C   0  0  0  0  0  0  0  0  0  0  0  0
   56.6580   30.8990   44.5620 N   0  0  0  0  0  0  0  0  0  0  0  0
   57.2170   29.6480   44.9920 C   0  0  0  0  0  0  0  0  0  0  0  0
   58.5940   29.5660   45.2140 C   0  0  0  0  0  0  0  0  0  0  0  0
   59.1680   28.3710   45.6520 C   0  0  0  0  0  0  0  0  0  0  0  0
   58.3710   27.2450   45.8850 C   0  0  0  0  0  0  0  0  0  0  0  0
   59.1580   25.7890   46.4910 Cl  0  0  0  0  0  0  0  0  0  0  0  0
   56.9750   27.3170   45.6870 C   0  0  0  0  0  0  0  0  0  0  0  0
   56.0910   26.1470   45.9180 C   0  0  0  0  0  0  0  0  0  0  0  0
   54.8460   26.3160   45.9990 O   0  0  0  0  0  0  0  0  0  0  0  0
   56.6190   24.8330   46.1450 N   0  0  0  0  0  0  0  0  0  0  0  0
   56.7380   23.7850   45.1710 C   0  0  0  0  0  0  0  0  0  0  0  0
   57.8770   22.9670   45.0940 C   0  0  0  0  0  0  0  0  0  0  0  0
   57.9490   21.9660   44.1230 C   0  0  0  0  0  0  0  0  0  0  0  0
   56.8910   21.8030   43.2280 C   0  0  0  0  0  0  0  0  0  0  0  0
   55.8060   22.6200   43.2990 N   0  0  0  0  0  0  0  0  0  0  0  0
   55.7120   23.6010   44.2370 C   0  0  0  0  0  0  0  0  0  0  0  0
   56.4100   28.5270   45.2460 C   0  0  0  0  0  0  0  0  0  0  0  0
   58.0320   32.9590   45.1780 C   0  0  0  0  0  0  0  0  0  0  0  0
   58.7070   34.1260   44.7780 C   0  0  0  0  0  0  0  0  0  0  0  0
   59.3040   34.9590   45.7290 C   0  0  0  0  0  0  0  0  0  0  0  0
   59.2410   34.6310   47.0860 C   0  0  0  0  0  0  0  0  0  0  0  0
   58.5850   33.4660   47.4940 C   0  0  0  0  0  0  0  0  0  0  0  0
   58.5270   33.1470   48.8100 F   0  0  0  0  0  0  0  0  0  0  0  0
   57.9870   32.6300   46.5450 C   0  0  0  0  0  0  0  0  0  0  0  0
   59.2292   30.4476   45.0428 H   0  0  0  0  0  0  0  0  0  0  0  0
   60.2544   28.3144   45.8150 H   0  0  0  0  0  0  0  0  0  0  0  0
   58.7103   23.1144   45.7968 H   0  0  0  0  0  0  0  0  0  0  0  0
   58.8316   21.3121   44.0642 H   0  0  0  0  0  0  0  0  0  0  0  0
   56.9345   21.0127   42.4641 H   0  0  0  0  0  0  0  0  0  0  0  0
   54.8259   24.2523   44.2614 H   0  0  0  0  0  0  0  0  0  0  0  0
   55.3222   28.5963   45.0981 H   0  0  0  0  0  0  0  0  0  0  0  0
   58.7656   34.3850   43.7105 H   0  0  0  0  0  0  0  0  0  0  0  0
   59.8240   35.8738   45.4087 H   0  0  0  0  0  0  0  0  0  0  0  0
   59.7077   35.2897   47.8332 H   0  0  0  0  0  0  0  0  0  0  0  0
   57.4787   31.7101   46.8696 H   0  0  0  0  0  0  0  0  0  0  0  0
  1  2  2  0
  2  3  1  0
  3  4  1  0
  4  5  2  0
  5  6  1  0
  6  7  2  0
  7  8  1  0
  7  9  1  0
  9 10  1  0
 10 11  2  0
 10 12  1  0
 12 13  1  0
 13 14  2  0
 14 15  1  0
 15 16  2  0
 16 17  1  0
 17 18  2  0
  9 19  2  0
  2 20  1  0
 20 21  2  0
 21 22  1  0
 22 23  2  0
 23 24  1  0
 24 25  1  0
 24 26  2  0
 19  4  1  0
 26 20  1  0
 18 13  1  0
  5 27  1  0
  6 28  1  0
 14 29  1  0
 15 30  1  0
 16 31  1  0
 18 32  1  0
 19 33  1  0
 21 34  1  0
 22 35  1  0
 23 36  1  0
 26 37  1  0
M  CHG  2   3  -1  12  -1
M  END
>  <UniqueID>  (78) 
71

>  <SMILES>  (78) 
O=C([N-]c1ccc(Cl)c(C(=O)[N-]c2cccnc2)c1)c1cccc(F)c1

>  <Energy>  (78) 
56.10239769017888

>  <Genealogy>  (78) 
O=C([N-]c1ccc(Cl)c(C(=O)[N-]c2cccnc2)c1)c1cccc(F)c1 (protonated)
O=C([N-]c1ccc(Cl)c(C(=O)[N-]c2cccnc2)c1)c1cccc(F)c1 (3D coordinates assigned)
O=C([N-]c1ccc(Cl)c(C(=O)[N-]c2cccnc2)c1)c1cccc(F)c1 (optimized conformer: 56.10239769017888 kcal/mol)

>  <smiles>  (78) 
O=C(Nc1ccc(Cl)c(C(=O)Nc2cccnc2)c1)c1cccc(F)c1

>  <score_type>  (78) 
oracle

>  <origin>  (78) 
adg

>  <m_score__min__energy>  (78) 
-12.109999999999999

>  <m_primary>  (78) 
energy

$$$$
78:0
     RDKit          3D

 48 50  0  0  0  0  0  0  0  0999 V2000
   62.6660   33.8580   46.6790 C   0  0  0  0  0  0  0  0  0  0  0  0
   61.2160   33.6340   46.7240 N   0  0  0  0  0  0  0  0  0  0  0  0
   60.3150   34.7400   46.3730 C   0  0  0  0  0  0  0  0  0  0  0  0
   60.6800   32.3390   47.1080 C   0  0  0  0  0  0  0  0  0  0  0  0
   61.4940   31.1870   47.1000 C   0  0  0  0  0  0  0  0  0  0  0  0
   60.9780   29.9430   47.4700 C   0  0  0  0  0  0  0  0  0  0  0  0
   59.6470   29.8210   47.8770 C   0  0  0  0  0  0  0  0  0  0  0  0
   59.1430   28.5250   48.2250 N   0  0  0  0  0  0  0  0  0  0  0  0
   59.6550   27.2650   47.7750 C   0  0  0  0  0  0  0  0  0  0  0  0
   59.6940   26.3060   48.5900 O   0  0  0  0  0  0  0  0  0  0  0  0
   60.0590   27.0250   46.3350 C   0  0  0  0  0  0  0  0  0  0  0  0
   58.8860   26.6290   45.4100 C   0  0  1  0  0  0  0  0  0  0  0  0
   57.6170   26.3580   46.1670 C   0  0  0  0  0  0  0  0  0  0  0  0
   57.4860   25.3720   46.9380 O   0  0  0  0  0  0  0  0  0  0  0  0
   56.5660   27.3080   45.9870 N   0  0  0  0  0  0  0  0  0  0  0  0
   56.8470   28.1850   45.0790 C   0  0  0  0  0  0  0  0  0  0  0  0
   55.9650   29.3600   44.8060 C   0  0  0  0  0  0  0  0  0  0  0  0
   56.7630   30.4450   44.1340 C   0  0  0  0  0  0  0  0  0  0  0  0
   56.7590   30.5650   42.7340 C   0  0  0  0  0  0  0  0  0  0  0  0
   57.4470   31.6130   42.1150 C   0  0  0  0  0  0  0  0  0  0  0  0
   58.1350   32.5530   42.8880 C   0  0  0  0  0  0  0  0  0  0  0  0
   58.1350   32.4470   44.2810 C   0  0  0  0  0  0  0  0  0  0  0  0
   57.4510   31.3990   44.9050 C   0  0  0  0  0  0  0  0  0  0  0  0
   58.3920   27.9460   44.3130 S   0  0  0  0  0  0  0  0  0  0  0  0
   59.2730   29.1600   44.3790 O   0  0  0  0  0  0  0  0  0  0  0  0
   58.2370   27.4610   42.8990 O   0  0  0  0  0  0  0  0  0  0  0  0
   58.8170   30.9510   47.8610 C   0  0  0  0  0  0  0  0  0  0  0  0
   59.3290   32.1980   47.4910 C   0  0  0  0  0  0  0  0  0  0  0  0
   63.0596   33.9188   47.7044 H   0  0  0  0  0  0  0  0  0  0  0  0
   63.1496   33.0239   46.1495 H   0  0  0  0  0  0  0  0  0  0  0  0
   62.8754   34.7991   46.1495 H   0  0  0  0  0  0  0  0  0  0  0  0
   59.9336   35.2081   47.2925 H   0  0  0  0  0  0  0  0  0  0  0  0
   60.8647   35.4873   45.7819 H   0  0  0  0  0  0  0  0  0  0  0  0
   59.4720   34.3527   45.7819 H   0  0  0  0  0  0  0  0  0  0  0  0
   62.5487   31.2695   46.7985 H   0  0  0  0  0  0  0  0  0  0  0  0
   61.6240   29.0531   47.4408 H   0  0  0  0  0  0  0  0  0  0  0  0
   60.5110   27.9486   45.9442 H   0  0  0  0  0  0  0  0  0  0  0  0
   60.7610   26.1781   46.3386 H   0  0  0  0  0  0  0  0  0  0  0  0
   59.2787   25.7474   44.8822 H   0  0  0  0  0  0  0  0  0  0  0  0
   55.1387   29.0525   44.1482 H   0  0  0  0  0  0  0  0  0  0  0  0
   55.5585   29.7399   45.7549 H   0  0  0  0  0  0  0  0  0  0  0  0
   56.2125   29.8317   42.1227 H   0  0  0  0  0  0  0  0  0  0  0  0
   57.4470   31.6980   41.0183 H   0  0  0  0  0  0  0  0  0  0  0  0
   58.6765   33.3763   42.3992 H   0  0  0  0  0  0  0  0  0  0  0  0
   58.6740   33.1892   44.8881 H   0  0  0  0  0  0  0  0  0  0  0  0
   57.4511   31.3206   46.0022 H   0  0  0  0  0  0  0  0  0  0  0  0
   57.7575   30.8557   48.1410 H   0  0  0  0  0  0  0  0  0  0  0  0
   58.6712   33.0796   47.4985 H   0  0  0  0  0  0  0  0  0  0  0  0
  1  2  1  0
  2  3  1  0
  2  4  1  0
  4  5  2  0
  5  6  1  0
  6  7  2  0
  7  8  1  0
  8  9  1  0
  9 10  2  0
  9 11  1  0
 11 12  1  0
 12 13  1  0
 13 14  2  0
 13 15  1  0
 15 16  2  0
 16 17  1  0
 17 18  1  0
 18 19  2  0
 19 20  1  0
 20 21  2  0
 21 22  1  0
 22 23  2  0
 16 24  1  0
 24 25  2  0
 24 26  2  0
  7 27  1  0
 27 28  2  0
 28  4  1  0
 24 12  1  0
 23 18  1  0
  1 29  1  0
  1 30  1  0
  1 31  1  0
  3 32  1  0
  3 33  1  0
  3 34  1  0
  5 35  1  0
  6 36  1  0
 11 37  1  0
 11 38  1  0
 12 39  1  6
 17 40  1  0
 17 41  1  0
 19 42  1  0
 20 43  1  0
 21 44  1  0
 22 45  1  0
 23 46  1  0
 27 47  1  0
 28 48  1  0
M  CHG  1   8  -1
M  END
>  <UniqueID>  (79) 
72

>  <SMILES>  (79) 
CN(C)c1ccc([N-]C(=O)C[C@H]2C(=O)N=C(Cc3ccccc3)S2(=O)=O)cc1

>  <Energy>  (79) 
61.33830927238212

>  <Genealogy>  (79) 
CN(C)c1ccc([N-]C(=O)CC2C(=O)N=C(Cc3ccccc3)S2(=O)=O)cc1 (protonated)
CN(C)c1ccc([N-]C(=O)C[C@H]2C(=O)N=C(Cc3ccccc3)S2(=O)=O)cc1 (chirality)
CN(C)c1ccc([N-]C(=O)C[C@H]2C(=O)N=C(Cc3ccccc3)S2(=O)=O)cc1 (3D coordinates assigned)
CN(C)c1ccc([N-]C(=O)C[C@H]2C(=O)N=C(Cc3ccccc3)S2(=O)=O)cc1 (nonaromatic ring conformer: 61.33830927238212 kcal/mol)

>  <smiles>  (79) 
CN(C)c1ccc(NC(=O)CC2C(=O)N=C(Cc3ccccc3)S2(=O)=O)cc1

>  <score_type>  (79) 
oracle

>  <origin>  (79) 
adg

>  <m_score__min__energy>  (79) 
-10.23

>  <m_primary>  (79) 
energy

$$$$
79:0
     RDKit          3D

 74 78  0  0  0  0  0  0  0  0999 V2000
   57.5080   21.7150   43.8840 C   0  0  0  0  0  0  0  0  0  0  0  0
   56.5530   22.5170   43.0010 C   0  0  0  0  0  0  0  0  0  0  0  0
   56.3040   23.9420   43.5260 C   0  0  0  0  0  0  0  0  0  0  0  0
   57.3280   24.4030   44.5710 C   0  0  0  0  0  0  0  0  0  0  0  0
   57.5630   25.8460   44.4640 N   0  0  0  0  0  0  0  0  0  0  0  0
   57.0150   26.6420   45.9080 S   0  0  0  0  0  0  0  0  0  0  0  0
   56.6790   25.6090   46.9470 O   0  0  0  0  0  0  0  0  0  0  0  0
   55.7770   27.4410   45.6120 O   0  0  0  0  0  0  0  0  0  0  0  0
   58.2610   27.7050   46.5380 C   0  0  0  0  0  0  0  0  0  0  0  0
   58.5100   27.9360   47.8910 C   0  0  0  0  0  0  0  0  0  0  0  0
   59.5750   28.8240   48.0800 C   0  0  0  0  0  0  0  0  0  0  0  0
   60.0970   29.2910   49.2840 C   0  0  0  0  0  0  0  0  0  0  0  0
   59.5970   28.8990   50.3740 O   0  0  0  0  0  0  0  0  0  0  0  0
   61.1550   30.1780   49.2660 N   0  0  0  0  0  0  0  0  0  0  0  0
   61.7220   30.6350   50.5520 C   0  0  0  0  0  0  0  0  0  0  0  0
   60.8830   31.7420   51.1380 C   0  0  0  0  0  0  0  0  0  0  0  0
   61.4060   32.5720   52.1440 C   0  0  0  0  0  0  0  0  0  0  0  0
   60.6220   33.5880   52.7010 C   0  0  0  0  0  0  0  0  0  0  0  0
   59.3110   33.7820   52.2590 C   0  0  0  0  0  0  0  0  0  0  0  0
   58.7810   32.9610   51.2610 C   0  0  0  0  0  0  0  0  0  0  0  0
   59.5610   31.9430   50.7030 C   0  0  0  0  0  0  0  0  0  0  0  0
   61.6790   30.5950   48.0510 C   0  0  0  0  0  0  0  0  0  0  0  0
   63.0290   31.7850   47.9310 S   0  0  0  0  0  0  0  0  0  0  0  0
   62.0120   33.2100   48.4560 C   0  0  0  0  0  0  0  0  0  0  0  0
   61.4610   33.9430   47.2650 C   0  0  0  0  0  0  0  0  0  0  0  0
   62.2600   34.2690   46.3440 O   0  0  0  0  0  0  0  0  0  0  0  0
   60.0670   34.3140   47.1710 N   0  0  0  0  0  0  0  0  0  0  0  0
   59.0130   33.5720   47.8480 C   0  0  0  0  0  0  0  0  0  0  0  0
   58.4570   32.5140   46.8960 C   0  0  0  0  0  0  0  0  0  0  0  0
   58.3660   32.9450   45.4770 N   0  0  0  0  0  0  0  0  0  0  0  0
   57.7560   32.0320   44.5080 C   0  0  0  0  0  0  0  0  0  0  0  0
   57.1410   30.8230   44.9210 C   0  0  0  0  0  0  0  0  0  0  0  0
   56.5600   29.9540   43.9930 C   0  0  0  0  0  0  0  0  0  0  0  0
   56.5770   30.2640   42.6350 C   0  0  0  0  0  0  0  0  0  0  0  0
   57.1800   31.4410   42.1990 C   0  0  0  0  0  0  0  0  0  0  0  0
   57.7650   32.3160   43.1190 C   0  0  0  0  0  0  0  0  0  0  0  0
   59.0090   34.1870   44.9730 C   0  0  0  0  0  0  0  0  0  0  0  0
   59.5800   35.1090   46.0540 C   0  0  0  0  0  0  0  0  0  0  0  0
   61.1660   30.1250   46.8780 N   0  0  0  0  0  0  0  0  0  0  0  0
   60.1340   29.2580   46.9040 C   0  0  0  0  0  0  0  0  0  0  0  0
   59.3510   28.5820   45.5840 S   0  0  0  0  0  0  0  0  0  0  0  0
   57.2782   21.9080   44.9423 H   0  0  0  0  0  0  0  0  0  0  0  0
   57.3890   20.6421   43.6727 H   0  0  0  0  0  0  0  0  0  0  0  0
   58.5442   22.0176   43.6727 H   0  0  0  0  0  0  0  0  0  0  0  0
   56.9832   22.5855   41.9910 H   0  0  0  0  0  0  0  0  0  0  0  0
   55.5861   21.9925   43.0001 H   0  0  0  0  0  0  0  0  0  0  0  0
   56.3405   24.6370   42.6742 H   0  0  0  0  0  0  0  0  0  0  0  0
   55.3216   23.9347   44.0207 H   0  0  0  0  0  0  0  0  0  0  0  0
   56.9464   24.1728   45.5767 H   0  0  0  0  0  0  0  0  0  0  0  0
   58.2769   23.8758   44.3932 H   0  0  0  0  0  0  0  0  0  0  0  0
   56.9810   26.2120   43.6740 H   0  0  0  0  0  0  0  0  0  0  0  0
   57.9383   27.4758   48.7104 H   0  0  0  0  0  0  0  0  0  0  0  0
   61.7487   29.7902   51.2560 H   0  0  0  0  0  0  0  0  0  0  0  0
   62.7389   31.0158   50.3760 H   0  0  0  0  0  0  0  0  0  0  0  0
   62.4375   32.4221   52.4955 H   0  0  0  0  0  0  0  0  0  0  0  0
   61.0381   34.2346   53.4876 H   0  0  0  0  0  0  0  0  0  0  0  0
   58.6958   34.5817   52.6972 H   0  0  0  0  0  0  0  0  0  0  0  0
   57.7488   33.1153   50.9135 H   0  0  0  0  0  0  0  0  0  0  0  0
   59.1382   31.2964   49.9200 H   0  0  0  0  0  0  0  0  0  0  0  0
   61.1772   32.8484   49.0743 H   0  0  0  0  0  0  0  0  0  0  0  0
   62.6453   33.9008   49.0319 H   0  0  0  0  0  0  0  0  0  0  0  0
   59.4236   33.0827   48.7435 H   0  0  0  0  0  0  0  0  0  0  0  0
   58.2090   34.2601   48.1483 H   0  0  0  0  0  0  0  0  0  0  0  0
   59.1109   31.6308   46.9450 H   0  0  0  0  0  0  0  0  0  0  0  0
   57.4280   32.3080   47.2257 H   0  0  0  0  0  0  0  0  0  0  0  0
   57.1208   30.5645   45.9900 H   0  0  0  0  0  0  0  0  0  0  0  0
   56.0876   29.0218   44.3364 H   0  0  0  0  0  0  0  0  0  0  0  0
   56.1147   29.5800   41.9081 H   0  0  0  0  0  0  0  0  0  0  0  0
   57.1961   31.6833   41.1261 H   0  0  0  0  0  0  0  0  0  0  0  0
   58.2403   33.2404   42.7592 H   0  0  0  0  0  0  0  0  0  0  0  0
   59.8321   33.8968   44.3034 H   0  0  0  0  0  0  0  0  0  0  0  0
   58.2157   34.7598   44.4704 H   0  0  0  0  0  0  0  0  0  0  0  0
   60.4103   35.6951   45.6332 H   0  0  0  0  0  0  0  0  0  0  0  0
   58.7900   35.7878   46.4077 H   0  0  0  0  0  0  0  0  0  0  0  0
  1  2  1  0
  2  3  1  0
  3  4  1  0
  4  5  1  0
  5  6  1  0
  6  7  2  0
  6  8  2  0
  6  9  1  0
  9 10  2  0
 10 11  1  0
 11 12  1  0
 12 13  2  0
 12 14  1  0
 14 15  1  0
 15 16  1  0
 16 17  2  0
 17 18  1  0
 18 19  2  0
 19 20  1  0
 20 21  2  0
 14 22  1  0
 22 23  1  0
 23 24  1  0
 24 25  1  0
 25 26  2  0
 25 27  1  0
 27 28  1  0
 28 29  1  0
 29 30  1  0
 30 31  1  0
 31 32  2  0
 32 33  1  0
 33 34  2  0
 34 35  1  0
 35 36  2  0
 30 37  1  0
 37 38  1  0
 22 39  2  0
 39 40  1  0
 40 41  1  0
 41  9  1  0
 40 11  2  0
 21 16  1  0
 38 27  1  0
 36 31  1  0
  1 42  1  0
  1 43  1  0
  1 44  1  0
  2 45  1  0
  2 46  1  0
  3 47  1  0
  3 48  1  0
  4 49  1  0
  4 50  1  0
  5 51  1  0
 10 52  1  0
 15 53  1  0
 15 54  1  0
 17 55  1  0
 18 56  1  0
 19 57  1  0
 20 58  1  0
 21 59  1  0
 24 60  1  0
 24 61  1  0
 28 62  1  0
 28 63  1  0
 29 64  1  0
 29 65  1  0
 32 66  1  0
 33 67  1  0
 34 68  1  0
 35 69  1  0
 36 70  1  0
 37 71  1  0
 37 72  1  0
 38 73  1  0
 38 74  1  0
M  END
>  <UniqueID>  (80) 
73

>  <SMILES>  (80) 
CCCCNS(=O)(=O)c1cc2c(=O)n(Cc3ccccc3)c(SCC(=O)N3CCN(c4ccccc4)CC3)nc2s1

>  <Energy>  (80) 
113.66938613913308

>  <Genealogy>  (80) 
CCCCNS(=O)(=O)c1cc2c(=O)n(Cc3ccccc3)c(SCC(=O)N3CCN(c4ccccc4)CC3)nc2s1 (3D coordinates assigned)
CCCCNS(=O)(=O)c1cc2c(=O)n(Cc3ccccc3)c(SCC(=O)N3CCN(c4ccccc4)CC3)nc2s1 (nonaromatic ring conformer: 113.66938613913308 kcal/mol)

>  <smiles>  (80) 
CCCCNS(=O)(=O)c1cc2c(=O)n(Cc3ccccc3)c(SCC(=O)N3CCN(c4ccccc4)CC3)nc2s1

>  <score_type>  (80) 
oracle

>  <origin>  (80) 
adg

>  <m_score__min__energy>  (80) 
-10.81

>  <m_primary>  (80) 
energy

$$$$
80:0
     RDKit          3D

 50 53  0  0  1  0  0  0  0  0999 V2000
   61.5220   33.4180   50.8290 C   0  0  0  0  0  0  0  0  0  0  0  0
   60.2260   33.9090   50.5240 O   0  0  0  0  0  0  0  0  0  0  0  0
   59.6480   33.6590   49.2860 C   0  0  0  0  0  0  0  0  0  0  0  0
   59.9270   34.5510   48.2800 C   0  0  0  0  0  0  0  0  0  0  0  0
   59.3530   34.3040   47.0570 C   0  0  0  0  0  0  0  0  0  0  0  0
   59.6230   35.1730   46.0700 N   0  0  0  0  0  0  0  0  0  0  0  0
   59.0730   34.9480   44.8710 C   0  0  0  0  0  0  0  0  0  0  0  0
   58.2830   33.9010   44.6470 N   0  0  0  0  0  0  0  0  0  0  0  0
   58.0090   33.0170   45.6540 C   0  0  0  0  0  0  0  0  0  0  0  0
   57.2710   32.0720   45.3890 N   0  0  0  0  0  0  0  0  0  0  0  0
   57.5000   30.7950   45.0130 C   0  0  0  0  0  0  0  0  0  0  0  0
   56.9000   30.3060   43.8290 C   0  0  0  0  0  0  0  0  0  0  0  0
   57.0210   28.9730   43.4800 C   0  0  0  0  0  0  0  0  0  0  0  0
   57.7430   28.1260   44.3130 C   0  0  0  0  0  0  0  0  0  0  0  0
   57.8670   26.7540   43.9530 N   0  0  0  0  0  0  0  0  0  0  0  0
   57.2490   25.7110   44.6950 C   0  0  0  0  0  0  0  0  0  0  0  0
   56.5610   25.9930   45.7110 O   0  0  0  0  0  0  0  0  0  0  0  0
   57.3700   24.3020   44.3380 C   0  0  0  0  0  0  0  0  0  0  0  0
   56.5180   23.8100   43.3740 C   0  0  0  0  0  0  0  0  0  0  0  0
   56.5840   22.4700   42.9880 C   0  0  0  0  0  0  0  0  0  0  0  0
   57.5030   21.6110   43.5600 C   0  0  0  0  0  0  0  0  0  0  0  0
   58.3640   22.1120   44.5340 C   0  0  0  0  0  0  0  0  0  0  0  0
   58.2830   23.4490   44.9070 C   0  0  0  0  0  0  0  0  0  0  0  0
   58.3410   28.5690   45.4740 C   0  0  0  0  0  0  0  0  0  0  0  0
   58.2260   29.8960   45.8320 C   0  0  0  0  0  0  0  0  0  0  0  0
   58.5390   33.1910   46.8990 C   0  0  0  0  0  0  0  0  0  0  0  0
   58.2850   32.3260   47.9240 C   0  0  0  0  0  0  0  0  0  0  0  0
   58.8610   32.5600   49.1840 C   0  0  0  0  0  0  0  0  0  0  0  0
   58.6470   31.7260   50.2660 O   0  0  0  0  0  0  0  0  0  0  0  0
   57.7760   32.1590   51.2890 C   0  0  0  0  0  0  0  0  0  0  0  0
   61.6484   33.3701   51.9207 H   0  0  0  0  0  0  0  0  0  0  0  0
   61.6429   32.4118   50.4014 H   0  0  0  0  0  0  0  0  0  0  0  0
   62.2793   34.0915   50.4014 H   0  0  0  0  0  0  0  0  0  0  0  0
   60.5788   35.4214   48.4457 H   0  0  0  0  0  0  0  0  0  0  0  0
   60.2400   36.0010   46.2210 H   0  0  0  0  0  0  0  0  0  0  0  0
   59.2797   35.6479   44.0479 H   0  0  0  0  0  0  0  0  0  0  0  0
   56.3331   30.9908   43.1811 H   0  0  0  0  0  0  0  0  0  0  0  0
   56.5545   28.5902   42.5603 H   0  0  0  0  0  0  0  0  0  0  0  0
   58.4360   26.5320   43.1140 H   0  0  0  0  0  0  0  0  0  0  0  0
   55.7803   24.4777   42.9049 H   0  0  0  0  0  0  0  0  0  0  0  0
   55.8950   22.0928   42.2180 H   0  0  0  0  0  0  0  0  0  0  0  0
   57.5536   20.5558   43.2533 H   0  0  0  0  0  0  0  0  0  0  0  0
   59.1059   21.4516   45.0067 H   0  0  0  0  0  0  0  0  0  0  0  0
   58.9678   23.8330   45.6775 H   0  0  0  0  0  0  0  0  0  0  0  0
   58.9049   27.8700   46.1091 H   0  0  0  0  0  0  0  0  0  0  0  0
   58.6997   30.2573   46.7567 H   0  0  0  0  0  0  0  0  0  0  0  0
   57.6348   31.4531   47.7649 H   0  0  0  0  0  0  0  0  0  0  0  0
   58.2228   31.9369   52.2693 H   0  0  0  0  0  0  0  0  0  0  0  0
   57.6131   33.2430   51.1974 H   0  0  0  0  0  0  0  0  0  0  0  0
   56.8134   31.6345   51.1974 H   0  0  0  0  0  0  0  0  0  0  0  0
  1  2  1  0
  2  3  1  0
  3  4  2  0
  4  5  1  0
  5  6  1  0
  6  7  1  0
  7  8  2  0
  8  9  1  0
  9 10  2  0
 10 11  1  0
 11 12  2  0
 12 13  1  0
 13 14  2  0
 14 15  1  0
 15 16  1  0
 16 17  2  0
 16 18  1  0
 18 19  2  0
 19 20  1  0
 20 21  2  0
 21 22  1  0
 22 23  2  0
 14 24  1  0
 24 25  2  0
  9 26  1  0
 26 27  1  0
 27 28  2  0
 28 29  1  0
 29 30  1  0
 28  3  1  0
 26  5  2  0
 25 11  1  0
 23 18  1  0
  1 31  1  0
  1 32  1  0
  1 33  1  0
  4 34  1  0
  6 35  1  0
  7 36  1  0
 12 37  1  0
 13 38  1  0
 15 39  1  0
 19 40  1  0
 20 41  1  0
 21 42  1  0
 22 43  1  0
 23 44  1  0
 24 45  1  0
 25 46  1  0
 27 47  1  0
 30 48  1  0
 30 49  1  0
 30 50  1  0
M  END
>  <smiles>  (81) 
COc1cc2[nH]cnc(=Nc3ccc(NC(=O)c4ccccc4)cc3)c2cc1OC

>  <score_type>  (81) 
oracle

>  <origin>  (81) 
adg

>  <m_score__min__energy>  (81) 
-8.1600000000000001

>  <m_primary>  (81) 
energy

$$$$
81:0
     RDKit          3D

 55 59  0  0  0  0  0  0  0  0999 V2000
   54.8130   22.5460   45.6050 C   0  0  0  0  0  0  0  0  0  0  0  0
   55.7720   23.6630   45.6040 N   0  0  0  0  0  0  0  0  0  0  0  0
   55.3140   24.9610   45.6220 C   0  0  0  0  0  0  0  0  0  0  0  0
   54.0810   25.2270   45.6210 O   0  0  0  0  0  0  0  0  0  0  0  0
   56.2450   25.9850   45.6420 C   0  0  0  0  0  0  0  0  0  0  0  0
   56.0380   27.3090   45.6360 N   0  0  0  0  0  0  0  0  0  0  0  0
   57.3060   27.8040   45.6560 C   0  0  0  0  0  0  0  0  0  0  0  0
   57.6050   29.2530   45.6600 C   0  0  0  0  0  0  0  0  0  0  0  0
   58.4410   29.8070   46.6460 C   0  0  0  0  0  0  0  0  0  0  0  0
   58.7260   31.1760   46.6470 C   0  0  0  0  0  0  0  0  0  0  0  0
   58.1790   32.0080   45.6630 C   0  0  0  0  0  0  0  0  0  0  0  0
   58.5530   33.7300   45.6320 S   0  0  0  0  0  0  0  0  0  0  0  0
   57.2970   34.5490   45.5220 O   0  0  0  0  0  0  0  0  0  0  0  0
   59.4290   34.0110   44.4440 O   0  0  0  0  0  0  0  0  0  0  0  0
   59.3930   34.1660   47.0860 N   0  0  0  0  0  0  0  0  0  0  0  0
   60.7230   33.6970   47.3750 C   0  0  0  0  0  0  0  0  0  0  0  0
   61.7560   33.8680   46.4340 C   0  0  0  0  0  0  0  0  0  0  0  0
   63.0580   33.4550   46.7230 C   0  0  0  0  0  0  0  0  0  0  0  0
   63.3480   32.8680   47.9540 C   0  0  0  0  0  0  0  0  0  0  0  0
   62.3370   32.6860   48.8980 C   0  0  0  0  0  0  0  0  0  0  0  0
   61.0210   33.0860   48.6160 C   0  0  0  0  0  0  0  0  0  0  0  0
   59.9890   32.9030   49.6540 C   0  0  0  0  0  0  0  0  0  0  0  0
   59.8500   33.8420   50.6870 C   0  0  0  0  0  0  0  0  0  0  0  0
   58.8650   33.6680   51.6640 C   0  0  0  0  0  0  0  0  0  0  0  0
   58.0130   32.5600   51.6110 C   0  0  0  0  0  0  0  0  0  0  0  0
   58.1430   31.6260   50.5790 C   0  0  0  0  0  0  0  0  0  0  0  0
   59.1270   31.7980   49.5990 C   0  0  0  0  0  0  0  0  0  0  0  0
   57.3410   31.4650   44.6830 C   0  0  0  0  0  0  0  0  0  0  0  0
   57.0560   30.0970   44.6790 C   0  0  0  0  0  0  0  0  0  0  0  0
   58.2770   26.8480   45.6770 N   0  0  0  0  0  0  0  0  0  0  0  0
   57.5640   25.7120   45.6660 C   0  0  0  0  0  0  0  0  0  0  0  0
   58.0450   24.4400   45.6920 N   0  0  0  0  0  0  0  0  0  0  0  0
   59.4910   24.1800   45.6950 C   0  0  0  0  0  0  0  0  0  0  0  0
   57.1340   23.4050   45.6510 C   0  0  0  0  0  0  0  0  0  0  0  0
   57.5470   22.2110   45.6590 O   0  0  0  0  0  0  0  0  0  0  0  0
   54.5746   22.2683   46.6423 H   0  0  0  0  0  0  0  0  0  0  0  0
   53.8925   22.8526   45.0867 H   0  0  0  0  0  0  0  0  0  0  0  0
   55.2554   21.6825   45.0867 H   0  0  0  0  0  0  0  0  0  0  0  0
   58.8738   29.1586   47.4221 H   0  0  0  0  0  0  0  0  0  0  0  0
   59.3811   31.5999   47.4223 H   0  0  0  0  0  0  0  0  0  0  0  0
   58.9700   34.9300   47.6550 H   0  0  0  0  0  0  0  0  0  0  0  0
   61.5351   34.3317   45.4613 H   0  0  0  0  0  0  0  0  0  0  0  0
   63.8560   33.5929   45.9786 H   0  0  0  0  0  0  0  0  0  0  0  0
   64.3756   32.5479   48.1812 H   0  0  0  0  0  0  0  0  0  0  0  0
   62.5723   32.2263   49.8692 H   0  0  0  0  0  0  0  0  0  0  0  0
   60.5166   34.7160   50.7284 H   0  0  0  0  0  0  0  0  0  0  0  0
   58.7600   34.4034   52.4753 H   0  0  0  0  0  0  0  0  0  0  0  0
   57.2402   32.4235   52.3818 H   0  0  0  0  0  0  0  0  0  0  0  0
   57.4716   30.7556   50.5373 H   0  0  0  0  0  0  0  0  0  0  0  0
   59.2246   31.0654   48.7843 H   0  0  0  0  0  0  0  0  0  0  0  0
   56.9047   32.1176   43.9125 H   0  0  0  0  0  0  0  0  0  0  0  0
   56.3980   29.6780   43.9034 H   0  0  0  0  0  0  0  0  0  0  0  0
   59.8498   24.1155   46.7328 H   0  0  0  0  0  0  0  0  0  0  0  0
   59.6940   23.2310   45.1772 H   0  0  0  0  0  0  0  0  0  0  0  0
   60.0119   24.9989   45.1772 H   0  0  0  0  0  0  0  0  0  0  0  0
  1  2  1  0
  2  3  1  0
  3  4  2  0
  3  5  1  0
  5  6  1  0
  6  7  2  0
  7  8  1  0
  8  9  2  0
  9 10  1  0
 10 11  2  0
 11 12  1  0
 12 13  2  0
 12 14  2  0
 12 15  1  0
 15 16  1  0
 16 17  2  0
 17 18  1  0
 18 19  2  0
 19 20  1  0
 20 21  2  0
 21 22  1  0
 22 23  2  0
 23 24  1  0
 24 25  2  0
 25 26  1  0
 26 27  2  0
 11 28  1  0
 28 29  2  0
  7 30  1  0
 30 31  1  0
 31 32  1  0
 32 33  1  0
 32 34  1  0
 34 35  2  0
 34  2  1  0
 31  5  2  0
 29  8  1  0
 21 16  1  0
 27 22  1  0
  1 36  1  0
  1 37  1  0
  1 38  1  0
  9 39  1  0
 10 40  1  0
 15 41  1  0
 17 42  1  0
 18 43  1  0
 19 44  1  0
 20 45  1  0
 23 46  1  0
 24 47  1  0
 25 48  1  0
 26 49  1  0
 27 50  1  0
 28 51  1  0
 29 52  1  0
 33 53  1  0
 33 54  1  0
 33 55  1  0
M  CHG  1  30  -1
M  END
>  <UniqueID>  (82) 
74

>  <SMILES>  (82) 
Cn1c(=O)c2nc(-c3ccc(S(=O)(=O)Nc4ccccc4-c4ccccc4)cc3)[n-]c2n(C)c1=O

>  <Energy>  (82) 
115.68840480501844

>  <Genealogy>  (82) 
Cn1c(=O)c2nc(-c3ccc(S(=O)(=O)Nc4ccccc4-c4ccccc4)cc3)[n-]c2n(C)c1=O (protonated)
Cn1c(=O)c2nc(-c3ccc(S(=O)(=O)Nc4ccccc4-c4ccccc4)cc3)[n-]c2n(C)c1=O (3D coordinates assigned)
Cn1c(=O)c2nc(-c3ccc(S(=O)(=O)Nc4ccccc4-c4ccccc4)cc3)[n-]c2n(C)c1=O (optimized conformer: 115.68840480501844 kcal/mol)

>  <smiles>  (82) 
Cn1c(=O)c2nc(-c3ccc(S(=O)(=O)Nc4ccccc4-c4ccccc4)cc3)[nH]c2n(C)c1=O

>  <score_type>  (82) 
oracle

>  <origin>  (82) 
adg

>  <m_score__min__energy>  (82) 
-11.710000000000001

>  <m_primary>  (82) 
energy

$$$$
82:0
     RDKit          3D

 59 61  0  0  0  0  0  0  0  0999 V2000
   67.2270   33.5150   50.8810 C   0  0  0  0  0  0  0  0  0  0  0  0
   65.9840   32.9220   50.2220 C   0  0  0  0  0  0  0  0  0  0  0  0
   64.6850   33.4490   50.8430 C   0  0  0  0  0  0  0  0  0  0  0  0
   63.5110   32.9560   50.1220 N   0  0  0  0  0  0  0  0  0  0  0  0
   62.6470   33.7120   49.2710 C   0  0  0  0  0  0  0  0  0  0  0  0
   62.6740   34.9670   49.1640 O   0  0  0  0  0  0  0  0  0  0  0  0
   61.7550   32.8140   48.5460 C   0  0  0  0  0  0  0  0  0  0  0  0
   60.7560   33.0820   47.6140 C   0  0  0  0  0  0  0  0  0  0  0  0
   60.0580   31.9960   47.0590 C   0  0  0  0  0  0  0  0  0  0  0  0
   60.3660   30.6620   47.4380 C   0  0  0  0  0  0  0  0  0  0  0  0
   59.6240   29.5220   46.8430 C   0  0  0  0  0  0  0  0  0  0  0  0
   59.9490   28.2030   47.1890 C   0  0  0  0  0  0  0  0  0  0  0  0
   59.2490   27.1340   46.6340 C   0  0  0  0  0  0  0  0  0  0  0  0
   58.2040   27.3520   45.7220 C   0  0  0  0  0  0  0  0  0  0  0  0
   57.5030   26.2160   45.1890 N   0  0  0  0  0  0  0  0  0  0  0  0
   56.1810   25.8530   45.6160 C   0  0  0  0  0  0  0  0  0  0  0  0
   55.5500   26.5910   46.4220 O   0  0  0  0  0  0  0  0  0  0  0  0
   55.5650   24.5620   45.1520 C   0  0  0  0  0  0  0  0  0  0  0  0
   54.0490   24.4870   45.3970 C   0  0  0  0  0  0  0  0  0  0  0  0
   53.4840   23.0820   45.7300 C   0  0  0  0  0  0  0  0  0  0  0  0
   52.1220   22.7790   45.2310 N   0  0  0  0  0  0  0  0  0  0  0  0
   51.5020   23.8560   44.4460 C   0  0  0  0  0  0  0  0  0  0  0  0
   51.2090   22.2460   46.2540 C   0  0  0  0  0  0  0  0  0  0  0  0
   57.8710   28.6800   45.3470 C   0  0  0  0  0  0  0  0  0  0  0  0
   56.7710   28.9940   44.3960 C   0  0  0  0  0  0  0  0  0  0  0  0
   55.4220   29.0590   44.8580 N   0  0  0  0  0  0  0  0  0  0  0  0
   57.0080   29.2260   43.1820 O   0  0  0  0  0  0  0  0  0  0  0  0
   58.5850   29.7480   45.9230 C   0  0  0  0  0  0  0  0  0  0  0  0
   61.3900   30.4280   48.3870 C   0  0  0  0  0  0  0  0  0  0  0  0
   62.0610   31.5240   48.9210 C   0  0  0  0  0  0  0  0  0  0  0  0
   63.1520   31.5920   49.8880 C   0  0  0  0  0  0  0  0  0  0  0  0
   63.7170   30.6060   50.4300 O   0  0  0  0  0  0  0  0  0  0  0  0
   67.1215   33.4647   51.9748 H   0  0  0  0  0  0  0  0  0  0  0  0
   68.1143   32.9432   50.5715 H   0  0  0  0  0  0  0  0  0  0  0  0
   67.3408   34.5644   50.5715 H   0  0  0  0  0  0  0  0  0  0  0  0
   65.9942   33.1797   49.1527 H   0  0  0  0  0  0  0  0  0  0  0  0
   66.0108   31.8330   50.3747 H   0  0  0  0  0  0  0  0  0  0  0  0
   64.6280   33.1164   51.8899 H   0  0  0  0  0  0  0  0  0  0  0  0
   64.6927   34.5473   50.7827 H   0  0  0  0  0  0  0  0  0  0  0  0
   60.5196   34.1154   47.3202 H   0  0  0  0  0  0  0  0  0  0  0  0
   59.2630   32.1812   46.3217 H   0  0  0  0  0  0  0  0  0  0  0  0
   60.7626   28.0107   47.9039 H   0  0  0  0  0  0  0  0  0  0  0  0
   59.5187   26.1050   46.9141 H   0  0  0  0  0  0  0  0  0  0  0  0
   58.0020   25.5870   44.5220 H   0  0  0  0  0  0  0  0  0  0  0  0
   55.7497   24.4554   44.0729 H   0  0  0  0  0  0  0  0  0  0  0  0
   56.0289   23.7525   45.7347 H   0  0  0  0  0  0  0  0  0  0  0  0
   53.8105   25.1540   46.2386 H   0  0  0  0  0  0  0  0  0  0  0  0
   53.5796   24.7780   44.4457 H   0  0  0  0  0  0  0  0  0  0  0  0
   54.1699   22.3364   45.3015 H   0  0  0  0  0  0  0  0  0  0  0  0
   53.4038   23.0542   46.8267 H   0  0  0  0  0  0  0  0  0  0  0  0
   51.0710   24.6047   45.1270 H   0  0  0  0  0  0  0  0  0  0  0  0
   52.2639   24.3328   43.8118 H   0  0  0  0  0  0  0  0  0  0  0  0
   50.7071   23.4366   43.8118 H   0  0  0  0  0  0  0  0  0  0  0  0
   51.6043   22.4767   47.2543 H   0  0  0  0  0  0  0  0  0  0  0  0
   50.2172   22.7070   46.1363 H   0  0  0  0  0  0  0  0  0  0  0  0
   51.1228   21.1557   46.1363 H   0  0  0  0  0  0  0  0  0  0  0  0
   55.1420   28.6150   45.7610 H   0  0  0  0  0  0  0  0  0  0  0  0
   58.3246   30.7806   45.6476 H   0  0  0  0  0  0  0  0  0  0  0  0
   61.6491   29.4043   48.6950 H   0  0  0  0  0  0  0  0  0  0  0  0
  1  2  1  0
  2  3  1  0
  3  4  1  0
  4  5  1  0
  5  6  2  0
  5  7  1  0
  7  8  2  0
  8  9  1  0
  9 10  2  0
 10 11  1  0
 11 12  2  0
 12 13  1  0
 13 14  2  0
 14 15  1  0
 15 16  1  0
 16 17  2  0
 16 18  1  0
 18 19  1  0
 19 20  1  0
 20 21  1  0
 21 22  1  0
 21 23  1  0
 14 24  1  0
 24 25  1  0
 25 26  1  0
 25 27  2  0
 24 28  2  0
 10 29  1  0
 29 30  2  0
 30 31  1  0
 31 32  2  0
 31  4  1  0
 30  7  1  0
 28 11  1  0
  1 33  1  0
  1 34  1  0
  1 35  1  0
  2 36  1  0
  2 37  1  0
  3 38  1  0
  3 39  1  0
  8 40  1  0
  9 41  1  0
 12 42  1  0
 13 43  1  0
 15 44  1  0
 18 45  1  0
 18 46  1  0
 19 47  1  0
 19 48  1  0
 20 49  1  0
 20 50  1  0
 22 51  1  0
 22 52  1  0
 22 53  1  0
 23 54  1  0
 23 55  1  0
 23 56  1  0
 26 57  1  0
 28 58  1  0
 29 59  1  0
M  CHG  1  26  -1
M  END
>  <UniqueID>  (83) 
75

>  <SMILES>  (83) 
CCCN1C(=O)c2ccc(-c3ccc(NC(=O)CCCN(C)C)c(C([NH-])=O)c3)cc2C1=O

>  <Energy>  (83) 
103.78572711114977

>  <Genealogy>  (83) 
CCCN1C(=O)c2ccc(-c3ccc(NC(=O)CCCN(C)C)c(C([NH-])=O)c3)cc2C1=O (protonated)
CCCN1C(=O)c2ccc(-c3ccc(NC(=O)CCCN(C)C)c(C([NH-])=O)c3)cc2C1=O (3D coordinates assigned)
CCCN1C(=O)c2ccc(-c3ccc(NC(=O)CCCN(C)C)c(C([NH-])=O)c3)cc2C1=O (nonaromatic ring conformer: 103.78572711114977 kcal/mol)

>  <smiles>  (83) 
CCCN1C(=O)c2ccc(-c3ccc(NC(=O)CCCN(C)C)c(C(N)=O)c3)cc2C1=O

>  <score_type>  (83) 
oracle

>  <origin>  (83) 
adg

>  <m_score__min__energy>  (83) 
-11.82

>  <m_primary>  (83) 
energy

$$$$
83:0
     RDKit          3D

 60 64  0  0  0  0  0  0  0  0999 V2000
   57.2910   24.9420   47.8690 N   0  0  0  0  0  0  0  0  0  0  0  0
   56.9240   23.2840   47.5370 S   0  0  0  0  0  0  0  0  0  0  0  0
   57.8370   22.8090   46.4430 O   0  0  0  0  0  0  0  0  0  0  0  0
   57.1640   22.4760   48.7800 O   0  0  0  0  0  0  0  0  0  0  0  0
   55.2340   23.1060   47.0290 C   0  0  0  0  0  0  0  0  0  0  0  0
   54.4270   22.1580   47.6820 C   0  0  0  0  0  0  0  0  0  0  0  0
   53.0900   21.9880   47.3190 C   0  0  0  0  0  0  0  0  0  0  0  0
   52.5370   22.7640   46.3030 C   0  0  0  0  0  0  0  0  0  0  0  0
   53.3210   23.7080   45.6400 C   0  0  0  0  0  0  0  0  0  0  0  0
   54.6760   23.8810   45.9770 C   0  0  0  0  0  0  0  0  0  0  0  0
   55.4650   24.9350   45.2410 C   0  0  0  0  0  0  0  0  0  0  0  0
   55.4130   26.1890   45.9840 N   0  0  0  0  0  0  0  0  0  0  0  0
   56.2610   27.1610   45.8350 C   0  0  0  0  0  0  0  0  0  0  0  0
   55.8910   28.3310   45.2490 N   0  0  0  0  0  0  0  0  0  0  0  0
   56.7870   29.3400   45.1030 C   0  0  0  0  0  0  0  0  0  0  0  0
   56.4110   30.4520   44.5480 N   0  0  0  0  0  0  0  0  0  0  0  0
   57.2620   31.3020   43.7160 C   0  0  0  0  0  0  0  0  0  0  0  0
   57.7720   32.4760   44.5090 C   0  0  0  0  0  0  0  0  0  0  0  0
   57.2580   32.7560   45.7850 C   0  0  0  0  0  0  0  0  0  0  0  0
   57.7270   33.8590   46.5080 C   0  0  0  0  0  0  0  0  0  0  0  0
   58.7080   34.6890   45.9620 C   0  0  0  0  0  0  0  0  0  0  0  0
   59.2200   34.4210   44.6890 C   0  0  0  0  0  0  0  0  0  0  0  0
   58.7510   33.3230   43.9600 C   0  0  0  0  0  0  0  0  0  0  0  0
   58.0650   29.1710   45.5420 N   0  0  0  0  0  0  0  0  0  0  0  0
   58.4440   28.0060   46.1230 C   0  0  0  0  0  0  0  0  0  0  0  0
   59.6700   27.8630   46.5250 N   0  0  0  0  0  0  0  0  0  0  0  0
   60.3080   28.6830   47.5600 C   0  0  0  0  0  0  0  0  0  0  0  0
   59.2520   29.2030   48.5600 C   0  0  0  0  0  0  0  0  0  0  0  0
   59.5210   30.6560   48.6410 C   0  0  0  0  0  0  0  0  0  0  0  0
   58.8890   31.5780   49.4790 C   0  0  0  0  0  0  0  0  0  0  0  0
   59.2600   32.9290   49.3970 C   0  0  0  0  0  0  0  0  0  0  0  0
   60.2490   33.3370   48.4830 C   0  0  0  0  0  0  0  0  0  0  0  0
   60.8680   32.3930   47.6480 C   0  0  0  0  0  0  0  0  0  0  0  0
   60.4850   31.0530   47.7500 C   0  0  0  0  0  0  0  0  0  0  0  0
   61.0030   29.9230   46.9470 C   0  0  0  0  0  0  0  0  0  0  0  0
   57.5360   27.0040   46.2710 N   0  0  0  0  0  0  0  0  0  0  0  0
   58.1360   25.1870   47.3060 H   0  0  0  0  0  0  0  0  0  0  0  0
   56.5040   25.5120   47.4870 H   0  0  0  0  0  0  0  0  0  0  0  0
   54.8540   21.5433   48.4881 H   0  0  0  0  0  0  0  0  0  0  0  0
   52.4717   21.2396   47.8364 H   0  0  0  0  0  0  0  0  0  0  0  0
   51.4813   22.6322   46.0234 H   0  0  0  0  0  0  0  0  0  0  0  0
   52.8751   24.3239   44.8451 H   0  0  0  0  0  0  0  0  0  0  0  0
   56.5112   24.6091   45.1446 H   0  0  0  0  0  0  0  0  0  0  0  0
   55.0334   25.0838   44.2402 H   0  0  0  0  0  0  0  0  0  0  0  0
   58.1164   30.7127   43.3518 H   0  0  0  0  0  0  0  0  0  0  0  0
   56.6699   31.6762   42.8678 H   0  0  0  0  0  0  0  0  0  0  0  0
   56.4836   32.1060   46.2184 H   0  0  0  0  0  0  0  0  0  0  0  0
   57.3219   34.0723   47.5082 H   0  0  0  0  0  0  0  0  0  0  0  0
   59.0778   35.5533   46.5331 H   0  0  0  0  0  0  0  0  0  0  0  0
   59.9933   35.0749   44.2597 H   0  0  0  0  0  0  0  0  0  0  0  0
   59.1492   33.1217   42.9545 H   0  0  0  0  0  0  0  0  0  0  0  0
   61.0486   28.0433   48.0623 H   0  0  0  0  0  0  0  0  0  0  0  0
   58.2343   29.0139   48.1877 H   0  0  0  0  0  0  0  0  0  0  0  0
   59.3147   28.7055   49.5390 H   0  0  0  0  0  0  0  0  0  0  0  0
   58.1154   31.2513   50.1895 H   0  0  0  0  0  0  0  0  0  0  0  0
   58.7762   33.6711   50.0491 H   0  0  0  0  0  0  0  0  0  0  0  0
   60.5376   34.3968   48.4226 H   0  0  0  0  0  0  0  0  0  0  0  0
   61.6395   32.7023   46.9275 H   0  0  0  0  0  0  0  0  0  0  0  0
   60.7327   30.0394   45.8871 H   0  0  0  0  0  0  0  0  0  0  0  0
   62.1003   29.8512   46.9732 H   0  0  0  0  0  0  0  0  0  0  0  0
  1  2  1  0
  2  3  2  0
  2  4  2  0
  2  5  1  0
  5  6  2  0
  6  7  1  0
  7  8  2  0
  8  9  1  0
  9 10  2  0
 10 11  1  0
 11 12  1  0
 12 13  2  3
 13 14  1  0
 14 15  1  0
 15 16  2  3
 16 17  1  0
 17 18  1  0
 18 19  2  0
 19 20  1  0
 20 21  2  0
 21 22  1  0
 22 23  2  0
 15 24  1  0
 24 25  1  0
 25 26  2  3
 26 27  1  0
 27 28  1  0
 28 29  1  0
 29 30  2  0
 30 31  1  0
 31 32  2  0
 32 33  1  0
 33 34  2  0
 34 35  1  0
 25 36  1  0
 10  5  1  0
 36 13  1  0
 23 18  1  0
 35 27  1  0
 34 29  1  0
  1 37  1  0
  1 38  1  0
  6 39  1  0
  7 40  1  0
  8 41  1  0
  9 42  1  0
 11 43  1  0
 11 44  1  0
 17 45  1  0
 17 46  1  0
 19 47  1  0
 20 48  1  0
 21 49  1  0
 22 50  1  0
 23 51  1  0
 27 52  1  0
 28 53  1  0
 28 54  1  0
 30 55  1  0
 31 56  1  0
 32 57  1  0
 33 58  1  0
 35 59  1  0
 35 60  1  0
M  CHG  3  14  -1  24  -1  36  -1
M  END
>  <UniqueID>  (84) 
76

>  <SMILES>  (84) 
NS(=O)(=O)c1ccccc1CN=c1[n-]c(=NCc2ccccc2)[n-]c(=NC2Cc3ccccc3C2)[n-]1

>  <Energy>  (84) 
73.14455869434805

>  <Genealogy>  (84) 
NS(=O)(=O)c1ccccc1CN=c1[n-]c(=NCc2ccccc2)[n-]c(=NC2Cc3ccccc3C2)[n-]1 (protonated)
NS(=O)(=O)c1ccccc1CN=c1[n-]c(=NCc2ccccc2)[n-]c(=NC2Cc3ccccc3C2)[n-]1 (3D coordinates assigned)
NS(=O)(=O)c1ccccc1CN=c1[n-]c(=NCc2ccccc2)[n-]c(=NC2Cc3ccccc3C2)[n-]1 (nonaromatic ring conformer: 73.14455869434805 kcal/mol)

>  <smiles>  (84) 
NS(=O)(=O)c1ccccc1CN=c1[nH]c(=NCc2ccccc2)[nH]c(=NC2Cc3ccccc3C2)[nH]1

>  <score_type>  (84) 
oracle

>  <origin>  (84) 
adg

>  <m_score__min__energy>  (84) 
-15.550000000000001

>  <m_primary>  (84) 
energy

$$$$
84:0
     RDKit          3D

 45 48  0  0  0  0  0  0  0  0999 V2000
   55.4366   29.5877   43.8283 H   0  0  0  0  0  0  0  0  0  0  0  0
   56.2520   30.0840   44.3750 C   0  0  0  0  0  0  0  0  0  0  0  0
   56.2390   31.4300   44.5160 N   0  0  0  0  0  0  0  0  0  0  0  0
   57.2190   32.0920   45.1780 C   0  0  0  0  0  0  0  0  0  0  0  0
   57.1410   33.4840   45.3130 C   0  0  0  0  0  0  0  0  0  0  0  0
   56.2857   34.0288   44.8868 H   0  0  0  0  0  0  0  0  0  0  0  0
   58.1440   34.1820   45.9860 C   0  0  0  0  0  0  0  0  0  0  0  0
   58.0761   35.2747   46.0926 H   0  0  0  0  0  0  0  0  0  0  0  0
   59.2330   33.4960   46.5240 C   0  0  0  0  0  0  0  0  0  0  0  0
   60.0220   34.0502   47.0536 H   0  0  0  0  0  0  0  0  0  0  0  0
   59.3260   32.1070   46.3930 C   0  0  0  0  0  0  0  0  0  0  0  0
   60.1906   31.5750   46.8168 H   0  0  0  0  0  0  0  0  0  0  0  0
   58.3170   31.3820   45.7200 C   0  0  0  0  0  0  0  0  0  0  0  0
   58.3910   29.9780   45.5430 C   0  0  0  0  0  0  0  0  0  0  0  0
   59.4830   29.3670   45.9360 N   0  0  0  0  0  0  0  0  0  0  0  0
   59.7910   28.7430   47.1910 C   0  0  0  0  0  0  0  0  0  0  0  0
   59.8720   29.5400   48.3390 C   0  0  0  0  0  0  0  0  0  0  0  0
   59.6834   30.6214   48.2683 H   0  0  0  0  0  0  0  0  0  0  0  0
   60.1910   28.9700   49.5740 C   0  0  0  0  0  0  0  0  0  0  0  0
   60.2294   29.5978   50.4764 H   0  0  0  0  0  0  0  0  0  0  0  0
   60.4610   27.6030   49.6620 C   0  0  0  0  0  0  0  0  0  0  0  0
   60.6955   27.1516   50.6373 H   0  0  0  0  0  0  0  0  0  0  0  0
   60.4340   26.8070   48.5140 C   0  0  0  0  0  0  0  0  0  0  0  0
   60.6588   25.7327   48.5874 H   0  0  0  0  0  0  0  0  0  0  0  0
   60.1200   27.3740   47.2620 C   0  0  0  0  0  0  0  0  0  0  0  0
   60.1290   26.6150   46.0800 O   0  0  0  0  0  0  0  0  0  0  0  0
   59.7460   25.2470   45.9950 C   0  0  0  0  0  0  0  0  0  0  0  0
   59.6306   24.8349   47.0083 H   0  0  0  0  0  0  0  0  0  0  0  0
   58.7908   25.1665   45.4555 H   0  0  0  0  0  0  0  0  0  0  0  0
   60.5206   24.6822   45.4555 H   0  0  0  0  0  0  0  0  0  0  0  0
   57.2920   29.3130   44.9170 C   0  0  0  0  0  0  0  0  0  0  0  0
   57.0940   27.8520   44.9280 C   0  0  0  0  0  0  0  0  0  0  0  0
   57.8840   27.1150   44.2770 O   0  0  0  0  0  0  0  0  0  0  0  0
   56.0040   27.2880   45.6700 N   0  0  0  0  0  0  0  0  0  0  0  0
   55.8880   25.9410   46.1530 C   0  0  0  0  0  0  0  0  0  0  0  0
   56.7660   25.4070   47.1150 C   0  0  0  0  0  0  0  0  0  0  0  0
   57.5740   26.0302   47.5259 H   0  0  0  0  0  0  0  0  0  0  0  0
   56.6140   24.0860   47.5500 C   0  0  0  0  0  0  0  0  0  0  0  0
   57.2952   23.6764   48.3104 H   0  0  0  0  0  0  0  0  0  0  0  0
   55.5980   23.2860   47.0200 C   0  0  0  0  0  0  0  0  0  0  0  0
   55.4726   22.2512   47.3714 H   0  0  0  0  0  0  0  0  0  0  0  0
   54.7420   23.8010   46.0440 C   0  0  0  0  0  0  0  0  0  0  0  0
   53.9483   23.1684   45.6198 H   0  0  0  0  0  0  0  0  0  0  0  0
   54.8930   25.1190   45.6060 C   0  0  0  0  0  0  0  0  0  0  0  0
   54.2260   25.5147   44.8259 H   0  0  0  0  0  0  0  0  0  0  0  0
  1  2  1  0
  2  3  1  0
  3  4  1  0
  4  5  2  0
  5  6  1  0
  5  7  1  0
  7  8  1  0
  7  9  2  0
  9 10  1  0
  9 11  1  0
 11 12  1  0
 11 13  2  0
 13 14  1  0
 14 15  2  0
 15 16  1  0
 16 17  2  0
 17 18  1  0
 17 19  1  0
 19 20  1  0
 19 21  2  0
 21 22  1  0
 21 23  1  0
 23 24  1  0
 23 25  2  0
 25 26  1  0
 26 27  1  0
 27 28  1  0
 27 29  1  0
 27 30  1  0
 14 31  1  0
 31 32  1  0
 32 33  2  0
 32 34  1  0
 34 35  1  0
 35 36  2  0
 36 37  1  0
 36 38  1  0
 38 39  1  0
 38 40  2  0
 40 41  1  0
 40 42  1  0
 42 43  1  0
 42 44  2  0
 44 45  1  0
 31  2  2  0
 44 35  1  0
 13  4  1  0
 25 16  1  0
M  CHG  2   3  -1  34  -1
M  END
>  <UniqueID>  (85) 
77

>  <SMILES>  (85) 
COc1ccccc1/N=c1\c(C(=O)[N-]c2ccccc2)c[n-]c2ccccc12

>  <Energy>  (85) 
77.4209758567347

>  <Genealogy>  (85) 
COc1ccccc1N=c1c(C(=O)[N-]c2ccccc2)c[n-]c2ccccc12 (protonated)
COc1ccccc1/N=c1\c(C(=O)[N-]c2ccccc2)c[n-]c2ccccc12 (cis-trans isomerization)
COc1ccccc1/N=c1\c(C(=O)[N-]c2ccccc2)c[n-]c2ccccc12 (3D coordinates assigned)
COc1ccccc1/N=c1\c(C(=O)[N-]c2ccccc2)c[n-]c2ccccc12 (optimized conformer: 77.4209758567347 kcal/mol)

>  <smiles>  (85) 
COc1ccccc1N=c1c(C(=O)Nc2ccccc2)c[nH]c2ccccc12

>  <score_type>  (85) 
oracle

>  <origin>  (85) 
adg

>  <m_score__min__energy>  (85) 
-10.56

>  <m_primary>  (85) 
energy

$$$$
85:0
     RDKit          3D

 33 34  0  0  0  0  0  0  0  0999 V2000
   59.9680   36.5640   45.9670 N   0  0  0  0  0  0  0  0  0  0  0  0
   59.6620   35.4480   45.9550 C   0  0  0  0  0  0  0  0  0  0  0  0
   59.2800   34.0570   45.9410 C   0  0  0  0  0  0  0  0  0  0  0  0
   60.2040   33.1000   46.3760 C   0  0  0  0  0  0  0  0  0  0  0  0
   59.8720   31.7440   46.3780 C   0  0  0  0  0  0  0  0  0  0  0  0
   58.6070   31.3190   45.9370 C   0  0  0  0  0  0  0  0  0  0  0  0
   58.2300   29.8850   45.9360 C   0  0  0  0  0  0  0  0  0  0  0  0
   57.0520   29.5640   45.6170 O   0  0  0  0  0  0  0  0  0  0  0  0
   59.1790   28.8630   46.2980 N   0  0  0  0  0  0  0  0  0  0  0  0
   58.9070   27.4530   46.2160 C   0  0  0  0  0  0  0  0  0  0  0  0
   59.9760   26.5520   46.1100 C   0  0  0  0  0  0  0  0  0  0  0  0
   59.7380   25.1800   46.0020 C   0  0  0  0  0  0  0  0  0  0  0  0
   58.4280   24.6960   45.9850 C   0  0  0  0  0  0  0  0  0  0  0  0
   57.3480   25.5850   46.0710 C   0  0  0  0  0  0  0  0  0  0  0  0
   55.6950   24.9810   46.0100 S   0  0  0  0  0  0  0  0  0  0  0  0
   54.5950   26.3130   45.9820 N   0  0  0  0  0  0  0  0  0  0  0  0
   55.4220   24.1270   47.2170 O   0  0  0  0  0  0  0  0  0  0  0  0
   55.5000   24.1460   44.7760 O   0  0  0  0  0  0  0  0  0  0  0  0
   57.5890   26.9620   46.1730 C   0  0  0  0  0  0  0  0  0  0  0  0
   57.6750   32.2840   45.5160 C   0  0  0  0  0  0  0  0  0  0  0  0
   58.0010   33.6490   45.5090 C   0  0  0  0  0  0  0  0  0  0  0  0
   57.0240   34.6010   45.0620 N   0  0  0  0  0  0  0  0  0  0  0  0
   61.1994   33.4187   46.7189 H   0  0  0  0  0  0  0  0  0  0  0  0
   60.6059   31.0027   46.7273 H   0  0  0  0  0  0  0  0  0  0  0  0
   60.1040   29.1420   46.6890 H   0  0  0  0  0  0  0  0  0  0  0  0
   61.0096   26.9284   46.1119 H   0  0  0  0  0  0  0  0  0  0  0  0
   60.5833   24.4798   45.9302 H   0  0  0  0  0  0  0  0  0  0  0  0
   58.2435   23.6146   45.9039 H   0  0  0  0  0  0  0  0  0  0  0  0
   55.1690   27.1840   46.0290 H   0  0  0  0  0  0  0  0  0  0  0  0
   56.7427   27.6631   46.2197 H   0  0  0  0  0  0  0  0  0  0  0  0
   56.6752   31.9642   45.1871 H   0  0  0  0  0  0  0  0  0  0  0  0
   57.0330   34.9860   44.0920 H   0  0  0  0  0  0  0  0  0  0  0  0
   56.2740   34.9340   45.7070 H   0  0  0  0  0  0  0  0  0  0  0  0
  1  2  3  0
  2  3  1  0
  3  4  2  0
  4  5  1  0
  5  6  2  0
  6  7  1  0
  7  8  2  0
  7  9  1  0
  9 10  1  0
 10 11  2  0
 11 12  1  0
 12 13  2  0
 13 14  1  0
 14 15  1  0
 15 16  1  0
 15 17  2  0
 15 18  2  0
 14 19  2  0
  6 20  1  0
 20 21  2  0
 21 22  1  0
 21  3  1  0
 19 10  1  0
  4 23  1  0
  5 24  1  0
  9 25  1  0
 11 26  1  0
 12 27  1  0
 13 28  1  0
 16 29  1  0
 19 30  1  0
 20 31  1  0
 22 32  1  0
 22 33  1  0
M  CHG  1  16  -1
M  END
>  <UniqueID>  (86) 
78

>  <SMILES>  (86) 
N#Cc1ccc(C(=O)Nc2cccc(S([NH-])(=O)=O)c2)cc1N

>  <Energy>  (86) 
40.11553444568793

>  <Genealogy>  (86) 
N#Cc1ccc(C(=O)Nc2cccc(S([NH-])(=O)=O)c2)cc1N (protonated)
N#Cc1ccc(C(=O)Nc2cccc(S([NH-])(=O)=O)c2)cc1N (3D coordinates assigned)
N#Cc1ccc(C(=O)Nc2cccc(S([NH-])(=O)=O)c2)cc1N (optimized conformer: 40.11553444568793 kcal/mol)

>  <smiles>  (86) 
N#Cc1ccc(C(=O)Nc2cccc(S(N)(=O)=O)c2)cc1N

>  <score_type>  (86) 
oracle

>  <origin>  (86) 
adg

>  <m_score__min__energy>  (86) 
-10.130000000000001

>  <m_primary>  (86) 
energy

$$$$
86:0
     RDKit          3D

 46 48  0  0  1  0  0  0  0  0999 V2000
   57.9760   32.0310   51.6250 C   0  0  0  0  0  0  0  0  0  0  0  0
   57.8960   32.3700   50.1950 N   0  0  0  0  0  0  0  0  0  0  0  0
   59.0710   32.5280   49.4300 C   0  0  0  0  0  0  0  0  0  0  0  0
   60.1670   32.3560   50.0700 O   0  0  0  0  0  0  0  0  0  0  0  0
   59.1280   32.8590   48.0250 C   0  0  0  0  0  0  0  0  0  0  0  0
   58.0690   32.4470   47.2120 C   0  0  0  0  0  0  0  0  0  0  0  0
   58.0520   32.7240   45.8630 C   0  0  0  0  0  0  0  0  0  0  0  0
   56.9690   32.2980   45.0490 N   0  0  0  0  0  0  0  0  0  0  0  0
   56.9760   31.1380   44.4930 C   0  0  0  0  0  0  0  0  0  0  0  0
   57.3360   30.0310   45.2280 C   0  0  0  0  0  0  0  0  0  0  0  0
   57.3630   28.7430   44.6720 C   0  0  0  0  0  0  0  0  0  0  0  0
   57.7180   27.6600   45.4780 N   0  0  0  0  0  0  0  0  0  0  0  0
   57.4260   26.2980   45.2710 C   0  0  0  0  0  0  0  0  0  0  0  0
   57.7120   25.7270   44.0270 C   0  0  0  0  0  0  0  0  0  0  0  0
   57.4380   24.4150   43.7350 C   0  0  0  0  0  0  0  0  0  0  0  0
   56.8600   23.5960   44.6760 C   0  0  0  0  0  0  0  0  0  0  0  0
   56.4770   21.9190   44.3950 S   0  0  0  0  0  0  0  0  0  0  0  0
   57.7860   20.9300   44.9100 N   0  0  0  0  0  0  0  0  0  0  0  0
   56.2440   21.7320   42.9240 O   0  0  0  0  0  0  0  0  0  0  0  0
   55.2530   21.5060   45.1840 O   0  0  0  0  0  0  0  0  0  0  0  0
   56.5640   24.1240   45.9110 C   0  0  0  0  0  0  0  0  0  0  0  0
   56.8480   25.4610   46.1950 C   0  0  0  0  0  0  0  0  0  0  0  0
   57.0130   28.6770   43.3780 N   0  0  0  0  0  0  0  0  0  0  0  0
   56.6590   29.7470   42.6430 C   0  0  0  0  0  0  0  0  0  0  0  0
   56.6350   30.9980   43.1890 N   0  0  0  0  0  0  0  0  0  0  0  0
   59.0680   33.4170   45.2470 C   0  0  0  0  0  0  0  0  0  0  0  0
   60.1160   33.8300   46.0300 C   0  0  0  0  0  0  0  0  0  0  0  0
   60.1310   33.5470   47.3980 C   0  0  0  0  0  0  0  0  0  0  0  0
   61.1920   33.9860   48.0870 F   0  0  0  0  0  0  0  0  0  0  0  0
   57.7645   32.9272   52.2267 H   0  0  0  0  0  0  0  0  0  0  0  0
   57.2375   31.2499   51.8585 H   0  0  0  0  0  0  0  0  0  0  0  0
   58.9858   31.6625   51.8585 H   0  0  0  0  0  0  0  0  0  0  0  0
   56.9710   32.4840   49.7900 H   0  0  0  0  0  0  0  0  0  0  0  0
   57.2319   31.8902   47.6584 H   0  0  0  0  0  0  0  0  0  0  0  0
   57.6113   30.1604   46.2851 H   0  0  0  0  0  0  0  0  0  0  0  0
   58.2780   27.8730   46.3630 H   0  0  0  0  0  0  0  0  0  0  0  0
   58.1752   26.3550   43.2517 H   0  0  0  0  0  0  0  0  0  0  0  0
   57.6827   24.0149   42.7400 H   0  0  0  0  0  0  0  0  0  0  0  0
   57.6400   19.9760   44.5330 H   0  0  0  0  0  0  0  0  0  0  0  0
   58.6640   21.3420   44.5540 H   0  0  0  0  0  0  0  0  0  0  0  0
   56.1004   23.4886   46.6800 H   0  0  0  0  0  0  0  0  0  0  0  0
   56.6010   25.8574   47.1909 H   0  0  0  0  0  0  0  0  0  0  0  0
   56.9920   27.7580   42.8890 H   0  0  0  0  0  0  0  0  0  0  0  0
   56.3848   29.6117   41.5863 H   0  0  0  0  0  0  0  0  0  0  0  0
   59.0412   33.6317   44.1685 H   0  0  0  0  0  0  0  0  0  0  0  0
   60.9496   34.3874   45.5779 H   0  0  0  0  0  0  0  0  0  0  0  0
  1  2  1  0
  2  3  1  0
  3  4  2  0
  3  5  1  0
  5  6  2  0
  6  7  1  0
  7  8  1  0
  8  9  2  0
  9 10  1  0
 10 11  2  0
 11 12  1  0
 12 13  1  0
 13 14  2  0
 14 15  1  0
 15 16  2  0
 16 17  1  0
 17 18  1  0
 17 19  2  0
 17 20  2  0
 16 21  1  0
 21 22  2  0
 11 23  1  0
 23 24  1  0
 24 25  2  0
  7 26  2  0
 26 27  1  0
 27 28  2  0
 28 29  1  0
 28  5  1  0
 25  9  1  0
 22 13  1  0
  1 30  1  0
  1 31  1  0
  1 32  1  0
  2 33  1  0
  6 34  1  0
 10 35  1  0
 12 36  1  0
 14 37  1  0
 15 38  1  0
 18 39  1  0
 18 40  1  0
 21 41  1  0
 22 42  1  0
 23 43  1  0
 24 44  1  0
 26 45  1  0
 27 46  1  0
M  END
>  <smiles>  (87) 
CNC(=O)c1cc(N=c2cc(Nc3ccc(S(N)(=O)=O)cc3)[nH]cn2)ccc1F

>  <score_type>  (87) 
oracle

>  <origin>  (87) 
adg

>  <m_score__min__energy>  (87) 
-9.8699999999999992

>  <m_primary>  (87) 
energy

$$$$
87:0
     RDKit          3D

 83 86  0  0  0  0  0  0  0  0999 V2000
   56.7900   27.9420   45.5360 C   0  0  0  0  0  0  0  0  0  0  0  0
   56.4450   29.3260   45.2470 N   0  0  0  0  0  0  0  0  0  0  0  0
   57.4210   30.3700   45.1810 C   0  0  0  0  0  0  0  0  0  0  0  0
   57.0580   31.5760   45.2150 O   0  0  0  0  0  0  0  0  0  0  0  0
   58.8770   30.0440   45.0300 C   0  0  0  0  0  0  0  0  0  0  0  0
   59.6570   30.4220   46.2270 N   0  0  0  0  0  0  0  0  0  0  0  0
   59.9860   31.8520   46.4020 C   0  0  0  0  0  0  0  0  0  0  0  0
   61.4170   32.0390   46.9320 C   0  0  0  0  0  0  0  0  0  0  0  0
   61.4430   33.0310   48.0220 N   0  0  0  0  0  0  0  0  0  0  0  0
   60.2780   33.9170   48.1970 C   0  0  0  0  0  0  0  0  0  0  0  0
   59.4650   33.5210   49.4070 C   0  0  0  0  0  0  0  0  0  0  0  0
   59.7040   34.1180   50.6550 C   0  0  0  0  0  0  0  0  0  0  0  0
   58.9990   33.6970   51.7870 C   0  0  0  0  0  0  0  0  0  0  0  0
   58.0240   32.6960   51.6770 C   0  0  0  0  0  0  0  0  0  0  0  0
   57.3300   32.2560   52.8000 O   0  0  0  0  0  0  0  0  0  0  0  0
   57.7530   32.1290   50.4290 C   0  0  0  0  0  0  0  0  0  0  0  0
   58.4720   32.5330   49.3010 C   0  0  0  0  0  0  0  0  0  0  0  0
   62.6200   33.1890   48.8520 C   0  0  0  0  0  0  0  0  0  0  0  0
   62.6360   34.1260   49.9050 C   0  0  0  0  0  0  0  0  0  0  0  0
   63.7620   34.2660   50.7190 C   0  0  0  0  0  0  0  0  0  0  0  0
   64.8910   33.4640   50.5070 C   0  0  0  0  0  0  0  0  0  0  0  0
   66.3120   33.6210   51.5370 S   0  0  0  0  0  0  0  0  0  0  0  0
   66.6900   35.0680   51.6830 O   0  0  0  0  0  0  0  0  0  0  0  0
   66.0040   33.0620   52.8990 O   0  0  0  0  0  0  0  0  0  0  0  0
   67.6840   32.7380   50.8200 C   0  0  0  0  0  0  0  0  0  0  0  0
   68.6660   32.5580   51.7750 F   0  0  0  0  0  0  0  0  0  0  0  0
   67.2590   31.5040   50.3660 F   0  0  0  0  0  0  0  0  0  0  0  0
   68.2010   33.4630   49.7620 F   0  0  0  0  0  0  0  0  0  0  0  0
   64.8830   32.5250   49.4700 C   0  0  0  0  0  0  0  0  0  0  0  0
   63.7610   32.3910   48.6470 C   0  0  0  0  0  0  0  0  0  0  0  0
   59.9920   29.4310   47.2510 C   0  0  0  0  0  0  0  0  0  0  0  0
   60.0410   28.0530   46.9520 C   0  0  0  0  0  0  0  0  0  0  0  0
   60.3170   27.1140   47.9430 C   0  0  0  0  0  0  0  0  0  0  0  0
   60.5710   27.5190   49.2500 C   0  0  0  0  0  0  0  0  0  0  0  0
   60.5980   28.8850   49.5850 C   0  0  0  0  0  0  0  0  0  0  0  0
   60.8390   29.3250   51.0380 C   0  0  1  0  0  0  0  0  0  0  0  0
   61.6360   28.3680   51.6960 O   0  0  0  0  0  0  0  0  0  0  0  0
   61.5540   30.7210   51.1100 C   0  0  0  0  0  0  0  0  0  0  0  0
   62.3500   31.0770   52.4000 C   0  0  0  0  0  0  0  0  0  0  0  0
   62.0760   32.4950   52.9220 C   0  0  0  0  0  0  0  0  0  0  0  0
   63.8570   30.8150   52.2850 C   0  0  0  0  0  0  0  0  0  0  0  0
   59.4840   29.3710   51.7140 C   0  0  0  0  0  0  0  0  0  0  0  0
   58.2440   29.3400   51.1090 C   0  0  0  0  0  0  0  0  0  0  0  0
   57.2880   29.4930   52.0450 N   0  0  0  0  0  0  0  0  0  0  0  0
   57.8740   29.6340   53.2250 N   0  0  0  0  0  0  0  0  0  0  0  0
   59.2080   29.5730   53.0550 C   0  0  0  0  0  0  0  0  0  0  0  0
   60.2810   29.8240   48.5790 C   0  0  0  0  0  0  0  0  0  0  0  0
   56.8271   27.7931   46.6252 H   0  0  0  0  0  0  0  0  0  0  0  0
   56.0304   27.2761   45.1006 H   0  0  0  0  0  0  0  0  0  0  0  0
   57.7733   27.7106   45.1006 H   0  0  0  0  0  0  0  0  0  0  0  0
   58.9831   28.9617   44.8644 H   0  0  0  0  0  0  0  0  0  0  0  0
   59.2664   30.6178   44.1761 H   0  0  0  0  0  0  0  0  0  0  0  0
   59.8947   32.3614   45.4313 H   0  0  0  0  0  0  0  0  0  0  0  0
   59.2870   32.2802   47.1356 H   0  0  0  0  0  0  0  0  0  0  0  0
   61.7905   31.0762   47.3109 H   0  0  0  0  0  0  0  0  0  0  0  0
   62.0543   32.3989   46.1108 H   0  0  0  0  0  0  0  0  0  0  0  0
   60.6302   34.9512   48.3246 H   0  0  0  0  0  0  0  0  0  0  0  0
   59.6391   33.8310   47.3057 H   0  0  0  0  0  0  0  0  0  0  0  0
   60.4501   34.9215   50.7429 H   0  0  0  0  0  0  0  0  0  0  0  0
   59.2101   34.1524   52.7658 H   0  0  0  0  0  0  0  0  0  0  0  0
   57.3470   31.2860   53.0850 H   0  0  0  0  0  0  0  0  0  0  0  0
   56.9706   31.3616   50.3341 H   0  0  0  0  0  0  0  0  0  0  0  0
   58.2591   32.0746   48.3240 H   0  0  0  0  0  0  0  0  0  0  0  0
   61.7515   34.7540   50.0876 H   0  0  0  0  0  0  0  0  0  0  0  0
   63.7625   35.0091   51.5301 H   0  0  0  0  0  0  0  0  0  0  0  0
   65.7643   31.8887   49.3013 H   0  0  0  0  0  0  0  0  0  0  0  0
   63.7700   31.6540   47.8305 H   0  0  0  0  0  0  0  0  0  0  0  0
   59.8586   27.7153   45.9211 H   0  0  0  0  0  0  0  0  0  0  0  0
   60.3344   26.0435   47.6905 H   0  0  0  0  0  0  0  0  0  0  0  0
   60.7524   26.7636   50.0287 H   0  0  0  0  0  0  0  0  0  0  0  0
   61.1230   28.0320   52.4790 H   0  0  0  0  0  0  0  0  0  0  0  0
   62.2601   30.7691   50.2679 H   0  0  0  0  0  0  0  0  0  0  0  0
   60.7300   31.4494   51.0898 H   0  0  0  0  0  0  0  0  0  0  0  0
   61.9588   30.3770   53.1529 H   0  0  0  0  0  0  0  0  0  0  0  0
   62.0775   32.4874   54.0220 H   0  0  0  0  0  0  0  0  0  0  0  0
   62.8590   33.1770   52.5590 H   0  0  0  0  0  0  0  0  0  0  0  0
   61.0953   32.8362   52.5590 H   0  0  0  0  0  0  0  0  0  0  0  0
   64.2938   30.7391   53.2917 H   0  0  0  0  0  0  0  0  0  0  0  0
   64.0251   29.8742   51.7404 H   0  0  0  0  0  0  0  0  0  0  0  0
   64.3328   31.6439   51.7404 H   0  0  0  0  0  0  0  0  0  0  0  0
   58.0647   29.2106   50.0314 H   0  0  0  0  0  0  0  0  0  0  0  0
   59.9583   29.6684   53.8538 H   0  0  0  0  0  0  0  0  0  0  0  0
   60.2581   30.8934   48.8357 H   0  0  0  0  0  0  0  0  0  0  0  0
  1  2  1  0
  2  3  1  0
  3  4  2  0
  3  5  1  0
  5  6  1  0
  6  7  1  0
  7  8  1  0
  8  9  1  0
  9 10  1  0
 10 11  1  0
 11 12  2  0
 12 13  1  0
 13 14  2  0
 14 15  1  0
 14 16  1  0
 16 17  2  0
  9 18  1  0
 18 19  2  0
 19 20  1  0
 20 21  2  0
 21 22  1  0
 22 23  2  0
 22 24  2  0
 22 25  1  0
 25 26  1  0
 25 27  1  0
 25 28  1  0
 21 29  1  0
 29 30  2  0
  6 31  1  0
 31 32  2  0
 32 33  1  0
 33 34  2  0
 34 35  1  0
 35 36  1  0
 36 37  1  1
 36 38  1  0
 38 39  1  0
 39 40  1  0
 39 41  1  0
 36 42  1  0
 42 43  1  0
 43 44  2  0
 44 45  1  0
 45 46  1  0
 35 47  2  0
 17 11  1  0
 30 18  1  0
 47 31  1  0
 46 42  2  0
  1 48  1  0
  1 49  1  0
  1 50  1  0
  5 51  1  0
  5 52  1  0
  7 53  1  0
  7 54  1  0
  8 55  1  0
  8 56  1  0
 10 57  1  0
 10 58  1  0
 12 59  1  0
 13 60  1  0
 15 61  1  0
 16 62  1  0
 17 63  1  0
 19 64  1  0
 20 65  1  0
 29 66  1  0
 30 67  1  0
 32 68  1  0
 33 69  1  0
 34 70  1  0
 37 71  1  0
 38 72  1  0
 38 73  1  0
 39 74  1  0
 40 75  1  0
 40 76  1  0
 40 77  1  0
 41 78  1  0
 41 79  1  0
 41 80  1  0
 43 81  1  0
 46 82  1  0
 47 83  1  0
M  CHG  2   2  -1  45  -1
M  END
>  <UniqueID>  (88) 
79

>  <SMILES>  (88) 
C[N-]C(=O)CN(CCN(Cc1ccc(O)cc1)c1ccc(S(=O)(=O)C(F)(F)F)cc1)c1cccc([C@@](O)(CC(C)C)c2cn[n-]c2)c1

>  <Energy>  (88) 
115.3388019808616

>  <Genealogy>  (88) 
C[N-]C(=O)CN(CCN(Cc1ccc(O)cc1)c1ccc(S(=O)(=O)C(F)(F)F)cc1)c1cccc(C(O)(CC(C)C)c2cn[n-]c2)c1 (protonated)
C[N-]C(=O)CN(CCN(Cc1ccc(O)cc1)c1ccc(S(=O)(=O)C(F)(F)F)cc1)c1cccc([C@@](O)(CC(C)C)c2cn[n-]c2)c1 (chirality)
C[N-]C(=O)CN(CCN(Cc1ccc(O)cc1)c1ccc(S(=O)(=O)C(F)(F)F)cc1)c1cccc([C@@](O)(CC(C)C)c2cn[n-]c2)c1 (3D coordinates assigned)
C[N-]C(=O)CN(CCN(Cc1ccc(O)cc1)c1ccc(S(=O)(=O)C(F)(F)F)cc1)c1cccc([C@@](O)(CC(C)C)c2cn[n-]c2)c1 (optimized conformer: 115.3388019808616 kcal/mol)

>  <smiles>  (88) 
CNC(=O)CN(CCN(Cc1ccc(O)cc1)c1ccc(S(=O)(=O)C(F)(F)F)cc1)c1cccc(C(O)(CC(C)C)c2cn[nH]c2)c1

>  <score_type>  (88) 
oracle

>  <origin>  (88) 
adg

>  <m_score__min__energy>  (88) 
-13.109999999999999

>  <m_primary>  (88) 
energy

$$$$
88:0
     RDKit          3D

 58 60  0  0  0  0  0  0  0  0999 V2000
   61.5200   30.1880   50.4200 C   0  0  0  0  0  0  0  0  0  0  0  0
   61.1110   30.5610   49.1080 O   0  0  0  0  0  0  0  0  0  0  0  0
   60.5640   29.6780   48.1660 C   0  0  0  0  0  0  0  0  0  0  0  0
   59.8460   28.5710   48.6330 C   0  0  0  0  0  0  0  0  0  0  0  0
   59.2790   27.6610   47.7350 C   0  0  0  0  0  0  0  0  0  0  0  0
   59.4180   27.8530   46.3520 C   0  0  0  0  0  0  0  0  0  0  0  0
   58.8500   26.8490   45.3810 C   0  0  0  0  0  0  0  0  0  0  0  0
   57.3650   26.6070   45.6530 C   0  0  0  0  0  0  0  0  0  0  0  0
   56.6860   27.8780   45.8980 N   0  0  0  0  0  0  0  0  0  0  0  0
   56.3320   28.8170   44.8760 C   0  0  0  0  0  0  0  0  0  0  0  0
   55.1530   29.2550   44.8300 O   0  0  0  0  0  0  0  0  0  0  0  0
   57.3150   29.2400   43.8280 C   0  0  0  0  0  0  0  0  0  0  0  0
   57.9570   30.4330   44.2590 O   0  0  0  0  0  0  0  0  0  0  0  0
   57.2610   31.5640   44.6960 C   0  0  0  0  0  0  0  0  0  0  0  0
   56.0010   31.5980   44.6210 O   0  0  0  0  0  0  0  0  0  0  0  0
   58.0090   32.7080   45.2600 C   0  0  0  0  0  0  0  0  0  0  0  0
   58.2140   33.8670   44.4900 C   0  0  0  0  0  0  0  0  0  0  0  0
   58.9360   34.9420   45.0110 C   0  0  0  0  0  0  0  0  0  0  0  0
   59.4610   34.8760   46.3030 C   0  0  0  0  0  0  0  0  0  0  0  0
   59.2590   33.7310   47.0850 C   0  0  0  0  0  0  0  0  0  0  0  0
   59.9450   33.6240   48.7050 S   0  0  0  0  0  0  0  0  0  0  0  0
   59.1370   32.6440   49.5100 O   0  0  0  0  0  0  0  0  0  0  0  0
   59.8770   34.9670   49.3790 O   0  0  0  0  0  0  0  0  0  0  0  0
   61.6020   33.0830   48.6070 N   0  0  0  0  0  0  0  0  0  0  0  0
   62.0870   33.1710   47.2150 C   0  0  0  0  0  0  0  0  0  0  0  0
   63.6230   33.0440   47.1460 C   0  0  0  0  0  0  0  0  0  0  0  0
   64.1440   32.5180   48.3490 O   0  0  0  0  0  0  0  0  0  0  0  0
   63.9260   33.4360   49.4060 C   0  0  0  0  0  0  0  0  0  0  0  0
   62.4500   33.8800   49.5100 C   0  0  0  0  0  0  0  0  0  0  0  0
   58.5390   32.6490   46.5610 C   0  0  0  0  0  0  0  0  0  0  0  0
   60.1490   28.9550   45.8810 C   0  0  0  0  0  0  0  0  0  0  0  0
   60.7140   29.8650   46.7790 C   0  0  0  0  0  0  0  0  0  0  0  0
   60.9193   30.7358   51.1610 H   0  0  0  0  0  0  0  0  0  0  0  0
   61.3731   29.1064   50.5563 H   0  0  0  0  0  0  0  0  0  0  0  0
   62.5835   30.4336   50.5563 H   0  0  0  0  0  0  0  0  0  0  0  0
   59.7267   28.4154   49.7154 H   0  0  0  0  0  0  0  0  0  0  0  0
   58.7220   26.7916   48.1143 H   0  0  0  0  0  0  0  0  0  0  0  0
   58.9710   27.2305   44.3564 H   0  0  0  0  0  0  0  0  0  0  0  0
   59.3893   25.8980   45.5029 H   0  0  0  0  0  0  0  0  0  0  0  0
   56.9109   26.1140   44.7808 H   0  0  0  0  0  0  0  0  0  0  0  0
   57.2612   25.9661   46.5410 H   0  0  0  0  0  0  0  0  0  0  0  0
   58.0646   28.4482   43.6827 H   0  0  0  0  0  0  0  0  0  0  0  0
   56.7937   29.4183   42.8759 H   0  0  0  0  0  0  0  0  0  0  0  0
   57.8030   33.9266   43.4714 H   0  0  0  0  0  0  0  0  0  0  0  0
   59.0919   35.8443   44.4015 H   0  0  0  0  0  0  0  0  0  0  0  0
   60.0337   35.7236   46.7074 H   0  0  0  0  0  0  0  0  0  0  0  0
   61.6220   32.0810   48.9160 H   0  0  0  0  0  0  0  0  0  0  0  0
   61.6338   32.3600   46.6260 H   0  0  0  0  0  0  0  0  0  0  0  0
   61.8019   34.1532   46.8101 H   0  0  0  0  0  0  0  0  0  0  0  0
   63.8913   32.3747   46.3153 H   0  0  0  0  0  0  0  0  0  0  0  0
   64.0498   34.0455   46.9886 H   0  0  0  0  0  0  0  0  0  0  0  0
   64.2183   32.9591   50.3532 H   0  0  0  0  0  0  0  0  0  0  0  0
   64.5304   34.3317   49.2003 H   0  0  0  0  0  0  0  0  0  0  0  0
   62.1038   33.7431   50.5451 H   0  0  0  0  0  0  0  0  0  0  0  0
   62.3778   34.9387   49.2204 H   0  0  0  0  0  0  0  0  0  0  0  0
   58.3874   31.7469   47.1719 H   0  0  0  0  0  0  0  0  0  0  0  0
   60.2779   29.1033   44.7987 H   0  0  0  0  0  0  0  0  0  0  0  0
   61.2778   30.7303   46.4004 H   0  0  0  0  0  0  0  0  0  0  0  0
  1  2  1  0
  2  3  1  0
  3  4  2  0
  4  5  1  0
  5  6  2  0
  6  7  1  0
  7  8  1  0
  8  9  1  0
  9 10  1  0
 10 11  2  0
 10 12  1  0
 12 13  1  0
 13 14  1  0
 14 15  2  0
 14 16  1  0
 16 17  2  0
 17 18  1  0
 18 19  2  0
 19 20  1  0
 20 21  1  0
 21 22  2  0
 21 23  2  0
 21 24  1  0
 24 25  1  0
 25 26  1  0
 26 27  1  0
 27 28  1  0
 28 29  1  0
 20 30  2  0
  6 31  1  0
 31 32  2  0
 32  3  1  0
 30 16  1  0
 29 24  1  0
  1 33  1  0
  1 34  1  0
  1 35  1  0
  4 36  1  0
  5 37  1  0
  7 38  1  0
  7 39  1  0
  8 40  1  0
  8 41  1  0
 12 42  1  0
 12 43  1  0
 17 44  1  0
 18 45  1  0
 19 46  1  0
 24 47  1  0
 25 48  1  0
 25 49  1  0
 26 50  1  0
 26 51  1  0
 28 52  1  0
 28 53  1  0
 29 54  1  0
 29 55  1  0
 30 56  1  0
 31 57  1  0
 32 58  1  0
M  CHG  2   9  -1  24   1
M  END
>  <UniqueID>  (89) 
80

>  <SMILES>  (89) 
COc1ccc(CC[N-]C(=O)COC(=O)c2cccc(S(=O)(=O)[NH+]3CCOCC3)c2)cc1

>  <Energy>  (89) 
56.0955565168084

>  <Genealogy>  (89) 
COc1ccc(CC[N-]C(=O)COC(=O)c2cccc(S(=O)(=O)[NH+]3CCOCC3)c2)cc1 (protonated)
COc1ccc(CC[N-]C(=O)COC(=O)c2cccc(S(=O)(=O)[NH+]3CCOCC3)c2)cc1 (3D coordinates assigned)
COc1ccc(CC[N-]C(=O)COC(=O)c2cccc(S(=O)(=O)[NH+]3CCOCC3)c2)cc1 (nonaromatic ring conformer: 56.0955565168084 kcal/mol)

>  <smiles>  (89) 
COc1ccc(CCNC(=O)COC(=O)c2cccc(S(=O)(=O)N3CCOCC3)c2)cc1

>  <score_type>  (89) 
oracle

>  <origin>  (89) 
adg

>  <m_score__min__energy>  (89) 
-8.8599999999999994

>  <m_primary>  (89) 
energy

$$$$
89:0
     RDKit          3D

 36 38  0  0  0  0  0  0  0  0999 V2000
   56.8200   32.3160   45.2460 O   0  0  0  0  0  0  0  0  0  0  0  0
   57.7580   31.5610   44.9140 N   0  0  0  0  0  0  0  0  0  0  0  0
   57.7840   30.1570   45.2260 C   0  0  0  0  0  0  0  0  0  0  0  0
   58.9510   29.5930   45.7780 C   0  0  0  0  0  0  0  0  0  0  0  0
   60.1710   30.4810   45.9880 C   0  0  0  0  0  0  0  0  0  0  0  0
   59.8520   31.6360   46.9040 C   0  0  0  0  0  0  0  0  0  0  0  0
   60.1860   32.9520   46.5350 C   0  0  0  0  0  0  0  0  0  0  0  0
   59.8980   34.0200   47.3910 C   0  0  0  0  0  0  0  0  0  0  0  0
   59.2740   33.7860   48.6180 C   0  0  0  0  0  0  0  0  0  0  0  0
   58.9340   32.4830   48.9920 C   0  0  0  0  0  0  0  0  0  0  0  0
   59.2200   31.4110   48.1390 C   0  0  0  0  0  0  0  0  0  0  0  0
   58.9540   28.2070   46.0900 C   0  0  0  0  0  0  0  0  0  0  0  0
   60.3110   27.4870   46.7060 S   0  0  0  0  0  0  0  0  0  0  0  0
   57.8230   27.4590   45.8510 N   0  0  0  0  0  0  0  0  0  0  0  0
   57.7680   26.0530   46.1620 C   0  0  0  0  0  0  0  0  0  0  0  0
   57.4230   25.6350   47.4550 C   0  0  0  0  0  0  0  0  0  0  0  0
   57.3910   24.2720   47.7690 C   0  0  0  0  0  0  0  0  0  0  0  0
   57.7140   23.3210   46.7940 C   0  0  0  0  0  0  0  0  0  0  0  0
   57.6820   21.9680   47.1060 O   0  0  0  0  0  0  0  0  0  0  0  0
   58.0720   23.7340   45.5060 C   0  0  0  0  0  0  0  0  0  0  0  0
   58.1050   25.0960   45.1900 C   0  0  0  0  0  0  0  0  0  0  0  0
   56.7340   28.0150   45.3110 N   0  0  0  0  0  0  0  0  0  0  0  0
   56.6730   29.3330   44.9960 C   0  0  0  0  0  0  0  0  0  0  0  0
   55.6130   29.7990   44.4970 O   0  0  0  0  0  0  0  0  0  0  0  0
   60.9788   29.8819   46.4336 H   0  0  0  0  0  0  0  0  0  0  0  0
   60.4810   30.8844   45.0127 H   0  0  0  0  0  0  0  0  0  0  0  0
   60.6760   33.1419   45.5686 H   0  0  0  0  0  0  0  0  0  0  0  0
   60.1636   35.0462   47.0970 H   0  0  0  0  0  0  0  0  0  0  0  0
   59.0500   34.6273   49.2903 H   0  0  0  0  0  0  0  0  0  0  0  0
   58.4409   32.2998   49.9581 H   0  0  0  0  0  0  0  0  0  0  0  0
   58.9488   30.3873   48.4366 H   0  0  0  0  0  0  0  0  0  0  0  0
   57.1767   26.3810   48.2250 H   0  0  0  0  0  0  0  0  0  0  0  0
   57.1119   23.9476   48.7824 H   0  0  0  0  0  0  0  0  0  0  0  0
   58.3279   22.9863   44.7408 H   0  0  0  0  0  0  0  0  0  0  0  0
   58.3952   25.4185   44.1791 H   0  0  0  0  0  0  0  0  0  0  0  0
   55.8860   27.4270   45.1320 H   0  0  0  0  0  0  0  0  0  0  0  0
  1  2  2  0
  2  3  1  0
  3  4  2  0
  4  5  1  0
  5  6  1  0
  6  7  2  0
  7  8  1  0
  8  9  2  0
  9 10  1  0
 10 11  2  0
  4 12  1  0
 12 13  2  0
 12 14  1  0
 14 15  1  0
 15 16  2  0
 16 17  1  0
 17 18  2  0
 18 19  1  0
 18 20  1  0
 20 21  2  0
 14 22  1  0
 22 23  1  0
 23 24  2  0
 23  3  1  0
 11  6  1  0
 21 15  1  0
  5 25  1  0
  5 26  1  0
  7 27  1  0
  8 28  1  0
  9 29  1  0
 10 30  1  0
 11 31  1  0
 16 32  1  0
 17 33  1  0
 20 34  1  0
 21 35  1  0
 22 36  1  0
M  CHG  1  19  -1
M  END
>  <UniqueID>  (90) 
81

>  <SMILES>  (90) 
O=Nc1c(Cc2ccccc2)c(=S)n(-c2ccc([O-])cc2)[nH]c1=O

>  <Energy>  (90) 
56.44590660204894

>  <Genealogy>  (90) 
O=Nc1c(Cc2ccccc2)c(=S)n(-c2ccc([O-])cc2)[nH]c1=O (protonated)
O=Nc1c(Cc2ccccc2)c(=S)n(-c2ccc([O-])cc2)[nH]c1=O (3D coordinates assigned)
O=Nc1c(Cc2ccccc2)c(=S)n(-c2ccc([O-])cc2)[nH]c1=O (optimized conformer: 56.44590660204894 kcal/mol)

>  <smiles>  (90) 
O=Nc1c(Cc2ccccc2)c(=S)n(-c2ccc(O)cc2)[nH]c1=O

>  <score_type>  (90) 
oracle

>  <origin>  (90) 
adg

>  <m_score__min__energy>  (90) 
-9.6300000000000008

>  <m_primary>  (90) 
energy

$$$$
90:0
     RDKit          3D

 37 38  0  0  0  0  0  0  0  0999 V2000
   61.2360   34.7730   49.4250 H   0  0  0  0  0  0  0  0  0  0  0  0
   60.4240   34.5980   48.8010 N   0  0  0  0  0  0  0  0  0  0  0  0
   60.5740   33.7820   47.8170 C   0  0  0  0  0  0  0  0  0  0  0  0
   59.4840   33.2860   46.9910 C   0  0  0  0  0  0  0  0  0  0  0  0
   59.5840   32.0520   46.3530 C   0  0  0  0  0  0  0  0  0  0  0  0
   60.5066   31.4682   46.4875 H   0  0  0  0  0  0  0  0  0  0  0  0
   58.5940   31.5290   45.5680 C   0  0  0  0  0  0  0  0  0  0  0  0
   58.7351   30.5478   45.0911 H   0  0  0  0  0  0  0  0  0  0  0  0
   57.4090   32.2310   45.3690 C   0  0  0  0  0  0  0  0  0  0  0  0
   56.4640   31.6340   44.5670 O   0  0  0  0  0  0  0  0  0  0  0  0
   56.7880   30.8150   43.4680 C   0  0  0  0  0  0  0  0  0  0  0  0
   56.1192   31.0411   42.6244 H   0  0  0  0  0  0  0  0  0  0  0  0
   57.8255   30.9959   43.1505 H   0  0  0  0  0  0  0  0  0  0  0  0
   56.6160   29.4010   43.8810 C   0  0  0  0  0  0  0  0  0  0  0  0
   57.2340   28.4330   43.3890 O   0  0  0  0  0  0  0  0  0  0  0  0
   55.6790   29.1160   44.9130 N   0  0  0  0  0  0  0  0  0  0  0  0
   55.4870   29.7680   45.7040 H   0  0  0  0  0  0  0  0  0  0  0  0
   55.1460   28.2050   44.8930 H   0  0  0  0  0  0  0  0  0  0  0  0
   57.2860   33.4440   45.9840 C   0  0  0  0  0  0  0  0  0  0  0  0
   56.3608   34.0228   45.8458 H   0  0  0  0  0  0  0  0  0  0  0  0
   58.3060   33.9710   46.7860 C   0  0  0  0  0  0  0  0  0  0  0  0
   58.1638   34.9523   47.2623 H   0  0  0  0  0  0  0  0  0  0  0  0
   61.9700   33.3040   47.5240 C   0  0  0  0  0  0  0  0  0  0  0  0
   61.8996   32.2494   47.2193 H   0  0  0  0  0  0  0  0  0  0  0  0
   62.3455   33.9935   46.7535 H   0  0  0  0  0  0  0  0  0  0  0  0
   62.8440   33.3740   48.4840 O   0  0  0  0  0  0  0  0  0  0  0  0
   63.7050   33.4440   49.4300 C   0  0  0  0  0  0  0  0  0  0  0  0
   63.4330   34.1870   50.5990 C   0  0  0  0  0  0  0  0  0  0  0  0
   62.4680   34.7076   50.6871 H   0  0  0  0  0  0  0  0  0  0  0  0
   64.3350   34.2800   51.6290 C   0  0  0  0  0  0  0  0  0  0  0  0
   64.1092   34.8620   52.5347 H   0  0  0  0  0  0  0  0  0  0  0  0
   65.5320   33.6180   51.4860 C   0  0  0  0  0  0  0  0  0  0  0  0
   66.2626   33.6871   52.3054 H   0  0  0  0  0  0  0  0  0  0  0  0
   65.8690   32.8760   50.3810 C   0  0  0  0  0  0  0  0  0  0  0  0
   66.8393   32.3624   50.3118 H   0  0  0  0  0  0  0  0  0  0  0  0
   64.9470   32.8000   49.3650 C   0  0  0  0  0  0  0  0  0  0  0  0
   65.1932   32.2122   48.4684 H   0  0  0  0  0  0  0  0  0  0  0  0
  1  2  1  0
  2  3  2  0
  3  4  1  0
  4  5  2  0
  5  6  1  0
  5  7  1  0
  7  8  1  0
  7  9  2  0
  9 10  1  0
 10 11  1  0
 11 12  1  0
 11 13  1  0
 11 14  1  0
 14 15  2  0
 14 16  1  0
 16 17  1  0
 16 18  1  0
  9 19  1  0
 19 20  1  0
 19 21  2  0
 21 22  1  0
  3 23  1  0
 23 24  1  0
 23 25  1  0
 23 26  1  0
 26 27  1  0
 27 28  2  0
 28 29  1  0
 28 30  1  0
 30 31  1  0
 30 32  2  0
 32 33  1  0
 32 34  1  0
 34 35  1  0
 34 36  2  0
 36 37  1  0
 21  4  1  0
 36 27  1  0
M  END
>  <UniqueID>  (91) 
82

>  <SMILES>  (91) 
[H]/N=C(/COc1ccccc1)c1ccc(OCC(N)=O)cc1

>  <Energy>  (91) 
137.00096155917416

>  <Genealogy>  (91) 
[H]/N=C(/COc1ccccc1)c1ccc(OCC(N)=O)cc1 (cis-trans isomerization)
[H]/N=C(/COc1ccccc1)c1ccc(OCC(N)=O)cc1 (3D coordinates assigned)
[H]/N=C(/COc1ccccc1)c1ccc(OCC(N)=O)cc1 (optimized conformer: 137.00096155917416 kcal/mol)

>  <smiles>  (91) 
N=C(COc1ccccc1)c1ccc(OCC(N)=O)cc1

>  <score_type>  (91) 
oracle

>  <origin>  (91) 
adg

>  <m_score__min__energy>  (91) 
-6.8399999999999999

>  <m_primary>  (91) 
energy

$$$$
91:0
     RDKit          3D

 42 45  0  0  0  0  0  0  0  0999 V2000
   55.2883   28.6333   43.9051 H   0  0  0  0  0  0  0  0  0  0  0  0
   56.1030   29.3540   44.0690 C   0  0  0  0  0  0  0  0  0  0  0  0
   55.8900   30.5840   44.6110 N   0  0  0  0  0  0  0  0  0  0  0  0
   57.0330   31.2940   44.7020 C   0  0  0  0  0  0  0  0  0  0  0  0
   57.0660   32.4840   45.2260 N   0  0  0  0  0  0  0  0  0  0  0  0
   57.6830   32.8440   46.4710 C   0  0  0  0  0  0  0  0  0  0  0  0
   56.9880   33.4420   47.3350 O   0  0  0  0  0  0  0  0  0  0  0  0
   59.1280   32.6190   46.7250 C   0  0  0  0  0  0  0  0  0  0  0  0
   60.0560   33.6120   46.3640 C   0  0  0  0  0  0  0  0  0  0  0  0
   59.7050   34.5408   45.8905 H   0  0  0  0  0  0  0  0  0  0  0  0
   61.4200   33.4280   46.6020 C   0  0  0  0  0  0  0  0  0  0  0  0
   62.1375   34.2120   46.3181 H   0  0  0  0  0  0  0  0  0  0  0  0
   61.8740   32.2520   47.1990 C   0  0  0  0  0  0  0  0  0  0  0  0
   62.9494   32.1069   47.3792 H   0  0  0  0  0  0  0  0  0  0  0  0
   60.9650   31.2590   47.5680 C   0  0  0  0  0  0  0  0  0  0  0  0
   61.3298   30.3255   48.0214 H   0  0  0  0  0  0  0  0  0  0  0  0
   59.5860   31.4440   47.3640 C   0  0  0  0  0  0  0  0  0  0  0  0
   58.6650   30.3840   47.6720 N   0  0  0  0  0  0  0  0  0  0  0  0
   58.8950   29.1000   47.6300 C   0  0  0  0  0  0  0  0  0  0  0  0
   59.7810   28.5510   48.5650 C   0  0  0  0  0  0  0  0  0  0  0  0
   60.2690   29.1983   49.3086 H   0  0  0  0  0  0  0  0  0  0  0  0
   60.0430   27.1820   48.5510 C   0  0  0  0  0  0  0  0  0  0  0  0
   60.7225   26.7461   49.2981 H   0  0  0  0  0  0  0  0  0  0  0  0
   59.4620   26.3850   47.6180 N   0  0  0  0  0  0  0  0  0  0  0  0
   58.6270   26.8800   46.6640 C   0  0  0  0  0  0  0  0  0  0  0  0
   58.0390   25.9750   45.7170 N   0  0  0  0  0  0  0  0  0  0  0  0
   58.6530   25.6120   44.9530 H   0  0  0  0  0  0  0  0  0  0  0  0
   56.6420   25.6470   45.6690 C   0  0  0  0  0  0  0  0  0  0  0  0
   55.8070   26.2740   46.3750 O   0  0  0  0  0  0  0  0  0  0  0  0
   56.1670   24.5400   44.7770 C   0  0  0  0  0  0  0  0  0  0  0  0
   55.1020   24.6302   45.0370 H   0  0  0  0  0  0  0  0  0  0  0  0
   57.1520   23.3910   44.6190 C   0  0  0  0  0  0  0  0  0  0  0  0
   58.0952   23.3937   45.1849 H   0  0  0  0  0  0  0  0  0  0  0  0
   57.0935   22.2973   44.7211 H   0  0  0  0  0  0  0  0  0  0  0  0
   56.9470   24.3750   43.4810 C   0  0  0  0  0  0  0  0  0  0  0  0
   57.7418   25.0903   43.2228 H   0  0  0  0  0  0  0  0  0  0  0  0
   56.6786   24.2889   42.4177 H   0  0  0  0  0  0  0  0  0  0  0  0
   58.3160   28.2510   46.6630 C   0  0  0  0  0  0  0  0  0  0  0  0
   57.6244   28.6601   45.9118 H   0  0  0  0  0  0  0  0  0  0  0  0
   58.3580   30.4140   44.1370 S   0  0  0  0  0  0  0  0  0  0  0  0
   57.4240   29.0730   43.7370 C   0  0  0  0  0  0  0  0  0  0  0  0
   57.7934   28.1378   43.2910 H   0  0  0  0  0  0  0  0  0  0  0  0
  1  2  1  0
  2  3  1  0
  3  4  1  0
  4  5  2  0
  5  6  1  0
  6  7  2  0
  6  8  1  0
  8  9  2  0
  9 10  1  0
  9 11  1  0
 11 12  1  0
 11 13  2  0
 13 14  1  0
 13 15  1  0
 15 16  1  0
 15 17  2  0
 17 18  1  0
 18 19  2  3
 19 20  1  0
 20 21  1  0
 20 22  2  0
 22 23  1  0
 22 24  1  0
 24 25  1  0
 25 26  1  0
 26 27  1  0
 26 28  1  0
 28 29  2  0
 28 30  1  0
 30 31  1  0
 30 32  1  0
 32 33  1  0
 32 34  1  0
 32 35  1  0
 35 36  1  0
 35 37  1  0
 25 38  2  0
 38 39  1  0
  4 40  1  0
 40 41  1  0
 41 42  1  0
 41  2  2  0
 17  8  1  0
 38 19  1  0
 35 30  1  0
M  CHG  2   3  -1  24  -1
M  END
>  <UniqueID>  (92) 
83

>  <SMILES>  (92) 
O=C(/N=c1/[n-]ccs1)c1ccccc1N=c1cc[n-]c(NC(=O)C2CC2)c1

>  <Energy>  (92) 
361.7764953557083

>  <Genealogy>  (92) 
O=C(N=c1[n-]ccs1)c1ccccc1N=c1cc[n-]c(NC(=O)C2CC2)c1 (protonated)
O=C(/N=c1/[n-]ccs1)c1ccccc1N=c1cc[n-]c(NC(=O)C2CC2)c1 (cis-trans isomerization)
O=C(/N=c1/[n-]ccs1)c1ccccc1N=c1cc[n-]c(NC(=O)C2CC2)c1 (3D coordinates assigned)
O=C(/N=c1/[n-]ccs1)c1ccccc1N=c1cc[n-]c(NC(=O)C2CC2)c1 (nonaromatic ring conformer: 361.7764953557083 kcal/mol)

>  <smiles>  (92) 
O=C(N=c1[nH]ccs1)c1ccccc1N=c1cc[nH]c(NC(=O)C2CC2)c1

>  <score_type>  (92) 
oracle

>  <origin>  (92) 
adg

>  <m_score__min__energy>  (92) 
-11.609999999999999

>  <m_primary>  (92) 
energy

$$$$
