0:0
     RDKit          3D

 42 45  0  0  0  0  0  0  0  0999 V2000
   56.1510   30.1880   43.0110 O   0  0  0  0  0  0  0  0  0  0  0  0
   56.8760   30.3300   44.0330 C   0  0  0  0  0  0  0  0  0  0  0  0
   58.0170   31.2990   43.9950 C   0  0  0  0  0  0  0  0  0  0  0  0
   58.0030   32.1540   45.2290 C   0  0  0  0  0  0  0  0  0  0  0  0
   57.1390   33.2280   45.4240 C   0  0  0  0  0  0  0  0  0  0  0  0
   57.2740   33.7260   46.6700 N   0  0  0  0  0  0  0  0  0  0  0  0
   58.2040   32.9710   47.2760 C   0  0  0  0  0  0  0  0  0  0  0  0
   58.6470   33.1040   48.5900 C   0  0  0  0  0  0  0  0  0  0  0  0
   59.6120   32.2010   49.0550 C   0  0  0  0  0  0  0  0  0  0  0  0
   60.1200   31.1910   48.2090 C   0  0  0  0  0  0  0  0  0  0  0  0
   61.3320   30.0910   48.8560 Cl  0  0  0  0  0  0  0  0  0  0  0  0
   59.6630   31.0740   46.8740 C   0  0  0  0  0  0  0  0  0  0  0  0
   60.3490   29.8420   45.8200 Cl  0  0  0  0  0  0  0  0  0  0  0  0
   58.6850   31.9880   46.4360 C   0  0  0  0  0  0  0  0  0  0  0  0
   56.6210   29.5970   45.2400 N   0  0  0  0  0  0  0  0  0  0  0  0
   56.8790   28.3450   45.4880 C   0  0  0  0  0  0  0  0  0  0  0  0
   58.1280   27.7420   45.5960 C   0  0  0  0  0  0  0  0  0  0  0  0
   57.8370   26.4090   45.8000 C   0  0  0  0  0  0  0  0  0  0  0  0
   56.4990   26.2600   45.8040 N   0  0  0  0  0  0  0  0  0  0  0  0
   55.6440   24.7670   45.9810 S   0  0  0  0  0  0  0  0  0  0  0  0
   55.7520   24.2790   47.3980 O   0  0  0  0  0  0  0  0  0  0  0  0
   54.1940   24.9830   45.6450 O   0  0  0  0  0  0  0  0  0  0  0  0
   56.3580   23.5670   44.9100 C   0  0  0  0  0  0  0  0  0  0  0  0
   57.4990   22.8470   45.2980 C   0  0  0  0  0  0  0  0  0  0  0  0
   58.0470   21.8860   44.4430 C   0  0  0  0  0  0  0  0  0  0  0  0
   57.4560   21.6360   43.1980 C   0  0  0  0  0  0  0  0  0  0  0  0
   56.3160   22.3490   42.8090 C   0  0  0  0  0  0  0  0  0  0  0  0
   55.7680   23.3120   43.6620 C   0  0  0  0  0  0  0  0  0  0  0  0
   55.9050   27.4260   45.6130 N   0  0  0  0  0  0  0  0  0  0  0  0
   58.9654   30.7439   43.9467 H   0  0  0  0  0  0  0  0  0  0  0  0
   57.9166   31.9418   43.1080 H   0  0  0  0  0  0  0  0  0  0  0  0
   56.4425   33.6167   44.6665 H   0  0  0  0  0  0  0  0  0  0  0  0
   56.7420   34.5250   47.0830 H   0  0  0  0  0  0  0  0  0  0  0  0
   58.2506   33.8951   49.2435 H   0  0  0  0  0  0  0  0  0  0  0  0
   59.9776   32.2796   50.0895 H   0  0  0  0  0  0  0  0  0  0  0  0
   59.1179   28.2177   45.5333 H   0  0  0  0  0  0  0  0  0  0  0  0
   58.5739   25.6037   45.9364 H   0  0  0  0  0  0  0  0  0  0  0  0
   57.9629   23.0393   46.2767 H   0  0  0  0  0  0  0  0  0  0  0  0
   58.9431   21.3258   44.7484 H   0  0  0  0  0  0  0  0  0  0  0  0
   57.8876   20.8795   42.5261 H   0  0  0  0  0  0  0  0  0  0  0  0
   55.8510   22.1517   41.8318 H   0  0  0  0  0  0  0  0  0  0  0  0
   54.8722   23.8713   43.3543 H   0  0  0  0  0  0  0  0  0  0  0  0
  1  2  2  0
  2  3  1  0
  3  4  1  0
  4  5  2  0
  5  6  1  0
  6  7  1  0
  7  8  2  0
  8  9  1  0
  9 10  2  0
 10 11  1  0
 10 12  1  0
 12 13  1  0
 12 14  2  0
  2 15  1  0
 15 16  2  3
 16 17  1  0
 17 18  2  0
 18 19  1  0
 19 20  1  0
 20 21  2  0
 20 22  2  0
 20 23  1  0
 23 24  2  0
 24 25  1  0
 25 26  2  0
 26 27  1  0
 27 28  2  0
 19 29  1  0
 14  4  1  0
 29 16  1  0
 14  7  1  0
 28 23  1  0
  3 30  1  0
  3 31  1  0
  5 32  1  0
  6 33  1  0
  8 34  1  0
  9 35  1  0
 17 36  1  0
 18 37  1  0
 24 38  1  0
 25 39  1  0
 26 40  1  0
 27 41  1  0
 28 42  1  0
M  CHG  1  29  -1
M  END
>  <UniqueID>  (1) 
1

>  <SMILES>  (1) 
O=C(Cc1c[nH]c2ccc(Cl)c(Cl)c12)N=c1ccn(S(=O)(=O)c2ccccc2)[n-]1

>  <Energy>  (1) 
116.77171083479409

>  <Genealogy>  (1) 
O=C(Cc1c[nH]c2ccc(Cl)c(Cl)c12)N=c1ccn(S(=O)(=O)c2ccccc2)[n-]1 (protonated)
O=C(Cc1c[nH]c2ccc(Cl)c(Cl)c12)N=c1ccn(S(=O)(=O)c2ccccc2)[n-]1 (3D coordinates assigned)
O=C(Cc1c[nH]c2ccc(Cl)c(Cl)c12)N=c1ccn(S(=O)(=O)c2ccccc2)[n-]1 (optimized conformer: 116.77171083479409 kcal/mol)

>  <smiles>  (1) 
O=C(Cc1c[nH]c2ccc(Cl)c(Cl)c12)N=c1ccn(S(=O)(=O)c2ccccc2)[nH]1

>  <score_type>  (1) 
oracle

>  <origin>  (1) 
adg

>  <m_score__min__energy>  (1) 
-11.75

>  <m_primary>  (1) 
energy

$$$$
1:0
     RDKit          3D

 44 46  0  0  1  0  0  0  0  0999 V2000
   57.0500   29.6460   46.1120 O   0  0  0  0  0  0  0  0  0  0  0  0
   56.9760   29.3610   44.8840 C   0  0  0  0  0  0  0  0  0  0  0  0
   56.8190   30.4310   43.9060 C   0  0  0  0  0  0  0  0  0  0  0  0
   57.7760   31.2980   43.7050 C   0  0  0  0  0  0  0  0  0  0  0  0
   58.1240   32.3810   44.6160 C   0  0  0  0  0  0  0  0  0  0  0  0
   58.5310   33.6070   44.0950 C   0  0  0  0  0  0  0  0  0  0  0  0
   58.8740   34.6760   44.8900 C   0  0  0  0  0  0  0  0  0  0  0  0
   58.8030   34.4900   46.2550 C   0  0  0  0  0  0  0  0  0  0  0  0
   58.4140   33.3160   46.8410 C   0  0  0  0  0  0  0  0  0  0  0  0
   58.3150   33.0850   48.2340 N   0  0  0  0  0  0  0  0  0  0  0  0
   59.6330   32.9960   49.3240 S   0  0  0  0  0  0  0  0  0  0  0  0
   59.4550   31.7470   50.1890 O   0  0  0  0  0  0  0  0  0  0  0  0
   59.5510   34.2110   50.2390 O   0  0  0  0  0  0  0  0  0  0  0  0
   61.1930   32.9070   48.5710 C   0  0  0  0  0  0  0  0  0  0  0  0
   62.1490   33.9040   48.8050 C   0  0  0  0  0  0  0  0  0  0  0  0
   63.4030   33.8600   48.2430 C   0  0  0  0  0  0  0  0  0  0  0  0
   63.7710   32.8150   47.4150 C   0  0  0  0  0  0  0  0  0  0  0  0
   62.8520   31.8270   47.1720 C   0  0  0  0  0  0  0  0  0  0  0  0
   61.5990   31.8830   47.7400 C   0  0  0  0  0  0  0  0  0  0  0  0
   58.0750   32.2620   45.9850 C   0  0  0  0  0  0  0  0  0  0  0  0
   57.0490   28.0000   44.4990 N   0  0  0  0  0  0  0  0  0  0  0  0
   57.2030   27.0430   45.5530 C   0  0  0  0  0  0  0  0  0  0  0  0
   56.1680   26.2940   46.0770 C   0  0  0  0  0  0  0  0  0  0  0  0
   54.8290   26.2890   45.7320 O   0  0  0  0  0  0  0  0  0  0  0  0
   56.6880   25.4990   47.0550 N   0  0  0  0  0  0  0  0  0  0  0  0
   58.0030   25.7470   47.1380 N   0  0  0  0  0  0  0  0  0  0  0  0
   58.3470   26.6830   46.2350 C   0  0  0  0  0  0  0  0  0  0  0  0
   59.4990   27.1730   46.0160 O   0  0  0  0  0  0  0  0  0  0  0  0
   55.8846   30.5093   43.3309 H   0  0  0  0  0  0  0  0  0  0  0  0
   58.3625   31.2033   42.7793 H   0  0  0  0  0  0  0  0  0  0  0  0
   58.5802   33.7253   43.0025 H   0  0  0  0  0  0  0  0  0  0  0  0
   59.1907   35.6361   44.4566 H   0  0  0  0  0  0  0  0  0  0  0  0
   59.0741   35.3321   46.9088 H   0  0  0  0  0  0  0  0  0  0  0  0
   57.3320   32.9630   48.6000 H   0  0  0  0  0  0  0  0  0  0  0  0
   61.8880   34.7489   49.4592 H   0  0  0  0  0  0  0  0  0  0  0  0
   64.1220   34.6652   48.4543 H   0  0  0  0  0  0  0  0  0  0  0  0
   64.7735   32.7776   46.9638 H   0  0  0  0  0  0  0  0  0  0  0  0
   63.1177   30.9832   46.5183 H   0  0  0  0  0  0  0  0  0  0  0  0
   60.8878   31.0729   47.5209 H   0  0  0  0  0  0  0  0  0  0  0  0
   57.7580   31.3041   46.4230 H   0  0  0  0  0  0  0  0  0  0  0  0
   56.9910   27.7270   43.4920 H   0  0  0  0  0  0  0  0  0  0  0  0
   54.0620   26.3390   46.3890 H   0  0  0  0  0  0  0  0  0  0  0  0
   56.1390   24.8160   47.6350 H   0  0  0  0  0  0  0  0  0  0  0  0
   58.6370   25.2640   47.8150 H   0  0  0  0  0  0  0  0  0  0  0  0
  1  2  2  0
  2  3  1  0
  3  4  2  0
  4  5  1  0
  5  6  2  0
  6  7  1  0
  7  8  2  0
  8  9  1  0
  9 10  1  0
 10 11  1  0
 11 12  2  0
 11 13  2  0
 11 14  1  0
 14 15  2  0
 15 16  1  0
 16 17  2  0
 17 18  1  0
 18 19  2  0
  9 20  2  0
  2 21  1  0
 21 22  1  0
 22 23  2  0
 23 24  1  0
 23 25  1  0
 25 26  1  0
 26 27  1  0
 27 28  2  0
 20  5  1  0
 27 22  1  0
 19 14  1  0
  3 29  1  0
  4 30  1  0
  6 31  1  0
  7 32  1  0
  8 33  1  0
 10 34  1  0
 15 35  1  0
 16 36  1  0
 17 37  1  0
 18 38  1  0
 19 39  1  0
 20 40  1  0
 21 41  1  0
 24 42  1  0
 25 43  1  0
 26 44  1  0
M  END
>  <smiles>  (2) 
O=C(C=Cc1cccc(NS(=O)(=O)c2ccccc2)c1)Nc1c(O)[nH][nH]c1=O

>  <score_type>  (2) 
oracle

>  <origin>  (2) 
adg

>  <m_score__min__energy>  (2) 
-9.9299999999999997

>  <m_primary>  (2) 
energy

$$$$
2:0
     RDKit          3D

 42 46  0  0  0  0  0  0  0  0999 V2000
   67.1880   32.5190   50.1010 O   0  0  0  0  0  0  0  0  0  0  0  0
   66.1270   33.1480   50.3560 C   0  0  0  0  0  0  0  0  0  0  0  0
   66.1780   34.2280   51.2300 O   0  0  0  0  0  0  0  0  0  0  0  0
   64.8460   32.7470   49.7340 C   0  0  0  0  0  0  0  0  0  0  0  0
   64.1120   31.6680   50.2540 C   0  0  0  0  0  0  0  0  0  0  0  0
   62.9010   31.2850   49.6690 C   0  0  0  0  0  0  0  0  0  0  0  0
   62.3990   31.9720   48.5510 C   0  0  0  0  0  0  0  0  0  0  0  0
   61.1120   31.5660   47.9300 C   0  0  0  0  0  0  0  0  0  0  0  0
   60.1360   32.5460   47.5960 C   0  0  0  0  0  0  0  0  0  0  0  0
   58.9110   32.1790   47.0070 C   0  0  0  0  0  0  0  0  0  0  0  0
   58.6830   30.8300   46.7610 C   0  0  0  0  0  0  0  0  0  0  0  0
   57.6110   30.2780   46.2190 O   0  0  0  0  0  0  0  0  0  0  0  0
   57.8430   28.9800   46.1840 C   0  0  0  0  0  0  0  0  0  0  0  0
   57.0360   27.9560   45.7130 C   0  0  0  0  0  0  0  0  0  0  0  0
   55.8940   28.2150   45.2430 O   0  0  0  0  0  0  0  0  0  0  0  0
   57.5080   26.6620   45.7860 N   0  0  0  0  0  0  0  0  0  0  0  0
   56.6940   25.5750   45.3050 C   0  0  0  0  0  0  0  0  0  0  0  0
   57.0800   24.8470   44.1670 C   0  0  0  0  0  0  0  0  0  0  0  0
   56.2890   23.7920   43.7020 C   0  0  0  0  0  0  0  0  0  0  0  0
   55.1070   23.4570   44.3690 C   0  0  0  0  0  0  0  0  0  0  0  0
   54.7160   24.1750   45.5020 C   0  0  0  0  0  0  0  0  0  0  0  0
   55.5050   25.2310   45.9710 C   0  0  0  0  0  0  0  0  0  0  0  0
   58.7610   26.4060   46.3200 C   0  0  0  0  0  0  0  0  0  0  0  0
   59.2030   25.2260   46.3780 O   0  0  0  0  0  0  0  0  0  0  0  0
   59.5440   27.4260   46.7840 N   0  0  0  0  0  0  0  0  0  0  0  0
   59.0680   28.6870   46.7040 C   0  0  0  0  0  0  0  0  0  0  0  0
   59.6270   29.8770   47.0850 C   0  0  0  0  0  0  0  0  0  0  0  0
   60.8470   30.2010   47.6670 C   0  0  0  0  0  0  0  0  0  0  0  0
   63.1340   33.0520   48.0310 C   0  0  0  0  0  0  0  0  0  0  0  0
   64.3450   33.4350   48.6150 C   0  0  0  0  0  0  0  0  0  0  0  0
   64.4929   31.1200   51.1284 H   0  0  0  0  0  0  0  0  0  0  0  0
   62.3367   30.4387   50.0877 H   0  0  0  0  0  0  0  0  0  0  0  0
   60.3418   33.6069   47.8012 H   0  0  0  0  0  0  0  0  0  0  0  0
   58.1568   32.9371   46.7492 H   0  0  0  0  0  0  0  0  0  0  0  0
   58.0091   25.1083   43.6393 H   0  0  0  0  0  0  0  0  0  0  0  0
   56.5969   23.2253   42.8109 H   0  0  0  0  0  0  0  0  0  0  0  0
   54.4845   22.6278   44.0017 H   0  0  0  0  0  0  0  0  0  0  0  0
   53.7861   23.9096   46.0263 H   0  0  0  0  0  0  0  0  0  0  0  0
   55.1939   25.7936   46.8635 H   0  0  0  0  0  0  0  0  0  0  0  0
   61.5826   29.4217   47.9151 H   0  0  0  0  0  0  0  0  0  0  0  0
   62.7528   33.6004   47.1570 H   0  0  0  0  0  0  0  0  0  0  0  0
   64.9099   34.2807   48.1960 H   0  0  0  0  0  0  0  0  0  0  0  0
  1  2  2  0
  2  3  1  0
  2  4  1  0
  4  5  2  0
  5  6  1  0
  6  7  2  0
  7  8  1  0
  8  9  2  0
  9 10  1  0
 10 11  2  0
 11 12  1  0
 12 13  1  0
 13 14  1  0
 14 15  2  0
 14 16  1  0
 16 17  1  0
 17 18  2  0
 18 19  1  0
 19 20  2  0
 20 21  1  0
 21 22  2  0
 16 23  1  0
 23 24  2  0
 23 25  1  0
 25 26  1  0
 26 27  1  0
 27 28  2  0
  7 29  1  0
 29 30  2  0
 30  4  1  0
 28  8  1  0
 27 11  1  0
 26 13  2  0
 22 17  1  0
  5 31  1  0
  6 32  1  0
  9 33  1  0
 10 34  1  0
 18 35  1  0
 19 36  1  0
 20 37  1  0
 21 38  1  0
 22 39  1  0
 28 40  1  0
 29 41  1  0
 30 42  1  0
M  CHG  2   3  -1  25  -1
M  END
>  <UniqueID>  (3) 
2

>  <SMILES>  (3) 
O=C([O-])c1ccc(-c2ccc3oc4c(=O)n(-c5ccccc5)c(=O)[n-]c4c3c2)cc1

>  <Energy>  (3) 
110.69991162697886

>  <Genealogy>  (3) 
O=C([O-])c1ccc(-c2ccc3oc4c(=O)n(-c5ccccc5)c(=O)[n-]c4c3c2)cc1 (protonated)
O=C([O-])c1ccc(-c2ccc3oc4c(=O)n(-c5ccccc5)c(=O)[n-]c4c3c2)cc1 (3D coordinates assigned)
O=C([O-])c1ccc(-c2ccc3oc4c(=O)n(-c5ccccc5)c(=O)[n-]c4c3c2)cc1 (optimized conformer: 110.69991162697886 kcal/mol)

>  <smiles>  (3) 
O=C(O)c1ccc(-c2ccc3oc4c(=O)n(-c5ccccc5)c(=O)[nH]c4c3c2)cc1

>  <score_type>  (3) 
oracle

>  <origin>  (3) 
adg

>  <m_score__min__energy>  (3) 
-10.58

>  <m_primary>  (3) 
energy

$$$$
3:0
     RDKit          3D

 45 48  0  0  0  0  0  0  0  0999 V2000
   56.7928   31.3404   41.6925 H   0  0  0  0  0  0  0  0  0  0  0  0
   57.0440   31.2060   42.7550 C   0  0  0  0  0  0  0  0  0  0  0  0
   57.4910   32.2590   43.4850 N   0  0  0  0  0  0  0  0  0  0  0  0
   57.8050   32.1120   44.7990 C   0  0  0  0  0  0  0  0  0  0  0  0
   58.2730   33.2290   45.5490 N   0  0  0  0  0  0  0  0  0  0  0  0
   58.2360   33.6970   46.9450 C   0  0  0  0  0  0  0  0  0  0  0  0
   57.2127   33.8804   47.3045 H   0  0  0  0  0  0  0  0  0  0  0  0
   58.6247   33.0129   47.7137 H   0  0  0  0  0  0  0  0  0  0  0  0
   58.9990   34.9590   46.7080 C   0  0  0  0  0  0  0  0  0  0  0  0
   58.4392   35.8909   46.8759 H   0  0  0  0  0  0  0  0  0  0  0  0
   59.8954   35.2507   47.2750 H   0  0  0  0  0  0  0  0  0  0  0  0
   59.0270   34.4690   45.2970 C   0  0  0  0  0  0  0  0  0  0  0  0
   58.5101   35.1467   44.6016 H   0  0  0  0  0  0  0  0  0  0  0  0
   60.0133   34.3682   44.8205 H   0  0  0  0  0  0  0  0  0  0  0  0
   57.6730   30.9000   45.3960 N   0  0  0  0  0  0  0  0  0  0  0  0
   57.2290   29.8110   44.7090 C   0  0  0  0  0  0  0  0  0  0  0  0
   57.0980   28.5030   45.3970 C   0  0  0  0  0  0  0  0  0  0  0  0
   55.9030   27.8510   45.3960 N   0  0  0  0  0  0  0  0  0  0  0  0
   55.7430   26.6520   46.0160 C   0  0  0  0  0  0  0  0  0  0  0  0
   54.5800   26.0710   45.9890 N   0  0  0  0  0  0  0  0  0  0  0  0
   54.3090   24.7730   45.3700 C   0  0  0  0  0  0  0  0  0  0  0  0
   54.4689   24.8495   44.2844 H   0  0  0  0  0  0  0  0  0  0  0  0
   53.2675   24.4892   45.5815 H   0  0  0  0  0  0  0  0  0  0  0  0
   55.2240   23.7180   45.9320 C   0  0  0  0  0  0  0  0  0  0  0  0
   56.1490   23.0720   45.0970 C   0  0  0  0  0  0  0  0  0  0  0  0
   56.2148   23.3515   44.0351 H   0  0  0  0  0  0  0  0  0  0  0  0
   56.9870   22.0760   45.6060 C   0  0  0  0  0  0  0  0  0  0  0  0
   57.7096   21.5768   44.9437 H   0  0  0  0  0  0  0  0  0  0  0  0
   56.9100   21.7090   46.9630 C   0  0  0  0  0  0  0  0  0  0  0  0
   57.7270   20.7160   47.5220 O   0  0  0  0  0  0  0  0  0  0  0  0
   57.9520   19.4370   46.9370 C   0  0  0  0  0  0  0  0  0  0  0  0
   58.0837   18.6882   47.7320 H   0  0  0  0  0  0  0  0  0  0  0  0
   57.0885   19.1619   46.3136 H   0  0  0  0  0  0  0  0  0  0  0  0
   58.8576   19.4731   46.3136 H   0  0  0  0  0  0  0  0  0  0  0  0
   55.9840   22.3540   47.7930 C   0  0  0  0  0  0  0  0  0  0  0  0
   55.9158   22.0741   48.8546 H   0  0  0  0  0  0  0  0  0  0  0  0
   55.1460   23.3500   47.2840 C   0  0  0  0  0  0  0  0  0  0  0  0
   54.4221   23.8477   47.9461 H   0  0  0  0  0  0  0  0  0  0  0  0
   56.8000   26.0800   46.6550 N   0  0  0  0  0  0  0  0  0  0  0  0
   58.0120   26.6870   46.6870 C   0  0  0  0  0  0  0  0  0  0  0  0
   58.9720   26.1370   47.2870 O   0  0  0  0  0  0  0  0  0  0  0  0
   58.1910   27.9190   46.0570 C   0  0  0  0  0  0  0  0  0  0  0  0
   59.1687   28.4226   46.0770 H   0  0  0  0  0  0  0  0  0  0  0  0
   56.9030   29.9530   43.3520 C   0  0  0  0  0  0  0  0  0  0  0  0
   56.5428   29.0923   42.7694 H   0  0  0  0  0  0  0  0  0  0  0  0
  1  2  1  0
  2  3  2  0
  3  4  1  0
  4  5  1  0
  5  6  1  0
  6  7  1  0
  6  8  1  0
  6  9  1  0
  9 10  1  0
  9 11  1  0
  9 12  1  0
 12 13  1  0
 12 14  1  0
  4 15  2  0
 15 16  1  0
 16 17  1  0
 17 18  1  0
 18 19  1  0
 19 20  2  0
 20 21  1  0
 21 22  1  0
 21 23  1  0
 21 24  1  0
 24 25  2  0
 25 26  1  0
 25 27  1  0
 27 28  1  0
 27 29  2  0
 29 30  1  0
 30 31  1  0
 31 32  1  0
 31 33  1  0
 31 34  1  0
 29 35  1  0
 35 36  1  0
 35 37  2  0
 37 38  1  0
 19 39  1  0
 39 40  1  0
 40 41  2  0
 40 42  1  0
 42 43  1  0
 16 44  2  0
 44 45  1  0
 44  2  1  0
 12  5  1  0
 42 17  2  0
 37 24  1  0
M  CHG  2  18  -1  39  -1
M  END
>  <UniqueID>  (4) 
3

>  <SMILES>  (4) 
COc1ccc(C/N=c2/[n-]c(-c3ccnc(N4CCC4)n3)cc(=O)[n-]2)cc1

>  <Energy>  (4) 
92.77442517232339

>  <Genealogy>  (4) 
COc1ccc(CN=c2[n-]c(-c3ccnc(N4CCC4)n3)cc(=O)[n-]2)cc1 (protonated)
COc1ccc(C/N=c2/[n-]c(-c3ccnc(N4CCC4)n3)cc(=O)[n-]2)cc1 (cis-trans isomerization)
COc1ccc(C/N=c2/[n-]c(-c3ccnc(N4CCC4)n3)cc(=O)[n-]2)cc1 (3D coordinates assigned)
COc1ccc(C/N=c2/[n-]c(-c3ccnc(N4CCC4)n3)cc(=O)[n-]2)cc1 (nonaromatic ring conformer: 92.77442517232339 kcal/mol)

>  <smiles>  (4) 
COc1ccc(CN=c2[nH]c(-c3ccnc(N4CCC4)n3)cc(=O)[nH]2)cc1

>  <score_type>  (4) 
oracle

>  <origin>  (4) 
adg

>  <m_score__min__energy>  (4) 
-12.029999999999999

>  <m_primary>  (4) 
energy

$$$$
4:0
     RDKit          3D

 47 49  0  0  0  0  0  0  0  0999 V2000
   56.2656   32.2737   45.8905 H   0  0  0  0  0  0  0  0  0  0  0  0
   57.0610   32.6330   45.2210 C   0  0  0  0  0  0  0  0  0  0  0  0
   57.4470   34.0590   45.2730 C   0  0  0  0  0  0  0  0  0  0  0  0
   56.8010   34.9110   44.6060 O   0  0  0  0  0  0  0  0  0  0  0  0
   58.5360   34.5320   46.1530 C   0  0  0  0  0  0  0  0  0  0  0  0
   58.4138   35.5219   46.6169 H   0  0  0  0  0  0  0  0  0  0  0  0
   59.6630   33.8560   46.4350 C   0  0  0  0  0  0  0  0  0  0  0  0
   60.6153   34.3014   46.1112 H   0  0  0  0  0  0  0  0  0  0  0  0
   59.7240   32.5610   47.1460 C   0  0  0  0  0  0  0  0  0  0  0  0
   58.7790   32.2180   48.1300 C   0  0  0  0  0  0  0  0  0  0  0  0
   57.9715   32.9212   48.3821 H   0  0  0  0  0  0  0  0  0  0  0  0
   58.8610   30.9880   48.7890 C   0  0  0  0  0  0  0  0  0  0  0  0
   58.1302   30.7332   49.5707 H   0  0  0  0  0  0  0  0  0  0  0  0
   59.8710   30.0820   48.4550 C   0  0  0  0  0  0  0  0  0  0  0  0
   59.9401   29.1176   48.9796 H   0  0  0  0  0  0  0  0  0  0  0  0
   60.7940   30.4010   47.4540 C   0  0  0  0  0  0  0  0  0  0  0  0
   61.5829   29.6832   47.1850 H   0  0  0  0  0  0  0  0  0  0  0  0
   60.7150   31.6310   46.7950 C   0  0  0  0  0  0  0  0  0  0  0  0
   61.4331   31.8715   45.9972 H   0  0  0  0  0  0  0  0  0  0  0  0
   57.6460   31.7630   44.3870 C   0  0  0  0  0  0  0  0  0  0  0  0
   58.0534   32.1412   43.4378 H   0  0  0  0  0  0  0  0  0  0  0  0
   57.7710   30.3160   44.6810 C   0  0  0  0  0  0  0  0  0  0  0  0
   58.9960   29.6310   44.5660 C   0  0  0  0  0  0  0  0  0  0  0  0
   59.9019   30.1765   44.2631 H   0  0  0  0  0  0  0  0  0  0  0  0
   59.0660   28.2610   44.8350 C   0  0  0  0  0  0  0  0  0  0  0  0
   60.0277   27.7356   44.7398 H   0  0  0  0  0  0  0  0  0  0  0  0
   57.9250   27.5520   45.2240 C   0  0  0  0  0  0  0  0  0  0  0  0
   58.0480   26.1810   45.4890 O   0  0  0  0  0  0  0  0  0  0  0  0
   57.5250   25.5420   46.6200 C   0  0  0  0  0  0  0  0  0  0  0  0
   58.0800   25.6870   47.7450 O   0  0  0  0  0  0  0  0  0  0  0  0
   56.3480   24.6550   46.4850 C   0  0  0  0  0  0  0  0  0  0  0  0
   55.5660   24.6720   45.3180 C   0  0  0  0  0  0  0  0  0  0  0  0
   55.8283   25.3534   44.4952 H   0  0  0  0  0  0  0  0  0  0  0  0
   54.4560   23.8290   45.1940 C   0  0  0  0  0  0  0  0  0  0  0  0
   53.8533   23.8523   44.2741 H   0  0  0  0  0  0  0  0  0  0  0  0
   54.1050   22.9530   46.2350 C   0  0  0  0  0  0  0  0  0  0  0  0
   52.9630   22.0880   46.1040 N   0  0  0  0  0  0  0  0  0  0  0  0
   52.8700   21.0470   46.7880 O   0  0  0  0  0  0  0  0  0  0  0  0
   51.9510   22.3950   45.2240 O   0  0  0  0  0  0  0  0  0  0  0  0
   54.8890   22.9360   47.4010 C   0  0  0  0  0  0  0  0  0  0  0  0
   54.6274   22.2543   48.2237 H   0  0  0  0  0  0  0  0  0  0  0  0
   55.9990   23.7780   47.5250 C   0  0  0  0  0  0  0  0  0  0  0  0
   56.6031   23.7531   48.4439 H   0  0  0  0  0  0  0  0  0  0  0  0
   56.6870   28.2220   45.2910 C   0  0  0  0  0  0  0  0  0  0  0  0
   55.5180   27.5290   45.5850 O   0  0  0  0  0  0  0  0  0  0  0  0
   56.6180   29.5940   45.0270 C   0  0  0  0  0  0  0  0  0  0  0  0
   55.6500   30.1125   45.0912 H   0  0  0  0  0  0  0  0  0  0  0  0
  1  2  1  0
  2  3  1  0
  3  4  2  0
  3  5  1  0
  5  6  1  0
  5  7  2  0
  7  8  1  0
  7  9  1  0
  9 10  2  0
 10 11  1  0
 10 12  1  0
 12 13  1  0
 12 14  2  0
 14 15  1  0
 14 16  1  0
 16 17  1  0
 16 18  2  0
 18 19  1  0
  2 20  2  3
 20 21  1  0
 20 22  1  0
 22 23  2  0
 23 24  1  0
 23 25  1  0
 25 26  1  0
 25 27  2  0
 27 28  1  0
 28 29  1  0
 29 30  2  0
 29 31  1  0
 31 32  2  0
 32 33  1  0
 32 34  1  0
 34 35  1  0
 34 36  2  0
 36 37  1  0
 37 38  2  0
 37 39  1  0
 36 40  1  0
 40 41  1  0
 40 42  2  0
 42 43  1  0
 27 44  1  0
 44 45  1  0
 44 46  2  0
 46 47  1  0
 18  9  1  0
 46 22  1  0
 42 31  1  0
M  CHG  3  37   1  39  -1  45  -1
M  END
>  <UniqueID>  (5) 
4

>  <SMILES>  (5) 
O=C(C=Cc1ccc(OC(=O)c2ccc([N+](=O)[O-])cc2)c([O-])c1)/C=C\c1ccccc1

>  <Energy>  (5) 
67.48965557385921

>  <Genealogy>  (5) 
O=C(C=Cc1ccccc1)C=Cc1ccc(OC(=O)c2ccc([N+](=O)[O-])cc2)c([O-])c1 (protonated)
O=C(C=Cc1ccc(OC(=O)c2ccc([N+](=O)[O-])cc2)c([O-])c1)/C=C\c1ccccc1 (cis-trans isomerization)
O=C(C=Cc1ccc(OC(=O)c2ccc([N+](=O)[O-])cc2)c([O-])c1)/C=C\c1ccccc1 (3D coordinates assigned)
O=C(C=Cc1ccc(OC(=O)c2ccc([N+](=O)[O-])cc2)c([O-])c1)/C=C\c1ccccc1 (optimized conformer: 67.48965557385921 kcal/mol)

>  <smiles>  (5) 
O=C(C=Cc1ccccc1)C=Cc1ccc(OC(=O)c2ccc([N+](=O)[O-])cc2)c(O)c1

>  <score_type>  (5) 
oracle

>  <origin>  (5) 
adg

>  <m_score__min__energy>  (5) 
-13.779999999999999

>  <m_primary>  (5) 
energy

$$$$
6:0
     RDKit          3D

 57 60  0  0  0  0  0  0  0  0999 V2000
   55.4340   26.4500   46.0040 N   0  0  0  0  0  0  0  0  0  0  0  0
   56.3110   25.5030   46.6130 C   0  0  0  0  0  0  0  0  0  0  0  0
   56.1610   24.2720   46.3870 O   0  0  0  0  0  0  0  0  0  0  0  0
   57.4440   25.9720   47.4670 C   0  0  0  0  0  0  0  0  0  0  0  0
   58.9320   26.1700   46.4300 S   0  0  0  0  0  0  0  0  0  0  0  0
   58.2920   27.5910   45.5230 C   0  0  0  0  0  0  0  0  0  0  0  0
   57.7910   27.5470   44.2170 C   0  0  0  0  0  0  0  0  0  0  0  0
   57.7230   26.3830   43.3040 C   0  0  0  0  0  0  0  0  0  0  0  0
   58.3170   26.4430   42.1940 O   0  0  0  0  0  0  0  0  0  0  0  0
   56.9870   25.2030   43.6530 N   0  0  0  0  0  0  0  0  0  0  0  0
   57.0420   23.9790   42.8590 C   0  0  0  0  0  0  0  0  0  0  0  0
   57.0430   22.7840   43.7570 C   0  0  0  0  0  0  0  0  0  0  0  0
   57.9890   22.4980   44.7230 C   0  0  0  0  0  0  0  0  0  0  0  0
   57.6030   21.2940   45.2730 C   0  0  0  0  0  0  0  0  0  0  0  0
   56.4490   20.9210   44.6090 C   0  0  0  0  0  0  0  0  0  0  0  0
   56.1430   21.8280   43.7100 O   0  0  0  0  0  0  0  0  0  0  0  0
   57.5060   28.8610   43.8920 C   0  0  0  0  0  0  0  0  0  0  0  0
   56.9900   29.4180   42.7180 C   0  0  0  0  0  0  0  0  0  0  0  0
   56.8100   30.8100   42.6680 C   0  0  0  0  0  0  0  0  0  0  0  0
   57.1430   31.6100   43.7790 C   0  0  0  0  0  0  0  0  0  0  0  0
   57.6560   31.0290   44.9510 C   0  0  0  0  0  0  0  0  0  0  0  0
   57.8270   29.6370   44.9810 C   0  0  0  0  0  0  0  0  0  0  0  0
   58.3330   28.8730   45.9810 N   0  0  0  0  0  0  0  0  0  0  0  0
   58.7920   29.3270   47.3040 C   0  0  0  0  0  0  0  0  0  0  0  0
   60.0170   30.2030   47.2070 C   0  0  0  0  0  0  0  0  0  0  0  0
   61.1370   29.6380   47.0460 O   0  0  0  0  0  0  0  0  0  0  0  0
   59.9480   31.6440   47.3170 N   0  0  0  0  0  0  0  0  0  0  0  0
   58.6990   32.3070   47.7330 C   0  0  0  0  0  0  0  0  0  0  0  0
   58.9170   33.7890   48.0560 C   0  0  0  0  0  0  0  0  0  0  0  0
   59.6190   34.5030   46.8930 C   0  0  0  0  0  0  0  0  0  0  0  0
   60.8420   33.7320   46.3450 C   0  0  0  0  0  0  0  0  0  0  0  0
   61.1660   32.4550   47.1340 C   0  0  0  0  0  0  0  0  0  0  0  0
   54.8020   27.0480   46.5810 H   0  0  0  0  0  0  0  0  0  0  0  0
   57.1840   26.9372   47.9262 H   0  0  0  0  0  0  0  0  0  0  0  0
   57.6403   25.2348   48.2594 H   0  0  0  0  0  0  0  0  0  0  0  0
   56.3470   25.2160   44.4770 H   0  0  0  0  0  0  0  0  0  0  0  0
   56.1651   23.9354   42.1963 H   0  0  0  0  0  0  0  0  0  0  0  0
   57.9643   23.9798   42.2596 H   0  0  0  0  0  0  0  0  0  0  0  0
   58.8658   23.1037   44.9958 H   0  0  0  0  0  0  0  0  0  0  0  0
   58.1106   20.7417   46.0776 H   0  0  0  0  0  0  0  0  0  0  0  0
   55.8743   20.0036   44.8042 H   0  0  0  0  0  0  0  0  0  0  0  0
   56.7321   28.7835   41.8572 H   0  0  0  0  0  0  0  0  0  0  0  0
   56.4073   31.2777   41.7575 H   0  0  0  0  0  0  0  0  0  0  0  0
   57.0000   32.6995   43.7284 H   0  0  0  0  0  0  0  0  0  0  0  0
   57.9165   31.6490   45.8215 H   0  0  0  0  0  0  0  0  0  0  0  0
   57.9837   29.8985   47.7836 H   0  0  0  0  0  0  0  0  0  0  0  0
   59.0558   28.4381   47.8958 H   0  0  0  0  0  0  0  0  0  0  0  0
   57.9648   32.2252   46.9180 H   0  0  0  0  0  0  0  0  0  0  0  0
   58.3373   31.8097   48.6450 H   0  0  0  0  0  0  0  0  0  0  0  0
   57.9423   34.2659   48.2363 H   0  0  0  0  0  0  0  0  0  0  0  0
   59.5520   33.8650   48.9510 H   0  0  0  0  0  0  0  0  0  0  0  0
   58.8943   34.6329   46.0757 H   0  0  0  0  0  0  0  0  0  0  0  0
   59.9886   35.4644   47.2790 H   0  0  0  0  0  0  0  0  0  0  0  0
   60.6384   33.4535   45.3005 H   0  0  0  0  0  0  0  0  0  0  0  0
   61.7122   34.3985   46.4375 H   0  0  0  0  0  0  0  0  0  0  0  0
   61.9139   31.8671   46.5817 H   0  0  0  0  0  0  0  0  0  0  0  0
   61.5614   32.7350   48.1216 H   0  0  0  0  0  0  0  0  0  0  0  0
  1  2  1  0
  2  3  2  0
  2  4  1  0
  4  5  1  0
  5  6  1  0
  6  7  2  0
  7  8  1  0
  8  9  2  0
  8 10  1  0
 10 11  1  0
 11 12  1  0
 12 13  2  0
 13 14  1  0
 14 15  2  0
 15 16  1  0
  7 17  1  0
 17 18  2  0
 18 19  1  0
 19 20  2  0
 20 21  1  0
 21 22  2  0
 22 23  1  0
 23 24  1  0
 24 25  1  0
 25 26  2  0
 25 27  1  0
 27 28  1  0
 28 29  1  0
 29 30  1  0
 30 31  1  0
 31 32  1  0
 23  6  1  0
 32 27  1  0
 16 12  1  0
 22 17  1  0
  1 33  1  0
  4 34  1  0
  4 35  1  0
 10 36  1  0
 11 37  1  0
 11 38  1  0
 13 39  1  0
 14 40  1  0
 15 41  1  0
 18 42  1  0
 19 43  1  0
 20 44  1  0
 21 45  1  0
 24 46  1  0
 24 47  1  0
 28 48  1  0
 28 49  1  0
 29 50  1  0
 29 51  1  0
 30 52  1  0
 30 53  1  0
 31 54  1  0
 31 55  1  0
 32 56  1  0
 32 57  1  0
M  CHG  1   1  -1
M  END
>  <UniqueID>  (6) 
5

>  <SMILES>  (6) 
[NH-]C(=O)CSc1c(C(=O)NCc2ccco2)c2ccccc2n1CC(=O)N1CCCCC1

>  <Energy>  (6) 
115.29562488551078

>  <Genealogy>  (6) 
[NH-]C(=O)CSc1c(C(=O)NCc2ccco2)c2ccccc2n1CC(=O)N1CCCCC1 (protonated)
[NH-]C(=O)CSc1c(C(=O)NCc2ccco2)c2ccccc2n1CC(=O)N1CCCCC1 (3D coordinates assigned)
[NH-]C(=O)CSc1c(C(=O)NCc2ccco2)c2ccccc2n1CC(=O)N1CCCCC1 (nonaromatic ring conformer: 115.29562488551078 kcal/mol)

>  <smiles>  (6) 
NC(=O)CSc1c(C(=O)NCc2ccco2)c2ccccc2n1CC(=O)N1CCCCC1

>  <score_type>  (6) 
oracle

>  <origin>  (6) 
adg

>  <m_score__min__energy>  (6) 
-11.619999999999999

>  <m_primary>  (6) 
energy

$$$$
7:0
     RDKit          3D

 36 37  0  0  0  0  0  0  0  0999 V2000
   61.0870   28.4570   45.2270 O   0  0  0  0  0  0  0  0  0  0  0  0
   59.8670   28.5190   45.5390 C   0  0  0  0  0  0  0  0  0  0  0  0
   58.8290   28.4180   44.4670 C   0  0  0  0  0  0  0  0  0  0  0  0
   57.4960   28.4780   45.0640 N   0  0  0  0  0  0  0  0  0  0  0  0
   56.5430   29.6810   44.2520 S   0  0  0  0  0  0  0  0  0  0  0  0
   55.1840   29.7570   44.8880 O   0  0  0  0  0  0  0  0  0  0  0  0
   56.3880   29.3120   42.8020 O   0  0  0  0  0  0  0  0  0  0  0  0
   57.3320   31.2430   44.3900 C   0  0  0  0  0  0  0  0  0  0  0  0
   57.7660   32.0320   43.3350 C   0  0  0  0  0  0  0  0  0  0  0  0
   58.4450   33.1810   43.7570 C   0  0  0  0  0  0  0  0  0  0  0  0
   58.5450   33.2790   45.1380 C   0  0  0  0  0  0  0  0  0  0  0  0
   59.4290   34.6700   46.0940 Br  0  0  0  0  0  0  0  0  0  0  0  0
   57.7980   31.9490   45.8430 S   0  0  0  0  0  0  0  0  0  0  0  0
   59.4760   28.7530   46.9000 N   0  0  0  0  0  0  0  0  0  0  0  0
   60.3680   29.3820   47.8750 C   0  0  0  0  0  0  0  0  0  0  0  0
   59.9800   30.8500   48.0930 C   0  0  0  0  0  0  0  0  0  0  0  0
   61.1810   31.7590   48.0180 C   0  0  0  0  0  0  0  0  0  0  0  0
   62.2950   31.3980   47.2430 C   0  0  0  0  0  0  0  0  0  0  0  0
   63.3830   32.2690   47.1270 C   0  0  0  0  0  0  0  0  0  0  0  0
   63.3640   33.5060   47.7770 C   0  0  0  0  0  0  0  0  0  0  0  0
   62.2570   33.8740   48.5460 C   0  0  0  0  0  0  0  0  0  0  0  0
   61.1670   33.0060   48.6660 C   0  0  0  0  0  0  0  0  0  0  0  0
   58.9509   29.2521   43.7603 H   0  0  0  0  0  0  0  0  0  0  0  0
   58.9469   27.4625   43.9349 H   0  0  0  0  0  0  0  0  0  0  0  0
   57.5946   31.7811   42.2778 H   0  0  0  0  0  0  0  0  0  0  0  0
   58.8573   33.9299   43.0648 H   0  0  0  0  0  0  0  0  0  0  0  0
   58.4680   28.6570   47.1570 H   0  0  0  0  0  0  0  0  0  0  0  0
   60.2959   28.8431   48.8313 H   0  0  0  0  0  0  0  0  0  0  0  0
   61.3982   29.3405   47.4917 H   0  0  0  0  0  0  0  0  0  0  0  0
   59.2584   31.1473   47.3179 H   0  0  0  0  0  0  0  0  0  0  0  0
   59.5397   30.9440   49.0967 H   0  0  0  0  0  0  0  0  0  0  0  0
   62.3119   30.4274   46.7257 H   0  0  0  0  0  0  0  0  0  0  0  0
   64.2556   31.9798   46.5229 H   0  0  0  0  0  0  0  0  0  0  0  0
   64.2205   34.1899   47.6832 H   0  0  0  0  0  0  0  0  0  0  0  0
   62.2428   34.8476   49.0577 H   0  0  0  0  0  0  0  0  0  0  0  0
   60.2958   33.3003   49.2696 H   0  0  0  0  0  0  0  0  0  0  0  0
  1  2  2  0
  2  3  1  0
  3  4  1  0
  4  5  1  0
  5  6  2  0
  5  7  2  0
  5  8  1  0
  8  9  2  0
  9 10  1  0
 10 11  2  0
 11 12  1  0
 11 13  1  0
  2 14  1  0
 14 15  1  0
 15 16  1  0
 16 17  1  0
 17 18  2  0
 18 19  1  0
 19 20  2  0
 20 21  1  0
 21 22  2  0
 13  8  1  0
 22 17  1  0
  3 23  1  0
  3 24  1  0
  9 25  1  0
 10 26  1  0
 14 27  1  0
 15 28  1  0
 15 29  1  0
 16 30  1  0
 16 31  1  0
 18 32  1  0
 19 33  1  0
 20 34  1  0
 21 35  1  0
 22 36  1  0
M  CHG  1   4  -1
M  END
>  <UniqueID>  (7) 
6

>  <SMILES>  (7) 
O=C(C[N-]S(=O)(=O)c1ccc(Br)s1)NCCc1ccccc1

>  <Energy>  (7) 
52.73113445910555

>  <Genealogy>  (7) 
O=C(C[N-]S(=O)(=O)c1ccc(Br)s1)NCCc1ccccc1 (protonated)
O=C(C[N-]S(=O)(=O)c1ccc(Br)s1)NCCc1ccccc1 (3D coordinates assigned)
O=C(C[N-]S(=O)(=O)c1ccc(Br)s1)NCCc1ccccc1 (optimized conformer: 52.73113445910555 kcal/mol)

>  <smiles>  (7) 
O=C(CNS(=O)(=O)c1ccc(Br)s1)NCCc1ccccc1

>  <score_type>  (7) 
oracle

>  <origin>  (7) 
adg

>  <m_score__min__energy>  (7) 
-9.0099999999999998

>  <m_primary>  (7) 
energy

$$$$
8:0
     RDKit          3D

 77 82  0  0  0  0  0  0  0  0999 V2000
   56.8250   26.3470   43.3820 H   0  0  0  0  0  0  0  0  0  0  0  0
   57.6330   25.9940   43.8790 O   0  0  0  0  0  0  0  0  0  0  0  0
   58.2290   26.7180   44.9070 C   0  0  0  0  0  0  0  0  0  0  0  0
   58.8250   26.1190   45.9630 N   0  0  0  0  0  0  0  0  0  0  0  0
   59.2630   27.1410   46.7210 C   0  0  0  0  0  0  0  0  0  0  0  0
   59.9470   27.0280   47.9290 C   0  0  0  0  0  0  0  0  0  0  0  0
   60.1918   26.0400   48.3460 H   0  0  0  0  0  0  0  0  0  0  0  0
   60.3200   28.2120   48.6080 C   0  0  0  0  0  0  0  0  0  0  0  0
   61.0520   28.1730   49.8050 O   0  0  0  0  0  0  0  0  0  0  0  0
   60.6430   28.7850   51.0230 C   0  0  0  0  0  0  0  0  0  0  0  0
   61.0308   28.2047   51.8732 H   0  0  0  0  0  0  0  0  0  0  0  0
   61.0378   29.8107   51.0686 H   0  0  0  0  0  0  0  0  0  0  0  0
   59.5443   28.8126   51.0686 H   0  0  0  0  0  0  0  0  0  0  0  0
   59.9640   29.4770   48.0620 C   0  0  0  0  0  0  0  0  0  0  0  0
   60.2560   30.6700   48.7340 O   0  0  0  0  0  0  0  0  0  0  0  0
   61.4420   31.4010   48.5600 C   0  0  0  0  0  0  0  0  0  0  0  0
   62.2450   31.1490   47.4910 N   0  0  0  0  0  0  0  0  0  0  0  0
   63.4060   31.8190   47.2820 C   0  0  0  0  0  0  0  0  0  0  0  0
   64.0220   31.5893   46.4000 H   0  0  0  0  0  0  0  0  0  0  0  0
   63.8180   32.7960   48.1820 C   0  0  0  0  0  0  0  0  0  0  0  0
   64.7584   33.3406   48.0116 H   0  0  0  0  0  0  0  0  0  0  0  0
   63.0320   33.0860   49.3080 C   0  0  0  0  0  0  0  0  0  0  0  0
   63.5270   34.1280   50.2900 C   0  0  0  0  0  0  0  0  0  0  0  0
   62.6612   34.6257   50.7511 H   0  0  0  0  0  0  0  0  0  0  0  0
   64.1472   34.8535   49.7432 H   0  0  0  0  0  0  0  0  0  0  0  0
   64.3530   33.5150   51.3530 N   0  0  0  0  0  0  0  0  0  0  0  0
   63.8440   32.1700   51.7340 C   0  0  0  0  0  0  0  0  0  0  0  0
   63.3935   31.7012   50.8467 H   0  0  0  0  0  0  0  0  0  0  0  0
   63.1095   32.3121   52.5404 H   0  0  0  0  0  0  0  0  0  0  0  0
   64.9420   31.2450   52.2710 C   0  0  0  0  0  0  0  0  0  0  0  0
   64.5131   30.2567   52.4930 H   0  0  0  0  0  0  0  0  0  0  0  0
   65.3669   31.6743   53.1903 H   0  0  0  0  0  0  0  0  0  0  0  0
   65.9970   31.1050   51.2630 N   0  0  0  0  0  0  0  0  0  0  0  0
   66.7340   29.8760   51.1460 C   0  0  0  0  0  0  0  0  0  0  0  0
   67.5180   29.6990   50.1720 O   0  0  0  0  0  0  0  0  0  0  0  0
   66.5750   28.8720   52.1120 O   0  0  0  0  0  0  0  0  0  0  0  0
   66.0270   27.5870   51.8280 C   0  0  0  0  0  0  0  0  0  0  0  0
   65.0314   27.7108   51.3768 H   0  0  0  0  0  0  0  0  0  0  0  0
   65.9527   27.0190   52.7671 H   0  0  0  0  0  0  0  0  0  0  0  0
   66.9220   26.8210   50.8620 C   0  0  0  0  0  0  0  0  0  0  0  0
   67.6370   26.2090   51.4315 H   0  0  0  0  0  0  0  0  0  0  0  0
   66.3036   26.1681   50.2285 H   0  0  0  0  0  0  0  0  0  0  0  0
   67.4716   27.5328   50.2285 H   0  0  0  0  0  0  0  0  0  0  0  0
   66.2990   32.2390   50.3830 C   0  0  0  0  0  0  0  0  0  0  0  0
   65.8041   32.0863   49.4125 H   0  0  0  0  0  0  0  0  0  0  0  0
   67.3886   32.3037   50.2462 H   0  0  0  0  0  0  0  0  0  0  0  0
   65.7970   33.5500   51.0060 C   0  0  0  0  0  0  0  0  0  0  0  0
   65.9647   34.3658   50.2874 H   0  0  0  0  0  0  0  0  0  0  0  0
   66.3554   33.7036   51.9412 H   0  0  0  0  0  0  0  0  0  0  0  0
   61.8190   32.3790   49.5070 C   0  0  0  0  0  0  0  0  0  0  0  0
   60.9530   32.6470   50.7160 C   0  0  0  0  0  0  0  0  0  0  0  0
   61.5355   32.4667   51.6315 H   0  0  0  0  0  0  0  0  0  0  0  0
   60.6121   33.6927   50.6983 H   0  0  0  0  0  0  0  0  0  0  0  0
   60.0810   31.9767   50.6983 H   0  0  0  0  0  0  0  0  0  0  0  0
   59.3150   29.5550   46.8130 C   0  0  0  0  0  0  0  0  0  0  0  0
   59.0110   30.7670   46.2860 F   0  0  0  0  0  0  0  0  0  0  0  0
   58.9630   28.3640   46.1710 C   0  0  0  0  0  0  0  0  0  0  0  0
   58.2900   28.1090   44.9870 C   0  0  0  0  0  0  0  0  0  0  0  0
   57.7610   29.0870   43.9750 C   0  0  0  0  0  0  0  0  0  0  0  0
   58.4836   29.9072   43.8517 H   0  0  0  0  0  0  0  0  0  0  0  0
   57.6140   28.5650   43.0179 H   0  0  0  0  0  0  0  0  0  0  0  0
   56.4500   29.6490   44.4270 C   0  0  0  0  0  0  0  0  0  0  0  0
   55.5630   28.8770   44.8860 O   0  0  0  0  0  0  0  0  0  0  0  0
   56.2230   31.0630   44.3270 N   0  0  0  0  0  0  0  0  0  0  0  0
   57.0120   32.0000   44.7610 C   0  0  0  0  0  0  0  0  0  0  0  0
   57.1320   32.3510   46.0670 N   0  0  0  0  0  0  0  0  0  0  0  0
   58.0600   33.3320   46.2130 C   0  0  0  0  0  0  0  0  0  0  0  0
   58.4220   33.9010   47.4350 C   0  0  0  0  0  0  0  0  0  0  0  0
   57.9429   33.5736   48.3695 H   0  0  0  0  0  0  0  0  0  0  0  0
   59.4110   34.9010   47.4490 C   0  0  0  0  0  0  0  0  0  0  0  0
   59.7119   35.3584   48.4031 H   0  0  0  0  0  0  0  0  0  0  0  0
   60.0190   35.3210   46.2490 C   0  0  0  0  0  0  0  0  0  0  0  0
   60.7921   36.1032   46.2712 H   0  0  0  0  0  0  0  0  0  0  0  0
   59.6420   34.7450   45.0250 C   0  0  0  0  0  0  0  0  0  0  0  0
   60.1070   35.0675   44.0817 H   0  0  0  0  0  0  0  0  0  0  0  0
   58.6630   33.7540   45.0380 C   0  0  0  0  0  0  0  0  0  0  0  0
   58.0350   32.8850   43.7460 S   0  0  0  0  0  0  0  0  0  0  0  0
  1  2  1  0
  2  3  1  0
  3  4  1  0
  4  5  1  0
  5  6  2  0
  6  7  1  0
  6  8  1  0
  8  9  1  0
  9 10  1  0
 10 11  1  0
 10 12  1  0
 10 13  1  0
  8 14  2  0
 14 15  1  0
 15 16  1  0
 16 17  2  0
 17 18  1  0
 18 19  1  0
 18 20  2  0
 20 21  1  0
 20 22  1  0
 22 23  1  0
 23 24  1  0
 23 25  1  0
 23 26  1  0
 26 27  1  0
 27 28  1  0
 27 29  1  0
 27 30  1  0
 30 31  1  0
 30 32  1  0
 30 33  1  0
 33 34  1  0
 34 35  2  0
 34 36  1  0
 36 37  1  0
 37 38  1  0
 37 39  1  0
 37 40  1  0
 40 41  1  0
 40 42  1  0
 40 43  1  0
 33 44  1  0
 44 45  1  0
 44 46  1  0
 44 47  1  0
 47 48  1  0
 47 49  1  0
 22 50  2  0
 50 51  1  0
 51 52  1  0
 51 53  1  0
 51 54  1  0
 14 55  1  0
 55 56  1  0
 55 57  2  0
 57 58  1  0
 58 59  1  0
 59 60  1  0
 59 61  1  0
 59 62  1  0
 62 63  2  0
 62 64  1  0
 64 65  2  0
 65 66  1  0
 66 67  1  0
 67 68  2  0
 68 69  1  0
 68 70  1  0
 70 71  1  0
 70 72  2  0
 72 73  1  0
 72 74  1  0
 74 75  1  0
 74 76  2  0
 76 77  1  0
 58  3  2  0
 77 65  1  0
 57  5  1  0
 76 67  1  0
 50 16  1  0
 47 26  1  0
M  CHG  2   4  -1  66  -1
M  END
>  <UniqueID>  (8) 
7

>  <SMILES>  (8) 
CCOC(=O)N1CCN(Cc2ccnc(Oc3c(OC)cc4[n-]c(O)c(CC(=O)/N=c5\[n-]c6ccccc6s5)c4c3F)c2C)CC1

>  <Energy>  (8) 
163.27247225880697

>  <Genealogy>  (8) 
CCOC(=O)N1CCN(Cc2ccnc(Oc3c(OC)cc4[n-]c(O)c(CC(=O)N=c5[n-]c6ccccc6s5)c4c3F)c2C)CC1 (protonated)
CCOC(=O)N1CCN(Cc2ccnc(Oc3c(OC)cc4[n-]c(O)c(CC(=O)/N=c5\[n-]c6ccccc6s5)c4c3F)c2C)CC1 (cis-trans isomerization)
CCOC(=O)N1CCN(Cc2ccnc(Oc3c(OC)cc4[n-]c(O)c(CC(=O)/N=c5\[n-]c6ccccc6s5)c4c3F)c2C)CC1 (3D coordinates assigned)
CCOC(=O)N1CCN(Cc2ccnc(Oc3c(OC)cc4[n-]c(O)c(CC(=O)/N=c5\[n-]c6ccccc6s5)c4c3F)c2C)CC1 (nonaromatic ring conformer: 163.27247225880697 kcal/mol)

>  <smiles>  (8) 
CCOC(=O)N1CCN(Cc2ccnc(Oc3c(OC)cc4[nH]c(O)c(CC(=O)N=c5[nH]c6ccccc6s5)c4c3F)c2C)CC1

>  <score_type>  (8) 
oracle

>  <origin>  (8) 
adg

>  <m_score__min__energy>  (8) 
-13.67

>  <m_primary>  (8) 
energy

$$$$
9:0
     RDKit          3D

 61 64  0  0  0  0  0  0  0  0999 V2000
   59.6430   35.5970   45.3100 C   0  0  0  0  0  0  0  0  0  0  0  0
   58.6810   34.5030   45.3280 N   0  0  0  0  0  0  0  0  0  0  0  0
   57.7290   34.3100   46.2610 C   0  0  0  0  0  0  0  0  0  0  0  0
   57.0430   33.1570   45.9500 C   0  0  0  0  0  0  0  0  0  0  0  0
   57.6510   32.6960   44.7930 C   0  0  0  0  0  0  0  0  0  0  0  0
   57.2390   31.4820   44.0150 C   0  0  0  0  0  0  0  0  0  0  0  0
   56.7500   30.4260   44.9050 N   0  0  0  0  0  0  0  0  0  0  0  0
   57.4850   29.7830   45.7650 C   0  0  0  0  0  0  0  0  0  0  0  0
   58.2660   30.4500   46.6580 N   0  0  0  0  0  0  0  0  0  0  0  0
   58.9880   29.7720   47.5890 C   0  0  0  0  0  0  0  0  0  0  0  0
   59.7020   30.4080   48.4720 N   0  0  0  0  0  0  0  0  0  0  0  0
   61.1640   30.4240   48.4740 C   0  0  0  0  0  0  0  0  0  0  0  0
   61.6670   31.7010   47.8890 C   0  0  0  0  0  0  0  0  0  0  0  0
   63.2580   31.9900   47.4150 S   0  0  0  0  0  0  0  0  0  0  0  0
   62.9050   33.5410   46.8690 C   0  0  0  0  0  0  0  0  0  0  0  0
   63.7490   34.3230   46.3580 O   0  0  0  0  0  0  0  0  0  0  0  0
   61.6050   33.8680   47.0370 N   0  0  0  0  0  0  0  0  0  0  0  0
   60.9110   32.8450   47.6110 C   0  0  0  0  0  0  0  0  0  0  0  0
   59.5500   32.9620   47.8880 O   0  0  0  0  0  0  0  0  0  0  0  0
   58.9430   28.4150   47.6090 N   0  0  0  0  0  0  0  0  0  0  0  0
   58.1810   27.7390   46.7040 C   0  0  0  0  0  0  0  0  0  0  0  0
   58.1400   26.4390   46.6970 N   0  0  0  0  0  0  0  0  0  0  0  0
   57.3020   25.6310   45.8050 C   0  0  1  0  0  0  0  0  0  0  0  0
   58.1430   24.4970   45.2070 C   0  0  0  0  0  0  0  0  0  0  0  0
   58.7390   23.7390   46.2220 O   0  0  0  0  0  0  0  0  0  0  0  0
   56.1290   25.0500   46.5610 C   0  0  0  0  0  0  0  0  0  0  0  0
   56.3000   24.6520   47.7480 O   0  0  0  0  0  0  0  0  0  0  0  0
   54.8450   24.8480   45.9540 N   0  0  0  0  0  0  0  0  0  0  0  0
   54.3060   23.5980   45.4170 C   0  0  0  0  0  0  0  0  0  0  0  0
   55.3870   22.7970   44.7260 C   0  0  0  0  0  0  0  0  0  0  0  0
   55.5670   22.9930   43.3390 C   0  0  0  0  0  0  0  0  0  0  0  0
   56.5660   22.3210   42.6410 C   0  0  0  0  0  0  0  0  0  0  0  0
   57.4210   21.4560   43.3140 C   0  0  0  0  0  0  0  0  0  0  0  0
   57.2720   21.2470   44.6830 C   0  0  0  0  0  0  0  0  0  0  0  0
   56.2630   21.9050   45.4190 C   0  0  0  0  0  0  0  0  0  0  0  0
   56.2160   21.6550   46.8920 C   0  0  0  0  0  0  0  0  0  0  0  0
   57.3090   21.9790   47.7490 N   0  0  0  0  0  0  0  0  0  0  0  0
   55.1660   21.1850   47.4100 O   0  0  0  0  0  0  0  0  0  0  0  0
   57.4480   28.4280   45.7920 N   0  0  0  0  0  0  0  0  0  0  0  0
   58.6540   33.5250   44.4360 N   0  0  0  0  0  0  0  0  0  0  0  0
   59.8936   35.8819   46.3425 H   0  0  0  0  0  0  0  0  0  0  0  0
   60.5554   35.2744   44.7870 H   0  0  0  0  0  0  0  0  0  0  0  0
   59.2064   36.4606   44.7870 H   0  0  0  0  0  0  0  0  0  0  0  0
   57.5328   34.9624   47.1246 H   0  0  0  0  0  0  0  0  0  0  0  0
   56.2025   32.7043   46.4964 H   0  0  0  0  0  0  0  0  0  0  0  0
   56.4387   31.7596   43.3133 H   0  0  0  0  0  0  0  0  0  0  0  0
   58.1159   31.1017   43.4706 H   0  0  0  0  0  0  0  0  0  0  0  0
   61.5268   30.3306   49.5082 H   0  0  0  0  0  0  0  0  0  0  0  0
   61.5326   29.5827   47.8688 H   0  0  0  0  0  0  0  0  0  0  0  0
   58.9130   32.1820   47.7720 H   0  0  0  0  0  0  0  0  0  0  0  0
   56.9164   26.2734   44.9996 H   0  0  0  0  0  0  0  0  0  0  0  0
   57.4945   23.8458   44.6025 H   0  0  0  0  0  0  0  0  0  0  0  0
   58.9336   24.9341   44.5794 H   0  0  0  0  0  0  0  0  0  0  0  0
   58.1600   23.8330   47.0220 H   0  0  0  0  0  0  0  0  0  0  0  0
   53.8879   23.0023   46.2418 H   0  0  0  0  0  0  0  0  0  0  0  0
   53.5236   23.8394   44.6825 H   0  0  0  0  0  0  0  0  0  0  0  0
   54.9062   23.6888   42.8012 H   0  0  0  0  0  0  0  0  0  0  0  0
   56.6789   22.4742   41.5576 H   0  0  0  0  0  0  0  0  0  0  0  0
   58.2180   20.9347   42.7635 H   0  0  0  0  0  0  0  0  0  0  0  0
   57.9536   20.5560   45.2006 H   0  0  0  0  0  0  0  0  0  0  0  0
   57.6170   22.9630   47.8810 H   0  0  0  0  0  0  0  0  0  0  0  0
  1  2  1  0
  2  3  1  0
  3  4  2  0
  4  5  1  0
  5  6  1  0
  6  7  1  0
  7  8  2  3
  8  9  1  0
  9 10  1  0
 10 11  2  3
 11 12  1  0
 12 13  1  0
 13 14  1  0
 14 15  1  0
 15 16  2  0
 15 17  1  0
 17 18  1  0
 18 19  1  0
 10 20  1  0
 20 21  1  0
 21 22  2  3
 22 23  1  0
 23 24  1  0
 24 25  1  0
 23 26  1  0
 26 27  2  0
 26 28  1  0
 28 29  1  0
 29 30  1  0
 30 31  2  0
 31 32  1  0
 32 33  2  0
 33 34  1  0
 34 35  2  0
 35 36  1  0
 36 37  1  0
 36 38  2  0
 21 39  1  0
  5 40  2  0
 40  2  1  0
 39  8  1  0
 18 13  2  0
 35 30  1  0
  1 41  1  0
  1 42  1  0
  1 43  1  0
  3 44  1  0
  4 45  1  0
  6 46  1  0
  6 47  1  0
 12 48  1  0
 12 49  1  0
 19 50  1  0
 23 51  1  6
 24 52  1  0
 24 53  1  0
 25 54  1  0
 29 55  1  0
 29 56  1  0
 31 57  1  0
 32 58  1  0
 33 59  1  0
 34 60  1  0
 37 61  1  0
M  CHG  6   9  -1  17  -1  20  -1  28  -1  37  -1  39  -1
M  END
>  <UniqueID>  (9) 
8

>  <SMILES>  (9) 
Cn1ccc(CN=c2[n-]c(=NCc3sc(=O)[n-]c3O)[n-]c(=N[C@@H](CO)C(=O)[N-]Cc3ccccc3C([NH-])=O)[n-]2)n1

>  <Energy>  (9) 
119.81543239202088

>  <Genealogy>  (9) 
Cn1ccc(CN=c2[n-]c(=NCc3sc(=O)[n-]c3O)[n-]c(=NC(CO)C(=O)[N-]Cc3ccccc3C([NH-])=O)[n-]2)n1 (protonated)
Cn1ccc(CN=c2[n-]c(=NCc3sc(=O)[n-]c3O)[n-]c(=N[C@@H](CO)C(=O)[N-]Cc3ccccc3C([NH-])=O)[n-]2)n1 (chirality)
Cn1ccc(CN=c2[n-]c(=NCc3sc(=O)[n-]c3O)[n-]c(=N[C@@H](CO)C(=O)[N-]Cc3ccccc3C([NH-])=O)[n-]2)n1 (3D coordinates assigned)
Cn1ccc(CN=c2[n-]c(=NCc3sc(=O)[n-]c3O)[n-]c(=N[C@@H](CO)C(=O)[N-]Cc3ccccc3C([NH-])=O)[n-]2)n1 (optimized conformer: 119.81543239202088 kcal/mol)

>  <smiles>  (9) 
Cn1ccc(CN=c2[nH]c(=NCc3sc(=O)[nH]c3O)[nH]c(=NC(CO)C(=O)NCc3ccccc3C(N)=O)[nH]2)n1

>  <score_type>  (9) 
oracle

>  <origin>  (9) 
adg

>  <m_score__min__energy>  (9) 
-17.84

>  <m_primary>  (9) 
energy

$$$$
10:0
     RDKit          3D

 47 48  0  0  0  0  0  0  0  0999 V2000
   57.7980   32.5530   43.1980 C   0  0  0  0  0  0  0  0  0  0  0  0
   57.4860   33.5020   44.2120 O   0  0  0  0  0  0  0  0  0  0  0  0
   58.2120   33.6620   45.4020 C   0  0  0  0  0  0  0  0  0  0  0  0
   59.4000   34.3950   45.3590 C   0  0  0  0  0  0  0  0  0  0  0  0
   60.1580   34.5870   46.5130 C   0  0  0  0  0  0  0  0  0  0  0  0
   59.7340   34.0560   47.7400 C   0  0  0  0  0  0  0  0  0  0  0  0
   60.5800   34.2510   48.9690 C   0  0  0  0  0  0  0  0  0  0  0  0
   61.4200   33.0780   49.1690 N   0  0  0  0  0  0  0  0  0  0  0  0
   61.9580   32.2730   48.1140 C   0  0  0  0  0  0  0  0  0  0  0  0
   62.8210   32.7810   47.3510 O   0  0  0  0  0  0  0  0  0  0  0  0
   61.5770   30.8200   47.9550 C   0  0  0  0  0  0  0  0  0  0  0  0
   60.6900   30.5680   46.7320 C   0  0  0  0  0  0  0  0  0  0  0  0
   59.4710   29.8710   47.1350 N   0  0  0  0  0  0  0  0  0  0  0  0
   58.5260   29.4720   45.7330 S   0  0  0  0  0  0  0  0  0  0  0  0
   59.4230   29.3730   44.5310 O   0  0  0  0  0  0  0  0  0  0  0  0
   57.5480   30.5840   45.4800 O   0  0  0  0  0  0  0  0  0  0  0  0
   57.6170   27.9690   46.0260 C   0  0  0  0  0  0  0  0  0  0  0  0
   58.1630   26.8410   46.6880 C   0  0  0  0  0  0  0  0  0  0  0  0
   59.5710   26.7960   47.1980 C   0  0  0  0  0  0  0  0  0  0  0  0
   57.3900   25.7370   46.8690 N   0  0  0  0  0  0  0  0  0  0  0  0
   56.1030   25.6900   46.4480 C   0  0  0  0  0  0  0  0  0  0  0  0
   55.4180   24.6510   46.6310 O   0  0  0  0  0  0  0  0  0  0  0  0
   55.5540   26.7630   45.8310 N   0  0  0  0  0  0  0  0  0  0  0  0
   56.2710   27.8940   45.6170 C   0  0  0  0  0  0  0  0  0  0  0  0
   55.7160   28.8730   45.0530 O   0  0  0  0  0  0  0  0  0  0  0  0
   58.5470   33.2960   47.7990 C   0  0  0  0  0  0  0  0  0  0  0  0
   58.1560   32.7450   49.0300 O   0  0  0  0  0  0  0  0  0  0  0  0
   58.6890   31.5490   49.5890 C   0  0  0  0  0  0  0  0  0  0  0  0
   57.7880   33.1100   46.6260 C   0  0  0  0  0  0  0  0  0  0  0  0
   58.1091   31.6067   43.6646 H   0  0  0  0  0  0  0  0  0  0  0  0
   56.9098   32.3789   42.5729 H   0  0  0  0  0  0  0  0  0  0  0  0
   58.6162   32.9400   42.5729 H   0  0  0  0  0  0  0  0  0  0  0  0
   59.7408   34.8249   44.4055 H   0  0  0  0  0  0  0  0  0  0  0  0
   61.0959   35.1594   46.4609 H   0  0  0  0  0  0  0  0  0  0  0  0
   61.2153   35.1397   48.8401 H   0  0  0  0  0  0  0  0  0  0  0  0
   59.9292   34.3906   49.8448 H   0  0  0  0  0  0  0  0  0  0  0  0
   62.4964   30.2252   47.8506 H   0  0  0  0  0  0  0  0  0  0  0  0
   61.0014   30.5297   48.8463 H   0  0  0  0  0  0  0  0  0  0  0  0
   60.4239   31.5303   46.2703 H   0  0  0  0  0  0  0  0  0  0  0  0
   61.2392   29.9470   46.0090 H   0  0  0  0  0  0  0  0  0  0  0  0
   59.5627   26.7963   48.2980 H   0  0  0  0  0  0  0  0  0  0  0  0
   60.0633   25.8817   46.8352 H   0  0  0  0  0  0  0  0  0  0  0  0
   60.1207   27.6770   46.8352 H   0  0  0  0  0  0  0  0  0  0  0  0
   58.6605   31.6129   50.6868 H   0  0  0  0  0  0  0  0  0  0  0  0
   58.0888   30.6894   49.2561 H   0  0  0  0  0  0  0  0  0  0  0  0
   59.7295   31.4206   49.2561 H   0  0  0  0  0  0  0  0  0  0  0  0
   56.8555   32.5280   46.6671 H   0  0  0  0  0  0  0  0  0  0  0  0
  1  2  1  0
  2  3  1  0
  3  4  2  0
  4  5  1  0
  5  6  2  0
  6  7  1  0
  7  8  1  0
  8  9  1  0
  9 10  2  0
  9 11  1  0
 11 12  1  0
 12 13  1  0
 13 14  1  0
 14 15  2  0
 14 16  2  0
 14 17  1  0
 17 18  2  0
 18 19  1  0
 18 20  1  0
 20 21  1  0
 21 22  2  0
 21 23  1  0
 23 24  1  0
 24 25  2  0
  6 26  1  0
 26 27  1  0
 27 28  1  0
 26 29  2  0
 29  3  1  0
 24 17  1  0
  1 30  1  0
  1 31  1  0
  1 32  1  0
  4 33  1  0
  5 34  1  0
  7 35  1  0
  7 36  1  0
 11 37  1  0
 11 38  1  0
 12 39  1  0
 12 40  1  0
 19 41  1  0
 19 42  1  0
 19 43  1  0
 28 44  1  0
 28 45  1  0
 28 46  1  0
 29 47  1  0
M  CHG  4   8  -1  13  -1  20  -1  23  -1
M  END
>  <UniqueID>  (10) 
9

>  <SMILES>  (10) 
COc1ccc(C[N-]C(=O)CC[N-]S(=O)(=O)c2c(C)[n-]c(=O)[n-]c2=O)c(OC)c1

>  <Energy>  (10) 
44.87049946821551

>  <Genealogy>  (10) 
COc1ccc(C[N-]C(=O)CC[N-]S(=O)(=O)c2c(C)[n-]c(=O)[n-]c2=O)c(OC)c1 (protonated)
COc1ccc(C[N-]C(=O)CC[N-]S(=O)(=O)c2c(C)[n-]c(=O)[n-]c2=O)c(OC)c1 (3D coordinates assigned)
COc1ccc(C[N-]C(=O)CC[N-]S(=O)(=O)c2c(C)[n-]c(=O)[n-]c2=O)c(OC)c1 (optimized conformer: 44.87049946821551 kcal/mol)

>  <smiles>  (10) 
COc1ccc(CNC(=O)CCNS(=O)(=O)c2c(C)[nH]c(=O)[nH]c2=O)c(OC)c1

>  <score_type>  (10) 
oracle

>  <origin>  (10) 
adg

>  <m_score__min__energy>  (10) 
-14.539999999999999

>  <m_primary>  (10) 
energy

$$$$
11:0
     RDKit          3D

 42 45  0  0  0  0  0  0  0  0999 V2000
   52.7140   19.2080   46.6490 C   0  0  0  0  0  0  0  0  0  0  0  0
   52.3610   20.3440   46.0410 C   0  0  0  0  0  0  0  0  0  0  0  0
   51.1890   20.4610   45.3900 N   0  0  0  0  0  0  0  0  0  0  0  0
   51.1300   21.7670   45.0700 C   0  0  0  0  0  0  0  0  0  0  0  0
   50.1570   22.2720   44.4490 O   0  0  0  0  0  0  0  0  0  0  0  0
   52.1900   22.4910   45.4740 N   0  0  0  0  0  0  0  0  0  0  0  0
   52.9950   21.5910   46.0710 C   0  0  0  0  0  0  0  0  0  0  0  0
   54.1950   21.9510   46.5630 C   0  0  0  0  0  0  0  0  0  0  0  0
   54.8880   23.2200   46.2950 C   0  0  0  0  0  0  0  0  0  0  0  0
   54.3040   24.4230   45.9250 C   0  0  0  0  0  0  0  0  0  0  0  0
   55.3110   25.3650   45.9910 C   0  0  0  0  0  0  0  0  0  0  0  0
   55.1510   26.7190   45.7220 O   0  0  0  0  0  0  0  0  0  0  0  0
   56.4750   24.8070   46.3750 N   0  0  0  0  0  0  0  0  0  0  0  0
   57.6850   25.5130   46.6830 C   0  0  0  0  0  0  0  0  0  0  0  0
   58.2340   26.4210   45.8650 C   0  0  0  0  0  0  0  0  0  0  0  0
   58.3500   27.8600   46.2050 C   0  0  0  0  0  0  0  0  0  0  0  0
   57.5840   28.8330   45.6900 C   0  0  0  0  0  0  0  0  0  0  0  0
   57.9340   30.2680   45.6310 C   0  0  0  0  0  0  0  0  0  0  0  0
   58.2870   31.0120   46.7100 N   0  0  0  0  0  0  0  0  0  0  0  0
   58.4250   32.2660   46.2340 C   0  0  0  0  0  0  0  0  0  0  0  0
   58.7870   33.3990   46.9610 C   0  0  0  0  0  0  0  0  0  0  0  0
   58.8660   34.6260   46.2750 C   0  0  0  0  0  0  0  0  0  0  0  0
   58.5820   34.6930   44.8920 C   0  0  0  0  0  0  0  0  0  0  0  0
   58.2170   33.5340   44.1830 C   0  0  0  0  0  0  0  0  0  0  0  0
   58.1500   32.3370   44.8920 C   0  0  0  0  0  0  0  0  0  0  0  0
   57.8250   31.0660   44.4970 C   0  0  0  0  0  0  0  0  0  0  0  0
   57.4660   30.6730   43.2100 O   0  0  0  0  0  0  0  0  0  0  0  0
   56.2030   23.5070   46.6100 C   0  0  0  0  0  0  0  0  0  0  0  0
   57.1150   22.6020   47.1420 O   0  0  0  0  0  0  0  0  0  0  0  0
   53.6786   19.1417   47.1736 H   0  0  0  0  0  0  0  0  0  0  0  0
   52.0401   18.3390   46.6250 H   0  0  0  0  0  0  0  0  0  0  0  0
   54.7020   21.2326   47.2239 H   0  0  0  0  0  0  0  0  0  0  0  0
   53.2554   24.5913   45.6383 H   0  0  0  0  0  0  0  0  0  0  0  0
   58.1870   25.2983   47.6380 H   0  0  0  0  0  0  0  0  0  0  0  0
   58.6183   26.0820   44.8917 H   0  0  0  0  0  0  0  0  0  0  0  0
   59.1213   28.1507   46.9334 H   0  0  0  0  0  0  0  0  0  0  0  0
   56.6093   28.5371   45.2749 H   0  0  0  0  0  0  0  0  0  0  0  0
   59.0042   33.3363   48.0375 H   0  0  0  0  0  0  0  0  0  0  0  0
   59.1507   35.5387   46.8191 H   0  0  0  0  0  0  0  0  0  0  0  0
   58.6468   35.6573   44.3668 H   0  0  0  0  0  0  0  0  0  0  0  0
   57.9925   33.5718   43.1068 H   0  0  0  0  0  0  0  0  0  0  0  0
   58.0400   30.0380   42.6720 H   0  0  0  0  0  0  0  0  0  0  0  0
  1  2  2  0
  2  3  1  0
  3  4  1  0
  4  5  2  0
  4  6  1  0
  6  7  1  0
  7  8  2  3
  8  9  1  0
  9 10  1  0
 10 11  2  0
 11 12  1  0
 11 13  1  0
 13 14  1  0
 14 15  2  3
 15 16  1  0
 16 17  2  3
 17 18  1  0
 18 19  1  0
 19 20  1  0
 20 21  2  0
 21 22  1  0
 22 23  2  0
 23 24  1  0
 24 25  2  0
 25 26  1  0
 26 27  1  0
 13 28  1  0
 28 29  1  0
  7  2  1  0
 28  9  2  0
 26 18  2  0
 25 20  1  0
  1 30  1  0
  1 31  1  0
  8 32  1  0
 10 33  1  0
 14 34  1  0
 15 35  1  0
 16 36  1  0
 17 37  1  0
 21 38  1  0
 22 39  1  0
 23 40  1  0
 24 41  1  0
 27 42  1  0
M  CHG  5   3  -1   6  -1  12  -1  19  -1  29  -1
M  END
>  <UniqueID>  (11) 
10

>  <SMILES>  (11) 
C=c1[n-]c(=O)[n-]c1=Cc1cc([O-])n(C=CC=Cc2[n-]c3ccccc3c2O)c1[O-]

>  <Energy>  (11) 
158.60262012177333

>  <Genealogy>  (11) 
C=c1[n-]c(=O)[n-]c1=Cc1cc([O-])n(C=CC=Cc2[n-]c3ccccc3c2O)c1[O-] (protonated)
C=c1[n-]c(=O)[n-]c1=Cc1cc([O-])n(C=CC=Cc2[n-]c3ccccc3c2O)c1[O-] (3D coordinates assigned)
C=c1[n-]c(=O)[n-]c1=Cc1cc([O-])n(C=CC=Cc2[n-]c3ccccc3c2O)c1[O-] (optimized conformer: 158.60262012177333 kcal/mol)

>  <smiles>  (11) 
C=c1[nH]c(=O)[nH]c1=Cc1cc(O)n(C=CC=Cc2[nH]c3ccccc3c2O)c1O

>  <score_type>  (11) 
oracle

>  <origin>  (11) 
adg

>  <m_score__min__energy>  (11) 
-17.32

>  <m_primary>  (11) 
energy

$$$$
12:0
     RDKit          3D

 43 45  0  0  0  0  0  0  0  0999 V2000
   55.1650   30.0470   44.5840 N   0  0  0  0  0  0  0  0  0  0  0  0
   56.6270   29.7170   43.7240 S   0  0  0  0  0  0  0  0  0  0  0  0
   56.3060   28.9670   42.4620 O   0  0  0  0  0  0  0  0  0  0  0  0
   57.2980   31.0110   43.3570 O   0  0  0  0  0  0  0  0  0  0  0  0
   57.6990   28.7530   44.7340 C   0  0  0  0  0  0  0  0  0  0  0  0
   57.1700   27.8340   45.6500 C   0  0  0  0  0  0  0  0  0  0  0  0
   58.0220   27.0750   46.4570 C   0  0  0  0  0  0  0  0  0  0  0  0
   59.4140   27.2310   46.3620 C   0  0  0  0  0  0  0  0  0  0  0  0
   60.3400   26.3940   47.2040 C   0  0  0  0  0  0  0  0  0  0  0  0
   60.6230   27.0610   48.4750 N   0  0  0  0  0  0  0  0  0  0  0  0
   60.3430   28.3020   48.7400 C   0  0  0  0  0  0  0  0  0  0  0  0
   61.1020   29.3130   48.2480 N   0  0  0  0  0  0  0  0  0  0  0  0
   60.7950   30.6040   48.5200 C   0  0  0  0  0  0  0  0  0  0  0  0
   61.5240   31.5160   48.0430 O   0  0  0  0  0  0  0  0  0  0  0  0
   59.7110   30.9070   49.3030 N   0  0  0  0  0  0  0  0  0  0  0  0
   59.3390   32.3110   49.5690 C   0  0  0  0  0  0  0  0  0  0  0  0
   59.0130   33.0210   48.2810 C   0  0  0  0  0  0  0  0  0  0  0  0
   59.5310   34.3020   48.0250 C   0  0  0  0  0  0  0  0  0  0  0  0
   59.1970   34.9730   46.8470 C   0  0  0  0  0  0  0  0  0  0  0  0
   58.3420   34.3780   45.9160 C   0  0  0  0  0  0  0  0  0  0  0  0
   57.8140   33.1030   46.1610 C   0  0  0  0  0  0  0  0  0  0  0  0
   56.9360   32.4940   45.2100 N   0  0  0  0  0  0  0  0  0  0  0  0
   58.1500   32.4290   47.3440 C   0  0  0  0  0  0  0  0  0  0  0  0
   58.9500   29.8780   49.7980 C   0  0  0  0  0  0  0  0  0  0  0  0
   57.9430   30.1080   50.5210 O   0  0  0  0  0  0  0  0  0  0  0  0
   59.2720   28.5920   49.5150 N   0  0  0  0  0  0  0  0  0  0  0  0
   59.9410   28.1570   45.4470 C   0  0  0  0  0  0  0  0  0  0  0  0
   59.0880   28.9150   44.6410 C   0  0  0  0  0  0  0  0  0  0  0  0
   54.7650   29.1260   44.8690 H   0  0  0  0  0  0  0  0  0  0  0  0
   56.0803   27.7095   45.7342 H   0  0  0  0  0  0  0  0  0  0  0  0
   57.5998   26.3517   47.1702 H   0  0  0  0  0  0  0  0  0  0  0  0
   59.8672   25.4210   47.4035 H   0  0  0  0  0  0  0  0  0  0  0  0
   61.2850   26.2527   46.6591 H   0  0  0  0  0  0  0  0  0  0  0  0
   58.4588   32.3340   50.2284 H   0  0  0  0  0  0  0  0  0  0  0  0
   60.1866   32.8193   50.0520 H   0  0  0  0  0  0  0  0  0  0  0  0
   60.2020   34.7778   48.7553 H   0  0  0  0  0  0  0  0  0  0  0  0
   59.6087   35.9741   46.6512 H   0  0  0  0  0  0  0  0  0  0  0  0
   58.0828   34.9110   44.9893 H   0  0  0  0  0  0  0  0  0  0  0  0
   56.4680   31.5840   45.4200 H   0  0  0  0  0  0  0  0  0  0  0  0
   56.7450   32.9500   44.2900 H   0  0  0  0  0  0  0  0  0  0  0  0
   57.7347   31.4294   47.5396 H   0  0  0  0  0  0  0  0  0  0  0  0
   61.0303   28.2860   45.3646 H   0  0  0  0  0  0  0  0  0  0  0  0
   59.5083   29.6420   43.9305 H   0  0  0  0  0  0  0  0  0  0  0  0
  1  2  1  0
  2  3  2  0
  2  4  2  0
  2  5  1  0
  5  6  2  0
  6  7  1  0
  7  8  2  0
  8  9  1  0
  9 10  1  0
 10 11  2  3
 11 12  1  0
 12 13  1  0
 13 14  2  0
 13 15  1  0
 15 16  1  0
 16 17  1  0
 17 18  2  0
 18 19  1  0
 19 20  2  0
 20 21  1  0
 21 22  1  0
 21 23  2  0
 15 24  1  0
 24 25  2  0
 24 26  1  0
  8 27  1  0
 27 28  2  0
 28  5  1  0
 26 11  1  0
 23 17  1  0
  1 29  1  0
  6 30  1  0
  7 31  1  0
  9 32  1  0
  9 33  1  0
 16 34  1  0
 16 35  1  0
 18 36  1  0
 19 37  1  0
 20 38  1  0
 22 39  1  0
 22 40  1  0
 23 41  1  0
 27 42  1  0
 28 43  1  0
M  CHG  3   1  -1  12  -1  26  -1
M  END
>  <UniqueID>  (12) 
11

>  <SMILES>  (12) 
[NH-]S(=O)(=O)c1ccc(CN=c2[n-]c(=O)n(Cc3cccc(N)c3)c(=O)[n-]2)cc1

>  <Energy>  (12) 
46.57750354647698

>  <Genealogy>  (12) 
[NH-]S(=O)(=O)c1ccc(CN=c2[n-]c(=O)n(Cc3cccc(N)c3)c(=O)[n-]2)cc1 (protonated)
[NH-]S(=O)(=O)c1ccc(CN=c2[n-]c(=O)n(Cc3cccc(N)c3)c(=O)[n-]2)cc1 (3D coordinates assigned)
[NH-]S(=O)(=O)c1ccc(CN=c2[n-]c(=O)n(Cc3cccc(N)c3)c(=O)[n-]2)cc1 (optimized conformer: 46.57750354647698 kcal/mol)

>  <smiles>  (12) 
Nc1cccc(Cn2c(=O)[nH]c(=NCc3ccc(S(N)(=O)=O)cc3)[nH]c2=O)c1

>  <score_type>  (12) 
oracle

>  <origin>  (12) 
adg

>  <m_score__min__energy>  (12) 
-13.699999999999999

>  <m_primary>  (12) 
energy

$$$$
13:0
     RDKit          3D

 54 57  0  0  0  0  0  0  0  0999 V2000
   60.1040   29.6110   46.2800 C   0  0  0  0  0  0  0  0  0  0  0  0
   59.3870   30.6460   45.8140 C   0  0  0  0  0  0  0  0  0  0  0  0
   58.3670   30.5850   44.8580 C   0  0  0  0  0  0  0  0  0  0  0  0
   57.9100   29.4920   44.2160 C   0  0  0  0  0  0  0  0  0  0  0  0
   57.3850   28.2960   44.9110 C   0  0  0  0  0  0  0  0  0  0  0  0
   56.0180   28.2020   45.2120 C   0  0  0  0  0  0  0  0  0  0  0  0
   55.1510   29.2410   44.8970 O   0  0  0  0  0  0  0  0  0  0  0  0
   55.5330   27.0930   45.8270 N   0  0  0  0  0  0  0  0  0  0  0  0
   56.3480   26.0550   46.1460 C   0  0  0  0  0  0  0  0  0  0  0  0
   55.8770   25.0390   46.7200 O   0  0  0  0  0  0  0  0  0  0  0  0
   57.6700   26.1110   45.8420 N   0  0  0  0  0  0  0  0  0  0  0  0
   58.2040   27.1960   45.2270 C   0  0  0  0  0  0  0  0  0  0  0  0
   59.4290   27.1970   44.9290 O   0  0  0  0  0  0  0  0  0  0  0  0
   57.9410   31.8910   44.6580 C   0  0  0  0  0  0  0  0  0  0  0  0
   58.6930   32.6860   45.4990 C   0  0  0  0  0  0  0  0  0  0  0  0
   58.5730   34.1770   45.5930 C   0  0  0  0  0  0  0  0  0  0  0  0
   59.5750   31.9340   46.1960 N   0  0  0  0  0  0  0  0  0  0  0  0
   60.5150   32.4260   47.1680 C   0  0  0  0  0  0  0  0  0  0  0  0
   61.8280   32.7330   46.7870 C   0  0  0  0  0  0  0  0  0  0  0  0
   62.7460   33.1960   47.7350 C   0  0  0  0  0  0  0  0  0  0  0  0
   62.3590   33.3680   49.0750 C   0  0  0  0  0  0  0  0  0  0  0  0
   63.3390   33.8440   50.0750 C   0  0  0  0  0  0  0  0  0  0  0  0
   63.0810   34.8880   50.7350 O   0  0  0  0  0  0  0  0  0  0  0  0
   64.5750   33.1430   50.3140 N   0  0  0  0  0  0  0  0  0  0  0  0
   65.7320   33.8740   50.8410 C   0  0  0  0  0  0  0  0  0  0  0  0
   67.0270   33.1210   50.5090 C   0  0  0  0  0  0  0  0  0  0  0  0
   67.0190   31.7010   50.9510 N   0  0  0  0  0  0  0  0  0  0  0  0
   67.9220   31.4890   52.0930 C   0  0  0  0  0  0  0  0  0  0  0  0
   65.6760   31.1530   51.2540 C   0  0  0  0  0  0  0  0  0  0  0  0
   64.6170   31.6740   50.2780 C   0  0  0  0  0  0  0  0  0  0  0  0
   61.0470   33.0410   49.4560 C   0  0  0  0  0  0  0  0  0  0  0  0
   60.1310   32.5770   48.5080 C   0  0  0  0  0  0  0  0  0  0  0  0
   60.8855   29.7792   47.0357 H   0  0  0  0  0  0  0  0  0  0  0  0
   59.9100   28.5948   45.9062 H   0  0  0  0  0  0  0  0  0  0  0  0
   57.9282   29.4887   43.1162 H   0  0  0  0  0  0  0  0  0  0  0  0
   57.1565   32.2270   43.9640 H   0  0  0  0  0  0  0  0  0  0  0  0
   58.5489   34.4769   46.6510 H   0  0  0  0  0  0  0  0  0  0  0  0
   59.4363   34.6462   45.0985 H   0  0  0  0  0  0  0  0  0  0  0  0
   57.6458   34.5021   45.0985 H   0  0  0  0  0  0  0  0  0  0  0  0
   62.1377   32.6094   45.7388 H   0  0  0  0  0  0  0  0  0  0  0  0
   63.7773   33.4270   47.4299 H   0  0  0  0  0  0  0  0  0  0  0  0
   65.7670   34.8756   50.3875 H   0  0  0  0  0  0  0  0  0  0  0  0
   65.6360   33.9610   51.9333 H   0  0  0  0  0  0  0  0  0  0  0  0
   67.1740   33.1453   49.4191 H   0  0  0  0  0  0  0  0  0  0  0  0
   67.8411   33.6236   51.0518 H   0  0  0  0  0  0  0  0  0  0  0  0
   67.3633   31.6202   53.0315 H   0  0  0  0  0  0  0  0  0  0  0  0
   68.3336   30.4698   52.0507 H   0  0  0  0  0  0  0  0  0  0  0  0
   68.7442   32.2185   52.0507 H   0  0  0  0  0  0  0  0  0  0  0  0
   65.7150   30.0559   51.1850 H   0  0  0  0  0  0  0  0  0  0  0  0
   65.3955   31.4751   52.2677 H   0  0  0  0  0  0  0  0  0  0  0  0
   64.8666   31.3421   49.2594 H   0  0  0  0  0  0  0  0  0  0  0  0
   63.6330   31.2787   50.5702 H   0  0  0  0  0  0  0  0  0  0  0  0
   60.7390   33.1508   50.5063 H   0  0  0  0  0  0  0  0  0  0  0  0
   59.1041   32.3291   48.8145 H   0  0  0  0  0  0  0  0  0  0  0  0
  1  2  2  0
  2  3  1  0
  3  4  2  3
  4  5  1  0
  5  6  2  0
  6  7  1  0
  6  8  1  0
  8  9  1  0
  9 10  2  0
  9 11  1  0
 11 12  1  0
 12 13  2  0
  3 14  1  0
 14 15  2  0
 15 16  1  0
 15 17  1  0
 17 18  1  0
 18 19  2  0
 19 20  1  0
 20 21  2  0
 21 22  1  0
 22 23  2  0
 22 24  1  0
 24 25  1  0
 25 26  1  0
 26 27  1  0
 27 28  1  0
 27 29  1  0
 29 30  1  0
 21 31  1  0
 31 32  2  0
 17  2  1  0
 32 18  1  0
 12  5  1  0
 30 24  1  0
  1 33  1  0
  1 34  1  0
  4 35  1  0
 14 36  1  0
 16 37  1  0
 16 38  1  0
 16 39  1  0
 19 40  1  0
 20 41  1  0
 25 42  1  0
 25 43  1  0
 26 44  1  0
 26 45  1  0
 28 46  1  0
 28 47  1  0
 28 48  1  0
 29 49  1  0
 29 50  1  0
 30 51  1  0
 30 52  1  0
 31 53  1  0
 32 54  1  0
M  CHG  3   7  -1   8  -1  11  -1
M  END
>  <UniqueID>  (13) 
12

>  <SMILES>  (13) 
C=c1c(=Cc2c([O-])[n-]c(=O)[n-]c2=O)cc(C)n1-c1ccc(C(=O)N2CCN(C)CC2)cc1

>  <Energy>  (13) 
113.24974729373211

>  <Genealogy>  (13) 
C=c1c(=Cc2c([O-])[n-]c(=O)[n-]c2=O)cc(C)n1-c1ccc(C(=O)N2CCN(C)CC2)cc1 (protonated)
C=c1c(=Cc2c([O-])[n-]c(=O)[n-]c2=O)cc(C)n1-c1ccc(C(=O)N2CCN(C)CC2)cc1 (3D coordinates assigned)
C=c1c(=Cc2c([O-])[n-]c(=O)[n-]c2=O)cc(C)n1-c1ccc(C(=O)N2CCN(C)CC2)cc1 (nonaromatic ring conformer: 113.24974729373211 kcal/mol)

>  <smiles>  (13) 
C=c1c(=Cc2c(O)[nH]c(=O)[nH]c2=O)cc(C)n1-c1ccc(C(=O)N2CCN(C)CC2)cc1

>  <score_type>  (13) 
oracle

>  <origin>  (13) 
adg

>  <m_score__min__energy>  (13) 
-16.489999999999998

>  <m_primary>  (13) 
energy

$$$$
14:0
     RDKit          3D

 56 59  0  0  0  0  0  0  0  0999 V2000
   63.3250   34.2950   50.8900 O   0  0  0  0  0  0  0  0  0  0  0  0
   62.1440   34.0560   50.5230 C   0  0  0  0  0  0  0  0  0  0  0  0
   61.1380   33.8600   51.5250 N   0  0  0  0  0  0  0  0  0  0  0  0
   60.0910   32.8790   51.4860 C   0  0  0  0  0  0  0  0  0  0  0  0
   58.7670   33.2870   51.6880 C   0  0  0  0  0  0  0  0  0  0  0  0
   57.7300   32.3490   51.6720 C   0  0  0  0  0  0  0  0  0  0  0  0
   58.0080   30.9990   51.4440 C   0  0  0  0  0  0  0  0  0  0  0  0
   59.3260   30.5800   51.2080 C   0  0  0  0  0  0  0  0  0  0  0  0
   59.6350   29.1170   51.0060 C   0  0  0  0  0  0  0  0  0  0  0  0
   59.4440   28.7130   49.5940 N   0  0  0  0  0  0  0  0  0  0  0  0
   59.1060   29.9080   48.7780 C   0  0  0  0  0  0  0  0  0  0  0  0
   60.3300   30.7740   48.4090 C   0  0  0  0  0  0  0  0  0  0  0  0
   61.2680   30.2010   47.3120 C   0  0  0  0  0  0  0  0  0  0  0  0
   60.8060   28.9260   46.7320 N   0  0  0  0  0  0  0  0  0  0  0  0
   60.4690   28.8450   45.3050 C   0  0  0  0  0  0  0  0  0  0  0  0
   58.9810   28.9760   45.1140 C   0  0  0  0  0  0  0  0  0  0  0  0
   58.1320   27.9080   45.4510 C   0  0  0  0  0  0  0  0  0  0  0  0
   56.7510   28.0160   45.2540 C   0  0  0  0  0  0  0  0  0  0  0  0
   56.2090   29.1870   44.7170 C   0  0  0  0  0  0  0  0  0  0  0  0
   54.8360   29.2970   44.5320 O   0  0  0  0  0  0  0  0  0  0  0  0
   57.0490   30.2500   44.3690 C   0  0  0  0  0  0  0  0  0  0  0  0
   58.4290   30.1450   44.5640 C   0  0  0  0  0  0  0  0  0  0  0  0
   60.5650   27.7910   47.5870 C   0  0  0  0  0  0  0  0  0  0  0  0
   60.4040   26.6420   47.0970 O   0  0  0  0  0  0  0  0  0  0  0  0
   60.6090   27.9510   49.0780 C   0  0  0  0  0  0  0  0  0  0  0  0
   60.3630   31.5270   51.2140 C   0  0  0  0  0  0  0  0  0  0  0  0
   61.8520   33.9450   49.0780 C   0  0  0  0  0  0  0  0  0  0  0  0
   62.8510   33.5940   48.1550 C   0  0  0  0  0  0  0  0  0  0  0  0
   62.5350   33.5320   46.7960 C   0  0  0  0  0  0  0  0  0  0  0  0
   61.2410   33.8260   46.3660 C   0  0  0  0  0  0  0  0  0  0  0  0
   60.2730   34.1750   47.3100 C   0  0  0  0  0  0  0  0  0  0  0  0
   60.5980   34.2290   48.6300 N   0  0  0  0  0  0  0  0  0  0  0  0
   58.5416   34.3498   51.8600 H   0  0  0  0  0  0  0  0  0  0  0  0
   56.6928   32.6749   51.8394 H   0  0  0  0  0  0  0  0  0  0  0  0
   57.1911   30.2624   51.4495 H   0  0  0  0  0  0  0  0  0  0  0  0
   60.6800   28.9292   51.2935 H   0  0  0  0  0  0  0  0  0  0  0  0
   58.9460   28.5289   51.6300 H   0  0  0  0  0  0  0  0  0  0  0  0
   58.6272   29.5690   47.8475 H   0  0  0  0  0  0  0  0  0  0  0  0
   58.4400   30.5360   49.3880 H   0  0  0  0  0  0  0  0  0  0  0  0
   59.9587   31.7482   48.0581 H   0  0  0  0  0  0  0  0  0  0  0  0
   60.9411   30.8253   49.3222 H   0  0  0  0  0  0  0  0  0  0  0  0
   61.3453   30.9413   46.5021 H   0  0  0  0  0  0  0  0  0  0  0  0
   62.2352   29.9983   47.7952 H   0  0  0  0  0  0  0  0  0  0  0  0
   60.9776   29.6571   44.7648 H   0  0  0  0  0  0  0  0  0  0  0  0
   60.7968   27.8707   44.9134 H   0  0  0  0  0  0  0  0  0  0  0  0
   58.5548   26.9836   45.8713 H   0  0  0  0  0  0  0  0  0  0  0  0
   56.0908   27.1780   45.5222 H   0  0  0  0  0  0  0  0  0  0  0  0
   56.6230   31.1696   43.9414 H   0  0  0  0  0  0  0  0  0  0  0  0
   59.0862   30.9819   44.2854 H   0  0  0  0  0  0  0  0  0  0  0  0
   60.6135   26.9534   49.5415 H   0  0  0  0  0  0  0  0  0  0  0  0
   61.5198   28.5135   49.3309 H   0  0  0  0  0  0  0  0  0  0  0  0
   61.3949   31.2087   51.0045 H   0  0  0  0  0  0  0  0  0  0  0  0
   63.8716   33.3703   48.4990 H   0  0  0  0  0  0  0  0  0  0  0  0
   63.3069   33.2512   46.0644 H   0  0  0  0  0  0  0  0  0  0  0  0
   60.9863   33.7835   45.2967 H   0  0  0  0  0  0  0  0  0  0  0  0
   59.2475   34.4063   46.9863 H   0  0  0  0  0  0  0  0  0  0  0  0
  1  2  2  0
  2  3  1  0
  3  4  1  0
  4  5  2  0
  5  6  1  0
  6  7  2  0
  7  8  1  0
  8  9  1  0
  9 10  1  0
 10 11  1  0
 11 12  1  0
 12 13  1  0
 13 14  1  0
 14 15  1  0
 15 16  1  0
 16 17  2  0
 17 18  1  0
 18 19  2  0
 19 20  1  0
 19 21  1  0
 21 22  2  0
 14 23  1  0
 23 24  2  0
 23 25  1  0
  8 26  2  0
  2 27  1  0
 27 28  2  0
 28 29  1  0
 29 30  2  0
 30 31  1  0
 31 32  2  0
 26  4  1  0
 32 27  1  0
 25 10  1  0
 22 16  1  0
  5 33  1  0
  6 34  1  0
  7 35  1  0
  9 36  1  0
  9 37  1  0
 11 38  1  0
 11 39  1  0
 12 40  1  0
 12 41  1  0
 13 42  1  0
 13 43  1  0
 15 44  1  0
 15 45  1  0
 17 46  1  0
 18 47  1  0
 21 48  1  0
 22 49  1  0
 25 50  1  0
 25 51  1  0
 26 52  1  0
 28 53  1  0
 29 54  1  0
 30 55  1  0
 31 56  1  0
M  CHG  2   3  -1  20  -1
M  END
>  <UniqueID>  (14) 
13

>  <SMILES>  (14) 
O=C([N-]c1cccc(CN2CCCN(Cc3ccc([O-])cc3)C(=O)C2)c1)c1ccccn1

>  <Energy>  (14) 
72.6129887491708

>  <Genealogy>  (14) 
O=C([N-]c1cccc(CN2CCCN(Cc3ccc([O-])cc3)C(=O)C2)c1)c1ccccn1 (protonated)
O=C([N-]c1cccc(CN2CCCN(Cc3ccc([O-])cc3)C(=O)C2)c1)c1ccccn1 (3D coordinates assigned)
O=C([N-]c1cccc(CN2CCCN(Cc3ccc([O-])cc3)C(=O)C2)c1)c1ccccn1 (nonaromatic ring conformer: 72.6129887491708 kcal/mol)

>  <smiles>  (14) 
O=C(Nc1cccc(CN2CCCN(Cc3ccc(O)cc3)C(=O)C2)c1)c1ccccn1

>  <score_type>  (14) 
oracle

>  <origin>  (14) 
adg

>  <m_score__min__energy>  (14) 
-11.93

>  <m_primary>  (14) 
energy

$$$$
15:0
     RDKit          3D

 45 48  0  0  1  0  0  0  0  0999 V2000
   56.6770   31.5100   44.9110 O   0  0  0  0  0  0  0  0  0  0  0  0
   57.8600   31.8160   45.1970 C   0  0  0  0  0  0  0  0  0  0  0  0
   58.1340   33.2350   45.4110 C   0  0  0  0  0  0  0  0  0  0  0  0
   58.8210   33.7260   46.4110 C   0  0  0  0  0  0  0  0  0  0  0  0
   60.0940   33.2070   46.8900 C   0  0  0  0  0  0  0  0  0  0  0  0
   60.1440   32.2650   47.9270 C   0  0  0  0  0  0  0  0  0  0  0  0
   61.3340   31.7600   48.3970 C   0  0  0  0  0  0  0  0  0  0  0  0
   62.5440   32.1570   47.8700 C   0  0  0  0  0  0  0  0  0  0  0  0
   63.7040   31.6100   48.3890 O   0  0  0  0  0  0  0  0  0  0  0  0
   62.5190   33.0810   46.8500 C   0  0  0  0  0  0  0  0  0  0  0  0
   63.7480   33.4740   46.3250 O   0  0  0  0  0  0  0  0  0  0  0  0
   61.3170   33.5860   46.3800 C   0  0  0  0  0  0  0  0  0  0  0  0
   58.8330   30.7970   45.2940 N   0  0  0  0  0  0  0  0  0  0  0  0
   58.6600   29.4280   45.1080 C   0  0  0  0  0  0  0  0  0  0  0  0
   58.0190   28.8110   44.0720 C   0  0  0  0  0  0  0  0  0  0  0  0
   57.8900   27.4270   43.9650 C   0  0  0  0  0  0  0  0  0  0  0  0
   58.4200   26.5950   44.9260 C   0  0  0  0  0  0  0  0  0  0  0  0
   58.3220   25.1430   44.8750 C   0  0  0  0  0  0  0  0  0  0  0  0
   59.1860   24.3870   45.6750 C   0  0  0  0  0  0  0  0  0  0  0  0
   59.1370   23.0350   45.6640 N   0  0  0  0  0  0  0  0  0  0  0  0
   58.2480   22.4180   44.8760 C   0  0  0  0  0  0  0  0  0  0  0  0
   58.0360   21.0980   44.7160 N   0  0  0  0  0  0  0  0  0  0  0  0
   57.0510   20.9440   43.8300 N   0  0  0  0  0  0  0  0  0  0  0  0
   56.6280   22.1700   43.4180 C   0  0  0  0  0  0  0  0  0  0  0  0
   55.7170   22.4390   42.5870 O   0  0  0  0  0  0  0  0  0  0  0  0
   57.3810   23.1430   44.0740 C   0  0  0  0  0  0  0  0  0  0  0  0
   57.4150   24.5150   44.0720 C   0  0  0  0  0  0  0  0  0  0  0  0
   59.0710   27.1970   45.9800 C   0  0  0  0  0  0  0  0  0  0  0  0
   59.1940   28.5650   46.0800 C   0  0  0  0  0  0  0  0  0  0  0  0
   57.7316   33.9460   44.6744 H   0  0  0  0  0  0  0  0  0  0  0  0
   58.4031   34.6006   46.9310 H   0  0  0  0  0  0  0  0  0  0  0  0
   59.2026   31.9190   48.3787 H   0  0  0  0  0  0  0  0  0  0  0  0
   61.3196   31.0220   49.2126 H   0  0  0  0  0  0  0  0  0  0  0  0
   64.5930   31.7760   47.9430 H   0  0  0  0  0  0  0  0  0  0  0  0
   64.6180   33.0510   46.5430 H   0  0  0  0  0  0  0  0  0  0  0  0
   61.3401   34.3224   45.5632 H   0  0  0  0  0  0  0  0  0  0  0  0
   59.8120   31.1360   45.5400 H   0  0  0  0  0  0  0  0  0  0  0  0
   57.5819   29.4384   43.2812 H   0  0  0  0  0  0  0  0  0  0  0  0
   57.3592   26.9949   43.1038 H   0  0  0  0  0  0  0  0  0  0  0  0
   59.9145   24.8986   46.3212 H   0  0  0  0  0  0  0  0  0  0  0  0
   58.5090   20.2960   45.1630 H   0  0  0  0  0  0  0  0  0  0  0  0
   56.6640   20.0300   43.5030 H   0  0  0  0  0  0  0  0  0  0  0  0
   56.7276   25.0945   43.4383 H   0  0  0  0  0  0  0  0  0  0  0  0
   59.5068   26.5646   46.7674 H   0  0  0  0  0  0  0  0  0  0  0  0
   59.7242   28.9934   46.9434 H   0  0  0  0  0  0  0  0  0  0  0  0
  1  2  2  0
  2  3  1  0
  3  4  2  0
  4  5  1  0
  5  6  2  0
  6  7  1  0
  7  8  2  0
  8  9  1  0
  8 10  1  0
 10 11  1  0
 10 12  2  0
  2 13  1  0
 13 14  1  0
 14 15  2  0
 15 16  1  0
 16 17  2  0
 17 18  1  0
 18 19  2  0
 19 20  1  0
 20 21  2  0
 21 22  1  0
 22 23  1  0
 23 24  1  0
 24 25  2  0
 24 26  1  0
 26 27  2  0
 17 28  1  0
 28 29  2  0
 12  5  1  0
 29 14  1  0
 27 18  1  0
 26 21  1  0
  3 30  1  0
  4 31  1  0
  6 32  1  0
  7 33  1  0
  9 34  1  0
 11 35  1  0
 12 36  1  0
 13 37  1  0
 15 38  1  0
 16 39  1  0
 19 40  1  0
 22 41  1  0
 23 42  1  0
 27 43  1  0
 28 44  1  0
 29 45  1  0
M  END
>  <smiles>  (15) 
O=C(C=Cc1ccc(O)c(O)c1)Nc1ccc(-c2cnc3[nH][nH]c(=O)c3c2)cc1

>  <score_type>  (15) 
oracle

>  <origin>  (15) 
adg

>  <m_score__min__energy>  (15) 
-9.3200000000000003

>  <m_primary>  (15) 
energy

$$$$
16:0
     RDKit          3D

 54 57  0  0  0  0  0  0  0  0999 V2000
   56.7387   21.7172   42.2194 H   0  0  0  0  0  0  0  0  0  0  0  0
   56.8440   21.7460   43.3140 C   0  0  0  0  0  0  0  0  0  0  0  0
   56.9666   20.8105   43.8796 H   0  0  0  0  0  0  0  0  0  0  0  0
   56.8230   22.9200   43.9580 C   0  0  0  0  0  0  0  0  0  0  0  0
   56.9670   22.9370   45.4380 C   0  0  0  0  0  0  0  0  0  0  0  0
   57.0130   21.9833   45.9841 H   0  0  0  0  0  0  0  0  0  0  0  0
   57.0420   24.0870   46.1220 C   0  0  0  0  0  0  0  0  0  0  0  0
   57.3790   24.0210   47.5880 C   0  0  0  0  0  0  0  0  0  0  0  0
   56.4701   24.1990   48.1815 H   0  0  0  0  0  0  0  0  0  0  0  0
   57.7839   23.0265   47.8267 H   0  0  0  0  0  0  0  0  0  0  0  0
   58.1292   24.7893   47.8267 H   0  0  0  0  0  0  0  0  0  0  0  0
   56.9400   25.3770   45.3800 C   0  0  0  0  0  0  0  0  0  0  0  0
   56.5970   26.5560   45.9440 C   0  0  0  0  0  0  0  0  0  0  0  0
   55.8414   26.5527   46.7434 H   0  0  0  0  0  0  0  0  0  0  0  0
   57.1680   27.8090   45.5530 N   0  0  0  0  0  0  0  0  0  0  0  0
   56.5330   28.8660   45.0230 C   0  0  0  0  0  0  0  0  0  0  0  0
   55.1540   28.9680   44.8680 O   0  0  0  0  0  0  0  0  0  0  0  0
   57.4700   29.8010   44.6410 C   0  0  0  0  0  0  0  0  0  0  0  0
   57.1900   31.1470   44.0540 C   0  0  0  0  0  0  0  0  0  0  0  0
   57.6039   31.1924   43.0359 H   0  0  0  0  0  0  0  0  0  0  0  0
   56.1020   31.3062   44.0251 H   0  0  0  0  0  0  0  0  0  0  0  0
   57.8200   32.2220   44.8940 C   0  0  0  0  0  0  0  0  0  0  0  0
   57.6850   33.5840   44.5250 C   0  0  0  0  0  0  0  0  0  0  0  0
   57.1156   33.8498   43.6221 H   0  0  0  0  0  0  0  0  0  0  0  0
   58.2720   34.5990   45.3020 C   0  0  0  0  0  0  0  0  0  0  0  0
   58.1606   35.6586   45.0283 H   0  0  0  0  0  0  0  0  0  0  0  0
   58.9990   34.2210   46.4290 C   0  0  0  0  0  0  0  0  0  0  0  0
   59.1550   32.9040   46.7780 C   0  0  0  0  0  0  0  0  0  0  0  0
   58.5810   31.8750   46.0330 C   0  0  0  0  0  0  0  0  0  0  0  0
   58.7166   30.8228   46.3235 H   0  0  0  0  0  0  0  0  0  0  0  0
   59.9100   32.8840   47.9360 C   0  0  0  0  0  0  0  0  0  0  0  0
   60.3130   31.6900   48.7520 C   0  0  0  0  0  0  0  0  0  0  0  0
   61.0832   31.9967   49.4750 H   0  0  0  0  0  0  0  0  0  0  0  0
   59.4176   31.3091   49.2649 H   0  0  0  0  0  0  0  0  0  0  0  0
   60.8760   30.5620   47.8750 C   0  0  0  0  0  0  0  0  0  0  0  0
   61.1760   30.9844   46.9046 H   0  0  0  0  0  0  0  0  0  0  0  0
   61.7341   30.1209   48.4033 H   0  0  0  0  0  0  0  0  0  0  0  0
   59.8960   29.4970   47.6430 N   0  0  0  0  0  0  0  0  0  0  0  0
   59.1790   29.8330   46.9570 H   0  0  0  0  0  0  0  0  0  0  0  0
   60.3790   28.6670   47.2270 H   0  0  0  0  0  0  0  0  0  0  0  0
   60.1630   34.2160   48.2450 C   0  0  0  0  0  0  0  0  0  0  0  0
   60.7319   34.5605   49.1212 H   0  0  0  0  0  0  0  0  0  0  0  0
   59.6100   35.0280   47.3150 N   0  0  0  0  0  0  0  0  0  0  0  0
   59.6370   36.0720   47.3010 H   0  0  0  0  0  0  0  0  0  0  0  0
   58.7100   29.3330   44.9080 N   0  0  0  0  0  0  0  0  0  0  0  0
   58.4780   28.1130   45.4410 C   0  0  0  0  0  0  0  0  0  0  0  0
   59.4050   27.3380   45.7980 O   0  0  0  0  0  0  0  0  0  0  0  0
   57.1480   25.2840   43.9130 C   0  0  0  0  0  0  0  0  0  0  0  0
   57.8160   26.2250   43.2380 C   0  0  0  0  0  0  0  0  0  0  0  0
   57.9541   26.1286   42.1510 H   0  0  0  0  0  0  0  0  0  0  0  0
   58.2275   27.0956   43.7696 H   0  0  0  0  0  0  0  0  0  0  0  0
   56.5860   24.1460   43.2230 N   0  0  0  0  0  0  0  0  0  0  0  0
   55.5520   24.2900   43.1390 H   0  0  0  0  0  0  0  0  0  0  0  0
   56.9920   24.0670   42.2600 H   0  0  0  0  0  0  0  0  0  0  0  0
  1  2  1  0
  2  3  1  0
  2  4  2  0
  4  5  1  0
  5  6  1  0
  5  7  2  0
  7  8  1  0
  8  9  1  0
  8 10  1  0
  8 11  1  0
  7 12  1  0
 12 13  2  0
 13 14  1  0
 13 15  1  0
 15 16  1  0
 16 17  1  0
 16 18  2  0
 18 19  1  0
 19 20  1  0
 19 21  1  0
 19 22  1  0
 22 23  2  0
 23 24  1  0
 23 25  1  0
 25 26  1  0
 25 27  2  0
 27 28  1  0
 28 29  2  0
 29 30  1  0
 28 31  1  0
 31 32  1  0
 32 33  1  0
 32 34  1  0
 32 35  1  0
 35 36  1  0
 35 37  1  0
 35 38  1  0
 38 39  1  0
 38 40  1  0
 31 41  2  0
 41 42  1  0
 41 43  1  0
 43 44  1  0
 18 45  1  0
 45 46  1  0
 46 47  2  0
 12 48  1  0
 48 49  2  0
 49 50  1  0
 49 51  1  0
 48 52  1  0
 52 53  1  0
 52 54  1  0
 52  4  1  0
 46 15  1  0
 29 22  1  0
 43 27  1  0
M  CHG  3  17  -1  45  -1  52   1
M  END
>  <UniqueID>  (16) 
14

>  <SMILES>  (16) 
C=C1C=C(C)/C(=C\n2c([O-])c(Cc3ccc4[nH]cc(CCN)c4c3)[n-]c2=O)C(=C)[NH2+]1

>  <Energy>  (16) 
134.15487499523576

>  <Genealogy>  (16) 
C=C1C=C(C)C(=Cn2c([O-])c(Cc3ccc4[nH]cc(CCN)c4c3)[n-]c2=O)C(=C)[NH2+]1 (protonated)
C=C1C=C(C)/C(=C\n2c([O-])c(Cc3ccc4[nH]cc(CCN)c4c3)[n-]c2=O)C(=C)[NH2+]1 (cis-trans isomerization)
C=C1C=C(C)/C(=C\n2c([O-])c(Cc3ccc4[nH]cc(CCN)c4c3)[n-]c2=O)C(=C)[NH2+]1 (3D coordinates assigned)
C=C1C=C(C)/C(=C\n2c([O-])c(Cc3ccc4[nH]cc(CCN)c4c3)[n-]c2=O)C(=C)[NH2+]1 (nonaromatic ring conformer: 134.15487499523576 kcal/mol)

>  <smiles>  (16) 
C=C1C=C(C)C(=Cn2c(O)c(Cc3ccc4[nH]cc(CCN)c4c3)[nH]c2=O)C(=C)N1

>  <score_type>  (16) 
oracle

>  <origin>  (16) 
adg

>  <m_score__min__energy>  (16) 
-12.23

>  <m_primary>  (16) 
energy

$$$$
17:0
     RDKit          3D

 33 34  0  0  1  0  0  0  0  0999 V2000
   60.7470   30.0970   46.3640 C   0  0  0  0  0  0  0  0  0  0  0  0
   60.7200   28.9430   45.3850 C   0  0  0  0  0  0  0  0  0  0  0  0
   59.8330   27.8820   45.7660 N   0  0  0  0  0  0  0  0  0  0  0  0
   60.1140   27.0460   46.7760 N   0  0  0  0  0  0  0  0  0  0  0  0
   59.1160   26.1540   46.9090 C   0  0  0  0  0  0  0  0  0  0  0  0
   58.1670   26.4510   45.9350 C   0  0  0  0  0  0  0  0  0  0  0  0
   56.5180   25.5360   45.6210 Br  0  0  0  0  0  0  0  0  0  0  0  0
   58.6450   27.5390   45.2320 C   0  0  0  0  0  0  0  0  0  0  0  0
   57.9540   28.2000   44.1010 C   0  0  0  0  0  0  0  0  0  0  0  0
   57.9720   29.6540   44.2190 N   0  0  0  0  0  0  0  0  0  0  0  0
   56.7660   30.2750   44.6250 C   0  0  0  0  0  0  0  0  0  0  0  0
   55.7840   29.4820   44.8450 O   0  0  0  0  0  0  0  0  0  0  0  0
   56.5530   31.6300   44.8030 N   0  0  0  0  0  0  0  0  0  0  0  0
   57.3690   32.4590   45.3170 C   0  0  0  0  0  0  0  0  0  0  0  0
   58.7090   32.4370   45.2020 N   0  0  0  0  0  0  0  0  0  0  0  0
   59.1790   33.4900   45.8960 C   0  0  0  0  0  0  0  0  0  0  0  0
   60.5880   33.9240   46.0890 C   0  0  0  0  0  0  0  0  0  0  0  0
   58.1250   34.1420   46.4260 N   0  0  0  0  0  0  0  0  0  0  0  0
   57.0260   33.5090   46.0700 N   0  0  0  0  0  0  0  0  0  0  0  0
   60.7379   29.7059   47.3921 H   0  0  0  0  0  0  0  0  0  0  0  0
   61.6593   30.6909   46.2057 H   0  0  0  0  0  0  0  0  0  0  0  0
   59.8635   30.7329   46.2057 H   0  0  0  0  0  0  0  0  0  0  0  0
   60.4008   29.3269   44.4049 H   0  0  0  0  0  0  0  0  0  0  0  0
   61.7349   28.5194   45.3606 H   0  0  0  0  0  0  0  0  0  0  0  0
   59.0603   25.3419   47.6489 H   0  0  0  0  0  0  0  0  0  0  0  0
   58.4546   27.9143   43.1641 H   0  0  0  0  0  0  0  0  0  0  0  0
   56.9037   27.8732   44.1091 H   0  0  0  0  0  0  0  0  0  0  0  0
   58.7870   30.2430   44.0300 H   0  0  0  0  0  0  0  0  0  0  0  0
   60.8068   33.9914   47.1649 H   0  0  0  0  0  0  0  0  0  0  0  0
   61.2642   33.1925   45.6224 H   0  0  0  0  0  0  0  0  0  0  0  0
   60.7354   34.9092   45.6224 H   0  0  0  0  0  0  0  0  0  0  0  0
   58.1540   35.0090   47.0250 H   0  0  0  0  0  0  0  0  0  0  0  0
   56.0680   33.8320   46.3630 H   0  0  0  0  0  0  0  0  0  0  0  0
  1  2  1  0
  2  3  1  0
  3  4  1  0
  4  5  2  0
  5  6  1  0
  6  7  1  0
  6  8  2  0
  8  9  1  0
  9 10  1  0
 10 11  1  0
 11 12  2  0
 11 13  1  0
 13 14  2  0
 14 15  1  0
 15 16  2  0
 16 17  1  0
 16 18  1  0
 18 19  1  0
  8  3  1  0
 19 14  1  0
  1 20  1  0
  1 21  1  0
  1 22  1  0
  2 23  1  0
  2 24  1  0
  5 25  1  0
  9 26  1  0
  9 27  1  0
 10 28  1  0
 17 29  1  0
 17 30  1  0
 17 31  1  0
 18 32  1  0
 19 33  1  0
M  END
>  <smiles>  (17) 
CCn1ncc(Br)c1CNC(=O)N=c1nc(C)[nH][nH]1

>  <score_type>  (17) 
oracle

>  <origin>  (17) 
adg

>  <m_score__min__energy>  (17) 
-6.5999999999999996

>  <m_primary>  (17) 
energy

$$$$
18:0
     RDKit          3D

 53 55  0  0  0  0  0  0  0  0999 V2000
   56.7790   31.3010   44.7160 O   0  0  0  0  0  0  0  0  0  0  0  0
   57.6770   31.3590   45.6040 C   0  0  0  0  0  0  0  0  0  0  0  0
   57.7940   32.6100   46.4420 C   0  0  0  0  0  0  0  0  0  0  0  0
   59.1520   32.7960   47.0060 N   0  0  0  0  0  0  0  0  0  0  0  0
   59.0790   33.6990   48.1740 C   0  0  0  0  0  0  0  0  0  0  0  0
   60.4510   33.8490   48.8620 C   0  0  0  0  0  0  0  0  0  0  0  0
   61.5390   33.3330   48.0130 N   0  0  0  0  0  0  0  0  0  0  0  0
   63.0950   33.7550   48.6880 S   0  0  0  0  0  0  0  0  0  0  0  0
   64.0660   34.0660   47.5820 O   0  0  0  0  0  0  0  0  0  0  0  0
   62.9370   34.9950   49.5180 O   0  0  0  0  0  0  0  0  0  0  0  0
   63.7690   32.4550   49.6820 C   0  0  0  0  0  0  0  0  0  0  0  0
   65.1220   32.4990   50.0520 C   0  0  0  0  0  0  0  0  0  0  0  0
   65.6710   31.4930   50.8500 C   0  0  0  0  0  0  0  0  0  0  0  0
   64.8740   30.4320   51.2780 C   0  0  0  0  0  0  0  0  0  0  0  0
   63.5260   30.3740   50.9140 C   0  0  0  0  0  0  0  0  0  0  0  0
   62.9700   31.3810   50.1190 C   0  0  0  0  0  0  0  0  0  0  0  0
   61.6630   31.2930   49.7660 F   0  0  0  0  0  0  0  0  0  0  0  0
   61.4120   33.8410   46.6390 C   0  0  0  0  0  0  0  0  0  0  0  0
   60.0930   33.3480   46.0010 C   0  0  0  0  0  0  0  0  0  0  0  0
   58.6340   30.2830   45.7170 N   0  0  0  0  0  0  0  0  0  0  0  0
   58.9750   29.7090   47.0280 C   0  0  0  0  0  0  0  0  0  0  0  0
   58.3160   28.3330   47.1800 C   0  0  0  0  0  0  0  0  0  0  0  0
   59.1100   27.1850   46.5250 C   0  0  0  0  0  0  0  0  0  0  0  0
   59.0080   27.0730   44.9890 C   0  0  0  0  0  0  0  0  0  0  0  0
   58.3040   28.2600   44.3060 C   0  0  0  0  0  0  0  0  0  0  0  0
   59.0670   29.5790   44.5030 C   0  0  0  0  0  0  0  0  0  0  0  0
   57.5524   33.4791   45.8125 H   0  0  0  0  0  0  0  0  0  0  0  0
   57.0947   32.5115   47.2854 H   0  0  0  0  0  0  0  0  0  0  0  0
   59.5030   31.8630   47.3260 H   0  0  0  0  0  0  0  0  0  0  0  0
   58.7376   34.6895   47.8387 H   0  0  0  0  0  0  0  0  0  0  0  0
   58.3753   33.2661   48.9002 H   0  0  0  0  0  0  0  0  0  0  0  0
   60.6330   34.9140   49.0685 H   0  0  0  0  0  0  0  0  0  0  0  0
   60.4351   33.2668   49.7952 H   0  0  0  0  0  0  0  0  0  0  0  0
   65.7546   33.3318   49.7110 H   0  0  0  0  0  0  0  0  0  0  0  0
   66.7310   31.5376   51.1406 H   0  0  0  0  0  0  0  0  0  0  0  0
   65.3076   29.6382   51.9040 H   0  0  0  0  0  0  0  0  0  0  0  0
   62.9012   29.5347   51.2535 H   0  0  0  0  0  0  0  0  0  0  0  0
   61.4166   34.9408   46.6575 H   0  0  0  0  0  0  0  0  0  0  0  0
   62.2576   33.4691   46.0419 H   0  0  0  0  0  0  0  0  0  0  0  0
   59.6092   34.1940   45.4909 H   0  0  0  0  0  0  0  0  0  0  0  0
   60.3419   32.5417   45.2953 H   0  0  0  0  0  0  0  0  0  0  0  0
   60.0669   29.6016   47.1067 H   0  0  0  0  0  0  0  0  0  0  0  0
   58.6098   30.3763   47.8226 H   0  0  0  0  0  0  0  0  0  0  0  0
   58.2130   28.1148   48.2532 H   0  0  0  0  0  0  0  0  0  0  0  0
   57.3454   28.3848   46.6649 H   0  0  0  0  0  0  0  0  0  0  0  0
   60.1709   27.3222   46.7814 H   0  0  0  0  0  0  0  0  0  0  0  0
   58.6644   26.2589   46.9171 H   0  0  0  0  0  0  0  0  0  0  0  0
   60.0271   26.9979   44.5819 H   0  0  0  0  0  0  0  0  0  0  0  0
   58.3941   26.1842   44.7809 H   0  0  0  0  0  0  0  0  0  0  0  0
   58.2262   28.0533   43.2284 H   0  0  0  0  0  0  0  0  0  0  0  0
   57.3106   28.3728   44.7648 H   0  0  0  0  0  0  0  0  0  0  0  0
   60.1421   29.3601   44.5826 H   0  0  0  0  0  0  0  0  0  0  0  0
   58.8586   30.2271   43.6390 H   0  0  0  0  0  0  0  0  0  0  0  0
  1  2  2  0
  2  3  1  0
  3  4  1  0
  4  5  1  0
  5  6  1  0
  6  7  1  0
  7  8  1  0
  8  9  2  0
  8 10  2  0
  8 11  1  0
 11 12  2  0
 12 13  1  0
 13 14  2  0
 14 15  1  0
 15 16  2  0
 16 17  1  0
  7 18  1  0
 18 19  1  0
  2 20  1  0
 20 21  1  0
 21 22  1  0
 22 23  1  0
 23 24  1  0
 24 25  1  0
 25 26  1  0
 19  4  1  0
 26 20  1  0
 16 11  1  0
  3 27  1  0
  3 28  1  0
  4 29  1  0
  5 30  1  0
  5 31  1  0
  6 32  1  0
  6 33  1  0
 12 34  1  0
 13 35  1  0
 14 36  1  0
 15 37  1  0
 18 38  1  0
 18 39  1  0
 19 40  1  0
 19 41  1  0
 21 42  1  0
 21 43  1  0
 22 44  1  0
 22 45  1  0
 23 46  1  0
 23 47  1  0
 24 48  1  0
 24 49  1  0
 25 50  1  0
 25 51  1  0
 26 52  1  0
 26 53  1  0
M  CHG  1   4   1
M  END
>  <UniqueID>  (18) 
15

>  <SMILES>  (18) 
O=C(C[NH+]1CCN(S(=O)(=O)c2ccccc2F)CC1)N1CCCCCC1

>  <Energy>  (18) 
66.57870713603089

>  <Genealogy>  (18) 
O=C(C[NH+]1CCN(S(=O)(=O)c2ccccc2F)CC1)N1CCCCCC1 (protonated)
O=C(C[NH+]1CCN(S(=O)(=O)c2ccccc2F)CC1)N1CCCCCC1 (3D coordinates assigned)
O=C(C[NH+]1CCN(S(=O)(=O)c2ccccc2F)CC1)N1CCCCCC1 (nonaromatic ring conformer: 66.57870713603089 kcal/mol)

>  <smiles>  (18) 
O=C(CN1CCN(S(=O)(=O)c2ccccc2F)CC1)N1CCCCCC1

>  <score_type>  (18) 
oracle

>  <origin>  (18) 
adg

>  <m_score__min__energy>  (18) 
-6.1299999999999999

>  <m_primary>  (18) 
energy

$$$$
19:0
     RDKit          3D

 66 70  0  0  0  0  0  0  0  0999 V2000
   60.0040   36.3240   45.6220 C   0  0  0  0  0  0  0  0  0  0  0  0
   59.3760   34.9620   45.6680 C   0  0  0  0  0  0  0  0  0  0  0  0
   59.1590   34.3340   46.9040 C   0  0  0  0  0  0  0  0  0  0  0  0
   58.6020   33.0540   46.9590 C   0  0  0  0  0  0  0  0  0  0  0  0
   58.2620   32.3840   45.7790 C   0  0  0  0  0  0  0  0  0  0  0  0
   57.7110   31.1430   45.8410 N   0  0  0  0  0  0  0  0  0  0  0  0
   57.3640   30.4460   44.7240 C   0  0  0  0  0  0  0  0  0  0  0  0
   56.7590   29.1110   44.8730 C   0  0  0  0  0  0  0  0  0  0  0  0
   55.5040   28.9760   44.8710 O   0  0  0  0  0  0  0  0  0  0  0  0
   57.6140   27.9650   44.9700 N   0  0  0  0  0  0  0  0  0  0  0  0
   57.4270   26.8120   45.8040 C   0  0  0  0  0  0  0  0  0  0  0  0
   56.3640   25.9160   45.5880 C   0  0  0  0  0  0  0  0  0  0  0  0
   56.1890   24.8040   46.4210 C   0  0  0  0  0  0  0  0  0  0  0  0
   54.8260   23.7130   46.1680 S   0  0  0  0  0  0  0  0  0  0  0  0
   53.5870   24.5290   45.9260 O   0  0  0  0  0  0  0  0  0  0  0  0
   54.6060   22.9020   47.4140 O   0  0  0  0  0  0  0  0  0  0  0  0
   55.0790   22.6310   44.8120 N   0  0  0  0  0  0  0  0  0  0  0  0
   56.1580   21.6550   45.0590 C   0  0  0  0  0  0  0  0  0  0  0  0
   57.5700   22.2230   44.7750 C   0  0  0  0  0  0  0  0  0  0  0  0
   57.5460   23.4850   44.1350 O   0  0  0  0  0  0  0  0  0  0  0  0
   56.6650   23.4420   43.0380 C   0  0  0  0  0  0  0  0  0  0  0  0
   55.2110   23.3470   43.5250 C   0  0  0  0  0  0  0  0  0  0  0  0
   57.0870   24.5770   47.4680 C   0  0  0  0  0  0  0  0  0  0  0  0
   58.1320   25.4700   47.7040 C   0  0  0  0  0  0  0  0  0  0  0  0
   58.3000   26.6000   46.8900 C   0  0  0  0  0  0  0  0  0  0  0  0
   59.3580   27.5310   47.1790 N   0  0  0  0  0  0  0  0  0  0  0  0
   59.1640   28.9650   46.9330 C   0  0  0  0  0  0  0  0  0  0  0  0
   60.1090   29.7990   47.8150 C   0  0  0  0  0  0  0  0  0  0  0  0
   60.2340   29.2330   49.1740 N   0  0  0  0  0  0  0  0  0  0  0  0
   58.9800   29.3570   49.9370 C   0  0  0  0  0  0  0  0  0  0  0  0
   60.7560   27.8400   49.1900 C   0  0  0  0  0  0  0  0  0  0  0  0
   60.5750   27.0850   47.8580 C   0  0  0  0  0  0  0  0  0  0  0  0
   57.5810   31.0140   43.4600 C   0  0  0  0  0  0  0  0  0  0  0  0
   58.1470   32.2890   43.3580 C   0  0  0  0  0  0  0  0  0  0  0  0
   58.3410   32.7900   42.2160 O   0  0  0  0  0  0  0  0  0  0  0  0
   58.4920   32.9960   44.5260 C   0  0  0  0  0  0  0  0  0  0  0  0
   59.0570   34.2830   44.4790 C   0  0  0  0  0  0  0  0  0  0  0  0
   60.1708   36.6857   46.6474 H   0  0  0  0  0  0  0  0  0  0  0  0
   60.9664   36.2663   45.0925 H   0  0  0  0  0  0  0  0  0  0  0  0
   59.3352   37.0185   45.0925 H   0  0  0  0  0  0  0  0  0  0  0  0
   59.4292   34.8529   47.8355 H   0  0  0  0  0  0  0  0  0  0  0  0
   58.4303   32.5718   47.9326 H   0  0  0  0  0  0  0  0  0  0  0  0
   55.6642   26.0905   44.7575 H   0  0  0  0  0  0  0  0  0  0  0  0
   56.1122   21.3422   46.1126 H   0  0  0  0  0  0  0  0  0  0  0  0
   56.0001   20.8116   44.3708 H   0  0  0  0  0  0  0  0  0  0  0  0
   58.1039   22.3262   45.7312 H   0  0  0  0  0  0  0  0  0  0  0  0
   58.0733   21.5211   44.0938 H   0  0  0  0  0  0  0  0  0  0  0  0
   56.7877   24.3558   42.4380 H   0  0  0  0  0  0  0  0  0  0  0  0
   56.8965   22.5565   42.4278 H   0  0  0  0  0  0  0  0  0  0  0  0
   54.8153   24.3659   43.6484 H   0  0  0  0  0  0  0  0  0  0  0  0
   54.6480   22.7766   42.7716 H   0  0  0  0  0  0  0  0  0  0  0  0
   56.9690   23.6904   48.1084 H   0  0  0  0  0  0  0  0  0  0  0  0
   58.8296   25.2869   48.5346 H   0  0  0  0  0  0  0  0  0  0  0  0
   59.3722   29.1816   45.8748 H   0  0  0  0  0  0  0  0  0  0  0  0
   58.1248   29.2292   47.1785 H   0  0  0  0  0  0  0  0  0  0  0  0
   61.1040   29.8234   47.3467 H   0  0  0  0  0  0  0  0  0  0  0  0
   59.6886   30.8116   47.9039 H   0  0  0  0  0  0  0  0  0  0  0  0
   59.2024   29.3350   51.0141 H   0  0  0  0  0  0  0  0  0  0  0  0
   58.4890   30.3081   49.6833 H   0  0  0  0  0  0  0  0  0  0  0  0
   58.3122   28.5205   49.6833 H   0  0  0  0  0  0  0  0  0  0  0  0
   61.8303   27.8763   49.4234 H   0  0  0  0  0  0  0  0  0  0  0  0
   60.1753   27.2922   49.9468 H   0  0  0  0  0  0  0  0  0  0  0  0
   61.4429   27.2792   47.2107 H   0  0  0  0  0  0  0  0  0  0  0  0
   60.4922   26.0082   48.0671 H   0  0  0  0  0  0  0  0  0  0  0  0
   57.3068   30.4581   42.5513 H   0  0  0  0  0  0  0  0  0  0  0  0
   59.2503   34.7607   43.5072 H   0  0  0  0  0  0  0  0  0  0  0  0
  1  2  1  0
  2  3  2  0
  3  4  1  0
  4  5  2  0
  5  6  1  0
  6  7  1  0
  7  8  1  0
  8  9  2  0
  8 10  1  0
 10 11  1  0
 11 12  2  0
 12 13  1  0
 13 14  1  0
 14 15  2  0
 14 16  2  0
 14 17  1  0
 17 18  1  0
 18 19  1  0
 19 20  1  0
 20 21  1  0
 21 22  1  0
 13 23  2  0
 23 24  1  0
 24 25  2  0
 25 26  1  0
 26 27  1  0
 27 28  1  0
 28 29  1  0
 29 30  1  0
 29 31  1  0
 31 32  1  0
  7 33  2  0
 33 34  1  0
 34 35  2  0
 34 36  1  0
 36 37  2  0
 37  2  1  0
 36  5  1  0
 25 11  1  0
 32 26  1  0
 22 17  1  0
  1 38  1  0
  1 39  1  0
  1 40  1  0
  3 41  1  0
  4 42  1  0
 12 43  1  0
 18 44  1  0
 18 45  1  0
 19 46  1  0
 19 47  1  0
 21 48  1  0
 21 49  1  0
 22 50  1  0
 22 51  1  0
 23 52  1  0
 24 53  1  0
 27 54  1  0
 27 55  1  0
 28 56  1  0
 28 57  1  0
 30 58  1  0
 30 59  1  0
 30 60  1  0
 31 61  1  0
 31 62  1  0
 32 63  1  0
 32 64  1  0
 33 65  1  0
 37 66  1  0
M  CHG  2   6  -1  10  -1
M  END
>  <UniqueID>  (19) 
16

>  <SMILES>  (19) 
Cc1ccc2[n-]c(C(=O)[N-]c3cc(S(=O)(=O)N4CCOCC4)ccc3N3CCN(C)CC3)cc(=O)c2c1

>  <Energy>  (19) 
99.45554692755405

>  <Genealogy>  (19) 
Cc1ccc2[n-]c(C(=O)[N-]c3cc(S(=O)(=O)N4CCOCC4)ccc3N3CCN(C)CC3)cc(=O)c2c1 (protonated)
Cc1ccc2[n-]c(C(=O)[N-]c3cc(S(=O)(=O)N4CCOCC4)ccc3N3CCN(C)CC3)cc(=O)c2c1 (3D coordinates assigned)
Cc1ccc2[n-]c(C(=O)[N-]c3cc(S(=O)(=O)N4CCOCC4)ccc3N3CCN(C)CC3)cc(=O)c2c1 (nonaromatic ring conformer: 99.45554692755405 kcal/mol)

>  <smiles>  (19) 
Cc1ccc2[nH]c(C(=O)Nc3cc(S(=O)(=O)N4CCOCC4)ccc3N3CCN(C)CC3)cc(=O)c2c1

>  <score_type>  (19) 
oracle

>  <origin>  (19) 
adg

>  <m_score__min__energy>  (19) 
-12.68

>  <m_primary>  (19) 
energy

$$$$
20:0
     RDKit          3D

 35 36  0  0  0  0  0  0  0  0999 V2000
   54.7570   25.2630   45.6200 C   0  0  0  0  0  0  0  0  0  0  0  0
   55.2360   26.5830   46.0080 N   0  0  0  0  0  0  0  0  0  0  0  0
   56.6120   26.9440   46.1860 C   0  0  0  0  0  0  0  0  0  0  0  0
   57.4160   26.0670   46.5960 O   0  0  0  0  0  0  0  0  0  0  0  0
   57.1130   28.3080   45.9190 C   0  0  0  0  0  0  0  0  0  0  0  0
   58.2940   28.8580   46.3740 C   0  0  0  0  0  0  0  0  0  0  0  0
   58.2950   30.1750   45.9450 C   0  0  0  0  0  0  0  0  0  0  0  0
   59.3490   31.1690   46.2120 C   0  0  0  0  0  0  0  0  0  0  0  0
   59.1150   32.3860   45.9740 O   0  0  0  0  0  0  0  0  0  0  0  0
   60.6430   30.7640   46.6910 N   0  0  0  0  0  0  0  0  0  0  0  0
   61.5950   31.6640   47.2840 C   0  0  0  0  0  0  0  0  0  0  0  0
   61.7490   32.9510   46.7480 C   0  0  0  0  0  0  0  0  0  0  0  0
   62.6810   33.8360   47.2930 C   0  0  0  0  0  0  0  0  0  0  0  0
   63.4810   33.4410   48.3680 C   0  0  0  0  0  0  0  0  0  0  0  0
   63.3560   32.1450   48.9030 C   0  0  0  0  0  0  0  0  0  0  0  0
   64.1450   31.6930   49.9720 O   0  0  0  0  0  0  0  0  0  0  0  0
   65.5120   32.0450   50.1670 C   0  0  0  0  0  0  0  0  0  0  0  0
   62.4170   31.2630   48.3520 C   0  0  0  0  0  0  0  0  0  0  0  0
   57.1700   30.4680   45.2620 N   0  0  0  0  0  0  0  0  0  0  0  0
   56.4520   29.3280   45.2540 C   0  0  0  0  0  0  0  0  0  0  0  0
   55.1870   29.2160   44.6010 N   0  0  0  0  0  0  0  0  0  0  0  0
   54.5422   24.6711   46.5220 H   0  0  0  0  0  0  0  0  0  0  0  0
   53.8393   25.3670   45.0225 H   0  0  0  0  0  0  0  0  0  0  0  0
   55.5278   24.7542   45.0225 H   0  0  0  0  0  0  0  0  0  0  0  0
   59.0765   28.3526   46.9591 H   0  0  0  0  0  0  0  0  0  0  0  0
   60.9510   29.7820   46.5070 H   0  0  0  0  0  0  0  0  0  0  0  0
   61.1318   33.2648   45.8932 H   0  0  0  0  0  0  0  0  0  0  0  0
   62.7858   34.8479   46.8745 H   0  0  0  0  0  0  0  0  0  0  0  0
   64.2100   34.1441   48.7972 H   0  0  0  0  0  0  0  0  0  0  0  0
   65.7263   32.1002   51.2445 H   0  0  0  0  0  0  0  0  0  0  0  0
   66.1564   31.2835   49.7035 H   0  0  0  0  0  0  0  0  0  0  0  0
   65.7085   33.0230   49.7035 H   0  0  0  0  0  0  0  0  0  0  0  0
   62.3218   30.2457   48.7594 H   0  0  0  0  0  0  0  0  0  0  0  0
   54.7770   28.2730   44.4200 H   0  0  0  0  0  0  0  0  0  0  0  0
   54.6380   30.0610   44.3310 H   0  0  0  0  0  0  0  0  0  0  0  0
  1  2  1  0
  2  3  1  0
  3  4  2  0
  3  5  1  0
  5  6  1  0
  6  7  2  0
  7  8  1  0
  8  9  2  0
  8 10  1  0
 10 11  1  0
 11 12  2  0
 12 13  1  0
 13 14  2  0
 14 15  1  0
 15 16  1  0
 16 17  1  0
 15 18  2  0
  7 19  1  0
 19 20  1  0
 20 21  1  0
 20  5  2  0
 18 11  1  0
  1 22  1  0
  1 23  1  0
  1 24  1  0
  6 25  1  0
 10 26  1  0
 12 27  1  0
 13 28  1  0
 14 29  1  0
 17 30  1  0
 17 31  1  0
 17 32  1  0
 18 33  1  0
 21 34  1  0
 21 35  1  0
M  CHG  2   2  -1  19  -1
M  END
>  <UniqueID>  (20) 
17

>  <SMILES>  (20) 
C[N-]C(=O)c1cc(C(=O)Nc2cccc(OC)c2)[n-]c1N

>  <Energy>  (20) 
64.5439719167199

>  <Genealogy>  (20) 
C[N-]C(=O)c1cc(C(=O)Nc2cccc(OC)c2)[n-]c1N (protonated)
C[N-]C(=O)c1cc(C(=O)Nc2cccc(OC)c2)[n-]c1N (3D coordinates assigned)
C[N-]C(=O)c1cc(C(=O)Nc2cccc(OC)c2)[n-]c1N (optimized conformer: 64.5439719167199 kcal/mol)

>  <smiles>  (20) 
CNC(=O)c1cc(C(=O)Nc2cccc(OC)c2)[nH]c1N

>  <score_type>  (20) 
oracle

>  <origin>  (20) 
adg

>  <m_score__min__energy>  (20) 
-11.119999999999999

>  <m_primary>  (20) 
energy

$$$$
21:0
     RDKit          3D

 59 61  0  0  1  0  0  0  0  0999 V2000
   58.0960   30.2180   44.9600 C   0  0  0  0  0  0  0  0  0  0  0  0
   58.4720   28.7690   45.0380 C   0  0  0  0  0  0  0  0  0  0  0  0
   59.6510   28.5560   45.8550 N   0  0  0  0  0  0  0  0  0  0  0  0
   60.8190   29.3690   45.6170 C   0  0  0  0  0  0  0  0  0  0  0  0
   60.9030   30.4050   46.3330 O   0  0  0  0  0  0  0  0  0  0  0  0
   59.6950   27.5410   46.9100 C   0  0  0  0  0  0  0  0  0  0  0  0
   60.1990   28.1730   48.1880 C   0  0  0  0  0  0  0  0  0  0  0  0
   59.1540   28.6010   49.0760 N   0  0  0  0  0  0  0  0  0  0  0  0
   58.8220   29.8350   49.2280 C   0  0  0  0  0  0  0  0  0  0  0  0
   58.4470   30.2840   50.4370 N   0  0  0  0  0  0  0  0  0  0  0  0
   58.0910   31.5950   50.6020 C   0  0  0  0  0  0  0  0  0  0  0  0
   57.7260   31.9450   51.8870 O   0  0  0  0  0  0  0  0  0  0  0  0
   58.1400   33.1960   52.3830 C   0  0  0  0  0  0  0  0  0  0  0  0
   58.1240   32.4090   49.5520 N   0  0  0  0  0  0  0  0  0  0  0  0
   58.4950   32.0010   48.3110 C   0  0  0  0  0  0  0  0  0  0  0  0
   58.5270   32.8950   47.1620 C   0  0  0  0  0  0  0  0  0  0  0  0
   57.3620   33.2860   46.5380 C   0  0  0  0  0  0  0  0  0  0  0  0
   57.3710   34.1310   45.4190 C   0  0  0  0  0  0  0  0  0  0  0  0
   58.5520   34.6070   44.8950 C   0  0  0  0  0  0  0  0  0  0  0  0
   59.7140   34.2170   45.5190 C   0  0  0  0  0  0  0  0  0  0  0  0
   59.7050   33.3710   46.6400 C   0  0  0  0  0  0  0  0  0  0  0  0
   60.9920   33.0780   47.1680 N   0  0  0  0  0  0  0  0  0  0  0  0
   61.3280   33.7500   48.3910 C   0  0  0  0  0  0  0  0  0  0  0  0
   60.4130   34.5120   48.8460 O   0  0  0  0  0  0  0  0  0  0  0  0
   62.5980   33.5900   49.0650 C   0  0  0  0  0  0  0  0  0  0  0  0
   62.9120   34.1340   50.2910 C   0  0  0  0  0  0  0  0  0  0  0  0
   64.1330   33.9650   50.9110 C   0  0  0  0  0  0  0  0  0  0  0  0
   65.1200   33.2040   50.2810 C   0  0  0  0  0  0  0  0  0  0  0  0
   66.3580   32.9870   50.8280 O   0  0  0  0  0  0  0  0  0  0  0  0
   67.2620   33.9810   51.2030 C   0  0  0  0  0  0  0  0  0  0  0  0
   64.7920   32.6650   49.0560 C   0  0  0  0  0  0  0  0  0  0  0  0
   63.5730   32.8380   48.4450 C   0  0  0  0  0  0  0  0  0  0  0  0
   58.8350   30.7100   48.1930 N   0  0  0  0  0  0  0  0  0  0  0  0
   57.9905   30.6247   45.9766 H   0  0  0  0  0  0  0  0  0  0  0  0
   58.8802   30.7719   44.4231 H   0  0  0  0  0  0  0  0  0  0  0  0
   57.1415   30.3207   44.4231 H   0  0  0  0  0  0  0  0  0  0  0  0
   57.6323   28.2073   45.4733 H   0  0  0  0  0  0  0  0  0  0  0  0
   58.6980   28.4217   44.0190 H   0  0  0  0  0  0  0  0  0  0  0  0
   61.5796   29.1055   44.8673 H   0  0  0  0  0  0  0  0  0  0  0  0
   58.6853   27.1361   47.0732 H   0  0  0  0  0  0  0  0  0  0  0  0
   60.3697   26.7256   46.6101 H   0  0  0  0  0  0  0  0  0  0  0  0
   60.8227   27.4368   48.7162 H   0  0  0  0  0  0  0  0  0  0  0  0
   60.7619   29.0729   47.8994 H   0  0  0  0  0  0  0  0  0  0  0  0
   58.1330   33.1749   53.4828 H   0  0  0  0  0  0  0  0  0  0  0  0
   59.1579   33.4130   52.0269 H   0  0  0  0  0  0  0  0  0  0  0  0
   57.4525   33.9774   52.0269 H   0  0  0  0  0  0  0  0  0  0  0  0
   56.3989   32.9254   46.9284 H   0  0  0  0  0  0  0  0  0  0  0  0
   56.4177   34.4187   44.9515 H   0  0  0  0  0  0  0  0  0  0  0  0
   58.5655   35.2693   44.0169 H   0  0  0  0  0  0  0  0  0  0  0  0
   60.6773   34.5778   45.1292 H   0  0  0  0  0  0  0  0  0  0  0  0
   61.6730   32.4250   46.7280 H   0  0  0  0  0  0  0  0  0  0  0  0
   62.1475   34.7361   50.8038 H   0  0  0  0  0  0  0  0  0  0  0  0
   64.3269   34.4249   51.8913 H   0  0  0  0  0  0  0  0  0  0  0  0
   67.3120   34.0360   52.3005 H   0  0  0  0  0  0  0  0  0  0  0  0
   68.2579   33.7411   50.8021 H   0  0  0  0  0  0  0  0  0  0  0  0
   66.9290   34.9497   50.8021 H   0  0  0  0  0  0  0  0  0  0  0  0
   65.5503   32.0607   48.5365 H   0  0  0  0  0  0  0  0  0  0  0  0
   63.3762   32.3783   47.4652 H   0  0  0  0  0  0  0  0  0  0  0  0
   59.1420   30.2730   47.2780 H   0  0  0  0  0  0  0  0  0  0  0  0
  1  2  1  0
  2  3  1  0
  3  4  1  0
  4  5  2  0
  3  6  1  0
  6  7  1  0
  7  8  1  0
  8  9  2  0
  9 10  1  0
 10 11  2  0
 11 12  1  0
 12 13  1  0
 11 14  1  0
 14 15  2  0
 15 16  1  0
 16 17  2  0
 17 18  1  0
 18 19  2  0
 19 20  1  0
 20 21  2  0
 21 22  1  0
 22 23  1  0
 23 24  2  0
 23 25  1  0
 25 26  2  0
 26 27  1  0
 27 28  2  0
 28 29  1  0
 29 30  1  0
 28 31  1  0
 31 32  2  0
 15 33  1  0
 33  9  1  0
 21 16  1  0
 32 25  1  0
  1 34  1  0
  1 35  1  0
  1 36  1  0
  2 37  1  0
  2 38  1  0
  4 39  1  0
  6 40  1  0
  6 41  1  0
  7 42  1  0
  7 43  1  0
 13 44  1  0
 13 45  1  0
 13 46  1  0
 17 47  1  0
 18 48  1  0
 19 49  1  0
 20 50  1  0
 22 51  1  0
 26 52  1  0
 27 53  1  0
 30 54  1  0
 30 55  1  0
 30 56  1  0
 31 57  1  0
 32 58  1  0
 33 59  1  0
M  END
>  <smiles>  (21) 
CCN(C=O)CCN=c1nc(OC)nc(-c2ccccc2NC(=O)c2ccc(OC)cc2)[nH]1

>  <score_type>  (21) 
oracle

>  <origin>  (21) 
adg

>  <m_score__min__energy>  (21) 
-8.2200000000000006

>  <m_primary>  (21) 
energy

$$$$
22:0
     RDKit          3D

 33 34  0  0  0  0  0  0  0  0999 V2000
   55.4060   29.7330   43.1110 O   0  0  0  0  0  0  0  0  0  0  0  0
   56.1640   29.9020   44.1030 C   0  0  0  0  0  0  0  0  0  0  0  0
   57.1760   31.0190   44.0670 C   0  0  0  0  0  0  0  0  0  0  0  0
   56.9470   31.9570   45.1640 N   0  0  0  0  0  0  0  0  0  0  0  0
   57.4390   33.3020   45.2280 C   0  0  0  0  0  0  0  0  0  0  0  0
   56.6210   34.2350   45.4390 O   0  0  0  0  0  0  0  0  0  0  0  0
   58.8920   33.6410   45.0170 C   0  0  0  0  0  0  0  0  0  0  0  0
   59.6390   33.7870   46.3180 C   0  0  0  0  0  0  0  0  0  0  0  0
   58.9500   34.0690   47.5110 C   0  0  0  0  0  0  0  0  0  0  0  0
   59.6500   34.2140   48.7130 C   0  0  0  0  0  0  0  0  0  0  0  0
   61.0420   34.0980   48.7310 C   0  0  0  0  0  0  0  0  0  0  0  0
   61.7380   33.8420   47.5470 C   0  0  0  0  0  0  0  0  0  0  0  0
   61.0420   33.6910   46.3440 C   0  0  0  0  0  0  0  0  0  0  0  0
   56.0160   29.0230   45.2300 N   0  0  0  0  0  0  0  0  0  0  0  0
   56.7650   28.0130   45.5730 C   0  0  0  0  0  0  0  0  0  0  0  0
   58.1250   28.0870   45.5230 N   0  0  0  0  0  0  0  0  0  0  0  0
   58.9200   27.0390   45.8660 C   0  0  0  0  0  0  0  0  0  0  0  0
   58.3480   25.8360   46.2810 C   0  0  0  0  0  0  0  0  0  0  0  0
   56.9580   25.7250   46.3330 C   0  0  0  0  0  0  0  0  0  0  0  0
   56.1580   26.8130   45.9760 C   0  0  0  0  0  0  0  0  0  0  0  0
   54.7720   26.6990   46.0270 O   0  0  0  0  0  0  0  0  0  0  0  0
   58.1865   30.5943   44.1597 H   0  0  0  0  0  0  0  0  0  0  0  0
   57.0753   31.5578   43.1133 H   0  0  0  0  0  0  0  0  0  0  0  0
   59.3606   32.8389   44.4279 H   0  0  0  0  0  0  0  0  0  0  0  0
   58.9400   34.6058   44.4908 H   0  0  0  0  0  0  0  0  0  0  0  0
   57.8553   34.1760   47.4987 H   0  0  0  0  0  0  0  0  0  0  0  0
   59.1038   34.4196   49.6454 H   0  0  0  0  0  0  0  0  0  0  0  0
   61.5905   34.2083   49.6781 H   0  0  0  0  0  0  0  0  0  0  0  0
   62.8348   33.7592   47.5613 H   0  0  0  0  0  0  0  0  0  0  0  0
   61.5945   33.4961   45.4130 H   0  0  0  0  0  0  0  0  0  0  0  0
   60.0143   27.1394   45.8164 H   0  0  0  0  0  0  0  0  0  0  0  0
   58.9852   24.9851   46.5638 H   0  0  0  0  0  0  0  0  0  0  0  0
   56.4927   24.7816   46.6548 H   0  0  0  0  0  0  0  0  0  0  0  0
  1  2  2  0
  2  3  1  0
  3  4  1  0
  4  5  1  0
  5  6  2  0
  5  7  1  0
  7  8  1  0
  8  9  2  0
  9 10  1  0
 10 11  2  0
 11 12  1  0
 12 13  2  0
  2 14  1  0
 14 15  2  3
 15 16  1  0
 16 17  1  0
 17 18  2  0
 18 19  1  0
 19 20  2  0
 20 21  1  0
 13  8  1  0
 20 15  1  0
  3 22  1  0
  3 23  1  0
  7 24  1  0
  7 25  1  0
  9 26  1  0
 10 27  1  0
 11 28  1  0
 12 29  1  0
 13 30  1  0
 17 31  1  0
 18 32  1  0
 19 33  1  0
M  CHG  3   4  -1  16  -1  21  -1
M  END
>  <UniqueID>  (22) 
18

>  <SMILES>  (22) 
O=C(C[N-]C(=O)Cc1ccccc1)N=c1[n-]cccc1[O-]

>  <Energy>  (22) 
34.88581568200944

>  <Genealogy>  (22) 
O=C(C[N-]C(=O)Cc1ccccc1)N=c1[n-]cccc1[O-] (protonated)
O=C(C[N-]C(=O)Cc1ccccc1)N=c1[n-]cccc1[O-] (3D coordinates assigned)
O=C(C[N-]C(=O)Cc1ccccc1)N=c1[n-]cccc1[O-] (optimized conformer: 34.88581568200944 kcal/mol)

>  <smiles>  (22) 
O=C(CNC(=O)Cc1ccccc1)N=c1[nH]cccc1O

>  <score_type>  (22) 
oracle

>  <origin>  (22) 
adg

>  <m_score__min__energy>  (22) 
-14.109999999999999

>  <m_primary>  (22) 
energy

$$$$
23:0
     RDKit          3D

 59 61  0  0  0  0  0  0  0  0999 V2000
   59.9320   27.3160   47.6280 C   0  0  0  0  0  0  0  0  0  0  0  0
   60.3100   28.4180   46.9820 C   0  0  0  0  0  0  0  0  0  0  0  0
   59.6690   29.7360   47.2010 C   0  0  0  0  0  0  0  0  0  0  0  0
   59.0870   30.3670   46.0930 C   0  0  0  0  0  0  0  0  0  0  0  0
   58.3290   31.5450   46.2330 C   0  0  0  0  0  0  0  0  0  0  0  0
   57.6790   32.1480   45.0340 C   0  0  0  0  0  0  0  0  0  0  0  0
   56.6450   31.6000   44.5610 O   0  0  0  0  0  0  0  0  0  0  0  0
   58.1110   33.4110   44.4030 C   0  0  0  0  0  0  0  0  0  0  0  0
   58.7960   34.4140   44.9790 C   0  0  0  0  0  0  0  0  0  0  0  0
   59.6830   34.3370   46.1640 C   0  0  0  0  0  0  0  0  0  0  0  0
   60.9090   33.6680   46.0250 C   0  0  0  0  0  0  0  0  0  0  0  0
   61.7620   33.5050   47.1180 C   0  0  0  0  0  0  0  0  0  0  0  0
   61.4060   34.0150   48.3770 C   0  0  0  0  0  0  0  0  0  0  0  0
   62.2490   33.8560   49.5280 N   0  0  0  0  0  0  0  0  0  0  0  0
   63.2030   32.4510   49.8810 S   0  0  0  0  0  0  0  0  0  0  0  0
   64.8870   32.6740   49.3510 C   0  0  0  0  0  0  0  0  0  0  0  0
   63.1910   32.2190   51.3620 O   0  0  0  0  0  0  0  0  0  0  0  0
   62.6050   31.2500   49.2010 O   0  0  0  0  0  0  0  0  0  0  0  0
   60.1810   34.6820   48.5220 C   0  0  0  0  0  0  0  0  0  0  0  0
   59.3120   34.8220   47.4330 C   0  0  0  0  0  0  0  0  0  0  0  0
   58.1520   32.0790   47.5200 C   0  0  0  0  0  0  0  0  0  0  0  0
   58.7910   31.5050   48.6200 C   0  0  0  0  0  0  0  0  0  0  0  0
   59.5830   30.3570   48.4720 C   0  0  0  0  0  0  0  0  0  0  0  0
   60.2840   29.8560   49.6250 N   0  0  0  0  0  0  0  0  0  0  0  0
   59.6170   29.3340   50.7860 C   0  0  0  0  0  0  0  0  0  0  0  0
   58.3560   29.2630   50.8250 O   0  0  0  0  0  0  0  0  0  0  0  0
   60.4180   28.9100   51.9820 C   0  0  0  0  0  0  0  0  0  0  0  0
   60.9320   30.3440   52.9970 S   0  0  0  0  0  0  0  0  0  0  0  0
   59.4190   31.2800   52.7150 C   0  0  0  0  0  0  0  0  0  0  0  0
   58.2430   30.8510   53.3460 C   0  0  0  0  0  0  0  0  0  0  0  0
   57.0450   31.5470   53.1610 C   0  0  0  0  0  0  0  0  0  0  0  0
   57.0090   32.6630   52.3240 C   0  0  0  0  0  0  0  0  0  0  0  0
   58.1730   33.0900   51.6770 C   0  0  0  0  0  0  0  0  0  0  0  0
   59.3870   32.4100   51.8680 C   0  0  0  0  0  0  0  0  0  0  0  0
   60.5670   32.8820   51.2050 N   0  0  0  0  0  0  0  0  0  0  0  0
   60.4401   26.3607   47.4298 H   0  0  0  0  0  0  0  0  0  0  0  0
   59.1118   27.3613   48.3596 H   0  0  0  0  0  0  0  0  0  0  0  0
   61.1327   28.3466   46.2553 H   0  0  0  0  0  0  0  0  0  0  0  0
   59.2256   29.9322   45.0921 H   0  0  0  0  0  0  0  0  0  0  0  0
   57.8427   33.5461   43.3448 H   0  0  0  0  0  0  0  0  0  0  0  0
   58.6855   35.4064   44.5177 H   0  0  0  0  0  0  0  0  0  0  0  0
   61.2012   33.2673   45.0431 H   0  0  0  0  0  0  0  0  0  0  0  0
   62.7175   32.9746   46.9924 H   0  0  0  0  0  0  0  0  0  0  0  0
   65.5402   32.7605   50.2318 H   0  0  0  0  0  0  0  0  0  0  0  0
   65.1988   31.8093   48.7468 H   0  0  0  0  0  0  0  0  0  0  0  0
   64.9630   33.5900   48.7468 H   0  0  0  0  0  0  0  0  0  0  0  0
   59.9002   35.0991   49.5003 H   0  0  0  0  0  0  0  0  0  0  0  0
   58.3367   35.3122   47.5691 H   0  0  0  0  0  0  0  0  0  0  0  0
   57.5045   32.9568   47.6621 H   0  0  0  0  0  0  0  0  0  0  0  0
   58.6720   31.9585   49.6151 H   0  0  0  0  0  0  0  0  0  0  0  0
   61.3150   29.7030   49.5410 H   0  0  0  0  0  0  0  0  0  0  0  0
   59.8060   28.2369   52.6003 H   0  0  0  0  0  0  0  0  0  0  0  0
   61.3251   28.4012   51.6238 H   0  0  0  0  0  0  0  0  0  0  0  0
   58.2631   29.9604   53.9913 H   0  0  0  0  0  0  0  0  0  0  0  0
   56.1309   31.2151   53.6750 H   0  0  0  0  0  0  0  0  0  0  0  0
   56.0649   33.2070   52.1731 H   0  0  0  0  0  0  0  0  0  0  0  0
   58.1374   33.9661   51.0127 H   0  0  0  0  0  0  0  0  0  0  0  0
   61.1400   32.2290   50.6250 H   0  0  0  0  0  0  0  0  0  0  0  0
   60.8620   33.8810   51.2440 H   0  0  0  0  0  0  0  0  0  0  0  0
  1  2  2  0
  2  3  1  0
  3  4  2  0
  4  5  1  0
  5  6  1  0
  6  7  2  0
  6  8  1  0
  8  9  2  3
  9 10  1  0
 10 11  2  0
 11 12  1  0
 12 13  2  0
 13 14  1  0
 14 15  1  0
 15 16  1  0
 15 17  2  0
 15 18  2  0
 13 19  1  0
 19 20  2  0
  5 21  2  0
 21 22  1  0
 22 23  2  0
 23 24  1  0
 24 25  1  0
 25 26  2  0
 25 27  1  0
 27 28  1  0
 28 29  1  0
 29 30  2  0
 30 31  1  0
 31 32  2  0
 32 33  1  0
 33 34  2  0
 34 35  1  0
 23  3  1  0
 34 29  1  0
 20 10  1  0
  1 36  1  0
  1 37  1  0
  2 38  1  0
  4 39  1  0
  8 40  1  0
  9 41  1  0
 11 42  1  0
 12 43  1  0
 16 44  1  0
 16 45  1  0
 16 46  1  0
 19 47  1  0
 20 48  1  0
 21 49  1  0
 22 50  1  0
 24 51  1  0
 27 52  1  0
 27 53  1  0
 30 54  1  0
 31 55  1  0
 32 56  1  0
 33 57  1  0
 35 58  1  0
 35 59  1  0
M  CHG  1  14  -1
M  END
>  <UniqueID>  (23) 
19

>  <SMILES>  (23) 
C=Cc1cc(C(=O)C=Cc2ccc([N-]S(C)(=O)=O)cc2)ccc1NC(=O)CSc1ccccc1N

>  <Energy>  (23) 
75.71895199981705

>  <Genealogy>  (23) 
C=Cc1cc(C(=O)C=Cc2ccc([N-]S(C)(=O)=O)cc2)ccc1NC(=O)CSc1ccccc1N (protonated)
C=Cc1cc(C(=O)C=Cc2ccc([N-]S(C)(=O)=O)cc2)ccc1NC(=O)CSc1ccccc1N (3D coordinates assigned)
C=Cc1cc(C(=O)C=Cc2ccc([N-]S(C)(=O)=O)cc2)ccc1NC(=O)CSc1ccccc1N (optimized conformer: 75.71895199981705 kcal/mol)

>  <smiles>  (23) 
C=Cc1cc(C(=O)C=Cc2ccc(NS(C)(=O)=O)cc2)ccc1NC(=O)CSc1ccccc1N

>  <score_type>  (23) 
oracle

>  <origin>  (23) 
adg

>  <m_score__min__energy>  (23) 
-11.859999999999999

>  <m_primary>  (23) 
energy

$$$$
24:0
     RDKit          3D

 45 47  0  0  0  0  0  0  0  0999 V2000
   54.7690   26.2580   45.8860 N   0  0  0  0  0  0  0  0  0  0  0  0
   56.0900   26.3250   46.4180 C   0  0  0  0  0  0  0  0  0  0  0  0
   56.5050   25.3920   47.1560 O   0  0  0  0  0  0  0  0  0  0  0  0
   56.9500   27.4840   46.0970 C   0  0  0  0  0  0  0  0  0  0  0  0
   56.4550   28.4480   45.2730 N   0  0  0  0  0  0  0  0  0  0  0  0
   57.1660   29.5510   44.9160 C   0  0  0  0  0  0  0  0  0  0  0  0
   56.5580   30.5530   44.0150 C   0  0  0  0  0  0  0  0  0  0  0  0
   57.1160   30.8080   42.7230 N   0  0  0  0  0  0  0  0  0  0  0  0
   55.5360   31.1950   44.3790 O   0  0  0  0  0  0  0  0  0  0  0  0
   58.4680   29.7160   45.4090 C   0  0  0  0  0  0  0  0  0  0  0  0
   59.0170   28.7500   46.2700 C   0  0  0  0  0  0  0  0  0  0  0  0
   60.3120   28.8640   46.8050 O   0  0  0  0  0  0  0  0  0  0  0  0
   60.6620   28.6580   48.1740 C   0  0  0  0  0  0  0  0  0  0  0  0
   59.9050   29.6060   49.0650 C   0  0  0  0  0  0  0  0  0  0  0  0
   58.9300   29.1110   49.9460 C   0  0  0  0  0  0  0  0  0  0  0  0
   58.2330   29.9820   50.7850 C   0  0  0  0  0  0  0  0  0  0  0  0
   58.4950   31.3540   50.7460 C   0  0  0  0  0  0  0  0  0  0  0  0
   59.4480   31.8680   49.8600 C   0  0  0  0  0  0  0  0  0  0  0  0
   59.6950   33.2810   49.8580 N   0  0  0  0  0  0  0  0  0  0  0  0
   60.0890   34.0760   48.7300 C   0  0  0  0  0  0  0  0  0  0  0  0
   61.0550   34.8800   48.8320 O   0  0  0  0  0  0  0  0  0  0  0  0
   59.3990   33.9120   47.4300 C   0  0  0  0  0  0  0  0  0  0  0  0
   59.9960   34.3650   46.2380 C   0  0  0  0  0  0  0  0  0  0  0  0
   59.3410   34.2070   45.0120 C   0  0  0  0  0  0  0  0  0  0  0  0
   58.0850   33.5960   44.9620 C   0  0  0  0  0  0  0  0  0  0  0  0
   57.4530   33.4450   43.7720 F   0  0  0  0  0  0  0  0  0  0  0  0
   57.4830   33.1420   46.1370 C   0  0  0  0  0  0  0  0  0  0  0  0
   58.1340   33.2970   47.3650 C   0  0  0  0  0  0  0  0  0  0  0  0
   60.1730   30.9850   49.0380 C   0  0  0  0  0  0  0  0  0  0  0  0
   58.2550   27.6250   46.6090 C   0  0  0  0  0  0  0  0  0  0  0  0
   58.8030   26.6660   47.4570 O   0  0  0  0  0  0  0  0  0  0  0  0
   53.9710   26.7290   46.3690 H   0  0  0  0  0  0  0  0  0  0  0  0
   57.9600   30.2980   42.3840 H   0  0  0  0  0  0  0  0  0  0  0  0
   56.6760   31.5180   42.0960 H   0  0  0  0  0  0  0  0  0  0  0  0
   59.0583   30.5990   45.1228 H   0  0  0  0  0  0  0  0  0  0  0  0
   60.4180   27.6235   48.4574 H   0  0  0  0  0  0  0  0  0  0  0  0
   61.7396   28.8429   48.2953 H   0  0  0  0  0  0  0  0  0  0  0  0
   58.7147   28.0327   49.9751 H   0  0  0  0  0  0  0  0  0  0  0  0
   57.4758   29.5874   51.4785 H   0  0  0  0  0  0  0  0  0  0  0  0
   57.9486   32.0341   51.4160 H   0  0  0  0  0  0  0  0  0  0  0  0
   60.9844   34.8466   46.2710 H   0  0  0  0  0  0  0  0  0  0  0  0
   59.8152   34.5642   44.0860 H   0  0  0  0  0  0  0  0  0  0  0  0
   56.4944   32.6613   46.0968 H   0  0  0  0  0  0  0  0  0  0  0  0
   57.6544   32.9359   48.2867 H   0  0  0  0  0  0  0  0  0  0  0  0
   60.9543   31.3770   48.3702 H   0  0  0  0  0  0  0  0  0  0  0  0
  1  2  1  0
  2  3  2  0
  2  4  1  0
  4  5  2  0
  5  6  1  0
  6  7  1  0
  7  8  1  0
  7  9  2  0
  6 10  2  0
 10 11  1  0
 11 12  1  0
 12 13  1  0
 13 14  1  0
 14 15  2  0
 15 16  1  0
 16 17  2  0
 17 18  1  0
 18 19  1  0
 19 20  1  0
 20 21  2  0
 20 22  1  0
 22 23  2  0
 23 24  1  0
 24 25  2  0
 25 26  1  0
 25 27  1  0
 27 28  2  0
 18 29  2  0
 11 30  2  0
 30 31  1  0
 30  4  1  0
 29 14  1  0
 28 22  1  0
  1 32  1  0
  8 33  1  0
  8 34  1  0
 10 35  1  0
 13 36  1  0
 13 37  1  0
 15 38  1  0
 16 39  1  0
 17 40  1  0
 23 41  1  0
 24 42  1  0
 27 43  1  0
 28 44  1  0
 29 45  1  0
M  CHG  3   1  -1  19  -1  31  -1
M  END
>  <UniqueID>  (24) 
20

>  <SMILES>  (24) 
[NH-]C(=O)c1nc(C(N)=O)cc(OCc2cccc([N-]C(=O)c3ccc(F)cc3)c2)c1[O-]

>  <Energy>  (24) 
51.692103267145825

>  <Genealogy>  (24) 
[NH-]C(=O)c1nc(C(N)=O)cc(OCc2cccc([N-]C(=O)c3ccc(F)cc3)c2)c1[O-] (protonated)
[NH-]C(=O)c1nc(C(N)=O)cc(OCc2cccc([N-]C(=O)c3ccc(F)cc3)c2)c1[O-] (3D coordinates assigned)
[NH-]C(=O)c1nc(C(N)=O)cc(OCc2cccc([N-]C(=O)c3ccc(F)cc3)c2)c1[O-] (optimized conformer: 51.692103267145825 kcal/mol)

>  <smiles>  (24) 
NC(=O)c1cc(OCc2cccc(NC(=O)c3ccc(F)cc3)c2)c(O)c(C(N)=O)n1

>  <score_type>  (24) 
oracle

>  <origin>  (24) 
adg

>  <m_score__min__energy>  (24) 
-15.68

>  <m_primary>  (24) 
energy

$$$$
25:0
     RDKit          3D

 49 52  0  0  0  0  0  0  0  0999 V2000
   59.9204   28.7769   47.5422 H   0  0  0  0  0  0  0  0  0  0  0  0
   59.3670   28.1360   46.8400 C   0  0  0  0  0  0  0  0  0  0  0  0
   59.4828   27.0430   46.8848 H   0  0  0  0  0  0  0  0  0  0  0  0
   58.5500   28.6880   45.9280 C   0  0  0  0  0  0  0  0  0  0  0  0
   57.7830   28.0070   44.9720 C   0  0  0  0  0  0  0  0  0  0  0  0
   57.7310   26.6710   44.7800 C   0  0  0  0  0  0  0  0  0  0  0  0
   58.1601   26.2820   43.8448 H   0  0  0  0  0  0  0  0  0  0  0  0
   57.1480   25.6840   45.7160 C   0  0  0  0  0  0  0  0  0  0  0  0
   57.7790   24.6150   46.2330 N   0  0  0  0  0  0  0  0  0  0  0  0
   56.8530   24.0630   47.0470 C   0  0  0  0  0  0  0  0  0  0  0  0
   57.0750   23.0210   47.7170 O   0  0  0  0  0  0  0  0  0  0  0  0
   55.6730   24.7170   47.0870 N   0  0  0  0  0  0  0  0  0  0  0  0
   55.8790   25.7410   46.2440 C   0  0  0  0  0  0  0  0  0  0  0  0
   54.9240   26.7100   45.9620 O   0  0  0  0  0  0  0  0  0  0  0  0
   57.0690   28.9850   44.2870 C   0  0  0  0  0  0  0  0  0  0  0  0
   56.3522   28.8208   43.4689 H   0  0  0  0  0  0  0  0  0  0  0  0
   57.4320   30.2000   44.8300 C   0  0  0  0  0  0  0  0  0  0  0  0
   56.8820   31.5260   44.3980 C   0  0  0  0  0  0  0  0  0  0  0  0
   56.6330   32.1264   45.2854 H   0  0  0  0  0  0  0  0  0  0  0  0
   57.6343   32.0564   43.7958 H   0  0  0  0  0  0  0  0  0  0  0  0
   55.9751   31.3682   43.7958 H   0  0  0  0  0  0  0  0  0  0  0  0
   58.3250   30.0230   45.8280 N   0  0  0  0  0  0  0  0  0  0  0  0
   58.9200   31.0670   46.6190 C   0  0  0  0  0  0  0  0  0  0  0  0
   58.9150   30.9800   48.0180 C   0  0  0  0  0  0  0  0  0  0  0  0
   58.4612   30.1081   48.5118 H   0  0  0  0  0  0  0  0  0  0  0  0
   59.4850   31.9980   48.7870 C   0  0  0  0  0  0  0  0  0  0  0  0
   59.4872   31.9183   49.8841 H   0  0  0  0  0  0  0  0  0  0  0  0
   60.0550   33.1220   48.1680 C   0  0  0  0  0  0  0  0  0  0  0  0
   60.6590   34.2260   49.0040 C   0  0  0  0  0  0  0  0  0  0  0  0
   60.6364   35.1560   48.4170 H   0  0  0  0  0  0  0  0  0  0  0  0
   60.0607   34.2911   49.9248 H   0  0  0  0  0  0  0  0  0  0  0  0
   62.0560   33.9720   49.4190 N   0  0  0  0  0  0  0  0  0  0  0  0
   62.2810   32.7820   50.2580 C   0  0  0  0  0  0  0  0  0  0  0  0
   61.3500   32.5455   50.7941 H   0  0  0  0  0  0  0  0  0  0  0  0
   63.0986   33.0117   50.9571 H   0  0  0  0  0  0  0  0  0  0  0  0
   62.6890   31.5880   49.4500 C   0  0  0  0  0  0  0  0  0  0  0  0
   62.4960   30.4300   49.9070 O   0  0  0  0  0  0  0  0  0  0  0  0
   63.3700   31.7560   48.2060 N   0  0  0  0  0  0  0  0  0  0  0  0
   63.7060   30.9050   47.7010 H   0  0  0  0  0  0  0  0  0  0  0  0
   63.3650   33.0240   47.4840 C   0  0  0  0  0  0  0  0  0  0  0  0
   62.5767   32.9910   46.7175 H   0  0  0  0  0  0  0  0  0  0  0  0
   64.3596   33.1575   47.0336 H   0  0  0  0  0  0  0  0  0  0  0  0
   63.1040   34.2250   48.4100 C   0  0  0  0  0  0  0  0  0  0  0  0
   62.7936   35.0805   47.7921 H   0  0  0  0  0  0  0  0  0  0  0  0
   64.0384   34.4228   48.9556 H   0  0  0  0  0  0  0  0  0  0  0  0
   60.0910   33.1860   46.7650 C   0  0  0  0  0  0  0  0  0  0  0  0
   60.5720   34.0418   46.2689 H   0  0  0  0  0  0  0  0  0  0  0  0
   59.5200   32.1700   45.9970 C   0  0  0  0  0  0  0  0  0  0  0  0
   59.5411   32.2354   44.8992 H   0  0  0  0  0  0  0  0  0  0  0  0
  1  2  1  0
  2  3  1  0
  2  4  2  0
  4  5  1  0
  5  6  2  0
  6  7  1  0
  6  8  1  0
  8  9  1  0
  9 10  1  0
 10 11  2  0
 10 12  1  0
 12 13  1  0
 13 14  1  0
  5 15  1  0
 15 16  1  0
 15 17  2  0
 17 18  1  0
 18 19  1  0
 18 20  1  0
 18 21  1  0
 17 22  1  0
 22 23  1  0
 23 24  2  0
 24 25  1  0
 24 26  1  0
 26 27  1  0
 26 28  2  0
 28 29  1  0
 29 30  1  0
 29 31  1  0
 29 32  1  0
 32 33  1  0
 33 34  1  0
 33 35  1  0
 33 36  1  0
 36 37  2  0
 36 38  1  0
 38 39  1  0
 38 40  1  0
 40 41  1  0
 40 42  1  0
 40 43  1  0
 43 44  1  0
 43 45  1  0
 28 46  1  0
 46 47  1  0
 46 48  2  0
 48 49  1  0
 22  4  1  0
 48 23  1  0
 13  8  2  0
 43 32  1  0
M  CHG  3   9  -1  12  -1  14  -1
M  END
>  <UniqueID>  (25) 
21

>  <SMILES>  (25) 
C=c1/c(=C/c2[n-]c(=O)[n-]c2[O-])cc(C)n1-c1ccc(CN2CCNC(=O)C2)cc1

>  <Energy>  (25) 
128.21914739455414

>  <Genealogy>  (25) 
C=c1c(=Cc2[n-]c(=O)[n-]c2[O-])cc(C)n1-c1ccc(CN2CCNC(=O)C2)cc1 (protonated)
C=c1/c(=C/c2[n-]c(=O)[n-]c2[O-])cc(C)n1-c1ccc(CN2CCNC(=O)C2)cc1 (cis-trans isomerization)
C=c1/c(=C/c2[n-]c(=O)[n-]c2[O-])cc(C)n1-c1ccc(CN2CCNC(=O)C2)cc1 (3D coordinates assigned)
C=c1/c(=C/c2[n-]c(=O)[n-]c2[O-])cc(C)n1-c1ccc(CN2CCNC(=O)C2)cc1 (nonaromatic ring conformer: 128.21914739455414 kcal/mol)

>  <smiles>  (25) 
C=c1c(=Cc2[nH]c(=O)[nH]c2O)cc(C)n1-c1ccc(CN2CCNC(=O)C2)cc1

>  <score_type>  (25) 
oracle

>  <origin>  (25) 
adg

>  <m_score__min__energy>  (25) 
-15.81

>  <m_primary>  (25) 
energy

$$$$
26:0
     RDKit          3D

 44 46  0  0  0  0  0  0  0  0999 V2000
   62.6057   31.0431   46.9840 H   0  0  0  0  0  0  0  0  0  0  0  0
   61.5380   30.8010   46.8770 C   0  0  0  0  0  0  0  0  0  0  0  0
   60.7766   31.4728   47.3000 H   0  0  0  0  0  0  0  0  0  0  0  0
   61.1670   29.6940   46.2350 C   0  0  0  0  0  0  0  0  0  0  0  0
   61.9501   29.0410   45.8223 H   0  0  0  0  0  0  0  0  0  0  0  0
   59.7510   29.3000   46.0500 C   0  0  0  0  0  0  0  0  0  0  0  0
   58.9840   30.0030   45.1190 C   0  0  0  0  0  0  0  0  0  0  0  0
   59.4386   30.8277   44.5505 H   0  0  0  0  0  0  0  0  0  0  0  0
   57.6480   29.6700   44.9030 C   0  0  0  0  0  0  0  0  0  0  0  0
   56.7480   30.5290   43.6430 S   0  0  0  0  0  0  0  0  0  0  0  0
   56.6990   29.7390   42.3660 O   0  0  0  0  0  0  0  0  0  0  0  0
   55.3390   30.7490   44.1150 O   0  0  0  0  0  0  0  0  0  0  0  0
   57.4950   32.0680   43.3520 N   0  0  0  0  0  0  0  0  0  0  0  0
   57.8890   32.8740   44.2910 C   0  0  0  0  0  0  0  0  0  0  0  0
   58.9400   33.7200   44.0930 N   0  0  0  0  0  0  0  0  0  0  0  0
   59.3760   34.5660   45.0640 C   0  0  0  0  0  0  0  0  0  0  0  0
   60.2257   35.2365   44.8681 H   0  0  0  0  0  0  0  0  0  0  0  0
   58.7460   34.5840   46.3090 C   0  0  0  0  0  0  0  0  0  0  0  0
   59.0952   35.2643   47.0997 H   0  0  0  0  0  0  0  0  0  0  0  0
   57.6670   33.7280   46.5390 C   0  0  0  0  0  0  0  0  0  0  0  0
   57.1612   33.7295   47.5158 H   0  0  0  0  0  0  0  0  0  0  0  0
   57.2310   32.8700   45.5270 C   0  0  0  0  0  0  0  0  0  0  0  0
   56.3782   32.1970   45.6994 H   0  0  0  0  0  0  0  0  0  0  0  0
   57.0830   28.6110   45.6310 C   0  0  0  0  0  0  0  0  0  0  0  0
   55.8710   28.3060   45.4470 O   0  0  0  0  0  0  0  0  0  0  0  0
   57.8450   27.8920   46.5200 N   0  0  0  0  0  0  0  0  0  0  0  0
   57.2630   26.7020   47.1750 C   0  0  0  0  0  0  0  0  0  0  0  0
   57.9765   26.3138   47.9168 H   0  0  0  0  0  0  0  0  0  0  0  0
   56.3221   26.9944   47.6641 H   0  0  0  0  0  0  0  0  0  0  0  0
   56.9660   25.6230   46.1630 C   0  0  0  0  0  0  0  0  0  0  0  0
   57.9460   24.7490   45.7950 N   0  0  0  0  0  0  0  0  0  0  0  0
   57.7350   23.7570   44.8900 C   0  0  0  0  0  0  0  0  0  0  0  0
   58.8500   22.8230   44.5410 C   0  0  0  0  0  0  0  0  0  0  0  0
   59.3088   22.4387   45.4639 H   0  0  0  0  0  0  0  0  0  0  0  0
   58.4538   21.9832   43.9512 H   0  0  0  0  0  0  0  0  0  0  0  0
   59.6073   23.3602   43.9512 H   0  0  0  0  0  0  0  0  0  0  0  0
   56.4620   23.5900   44.3300 C   0  0  0  0  0  0  0  0  0  0  0  0
   56.2742   22.7820   43.6076 H   0  0  0  0  0  0  0  0  0  0  0  0
   55.4350   24.4590   44.6980 C   0  0  0  0  0  0  0  0  0  0  0  0
   54.4324   24.3406   44.2613 H   0  0  0  0  0  0  0  0  0  0  0  0
   55.6780   25.4790   45.6200 C   0  0  0  0  0  0  0  0  0  0  0  0
   54.6470   26.3360   45.9900 O   0  0  0  0  0  0  0  0  0  0  0  0
   59.1690   28.2040   46.7170 C   0  0  0  0  0  0  0  0  0  0  0  0
   59.9560   27.4070   47.5460 O   0  0  0  0  0  0  0  0  0  0  0  0
  1  2  1  0
  2  3  1  0
  2  4  2  0
  4  5  1  0
  4  6  1  0
  6  7  1  0
  7  8  1  0
  7  9  2  0
  9 10  1  0
 10 11  2  0
 10 12  2  0
 10 13  1  0
 13 14  2  0
 14 15  1  0
 15 16  1  0
 16 17  1  0
 16 18  2  0
 18 19  1  0
 18 20  1  0
 20 21  1  0
 20 22  2  0
 22 23  1  0
  9 24  1  0
 24 25  2  0
 24 26  1  0
 26 27  1  0
 27 28  1  0
 27 29  1  0
 27 30  1  0
 30 31  2  0
 31 32  1  0
 32 33  1  0
 33 34  1  0
 33 35  1  0
 33 36  1  0
 32 37  2  0
 37 38  1  0
 37 39  1  0
 39 40  1  0
 39 41  2  0
 41 42  1  0
 26 43  1  0
 43 44  1  0
 43  6  2  0
 22 14  1  0
 41 30  1  0
M  CHG  3  15  -1  42  -1  44  -1
M  END
>  <UniqueID>  (26) 
22

>  <SMILES>  (26) 
C=Cc1cc(S(=O)(=O)/N=c2/cccc[n-]2)c(=O)n(Cc2nc(C)ccc2[O-])c1[O-]

>  <Energy>  (26) 
56.42906851131294

>  <Genealogy>  (26) 
C=Cc1cc(S(=O)(=O)N=c2cccc[n-]2)c(=O)n(Cc2nc(C)ccc2[O-])c1[O-] (protonated)
C=Cc1cc(S(=O)(=O)/N=c2/cccc[n-]2)c(=O)n(Cc2nc(C)ccc2[O-])c1[O-] (cis-trans isomerization)
C=Cc1cc(S(=O)(=O)/N=c2/cccc[n-]2)c(=O)n(Cc2nc(C)ccc2[O-])c1[O-] (3D coordinates assigned)
C=Cc1cc(S(=O)(=O)/N=c2/cccc[n-]2)c(=O)n(Cc2nc(C)ccc2[O-])c1[O-] (optimized conformer: 56.42906851131294 kcal/mol)

>  <smiles>  (26) 
C=Cc1cc(S(=O)(=O)N=c2cccc[nH]2)c(=O)n(Cc2nc(C)ccc2O)c1O

>  <score_type>  (26) 
oracle

>  <origin>  (26) 
adg

>  <m_score__min__energy>  (26) 
-15.43

>  <m_primary>  (26) 
energy

$$$$
27:0
     RDKit          3D

 57 60  0  0  0  0  0  0  0  0999 V2000
   63.7710   31.9690   48.3110 C   0  0  0  0  0  0  0  0  0  0  0  0
   62.3330   32.2460   48.4400 N   0  0  0  0  0  0  0  0  0  0  0  0
   61.6760   32.3360   47.1120 C   0  0  0  0  0  0  0  0  0  0  0  0
   61.4860   33.7910   46.6490 C   0  0  0  0  0  0  0  0  0  0  0  0
   60.7020   34.5870   47.6230 N   0  0  0  0  0  0  0  0  0  0  0  0
   59.3390   34.9540   47.1700 C   0  0  0  0  0  0  0  0  0  0  0  0
   58.6820   33.9050   46.2960 C   0  0  0  0  0  0  0  0  0  0  0  0
   58.3160   32.6610   46.8350 C   0  0  0  0  0  0  0  0  0  0  0  0
   57.7700   31.6670   46.0190 C   0  0  0  0  0  0  0  0  0  0  0  0
   57.5600   31.9090   44.6530 C   0  0  0  0  0  0  0  0  0  0  0  0
   57.0960   30.8030   43.7440 C   0  0  0  0  0  0  0  0  0  0  0  0
   57.4680   29.4760   44.3420 C   0  0  0  0  0  0  0  0  0  0  0  0
   58.7800   29.1310   44.4220 N   0  0  0  0  0  0  0  0  0  0  0  0
   59.1820   27.9920   45.0410 C   0  0  0  0  0  0  0  0  0  0  0  0
   60.4100   27.7140   45.0910 O   0  0  0  0  0  0  0  0  0  0  0  0
   58.2230   27.1480   45.6280 C   0  0  0  0  0  0  0  0  0  0  0  0
   58.6310   25.9230   46.4070 C   0  0  0  0  0  0  0  0  0  0  0  0
   58.3160   24.6810   45.6160 C   0  0  0  0  0  0  0  0  0  0  0  0
   57.1410   24.6040   44.8480 C   0  0  0  0  0  0  0  0  0  0  0  0
   56.8700   23.4630   44.0870 C   0  0  0  0  0  0  0  0  0  0  0  0
   57.7710   22.3950   44.0810 C   0  0  0  0  0  0  0  0  0  0  0  0
   58.9480   22.4680   44.8310 C   0  0  0  0  0  0  0  0  0  0  0  0
   59.2210   23.6060   45.5960 C   0  0  0  0  0  0  0  0  0  0  0  0
   56.9070   27.4970   45.5550 N   0  0  0  0  0  0  0  0  0  0  0  0
   56.5080   28.6380   44.9290 C   0  0  0  0  0  0  0  0  0  0  0  0
   55.1570   28.9650   44.8900 O   0  0  0  0  0  0  0  0  0  0  0  0
   57.8780   33.1680   44.1220 C   0  0  0  0  0  0  0  0  0  0  0  0
   58.4250   34.1620   44.9380 C   0  0  0  0  0  0  0  0  0  0  0  0
   60.7540   34.0830   49.0130 C   0  0  0  0  0  0  0  0  0  0  0  0
   62.1110   33.4340   49.3000 C   0  0  0  0  0  0  0  0  0  0  0  0
   64.2190   31.8827   49.3119 H   0  0  0  0  0  0  0  0  0  0  0  0
   63.9151   31.0266   47.7623 H   0  0  0  0  0  0  0  0  0  0  0  0
   64.2549   32.7905   47.7623 H   0  0  0  0  0  0  0  0  0  0  0  0
   62.2980   31.8087   46.3737 H   0  0  0  0  0  0  0  0  0  0  0  0
   60.6793   31.8789   47.1993 H   0  0  0  0  0  0  0  0  0  0  0  0
   62.4751   34.2560   46.5250 H   0  0  0  0  0  0  0  0  0  0  0  0
   60.9313   33.7751   45.6993 H   0  0  0  0  0  0  0  0  0  0  0  0
   58.7087   35.1100   48.0579 H   0  0  0  0  0  0  0  0  0  0  0  0
   59.4384   35.8635   46.5592 H   0  0  0  0  0  0  0  0  0  0  0  0
   58.4603   32.4676   47.9082 H   0  0  0  0  0  0  0  0  0  0  0  0
   57.5036   30.6904   46.4494 H   0  0  0  0  0  0  0  0  0  0  0  0
   56.0038   30.8590   43.6259 H   0  0  0  0  0  0  0  0  0  0  0  0
   57.5764   30.9102   42.7603 H   0  0  0  0  0  0  0  0  0  0  0  0
   59.7117   25.9624   46.6081 H   0  0  0  0  0  0  0  0  0  0  0  0
   58.0756   25.8971   47.3561 H   0  0  0  0  0  0  0  0  0  0  0  0
   56.4319   25.4450   44.8458 H   0  0  0  0  0  0  0  0  0  0  0  0
   55.9464   23.4059   43.4923 H   0  0  0  0  0  0  0  0  0  0  0  0
   57.5537   21.4960   43.4855 H   0  0  0  0  0  0  0  0  0  0  0  0
   59.6600   21.6296   44.8194 H   0  0  0  0  0  0  0  0  0  0  0  0
   60.1485   23.6602   46.1850 H   0  0  0  0  0  0  0  0  0  0  0  0
   56.1810   26.8910   46.0020 H   0  0  0  0  0  0  0  0  0  0  0  0
   57.6957   33.3740   43.0570 H   0  0  0  0  0  0  0  0  0  0  0  0
   58.6557   35.1510   44.5153 H   0  0  0  0  0  0  0  0  0  0  0  0
   60.6002   34.9218   49.7078 H   0  0  0  0  0  0  0  0  0  0  0  0
   59.9645   33.3288   49.1468 H   0  0  0  0  0  0  0  0  0  0  0  0
   62.9071   34.1686   49.1087 H   0  0  0  0  0  0  0  0  0  0  0  0
   62.1252   33.1094   50.3509 H   0  0  0  0  0  0  0  0  0  0  0  0
  1  2  1  0
  2  3  1  0
  3  4  1  0
  4  5  1  0
  5  6  1  0
  6  7  1  0
  7  8  2  0
  8  9  1  0
  9 10  2  0
 10 11  1  0
 11 12  1  0
 12 13  1  0
 13 14  1  0
 14 15  2  0
 14 16  1  0
 16 17  1  0
 17 18  1  0
 18 19  2  0
 19 20  1  0
 20 21  2  0
 21 22  1  0
 22 23  2  0
 16 24  2  0
 24 25  1  0
 25 26  1  0
 10 27  1  0
 27 28  2  0
  5 29  1  0
 29 30  1  0
 30  2  1  0
 28  7  1  0
 25 12  2  0
 23 18  1  0
  1 31  1  0
  1 32  1  0
  1 33  1  0
  3 34  1  0
  3 35  1  0
  4 36  1  0
  4 37  1  0
  6 38  1  0
  6 39  1  0
  8 40  1  0
  9 41  1  0
 11 42  1  0
 11 43  1  0
 17 44  1  0
 17 45  1  0
 19 46  1  0
 20 47  1  0
 21 48  1  0
 22 49  1  0
 23 50  1  0
 24 51  1  0
 27 52  1  0
 28 53  1  0
 29 54  1  0
 29 55  1  0
 30 56  1  0
 30 57  1  0
M  CHG  3  13  -1  24   1  26  -1
M  END
>  <UniqueID>  (27) 
23

>  <SMILES>  (27) 
CN1CCN(Cc2ccc(Cc3[n-]c(=O)c(Cc4ccccc4)[nH+]c3[O-])cc2)CC1

>  <Energy>  (27) 
72.45756337086655

>  <Genealogy>  (27) 
CN1CCN(Cc2ccc(Cc3[n-]c(=O)c(Cc4ccccc4)[nH+]c3[O-])cc2)CC1 (protonated)
CN1CCN(Cc2ccc(Cc3[n-]c(=O)c(Cc4ccccc4)[nH+]c3[O-])cc2)CC1 (3D coordinates assigned)
CN1CCN(Cc2ccc(Cc3[n-]c(=O)c(Cc4ccccc4)[nH+]c3[O-])cc2)CC1 (nonaromatic ring conformer: 72.45756337086655 kcal/mol)

>  <smiles>  (27) 
CN1CCN(Cc2ccc(Cc3[nH]c(=O)c(Cc4ccccc4)nc3O)cc2)CC1

>  <score_type>  (27) 
oracle

>  <origin>  (27) 
adg

>  <m_score__min__energy>  (27) 
-11.35

>  <m_primary>  (27) 
energy

$$$$
28:0
     RDKit          3D

 40 42  0  0  0  0  0  0  0  0999 V2000
   59.9107   30.9763   45.9069 H   0  0  0  0  0  0  0  0  0  0  0  0
   58.9550   30.5870   45.5260 C   0  0  0  0  0  0  0  0  0  0  0  0
   57.8460   31.3420   45.5810 C   0  0  0  0  0  0  0  0  0  0  0  0
   57.7880   32.6610   46.2540 C   0  0  0  0  0  0  0  0  0  0  0  0
   57.9546   32.6882   47.3410 H   0  0  0  0  0  0  0  0  0  0  0  0
   57.5470   33.8220   45.6320 C   0  0  0  0  0  0  0  0  0  0  0  0
   56.5325   34.2469   45.6472 H   0  0  0  0  0  0  0  0  0  0  0  0
   58.6250   34.5360   44.9280 C   0  0  0  0  0  0  0  0  0  0  0  0
   58.6085   34.5948   43.8297 H   0  0  0  0  0  0  0  0  0  0  0  0
   59.6220   35.1130   45.6020 C   0  0  0  0  0  0  0  0  0  0  0  0
   59.7649   36.1992   45.5033 H   0  0  0  0  0  0  0  0  0  0  0  0
   60.5410   34.3560   46.4740 C   0  0  0  0  0  0  0  0  0  0  0  0
   61.7060   33.8470   45.9950 N   0  0  0  0  0  0  0  0  0  0  0  0
   62.2400   33.2390   47.0680 C   0  0  0  0  0  0  0  0  0  0  0  0
   63.4430   32.5400   47.1340 C   0  0  0  0  0  0  0  0  0  0  0  0
   64.0859   32.4293   46.2483 H   0  0  0  0  0  0  0  0  0  0  0  0
   63.8080   31.9800   48.3730 C   0  0  0  0  0  0  0  0  0  0  0  0
   64.7516   31.4219   48.4636 H   0  0  0  0  0  0  0  0  0  0  0  0
   62.9710   32.1300   49.5000 C   0  0  0  0  0  0  0  0  0  0  0  0
   63.2656   31.6855   50.4621 H   0  0  0  0  0  0  0  0  0  0  0  0
   61.7610   32.8450   49.4010 C   0  0  0  0  0  0  0  0  0  0  0  0
   61.1004   32.9710   50.2715 H   0  0  0  0  0  0  0  0  0  0  0  0
   61.4310   33.3880   48.1570 C   0  0  0  0  0  0  0  0  0  0  0  0
   60.3540   34.1130   47.8040 N   0  0  0  0  0  0  0  0  0  0  0  0
   59.2690   34.5590   48.6780 C   0  0  0  0  0  0  0  0  0  0  0  0
   59.5701   34.4352   49.7287 H   0  0  0  0  0  0  0  0  0  0  0  0
   59.0520   35.6193   48.4812 H   0  0  0  0  0  0  0  0  0  0  0  0
   58.3690   33.9579   48.4812 H   0  0  0  0  0  0  0  0  0  0  0  0
   56.6710   30.8640   44.9910 O   0  0  0  0  0  0  0  0  0  0  0  0
   56.6840   29.7500   44.1470 C   0  0  0  0  0  0  0  0  0  0  0  0
   55.6010   29.3600   43.6290 O   0  0  0  0  0  0  0  0  0  0  0  0
   57.9500   29.1420   43.7900 N   0  0  2  0  0  0  0  0  0  0  0  0
   58.3590   29.6910   42.9960 H   0  0  0  0  0  0  0  0  0  0  0  0
   57.7830   27.7450   43.3520 C   0  0  0  0  0  0  0  0  0  0  0  0
   57.7049   27.0913   44.2332 H   0  0  0  0  0  0  0  0  0  0  0  0
   56.8679   27.6570   42.7479 H   0  0  0  0  0  0  0  0  0  0  0  0
   58.6515   27.4438   42.7479 H   0  0  0  0  0  0  0  0  0  0  0  0
   58.8790   29.2020   44.9380 C   0  0  0  0  0  0  0  0  0  0  0  0
   59.8823   28.9034   44.5999 H   0  0  0  0  0  0  0  0  0  0  0  0
   58.5044   28.5208   45.7162 H   0  0  0  0  0  0  0  0  0  0  0  0
  1  2  1  0
  2  3  2  0
  3  4  1  0
  4  5  1  0
  4  6  2  0
  6  7  1  0
  6  8  1  0
  8  9  1  0
  8 10  2  0
 10 11  1  0
 10 12  1  0
 12 13  2  0
 13 14  1  0
 14 15  2  0
 15 16  1  0
 15 17  1  0
 17 18  1  0
 17 19  2  0
 19 20  1  0
 19 21  1  0
 21 22  1  0
 21 23  2  0
 23 24  1  0
 24 25  1  0
 25 26  1  0
 25 27  1  0
 25 28  1  0
  3 29  1  0
 29 30  1  0
 30 31  2  0
 30 32  1  0
 32 33  1  6
 32 34  1  0
 34 35  1  0
 34 36  1  0
 34 37  1  0
 32 38  1  0
 38 39  1  0
 38 40  1  0
 38  2  1  0
 24 12  1  0
 23 14  1  0
M  CHG  1  32   1
M  END
>  <UniqueID>  (28) 
24

>  <SMILES>  (28) 
Cn1c(/C=C/C=C/C2=CC[N@@H+](C)C(=O)O2)nc2ccccc21

>  <Energy>  (28) 
86.52481162536668

>  <Genealogy>  (28) 
Cn1c(C=CC=CC2=CC[NH+](C)C(=O)O2)nc2ccccc21 (protonated)
Cn1c(C=CC=CC2=CC[N@@H+](C)C(=O)O2)nc2ccccc21 (chirality)
Cn1c(/C=C/C=C/C2=CC[N@@H+](C)C(=O)O2)nc2ccccc21 (cis-trans isomerization)
Cn1c(/C=C/C=C/C2=CC[N@@H+](C)C(=O)O2)nc2ccccc21 (3D coordinates assigned)
Cn1c(/C=C/C=C/C2=CC[N@@H+](C)C(=O)O2)nc2ccccc21 (nonaromatic ring conformer: 86.52481162536668 kcal/mol)

>  <smiles>  (28) 
CN1CC=C(C=CC=Cc2nc3ccccc3n2C)OC1=O

>  <score_type>  (28) 
oracle

>  <origin>  (28) 
adg

>  <m_score__min__energy>  (28) 
-7.0199999999999996

>  <m_primary>  (28) 
energy

$$$$
29:0
     RDKit          3D

 24 25  0  0  0  0  0  0  0  0999 V2000
   58.3110   31.5480   41.0570 H   0  0  0  0  0  0  0  0  0  0  0  0
   57.4080   31.6850   41.5640 N   0  0  0  0  0  0  0  0  0  0  0  0
   57.3030   31.4560   42.8310 C   0  0  0  0  0  0  0  0  0  0  0  0
   57.7280   32.3850   43.7240 N   0  0  0  0  0  0  0  0  0  0  0  0
   57.6220   32.1480   45.0550 C   0  0  0  0  0  0  0  0  0  0  0  0
   58.0760   33.1300   45.9970 C   0  0  0  0  0  0  0  0  0  0  0  0
   58.4430   33.9230   46.7570 N   0  0  0  0  0  0  0  0  0  0  0  0
   57.0900   30.9800   45.4960 N   0  0  0  0  0  0  0  0  0  0  0  0
   56.6540   30.0490   44.6080 C   0  0  0  0  0  0  0  0  0  0  0  0
   56.1130   28.8110   45.0880 N   0  0  0  0  0  0  0  0  0  0  0  0
   55.0740   28.7270   45.1620 H   0  0  0  0  0  0  0  0  0  0  0  0
   56.9260   27.6960   45.4900 C   0  0  0  0  0  0  0  0  0  0  0  0
   58.3270   27.7760   45.4020 C   0  0  0  0  0  0  0  0  0  0  0  0
   58.8000   28.7088   45.0612 H   0  0  0  0  0  0  0  0  0  0  0  0
   59.1230   26.6800   45.7440 C   0  0  0  0  0  0  0  0  0  0  0  0
   60.2186   26.7562   45.6821 H   0  0  0  0  0  0  0  0  0  0  0  0
   58.5300   25.4890   46.1640 C   0  0  0  0  0  0  0  0  0  0  0  0
   59.1580   24.6262   46.4306 H   0  0  0  0  0  0  0  0  0  0  0  0
   57.1390   25.3920   46.2460 C   0  0  0  0  0  0  0  0  0  0  0  0
   56.6757   24.4494   46.5729 H   0  0  0  0  0  0  0  0  0  0  0  0
   56.3300   26.4860   45.9150 C   0  0  0  0  0  0  0  0  0  0  0  0
   54.9460   26.3500   46.0350 O   0  0  0  0  0  0  0  0  0  0  0  0
   54.3480   27.0940   46.3700 H   0  0  0  0  0  0  0  0  0  0  0  0
   56.7700   30.2870   43.2750 N   0  0  0  0  0  0  0  0  0  0  0  0
  1  2  1  0
  2  3  2  0
  3  4  1  0
  4  5  2  0
  5  6  1  0
  6  7  3  0
  5  8  1  0
  8  9  1  0
  9 10  1  0
 10 11  1  0
 10 12  1  0
 12 13  2  0
 13 14  1  0
 13 15  1  0
 15 16  1  0
 15 17  2  0
 17 18  1  0
 17 19  1  0
 19 20  1  0
 19 21  2  0
 21 22  1  0
 22 23  1  0
  9 24  2  0
 24  3  1  0
 21 12  1  0
M  CHG  1   8  -1
M  END
>  <UniqueID>  (29) 
25

>  <SMILES>  (29) 
[H]/N=c1/nc(C#N)[n-]c(Nc2ccccc2O)n1

>  <Energy>  (29) 
28.83807618679283

>  <Genealogy>  (29) 
N#Cc1nc(=N)nc(Nc2ccccc2O)[n-]1 (protonated)
[H]/N=c1/nc(C#N)[n-]c(Nc2ccccc2O)n1 (cis-trans isomerization)
[H]/N=c1/nc(C#N)[n-]c(Nc2ccccc2O)n1 (3D coordinates assigned)
[H]/N=c1/nc(C#N)[n-]c(Nc2ccccc2O)n1 (optimized conformer: 28.83807618679283 kcal/mol)

>  <smiles>  (29) 
N#Cc1nc(=N)nc(Nc2ccccc2O)[nH]1

>  <score_type>  (29) 
oracle

>  <origin>  (29) 
adg

>  <m_score__min__energy>  (29) 
-8.6600000000000001

>  <m_primary>  (29) 
energy

$$$$
30:0
     RDKit          3D

 63 67  0  0  0  0  0  0  0  0999 V2000
   63.5900   32.9920   51.4270 C   0  0  0  0  0  0  0  0  0  0  0  0
   63.9470   33.8190   50.2610 N   0  0  0  0  0  0  0  0  0  0  0  0
   64.5970   33.0160   49.1920 C   0  0  0  0  0  0  0  0  0  0  0  0
   63.6890   32.7350   47.9800 C   0  0  0  0  0  0  0  0  0  0  0  0
   62.2920   32.6200   48.4070 N   0  0  0  0  0  0  0  0  0  0  0  0
   61.5090   31.4510   48.0960 C   0  0  0  0  0  0  0  0  0  0  0  0
   61.0680   30.5950   49.1200 C   0  0  0  0  0  0  0  0  0  0  0  0
   60.2990   29.4680   48.8190 C   0  0  0  0  0  0  0  0  0  0  0  0
   59.9640   29.1680   47.4910 C   0  0  0  0  0  0  0  0  0  0  0  0
   59.1580   28.0100   47.2100 N   0  0  0  0  0  0  0  0  0  0  0  0
   58.2230   27.9290   46.1210 C   0  0  0  0  0  0  0  0  0  0  0  0
   58.2980   28.7460   45.1640 O   0  0  0  0  0  0  0  0  0  0  0  0
   57.2070   26.8460   46.0820 C   0  0  0  0  0  0  0  0  0  0  0  0
   55.8930   27.1100   45.6490 C   0  0  0  0  0  0  0  0  0  0  0  0
   55.5260   28.3800   45.2180 O   0  0  0  0  0  0  0  0  0  0  0  0
   54.9670   26.1170   45.6230 N   0  0  0  0  0  0  0  0  0  0  0  0
   55.2580   24.8460   45.9970 C   0  0  0  0  0  0  0  0  0  0  0  0
   54.2630   23.8640   45.9550 C   0  0  0  0  0  0  0  0  0  0  0  0
   54.5480   22.5500   46.3490 C   0  0  0  0  0  0  0  0  0  0  0  0
   53.2800   21.3220   46.3290 S   0  0  0  0  0  0  0  0  0  0  0  0
   53.8110   20.0740   45.6820 O   0  0  0  0  0  0  0  0  0  0  0  0
   52.1260   21.8160   45.5000 O   0  0  0  0  0  0  0  0  0  0  0  0
   52.7130   20.9390   47.9420 N   0  0  0  0  0  0  0  0  0  0  0  0
   53.7690   20.3020   48.7360 C   0  0  0  0  0  0  0  0  0  0  0  0
   54.4200   21.3670   49.6060 C   0  0  0  0  0  0  0  0  0  0  0  0
   53.4750   22.5530   49.5840 C   0  0  0  0  0  0  0  0  0  0  0  0
   52.3260   22.1510   48.6710 C   0  0  0  0  0  0  0  0  0  0  0  0
   55.8440   22.2180   46.7660 C   0  0  0  0  0  0  0  0  0  0  0  0
   56.8450   23.1920   46.8080 C   0  0  0  0  0  0  0  0  0  0  0  0
   56.5620   24.5170   46.4270 C   0  0  0  0  0  0  0  0  0  0  0  0
   57.5400   25.5280   46.4670 C   0  0  0  0  0  0  0  0  0  0  0  0
   58.7090   25.2610   46.8620 O   0  0  0  0  0  0  0  0  0  0  0  0
   60.3750   30.0410   46.4690 C   0  0  0  0  0  0  0  0  0  0  0  0
   61.1430   31.1700   46.7690 C   0  0  0  0  0  0  0  0  0  0  0  0
   61.7000   33.7250   49.1690 C   0  0  0  0  0  0  0  0  0  0  0  0
   62.7970   34.6160   49.7800 C   0  0  0  0  0  0  0  0  0  0  0  0
   63.8264   33.5397   52.3512 H   0  0  0  0  0  0  0  0  0  0  0  0
   62.5139   32.7654   51.4002 H   0  0  0  0  0  0  0  0  0  0  0  0
   64.1631   32.0535   51.4002 H   0  0  0  0  0  0  0  0  0  0  0  0
   65.4844   33.5624   48.8401 H   0  0  0  0  0  0  0  0  0  0  0  0
   64.8481   32.0407   49.6346 H   0  0  0  0  0  0  0  0  0  0  0  0
   63.7812   33.5602   47.2585 H   0  0  0  0  0  0  0  0  0  0  0  0
   63.9992   31.7890   47.5122 H   0  0  0  0  0  0  0  0  0  0  0  0
   61.3302   30.8139   50.1656 H   0  0  0  0  0  0  0  0  0  0  0  0
   59.9536   28.8107   49.6306 H   0  0  0  0  0  0  0  0  0  0  0  0
   59.3370   27.1420   47.7630 H   0  0  0  0  0  0  0  0  0  0  0  0
   53.2513   24.1247   45.6108 H   0  0  0  0  0  0  0  0  0  0  0  0
   53.3340   19.5169   49.3719 H   0  0  0  0  0  0  0  0  0  0  0  0
   54.5179   19.8440   48.0731 H   0  0  0  0  0  0  0  0  0  0  0  0
   54.5464   20.9970   50.6342 H   0  0  0  0  0  0  0  0  0  0  0  0
   55.4190   21.6384   49.2342 H   0  0  0  0  0  0  0  0  0  0  0  0
   53.1029   22.7651   50.5972 H   0  0  0  0  0  0  0  0  0  0  0  0
   53.9770   23.4639   49.2258 H   0  0  0  0  0  0  0  0  0  0  0  0
   51.4268   21.9511   49.2723 H   0  0  0  0  0  0  0  0  0  0  0  0
   52.1060   22.9630   47.9623 H   0  0  0  0  0  0  0  0  0  0  0  0
   56.0748   21.1841   47.0621 H   0  0  0  0  0  0  0  0  0  0  0  0
   57.8583   22.9221   47.1402 H   0  0  0  0  0  0  0  0  0  0  0  0
   60.0906   29.8346   45.4266 H   0  0  0  0  0  0  0  0  0  0  0  0
   61.4631   31.8433   45.9601 H   0  0  0  0  0  0  0  0  0  0  0  0
   61.0746   34.3318   48.4977 H   0  0  0  0  0  0  0  0  0  0  0  0
   61.0914   33.3057   49.9837 H   0  0  0  0  0  0  0  0  0  0  0  0
   63.1490   35.3230   49.0144 H   0  0  0  0  0  0  0  0  0  0  0  0
   62.3656   35.1481   50.6407 H   0  0  0  0  0  0  0  0  0  0  0  0
  1  2  1  0
  2  3  1  0
  3  4  1  0
  4  5  1  0
  5  6  1  0
  6  7  2  0
  7  8  1  0
  8  9  2  0
  9 10  1  0
 10 11  1  0
 11 12  2  0
 11 13  1  0
 13 14  2  0
 14 15  1  0
 14 16  1  0
 16 17  1  0
 17 18  2  0
 18 19  1  0
 19 20  1  0
 20 21  2  0
 20 22  2  0
 20 23  1  0
 23 24  1  0
 24 25  1  0
 25 26  1  0
 26 27  1  0
 19 28  2  0
 28 29  1  0
 29 30  2  0
 30 31  1  0
 31 32  2  0
  9 33  1  0
 33 34  2  0
  5 35  1  0
 35 36  1  0
 36  2  1  0
 34  6  1  0
 31 13  1  0
 30 17  1  0
 27 23  1  0
  1 37  1  0
  1 38  1  0
  1 39  1  0
  3 40  1  0
  3 41  1  0
  4 42  1  0
  4 43  1  0
  7 44  1  0
  8 45  1  0
 10 46  1  0
 18 47  1  0
 24 48  1  0
 24 49  1  0
 25 50  1  0
 25 51  1  0
 26 52  1  0
 26 53  1  0
 27 54  1  0
 27 55  1  0
 28 56  1  0
 29 57  1  0
 33 58  1  0
 34 59  1  0
 35 60  1  0
 35 61  1  0
 36 62  1  0
 36 63  1  0
M  CHG  2  15  -1  16  -1
M  END
>  <UniqueID>  (30) 
26

>  <SMILES>  (30) 
CN1CCN(c2ccc(NC(=O)c3c([O-])[n-]c4cc(S(=O)(=O)N5CCCC5)ccc4c3=O)cc2)CC1

>  <Energy>  (30) 
92.1240164504624

>  <Genealogy>  (30) 
CN1CCN(c2ccc(NC(=O)c3c([O-])[n-]c4cc(S(=O)(=O)N5CCCC5)ccc4c3=O)cc2)CC1 (protonated)
CN1CCN(c2ccc(NC(=O)c3c([O-])[n-]c4cc(S(=O)(=O)N5CCCC5)ccc4c3=O)cc2)CC1 (3D coordinates assigned)
CN1CCN(c2ccc(NC(=O)c3c([O-])[n-]c4cc(S(=O)(=O)N5CCCC5)ccc4c3=O)cc2)CC1 (nonaromatic ring conformer: 92.1240164504624 kcal/mol)

>  <smiles>  (30) 
CN1CCN(c2ccc(NC(=O)c3c(O)[nH]c4cc(S(=O)(=O)N5CCCC5)ccc4c3=O)cc2)CC1

>  <score_type>  (30) 
oracle

>  <origin>  (30) 
adg

>  <m_score__min__energy>  (30) 
-13.15

>  <m_primary>  (30) 
energy

$$$$
31:0
     RDKit          3D

 44 47  0  0  0  0  0  0  0  0999 V2000
   55.4720   30.5500   44.3300 O   0  0  0  0  0  0  0  0  0  0  0  0
   56.3670   29.8180   44.8300 C   0  0  0  0  0  0  0  0  0  0  0  0
   56.0990   28.5190   45.1030 N   0  0  0  0  0  0  0  0  0  0  0  0
   57.0420   27.7040   45.6480 C   0  0  0  0  0  0  0  0  0  0  0  0
   56.7230   26.3650   45.9240 C   0  0  0  0  0  0  0  0  0  0  0  0
   57.6650   25.4840   46.4970 C   0  0  0  0  0  0  0  0  0  0  0  0
   57.3260   24.0910   46.7850 N   0  0  0  0  0  0  0  0  0  0  0  0
   57.8190   23.0230   45.8890 C   0  0  0  0  0  0  0  0  0  0  0  0
   57.3240   21.6240   46.2700 C   0  0  0  0  0  0  0  0  0  0  0  0
   57.2890   21.4650   47.6670 O   0  0  0  0  0  0  0  0  0  0  0  0
   56.2640   22.2800   48.1810 C   0  0  0  0  0  0  0  0  0  0  0  0
   56.6230   23.7630   48.0450 C   0  0  0  0  0  0  0  0  0  0  0  0
   58.9480   25.9970   46.7710 C   0  0  0  0  0  0  0  0  0  0  0  0
   59.2760   27.3260   46.5000 C   0  0  0  0  0  0  0  0  0  0  0  0
   58.3340   28.2140   45.9330 C   0  0  0  0  0  0  0  0  0  0  0  0
   58.6170   29.5420   45.6460 N   0  0  0  0  0  0  0  0  0  0  0  0
   59.9330   30.1660   45.9280 C   0  0  0  0  0  0  0  0  0  0  0  0
   59.7910   31.2920   46.9240 C   0  0  0  0  0  0  0  0  0  0  0  0
   59.0850   31.1040   48.1260 C   0  0  0  0  0  0  0  0  0  0  0  0
   58.9390   32.1580   49.0330 C   0  0  0  0  0  0  0  0  0  0  0  0
   59.4930   33.4090   48.7500 C   0  0  0  0  0  0  0  0  0  0  0  0
   59.3500   34.4290   49.6310 F   0  0  0  0  0  0  0  0  0  0  0  0
   60.1950   33.6070   47.5590 C   0  0  0  0  0  0  0  0  0  0  0  0
   60.3440   32.5560   46.6490 C   0  0  0  0  0  0  0  0  0  0  0  0
   57.6350   30.3390   45.1040 C   0  0  0  0  0  0  0  0  0  0  0  0
   57.8590   31.5550   44.8440 O   0  0  0  0  0  0  0  0  0  0  0  0
   55.1440   28.1480   44.8910 H   0  0  0  0  0  0  0  0  0  0  0  0
   55.7148   25.9936   45.6880 H   0  0  0  0  0  0  0  0  0  0  0  0
   57.4814   23.2444   44.8658 H   0  0  0  0  0  0  0  0  0  0  0  0
   58.9156   23.0111   45.9750 H   0  0  0  0  0  0  0  0  0  0  0  0
   56.3114   21.4783   45.8659 H   0  0  0  0  0  0  0  0  0  0  0  0
   58.0172   20.8804   45.8499 H   0  0  0  0  0  0  0  0  0  0  0  0
   55.3348   22.0823   47.6265 H   0  0  0  0  0  0  0  0  0  0  0  0
   56.1324   22.0472   49.2480 H   0  0  0  0  0  0  0  0  0  0  0  0
   55.6941   24.3506   48.0877 H   0  0  0  0  0  0  0  0  0  0  0  0
   57.3103   24.0046   48.8692 H   0  0  0  0  0  0  0  0  0  0  0  0
   59.7091   25.3345   47.2088 H   0  0  0  0  0  0  0  0  0  0  0  0
   60.2878   27.6897   46.7323 H   0  0  0  0  0  0  0  0  0  0  0  0
   60.6123   29.4047   46.3390 H   0  0  0  0  0  0  0  0  0  0  0  0
   60.3375   30.5743   44.9901 H   0  0  0  0  0  0  0  0  0  0  0  0
   58.6451   30.1218   48.3538 H   0  0  0  0  0  0  0  0  0  0  0  0
   58.3868   32.0019   49.9714 H   0  0  0  0  0  0  0  0  0  0  0  0
   60.6316   34.5918   47.3364 H   0  0  0  0  0  0  0  0  0  0  0  0
   60.8971   32.7185   45.7122 H   0  0  0  0  0  0  0  0  0  0  0  0
  1  2  2  0
  2  3  1  0
  3  4  1  0
  4  5  2  0
  5  6  1  0
  6  7  1  0
  7  8  1  0
  8  9  1  0
  9 10  1  0
 10 11  1  0
 11 12  1  0
  6 13  2  0
 13 14  1  0
 14 15  2  0
 15 16  1  0
 16 17  1  0
 17 18  1  0
 18 19  2  0
 19 20  1  0
 20 21  2  0
 21 22  1  0
 21 23  1  0
 23 24  2  0
 16 25  1  0
 25 26  2  0
 25  2  1  0
 15  4  1  0
 24 18  1  0
 12  7  1  0
  3 27  1  0
  5 28  1  0
  8 29  1  0
  8 30  1  0
  9 31  1  0
  9 32  1  0
 11 33  1  0
 11 34  1  0
 12 35  1  0
 12 36  1  0
 13 37  1  0
 14 38  1  0
 17 39  1  0
 17 40  1  0
 19 41  1  0
 20 42  1  0
 23 43  1  0
 24 44  1  0
M  END
>  <UniqueID>  (31) 
27

>  <SMILES>  (31) 
O=c1[nH]c2cc(N3CCOCC3)ccc2n(Cc2ccc(F)cc2)c1=O

>  <Energy>  (31) 
68.61979888761908

>  <Genealogy>  (31) 
O=c1[nH]c2cc(N3CCOCC3)ccc2n(Cc2ccc(F)cc2)c1=O (3D coordinates assigned)
O=c1[nH]c2cc(N3CCOCC3)ccc2n(Cc2ccc(F)cc2)c1=O (nonaromatic ring conformer: 68.61979888761908 kcal/mol)

>  <smiles>  (31) 
O=c1[nH]c2cc(N3CCOCC3)ccc2n(Cc2ccc(F)cc2)c1=O

>  <score_type>  (31) 
oracle

>  <origin>  (31) 
adg

>  <m_score__min__energy>  (31) 
-7.5800000000000001

>  <m_primary>  (31) 
energy

$$$$
32:0
     RDKit          3D

 50 52  0  0  0  0  0  0  0  0999 V2000
   57.3550   28.8010   44.1440 C   0  0  0  0  0  0  0  0  0  0  0  0
   56.2640   29.7450   44.5480 C   0  0  0  0  0  0  0  0  0  0  0  0
   55.1570   29.2790   44.9250 O   0  0  0  0  0  0  0  0  0  0  0  0
   56.4380   31.1680   44.5060 N   0  0  0  0  0  0  0  0  0  0  0  0
   57.5840   31.8700   43.9280 C   0  0  1  0  0  0  0  0  0  0  0  0
   57.3840   31.9940   42.4150 C   0  0  0  0  0  0  0  0  0  0  0  0
   57.7840   33.2490   44.5950 C   0  0  0  0  0  0  0  0  0  0  0  0
   58.9460   33.2800   45.5590 C   0  0  0  0  0  0  0  0  0  0  0  0
   59.3760   32.1020   46.1930 C   0  0  0  0  0  0  0  0  0  0  0  0
   60.4640   32.1300   47.0710 C   0  0  0  0  0  0  0  0  0  0  0  0
   61.1320   33.3350   47.3250 C   0  0  0  0  0  0  0  0  0  0  0  0
   62.2520   33.3620   48.2280 C   0  0  0  0  0  0  0  0  0  0  0  0
   63.1900   33.3850   48.9840 C   0  0  0  0  0  0  0  0  0  0  0  0
   64.3100   33.4110   49.8880 C   0  0  0  0  0  0  0  0  0  0  0  0
   64.1920   34.0540   51.1250 C   0  0  0  0  0  0  0  0  0  0  0  0
   65.2840   34.0730   51.9940 C   0  0  0  0  0  0  0  0  0  0  0  0
   66.4870   33.4480   51.6250 C   0  0  0  0  0  0  0  0  0  0  0  0
   67.6240   33.4300   52.4490 O   0  0  0  0  0  0  0  0  0  0  0  0
   68.6420   34.4300   52.4770 C   0  0  0  0  0  0  0  0  0  0  0  0
   68.2560   35.6080   51.5720 C   0  0  0  0  0  0  0  0  0  0  0  0
   68.0340   36.9310   52.2890 C   0  0  0  0  0  0  0  0  0  0  0  0
   69.2950   36.7140   51.4670 C   0  0  0  0  0  0  0  0  0  0  0  0
   66.5600   32.8200   50.3770 C   0  0  0  0  0  0  0  0  0  0  0  0
   65.4840   32.8120   49.5420 N   0  0  0  0  0  0  0  0  0  0  0  0
   60.7070   34.5120   46.6970 C   0  0  0  0  0  0  0  0  0  0  0  0
   59.6200   34.4850   45.8180 C   0  0  0  0  0  0  0  0  0  0  0  0
   57.8335   28.3870   45.0438 H   0  0  0  0  0  0  0  0  0  0  0  0
   56.9286   27.9823   43.5458 H   0  0  0  0  0  0  0  0  0  0  0  0
   58.1039   29.3407   43.5458 H   0  0  0  0  0  0  0  0  0  0  0  0
   58.5012   31.2927   44.1165 H   0  0  0  0  0  0  0  0  0  0  0  0
   56.4651   32.5637   42.2121 H   0  0  0  0  0  0  0  0  0  0  0  0
   58.2448   32.5170   41.9730 H   0  0  0  0  0  0  0  0  0  0  0  0
   57.2983   30.9904   41.9730 H   0  0  0  0  0  0  0  0  0  0  0  0
   57.9630   33.9958   43.8074 H   0  0  0  0  0  0  0  0  0  0  0  0
   56.8738   33.4681   45.1726 H   0  0  0  0  0  0  0  0  0  0  0  0
   58.8543   31.1534   45.9977 H   0  0  0  0  0  0  0  0  0  0  0  0
   60.7961   31.2040   47.5632 H   0  0  0  0  0  0  0  0  0  0  0  0
   63.2473   34.5401   51.4100 H   0  0  0  0  0  0  0  0  0  0  0  0
   65.2028   34.5775   52.9681 H   0  0  0  0  0  0  0  0  0  0  0  0
   68.7680   34.7908   53.5085 H   0  0  0  0  0  0  0  0  0  0  0  0
   69.5835   33.9927   52.1133 H   0  0  0  0  0  0  0  0  0  0  0  0
   67.6832   35.0056   50.8515 H   0  0  0  0  0  0  0  0  0  0  0  0
   67.2587   37.6258   51.9338 H   0  0  0  0  0  0  0  0  0  0  0  0
   67.8238   37.2273   53.3273 H   0  0  0  0  0  0  0  0  0  0  0  0
   69.4317   37.2518   50.5172 H   0  0  0  0  0  0  0  0  0  0  0  0
   70.3746   36.7883   51.6645 H   0  0  0  0  0  0  0  0  0  0  0  0
   67.4942   32.3286   50.0675 H   0  0  0  0  0  0  0  0  0  0  0  0
   65.5710   32.3330   48.6170 H   0  0  0  0  0  0  0  0  0  0  0  0
   61.2292   35.4596   46.8955 H   0  0  0  0  0  0  0  0  0  0  0  0
   59.2908   35.4124   45.3266 H   0  0  0  0  0  0  0  0  0  0  0  0
  1  2  1  0
  2  3  2  0
  2  4  1  0
  4  5  1  0
  5  6  1  0
  5  7  1  0
  7  8  1  0
  8  9  2  0
  9 10  1  0
 10 11  2  0
 11 12  1  0
 12 13  3  0
 13 14  1  0
 14 15  2  0
 15 16  1  0
 16 17  2  0
 17 18  1  0
 18 19  1  0
 19 20  1  0
 20 21  1  0
 21 22  1  0
 17 23  1  0
 23 24  2  0
 11 25  1  0
 25 26  2  0
 26  8  1  0
 24 14  1  0
 22 20  1  0
  1 27  1  0
  1 28  1  0
  1 29  1  0
  5 30  1  6
  6 31  1  0
  6 32  1  0
  6 33  1  0
  7 34  1  0
  7 35  1  0
  9 36  1  0
 10 37  1  0
 15 38  1  0
 16 39  1  0
 19 40  1  0
 19 41  1  0
 20 42  1  0
 21 43  1  0
 21 44  1  0
 22 45  1  0
 22 46  1  0
 23 47  1  0
 24 48  1  0
 25 49  1  0
 26 50  1  0
M  CHG  2   4  -1  24   1
M  END
>  <UniqueID>  (32) 
28

>  <SMILES>  (32) 
CC(=O)[N-][C@@H](C)Cc1ccc(C#Cc2ccc(OCC3CC3)c[nH+]2)cc1

>  <Energy>  (32) 
304.08087020962154

>  <Genealogy>  (32) 
CC(=O)[N-]C(C)Cc1ccc(C#Cc2ccc(OCC3CC3)c[nH+]2)cc1 (protonated)
CC(=O)[N-][C@@H](C)Cc1ccc(C#Cc2ccc(OCC3CC3)c[nH+]2)cc1 (chirality)
CC(=O)[N-][C@@H](C)Cc1ccc(C#Cc2ccc(OCC3CC3)c[nH+]2)cc1 (3D coordinates assigned)
CC(=O)[N-][C@@H](C)Cc1ccc(C#Cc2ccc(OCC3CC3)c[nH+]2)cc1 (nonaromatic ring conformer: 304.08087020962154 kcal/mol)

>  <smiles>  (32) 
CC(=O)NC(C)Cc1ccc(C#Cc2ccc(OCC3CC3)cn2)cc1

>  <score_type>  (32) 
oracle

>  <origin>  (32) 
adg

>  <m_score__min__energy>  (32) 
-7.8499999999999996

>  <m_primary>  (32) 
energy

$$$$
33:0
     RDKit          3D

 37 38  0  0  0  0  0  0  0  0999 V2000
   59.1348   29.4687   47.9366 H   0  0  0  0  0  0  0  0  0  0  0  0
   59.0560   30.5580   47.8050 C   0  0  0  0  0  0  0  0  0  0  0  0
   59.3113   31.2323   48.6358 H   0  0  0  0  0  0  0  0  0  0  0  0
   58.6470   31.0660   46.6270 C   0  0  0  0  0  0  0  0  0  0  0  0
   58.5700   32.4680   46.5310 C   0  0  0  0  0  0  0  0  0  0  0  0
   59.0393   33.0916   47.3062 H   0  0  0  0  0  0  0  0  0  0  0  0
   57.9090   33.0750   45.4700 C   0  0  0  0  0  0  0  0  0  0  0  0
   57.8280   34.4620   45.4080 O   0  0  0  0  0  0  0  0  0  0  0  0
   57.3040   32.3000   44.4900 C   0  0  0  0  0  0  0  0  0  0  0  0
   56.7372   32.7900   43.6846 H   0  0  0  0  0  0  0  0  0  0  0  0
   57.4050   30.9010   44.5120 C   0  0  0  0  0  0  0  0  0  0  0  0
   56.7560   30.1390   43.3780 C   0  0  0  0  0  0  0  0  0  0  0  0
   56.0945   29.3623   43.7894 H   0  0  0  0  0  0  0  0  0  0  0  0
   56.1670   30.8326   42.7600 H   0  0  0  0  0  0  0  0  0  0  0  0
   57.5345   29.6679   42.7600 H   0  0  0  0  0  0  0  0  0  0  0  0
   58.1730   30.2570   45.5360 C   0  0  0  0  0  0  0  0  0  0  0  0
   58.4400   28.9250   45.4210 C   0  0  0  0  0  0  0  0  0  0  0  0
   59.4187   28.6466   45.0032 H   0  0  0  0  0  0  0  0  0  0  0  0
   57.5380   27.8220   45.8050 C   0  0  0  0  0  0  0  0  0  0  0  0
   56.2020   27.8730   45.6210 N   0  0  0  0  0  0  0  0  0  0  0  0
   55.7400   26.6650   46.0060 C   0  0  0  0  0  0  0  0  0  0  0  0
   54.3930   26.3280   45.9730 O   0  0  0  0  0  0  0  0  0  0  0  0
   56.7620   25.8260   46.4140 C   0  0  0  0  0  0  0  0  0  0  0  0
   56.6540   24.4320   46.8780 C   0  0  0  0  0  0  0  0  0  0  0  0
   56.1030   24.1920   47.9850 O   0  0  0  0  0  0  0  0  0  0  0  0
   57.1470   23.3700   46.0430 N   0  0  0  0  0  0  0  0  0  0  0  0
   57.6510   23.4340   44.8430 C   0  0  0  0  0  0  0  0  0  0  0  0
   58.6606   23.0238   44.6931 H   0  0  0  0  0  0  0  0  0  0  0  0
   56.9560   24.0270   43.6460 C   0  0  0  0  0  0  0  0  0  0  0  0
   56.3920   24.9164   43.9637 H   0  0  0  0  0  0  0  0  0  0  0  0
   57.7187   24.2948   42.8999 H   0  0  0  0  0  0  0  0  0  0  0  0
   55.9920   23.0280   43.0110 C   0  0  0  0  0  0  0  0  0  0  0  0
   55.4609   22.4776   43.8016 H   0  0  0  0  0  0  0  0  0  0  0  0
   55.2639   23.5669   42.3869 H   0  0  0  0  0  0  0  0  0  0  0  0
   56.5565   22.3196   42.3869 H   0  0  0  0  0  0  0  0  0  0  0  0
   57.9130   26.5700   46.2650 C   0  0  0  0  0  0  0  0  0  0  0  0
   59.2110   26.1320   46.4950 O   0  0  0  0  0  0  0  0  0  0  0  0
  1  2  1  0
  2  3  1  0
  2  4  2  0
  4  5  1  0
  5  6  1  0
  5  7  2  0
  7  8  1  0
  7  9  1  0
  9 10  1  0
  9 11  2  0
 11 12  1  0
 12 13  1  0
 12 14  1  0
 12 15  1  0
 11 16  1  0
 16 17  2  3
 17 18  1  0
 17 19  1  0
 19 20  1  0
 20 21  1  0
 21 22  1  0
 21 23  2  0
 23 24  1  0
 24 25  2  0
 24 26  1  0
 26 27  2  0
 27 28  1  0
 27 29  1  0
 29 30  1  0
 29 31  1  0
 29 32  1  0
 32 33  1  0
 32 34  1  0
 32 35  1  0
 23 36  1  0
 36 37  1  0
 16  4  1  0
 36 19  2  0
M  CHG  4   8  -1  20  -1  22  -1  37  -1
M  END
>  <UniqueID>  (33) 
29

>  <SMILES>  (33) 
C=c1cc([O-])cc(C)c1=Cc1[n-]c([O-])c(C(=O)/N=C\CC)c1[O-]

>  <Energy>  (33) 
90.50390460020877

>  <Genealogy>  (33) 
C=c1cc([O-])cc(C)c1=Cc1[n-]c([O-])c(C(=O)N=CCC)c1[O-] (protonated)
C=c1cc([O-])cc(C)c1=Cc1[n-]c([O-])c(C(=O)/N=C\CC)c1[O-] (cis-trans isomerization)
C=c1cc([O-])cc(C)c1=Cc1[n-]c([O-])c(C(=O)/N=C\CC)c1[O-] (3D coordinates assigned)
C=c1cc([O-])cc(C)c1=Cc1[n-]c([O-])c(C(=O)/N=C\CC)c1[O-] (optimized conformer: 90.50390460020877 kcal/mol)

>  <smiles>  (33) 
C=c1cc(O)cc(C)c1=Cc1[nH]c(O)c(C(=O)N=CCC)c1O

>  <score_type>  (33) 
oracle

>  <origin>  (33) 
adg

>  <m_score__min__energy>  (33) 
-14.76

>  <m_primary>  (33) 
energy

$$$$
34:0
     RDKit          3D

 44 47  0  0  1  0  0  0  0  0999 V2000
   60.1680   34.4020   47.0660 C   0  0  0  0  0  0  0  0  0  0  0  0
   61.4390   33.6880   47.3890 C   0  0  0  0  0  0  0  0  0  0  0  0
   62.5440   33.8110   46.5730 C   0  0  0  0  0  0  0  0  0  0  0  0
   63.7260   33.1690   46.8530 C   0  0  0  0  0  0  0  0  0  0  0  0
   63.7690   32.3920   47.9890 C   0  0  0  0  0  0  0  0  0  0  0  0
   62.6630   32.2620   48.8160 C   0  0  0  0  0  0  0  0  0  0  0  0
   61.4620   32.9010   48.5480 C   0  0  0  0  0  0  0  0  0  0  0  0
   60.2890   32.7900   49.3600 C   0  0  0  0  0  0  0  0  0  0  0  0
   59.8190   33.8840   49.8420 O   0  0  0  0  0  0  0  0  0  0  0  0
   59.5810   31.6210   49.6950 N   0  0  0  0  0  0  0  0  0  0  0  0
   59.5320   30.5260   49.0790 C   0  0  0  0  0  0  0  0  0  0  0  0
   58.6350   29.5710   49.1820 N   0  0  0  0  0  0  0  0  0  0  0  0
   58.8240   28.5450   48.4240 N   0  0  0  0  0  0  0  0  0  0  0  0
   59.6430   28.3000   47.6600 C   0  0  0  0  0  0  0  0  0  0  0  0
   60.2490   27.0640   46.4730 S   0  0  0  0  0  0  0  0  0  0  0  0
   59.2580   27.3080   44.9740 C   0  0  0  0  0  0  0  0  0  0  0  0
   58.5790   28.6020   44.9220 C   0  0  0  0  0  0  0  0  0  0  0  0
   59.3370   29.7140   45.0970 N   0  0  0  0  0  0  0  0  0  0  0  0
   58.8470   30.9480   45.0710 C   0  0  0  0  0  0  0  0  0  0  0  0
   57.4840   31.1590   44.8560 C   0  0  0  0  0  0  0  0  0  0  0  0
   57.0120   32.5450   44.8520 C   0  0  0  0  0  0  0  0  0  0  0  0
   58.1470   33.5440   44.6290 C   0  0  0  0  0  0  0  0  0  0  0  0
   57.3100   33.5490   45.8720 C   0  0  0  0  0  0  0  0  0  0  0  0
   56.7170   30.0420   44.6790 C   0  0  0  0  0  0  0  0  0  0  0  0
   55.4940   30.1690   44.4830 O   0  0  0  0  0  0  0  0  0  0  0  0
   57.2680   28.7930   44.7150 N   0  0  0  0  0  0  0  0  0  0  0  0
   60.6900   29.9130   47.8370 S   0  0  0  0  0  0  0  0  0  0  0  0
   59.6603   34.6872   47.9992 H   0  0  0  0  0  0  0  0  0  0  0  0
   60.3936   35.3054   46.4804 H   0  0  0  0  0  0  0  0  0  0  0  0
   59.5138   33.7393   46.4804 H   0  0  0  0  0  0  0  0  0  0  0  0
   62.4772   34.4404   45.6733 H   0  0  0  0  0  0  0  0  0  0  0  0
   64.6025   33.2716   46.1963 H   0  0  0  0  0  0  0  0  0  0  0  0
   64.6991   31.8638   48.2458 H   0  0  0  0  0  0  0  0  0  0  0  0
   62.7413   31.6313   49.7138 H   0  0  0  0  0  0  0  0  0  0  0  0
   57.8070   29.6480   49.8530 H   0  0  0  0  0  0  0  0  0  0  0  0
   59.9232   27.2296   44.1014 H   0  0  0  0  0  0  0  0  0  0  0  0
   58.4758   26.5346   44.9765 H   0  0  0  0  0  0  0  0  0  0  0  0
   59.5177   31.8071   45.2194 H   0  0  0  0  0  0  0  0  0  0  0  0
   56.0425   32.2441   44.4283 H   0  0  0  0  0  0  0  0  0  0  0  0
   59.1951   33.2122   44.6656 H   0  0  0  0  0  0  0  0  0  0  0  0
   58.4149   34.2762   43.8531 H   0  0  0  0  0  0  0  0  0  0  0  0
   57.7548   33.2372   46.8285 H   0  0  0  0  0  0  0  0  0  0  0  0
   56.7130   34.3146   46.3892 H   0  0  0  0  0  0  0  0  0  0  0  0
   56.6770   27.9310   44.5790 H   0  0  0  0  0  0  0  0  0  0  0  0
  1  2  1  0
  2  3  2  0
  3  4  1  0
  4  5  2  0
  5  6  1  0
  6  7  2  0
  7  8  1  0
  8  9  2  0
  8 10  1  0
 10 11  2  0
 11 12  1  0
 12 13  1  0
 13 14  2  0
 14 15  1  0
 15 16  1  0
 16 17  1  0
 17 18  2  0
 18 19  1  0
 19 20  2  0
 20 21  1  0
 21 22  1  0
 22 23  1  0
 20 24  1  0
 24 25  2  0
 24 26  1  0
 14 27  1  0
  7  2  1  0
 27 11  1  0
 26 17  1  0
 23 21  1  0
  1 28  1  0
  1 29  1  0
  1 30  1  0
  3 31  1  0
  4 32  1  0
  5 33  1  0
  6 34  1  0
 12 35  1  0
 16 36  1  0
 16 37  1  0
 19 38  1  0
 21 39  1  0
 22 40  1  0
 22 41  1  0
 23 42  1  0
 23 43  1  0
 26 44  1  0
M  END
>  <smiles>  (34) 
Cc1ccccc1C(=O)N=c1[nH]nc(SCc2ncc(C3CC3)c(=O)[nH]2)s1

>  <score_type>  (34) 
oracle

>  <origin>  (34) 
adg

>  <m_score__min__energy>  (34) 
-9.7699999999999996

>  <m_primary>  (34) 
energy

$$$$
35:0
     RDKit          3D

 62 65  0  0  0  0  0  0  0  0999 V2000
   52.0800   30.4500   53.4440 C   0  0  0  0  0  0  0  0  0  0  0  0
   53.1200   29.5510   52.9160 N   0  0  0  0  0  0  0  0  0  0  0  0
   53.7460   30.1100   51.6910 C   0  0  0  0  0  0  0  0  0  0  0  0
   55.1170   30.7410   51.9740 C   0  0  0  0  0  0  0  0  0  0  0  0
   56.0610   29.7420   52.5170 N   0  0  0  0  0  0  0  0  0  0  0  0
   57.3900   30.5390   53.3280 S   0  0  0  0  0  0  0  0  0  0  0  0
   58.3680   29.5080   53.8210 O   0  0  0  0  0  0  0  0  0  0  0  0
   56.8660   31.2900   54.5200 O   0  0  0  0  0  0  0  0  0  0  0  0
   58.2240   31.6640   52.2530 C   0  0  0  0  0  0  0  0  0  0  0  0
   59.1970   32.5370   52.7590 C   0  0  0  0  0  0  0  0  0  0  0  0
   59.8350   33.4480   51.9140 C   0  0  0  0  0  0  0  0  0  0  0  0
   59.5010   33.4990   50.5590 C   0  0  0  0  0  0  0  0  0  0  0  0
   58.5180   32.6370   50.0390 C   0  0  0  0  0  0  0  0  0  0  0  0
   58.1700   32.6590   48.6460 N   0  0  0  0  0  0  0  0  0  0  0  0
   59.0980   32.3430   47.5940 C   0  0  0  0  0  0  0  0  0  0  0  0
   60.3220   32.1840   47.8590 O   0  0  0  0  0  0  0  0  0  0  0  0
   58.6380   32.2500   46.1900 C   0  0  0  0  0  0  0  0  0  0  0  0
   58.0390   31.0620   45.7380 C   0  0  0  0  0  0  0  0  0  0  0  0
   57.5790   30.9460   44.4200 C   0  0  0  0  0  0  0  0  0  0  0  0
   56.8070   29.4550   43.8800 S   0  0  0  0  0  0  0  0  0  0  0  0
   55.5950   29.1900   44.7280 O   0  0  0  0  0  0  0  0  0  0  0  0
   56.3420   29.6420   42.4620 O   0  0  0  0  0  0  0  0  0  0  0  0
   57.8800   28.0710   43.9520 N   0  0  0  0  0  0  0  0  0  0  0  0
   57.3820   27.0140   44.8510 C   0  0  0  0  0  0  0  0  0  0  0  0
   57.7100   27.2820   46.3400 C   0  0  0  0  0  0  0  0  0  0  0  0
   58.5930   28.3710   46.5300 O   0  0  0  0  0  0  0  0  0  0  0  0
   59.7040   28.2380   45.6750 C   0  0  0  0  0  0  0  0  0  0  0  0
   59.2860   28.4480   44.2090 C   0  0  0  0  0  0  0  0  0  0  0  0
   57.7310   32.0230   43.5390 C   0  0  0  0  0  0  0  0  0  0  0  0
   58.3230   33.2080   43.9750 C   0  0  0  0  0  0  0  0  0  0  0  0
   58.7770   33.3330   45.2920 C   0  0  0  0  0  0  0  0  0  0  0  0
   59.6430   34.9750   45.7810 Br  0  0  0  0  0  0  0  0  0  0  0  0
   57.9020   31.7070   50.8890 C   0  0  0  0  0  0  0  0  0  0  0  0
   55.4230   28.7250   53.3860 C   0  0  0  0  0  0  0  0  0  0  0  0
   54.0930   29.2140   53.9810 C   0  0  0  0  0  0  0  0  0  0  0  0
   52.1024   30.4307   54.5436 H   0  0  0  0  0  0  0  0  0  0  0  0
   52.2677   31.4749   53.0914 H   0  0  0  0  0  0  0  0  0  0  0  0
   51.0930   30.1160   53.0914 H   0  0  0  0  0  0  0  0  0  0  0  0
   53.8738   29.3001   50.9577 H   0  0  0  0  0  0  0  0  0  0  0  0
   53.0848   30.9000   51.3053 H   0  0  0  0  0  0  0  0  0  0  0  0
   55.5250   31.1487   51.0374 H   0  0  0  0  0  0  0  0  0  0  0  0
   54.9868   31.5396   52.7192 H   0  0  0  0  0  0  0  0  0  0  0  0
   59.4594   32.5045   53.8268 H   0  0  0  0  0  0  0  0  0  0  0  0
   60.6017   34.1263   52.3165 H   0  0  0  0  0  0  0  0  0  0  0  0
   60.0081   34.2155   49.8960 H   0  0  0  0  0  0  0  0  0  0  0  0
   57.2050   32.9650   48.3960 H   0  0  0  0  0  0  0  0  0  0  0  0
   57.9299   30.2123   46.4279 H   0  0  0  0  0  0  0  0  0  0  0  0
   56.2898   26.9450   44.7396 H   0  0  0  0  0  0  0  0  0  0  0  0
   57.8838   26.0772   44.5671 H   0  0  0  0  0  0  0  0  0  0  0  0
   56.7711   27.4966   46.8714 H   0  0  0  0  0  0  0  0  0  0  0  0
   58.2106   26.3838   46.7307 H   0  0  0  0  0  0  0  0  0  0  0  0
   60.4611   28.9885   45.9463 H   0  0  0  0  0  0  0  0  0  0  0  0
   60.1172   27.2245   45.7847 H   0  0  0  0  0  0  0  0  0  0  0  0
   59.4164   29.5104   43.9556 H   0  0  0  0  0  0  0  0  0  0  0  0
   59.9206   27.7982   43.5885 H   0  0  0  0  0  0  0  0  0  0  0  0
   57.3824   31.9344   42.4995 H   0  0  0  0  0  0  0  0  0  0  0  0
   58.4338   34.0513   43.2774 H   0  0  0  0  0  0  0  0  0  0  0  0
   57.1595   31.0049   50.4819 H   0  0  0  0  0  0  0  0  0  0  0  0
   55.2319   27.8206   52.7898 H   0  0  0  0  0  0  0  0  0  0  0  0
   56.1087   28.5197   54.2212 H   0  0  0  0  0  0  0  0  0  0  0  0
   53.6704   28.4204   54.6147 H   0  0  0  0  0  0  0  0  0  0  0  0
   54.2890   30.1205   54.5725 H   0  0  0  0  0  0  0  0  0  0  0  0
  1  2  1  0
  2  3  1  0
  3  4  1  0
  4  5  1  0
  5  6  1  0
  6  7  2  0
  6  8  2  0
  6  9  1  0
  9 10  2  0
 10 11  1  0
 11 12  2  0
 12 13  1  0
 13 14  1  0
 14 15  1  0
 15 16  2  0
 15 17  1  0
 17 18  2  0
 18 19  1  0
 19 20  1  0
 20 21  2  0
 20 22  2  0
 20 23  1  0
 23 24  1  0
 24 25  1  0
 25 26  1  0
 26 27  1  0
 27 28  1  0
 19 29  2  0
 29 30  1  0
 30 31  2  0
 31 32  1  0
 13 33  2  0
  5 34  1  0
 34 35  1  0
 35  2  1  0
 33  9  1  0
 31 17  1  0
 28 23  1  0
  1 36  1  0
  1 37  1  0
  1 38  1  0
  3 39  1  0
  3 40  1  0
  4 41  1  0
  4 42  1  0
 10 43  1  0
 11 44  1  0
 12 45  1  0
 14 46  1  0
 18 47  1  0
 24 48  1  0
 24 49  1  0
 25 50  1  0
 25 51  1  0
 27 52  1  0
 27 53  1  0
 28 54  1  0
 28 55  1  0
 29 56  1  0
 30 57  1  0
 33 58  1  0
 34 59  1  0
 34 60  1  0
 35 61  1  0
 35 62  1  0
M  END
>  <UniqueID>  (35) 
30

>  <SMILES>  (35) 
CN1CCN(S(=O)(=O)c2cccc(NC(=O)c3cc(S(=O)(=O)N4CCOCC4)ccc3Br)c2)CC1

>  <Energy>  (35) 
92.69090320565559

>  <Genealogy>  (35) 
CN1CCN(S(=O)(=O)c2cccc(NC(=O)c3cc(S(=O)(=O)N4CCOCC4)ccc3Br)c2)CC1 (3D coordinates assigned)
CN1CCN(S(=O)(=O)c2cccc(NC(=O)c3cc(S(=O)(=O)N4CCOCC4)ccc3Br)c2)CC1 (nonaromatic ring conformer: 92.69090320565559 kcal/mol)

>  <smiles>  (35) 
CN1CCN(S(=O)(=O)c2cccc(NC(=O)c3cc(S(=O)(=O)N4CCOCC4)ccc3Br)c2)CC1

>  <score_type>  (35) 
oracle

>  <origin>  (35) 
adg

>  <m_score__min__energy>  (35) 
-10.33

>  <m_primary>  (35) 
energy

$$$$
36:0
     RDKit          3D

 42 44  0  0  0  0  0  0  0  0999 V2000
   59.5480   26.0000   46.9710 O   0  0  0  0  0  0  0  0  0  0  0  0
   58.3600   25.5880   46.9320 C   0  0  0  0  0  0  0  0  0  0  0  0
   58.0630   24.3570   47.4210 N   0  0  0  0  0  0  0  0  0  0  0  0
   56.7880   23.8920   47.4220 C   0  0  0  0  0  0  0  0  0  0  0  0
   56.4370   22.2510   48.0440 S   0  0  0  0  0  0  0  0  0  0  0  0
   54.6300   22.3490   47.7600 C   0  0  0  0  0  0  0  0  0  0  0  0
   54.2280   21.6810   46.4420 C   0  0  0  0  0  0  0  0  0  0  0  0
   55.0840   22.1380   45.2890 C   0  0  0  0  0  0  0  0  0  0  0  0
   54.7640   23.3130   44.5870 C   0  0  0  0  0  0  0  0  0  0  0  0
   55.5610   23.7320   43.5170 C   0  0  0  0  0  0  0  0  0  0  0  0
   56.6790   22.9840   43.1410 C   0  0  0  0  0  0  0  0  0  0  0  0
   57.0070   21.8190   43.8380 C   0  0  0  0  0  0  0  0  0  0  0  0
   56.2160   21.3970   44.9110 C   0  0  0  0  0  0  0  0  0  0  0  0
   55.7790   24.6730   46.9560 N   0  0  0  0  0  0  0  0  0  0  0  0
   56.0270   25.9130   46.4570 C   0  0  0  0  0  0  0  0  0  0  0  0
   54.9790   26.6980   45.9880 O   0  0  0  0  0  0  0  0  0  0  0  0
   57.3380   26.3940   46.4070 C   0  0  0  0  0  0  0  0  0  0  0  0
   57.5900   27.6570   45.8580 O   0  0  0  0  0  0  0  0  0  0  0  0
   57.6880   27.8900   44.4540 C   0  0  0  0  0  0  0  0  0  0  0  0
   57.6660   29.3720   44.1730 C   0  0  0  0  0  0  0  0  0  0  0  0
   56.9100   29.8400   43.0850 C   0  0  0  0  0  0  0  0  0  0  0  0
   56.8830   31.2010   42.7700 C   0  0  0  0  0  0  0  0  0  0  0  0
   57.6160   32.1100   43.5340 C   0  0  0  0  0  0  0  0  0  0  0  0
   58.3880   31.6580   44.6060 C   0  0  0  0  0  0  0  0  0  0  0  0
   58.4280   30.2950   44.9280 C   0  0  0  0  0  0  0  0  0  0  0  0
   59.4420   29.7970   46.2770 Cl  0  0  0  0  0  0  0  0  0  0  0  0
   54.1109   21.8447   48.5884 H   0  0  0  0  0  0  0  0  0  0  0  0
   54.3478   23.4109   47.7069 H   0  0  0  0  0  0  0  0  0  0  0  0
   54.3322   20.5914   46.5507 H   0  0  0  0  0  0  0  0  0  0  0  0
   53.1876   21.9634   46.2234 H   0  0  0  0  0  0  0  0  0  0  0  0
   53.8842   23.9046   44.8801 H   0  0  0  0  0  0  0  0  0  0  0  0
   55.3070   24.6522   42.9705 H   0  0  0  0  0  0  0  0  0  0  0  0
   57.3014   23.3126   42.2956 H   0  0  0  0  0  0  0  0  0  0  0  0
   57.8893   21.2323   43.5423 H   0  0  0  0  0  0  0  0  0  0  0  0
   56.4810   20.4819   45.4609 H   0  0  0  0  0  0  0  0  0  0  0  0
   55.1560   27.5110   45.4110 H   0  0  0  0  0  0  0  0  0  0  0  0
   58.6294   27.4622   44.0788 H   0  0  0  0  0  0  0  0  0  0  0  0
   56.8342   27.4145   43.9491 H   0  0  0  0  0  0  0  0  0  0  0  0
   56.3340   29.1282   42.4755 H   0  0  0  0  0  0  0  0  0  0  0  0
   56.2834   31.5563   41.9190 H   0  0  0  0  0  0  0  0  0  0  0  0
   57.5856   33.1826   43.2917 H   0  0  0  0  0  0  0  0  0  0  0  0
   58.9690   32.3772   45.2020 H   0  0  0  0  0  0  0  0  0  0  0  0
  1  2  2  0
  2  3  1  0
  3  4  2  0
  4  5  1  0
  5  6  1  0
  6  7  1  0
  7  8  1  0
  8  9  2  0
  9 10  1  0
 10 11  2  0
 11 12  1  0
 12 13  2  0
  4 14  1  0
 14 15  1  0
 15 16  1  0
 15 17  2  0
 17 18  1  0
 18 19  1  0
 19 20  1  0
 20 21  2  0
 21 22  1  0
 22 23  2  0
 23 24  1  0
 24 25  2  0
 25 26  1  0
 17  2  1  0
 25 20  1  0
 13  8  1  0
  6 27  1  0
  6 28  1  0
  7 29  1  0
  7 30  1  0
  9 31  1  0
 10 32  1  0
 11 33  1  0
 12 34  1  0
 13 35  1  0
 16 36  1  0
 19 37  1  0
 19 38  1  0
 21 39  1  0
 22 40  1  0
 23 41  1  0
 24 42  1  0
M  CHG  1  14  -1
M  END
>  <UniqueID>  (36) 
31

>  <SMILES>  (36) 
O=c1nc(SCCc2ccccc2)[n-]c(O)c1OCc1ccccc1Cl

>  <Energy>  (36) 
41.83572743681427

>  <Genealogy>  (36) 
O=c1nc(SCCc2ccccc2)[n-]c(O)c1OCc1ccccc1Cl (protonated)
O=c1nc(SCCc2ccccc2)[n-]c(O)c1OCc1ccccc1Cl (3D coordinates assigned)
O=c1nc(SCCc2ccccc2)[n-]c(O)c1OCc1ccccc1Cl (optimized conformer: 41.83572743681427 kcal/mol)

>  <smiles>  (36) 
O=c1nc(SCCc2ccccc2)[nH]c(O)c1OCc1ccccc1Cl

>  <score_type>  (36) 
oracle

>  <origin>  (36) 
adg

>  <m_score__min__energy>  (36) 
-10.779999999999999

>  <m_primary>  (36) 
energy

$$$$
37:0
     RDKit          3D

 60 63  0  0  0  0  0  0  0  0999 V2000
   55.5870   29.8290   44.8370 O   0  0  0  0  0  0  0  0  0  0  0  0
   56.7120   29.2890   45.0090 C   0  0  0  0  0  0  0  0  0  0  0  0
   57.9070   29.9990   44.6530 N   0  0  0  0  0  0  0  0  0  0  0  0
   57.8810   31.2300   43.8650 C   0  0  0  0  0  0  0  0  0  0  0  0
   57.0430   32.2990   44.5730 C   0  0  0  0  0  0  0  0  0  0  0  0
   57.9290   33.2390   45.3450 C   0  0  0  0  0  0  0  0  0  0  0  0
   57.8550   33.2940   46.7470 C   0  0  0  0  0  0  0  0  0  0  0  0
   58.6590   34.1890   47.4600 C   0  0  0  0  0  0  0  0  0  0  0  0
   59.5360   35.0390   46.7790 C   0  0  0  0  0  0  0  0  0  0  0  0
   59.6020   35.0020   45.3840 C   0  0  0  0  0  0  0  0  0  0  0  0
   58.8000   34.1100   44.6660 C   0  0  0  0  0  0  0  0  0  0  0  0
   56.7710   27.9530   45.6290 C   0  0  0  0  0  0  0  0  0  0  0  0
   55.7230   27.1080   45.6320 N   0  0  0  0  0  0  0  0  0  0  0  0
   56.1950   26.0190   46.2690 C   0  0  0  0  0  0  0  0  0  0  0  0
   55.4920   24.9960   46.4770 O   0  0  0  0  0  0  0  0  0  0  0  0
   57.4810   26.1080   46.6600 N   0  0  0  0  0  0  0  0  0  0  0  0
   57.8510   27.3350   46.2460 C   0  0  0  0  0  0  0  0  0  0  0  0
   59.2480   27.8600   46.4160 C   0  0  0  0  0  0  0  0  0  0  0  0
   59.6990   27.8240   47.8560 C   0  0  0  0  0  0  0  0  0  0  0  0
   59.9950   26.7160   48.3870 O   0  0  0  0  0  0  0  0  0  0  0  0
   59.7610   29.0300   48.6470 N   0  0  0  0  0  0  0  0  0  0  0  0
   59.1070   30.2670   48.1920 C   0  0  0  0  0  0  0  0  0  0  0  0
   58.8390   31.2080   49.3750 C   0  0  0  0  0  0  0  0  0  0  0  0
   60.0520   31.4780   50.1840 N   0  0  0  0  0  0  0  0  0  0  0  0
   60.5940   32.8490   50.0450 C   0  0  0  0  0  0  0  0  0  0  0  0
   61.7190   32.9640   49.0350 C   0  0  0  0  0  0  0  0  0  0  0  0
   63.0180   33.3160   49.4440 C   0  0  0  0  0  0  0  0  0  0  0  0
   64.0510   33.4200   48.5080 C   0  0  0  0  0  0  0  0  0  0  0  0
   63.8040   33.1570   47.1580 C   0  0  0  0  0  0  0  0  0  0  0  0
   62.5240   32.7820   46.7440 C   0  0  0  0  0  0  0  0  0  0  0  0
   61.4880   32.6770   47.6770 C   0  0  0  0  0  0  0  0  0  0  0  0
   61.0890   30.4200   50.1650 C   0  0  0  0  0  0  0  0  0  0  0  0
   60.4870   29.0340   49.9230 C   0  0  0  0  0  0  0  0  0  0  0  0
   58.8230   29.6900   45.0480 H   0  0  0  0  0  0  0  0  0  0  0  0
   58.9088   31.6006   43.7375 H   0  0  0  0  0  0  0  0  0  0  0  0
   57.4321   31.0164   42.8838 H   0  0  0  0  0  0  0  0  0  0  0  0
   56.4763   32.8700   43.8228 H   0  0  0  0  0  0  0  0  0  0  0  0
   56.3542   31.8042   45.2735 H   0  0  0  0  0  0  0  0  0  0  0  0
   57.1622   32.6308   47.2857 H   0  0  0  0  0  0  0  0  0  0  0  0
   58.6014   34.2244   48.5579 H   0  0  0  0  0  0  0  0  0  0  0  0
   60.1738   35.7367   47.3416 H   0  0  0  0  0  0  0  0  0  0  0  0
   60.2868   35.6765   44.8492 H   0  0  0  0  0  0  0  0  0  0  0  0
   58.8503   34.0893   43.5673 H   0  0  0  0  0  0  0  0  0  0  0  0
   59.9334   27.2447   45.8146 H   0  0  0  0  0  0  0  0  0  0  0  0
   59.2572   28.9090   46.0852 H   0  0  0  0  0  0  0  0  0  0  0  0
   59.7605   30.7752   47.4676 H   0  0  0  0  0  0  0  0  0  0  0  0
   58.1464   30.0066   47.7236 H   0  0  0  0  0  0  0  0  0  0  0  0
   58.4579   32.1631   48.9844 H   0  0  0  0  0  0  0  0  0  0  0  0
   58.1080   30.7132   50.0313 H   0  0  0  0  0  0  0  0  0  0  0  0
   59.7766   33.5146   49.7306 H   0  0  0  0  0  0  0  0  0  0  0  0
   61.0125   33.1282   51.0232 H   0  0  0  0  0  0  0  0  0  0  0  0
   63.2223   33.5107   50.5072 H   0  0  0  0  0  0  0  0  0  0  0  0
   65.0606   33.7095   48.8349 H   0  0  0  0  0  0  0  0  0  0  0  0
   64.6169   33.2452   46.4222 H   0  0  0  0  0  0  0  0  0  0  0  0
   62.3306   32.5689   45.6823 H   0  0  0  0  0  0  0  0  0  0  0  0
   60.4852   32.3678   47.3471 H   0  0  0  0  0  0  0  0  0  0  0  0
   61.8074   30.6407   49.3617 H   0  0  0  0  0  0  0  0  0  0  0  0
   61.5831   30.4098   51.1477 H   0  0  0  0  0  0  0  0  0  0  0  0
   61.2925   28.2856   49.8886 H   0  0  0  0  0  0  0  0  0  0  0  0
   59.7924   28.7890   50.7400 H   0  0  0  0  0  0  0  0  0  0  0  0
  1  2  2  0
  2  3  1  0
  3  4  1  0
  4  5  1  0
  5  6  1  0
  6  7  2  0
  7  8  1  0
  8  9  2  0
  9 10  1  0
 10 11  2  0
  2 12  1  0
 12 13  1  0
 13 14  1  0
 14 15  2  0
 14 16  1  0
 16 17  1  0
 17 18  1  0
 18 19  1  0
 19 20  2  0
 19 21  1  0
 21 22  1  0
 22 23  1  0
 23 24  1  0
 24 25  1  0
 25 26  1  0
 26 27  2  0
 27 28  1  0
 28 29  2  0
 29 30  1  0
 30 31  2  0
 24 32  1  0
 32 33  1  0
 11  6  1  0
 17 12  2  0
 33 21  1  0
 31 26  1  0
  3 34  1  0
  4 35  1  0
  4 36  1  0
  5 37  1  0
  5 38  1  0
  7 39  1  0
  8 40  1  0
  9 41  1  0
 10 42  1  0
 11 43  1  0
 18 44  1  0
 18 45  1  0
 22 46  1  0
 22 47  1  0
 23 48  1  0
 23 49  1  0
 25 50  1  0
 25 51  1  0
 27 52  1  0
 28 53  1  0
 29 54  1  0
 30 55  1  0
 31 56  1  0
 32 57  1  0
 32 58  1  0
 33 59  1  0
 33 60  1  0
M  CHG  2  13  -1  16  -1
M  END
>  <UniqueID>  (37) 
32

>  <SMILES>  (37) 
O=C(NCCc1ccccc1)c1[n-]c(=O)[n-]c1CC(=O)N1CCN(Cc2ccccc2)CC1

>  <Energy>  (37) 
98.43645128657616

>  <Genealogy>  (37) 
O=C(NCCc1ccccc1)c1[n-]c(=O)[n-]c1CC(=O)N1CCN(Cc2ccccc2)CC1 (protonated)
O=C(NCCc1ccccc1)c1[n-]c(=O)[n-]c1CC(=O)N1CCN(Cc2ccccc2)CC1 (3D coordinates assigned)
O=C(NCCc1ccccc1)c1[n-]c(=O)[n-]c1CC(=O)N1CCN(Cc2ccccc2)CC1 (nonaromatic ring conformer: 98.43645128657616 kcal/mol)

>  <smiles>  (37) 
O=C(NCCc1ccccc1)c1[nH]c(=O)[nH]c1CC(=O)N1CCN(Cc2ccccc2)CC1

>  <score_type>  (37) 
oracle

>  <origin>  (37) 
adg

>  <m_score__min__energy>  (37) 
-14.210000000000001

>  <m_primary>  (37) 
energy

$$$$
38:0
     RDKit          3D

 52 53  0  0  0  0  0  0  0  0999 V2000
   58.7010   32.0010   49.4520 C   0  0  0  0  0  0  0  0  0  0  0  0
   59.1570   32.7500   48.2010 C   0  0  0  0  0  0  0  0  0  0  0  0
   60.5090   32.3240   47.7990 N   0  0  0  0  0  0  0  0  0  0  0  0
   61.6590   33.0990   48.2920 C   0  0  0  0  0  0  0  0  0  0  0  0
   62.4440   33.7000   47.1290 C   0  0  0  0  0  0  0  0  0  0  0  0
   60.7370   31.1480   46.9840 C   0  0  0  0  0  0  0  0  0  0  0  0
   61.9170   30.7620   46.7580 O   0  0  0  0  0  0  0  0  0  0  0  0
   59.6330   30.3470   46.4210 C   0  0  0  0  0  0  0  0  0  0  0  0
   59.3780   28.7180   46.7300 S   0  0  0  0  0  0  0  0  0  0  0  0
   57.9320   28.5810   45.8780 C   0  0  0  0  0  0  0  0  0  0  0  0
   57.1460   27.3800   45.7510 N   0  0  0  0  0  0  0  0  0  0  0  0
   57.4710   26.1220   46.3760 C   0  0  0  0  0  0  0  0  0  0  0  0
   58.5200   26.0130   47.0650 O   0  0  0  0  0  0  0  0  0  0  0  0
   56.5940   24.9330   46.2210 C   0  0  0  0  0  0  0  0  0  0  0  0
   56.1620   24.5490   44.9390 C   0  0  0  0  0  0  0  0  0  0  0  0
   55.3430   23.4290   44.7670 C   0  0  0  0  0  0  0  0  0  0  0  0
   54.9400   22.6670   45.8760 C   0  0  0  0  0  0  0  0  0  0  0  0
   54.0970   21.5130   45.7500 N   0  0  0  0  0  0  0  0  0  0  0  0
   52.3790   21.4810   46.0010 S   0  0  0  0  0  0  0  0  0  0  0  0
   52.0080   21.8470   47.7030 C   0  0  0  0  0  0  0  0  0  0  0  0
   51.7440   22.5300   45.1330 O   0  0  0  0  0  0  0  0  0  0  0  0
   51.8230   20.1380   45.6190 O   0  0  0  0  0  0  0  0  0  0  0  0
   55.3760   23.0400   47.1520 C   0  0  0  0  0  0  0  0  0  0  0  0
   56.2020   24.1550   47.3260 C   0  0  0  0  0  0  0  0  0  0  0  0
   57.6100   29.8340   45.3370 C   0  0  0  0  0  0  0  0  0  0  0  0
   56.3810   30.1060   44.5620 C   0  0  0  0  0  0  0  0  0  0  0  0
   55.2060   29.3290   44.7850 N   0  0  0  0  0  0  0  0  0  0  0  0
   56.3580   31.0300   43.7050 O   0  0  0  0  0  0  0  0  0  0  0  0
   58.5720   30.8270   45.6480 C   0  0  0  0  0  0  0  0  0  0  0  0
   58.4840   32.2530   45.1800 C   0  0  0  0  0  0  0  0  0  0  0  0
   59.0332   32.5466   50.3475 H   0  0  0  0  0  0  0  0  0  0  0  0
   57.6036   31.9256   49.4546 H   0  0  0  0  0  0  0  0  0  0  0  0
   59.1379   30.9915   49.4546 H   0  0  0  0  0  0  0  0  0  0  0  0
   58.4546   32.5422   47.3803 H   0  0  0  0  0  0  0  0  0  0  0  0
   59.1786   33.8270   48.4235 H   0  0  0  0  0  0  0  0  0  0  0  0
   61.2963   33.9103   48.9402 H   0  0  0  0  0  0  0  0  0  0  0  0
   62.3223   32.4269   48.8561 H   0  0  0  0  0  0  0  0  0  0  0  0
   63.2600   34.3247   47.5213 H   0  0  0  0  0  0  0  0  0  0  0  0
   62.8649   32.8911   46.5138 H   0  0  0  0  0  0  0  0  0  0  0  0
   61.7729   34.3173   46.5138 H   0  0  0  0  0  0  0  0  0  0  0  0
   56.3040   27.4170   45.1420 H   0  0  0  0  0  0  0  0  0  0  0  0
   56.4718   25.1362   44.0620 H   0  0  0  0  0  0  0  0  0  0  0  0
   55.0124   23.1430   43.7576 H   0  0  0  0  0  0  0  0  0  0  0  0
   52.6375   21.2260   48.3572 H   0  0  0  0  0  0  0  0  0  0  0  0
   52.2094   22.9100   47.9018 H   0  0  0  0  0  0  0  0  0  0  0  0
   50.9478   21.6312   47.9018 H   0  0  0  0  0  0  0  0  0  0  0  0
   55.0660   22.4503   48.0273 H   0  0  0  0  0  0  0  0  0  0  0  0
   56.5479   24.4259   48.3344 H   0  0  0  0  0  0  0  0  0  0  0  0
   55.1450   28.6680   45.5900 H   0  0  0  0  0  0  0  0  0  0  0  0
   58.4427   32.9230   46.0514 H   0  0  0  0  0  0  0  0  0  0  0  0
   59.3689   32.4950   44.5731 H   0  0  0  0  0  0  0  0  0  0  0  0
   57.5760   32.3844   44.5731 H   0  0  0  0  0  0  0  0  0  0  0  0
  1  2  1  0
  2  3  1  0
  3  4  1  0
  4  5  1  0
  3  6  1  0
  6  7  2  0
  6  8  1  0
  8  9  1  0
  9 10  1  0
 10 11  1  0
 11 12  1  0
 12 13  2  0
 12 14  1  0
 14 15  2  0
 15 16  1  0
 16 17  2  0
 17 18  1  0
 18 19  1  0
 19 20  1  0
 19 21  2  0
 19 22  2  0
 17 23  1  0
 23 24  2  0
 10 25  2  0
 25 26  1  0
 26 27  1  0
 26 28  2  0
 25 29  1  0
 29 30  1  0
 29  8  2  0
 24 14  1  0
  1 31  1  0
  1 32  1  0
  1 33  1  0
  2 34  1  0
  2 35  1  0
  4 36  1  0
  4 37  1  0
  5 38  1  0
  5 39  1  0
  5 40  1  0
 11 41  1  0
 15 42  1  0
 16 43  1  0
 20 44  1  0
 20 45  1  0
 20 46  1  0
 23 47  1  0
 24 48  1  0
 27 49  1  0
 30 50  1  0
 30 51  1  0
 30 52  1  0
M  CHG  2  18  -1  27  -1
M  END
>  <UniqueID>  (38) 
33

>  <SMILES>  (38) 
CCN(CC)C(=O)c1sc(NC(=O)c2ccc([N-]S(C)(=O)=O)cc2)c(C([NH-])=O)c1C

>  <Energy>  (38) 
86.67847869910744

>  <Genealogy>  (38) 
CCN(CC)C(=O)c1sc(NC(=O)c2ccc([N-]S(C)(=O)=O)cc2)c(C([NH-])=O)c1C (protonated)
CCN(CC)C(=O)c1sc(NC(=O)c2ccc([N-]S(C)(=O)=O)cc2)c(C([NH-])=O)c1C (3D coordinates assigned)
CCN(CC)C(=O)c1sc(NC(=O)c2ccc([N-]S(C)(=O)=O)cc2)c(C([NH-])=O)c1C (optimized conformer: 86.67847869910744 kcal/mol)

>  <smiles>  (38) 
CCN(CC)C(=O)c1sc(NC(=O)c2ccc(NS(C)(=O)=O)cc2)c(C(N)=O)c1C

>  <score_type>  (38) 
oracle

>  <origin>  (38) 
adg

>  <m_score__min__energy>  (38) 
-12.279999999999999

>  <m_primary>  (38) 
energy

$$$$
39:0
     RDKit          3D

 64 68  0  0  0  0  0  0  0  0999 V2000
   59.4530   31.0690   46.8900 O   0  0  0  0  0  0  0  0  0  0  0  0
   60.0670   30.0150   47.2120 C   0  0  0  0  0  0  0  0  0  0  0  0
   61.2060   30.0960   48.0860 N   0  0  0  0  0  0  0  0  0  0  0  0
   61.7350   31.3790   48.5620 C   0  0  0  0  0  0  0  0  0  0  0  0
   60.7660   32.0100   49.5890 C   0  0  0  0  0  0  0  0  0  0  0  0
   59.8430   33.0350   48.9250 C   0  0  0  0  0  0  0  0  0  0  0  0
   60.6210   34.1530   48.3400 N   0  0  0  0  0  0  0  0  0  0  0  0
   59.8130   35.0590   47.4930 C   0  0  0  0  0  0  0  0  0  0  0  0
   59.0350   34.3480   46.4040 C   0  0  0  0  0  0  0  0  0  0  0  0
   57.7770   33.7790   46.6730 C   0  0  0  0  0  0  0  0  0  0  0  0
   57.0630   33.1330   45.6590 C   0  0  0  0  0  0  0  0  0  0  0  0
   57.6020   33.0370   44.3730 C   0  0  0  0  0  0  0  0  0  0  0  0
   58.8600   33.5790   44.1010 C   0  0  0  0  0  0  0  0  0  0  0  0
   59.5780   34.2230   45.1130 C   0  0  0  0  0  0  0  0  0  0  0  0
   61.9380   33.7800   47.7640 C   0  0  0  0  0  0  0  0  0  0  0  0
   62.0010   32.3040   47.3540 C   0  0  0  0  0  0  0  0  0  0  0  0
   59.5850   28.7100   46.6950 C   0  0  0  0  0  0  0  0  0  0  0  0
   59.3220   28.5180   45.3270 C   0  0  0  0  0  0  0  0  0  0  0  0
   58.8670   27.2820   44.8570 C   0  0  0  0  0  0  0  0  0  0  0  0
   58.6600   26.2110   45.7450 C   0  0  0  0  0  0  0  0  0  0  0  0
   58.1750   24.8930   45.2630 C   0  0  0  0  0  0  0  0  0  0  0  0
   56.9300   24.7530   44.6250 C   0  0  0  0  0  0  0  0  0  0  0  0
   56.5060   23.4890   44.1840 C   0  0  0  0  0  0  0  0  0  0  0  0
   55.2040   23.3440   43.4990 C   0  0  0  0  0  0  0  0  0  0  0  0
   55.1690   22.9210   42.3140 O   0  0  0  0  0  0  0  0  0  0  0  0
   53.9780   23.7140   44.1370 N   0  0  0  0  0  0  0  0  0  0  0  0
   52.5520   23.7230   43.7650 C   0  0  0  0  0  0  0  0  0  0  0  0
   52.0760   24.4730   44.9650 C   0  0  0  0  0  0  0  0  0  0  0  0
   53.5230   24.4500   45.3330 C   0  0  0  0  0  0  0  0  0  0  0  0
   57.3530   22.3880   44.3640 C   0  0  0  0  0  0  0  0  0  0  0  0
   58.5890   22.5630   44.9890 C   0  0  0  0  0  0  0  0  0  0  0  0
   58.9680   23.7950   45.4160 N   0  0  0  0  0  0  0  0  0  0  0  0
   58.8980   26.4100   47.1140 C   0  0  0  0  0  0  0  0  0  0  0  0
   59.3570   27.6440   47.5830 C   0  0  0  0  0  0  0  0  0  0  0  0
   61.5400   29.2290   48.5620 H   0  0  0  0  0  0  0  0  0  0  0  0
   62.6920   31.2235   49.0816 H   0  0  0  0  0  0  0  0  0  0  0  0
   60.1536   31.2150   50.0394 H   0  0  0  0  0  0  0  0  0  0  0  0
   61.3612   32.5249   50.3575 H   0  0  0  0  0  0  0  0  0  0  0  0
   59.2706   32.5393   48.1271 H   0  0  0  0  0  0  0  0  0  0  0  0
   59.1659   33.4429   49.6900 H   0  0  0  0  0  0  0  0  0  0  0  0
   59.0986   35.5914   48.1382 H   0  0  0  0  0  0  0  0  0  0  0  0
   60.5163   35.7399   46.9912 H   0  0  0  0  0  0  0  0  0  0  0  0
   57.3529   33.8425   47.6860 H   0  0  0  0  0  0  0  0  0  0  0  0
   56.0751   32.6995   45.8739 H   0  0  0  0  0  0  0  0  0  0  0  0
   57.0354   32.5346   43.5752 H   0  0  0  0  0  0  0  0  0  0  0  0
   59.2861   33.4992   43.0900 H   0  0  0  0  0  0  0  0  0  0  0  0
   60.5750   34.6349   44.8978 H   0  0  0  0  0  0  0  0  0  0  0  0
   62.1235   34.4014   46.8755 H   0  0  0  0  0  0  0  0  0  0  0  0
   62.7012   33.9452   48.5387 H   0  0  0  0  0  0  0  0  0  0  0  0
   61.2416   32.1131   46.5814 H   0  0  0  0  0  0  0  0  0  0  0  0
   63.0086   32.0918   46.9669 H   0  0  0  0  0  0  0  0  0  0  0  0
   59.4755   29.3471   44.6206 H   0  0  0  0  0  0  0  0  0  0  0  0
   58.6693   27.1462   43.7835 H   0  0  0  0  0  0  0  0  0  0  0  0
   56.2884   25.6332   44.4714 H   0  0  0  0  0  0  0  0  0  0  0  0
   52.3624   24.2623   42.8252 H   0  0  0  0  0  0  0  0  0  0  0  0
   52.0816   22.7488   43.5657 H   0  0  0  0  0  0  0  0  0  0  0  0
   51.6524   25.4684   44.7658 H   0  0  0  0  0  0  0  0  0  0  0  0
   51.2679   24.1264   45.6260 H   0  0  0  0  0  0  0  0  0  0  0  0
   53.9592   25.4574   45.4029 H   0  0  0  0  0  0  0  0  0  0  0  0
   53.7837   24.0232   46.3127 H   0  0  0  0  0  0  0  0  0  0  0  0
   57.0460   21.3911   44.0149 H   0  0  0  0  0  0  0  0  0  0  0  0
   59.2570   21.7014   45.1358 H   0  0  0  0  0  0  0  0  0  0  0  0
   58.7218   25.5880   47.8235 H   0  0  0  0  0  0  0  0  0  0  0  0
   59.5419   27.7827   48.6584 H   0  0  0  0  0  0  0  0  0  0  0  0
  1  2  2  0
  2  3  1  0
  3  4  1  0
  4  5  1  0
  5  6  1  0
  6  7  1  0
  7  8  1  0
  8  9  1  0
  9 10  2  0
 10 11  1  0
 11 12  2  0
 12 13  1  0
 13 14  2  0
  7 15  1  0
 15 16  1  0
  2 17  1  0
 17 18  2  0
 18 19  1  0
 19 20  2  0
 20 21  1  0
 21 22  2  0
 22 23  1  0
 23 24  1  0
 24 25  2  0
 24 26  1  0
 26 27  1  0
 27 28  1  0
 28 29  1  0
 23 30  2  0
 30 31  1  0
 31 32  2  0
 20 33  1  0
 33 34  2  0
 16  4  1  0
 34 17  1  0
 14  9  1  0
 32 21  1  0
 29 26  1  0
  3 35  1  0
  4 36  1  0
  5 37  1  0
  5 38  1  0
  6 39  1  0
  6 40  1  0
  8 41  1  0
  8 42  1  0
 10 43  1  0
 11 44  1  0
 12 45  1  0
 13 46  1  0
 14 47  1  0
 15 48  1  0
 15 49  1  0
 16 50  1  0
 16 51  1  0
 18 52  1  0
 19 53  1  0
 22 54  1  0
 27 55  1  0
 27 56  1  0
 28 57  1  0
 28 58  1  0
 29 59  1  0
 29 60  1  0
 30 61  1  0
 31 62  1  0
 33 63  1  0
 34 64  1  0
M  END
>  <UniqueID>  (39) 
34

>  <SMILES>  (39) 
O=C(NC1CCN(Cc2ccccc2)CC1)c1ccc(-c2cc(C(=O)N3CCC3)ccn2)cc1

>  <Energy>  (39) 
130.76882102872014

>  <Genealogy>  (39) 
O=C(NC1CCN(Cc2ccccc2)CC1)c1ccc(-c2cc(C(=O)N3CCC3)ccn2)cc1 (3D coordinates assigned)
O=C(NC1CCN(Cc2ccccc2)CC1)c1ccc(-c2cc(C(=O)N3CCC3)ccn2)cc1 (nonaromatic ring conformer: 130.76882102872014 kcal/mol)

>  <smiles>  (39) 
O=C(NC1CCN(Cc2ccccc2)CC1)c1ccc(-c2cc(C(=O)N3CCC3)ccn2)cc1

>  <score_type>  (39) 
oracle

>  <origin>  (39) 
adg

>  <m_score__min__energy>  (39) 
-9.8200000000000003

>  <m_primary>  (39) 
energy

$$$$
40:0
     RDKit          3D

 44 46  0  0  0  0  0  0  0  0999 V2000
   58.8420   31.1190   48.6450 O   0  0  0  0  0  0  0  0  0  0  0  0
   59.5260   31.7850   47.8200 C   0  0  0  0  0  0  0  0  0  0  0  0
   58.8850   32.2580   46.5720 C   0  0  0  0  0  0  0  0  0  0  0  0
   59.1040   33.5860   46.1650 C   0  0  0  0  0  0  0  0  0  0  0  0
   58.4700   34.0950   45.0320 C   0  0  0  0  0  0  0  0  0  0  0  0
   57.6060   33.2880   44.2940 C   0  0  0  0  0  0  0  0  0  0  0  0
   57.3790   31.9660   44.6810 C   0  0  0  0  0  0  0  0  0  0  0  0
   58.0110   31.4330   45.8200 C   0  0  0  0  0  0  0  0  0  0  0  0
   57.8110   30.0530   46.1840 N   0  0  0  0  0  0  0  0  0  0  0  0
   57.0080   28.9100   45.1540 S   0  0  0  0  0  0  0  0  0  0  0  0
   55.5280   29.1630   45.2150 O   0  0  0  0  0  0  0  0  0  0  0  0
   57.4810   29.1030   43.7400 O   0  0  0  0  0  0  0  0  0  0  0  0
   57.3970   27.2620   45.6560 C   0  0  0  0  0  0  0  0  0  0  0  0
   58.7390   26.8500   45.6720 C   0  0  0  0  0  0  0  0  0  0  0  0
   59.0760   25.5550   46.0750 C   0  0  0  0  0  0  0  0  0  0  0  0
   58.0750   24.6580   46.4550 C   0  0  0  0  0  0  0  0  0  0  0  0
   56.7360   25.0540   46.4280 C   0  0  0  0  0  0  0  0  0  0  0  0
   56.3910   26.3490   46.0260 C   0  0  0  0  0  0  0  0  0  0  0  0
   55.0490   26.7120   45.9930 O   0  0  0  0  0  0  0  0  0  0  0  0
   60.8890   32.1280   48.1390 N   0  0  0  0  0  0  0  0  0  0  0  0
   61.9160   32.2100   47.0910 C   0  0  0  0  0  0  0  0  0  0  0  0
   62.7660   33.4810   47.2570 C   0  0  0  0  0  0  0  0  0  0  0  0
   63.0100   33.8730   48.7300 C   0  0  0  0  0  0  0  0  0  0  0  0
   62.7340   32.7180   49.7000 C   0  0  0  0  0  0  0  0  0  0  0  0
   61.2840   32.2360   49.5520 C   0  0  0  0  0  0  0  0  0  0  0  0
   59.7816   34.2292   46.7456 H   0  0  0  0  0  0  0  0  0  0  0  0
   58.6520   35.1342   44.7206 H   0  0  0  0  0  0  0  0  0  0  0  0
   57.1018   33.6937   43.4045 H   0  0  0  0  0  0  0  0  0  0  0  0
   56.6994   31.3346   44.0898 H   0  0  0  0  0  0  0  0  0  0  0  0
   58.1020   29.7160   47.1270 H   0  0  0  0  0  0  0  0  0  0  0  0
   59.5298   27.5505   45.3656 H   0  0  0  0  0  0  0  0  0  0  0  0
   60.1303   25.2419   46.0930 H   0  0  0  0  0  0  0  0  0  0  0  0
   58.3413   23.6400   46.7754 H   0  0  0  0  0  0  0  0  0  0  0  0
   55.9491   24.3447   46.7241 H   0  0  0  0  0  0  0  0  0  0  0  0
   62.5698   31.3278   47.1570 H   0  0  0  0  0  0  0  0  0  0  0  0
   61.4175   32.2449   46.1110 H   0  0  0  0  0  0  0  0  0  0  0  0
   63.7408   33.3128   46.7758 H   0  0  0  0  0  0  0  0  0  0  0  0
   62.2068   34.3062   46.7919 H   0  0  0  0  0  0  0  0  0  0  0  0
   64.0588   34.1849   48.8427 H   0  0  0  0  0  0  0  0  0  0  0  0
   62.3156   34.6895   48.9773 H   0  0  0  0  0  0  0  0  0  0  0  0
   63.4180   31.8857   49.4778 H   0  0  0  0  0  0  0  0  0  0  0  0
   62.8919   33.0693   50.7304 H   0  0  0  0  0  0  0  0  0  0  0  0
   61.1863   31.2482   50.0261 H   0  0  0  0  0  0  0  0  0  0  0  0
   60.6263   32.9723   50.0370 H   0  0  0  0  0  0  0  0  0  0  0  0
  1  2  2  0
  2  3  1  0
  3  4  2  0
  4  5  1  0
  5  6  2  0
  6  7  1  0
  7  8  2  0
  8  9  1  0
  9 10  1  0
 10 11  2  0
 10 12  2  0
 10 13  1  0
 13 14  2  0
 14 15  1  0
 15 16  2  0
 16 17  1  0
 17 18  2  0
 18 19  1  0
  2 20  1  0
 20 21  1  0
 21 22  1  0
 22 23  1  0
 23 24  1  0
 24 25  1  0
  8  3  1  0
 18 13  1  0
 25 20  1  0
  4 26  1  0
  5 27  1  0
  6 28  1  0
  7 29  1  0
  9 30  1  0
 14 31  1  0
 15 32  1  0
 16 33  1  0
 17 34  1  0
 21 35  1  0
 21 36  1  0
 22 37  1  0
 22 38  1  0
 23 39  1  0
 23 40  1  0
 24 41  1  0
 24 42  1  0
 25 43  1  0
 25 44  1  0
M  CHG  1  19  -1
M  END
>  <UniqueID>  (40) 
35

>  <SMILES>  (40) 
O=C(c1ccccc1NS(=O)(=O)c1ccccc1[O-])N1CCCCC1

>  <Energy>  (40) 
57.41513141432546

>  <Genealogy>  (40) 
O=C(c1ccccc1NS(=O)(=O)c1ccccc1[O-])N1CCCCC1 (protonated)
O=C(c1ccccc1NS(=O)(=O)c1ccccc1[O-])N1CCCCC1 (3D coordinates assigned)
O=C(c1ccccc1NS(=O)(=O)c1ccccc1[O-])N1CCCCC1 (nonaromatic ring conformer: 57.41513141432546 kcal/mol)

>  <smiles>  (40) 
O=C(c1ccccc1NS(=O)(=O)c1ccccc1O)N1CCCCC1

>  <score_type>  (40) 
oracle

>  <origin>  (40) 
adg

>  <m_score__min__energy>  (40) 
-12.630000000000001

>  <m_primary>  (40) 
energy

$$$$
41:0
     RDKit          3D

 35 37  0  0  0  0  0  0  0  0999 V2000
   57.5335   31.6055   43.6744 H   0  0  0  0  0  0  0  0  0  0  0  0
   57.3840   30.5630   43.9920 C   0  0  0  0  0  0  0  0  0  0  0  0
   56.8238   29.8674   43.3499 H   0  0  0  0  0  0  0  0  0  0  0  0
   57.8860   30.1390   45.1650 C   0  0  0  0  0  0  0  0  0  0  0  0
   57.7870   28.8500   45.7170 C   0  0  0  0  0  0  0  0  0  0  0  0
   57.3380   27.6920   45.1930 C   0  0  0  0  0  0  0  0  0  0  0  0
   57.0587   27.6965   44.1291 H   0  0  0  0  0  0  0  0  0  0  0  0
   57.1890   26.4190   45.9240 C   0  0  0  0  0  0  0  0  0  0  0  0
   55.9220   25.9310   46.2860 C   0  0  0  0  0  0  0  0  0  0  0  0
   54.7710   26.6560   45.9960 O   0  0  0  0  0  0  0  0  0  0  0  0
   55.8130   24.7350   46.9210 N   0  0  0  0  0  0  0  0  0  0  0  0
   56.9110   23.9870   47.1990 C   0  0  0  0  0  0  0  0  0  0  0  0
   56.7870   22.8850   47.7910 O   0  0  0  0  0  0  0  0  0  0  0  0
   58.1430   24.4250   46.8340 N   0  0  0  0  0  0  0  0  0  0  0  0
   58.3050   25.6150   46.1980 C   0  0  0  0  0  0  0  0  0  0  0  0
   59.4630   25.9870   45.8670 O   0  0  0  0  0  0  0  0  0  0  0  0
   58.2760   28.9450   47.0100 C   0  0  0  0  0  0  0  0  0  0  0  0
   58.3140   28.1379   47.7565 H   0  0  0  0  0  0  0  0  0  0  0  0
   58.7060   30.2440   47.1830 C   0  0  0  0  0  0  0  0  0  0  0  0
   59.3200   30.7760   48.4410 C   0  0  0  0  0  0  0  0  0  0  0  0
   58.8119   30.3358   49.3116 H   0  0  0  0  0  0  0  0  0  0  0  0
   60.3877   30.5127   48.4677 H   0  0  0  0  0  0  0  0  0  0  0  0
   59.2114   31.8703   48.4677 H   0  0  0  0  0  0  0  0  0  0  0  0
   58.4690   30.9700   46.0670 N   0  0  0  0  0  0  0  0  0  0  0  0
   58.7700   32.3670   45.8950 C   0  0  0  0  0  0  0  0  0  0  0  0
   60.0170   32.8740   46.2930 C   0  0  0  0  0  0  0  0  0  0  0  0
   60.7683   32.2005   46.7312 H   0  0  0  0  0  0  0  0  0  0  0  0
   60.3070   34.2330   46.1340 C   0  0  0  0  0  0  0  0  0  0  0  0
   61.2851   34.6267   46.4476 H   0  0  0  0  0  0  0  0  0  0  0  0
   59.3550   35.0910   45.5770 C   0  0  0  0  0  0  0  0  0  0  0  0
   59.5848   36.1593   45.4507 H   0  0  0  0  0  0  0  0  0  0  0  0
   58.1100   34.5920   45.1800 C   0  0  0  0  0  0  0  0  0  0  0  0
   57.3606   35.2688   44.7438 H   0  0  0  0  0  0  0  0  0  0  0  0
   57.8170   33.2340   45.3370 C   0  0  0  0  0  0  0  0  0  0  0  0
   56.8377   32.8440   45.0227 H   0  0  0  0  0  0  0  0  0  0  0  0
  1  2  1  0
  2  3  1  0
  2  4  2  0
  4  5  1  0
  5  6  2  0
  6  7  1  0
  6  8  1  0
  8  9  2  0
  9 10  1  0
  9 11  1  0
 11 12  1  0
 12 13  2  0
 12 14  1  0
 14 15  1  0
 15 16  2  0
  5 17  1  0
 17 18  1  0
 17 19  2  0
 19 20  1  0
 20 21  1  0
 20 22  1  0
 20 23  1  0
 19 24  1  0
 24 25  1  0
 25 26  2  0
 26 27  1  0
 26 28  1  0
 28 29  1  0
 28 30  2  0
 30 31  1  0
 30 32  1  0
 32 33  1  0
 32 34  2  0
 34 35  1  0
 24  4  1  0
 34 25  1  0
 15  8  1  0
M  CHG  3  10  -1  11  -1  14  -1
M  END
>  <UniqueID>  (41) 
36

>  <SMILES>  (41) 
C=c1/c(=C\c2c([O-])[n-]c(=O)[n-]c2=O)cc(C)n1-c1ccccc1

>  <Energy>  (41) 
86.78649123307822

>  <Genealogy>  (41) 
C=c1c(=Cc2c([O-])[n-]c(=O)[n-]c2=O)cc(C)n1-c1ccccc1 (protonated)
C=c1/c(=C\c2c([O-])[n-]c(=O)[n-]c2=O)cc(C)n1-c1ccccc1 (cis-trans isomerization)
C=c1/c(=C\c2c([O-])[n-]c(=O)[n-]c2=O)cc(C)n1-c1ccccc1 (3D coordinates assigned)
C=c1/c(=C\c2c([O-])[n-]c(=O)[n-]c2=O)cc(C)n1-c1ccccc1 (optimized conformer: 86.78649123307822 kcal/mol)

>  <smiles>  (41) 
C=c1c(=Cc2c(O)[nH]c(=O)[nH]c2=O)cc(C)n1-c1ccccc1

>  <score_type>  (41) 
oracle

>  <origin>  (41) 
adg

>  <m_score__min__energy>  (41) 
-15.4

>  <m_primary>  (41) 
energy

$$$$
42:0
     RDKit          3D

 32 34  0  0  0  0  0  0  0  0999 V2000
   56.4860   22.6070   41.8690 H   0  0  0  0  0  0  0  0  0  0  0  0
   56.1680   22.2440   42.7950 N   0  0  0  0  0  0  0  0  0  0  0  0
   56.9940   22.0520   43.7750 C   0  0  0  0  0  0  0  0  0  0  0  0
   57.3300   23.1730   44.6910 C   0  0  0  0  0  0  0  0  0  0  0  0
   57.2850   24.4980   44.2220 C   0  0  0  0  0  0  0  0  0  0  0  0
   57.0083   24.6995   43.1766 H   0  0  0  0  0  0  0  0  0  0  0  0
   57.5910   25.5630   45.0800 C   0  0  0  0  0  0  0  0  0  0  0  0
   57.5480   26.8920   44.6310 C   0  0  0  0  0  0  0  0  0  0  0  0
   57.2729   27.1083   43.5882 H   0  0  0  0  0  0  0  0  0  0  0  0
   57.8550   27.9500   45.5080 C   0  0  0  0  0  0  0  0  0  0  0  0
   57.8110   29.3570   45.0340 C   0  0  0  0  0  0  0  0  0  0  0  0
   58.1890   30.4110   45.8830 C   0  0  0  0  0  0  0  0  0  0  0  0
   58.5222   30.2004   46.9099 H   0  0  0  0  0  0  0  0  0  0  0  0
   58.1400   31.7270   45.4180 C   0  0  0  0  0  0  0  0  0  0  0  0
   58.4343   32.5533   46.0818 H   0  0  0  0  0  0  0  0  0  0  0  0
   57.7300   31.9920   44.1480 N   0  0  0  0  0  0  0  0  0  0  0  0
   57.7020   32.9830   43.8220 H   0  0  0  0  0  0  0  0  0  0  0  0
   57.3600   30.9920   43.3010 C   0  0  0  0  0  0  0  0  0  0  0  0
   56.9870   31.2660   42.1280 O   0  0  0  0  0  0  0  0  0  0  0  0
   57.3920   29.6610   43.7280 C   0  0  0  0  0  0  0  0  0  0  0  0
   57.0901   28.8545   43.0436 H   0  0  0  0  0  0  0  0  0  0  0  0
   58.2020   27.6560   46.8400 C   0  0  0  0  0  0  0  0  0  0  0  0
   58.4431   28.4749   47.5338 H   0  0  0  0  0  0  0  0  0  0  0  0
   58.2430   26.3340   47.2890 C   0  0  0  0  0  0  0  0  0  0  0  0
   58.5158   26.1169   48.3323 H   0  0  0  0  0  0  0  0  0  0  0  0
   57.9380   25.2860   46.4150 C   0  0  0  0  0  0  0  0  0  0  0  0
   57.9760   24.0010   46.8530 N   0  0  0  0  0  0  0  0  0  0  0  0
   57.6860   22.9500   46.0400 C   0  0  0  0  0  0  0  0  0  0  0  0
   57.7540   21.7810   46.5060 O   0  0  0  0  0  0  0  0  0  0  0  0
   57.5780   20.7570   43.9620 N   0  0  0  0  0  0  0  0  0  0  0  0
   58.1510   20.5390   44.8070 H   0  0  0  0  0  0  0  0  0  0  0  0
   57.3880   19.9840   43.2860 H   0  0  0  0  0  0  0  0  0  0  0  0
  1  2  1  0
  2  3  2  0
  3  4  1  0
  4  5  2  0
  5  6  1  0
  5  7  1  0
  7  8  2  0
  8  9  1  0
  8 10  1  0
 10 11  1  0
 11 12  1  0
 12 13  1  0
 12 14  2  0
 14 15  1  0
 14 16  1  0
 16 17  1  0
 16 18  1  0
 18 19  2  0
 18 20  1  0
 20 21  1  0
 10 22  2  0
 22 23  1  0
 22 24  1  0
 24 25  1  0
 24 26  2  0
 26 27  1  0
 27 28  1  0
 28 29  2  0
  3 30  1  0
 30 31  1  0
 30 32  1  0
 28  4  1  0
 26  7  1  0
 20 11  2  0
M  CHG  1  27  -1
M  END
>  <UniqueID>  (42) 
37

>  <SMILES>  (42) 
[H]/N=C(\N)c1cc2cc(-c3cc[nH]c(=O)c3)ccc2[n-]c1=O

>  <Energy>  (42) 
47.0403563904478

>  <Genealogy>  (42) 
N=C(N)c1cc2cc(-c3cc[nH]c(=O)c3)ccc2[n-]c1=O (protonated)
[H]/N=C(\N)c1cc2cc(-c3cc[nH]c(=O)c3)ccc2[n-]c1=O (cis-trans isomerization)
[H]/N=C(\N)c1cc2cc(-c3cc[nH]c(=O)c3)ccc2[n-]c1=O (3D coordinates assigned)
[H]/N=C(\N)c1cc2cc(-c3cc[nH]c(=O)c3)ccc2[n-]c1=O (optimized conformer: 47.0403563904478 kcal/mol)

>  <smiles>  (42) 
N=C(N)c1cc2cc(-c3cc[nH]c(=O)c3)ccc2[nH]c1=O

>  <score_type>  (42) 
oracle

>  <origin>  (42) 
adg

>  <m_score__min__energy>  (42) 
-9.2300000000000004

>  <m_primary>  (42) 
energy

$$$$
43:0
     RDKit          3D

 27 28  0  0  0  0  0  0  0  0999 V2000
   63.3670   31.8950   47.2560 N   0  0  0  0  0  0  0  0  0  0  0  0
   62.6820   33.4730   47.1050 S   0  0  0  0  0  0  0  0  0  0  0  0
   62.8280   34.2130   48.4050 O   0  0  0  0  0  0  0  0  0  0  0  0
   63.4090   34.2350   46.0320 O   0  0  0  0  0  0  0  0  0  0  0  0
   60.9770   33.3320   46.6890 C   0  0  0  0  0  0  0  0  0  0  0  0
   60.2190   34.4790   46.4190 C   0  0  0  0  0  0  0  0  0  0  0  0
   58.8670   34.3650   46.0920 C   0  0  0  0  0  0  0  0  0  0  0  0
   58.2650   33.1060   46.0240 C   0  0  0  0  0  0  0  0  0  0  0  0
   59.0140   31.9410   46.2710 C   0  0  0  0  0  0  0  0  0  0  0  0
   58.3550   30.6110   46.1940 C   0  0  0  0  0  0  0  0  0  0  0  0
   58.8990   29.4800   46.8240 C   0  0  0  0  0  0  0  0  0  0  0  0
   58.2470   28.2510   46.7200 C   0  0  0  0  0  0  0  0  0  0  0  0
   57.0550   28.1350   45.9870 C   0  0  0  0  0  0  0  0  0  0  0  0
   56.3790   26.8160   45.8900 C   0  0  0  0  0  0  0  0  0  0  0  0
   55.1280   26.7180   45.9920 O   0  0  0  0  0  0  0  0  0  0  0  0
   57.1250   25.6600   45.6870 O   0  0  0  0  0  0  0  0  0  0  0  0
   56.5480   29.2940   45.3590 C   0  0  0  0  0  0  0  0  0  0  0  0
   55.4860   29.2540   44.6810 O   0  0  0  0  0  0  0  0  0  0  0  0
   57.2050   30.4770   45.4790 N   0  0  0  0  0  0  0  0  0  0  0  0
   60.3750   32.0680   46.6120 C   0  0  0  0  0  0  0  0  0  0  0  0
   64.3940   31.9910   47.1020 H   0  0  0  0  0  0  0  0  0  0  0  0
   60.6906   35.4717   46.4649 H   0  0  0  0  0  0  0  0  0  0  0  0
   58.2739   35.2685   45.8873 H   0  0  0  0  0  0  0  0  0  0  0  0
   57.1966   33.0250   45.7753 H   0  0  0  0  0  0  0  0  0  0  0  0
   59.8345   29.5627   47.3966 H   0  0  0  0  0  0  0  0  0  0  0  0
   58.6703   27.3654   47.2164 H   0  0  0  0  0  0  0  0  0  0  0  0
   60.9710   31.1671   46.8198 H   0  0  0  0  0  0  0  0  0  0  0  0
  1  2  1  0
  2  3  2  0
  2  4  2  0
  2  5  1  0
  5  6  2  0
  6  7  1  0
  7  8  2  0
  8  9  1  0
  9 10  1  0
 10 11  2  0
 11 12  1  0
 12 13  2  0
 13 14  1  0
 14 15  2  0
 14 16  1  0
 13 17  1  0
 17 18  2  0
 17 19  1  0
  9 20  2  0
 20  5  1  0
 19 10  1  0
  1 21  1  0
  6 22  1  0
  7 23  1  0
  8 24  1  0
 11 25  1  0
 12 26  1  0
 20 27  1  0
M  CHG  3   1  -1  16  -1  19  -1
M  END
>  <UniqueID>  (43) 
38

>  <SMILES>  (43) 
[NH-]S(=O)(=O)c1cccc(-c2ccc(C(=O)[O-])c(=O)[n-]2)c1

>  <Energy>  (43) 
34.87017565107707

>  <Genealogy>  (43) 
[NH-]S(=O)(=O)c1cccc(-c2ccc(C(=O)[O-])c(=O)[n-]2)c1 (protonated)
[NH-]S(=O)(=O)c1cccc(-c2ccc(C(=O)[O-])c(=O)[n-]2)c1 (3D coordinates assigned)
[NH-]S(=O)(=O)c1cccc(-c2ccc(C(=O)[O-])c(=O)[n-]2)c1 (optimized conformer: 34.87017565107707 kcal/mol)

>  <smiles>  (43) 
NS(=O)(=O)c1cccc(-c2ccc(C(=O)O)c(=O)[nH]2)c1

>  <score_type>  (43) 
oracle

>  <origin>  (43) 
adg

>  <m_score__min__energy>  (43) 
-12.48

>  <m_primary>  (43) 
energy

$$$$
44:0
     RDKit          3D

 50 53  0  0  0  0  0  0  0  0999 V2000
   54.8500   26.3050   45.9660 N   0  0  0  0  0  0  0  0  0  0  0  0
   56.5240   25.8780   45.9070 S   0  0  0  0  0  0  0  0  0  0  0  0
   56.7470   24.8690   44.8180 O   0  0  0  0  0  0  0  0  0  0  0  0
   56.9300   25.2690   47.2200 O   0  0  0  0  0  0  0  0  0  0  0  0
   57.4860   27.3190   45.5970 C   0  0  0  0  0  0  0  0  0  0  0  0
   58.8810   27.2290   45.5060 C   0  0  0  0  0  0  0  0  0  0  0  0
   59.6420   28.3690   45.2300 C   0  0  0  0  0  0  0  0  0  0  0  0
   59.0130   29.6020   45.0370 C   0  0  0  0  0  0  0  0  0  0  0  0
   57.6190   29.7020   45.1370 C   0  0  0  0  0  0  0  0  0  0  0  0
   56.9440   30.9780   44.8680 C   0  0  0  0  0  0  0  0  0  0  0  0
   55.8980   30.9840   44.1680 O   0  0  0  0  0  0  0  0  0  0  0  0
   57.4800   32.2250   45.3330 N   0  0  0  0  0  0  0  0  0  0  0  0
   57.7290   32.5730   46.7310 C   0  0  0  0  0  0  0  0  0  0  0  0
   59.2050   32.7070   47.0150 C   0  0  0  0  0  0  0  0  0  0  0  0
   60.1130   33.3100   46.1550 C   0  0  0  0  0  0  0  0  0  0  0  0
   59.8370   33.8220   44.8890 O   0  0  0  0  0  0  0  0  0  0  0  0
   61.3240   33.3210   46.8050 C   0  0  0  0  0  0  0  0  0  0  0  0
   62.5600   33.8380   46.4230 C   0  0  0  0  0  0  0  0  0  0  0  0
   63.6290   33.7190   47.3270 C   0  0  0  0  0  0  0  0  0  0  0  0
   63.4410   33.0930   48.5760 C   0  0  0  0  0  0  0  0  0  0  0  0
   62.1810   32.5850   48.9380 C   0  0  0  0  0  0  0  0  0  0  0  0
   61.1260   32.7150   48.0230 C   0  0  0  0  0  0  0  0  0  0  0  0
   59.8330   32.3260   48.1630 N   0  0  0  0  0  0  0  0  0  0  0  0
   59.2310   31.6370   49.3150 C   0  0  0  0  0  0  0  0  0  0  0  0
   59.7500   30.2260   49.4270 C   0  0  0  0  0  0  0  0  0  0  0  0
   60.8120   29.9300   50.2990 C   0  0  0  0  0  0  0  0  0  0  0  0
   61.2930   28.6220   50.4070 C   0  0  0  0  0  0  0  0  0  0  0  0
   60.7230   27.6010   49.6430 C   0  0  0  0  0  0  0  0  0  0  0  0
   59.6720   27.8860   48.7680 C   0  0  0  0  0  0  0  0  0  0  0  0
   59.1860   29.1930   48.6560 C   0  0  0  0  0  0  0  0  0  0  0  0
   58.1720   29.4480   47.7900 F   0  0  0  0  0  0  0  0  0  0  0  0
   56.8600   28.5610   45.4350 C   0  0  0  0  0  0  0  0  0  0  0  0
   54.7600   27.0850   46.6560 H   0  0  0  0  0  0  0  0  0  0  0  0
   59.3789   26.2591   45.6520 H   0  0  0  0  0  0  0  0  0  0  0  0
   60.7376   28.2953   45.1647 H   0  0  0  0  0  0  0  0  0  0  0  0
   59.6128   30.4948   44.8064 H   0  0  0  0  0  0  0  0  0  0  0  0
   57.2341   33.5296   46.9545 H   0  0  0  0  0  0  0  0  0  0  0  0
   57.3285   31.7668   47.3631 H   0  0  0  0  0  0  0  0  0  0  0  0
   58.9910   33.5710   44.3930 H   0  0  0  0  0  0  0  0  0  0  0  0
   62.6946   34.3237   45.4453 H   0  0  0  0  0  0  0  0  0  0  0  0
   64.6188   34.1168   47.0585 H   0  0  0  0  0  0  0  0  0  0  0  0
   64.2870   33.0012   49.2731 H   0  0  0  0  0  0  0  0  0  0  0  0
   62.0268   32.0987   49.9125 H   0  0  0  0  0  0  0  0  0  0  0  0
   59.4803   32.1869   50.2345 H   0  0  0  0  0  0  0  0  0  0  0  0
   58.1407   31.6011   49.1736 H   0  0  0  0  0  0  0  0  0  0  0  0
   61.2668   30.7317   50.8994 H   0  0  0  0  0  0  0  0  0  0  0  0
   62.1215   28.3964   51.0946 H   0  0  0  0  0  0  0  0  0  0  0  0
   61.1019   26.5720   49.7304 H   0  0  0  0  0  0  0  0  0  0  0  0
   59.2256   27.0810   48.1658 H   0  0  0  0  0  0  0  0  0  0  0  0
   55.7682   28.6421   45.5419 H   0  0  0  0  0  0  0  0  0  0  0  0
  1  2  1  0
  2  3  2  0
  2  4  2  0
  2  5  1  0
  5  6  2  0
  6  7  1  0
  7  8  2  0
  8  9  1  0
  9 10  1  0
 10 11  2  0
 10 12  1  0
 12 13  1  0
 13 14  1  0
 14 15  2  0
 15 16  1  0
 15 17  1  0
 17 18  2  0
 18 19  1  0
 19 20  2  0
 20 21  1  0
 21 22  2  0
 22 23  1  0
 23 24  1  0
 24 25  1  0
 25 26  2  0
 26 27  1  0
 27 28  2  0
 28 29  1  0
 29 30  2  0
 30 31  1  0
  9 32  2  0
 32  5  1  0
 23 14  1  0
 30 25  1  0
 22 17  1  0
  1 33  1  0
  6 34  1  0
  7 35  1  0
  8 36  1  0
 13 37  1  0
 13 38  1  0
 16 39  1  0
 18 40  1  0
 19 41  1  0
 20 42  1  0
 21 43  1  0
 24 44  1  0
 24 45  1  0
 26 46  1  0
 27 47  1  0
 28 48  1  0
 29 49  1  0
 32 50  1  0
M  CHG  2   1  -1  12  -1
M  END
>  <UniqueID>  (44) 
39

>  <SMILES>  (44) 
[NH-]S(=O)(=O)c1cccc(C(=O)[N-]Cc2c(O)c3ccccc3n2Cc2ccccc2F)c1

>  <Energy>  (44) 
88.85095768697441

>  <Genealogy>  (44) 
[NH-]S(=O)(=O)c1cccc(C(=O)[N-]Cc2c(O)c3ccccc3n2Cc2ccccc2F)c1 (protonated)
[NH-]S(=O)(=O)c1cccc(C(=O)[N-]Cc2c(O)c3ccccc3n2Cc2ccccc2F)c1 (3D coordinates assigned)
[NH-]S(=O)(=O)c1cccc(C(=O)[N-]Cc2c(O)c3ccccc3n2Cc2ccccc2F)c1 (optimized conformer: 88.85095768697441 kcal/mol)

>  <smiles>  (44) 
NS(=O)(=O)c1cccc(C(=O)NCc2c(O)c3ccccc3n2Cc2ccccc2F)c1

>  <score_type>  (44) 
oracle

>  <origin>  (44) 
adg

>  <m_score__min__energy>  (44) 
-13.1

>  <m_primary>  (44) 
energy

$$$$
45:0
     RDKit          3D

 52 55  0  0  0  0  0  0  0  0999 V2000
   56.7440   20.8119   43.6563 H   0  0  0  0  0  0  0  0  0  0  0  0
   56.5330   21.7350   44.2160 C   0  0  0  0  0  0  0  0  0  0  0  0
   56.4210   21.6980   45.6070 C   0  0  0  0  0  0  0  0  0  0  0  0
   56.5344   20.7434   46.1416 H   0  0  0  0  0  0  0  0  0  0  0  0
   56.1650   22.8720   46.3220 C   0  0  0  0  0  0  0  0  0  0  0  0
   56.0641   22.8362   47.4168 H   0  0  0  0  0  0  0  0  0  0  0  0
   56.0360   24.1000   45.6450 C   0  0  0  0  0  0  0  0  0  0  0  0
   55.7270   25.3240   46.3340 N   0  0  0  0  0  0  0  0  0  0  0  0
   56.4050   26.4340   46.3000 C   0  0  0  0  0  0  0  0  0  0  0  0
   55.9030   27.4940   45.6180 N   0  0  0  0  0  0  0  0  0  0  0  0
   56.6000   28.6590   45.5390 C   0  0  0  0  0  0  0  0  0  0  0  0
   56.1260   29.6800   44.8890 N   0  0  0  0  0  0  0  0  0  0  0  0
   56.9090   30.5490   44.0120 C   0  0  0  0  0  0  0  0  0  0  0  0
   56.2357   31.0353   43.2907 H   0  0  0  0  0  0  0  0  0  0  0  0
   57.6565   29.9383   43.4844 H   0  0  0  0  0  0  0  0  0  0  0  0
   57.6240   31.6060   44.8110 C   0  0  0  0  0  0  0  0  0  0  0  0
   58.8390   31.3180   45.4520 C   0  0  0  0  0  0  0  0  0  0  0  0
   59.2862   30.3178   45.3543 H   0  0  0  0  0  0  0  0  0  0  0  0
   59.4830   32.2970   46.2140 C   0  0  0  0  0  0  0  0  0  0  0  0
   60.4342   32.0629   46.7145 H   0  0  0  0  0  0  0  0  0  0  0  0
   58.9220   33.5780   46.3440 C   0  0  0  0  0  0  0  0  0  0  0  0
   59.6180   34.6260   47.1700 C   0  0  0  0  0  0  0  0  0  0  0  0
   59.3872   34.4602   48.2327 H   0  0  0  0  0  0  0  0  0  0  0  0
   59.2647   35.6182   46.8528 H   0  0  0  0  0  0  0  0  0  0  0  0
   61.0680   34.5590   46.9770 N   0  0  0  0  0  0  0  0  0  0  0  0
   61.8340   33.6370   48.2390 S   0  0  0  0  0  0  0  0  0  0  0  0
   60.8040   32.9010   49.0510 O   0  0  0  0  0  0  0  0  0  0  0  0
   62.5800   34.5800   49.1390 O   0  0  0  0  0  0  0  0  0  0  0  0
   62.9900   32.4740   47.5460 C   0  0  0  0  0  0  0  0  0  0  0  0
   63.5127   31.9481   48.3586 H   0  0  0  0  0  0  0  0  0  0  0  0
   62.4488   31.7445   46.9256 H   0  0  0  0  0  0  0  0  0  0  0  0
   63.7228   33.0108   46.9256 H   0  0  0  0  0  0  0  0  0  0  0  0
   57.7020   33.8620   45.7100 C   0  0  0  0  0  0  0  0  0  0  0  0
   57.2503   34.8596   45.8136 H   0  0  0  0  0  0  0  0  0  0  0  0
   57.0590   32.8830   44.9480 C   0  0  0  0  0  0  0  0  0  0  0  0
   56.1045   33.1147   44.4528 H   0  0  0  0  0  0  0  0  0  0  0  0
   57.8100   28.7580   46.1440 N   0  0  0  0  0  0  0  0  0  0  0  0
   58.3270   27.6980   46.8230 C   0  0  0  0  0  0  0  0  0  0  0  0
   59.4880   27.7760   47.3980 N   0  0  0  0  0  0  0  0  0  0  0  0
   60.1490   29.0400   47.7090 C   0  0  0  0  0  0  0  0  0  0  0  0
   60.6578   29.1823   46.7442 H   0  0  0  0  0  0  0  0  0  0  0  0
   59.3370   29.9170   48.6440 C   0  0  0  0  0  0  0  0  0  0  0  0
   59.3651   31.0112   48.5351 H   0  0  0  0  0  0  0  0  0  0  0  0
   58.2775   29.9735   48.9343 H   0  0  0  0  0  0  0  0  0  0  0  0
   60.5580   29.1720   49.1640 C   0  0  0  0  0  0  0  0  0  0  0  0
   61.4690   29.7275   49.4313 H   0  0  0  0  0  0  0  0  0  0  0  0
   60.7474   28.4664   49.9864 H   0  0  0  0  0  0  0  0  0  0  0  0
   57.6240   26.5390   46.8940 N   0  0  0  0  0  0  0  0  0  0  0  0
   56.1190   24.1210   44.2450 C   0  0  0  0  0  0  0  0  0  0  0  0
   55.9803   25.0680   43.7029 H   0  0  0  0  0  0  0  0  0  0  0  0
   56.3770   22.9450   43.5350 C   0  0  0  0  0  0  0  0  0  0  0  0
   56.4574   22.9722   42.4383 H   0  0  0  0  0  0  0  0  0  0  0  0
  1  2  1  0
  2  3  2  0
  3  4  1  0
  3  5  1  0
  5  6  1  0
  5  7  2  0
  7  8  1  0
  8  9  2  0
  9 10  1  0
 10 11  1  0
 11 12  2  3
 12 13  1  0
 13 14  1  0
 13 15  1  0
 13 16  1  0
 16 17  2  0
 17 18  1  0
 17 19  1  0
 19 20  1  0
 19 21  2  0
 21 22  1  0
 22 23  1  0
 22 24  1  0
 22 25  1  0
 25 26  1  0
 26 27  2  0
 26 28  2  0
 26 29  1  0
 29 30  1  0
 29 31  1  0
 29 32  1  0
 21 33  1  0
 33 34  1  0
 33 35  2  0
 35 36  1  0
 11 37  1  0
 37 38  1  0
 38 39  2  3
 39 40  1  0
 40 41  1  0
 40 42  1  0
 42 43  1  0
 42 44  1  0
 42 45  1  0
 45 46  1  0
 45 47  1  0
 38 48  1  0
  7 49  1  0
 49 50  1  0
 49 51  2  0
 51 52  1  0
 51  2  1  0
 48  9  1  0
 35 16  1  0
 45 40  1  0
M  CHG  4  10  -1  25  -1  37  -1  48  -1
M  END
>  <UniqueID>  (45) 
40

>  <SMILES>  (45) 
CS(=O)(=O)[N-]Cc1ccc(CN=c2[n-]c(=NC3CC3)[n-]/c(=N\c3ccccc3)[n-]2)cc1

>  <Energy>  (45) 
319.3754874787413

>  <Genealogy>  (45) 
CS(=O)(=O)[N-]Cc1ccc(CN=c2[n-]c(=Nc3ccccc3)[n-]c(=NC3CC3)[n-]2)cc1 (protonated)
CS(=O)(=O)[N-]Cc1ccc(CN=c2[n-]c(=NC3CC3)[n-]/c(=N\c3ccccc3)[n-]2)cc1 (cis-trans isomerization)
CS(=O)(=O)[N-]Cc1ccc(CN=c2[n-]c(=NC3CC3)[n-]/c(=N\c3ccccc3)[n-]2)cc1 (3D coordinates assigned)
CS(=O)(=O)[N-]Cc1ccc(CN=c2[n-]c(=NC3CC3)[n-]/c(=N\c3ccccc3)[n-]2)cc1 (nonaromatic ring conformer: 319.3754874787413 kcal/mol)

>  <smiles>  (45) 
CS(=O)(=O)NCc1ccc(CN=c2[nH]c(=Nc3ccccc3)[nH]c(=NC3CC3)[nH]2)cc1

>  <score_type>  (45) 
oracle

>  <origin>  (45) 
adg

>  <m_score__min__energy>  (45) 
-14.300000000000001

>  <m_primary>  (45) 
energy

$$$$
46:0
     RDKit          3D

 65 68  0  0  0  0  0  0  0  0999 V2000
   59.6990   29.1690   52.0460 C   0  0  0  0  0  0  0  0  0  0  0  0
   61.1040   29.6870   51.6930 C   0  0  0  0  0  0  0  0  0  0  0  0
   61.4380   31.0250   52.2450 N   0  0  0  0  0  0  0  0  0  0  0  0
   62.6820   31.6540   51.7480 C   0  0  0  0  0  0  0  0  0  0  0  0
   63.2250   30.9110   50.5210 C   0  0  0  0  0  0  0  0  0  0  0  0
   63.1160   31.7760   49.2920 C   0  0  0  0  0  0  0  0  0  0  0  0
   62.2610   31.4060   48.2390 C   0  0  0  0  0  0  0  0  0  0  0  0
   62.1210   32.2330   47.1200 C   0  0  0  0  0  0  0  0  0  0  0  0
   62.8250   33.4380   47.0460 C   0  0  0  0  0  0  0  0  0  0  0  0
   63.6750   33.8150   48.0900 C   0  0  0  0  0  0  0  0  0  0  0  0
   63.8150   32.9920   49.2140 C   0  0  0  0  0  0  0  0  0  0  0  0
   60.2900   31.9580   52.3420 C   0  0  0  0  0  0  0  0  0  0  0  0
   59.9020   32.5650   51.0140 C   0  0  0  0  0  0  0  0  0  0  0  0
   60.4930   33.7590   50.5760 C   0  0  0  0  0  0  0  0  0  0  0  0
   60.2130   34.2580   49.3020 C   0  0  0  0  0  0  0  0  0  0  0  0
   59.3230   33.5810   48.4550 C   0  0  0  0  0  0  0  0  0  0  0  0
   59.0900   34.0610   47.0800 C   0  0  0  0  0  0  0  0  0  0  0  0
   59.3600   35.2640   46.8040 O   0  0  0  0  0  0  0  0  0  0  0  0
   58.5670   33.1850   46.0580 N   0  0  0  0  0  0  0  0  0  0  0  0
   57.5800   33.6940   45.0840 C   0  0  0  0  0  0  0  0  0  0  0  0
   57.6650   32.9480   43.7540 C   0  0  0  0  0  0  0  0  0  0  0  0
   57.5660   31.4720   43.9970 C   0  0  0  0  0  0  0  0  0  0  0  0
   56.8540   30.6440   43.1200 C   0  0  0  0  0  0  0  0  0  0  0  0
   56.8140   29.2650   43.3320 C   0  0  0  0  0  0  0  0  0  0  0  0
   57.5020   28.6890   44.4040 C   0  0  0  0  0  0  0  0  0  0  0  0
   57.4320   27.2990   44.5580 O   0  0  0  0  0  0  0  0  0  0  0  0
   56.8650   26.4940   45.9570 S   0  0  0  0  0  0  0  0  0  0  0  0
   55.1520   26.6960   46.0630 N   0  0  0  0  0  0  0  0  0  0  0  0
   57.1850   25.0280   45.8540 O   0  0  0  0  0  0  0  0  0  0  0  0
   57.5120   27.0780   47.1820 O   0  0  0  0  0  0  0  0  0  0  0  0
   58.2350   29.5180   45.2730 C   0  0  0  0  0  0  0  0  0  0  0  0
   58.2450   30.9090   45.0910 C   0  0  0  0  0  0  0  0  0  0  0  0
   59.0460   31.7860   46.0240 C   0  0  0  0  0  0  0  0  0  0  0  0
   58.6760   32.4260   48.9180 C   0  0  0  0  0  0  0  0  0  0  0  0
   58.9700   31.9160   50.1870 C   0  0  0  0  0  0  0  0  0  0  0  0
   59.5874   29.1279   53.1396 H   0  0  0  0  0  0  0  0  0  0  0  0
   58.9418   29.8471   51.6254 H   0  0  0  0  0  0  0  0  0  0  0  0
   59.5632   28.1617   51.6254 H   0  0  0  0  0  0  0  0  0  0  0  0
   61.8400   28.9659   52.0780 H   0  0  0  0  0  0  0  0  0  0  0  0
   61.1262   29.7924   50.5983 H   0  0  0  0  0  0  0  0  0  0  0  0
   62.4712   32.6976   51.4717 H   0  0  0  0  0  0  0  0  0  0  0  0
   63.4382   31.6102   52.5456 H   0  0  0  0  0  0  0  0  0  0  0  0
   64.2810   30.6541   50.6909 H   0  0  0  0  0  0  0  0  0  0  0  0
   62.6334   29.9965   50.3671 H   0  0  0  0  0  0  0  0  0  0  0  0
   61.6996   30.4617   48.2956 H   0  0  0  0  0  0  0  0  0  0  0  0
   61.4555   31.9345   46.2966 H   0  0  0  0  0  0  0  0  0  0  0  0
   62.7104   34.0893   46.1670 H   0  0  0  0  0  0  0  0  0  0  0  0
   64.2348   34.7599   48.0282 H   0  0  0  0  0  0  0  0  0  0  0  0
   64.4748   33.2987   50.0390 H   0  0  0  0  0  0  0  0  0  0  0  0
   59.4251   31.4077   52.7408 H   0  0  0  0  0  0  0  0  0  0  0  0
   60.5948   32.7836   53.0020 H   0  0  0  0  0  0  0  0  0  0  0  0
   61.1803   34.3050   51.2390 H   0  0  0  0  0  0  0  0  0  0  0  0
   60.6930   35.1871   48.9608 H   0  0  0  0  0  0  0  0  0  0  0  0
   56.5698   33.5672   45.5003 H   0  0  0  0  0  0  0  0  0  0  0  0
   57.7979   34.7559   44.8970 H   0  0  0  0  0  0  0  0  0  0  0  0
   56.8390   33.2677   43.1017 H   0  0  0  0  0  0  0  0  0  0  0  0
   58.6262   33.1744   43.2694 H   0  0  0  0  0  0  0  0  0  0  0  0
   56.3245   31.0820   42.2611 H   0  0  0  0  0  0  0  0  0  0  0  0
   56.2356   28.6254   42.6491 H   0  0  0  0  0  0  0  0  0  0  0  0
   54.7920   26.7180   45.0840 H   0  0  0  0  0  0  0  0  0  0  0  0
   58.8047   29.0719   46.1016 H   0  0  0  0  0  0  0  0  0  0  0  0
   58.9805   31.3686   47.0396 H   0  0  0  0  0  0  0  0  0  0  0  0
   60.0810   31.8022   45.6518 H   0  0  0  0  0  0  0  0  0  0  0  0
   57.9353   31.9198   48.2815 H   0  0  0  0  0  0  0  0  0  0  0  0
   58.4689   31.0022   50.5391 H   0  0  0  0  0  0  0  0  0  0  0  0
  1  2  1  0
  2  3  1  0
  3  4  1  0
  4  5  1  0
  5  6  1  0
  6  7  2  0
  7  8  1  0
  8  9  2  0
  9 10  1  0
 10 11  2  0
  3 12  1  0
 12 13  1  0
 13 14  2  0
 14 15  1  0
 15 16  2  0
 16 17  1  0
 17 18  2  0
 17 19  1  0
 19 20  1  0
 20 21  1  0
 21 22  1  0
 22 23  2  0
 23 24  1  0
 24 25  2  0
 25 26  1  0
 26 27  1  0
 27 28  1  0
 27 29  2  0
 27 30  2  0
 25 31  1  0
 31 32  2  0
 32 33  1  0
 16 34  1  0
 34 35  2  0
 11  6  1  0
 35 13  1  0
 33 19  1  0
 32 22  1  0
  1 36  1  0
  1 37  1  0
  1 38  1  0
  2 39  1  0
  2 40  1  0
  4 41  1  0
  4 42  1  0
  5 43  1  0
  5 44  1  0
  7 45  1  0
  8 46  1  0
  9 47  1  0
 10 48  1  0
 11 49  1  0
 12 50  1  0
 12 51  1  0
 14 52  1  0
 15 53  1  0
 20 54  1  0
 20 55  1  0
 21 56  1  0
 21 57  1  0
 23 58  1  0
 24 59  1  0
 28 60  1  0
 31 61  1  0
 33 62  1  0
 33 63  1  0
 34 64  1  0
 35 65  1  0
M  CHG  1  28  -1
M  END
>  <UniqueID>  (46) 
41

>  <SMILES>  (46) 
CCN(CCc1ccccc1)Cc1ccc(C(=O)N2CCc3ccc(OS([NH-])(=O)=O)cc3C2)cc1

>  <Energy>  (46) 
78.29657449898562

>  <Genealogy>  (46) 
CCN(CCc1ccccc1)Cc1ccc(C(=O)N2CCc3ccc(OS([NH-])(=O)=O)cc3C2)cc1 (protonated)
CCN(CCc1ccccc1)Cc1ccc(C(=O)N2CCc3ccc(OS([NH-])(=O)=O)cc3C2)cc1 (3D coordinates assigned)
CCN(CCc1ccccc1)Cc1ccc(C(=O)N2CCc3ccc(OS([NH-])(=O)=O)cc3C2)cc1 (nonaromatic ring conformer: 78.29657449898562 kcal/mol)

>  <smiles>  (46) 
CCN(CCc1ccccc1)Cc1ccc(C(=O)N2CCc3ccc(OS(N)(=O)=O)cc3C2)cc1

>  <score_type>  (46) 
oracle

>  <origin>  (46) 
adg

>  <m_score__min__energy>  (46) 
-12.529999999999999

>  <m_primary>  (46) 
energy

$$$$
47:0
     RDKit          3D

 46 48  0  0  0  0  0  0  0  0999 V2000
   56.3230   29.5920   43.5520 C   0  0  0  0  0  0  0  0  0  0  0  0
   57.3550   29.5090   44.4090 C   0  0  0  0  0  0  0  0  0  0  0  0
   57.8370   28.3400   45.0220 C   0  0  0  0  0  0  0  0  0  0  0  0
   57.5810   27.0390   44.7780 C   0  0  0  0  0  0  0  0  0  0  0  0
   57.1360   26.0450   45.7670 C   0  0  0  0  0  0  0  0  0  0  0  0
   57.8960   25.0110   46.1690 N   0  0  0  0  0  0  0  0  0  0  0  0
   57.0610   24.2950   46.9530 C   0  0  0  0  0  0  0  0  0  0  0  0
   57.4210   23.2400   47.5390 O   0  0  0  0  0  0  0  0  0  0  0  0
   55.8070   24.7880   47.0480 N   0  0  0  0  0  0  0  0  0  0  0  0
   55.8650   25.8860   46.2770 C   0  0  0  0  0  0  0  0  0  0  0  0
   54.7710   26.7020   46.0170 O   0  0  0  0  0  0  0  0  0  0  0  0
   58.7310   28.7510   45.9930 C   0  0  0  0  0  0  0  0  0  0  0  0
   58.8370   30.1200   45.8860 C   0  0  0  0  0  0  0  0  0  0  0  0
   59.7250   30.9570   46.7600 C   0  0  0  0  0  0  0  0  0  0  0  0
   58.0020   30.5910   44.9270 N   0  0  0  0  0  0  0  0  0  0  0  0
   57.8690   32.0040   44.5290 C   0  0  0  0  0  0  0  0  0  0  0  0
   57.4300   32.9030   45.6970 C   0  0  0  0  0  0  0  0  0  0  0  0
   58.1600   34.2510   45.7460 C   0  0  0  0  0  0  0  0  0  0  0  0
   59.5980   34.1030   45.5240 N   0  0  0  0  0  0  0  0  0  0  0  0
   60.5180   34.0970   46.6230 C   0  0  0  0  0  0  0  0  0  0  0  0
   60.0910   34.1810   47.8080 O   0  0  0  0  0  0  0  0  0  0  0  0
   61.9950   34.0000   46.3810 C   0  0  0  0  0  0  0  0  0  0  0  0
   62.6880   33.4860   47.6020 C   0  0  0  0  0  0  0  0  0  0  0  0
   62.9230   34.2030   48.7670 C   0  0  0  0  0  0  0  0  0  0  0  0
   63.6560   33.4820   49.7170 C   0  0  0  0  0  0  0  0  0  0  0  0
   64.0070   32.2040   49.3010 C   0  0  0  0  0  0  0  0  0  0  0  0
   63.4080   31.9730   47.7460 S   0  0  0  0  0  0  0  0  0  0  0  0
   56.0335   30.5668   43.1325 H   0  0  0  0  0  0  0  0  0  0  0  0
   55.7679   28.6852   43.2701 H   0  0  0  0  0  0  0  0  0  0  0  0
   57.7174   26.6885   43.7443 H   0  0  0  0  0  0  0  0  0  0  0  0
   59.2572   28.1076   46.7135 H   0  0  0  0  0  0  0  0  0  0  0  0
   59.5025   30.7473   47.8166 H   0  0  0  0  0  0  0  0  0  0  0  0
   60.7777   30.7150   46.5519 H   0  0  0  0  0  0  0  0  0  0  0  0
   59.5456   32.0221   46.5519 H   0  0  0  0  0  0  0  0  0  0  0  0
   58.8410   32.3590   44.1559 H   0  0  0  0  0  0  0  0  0  0  0  0
   57.0933   32.0619   43.7512 H   0  0  0  0  0  0  0  0  0  0  0  0
   56.3513   33.0956   45.6005 H   0  0  0  0  0  0  0  0  0  0  0  0
   57.6797   32.3684   46.6254 H   0  0  0  0  0  0  0  0  0  0  0  0
   57.7460   34.9078   44.9667 H   0  0  0  0  0  0  0  0  0  0  0  0
   58.0131   34.6811   46.7477 H   0  0  0  0  0  0  0  0  0  0  0  0
   59.9760   34.0470   44.5500 H   0  0  0  0  0  0  0  0  0  0  0  0
   62.1810   33.3133   45.5420 H   0  0  0  0  0  0  0  0  0  0  0  0
   62.3851   35.0005   46.1425 H   0  0  0  0  0  0  0  0  0  0  0  0
   62.5695   35.2322   48.9273 H   0  0  0  0  0  0  0  0  0  0  0  0
   63.9287   33.8897   50.7016 H   0  0  0  0  0  0  0  0  0  0  0  0
   64.5783   31.4694   49.8874 H   0  0  0  0  0  0  0  0  0  0  0  0
  1  2  2  0
  2  3  1  0
  3  4  2  3
  4  5  1  0
  5  6  1  0
  6  7  1  0
  7  8  2  0
  7  9  1  0
  9 10  1  0
 10 11  1  0
  3 12  1  0
 12 13  2  0
 13 14  1  0
 13 15  1  0
 15 16  1  0
 16 17  1  0
 17 18  1  0
 18 19  1  0
 19 20  1  0
 20 21  2  0
 20 22  1  0
 22 23  1  0
 23 24  2  0
 24 25  1  0
 25 26  2  0
 26 27  1  0
 15  2  1  0
 27 23  1  0
 10  5  2  0
  1 28  1  0
  1 29  1  0
  4 30  1  0
 12 31  1  0
 14 32  1  0
 14 33  1  0
 14 34  1  0
 16 35  1  0
 16 36  1  0
 17 37  1  0
 17 38  1  0
 18 39  1  0
 18 40  1  0
 19 41  1  0
 22 42  1  0
 22 43  1  0
 24 44  1  0
 25 45  1  0
 26 46  1  0
M  CHG  3   6  -1   9  -1  11  -1
M  END
>  <UniqueID>  (47) 
42

>  <SMILES>  (47) 
C=c1c(=Cc2[n-]c(=O)[n-]c2[O-])cc(C)n1CCCNC(=O)Cc1cccs1

>  <Energy>  (47) 
132.44605938741134

>  <Genealogy>  (47) 
C=c1c(=Cc2[n-]c(=O)[n-]c2[O-])cc(C)n1CCCNC(=O)Cc1cccs1 (protonated)
C=c1c(=Cc2[n-]c(=O)[n-]c2[O-])cc(C)n1CCCNC(=O)Cc1cccs1 (3D coordinates assigned)
C=c1c(=Cc2[n-]c(=O)[n-]c2[O-])cc(C)n1CCCNC(=O)Cc1cccs1 (optimized conformer: 132.44605938741134 kcal/mol)

>  <smiles>  (47) 
C=c1c(=Cc2[nH]c(=O)[nH]c2O)cc(C)n1CCCNC(=O)Cc1cccs1

>  <score_type>  (47) 
oracle

>  <origin>  (47) 
adg

>  <m_score__min__energy>  (47) 
-16.300000000000001

>  <m_primary>  (47) 
energy

$$$$
48:0
     RDKit          3D

 54 57  0  0  0  0  0  0  0  0999 V2000
   58.3720   29.7340   44.4310 C   0  0  0  0  0  0  0  0  0  0  0  0
   58.4350   29.4890   45.7510 C   0  0  0  0  0  0  0  0  0  0  0  0
   58.3310   28.2390   46.3780 C   0  0  0  0  0  0  0  0  0  0  0  0
   58.1620   27.0460   45.7710 C   0  0  0  0  0  0  0  0  0  0  0  0
   57.4360   25.8850   46.3340 C   0  0  0  0  0  0  0  0  0  0  0  0
   57.9930   24.7900   46.8860 N   0  0  0  0  0  0  0  0  0  0  0  0
   56.9290   24.0570   47.2800 C   0  0  0  0  0  0  0  0  0  0  0  0
   57.0460   22.9380   47.8470 O   0  0  0  0  0  0  0  0  0  0  0  0
   55.7280   24.6170   47.0220 N   0  0  0  0  0  0  0  0  0  0  0  0
   56.0660   25.7730   46.4270 C   0  0  0  0  0  0  0  0  0  0  0  0
   55.1410   26.7080   45.9770 O   0  0  0  0  0  0  0  0  0  0  0  0
   58.4720   28.4830   47.7420 C   0  0  0  0  0  0  0  0  0  0  0  0
   58.6370   29.8450   47.8900 C   0  0  0  0  0  0  0  0  0  0  0  0
   58.9300   30.5190   49.1950 C   0  0  0  0  0  0  0  0  0  0  0  0
   58.6050   30.4540   46.6850 N   0  0  0  0  0  0  0  0  0  0  0  0
   58.7740   31.8630   46.4450 C   0  0  0  0  0  0  0  0  0  0  0  0
   57.7060   32.5820   45.8890 C   0  0  0  0  0  0  0  0  0  0  0  0
   57.8270   33.9490   45.6430 C   0  0  0  0  0  0  0  0  0  0  0  0
   59.0110   34.6120   45.9680 C   0  0  0  0  0  0  0  0  0  0  0  0
   60.0830   33.9080   46.5220 C   0  0  0  0  0  0  0  0  0  0  0  0
   59.9950   32.5230   46.7450 C   0  0  0  0  0  0  0  0  0  0  0  0
   61.1680   31.7970   47.2970 C   0  0  0  0  0  0  0  0  0  0  0  0
   61.5120   30.6890   46.8020 O   0  0  0  0  0  0  0  0  0  0  0  0
   61.8950   32.3000   48.4400 N   0  0  0  0  0  0  0  0  0  0  0  0
   61.7320   31.5830   49.7140 C   0  0  0  0  0  0  0  0  0  0  0  0
   63.1010   31.2810   50.3380 C   0  0  0  0  0  0  0  0  0  0  0  0
   64.1220   31.3520   49.3630 O   0  0  0  0  0  0  0  0  0  0  0  0
   64.2940   32.6970   48.9580 C   0  0  0  0  0  0  0  0  0  0  0  0
   62.9880   33.3030   48.3370 C   0  0  0  0  0  0  0  0  0  0  0  0
   63.2650   33.7190   46.8710 C   0  0  0  0  0  0  0  0  0  0  0  0
   62.5940   34.5690   49.1300 C   0  0  0  0  0  0  0  0  0  0  0  0
   58.4677   30.7643   44.0576 H   0  0  0  0  0  0  0  0  0  0  0  0
   58.2247   28.9043   43.7240 H   0  0  0  0  0  0  0  0  0  0  0  0
   58.6022   26.9254   44.7701 H   0  0  0  0  0  0  0  0  0  0  0  0
   58.4551   27.7336   48.5470 H   0  0  0  0  0  0  0  0  0  0  0  0
   58.6415   29.8553   50.0234 H   0  0  0  0  0  0  0  0  0  0  0  0
   60.0055   30.7403   49.2600 H   0  0  0  0  0  0  0  0  0  0  0  0
   58.3582   31.4564   49.2600 H   0  0  0  0  0  0  0  0  0  0  0  0
   56.7667   32.0640   45.6454 H   0  0  0  0  0  0  0  0  0  0  0  0
   56.9904   34.5040   45.1934 H   0  0  0  0  0  0  0  0  0  0  0  0
   59.1007   35.6933   45.7873 H   0  0  0  0  0  0  0  0  0  0  0  0
   61.0065   34.4437   46.7867 H   0  0  0  0  0  0  0  0  0  0  0  0
   61.1471   32.2050   50.4075 H   0  0  0  0  0  0  0  0  0  0  0  0
   61.2095   30.6337   49.5244 H   0  0  0  0  0  0  0  0  0  0  0  0
   63.3066   32.0160   51.1301 H   0  0  0  0  0  0  0  0  0  0  0  0
   63.0820   30.2638   50.7562 H   0  0  0  0  0  0  0  0  0  0  0  0
   64.5801   33.2966   49.8347 H   0  0  0  0  0  0  0  0  0  0  0  0
   65.0757   32.7182   48.1844 H   0  0  0  0  0  0  0  0  0  0  0  0
   63.8746   34.6345   46.8586 H   0  0  0  0  0  0  0  0  0  0  0  0
   63.8061   32.9112   46.3566 H   0  0  0  0  0  0  0  0  0  0  0  0
   62.3110   33.9067   46.3566 H   0  0  0  0  0  0  0  0  0  0  0  0
   62.6587   34.3612   50.2083 H   0  0  0  0  0  0  0  0  0  0  0  0
   63.2790   35.3905   48.8732 H   0  0  0  0  0  0  0  0  0  0  0  0
   61.5638   34.8567   48.8732 H   0  0  0  0  0  0  0  0  0  0  0  0
  1  2  2  0
  2  3  1  0
  3  4  2  3
  4  5  1  0
  5  6  1  0
  6  7  1  0
  7  8  2  0
  7  9  1  0
  9 10  1  0
 10 11  1  0
  3 12  1  0
 12 13  2  0
 13 14  1  0
 13 15  1  0
 15 16  1  0
 16 17  2  0
 17 18  1  0
 18 19  2  0
 19 20  1  0
 20 21  2  0
 21 22  1  0
 22 23  2  0
 22 24  1  0
 24 25  1  0
 25 26  1  0
 26 27  1  0
 27 28  1  0
 28 29  1  0
 29 30  1  0
 29 31  1  0
 15  2  1  0
 21 16  1  0
 29 24  1  0
 10  5  2  0
  1 32  1  0
  1 33  1  0
  4 34  1  0
 12 35  1  0
 14 36  1  0
 14 37  1  0
 14 38  1  0
 17 39  1  0
 18 40  1  0
 19 41  1  0
 20 42  1  0
 25 43  1  0
 25 44  1  0
 26 45  1  0
 26 46  1  0
 28 47  1  0
 28 48  1  0
 30 49  1  0
 30 50  1  0
 30 51  1  0
 31 52  1  0
 31 53  1  0
 31 54  1  0
M  CHG  3   6  -1   9  -1  11  -1
M  END
>  <UniqueID>  (48) 
43

>  <SMILES>  (48) 
C=c1c(=Cc2[n-]c(=O)[n-]c2[O-])cc(C)n1-c1ccccc1C(=O)N1CCOCC1(C)C

>  <Energy>  (48) 
144.15650811953546

>  <Genealogy>  (48) 
C=c1c(=Cc2[n-]c(=O)[n-]c2[O-])cc(C)n1-c1ccccc1C(=O)N1CCOCC1(C)C (protonated)
C=c1c(=Cc2[n-]c(=O)[n-]c2[O-])cc(C)n1-c1ccccc1C(=O)N1CCOCC1(C)C (3D coordinates assigned)
C=c1c(=Cc2[n-]c(=O)[n-]c2[O-])cc(C)n1-c1ccccc1C(=O)N1CCOCC1(C)C (nonaromatic ring conformer: 144.15650811953546 kcal/mol)

>  <smiles>  (48) 
C=c1c(=Cc2[nH]c(=O)[nH]c2O)cc(C)n1-c1ccccc1C(=O)N1CCOCC1(C)C

>  <score_type>  (48) 
oracle

>  <origin>  (48) 
adg

>  <m_score__min__energy>  (48) 
-16.440000000000001

>  <m_primary>  (48) 
energy

$$$$
49:0
     RDKit          3D

 62 66  0  0  0  0  0  0  0  0999 V2000
   59.2864   28.6445   47.4536 H   0  0  0  0  0  0  0  0  0  0  0  0
   58.8300   27.9870   46.6990 C   0  0  0  0  0  0  0  0  0  0  0  0
   58.7984   26.8998   46.8635 H   0  0  0  0  0  0  0  0  0  0  0  0
   58.3110   28.5120   45.5760 C   0  0  0  0  0  0  0  0  0  0  0  0
   57.7000   27.8080   44.5290 C   0  0  0  0  0  0  0  0  0  0  0  0
   57.5100   26.4720   44.4580 C   0  0  0  0  0  0  0  0  0  0  0  0
   57.7195   25.9865   43.4934 H   0  0  0  0  0  0  0  0  0  0  0  0
   57.0450   25.6040   45.5630 C   0  0  0  0  0  0  0  0  0  0  0  0
   57.6940   24.5330   46.0550 N   0  0  0  0  0  0  0  0  0  0  0  0
   56.8590   24.0650   47.0070 C   0  0  0  0  0  0  0  0  0  0  0  0
   57.1250   23.0540   47.7060 O   0  0  0  0  0  0  0  0  0  0  0  0
   55.7130   24.7660   47.1470 N   0  0  0  0  0  0  0  0  0  0  0  0
   55.8470   25.7320   46.2250 C   0  0  0  0  0  0  0  0  0  0  0  0
   54.8890   26.7110   45.9910 O   0  0  0  0  0  0  0  0  0  0  0  0
   57.3560   28.7600   43.5760 C   0  0  0  0  0  0  0  0  0  0  0  0
   56.8630   28.5730   42.6106 H   0  0  0  0  0  0  0  0  0  0  0  0
   57.7520   29.9850   44.0740 C   0  0  0  0  0  0  0  0  0  0  0  0
   57.5720   31.2930   43.3670 C   0  0  0  0  0  0  0  0  0  0  0  0
   57.4612   32.0982   44.1082 H   0  0  0  0  0  0  0  0  0  0  0  0
   58.4511   31.4932   42.7368 H   0  0  0  0  0  0  0  0  0  0  0  0
   56.6715   31.2483   42.7368 H   0  0  0  0  0  0  0  0  0  0  0  0
   58.3340   29.8370   45.2840 N   0  0  0  0  0  0  0  0  0  0  0  0
   58.8610   30.9000   46.0980 C   0  0  0  0  0  0  0  0  0  0  0  0
   60.0650   30.7240   46.7940 C   0  0  0  0  0  0  0  0  0  0  0  0
   60.6077   29.7702   46.7180 H   0  0  0  0  0  0  0  0  0  0  0  0
   60.5780   31.7560   47.5840 C   0  0  0  0  0  0  0  0  0  0  0  0
   61.5208   31.6096   48.1315 H   0  0  0  0  0  0  0  0  0  0  0  0
   59.8960   32.9780   47.6820 C   0  0  0  0  0  0  0  0  0  0  0  0
   60.4330   34.0790   48.5570 C   0  0  0  0  0  0  0  0  0  0  0  0
   60.2598   35.0492   48.0684 H   0  0  0  0  0  0  0  0  0  0  0  0
   59.9167   34.0513   49.5279 H   0  0  0  0  0  0  0  0  0  0  0  0
   61.9100   33.8900   48.7790 C   0  0  0  0  0  0  0  0  0  0  0  0
   62.7740   33.7180   47.6900 C   0  0  0  0  0  0  0  0  0  0  0  0
   62.3757   33.7469   46.6650 H   0  0  0  0  0  0  0  0  0  0  0  0
   64.1390   33.5100   47.9000 C   0  0  0  0  0  0  0  0  0  0  0  0
   64.8141   33.3846   47.0407 H   0  0  0  0  0  0  0  0  0  0  0  0
   64.6480   33.4610   49.2000 C   0  0  0  0  0  0  0  0  0  0  0  0
   65.7257   33.3067   49.3576 H   0  0  0  0  0  0  0  0  0  0  0  0
   63.7960   33.6070   50.3090 C   0  0  0  0  0  0  0  0  0  0  0  0
   64.3750   33.5720   51.7170 C   0  0  0  0  0  0  0  0  0  0  0  0
   63.7044   32.9497   52.3278 H   0  0  0  0  0  0  0  0  0  0  0  0
   65.7610   32.8900   51.7380 C   0  0  0  0  0  0  0  0  0  0  0  0
   65.9288   32.4722   52.7416 H   0  0  0  0  0  0  0  0  0  0  0  0
   65.7520   32.1124   50.9600 H   0  0  0  0  0  0  0  0  0  0  0  0
   66.9220   33.8510   51.4080 C   0  0  0  0  0  0  0  0  0  0  0  0
   67.8584   33.3904   51.7557 H   0  0  0  0  0  0  0  0  0  0  0  0
   66.8976   34.0083   50.3196 H   0  0  0  0  0  0  0  0  0  0  0  0
   66.8070   35.1920   52.0300 N   0  0  0  0  0  0  0  0  0  0  0  0
   66.6500   35.9090   51.2840 H   0  0  0  0  0  0  0  0  0  0  0  0
   67.7110   35.4300   52.4980 H   0  0  0  0  0  0  0  0  0  0  0  0
   65.7310   35.3070   53.0260 C   0  0  0  0  0  0  0  0  0  0  0  0
   65.9314   34.6130   53.8556 H   0  0  0  0  0  0  0  0  0  0  0  0
   65.6994   36.3432   53.3938 H   0  0  0  0  0  0  0  0  0  0  0  0
   64.3740   34.9650   52.4010 C   0  0  0  0  0  0  0  0  0  0  0  0
   63.6090   34.9704   53.1914 H   0  0  0  0  0  0  0  0  0  0  0  0
   64.1594   35.7188   51.6291 H   0  0  0  0  0  0  0  0  0  0  0  0
   62.4230   33.8270   50.0850 C   0  0  0  0  0  0  0  0  0  0  0  0
   61.7450   33.9508   50.9423 H   0  0  0  0  0  0  0  0  0  0  0  0
   58.6810   33.1460   46.9990 C   0  0  0  0  0  0  0  0  0  0  0  0
   58.1298   34.0939   47.0868 H   0  0  0  0  0  0  0  0  0  0  0  0
   58.1690   32.1140   46.2080 C   0  0  0  0  0  0  0  0  0  0  0  0
   57.2199   32.2548   45.6700 H   0  0  0  0  0  0  0  0  0  0  0  0
  1  2  1  0
  2  3  1  0
  2  4  2  0
  4  5  1  0
  5  6  2  0
  6  7  1  0
  6  8  1  0
  8  9  1  0
  9 10  1  0
 10 11  2  0
 10 12  1  0
 12 13  1  0
 13 14  1  0
  5 15  1  0
 15 16  1  0
 15 17  2  0
 17 18  1  0
 18 19  1  0
 18 20  1  0
 18 21  1  0
 17 22  1  0
 22 23  1  0
 23 24  2  0
 24 25  1  0
 24 26  1  0
 26 27  1  0
 26 28  2  0
 28 29  1  0
 29 30  1  0
 29 31  1  0
 29 32  1  0
 32 33  2  0
 33 34  1  0
 33 35  1  0
 35 36  1  0
 35 37  2  0
 37 38  1  0
 37 39  1  0
 39 40  1  0
 40 41  1  0
 40 42  1  0
 42 43  1  0
 42 44  1  0
 42 45  1  0
 45 46  1  0
 45 47  1  0
 45 48  1  0
 48 49  1  0
 48 50  1  0
 48 51  1  0
 51 52  1  0
 51 53  1  0
 51 54  1  0
 54 55  1  0
 54 56  1  0
 39 57  2  0
 57 58  1  0
 28 59  1  0
 59 60  1  0
 59 61  2  0
 61 62  1  0
 22  4  1  0
 61 23  1  0
 13  8  2  0
 57 32  1  0
 54 40  1  0
M  CHG  4   9  -1  12  -1  14  -1  48   1
M  END
>  <UniqueID>  (49) 
44

>  <SMILES>  (49) 
C=c1/c(=C/c2[n-]c(=O)[n-]c2[O-])cc(C)n1-c1ccc(Cc2cccc(C3CC[NH2+]CC3)c2)cc1

>  <Energy>  (49) 
141.71824813149865

>  <Genealogy>  (49) 
C=c1c(=Cc2[n-]c(=O)[n-]c2[O-])cc(C)n1-c1ccc(Cc2cccc(C3CC[NH2+]CC3)c2)cc1 (protonated)
C=c1/c(=C/c2[n-]c(=O)[n-]c2[O-])cc(C)n1-c1ccc(Cc2cccc(C3CC[NH2+]CC3)c2)cc1 (cis-trans isomerization)
C=c1/c(=C/c2[n-]c(=O)[n-]c2[O-])cc(C)n1-c1ccc(Cc2cccc(C3CC[NH2+]CC3)c2)cc1 (3D coordinates assigned)
C=c1/c(=C/c2[n-]c(=O)[n-]c2[O-])cc(C)n1-c1ccc(Cc2cccc(C3CC[NH2+]CC3)c2)cc1 (nonaromatic ring conformer: 141.71824813149865 kcal/mol)

>  <smiles>  (49) 
C=c1c(=Cc2[nH]c(=O)[nH]c2O)cc(C)n1-c1ccc(Cc2cccc(C3CCNCC3)c2)cc1

>  <score_type>  (49) 
oracle

>  <origin>  (49) 
adg

>  <m_score__min__energy>  (49) 
-16.050000000000001

>  <m_primary>  (49) 
energy

$$$$
50:0
     RDKit          3D

 54 56  0  0  0  0  0  0  0  0999 V2000
   62.3980   32.3620   49.3690 O   0  0  0  0  0  0  0  0  0  0  0  0
   62.4550   31.4760   48.4740 C   0  0  0  0  0  0  0  0  0  0  0  0
   63.3990   31.6430   47.3220 C   0  0  0  0  0  0  0  0  0  0  0  0
   63.6940   33.1210   47.0120 C   0  0  0  0  0  0  0  0  0  0  0  0
   62.5200   33.8610   46.3530 C   0  0  0  0  0  0  0  0  0  0  0  0
   61.3820   33.9660   47.2710 N   0  0  0  0  0  0  0  0  0  0  0  0
   60.0420   33.5530   46.9420 C   0  0  0  0  0  0  0  0  0  0  0  0
   59.0890   33.4390   47.9690 C   0  0  0  0  0  0  0  0  0  0  0  0
   57.7750   33.0640   47.6810 C   0  0  0  0  0  0  0  0  0  0  0  0
   57.3920   32.8090   46.3620 C   0  0  0  0  0  0  0  0  0  0  0  0
   58.3230   32.9370   45.3240 C   0  0  0  0  0  0  0  0  0  0  0  0
   57.9470   32.7080   44.0010 O   0  0  0  0  0  0  0  0  0  0  0  0
   59.6410   33.3070   45.6120 C   0  0  0  0  0  0  0  0  0  0  0  0
   61.5860   30.3370   48.5040 N   0  0  0  0  0  0  0  0  0  0  0  0
   60.4620   30.0720   47.6530 C   0  0  0  0  0  0  0  0  0  0  0  0
   60.6540   30.1080   46.2670 C   0  0  0  0  0  0  0  0  0  0  0  0
   59.5990   29.8250   45.3950 C   0  0  0  0  0  0  0  0  0  0  0  0
   58.3400   29.4800   45.9050 C   0  0  0  0  0  0  0  0  0  0  0  0
   57.0260   29.0220   44.8250 S   0  0  0  0  0  0  0  0  0  0  0  0
   56.2100   30.2450   44.5180 O   0  0  0  0  0  0  0  0  0  0  0  0
   57.5700   28.4720   43.5350 O   0  0  0  0  0  0  0  0  0  0  0  0
   56.0030   27.8340   45.5820 N   0  0  0  0  0  0  0  0  0  0  0  0
   56.7830   26.7110   46.1100 C   0  0  0  0  0  0  0  0  0  0  0  0
   56.4610   25.4370   45.3730 C   0  0  0  0  0  0  0  0  0  0  0  0
   57.3390   24.9480   44.3900 C   0  0  0  0  0  0  0  0  0  0  0  0
   57.0190   23.7930   43.6730 C   0  0  0  0  0  0  0  0  0  0  0  0
   55.8290   23.1100   43.9360 C   0  0  0  0  0  0  0  0  0  0  0  0
   54.9610   23.5760   44.9280 C   0  0  0  0  0  0  0  0  0  0  0  0
   55.2780   24.7310   45.6490 C   0  0  0  0  0  0  0  0  0  0  0  0
   58.1430   29.4380   47.2910 C   0  0  0  0  0  0  0  0  0  0  0  0
   59.1980   29.7210   48.1620 C   0  0  0  0  0  0  0  0  0  0  0  0
   64.3454   31.1378   47.5652 H   0  0  0  0  0  0  0  0  0  0  0  0
   62.9229   31.2034   46.4331 H   0  0  0  0  0  0  0  0  0  0  0  0
   63.9403   33.6310   47.9550 H   0  0  0  0  0  0  0  0  0  0  0  0
   64.5277   33.1384   46.2947 H   0  0  0  0  0  0  0  0  0  0  0  0
   62.8467   34.8720   46.0683 H   0  0  0  0  0  0  0  0  0  0  0  0
   62.2026   33.2937   45.4656 H   0  0  0  0  0  0  0  0  0  0  0  0
   61.6120   34.0930   48.2840 H   0  0  0  0  0  0  0  0  0  0  0  0
   59.3809   33.6471   49.0090 H   0  0  0  0  0  0  0  0  0  0  0  0
   57.0403   32.9692   48.4942 H   0  0  0  0  0  0  0  0  0  0  0  0
   56.3580   32.5074   46.1386 H   0  0  0  0  0  0  0  0  0  0  0  0
   57.3740   31.9130   43.7420 H   0  0  0  0  0  0  0  0  0  0  0  0
   60.3706   33.4069   44.7948 H   0  0  0  0  0  0  0  0  0  0  0  0
   61.6442   30.3613   45.8604 H   0  0  0  0  0  0  0  0  0  0  0  0
   59.7570   29.8731   44.3075 H   0  0  0  0  0  0  0  0  0  0  0  0
   57.8545   26.9318   45.9957 H   0  0  0  0  0  0  0  0  0  0  0  0
   56.5288   26.5759   47.1717 H   0  0  0  0  0  0  0  0  0  0  0  0
   58.2814   25.4770   44.1848 H   0  0  0  0  0  0  0  0  0  0  0  0
   57.7059   23.4200   42.8990 H   0  0  0  0  0  0  0  0  0  0  0  0
   55.5751   22.2061   43.3629 H   0  0  0  0  0  0  0  0  0  0  0  0
   54.0281   23.0335   45.1413 H   0  0  0  0  0  0  0  0  0  0  0  0
   54.5980   25.0888   46.4361 H   0  0  0  0  0  0  0  0  0  0  0  0
   57.1530   29.1810   47.6957 H   0  0  0  0  0  0  0  0  0  0  0  0
   59.0400   29.6693   49.2494 H   0  0  0  0  0  0  0  0  0  0  0  0
  1  2  2  0
  2  3  1  0
  3  4  1  0
  4  5  1  0
  5  6  1  0
  6  7  1  0
  7  8  2  0
  8  9  1  0
  9 10  2  0
 10 11  1  0
 11 12  1  0
 11 13  2  0
  2 14  1  0
 14 15  1  0
 15 16  2  0
 16 17  1  0
 17 18  2  0
 18 19  1  0
 19 20  2  0
 19 21  2  0
 19 22  1  0
 22 23  1  0
 23 24  1  0
 24 25  2  0
 25 26  1  0
 26 27  2  0
 27 28  1  0
 28 29  2  0
 18 30  1  0
 30 31  2  0
 13  7  1  0
 31 15  1  0
 29 24  1  0
  3 32  1  0
  3 33  1  0
  4 34  1  0
  4 35  1  0
  5 36  1  0
  5 37  1  0
  6 38  1  0
  8 39  1  0
  9 40  1  0
 10 41  1  0
 12 42  1  0
 13 43  1  0
 16 44  1  0
 17 45  1  0
 23 46  1  0
 23 47  1  0
 25 48  1  0
 26 49  1  0
 27 50  1  0
 28 51  1  0
 29 52  1  0
 30 53  1  0
 31 54  1  0
M  CHG  2  14  -1  22  -1
M  END
>  <UniqueID>  (50) 
45

>  <SMILES>  (50) 
O=C(CCCNc1cccc(O)c1)[N-]c1ccc(S(=O)(=O)[N-]Cc2ccccc2)cc1

>  <Energy>  (50) 
50.82463313229429

>  <Genealogy>  (50) 
O=C(CCCNc1cccc(O)c1)[N-]c1ccc(S(=O)(=O)[N-]Cc2ccccc2)cc1 (protonated)
O=C(CCCNc1cccc(O)c1)[N-]c1ccc(S(=O)(=O)[N-]Cc2ccccc2)cc1 (3D coordinates assigned)
O=C(CCCNc1cccc(O)c1)[N-]c1ccc(S(=O)(=O)[N-]Cc2ccccc2)cc1 (optimized conformer: 50.82463313229429 kcal/mol)

>  <smiles>  (50) 
O=C(CCCNc1cccc(O)c1)Nc1ccc(S(=O)(=O)NCc2ccccc2)cc1

>  <score_type>  (50) 
oracle

>  <origin>  (50) 
adg

>  <m_score__min__energy>  (50) 
-10.949999999999999

>  <m_primary>  (50) 
energy

$$$$
51:0
     RDKit          3D

 43 45  0  0  0  0  0  0  0  0999 V2000
   61.2993   34.2897   46.1581 H   0  0  0  0  0  0  0  0  0  0  0  0
   61.2500   34.1850   47.2520 C   0  0  0  0  0  0  0  0  0  0  0  0
   62.3930   33.8140   47.9660 C   0  0  0  0  0  0  0  0  0  0  0  0
   63.3399   33.6480   47.4314 H   0  0  0  0  0  0  0  0  0  0  0  0
   62.3430   33.6520   49.3550 C   0  0  0  0  0  0  0  0  0  0  0  0
   63.5180   33.2830   50.0270 O   0  0  0  0  0  0  0  0  0  0  0  0
   64.6250   32.6340   49.4100 C   0  0  0  0  0  0  0  0  0  0  0  0
   65.2978   32.2396   50.1858 H   0  0  0  0  0  0  0  0  0  0  0  0
   64.2620   31.8057   48.7838 H   0  0  0  0  0  0  0  0  0  0  0  0
   65.1705   33.3553   48.7838 H   0  0  0  0  0  0  0  0  0  0  0  0
   61.1220   33.8570   50.0250 C   0  0  0  0  0  0  0  0  0  0  0  0
   61.0665   33.7233   51.1154 H   0  0  0  0  0  0  0  0  0  0  0  0
   59.9790   34.2300   49.3100 C   0  0  0  0  0  0  0  0  0  0  0  0
   59.0248   34.3722   49.8385 H   0  0  0  0  0  0  0  0  0  0  0  0
   60.0440   34.4240   47.9190 C   0  0  0  0  0  0  0  0  0  0  0  0
   58.8820   34.7680   47.1510 N   0  0  0  0  0  0  0  0  0  0  0  0
   58.3170   34.0380   46.2340 C   0  0  0  0  0  0  0  0  0  0  0  0
   59.0740   33.3710   44.8750 S   0  0  0  0  0  0  0  0  0  0  0  0
   57.6400   32.6020   44.4340 C   0  0  0  0  0  0  0  0  0  0  0  0
   57.4580   31.5340   43.0110 S   0  0  0  0  0  0  0  0  0  0  0  0
   57.5950   30.0540   44.0130 C   0  0  0  0  0  0  0  0  0  0  0  0
   58.8520   29.4900   44.2630 C   0  0  0  0  0  0  0  0  0  0  0  0
   59.7590   29.9725   43.8698 H   0  0  0  0  0  0  0  0  0  0  0  0
   58.9550   28.3140   45.0120 C   0  0  0  0  0  0  0  0  0  0  0  0
   59.9435   27.8726   45.2070 H   0  0  0  0  0  0  0  0  0  0  0  0
   57.8020   27.6960   45.5150 C   0  0  0  0  0  0  0  0  0  0  0  0
   57.9080   26.1840   46.4090 S   0  0  0  0  0  0  0  0  0  0  0  0
   58.6800   25.1550   45.6310 O   0  0  0  0  0  0  0  0  0  0  0  0
   58.6170   26.4400   47.7090 O   0  0  0  0  0  0  0  0  0  0  0  0
   56.3180   25.5770   46.7380 N   0  0  0  0  0  0  0  0  0  0  0  0
   55.3450   25.2620   45.7350 C   0  0  0  0  0  0  0  0  0  0  0  0
   54.3030   25.9630   45.6590 O   0  0  0  0  0  0  0  0  0  0  0  0
   55.5480   24.1450   44.7570 C   0  0  0  0  0  0  0  0  0  0  0  0
   55.7187   23.2057   45.3034 H   0  0  0  0  0  0  0  0  0  0  0  0
   54.6535   24.0441   44.1248 H   0  0  0  0  0  0  0  0  0  0  0  0
   56.4208   24.3653   44.1248 H   0  0  0  0  0  0  0  0  0  0  0  0
   56.5470   28.2720   45.2760 C   0  0  0  0  0  0  0  0  0  0  0  0
   55.6404   27.7971   45.6792 H   0  0  0  0  0  0  0  0  0  0  0  0
   56.4430   29.4480   44.5270 C   0  0  0  0  0  0  0  0  0  0  0  0
   55.4559   29.8968   44.3418 H   0  0  0  0  0  0  0  0  0  0  0  0
   56.6460   32.8510   45.3140 N   0  0  0  0  0  0  0  0  0  0  0  0
   57.0270   33.6460   46.3120 N   0  0  0  0  0  0  0  0  0  0  0  0
   56.3790   33.9230   47.0820 H   0  0  0  0  0  0  0  0  0  0  0  0
  1  2  1  0
  2  3  2  0
  3  4  1  0
  3  5  1  0
  5  6  1  0
  6  7  1  0
  7  8  1  0
  7  9  1  0
  7 10  1  0
  5 11  2  0
 11 12  1  0
 11 13  1  0
 13 14  1  0
 13 15  2  0
 15 16  1  0
 16 17  2  0
 17 18  1  0
 18 19  1  0
 19 20  1  0
 20 21  1  0
 21 22  2  0
 22 23  1  0
 22 24  1  0
 24 25  1  0
 24 26  2  0
 26 27  1  0
 27 28  2  0
 27 29  2  0
 27 30  1  0
 30 31  1  0
 31 32  2  0
 31 33  1  0
 33 34  1  0
 33 35  1  0
 33 36  1  0
 26 37  1  0
 37 38  1  0
 37 39  2  0
 39 40  1  0
 19 41  2  0
 41 42  1  0
 42 43  1  0
 15  2  1  0
 42 17  1  0
 39 21  1  0
M  CHG  1  30  -1
M  END
>  <UniqueID>  (51) 
46

>  <SMILES>  (51) 
COc1ccc(/N=c2/[nH]nc(Sc3ccc(S(=O)(=O)[N-]C(C)=O)cc3)s2)cc1

>  <Energy>  (51) 
81.78374878602261

>  <Genealogy>  (51) 
COc1ccc(N=c2[nH]nc(Sc3ccc(S(=O)(=O)[N-]C(C)=O)cc3)s2)cc1 (protonated)
COc1ccc(/N=c2/[nH]nc(Sc3ccc(S(=O)(=O)[N-]C(C)=O)cc3)s2)cc1 (cis-trans isomerization)
COc1ccc(/N=c2/[nH]nc(Sc3ccc(S(=O)(=O)[N-]C(C)=O)cc3)s2)cc1 (3D coordinates assigned)
COc1ccc(/N=c2/[nH]nc(Sc3ccc(S(=O)(=O)[N-]C(C)=O)cc3)s2)cc1 (optimized conformer: 81.78374878602261 kcal/mol)

>  <smiles>  (51) 
COc1ccc(N=c2[nH]nc(Sc3ccc(S(=O)(=O)NC(C)=O)cc3)s2)cc1

>  <score_type>  (51) 
oracle

>  <origin>  (51) 
adg

>  <m_score__min__energy>  (51) 
-11.06

>  <m_primary>  (51) 
energy

$$$$
52:0
     RDKit          3D

 41 43  0  0  0  0  0  0  0  0999 V2000
   55.6260   29.7400   43.8810 C   0  0  0  0  0  0  0  0  0  0  0  0
   56.7280   29.8210   44.6420 C   0  0  0  0  0  0  0  0  0  0  0  0
   56.9850   31.0240   45.2100 N   0  0  0  0  0  0  0  0  0  0  0  0
   58.1460   31.2990   45.8430 C   0  0  0  0  0  0  0  0  0  0  0  0
   58.2970   32.4340   46.3710 O   0  0  0  0  0  0  0  0  0  0  0  0
   59.1460   30.3670   45.8880 N   0  0  0  0  0  0  0  0  0  0  0  0
   60.4010   30.6740   46.6080 C   0  0  0  0  0  0  0  0  0  0  0  0
   60.4790   29.9130   47.9410 C   0  0  0  0  0  0  0  0  0  0  0  0
   59.6990   30.6080   49.0270 C   0  0  0  0  0  0  0  0  0  0  0  0
   58.9020   29.8660   49.9130 C   0  0  0  0  0  0  0  0  0  0  0  0
   58.1240   30.5170   50.8750 C   0  0  0  0  0  0  0  0  0  0  0  0
   58.1300   31.9120   50.9540 C   0  0  0  0  0  0  0  0  0  0  0  0
   58.9160   32.6590   50.0730 C   0  0  0  0  0  0  0  0  0  0  0  0
   59.6990   32.0120   49.1130 C   0  0  0  0  0  0  0  0  0  0  0  0
   58.9410   29.1220   45.3440 C   0  0  0  0  0  0  0  0  0  0  0  0
   59.8670   28.2630   45.3920 O   0  0  0  0  0  0  0  0  0  0  0  0
   57.6850   28.7720   44.7810 C   0  0  0  0  0  0  0  0  0  0  0  0
   57.4590   27.4690   44.4520 C   0  0  0  0  0  0  0  0  0  0  0  0
   57.4680   26.3220   45.3870 C   0  0  0  0  0  0  0  0  0  0  0  0
   58.6080   25.5070   45.5070 C   0  0  0  0  0  0  0  0  0  0  0  0
   58.5960   24.3960   46.3570 C   0  0  0  0  0  0  0  0  0  0  0  0
   57.4410   24.0760   47.0750 C   0  0  0  0  0  0  0  0  0  0  0  0
   57.4310   22.9720   47.9170 O   0  0  0  0  0  0  0  0  0  0  0  0
   56.2930   24.8640   46.9400 C   0  0  0  0  0  0  0  0  0  0  0  0
   56.3000   25.9780   46.0930 C   0  0  0  0  0  0  0  0  0  0  0  0
   55.1460   26.7450   45.9650 O   0  0  0  0  0  0  0  0  0  0  0  0
   55.3634   28.7899   43.3927 H   0  0  0  0  0  0  0  0  0  0  0  0
   54.9851   30.6236   43.7454 H   0  0  0  0  0  0  0  0  0  0  0  0
   61.2555   30.3838   45.9789 H   0  0  0  0  0  0  0  0  0  0  0  0
   60.4244   31.7528   46.8216 H   0  0  0  0  0  0  0  0  0  0  0  0
   60.0689   28.9023   47.7988 H   0  0  0  0  0  0  0  0  0  0  0  0
   61.5338   29.8710   48.2502 H   0  0  0  0  0  0  0  0  0  0  0  0
   58.8896   28.7679   49.8501 H   0  0  0  0  0  0  0  0  0  0  0  0
   57.5063   29.9302   51.5707 H   0  0  0  0  0  0  0  0  0  0  0  0
   57.5155   32.4224   51.7103 H   0  0  0  0  0  0  0  0  0  0  0  0
   58.9186   33.7572   50.1350 H   0  0  0  0  0  0  0  0  0  0  0  0
   60.3178   32.6031   48.4219 H   0  0  0  0  0  0  0  0  0  0  0  0
   57.2508   27.2497   43.3944 H   0  0  0  0  0  0  0  0  0  0  0  0
   59.5136   25.7444   44.9295 H   0  0  0  0  0  0  0  0  0  0  0  0
   59.4971   23.7736   46.4602 H   0  0  0  0  0  0  0  0  0  0  0  0
   55.3824   24.6073   47.5011 H   0  0  0  0  0  0  0  0  0  0  0  0
  1  2  2  0
  2  3  1  0
  3  4  1  0
  4  5  2  0
  4  6  1  0
  6  7  1  0
  7  8  1  0
  8  9  1  0
  9 10  2  0
 10 11  1  0
 11 12  2  0
 12 13  1  0
 13 14  2  0
  6 15  1  0
 15 16  2  0
 15 17  1  0
 17 18  2  3
 18 19  1  0
 19 20  2  0
 20 21  1  0
 21 22  2  0
 22 23  1  0
 22 24  1  0
 24 25  2  0
 25 26  1  0
 17  2  1  0
 25 19  1  0
 14  9  1  0
  1 27  1  0
  1 28  1  0
  7 29  1  0
  7 30  1  0
  8 31  1  0
  8 32  1  0
 10 33  1  0
 11 34  1  0
 12 35  1  0
 13 36  1  0
 14 37  1  0
 18 38  1  0
 20 39  1  0
 21 40  1  0
 24 41  1  0
M  CHG  3   3  -1  23  -1  26  -1
M  END
>  <UniqueID>  (52) 
47

>  <SMILES>  (52) 
C=c1[n-]c(=O)n(CCc2ccccc2)c(=O)c1=Cc1ccc([O-])cc1[O-]

>  <Energy>  (52) 
67.14512271156237

>  <Genealogy>  (52) 
C=c1[n-]c(=O)n(CCc2ccccc2)c(=O)c1=Cc1ccc([O-])cc1[O-] (protonated)
C=c1[n-]c(=O)n(CCc2ccccc2)c(=O)c1=Cc1ccc([O-])cc1[O-] (3D coordinates assigned)
C=c1[n-]c(=O)n(CCc2ccccc2)c(=O)c1=Cc1ccc([O-])cc1[O-] (optimized conformer: 67.14512271156237 kcal/mol)

>  <smiles>  (52) 
C=c1[nH]c(=O)n(CCc2ccccc2)c(=O)c1=Cc1ccc(O)cc1O

>  <score_type>  (52) 
oracle

>  <origin>  (52) 
adg

>  <m_score__min__energy>  (52) 
-15.4

>  <m_primary>  (52) 
energy

$$$$
53:0
     RDKit          3D

 61 64  0  0  0  0  0  0  0  0999 V2000
   56.7350   30.1160   53.8200 C   0  0  0  0  0  0  0  0  0  0  0  0
   56.6860   30.5850   52.1060 S   0  0  0  0  0  0  0  0  0  0  0  0
   57.5860   29.6780   51.3170 O   0  0  0  0  0  0  0  0  0  0  0  0
   55.2720   30.4630   51.6140 O   0  0  0  0  0  0  0  0  0  0  0  0
   57.2240   32.2270   51.9540 N   0  0  0  0  0  0  0  0  0  0  0  0
   58.5560   32.6390   51.6190 C   0  0  0  0  0  0  0  0  0  0  0  0
   58.8940   33.0910   50.3290 C   0  0  0  0  0  0  0  0  0  0  0  0
   60.1940   33.5500   50.0440 C   0  0  0  0  0  0  0  0  0  0  0  0
   60.5170   34.0640   48.6900 C   0  0  0  0  0  0  0  0  0  0  0  0
   61.7210   34.3060   48.3900 O   0  0  0  0  0  0  0  0  0  0  0  0
   59.4480   34.2870   47.6520 C   0  0  0  0  0  0  0  0  0  0  0  0
   59.4780   33.2200   46.6280 N   0  0  0  0  0  0  0  0  0  0  0  0
   58.2350   32.4120   46.6870 C   0  0  0  0  0  0  0  0  0  0  0  0
   58.4360   31.0140   46.0810 C   0  0  0  0  0  0  0  0  0  0  0  0
   59.4770   30.2340   46.8000 N   0  0  0  0  0  0  0  0  0  0  0  0
   58.8890   29.2810   47.7630 C   0  0  0  0  0  0  0  0  0  0  0  0
   58.5280   27.9840   47.0850 C   0  0  0  0  0  0  0  0  0  0  0  0
   59.2920   26.8310   47.3220 C   0  0  0  0  0  0  0  0  0  0  0  0
   58.9280   25.6110   46.7420 C   0  0  0  0  0  0  0  0  0  0  0  0
   57.7880   25.5240   45.9170 C   0  0  0  0  0  0  0  0  0  0  0  0
   57.3520   24.2310   45.3270 C   0  0  0  0  0  0  0  0  0  0  0  0
   56.5350   24.1820   44.1820 C   0  0  0  0  0  0  0  0  0  0  0  0
   56.1820   22.9440   43.6380 C   0  0  0  0  0  0  0  0  0  0  0  0
   55.4540   22.8950   42.6100 O   0  0  0  0  0  0  0  0  0  0  0  0
   56.6460   21.7630   44.2300 C   0  0  0  0  0  0  0  0  0  0  0  0
   56.3030   20.5230   43.6910 O   0  0  0  0  0  0  0  0  0  0  0  0
   57.4630   21.8480   45.3620 C   0  0  0  0  0  0  0  0  0  0  0  0
   57.7950   23.0630   45.8750 N   0  0  0  0  0  0  0  0  0  0  0  0
   57.0490   26.6920   45.6550 C   0  0  0  0  0  0  0  0  0  0  0  0
   57.4110   27.9080   46.2390 C   0  0  0  0  0  0  0  0  0  0  0  0
   60.4800   31.0910   47.4790 C   0  0  0  0  0  0  0  0  0  0  0  0
   60.7110   32.4000   46.7130 C   0  0  0  0  0  0  0  0  0  0  0  0
   61.1630   33.5250   51.0620 C   0  0  0  0  0  0  0  0  0  0  0  0
   60.8400   33.0490   52.3340 C   0  0  0  0  0  0  0  0  0  0  0  0
   59.5440   32.6080   52.6140 C   0  0  0  0  0  0  0  0  0  0  0  0
   59.2390   32.1470   53.8890 O   0  0  0  0  0  0  0  0  0  0  0  0
   56.6412   31.0138   54.4486 H   0  0  0  0  0  0  0  0  0  0  0  0
   55.9038   29.4287   54.0360 H   0  0  0  0  0  0  0  0  0  0  0  0
   57.6903   29.6153   54.0360 H   0  0  0  0  0  0  0  0  0  0  0  0
   58.1333   33.0854   49.5345 H   0  0  0  0  0  0  0  0  0  0  0  0
   58.4636   34.2879   48.1428 H   0  0  0  0  0  0  0  0  0  0  0  0
   59.6317   35.2532   47.1593 H   0  0  0  0  0  0  0  0  0  0  0  0
   57.9295   32.3042   47.7382 H   0  0  0  0  0  0  0  0  0  0  0  0
   57.4609   32.9308   46.1026 H   0  0  0  0  0  0  0  0  0  0  0  0
   57.4839   30.4655   46.1325 H   0  0  0  0  0  0  0  0  0  0  0  0
   58.7689   31.1420   45.0404 H   0  0  0  0  0  0  0  0  0  0  0  0
   59.6187   29.0792   48.5610 H   0  0  0  0  0  0  0  0  0  0  0  0
   57.9739   29.7248   48.1820 H   0  0  0  0  0  0  0  0  0  0  0  0
   60.1814   26.8867   47.9669 H   0  0  0  0  0  0  0  0  0  0  0  0
   59.5354   24.7135   46.9309 H   0  0  0  0  0  0  0  0  0  0  0  0
   56.1764   25.1127   43.7180 H   0  0  0  0  0  0  0  0  0  0  0  0
   56.9130   19.7200   43.7800 H   0  0  0  0  0  0  0  0  0  0  0  0
   57.8379   20.9301   45.8384 H   0  0  0  0  0  0  0  0  0  0  0  0
   56.1783   26.6472   44.9842 H   0  0  0  0  0  0  0  0  0  0  0  0
   56.8172   28.8111   46.0346 H   0  0  0  0  0  0  0  0  0  0  0  0
   60.1212   31.3278   48.4915 H   0  0  0  0  0  0  0  0  0  0  0  0
   61.4324   30.5420   47.5198 H   0  0  0  0  0  0  0  0  0  0  0  0
   61.4889   32.9812   47.2298 H   0  0  0  0  0  0  0  0  0  0  0  0
   61.0196   32.1439   45.6887 H   0  0  0  0  0  0  0  0  0  0  0  0
   62.1824   33.8828   50.8550 H   0  0  0  0  0  0  0  0  0  0  0  0
   61.6094   33.0210   53.1196 H   0  0  0  0  0  0  0  0  0  0  0  0
  1  2  1  0
  2  3  2  0
  2  4  2  0
  2  5  1  0
  5  6  1  0
  6  7  2  0
  7  8  1  0
  8  9  1  0
  9 10  2  0
  9 11  1  0
 11 12  1  0
 12 13  1  0
 13 14  1  0
 14 15  1  0
 15 16  1  0
 16 17  1  0
 17 18  2  0
 18 19  1  0
 19 20  2  0
 20 21  1  0
 21 22  2  0
 22 23  1  0
 23 24  2  0
 23 25  1  0
 25 26  1  0
 25 27  2  0
 27 28  1  0
 20 29  1  0
 29 30  2  0
 15 31  1  0
 31 32  1  0
  8 33  2  0
 33 34  1  0
 34 35  2  0
 35 36  1  0
 35  6  1  0
 32 12  1  0
 30 17  1  0
 28 21  1  0
  1 37  1  0
  1 38  1  0
  1 39  1  0
  7 40  1  0
 11 41  1  0
 11 42  1  0
 13 43  1  0
 13 44  1  0
 14 45  1  0
 14 46  1  0
 16 47  1  0
 16 48  1  0
 18 49  1  0
 19 50  1  0
 22 51  1  0
 26 52  1  0
 27 53  1  0
 29 54  1  0
 30 55  1  0
 31 56  1  0
 31 57  1  0
 32 58  1  0
 32 59  1  0
 33 60  1  0
 34 61  1  0
M  CHG  3   5  -1  28  -1  36  -1
M  END
>  <UniqueID>  (53) 
48

>  <SMILES>  (53) 
CS(=O)(=O)[N-]c1cc(C(=O)CN2CCN(Cc3ccc(-c4cc(=O)c(O)c[n-]4)cc3)CC2)ccc1[O-]

>  <Energy>  (53) 
83.99622809928593

>  <Genealogy>  (53) 
CS(=O)(=O)[N-]c1cc(C(=O)CN2CCN(Cc3ccc(-c4cc(=O)c(O)c[n-]4)cc3)CC2)ccc1[O-] (protonated)
CS(=O)(=O)[N-]c1cc(C(=O)CN2CCN(Cc3ccc(-c4cc(=O)c(O)c[n-]4)cc3)CC2)ccc1[O-] (3D coordinates assigned)
CS(=O)(=O)[N-]c1cc(C(=O)CN2CCN(Cc3ccc(-c4cc(=O)c(O)c[n-]4)cc3)CC2)ccc1[O-] (nonaromatic ring conformer: 83.99622809928593 kcal/mol)

>  <smiles>  (53) 
CS(=O)(=O)Nc1cc(C(=O)CN2CCN(Cc3ccc(-c4cc(=O)c(O)c[nH]4)cc3)CC2)ccc1O

>  <score_type>  (53) 
oracle

>  <origin>  (53) 
adg

>  <m_score__min__energy>  (53) 
-15.380000000000001

>  <m_primary>  (53) 
energy

$$$$
54:0
     RDKit          3D

 64 67  0  0  0  0  0  0  0  0999 V2000
   59.3980   34.6260   45.9630 C   0  0  0  0  0  0  0  0  0  0  0  0
   58.6040   33.9570   44.8470 C   0  0  0  0  0  0  0  0  0  0  0  0
   57.5720   33.1360   45.3900 O   0  0  0  0  0  0  0  0  0  0  0  0
   57.5270   31.7460   45.2360 C   0  0  0  0  0  0  0  0  0  0  0  0
   56.6900   31.2280   44.4500 O   0  0  0  0  0  0  0  0  0  0  0  0
   58.4720   30.8850   45.9870 C   0  0  0  0  0  0  0  0  0  0  0  0
   59.0890   29.7470   45.4440 C   0  0  0  0  0  0  0  0  0  0  0  0
   58.9050   29.2050   44.1220 N   0  0  0  0  0  0  0  0  0  0  0  0
   58.3310   27.8770   44.1580 C   0  0  0  0  0  0  0  0  0  0  0  0
   58.2430   27.1180   42.9760 C   0  0  0  0  0  0  0  0  0  0  0  0
   57.7510   25.8110   43.0070 C   0  0  0  0  0  0  0  0  0  0  0  0
   57.3570   25.2370   44.2170 C   0  0  0  0  0  0  0  0  0  0  0  0
   57.4620   25.9680   45.4020 C   0  0  0  0  0  0  0  0  0  0  0  0
   57.9580   27.2730   45.3780 C   0  0  0  0  0  0  0  0  0  0  0  0
   60.1490   29.0980   46.5710 S   0  0  0  0  0  0  0  0  0  0  0  0
   59.8350   30.2120   47.7860 C   0  0  0  0  0  0  0  0  0  0  0  0
   60.4110   30.0970   49.1320 C   0  0  0  0  0  0  0  0  0  0  0  0
   59.7620   29.5010   50.0330 O   0  0  0  0  0  0  0  0  0  0  0  0
   61.6210   30.7930   49.4460 N   0  0  0  0  0  0  0  0  0  0  0  0
   62.2220   31.8470   48.6850 C   0  0  0  0  0  0  0  0  0  0  0  0
   62.8970   31.5910   47.4770 C   0  0  0  0  0  0  0  0  0  0  0  0
   63.4920   32.6390   46.7700 C   0  0  0  0  0  0  0  0  0  0  0  0
   63.4190   33.9460   47.2600 C   0  0  0  0  0  0  0  0  0  0  0  0
   62.7360   34.2110   48.4500 C   0  0  0  0  0  0  0  0  0  0  0  0
   62.1200   33.1680   49.1580 C   0  0  0  0  0  0  0  0  0  0  0  0
   61.4260   33.4460   50.3840 N   0  0  0  0  0  0  0  0  0  0  0  0
   62.1290   33.3420   51.6630 C   0  0  0  0  0  0  0  0  0  0  0  0
   61.1350   33.3350   52.8330 C   0  0  0  0  0  0  0  0  0  0  0  0
   59.9360   32.5240   52.5330 N   0  0  0  0  0  0  0  0  0  0  0  0
   60.2470   31.0850   52.4520 C   0  0  0  0  0  0  0  0  0  0  0  0
   59.1850   32.9990   51.3410 C   0  0  0  0  0  0  0  0  0  0  0  0
   60.0180   33.8520   50.3630 C   0  0  0  0  0  0  0  0  0  0  0  0
   58.8920   31.1420   47.3200 C   0  0  0  0  0  0  0  0  0  0  0  0
   58.4210   32.3300   48.1200 C   0  0  0  0  0  0  0  0  0  0  0  0
   59.0083   34.2977   46.9379 H   0  0  0  0  0  0  0  0  0  0  0  0
   60.4580   34.3447   45.8783 H   0  0  0  0  0  0  0  0  0  0  0  0
   59.3006   35.7184   45.8783 H   0  0  0  0  0  0  0  0  0  0  0  0
   58.1525   34.7316   44.2097 H   0  0  0  0  0  0  0  0  0  0  0  0
   59.2845   33.3274   44.2549 H   0  0  0  0  0  0  0  0  0  0  0  0
   59.8330   29.1470   43.6420 H   0  0  0  0  0  0  0  0  0  0  0  0
   58.3070   29.8630   43.5700 H   0  0  0  0  0  0  0  0  0  0  0  0
   58.5642   27.5575   42.0202 H   0  0  0  0  0  0  0  0  0  0  0  0
   57.6738   25.2321   42.0748 H   0  0  0  0  0  0  0  0  0  0  0  0
   56.9642   24.2097   44.2369 H   0  0  0  0  0  0  0  0  0  0  0  0
   57.1535   25.5152   46.3558 H   0  0  0  0  0  0  0  0  0  0  0  0
   58.0589   27.8353   46.3180 H   0  0  0  0  0  0  0  0  0  0  0  0
   62.9563   30.5636   47.0885 H   0  0  0  0  0  0  0  0  0  0  0  0
   64.0188   32.4351   45.8261 H   0  0  0  0  0  0  0  0  0  0  0  0
   63.8998   34.7671   46.7081 H   0  0  0  0  0  0  0  0  0  0  0  0
   62.6811   35.2407   48.8329 H   0  0  0  0  0  0  0  0  0  0  0  0
   62.7117   32.4091   51.6793 H   0  0  0  0  0  0  0  0  0  0  0  0
   62.7944   34.2113   51.7711 H   0  0  0  0  0  0  0  0  0  0  0  0
   61.6334   32.9180   53.7205 H   0  0  0  0  0  0  0  0  0  0  0  0
   60.8102   34.3709   53.0105 H   0  0  0  0  0  0  0  0  0  0  0  0
   60.3364   30.6715   53.4674 H   0  0  0  0  0  0  0  0  0  0  0  0
   59.4404   30.5653   51.9141 H   0  0  0  0  0  0  0  0  0  0  0  0
   61.1962   30.9447   51.9141 H   0  0  0  0  0  0  0  0  0  0  0  0
   58.8101   32.1193   50.7973 H   0  0  0  0  0  0  0  0  0  0  0  0
   58.3786   33.6469   51.7151 H   0  0  0  0  0  0  0  0  0  0  0  0
   59.6212   33.7236   49.3451 H   0  0  0  0  0  0  0  0  0  0  0  0
   59.9514   34.9059   50.6711 H   0  0  0  0  0  0  0  0  0  0  0  0
   58.5093   32.1074   49.1936 H   0  0  0  0  0  0  0  0  0  0  0  0
   59.0400   33.2057   47.8750 H   0  0  0  0  0  0  0  0  0  0  0  0
   57.3701   32.5437   47.8750 H   0  0  0  0  0  0  0  0  0  0  0  0
  1  2  1  0
  2  3  1  0
  3  4  1  0
  4  5  2  0
  4  6  1  0
  6  7  2  0
  7  8  1  0
  8  9  1  0
  9 10  2  0
 10 11  1  0
 11 12  2  0
 12 13  1  0
 13 14  2  0
  7 15  1  0
 15 16  1  0
 16 17  1  0
 17 18  2  0
 17 19  1  0
 19 20  1  0
 20 21  2  0
 21 22  1  0
 22 23  2  0
 23 24  1  0
 24 25  2  0
 25 26  1  0
 26 27  1  0
 27 28  1  0
 28 29  1  0
 29 30  1  0
 29 31  1  0
 31 32  1  0
 16 33  2  0
 33 34  1  0
 33  6  1  0
 14  9  1  0
 25 20  1  0
 32 26  1  0
  1 35  1  0
  1 36  1  0
  1 37  1  0
  2 38  1  0
  2 39  1  0
  8 40  1  0
  8 41  1  0
 10 42  1  0
 11 43  1  0
 12 44  1  0
 13 45  1  0
 14 46  1  0
 21 47  1  0
 22 48  1  0
 23 49  1  0
 24 50  1  0
 27 51  1  0
 27 52  1  0
 28 53  1  0
 28 54  1  0
 30 55  1  0
 30 56  1  0
 30 57  1  0
 31 58  1  0
 31 59  1  0
 32 60  1  0
 32 61  1  0
 34 62  1  0
 34 63  1  0
 34 64  1  0
M  CHG  2   8   1  19  -1
M  END
>  <UniqueID>  (54) 
49

>  <SMILES>  (54) 
CCOC(=O)c1c([NH2+]c2ccccc2)sc(C(=O)[N-]c2ccccc2N2CCN(C)CC2)c1C

>  <Energy>  (54) 
112.42189361139376

>  <Genealogy>  (54) 
CCOC(=O)c1c([NH2+]c2ccccc2)sc(C(=O)[N-]c2ccccc2N2CCN(C)CC2)c1C (protonated)
CCOC(=O)c1c([NH2+]c2ccccc2)sc(C(=O)[N-]c2ccccc2N2CCN(C)CC2)c1C (3D coordinates assigned)
CCOC(=O)c1c([NH2+]c2ccccc2)sc(C(=O)[N-]c2ccccc2N2CCN(C)CC2)c1C (nonaromatic ring conformer: 112.42189361139376 kcal/mol)

>  <smiles>  (54) 
CCOC(=O)c1c(Nc2ccccc2)sc(C(=O)Nc2ccccc2N2CCN(C)CC2)c1C

>  <score_type>  (54) 
oracle

>  <origin>  (54) 
adg

>  <m_score__min__energy>  (54) 
-8.1799999999999997

>  <m_primary>  (54) 
energy

$$$$
55:0
     RDKit          3D

 36 38  0  0  0  0  0  0  0  0999 V2000
   57.7080   22.6020   47.7780 H   0  0  0  0  0  0  0  0  0  0  0  0
   57.3750   22.0400   48.5260 O   0  0  0  0  0  0  0  0  0  0  0  0
   55.9770   22.1170   48.4940 C   0  0  0  0  0  0  0  0  0  0  0  0
   55.6314   22.7959   49.2875 H   0  0  0  0  0  0  0  0  0  0  0  0
   55.5566   21.1129   48.6524 H   0  0  0  0  0  0  0  0  0  0  0  0
   55.5230   22.6350   47.1670 C   0  0  0  0  0  0  0  0  0  0  0  0
   54.3410   22.4180   46.7920 O   0  0  0  0  0  0  0  0  0  0  0  0
   56.4620   23.3240   46.3250 N   0  0  0  0  0  0  0  0  0  0  0  0
   56.9230   24.5420   46.4210 C   0  0  0  0  0  0  0  0  0  0  0  0
   58.0100   24.7520   47.2130 N   0  0  0  0  0  0  0  0  0  0  0  0
   58.5670   25.9790   47.3890 C   0  0  0  0  0  0  0  0  0  0  0  0
   59.4507   26.0954   48.0337 H   0  0  0  0  0  0  0  0  0  0  0  0
   58.0140   27.0960   46.7480 C   0  0  0  0  0  0  0  0  0  0  0  0
   58.5360   28.3910   46.8860 C   0  0  0  0  0  0  0  0  0  0  0  0
   59.5520   28.6100   47.5980 O   0  0  0  0  0  0  0  0  0  0  0  0
   57.9390   29.4280   46.2420 N   0  0  0  0  0  0  0  0  0  0  0  0
   56.8350   29.2400   45.4640 C   0  0  0  0  0  0  0  0  0  0  0  0
   56.2670   30.2390   44.8570 N   0  0  0  0  0  0  0  0  0  0  0  0
   56.9320   31.1230   43.9000 C   0  0  0  0  0  0  0  0  0  0  0  0
   57.6831   30.5482   43.3384 H   0  0  0  0  0  0  0  0  0  0  0  0
   56.1773   31.5351   43.2140 H   0  0  0  0  0  0  0  0  0  0  0  0
   57.6120   32.2610   44.6140 C   0  0  0  0  0  0  0  0  0  0  0  0
   58.4540   33.1340   43.9050 C   0  0  0  0  0  0  0  0  0  0  0  0
   58.6287   32.9744   42.8308 H   0  0  0  0  0  0  0  0  0  0  0  0
   59.0710   34.2050   44.5590 C   0  0  0  0  0  0  0  0  0  0  0  0
   59.7303   34.8845   43.9990 H   0  0  0  0  0  0  0  0  0  0  0  0
   58.8510   34.4130   45.9230 C   0  0  0  0  0  0  0  0  0  0  0  0
   59.3385   35.2549   46.4365 H   0  0  0  0  0  0  0  0  0  0  0  0
   58.0120   33.5520   46.6350 C   0  0  0  0  0  0  0  0  0  0  0  0
   57.8374   33.7187   47.7082 H   0  0  0  0  0  0  0  0  0  0  0  0
   57.3940   32.4790   45.9860 C   0  0  0  0  0  0  0  0  0  0  0  0
   56.7350   31.8030   46.5505 H   0  0  0  0  0  0  0  0  0  0  0  0
   56.3170   27.9920   45.3180 N   0  0  0  0  0  0  0  0  0  0  0  0
   56.8790   26.9200   45.9370 C   0  0  0  0  0  0  0  0  0  0  0  0
   56.3260   25.6460   45.7740 C   0  0  0  0  0  0  0  0  0  0  0  0
   55.4333   25.5050   45.1469 H   0  0  0  0  0  0  0  0  0  0  0  0
  1  2  1  0
  2  3  1  0
  3  4  1  0
  3  5  1  0
  3  6  1  0
  6  7  2  0
  6  8  1  0
  8  9  2  3
  9 10  1  0
 10 11  1  0
 11 12  1  0
 11 13  2  0
 13 14  1  0
 14 15  2  0
 14 16  1  0
 16 17  1  0
 17 18  2  0
 18 19  1  0
 19 20  1  0
 19 21  1  0
 19 22  1  0
 22 23  2  0
 23 24  1  0
 23 25  1  0
 25 26  1  0
 25 27  2  0
 27 28  1  0
 27 29  1  0
 29 30  1  0
 29 31  2  0
 31 32  1  0
 17 33  1  0
 33 34  1  0
 34 35  2  0
 35 36  1  0
 35  9  1  0
 34 13  1  0
 31 22  1  0
M  CHG  3  10  -1  16  -1  33  -1
M  END
>  <UniqueID>  (55) 
50

>  <SMILES>  (55) 
O=C(CO)N=c1cc2[n-]/c(=N/Cc3ccccc3)[n-]c(=O)c2c[n-]1

>  <Energy>  (55) 
49.3148517143963

>  <Genealogy>  (55) 
O=C(CO)N=c1cc2[n-]c(=NCc3ccccc3)[n-]c(=O)c2c[n-]1 (protonated)
O=C(CO)N=c1cc2[n-]/c(=N/Cc3ccccc3)[n-]c(=O)c2c[n-]1 (cis-trans isomerization)
O=C(CO)N=c1cc2[n-]/c(=N/Cc3ccccc3)[n-]c(=O)c2c[n-]1 (3D coordinates assigned)
O=C(CO)N=c1cc2[n-]/c(=N/Cc3ccccc3)[n-]c(=O)c2c[n-]1 (optimized conformer: 49.3148517143963 kcal/mol)

>  <smiles>  (55) 
O=C(CO)N=c1cc2[nH]c(=NCc3ccccc3)[nH]c(=O)c2c[nH]1

>  <score_type>  (55) 
oracle

>  <origin>  (55) 
adg

>  <m_score__min__energy>  (55) 
-11.75

>  <m_primary>  (55) 
energy

$$$$
56:0
     RDKit          3D

 57 61  0  0  0  0  0  0  0  0999 V2000
   57.8100   30.3770   50.1900 O   0  0  0  0  0  0  0  0  0  0  0  0
   59.0130   29.9990   50.2090 C   0  0  0  0  0  0  0  0  0  0  0  0
   59.4370   28.9650   49.2430 C   0  0  0  0  0  0  0  0  0  0  0  0
   60.4650   28.0630   49.5630 C   0  0  0  0  0  0  0  0  0  0  0  0
   60.8370   27.0700   48.6520 C   0  0  0  0  0  0  0  0  0  0  0  0
   60.1890   26.9710   47.4190 C   0  0  0  0  0  0  0  0  0  0  0  0
   59.1650   27.8690   47.0830 C   0  0  0  0  0  0  0  0  0  0  0  0
   58.4470   27.7490   45.7660 C   0  0  0  0  0  0  0  0  0  0  0  0
   57.2130   26.9150   45.9220 C   0  0  0  0  0  0  0  0  0  0  0  0
   57.2060   25.6650   46.4160 N   0  0  0  0  0  0  0  0  0  0  0  0
   55.8940   25.3400   46.4150 C   0  0  0  0  0  0  0  0  0  0  0  0
   55.4730   24.2180   46.8030 O   0  0  0  0  0  0  0  0  0  0  0  0
   55.0680   26.3100   45.9660 N   0  0  0  0  0  0  0  0  0  0  0  0
   55.9210   27.3030   45.6650 C   0  0  0  0  0  0  0  0  0  0  0  0
   55.5230   28.5380   45.1670 O   0  0  0  0  0  0  0  0  0  0  0  0
   58.7810   28.8530   48.0080 C   0  0  0  0  0  0  0  0  0  0  0  0
   59.9360   30.5970   51.1490 N   0  0  0  0  0  0  0  0  0  0  0  0
   61.3800   30.6530   50.8690 C   0  0  0  0  0  0  0  0  0  0  0  0
   61.9870   32.0290   51.2370 C   0  0  0  0  0  0  0  0  0  0  0  0
   60.9740   33.0080   51.6960 N   0  0  0  0  0  0  0  0  0  0  0  0
   60.1180   33.4990   50.6190 C   0  0  0  0  0  0  0  0  0  0  0  0
   58.9040   33.5550   50.7610 O   0  0  0  0  0  0  0  0  0  0  0  0
   60.6980   33.9120   49.2880 C   0  0  0  0  0  0  0  0  0  0  0  0
   60.4040   32.8810   48.2380 C   0  0  0  0  0  0  0  0  0  0  0  0
   61.2050   31.7920   47.9030 C   0  0  0  0  0  0  0  0  0  0  0  0
   60.6820   31.1240   46.8520 N   0  0  0  0  0  0  0  0  0  0  0  0
   59.5570   31.7790   46.5160 C   0  0  0  0  0  0  0  0  0  0  0  0
   58.6890   31.4810   45.4660 C   0  0  0  0  0  0  0  0  0  0  0  0
   57.5780   32.3210   45.2730 C   0  0  0  0  0  0  0  0  0  0  0  0
   57.3560   33.4220   46.1300 C   0  0  0  0  0  0  0  0  0  0  0  0
   58.2460   33.6950   47.1840 C   0  0  0  0  0  0  0  0  0  0  0  0
   59.3490   32.8540   47.3420 C   0  0  0  0  0  0  0  0  0  0  0  0
   60.2000   32.4290   52.8150 C   0  0  0  0  0  0  0  0  0  0  0  0
   59.4320   31.1550   52.4100 C   0  0  0  0  0  0  0  0  0  0  0  0
   60.9786   28.1381   50.5328 H   0  0  0  0  0  0  0  0  0  0  0  0
   61.6420   26.3650   48.9070 H   0  0  0  0  0  0  0  0  0  0  0  0
   60.4829   26.1850   46.7078 H   0  0  0  0  0  0  0  0  0  0  0  0
   58.1651   28.7521   45.4135 H   0  0  0  0  0  0  0  0  0  0  0  0
   59.1149   27.2676   45.0364 H   0  0  0  0  0  0  0  0  0  0  0  0
   57.9592   29.5417   47.7624 H   0  0  0  0  0  0  0  0  0  0  0  0
   61.8865   29.8726   51.4559 H   0  0  0  0  0  0  0  0  0  0  0  0
   61.5242   30.4946   49.7901 H   0  0  0  0  0  0  0  0  0  0  0  0
   62.7225   31.8831   52.0419 H   0  0  0  0  0  0  0  0  0  0  0  0
   62.4485   32.4378   50.3260 H   0  0  0  0  0  0  0  0  0  0  0  0
   61.4960   33.8370   52.0680 H   0  0  0  0  0  0  0  0  0  0  0  0
   60.2565   34.8727   48.9843 H   0  0  0  0  0  0  0  0  0  0  0  0
   61.7887   34.0090   49.3925 H   0  0  0  0  0  0  0  0  0  0  0  0
   62.1343   31.5145   48.4221 H   0  0  0  0  0  0  0  0  0  0  0  0
   61.0820   30.2780   46.3870 H   0  0  0  0  0  0  0  0  0  0  0  0
   58.8677   30.6165   44.8098 H   0  0  0  0  0  0  0  0  0  0  0  0
   56.8772   32.1196   44.4494 H   0  0  0  0  0  0  0  0  0  0  0  0
   56.4813   34.0699   45.9718 H   0  0  0  0  0  0  0  0  0  0  0  0
   58.0784   34.5444   47.8625 H   0  0  0  0  0  0  0  0  0  0  0  0
   60.8943   32.1773   53.6302 H   0  0  0  0  0  0  0  0  0  0  0  0
   59.4586   33.1784   53.1293 H   0  0  0  0  0  0  0  0  0  0  0  0
   59.5457   30.4022   53.2040 H   0  0  0  0  0  0  0  0  0  0  0  0
   58.3741   31.4215   52.2694 H   0  0  0  0  0  0  0  0  0  0  0  0
  1  2  2  0
  2  3  1  0
  3  4  2  0
  4  5  1  0
  5  6  2  0
  6  7  1  0
  7  8  1  0
  8  9  1  0
  9 10  1  0
 10 11  1  0
 11 12  2  0
 11 13  1  0
 13 14  1  0
 14 15  1  0
  7 16  2  0
  2 17  1  0
 17 18  1  0
 18 19  1  0
 19 20  1  0
 20 21  1  0
 21 22  2  0
 21 23  1  0
 23 24  1  0
 24 25  2  0
 25 26  1  0
 26 27  1  0
 27 28  2  0
 28 29  1  0
 29 30  2  0
 30 31  1  0
 31 32  2  0
 20 33  1  0
 33 34  1  0
 16  3  1  0
 34 17  1  0
 14  9  2  0
 32 24  1  0
 32 27  1  0
  4 35  1  0
  5 36  1  0
  6 37  1  0
  8 38  1  0
  8 39  1  0
 16 40  1  0
 18 41  1  0
 18 42  1  0
 19 43  1  0
 19 44  1  0
 20 45  1  0
 23 46  1  0
 23 47  1  0
 25 48  1  0
 26 49  1  0
 28 50  1  0
 29 51  1  0
 30 52  1  0
 31 53  1  0
 33 54  1  0
 33 55  1  0
 34 56  1  0
 34 57  1  0
M  CHG  4  10  -1  13  -1  15  -1  20   1
M  END
>  <UniqueID>  (56) 
51

>  <SMILES>  (56) 
O=C(c1cccc(Cc2[n-]c(=O)[n-]c2[O-])c1)N1CC[NH+](C(=O)Cc2c[nH]c3ccccc23)CC1

>  <Energy>  (56) 
135.18562939280295

>  <Genealogy>  (56) 
O=C(c1cccc(Cc2[n-]c(=O)[n-]c2[O-])c1)N1CC[NH+](C(=O)Cc2c[nH]c3ccccc23)CC1 (protonated)
O=C(c1cccc(Cc2[n-]c(=O)[n-]c2[O-])c1)N1CC[NH+](C(=O)Cc2c[nH]c3ccccc23)CC1 (3D coordinates assigned)
O=C(c1cccc(Cc2[n-]c(=O)[n-]c2[O-])c1)N1CC[NH+](C(=O)Cc2c[nH]c3ccccc23)CC1 (nonaromatic ring conformer: 135.18562939280295 kcal/mol)

>  <smiles>  (56) 
O=C(Cc1c[nH]c2ccccc12)N1CCN(C(=O)c2cccc(Cc3[nH]c(=O)[nH]c3O)c2)CC1

>  <score_type>  (56) 
oracle

>  <origin>  (56) 
adg

>  <m_score__min__energy>  (56) 
-17.82

>  <m_primary>  (56) 
energy

$$$$
57:0
     RDKit          3D

 33 34  0  0  0  0  0  0  0  0999 V2000
   56.7123   29.2430   42.9752 H   0  0  0  0  0  0  0  0  0  0  0  0
   56.9650   30.1710   43.5090 C   0  0  0  0  0  0  0  0  0  0  0  0
   56.8237   31.1445   43.0168 H   0  0  0  0  0  0  0  0  0  0  0  0
   57.4500   30.1150   44.7720 C   0  0  0  0  0  0  0  0  0  0  0  0
   57.7790   31.3300   45.4660 C   0  0  0  0  0  0  0  0  0  0  0  0
   57.3540   32.7180   44.9660 C   0  0  0  0  0  0  0  0  0  0  0  0
   56.2969   32.6359   44.6730 H   0  0  0  0  0  0  0  0  0  0  0  0
   58.1890   33.1270   43.7490 C   0  0  0  0  0  0  0  0  0  0  0  0
   59.1290   33.5874   44.0873 H   0  0  0  0  0  0  0  0  0  0  0  0
   58.4139   32.2371   43.1428 H   0  0  0  0  0  0  0  0  0  0  0  0
   57.6238   33.8502   43.1428 H   0  0  0  0  0  0  0  0  0  0  0  0
   57.4200   33.8020   46.0570 C   0  0  0  0  0  0  0  0  0  0  0  0
   57.3911   33.3265   47.0485 H   0  0  0  0  0  0  0  0  0  0  0  0
   58.3545   34.3724   45.9510 H   0  0  0  0  0  0  0  0  0  0  0  0
   56.5616   34.4816   45.9510 H   0  0  0  0  0  0  0  0  0  0  0  0
   58.5760   31.2560   46.6230 C   0  0  0  0  0  0  0  0  0  0  0  0
   58.9121   32.1847   47.1074 H   0  0  0  0  0  0  0  0  0  0  0  0
   58.9450   30.0360   47.1630 C   0  0  0  0  0  0  0  0  0  0  0  0
   59.5914   30.0054   48.0525 H   0  0  0  0  0  0  0  0  0  0  0  0
   58.5060   28.8540   46.5910 C   0  0  0  0  0  0  0  0  0  0  0  0
   58.7760   27.8962   47.0598 H   0  0  0  0  0  0  0  0  0  0  0  0
   57.7180   28.8520   45.4170 C   0  0  0  0  0  0  0  0  0  0  0  0
   57.2400   27.6670   44.9430 C   0  0  0  0  0  0  0  0  0  0  0  0
   56.8839   27.6403   43.9026 H   0  0  0  0  0  0  0  0  0  0  0  0
   57.1650   26.4120   45.7270 C   0  0  0  0  0  0  0  0  0  0  0  0
   55.9390   25.9800   46.2500 C   0  0  0  0  0  0  0  0  0  0  0  0
   54.7720   26.6960   46.0080 O   0  0  0  0  0  0  0  0  0  0  0  0
   55.8820   24.8460   46.9960 N   0  0  0  0  0  0  0  0  0  0  0  0
   57.0010   24.1230   47.2590 C   0  0  0  0  0  0  0  0  0  0  0  0
   56.9250   23.0740   47.9490 O   0  0  0  0  0  0  0  0  0  0  0  0
   58.2040   24.5340   46.7820 N   0  0  0  0  0  0  0  0  0  0  0  0
   58.3140   25.6620   46.0320 C   0  0  0  0  0  0  0  0  0  0  0  0
   59.4480   26.0260   45.6230 O   0  0  0  0  0  0  0  0  0  0  0  0
  1  2  1  0
  2  3  1  0
  2  4  2  0
  4  5  1  0
  5  6  1  0
  6  7  1  0
  6  8  1  0
  8  9  1  0
  8 10  1  0
  8 11  1  0
  6 12  1  0
 12 13  1  0
 12 14  1  0
 12 15  1  0
  5 16  2  0
 16 17  1  0
 16 18  1  0
 18 19  1  0
 18 20  2  0
 20 21  1  0
 20 22  1  0
 22 23  2  0
 23 24  1  0
 23 25  1  0
 25 26  2  0
 26 27  1  0
 26 28  1  0
 28 29  1  0
 29 30  2  0
 29 31  1  0
 31 32  1  0
 32 33  2  0
 22  4  1  0
 32 25  1  0
M  CHG  3  27  -1  28  -1  31  -1
M  END
>  <UniqueID>  (57) 
52

>  <SMILES>  (57) 
C=c1c(C(C)C)ccc/c1=C\c1c([O-])[n-]c(=O)[n-]c1=O

>  <Energy>  (57) 
59.31274357654673

>  <Genealogy>  (57) 
C=c1c(C(C)C)cccc1=Cc1c([O-])[n-]c(=O)[n-]c1=O (protonated)
C=c1c(C(C)C)ccc/c1=C\c1c([O-])[n-]c(=O)[n-]c1=O (cis-trans isomerization)
C=c1c(C(C)C)ccc/c1=C\c1c([O-])[n-]c(=O)[n-]c1=O (3D coordinates assigned)
C=c1c(C(C)C)ccc/c1=C\c1c([O-])[n-]c(=O)[n-]c1=O (optimized conformer: 59.31274357654673 kcal/mol)

>  <smiles>  (57) 
C=c1c(C(C)C)cccc1=Cc1c(O)[nH]c(=O)[nH]c1=O

>  <score_type>  (57) 
oracle

>  <origin>  (57) 
adg

>  <m_score__min__energy>  (57) 
-15.16

>  <m_primary>  (57) 
energy

$$$$
58:0
     RDKit          3D

 57 61  0  0  0  0  0  0  0  0999 V2000
   59.2020   27.7050   47.3010 C   0  0  0  0  0  0  0  0  0  0  0  0
   58.6830   28.6640   46.5180 C   0  0  0  0  0  0  0  0  0  0  0  0
   57.9180   28.4910   45.3530 C   0  0  0  0  0  0  0  0  0  0  0  0
   57.3740   27.3870   44.8050 C   0  0  0  0  0  0  0  0  0  0  0  0
   57.0450   26.1470   45.5240 C   0  0  0  0  0  0  0  0  0  0  0  0
   57.9050   25.1460   45.7780 N   0  0  0  0  0  0  0  0  0  0  0  0
   57.2220   24.3060   46.5810 C   0  0  0  0  0  0  0  0  0  0  0  0
   57.7100   23.2350   47.0280 O   0  0  0  0  0  0  0  0  0  0  0  0
   55.9710   24.7210   46.8770 N   0  0  0  0  0  0  0  0  0  0  0  0
   55.8820   25.8920   46.2160 C   0  0  0  0  0  0  0  0  0  0  0  0
   54.7630   26.7140   46.2490 O   0  0  0  0  0  0  0  0  0  0  0  0
   57.7670   29.7520   44.7980 C   0  0  0  0  0  0  0  0  0  0  0  0
   58.3830   30.6420   45.6510 C   0  0  0  0  0  0  0  0  0  0  0  0
   58.4310   32.1260   45.4500 C   0  0  0  0  0  0  0  0  0  0  0  0
   58.9290   29.9880   46.6990 N   0  0  0  0  0  0  0  0  0  0  0  0
   59.7000   30.5990   47.7480 C   0  0  0  0  0  0  0  0  0  0  0  0
   59.1310   31.6010   48.5470 C   0  0  0  0  0  0  0  0  0  0  0  0
   59.8840   32.2080   49.5550 C   0  0  0  0  0  0  0  0  0  0  0  0
   61.2160   31.8220   49.7760 C   0  0  0  0  0  0  0  0  0  0  0  0
   61.9910   32.4530   50.8110 N   0  0  0  0  0  0  0  0  0  0  0  0
   61.2890   33.0900   51.9320 C   0  0  0  0  0  0  0  0  0  0  0  0
   62.2180   33.2580   53.1350 C   0  0  0  0  0  0  0  0  0  0  0  0
   63.4600   34.0530   52.7350 C   0  0  0  0  0  0  0  0  0  0  0  0
   64.1550   33.4150   51.6090 N   0  0  0  0  0  0  0  0  0  0  0  0
   65.5370   33.7390   51.3720 C   0  0  0  0  0  0  0  0  0  0  0  0
   66.0740   34.9520   51.8360 C   0  0  0  0  0  0  0  0  0  0  0  0
   67.4190   35.2600   51.6080 C   0  0  0  0  0  0  0  0  0  0  0  0
   68.2360   34.3600   50.9180 C   0  0  0  0  0  0  0  0  0  0  0  0
   67.7100   33.1500   50.4570 C   0  0  0  0  0  0  0  0  0  0  0  0
   66.3660   32.8380   50.6830 C   0  0  0  0  0  0  0  0  0  0  0  0
   63.4100   32.6420   50.6460 C   0  0  0  0  0  0  0  0  0  0  0  0
   64.0130   32.0830   49.6880 O   0  0  0  0  0  0  0  0  0  0  0  0
   61.7860   30.8250   48.9690 C   0  0  0  0  0  0  0  0  0  0  0  0
   61.0330   30.2190   47.9590 C   0  0  0  0  0  0  0  0  0  0  0  0
   59.7863   27.9787   48.1919 H   0  0  0  0  0  0  0  0  0  0  0  0
   59.0429   26.6455   47.0517 H   0  0  0  0  0  0  0  0  0  0  0  0
   57.1573   27.4155   43.7269 H   0  0  0  0  0  0  0  0  0  0  0  0
   58.8960   25.0550   45.4590 H   0  0  0  0  0  0  0  0  0  0  0  0
   57.2534   29.9959   43.8563 H   0  0  0  0  0  0  0  0  0  0  0  0
   58.4472   32.6282   46.4285 H   0  0  0  0  0  0  0  0  0  0  0  0
   59.3382   32.3906   44.8870 H   0  0  0  0  0  0  0  0  0  0  0  0
   57.5428   32.4487   44.8870 H   0  0  0  0  0  0  0  0  0  0  0  0
   58.0886   31.9100   48.3796 H   0  0  0  0  0  0  0  0  0  0  0  0
   59.4311   32.9926   50.1790 H   0  0  0  0  0  0  0  0  0  0  0  0
   60.9282   34.0796   51.6150 H   0  0  0  0  0  0  0  0  0  0  0  0
   60.4452   32.4490   52.2272 H   0  0  0  0  0  0  0  0  0  0  0  0
   61.6848   33.7943   53.9338 H   0  0  0  0  0  0  0  0  0  0  0  0
   62.5271   32.2644   53.4916 H   0  0  0  0  0  0  0  0  0  0  0  0
   63.1574   35.0690   52.4415 H   0  0  0  0  0  0  0  0  0  0  0  0
   64.1452   34.0875   53.5948 H   0  0  0  0  0  0  0  0  0  0  0  0
   65.4340   35.6618   52.3805 H   0  0  0  0  0  0  0  0  0  0  0  0
   67.8343   36.2113   51.9720 H   0  0  0  0  0  0  0  0  0  0  0  0
   69.2933   34.6041   50.7377 H   0  0  0  0  0  0  0  0  0  0  0  0
   68.3545   32.4419   49.9155 H   0  0  0  0  0  0  0  0  0  0  0  0
   65.9563   31.8838   50.3201 H   0  0  0  0  0  0  0  0  0  0  0  0
   62.8300   30.5191   49.1320 H   0  0  0  0  0  0  0  0  0  0  0  0
   61.4878   29.4414   47.3277 H   0  0  0  0  0  0  0  0  0  0  0  0
  1  2  2  0
  2  3  1  0
  3  4  2  3
  4  5  1  0
  5  6  1  0
  6  7  1  0
  7  8  2  0
  7  9  1  0
  9 10  1  0
 10 11  1  0
  3 12  1  0
 12 13  2  0
 13 14  1  0
 13 15  1  0
 15 16  1  0
 16 17  2  0
 17 18  1  0
 18 19  2  0
 19 20  1  0
 20 21  1  0
 21 22  1  0
 22 23  1  0
 23 24  1  0
 24 25  1  0
 25 26  2  0
 26 27  1  0
 27 28  2  0
 28 29  1  0
 29 30  2  0
 24 31  1  0
 31 32  2  0
 19 33  1  0
 33 34  2  0
 15  2  1  0
 34 16  1  0
 10  5  2  0
 31 20  1  0
 30 25  1  0
  1 35  1  0
  1 36  1  0
  4 37  1  0
  6 38  1  0
 12 39  1  0
 14 40  1  0
 14 41  1  0
 14 42  1  0
 17 43  1  0
 18 44  1  0
 21 45  1  0
 21 46  1  0
 22 47  1  0
 22 48  1  0
 23 49  1  0
 23 50  1  0
 26 51  1  0
 27 52  1  0
 28 53  1  0
 29 54  1  0
 30 55  1  0
 33 56  1  0
 34 57  1  0
M  CHG  2   9  -1  11  -1
M  END
>  <UniqueID>  (58) 
53

>  <SMILES>  (58) 
C=c1c(=Cc2[nH]c(=O)[n-]c2[O-])cc(C)n1-c1ccc(N2CCCN(c3ccccc3)C2=O)cc1

>  <Energy>  (58) 
149.25670816766748

>  <Genealogy>  (58) 
C=c1c(=Cc2[nH]c(=O)[n-]c2[O-])cc(C)n1-c1ccc(N2CCCN(c3ccccc3)C2=O)cc1 (protonated)
C=c1c(=Cc2[nH]c(=O)[n-]c2[O-])cc(C)n1-c1ccc(N2CCCN(c3ccccc3)C2=O)cc1 (3D coordinates assigned)
C=c1c(=Cc2[nH]c(=O)[n-]c2[O-])cc(C)n1-c1ccc(N2CCCN(c3ccccc3)C2=O)cc1 (nonaromatic ring conformer: 149.25670816766748 kcal/mol)

>  <smiles>  (58) 
C=c1c(=Cc2[nH]c(=O)[nH]c2O)cc(C)n1-c1ccc(N2CCCN(c3ccccc3)C2=O)cc1

>  <score_type>  (58) 
oracle

>  <origin>  (58) 
adg

>  <m_score__min__energy>  (58) 
-13.92

>  <m_primary>  (58) 
energy

$$$$
60:0
     RDKit          3D

 39 41  0  0  0  0  0  0  0  0999 V2000
   55.1530   27.4740   45.3890 H   0  0  0  0  0  0  0  0  0  0  0  0
   54.9720   26.6860   46.0000 O   0  0  0  0  0  0  0  0  0  0  0  0
   55.9560   25.7290   46.2340 C   0  0  0  0  0  0  0  0  0  0  0  0
   55.7950   24.6720   47.0450 N   0  0  0  0  0  0  0  0  0  0  0  0
   56.9700   24.0180   46.9150 C   0  0  0  0  0  0  0  0  0  0  0  0
   57.2200   22.9460   47.5240 O   0  0  0  0  0  0  0  0  0  0  0  0
   57.8510   24.5980   46.0710 N   0  0  0  0  0  0  0  0  0  0  0  0
   57.2080   25.7060   45.6640 C   0  0  0  0  0  0  0  0  0  0  0  0
   57.7230   26.6110   44.6260 C   0  0  0  0  0  0  0  0  0  0  0  0
   57.9823   26.1633   43.6553 H   0  0  0  0  0  0  0  0  0  0  0  0
   57.9060   27.9400   44.7570 C   0  0  0  0  0  0  0  0  0  0  0  0
   57.3770   28.8540   43.8630 C   0  0  0  0  0  0  0  0  0  0  0  0
   56.8133   28.6222   42.9473 H   0  0  0  0  0  0  0  0  0  0  0  0
   57.6900   30.1100   44.3370 C   0  0  0  0  0  0  0  0  0  0  0  0
   57.2920   31.3920   43.6720 C   0  0  0  0  0  0  0  0  0  0  0  0
   57.0581   32.1455   44.4385 H   0  0  0  0  0  0  0  0  0  0  0  0
   58.1206   31.7522   43.0446 H   0  0  0  0  0  0  0  0  0  0  0  0
   56.4051   31.2197   43.0446 H   0  0  0  0  0  0  0  0  0  0  0  0
   58.4160   30.0170   45.4760 N   0  0  0  0  0  0  0  0  0  0  0  0
   58.9630   31.1350   46.1990 C   0  0  0  0  0  0  0  0  0  0  0  0
   58.1450   32.1260   46.6420 N   0  0  0  0  0  0  0  0  0  0  0  0
   58.6380   33.2050   47.3030 C   0  0  0  0  0  0  0  0  0  0  0  0
   57.9568   33.9932   47.6561 H   0  0  0  0  0  0  0  0  0  0  0  0
   60.0180   33.3130   47.5350 C   0  0  0  0  0  0  0  0  0  0  0  0
   60.5970   34.3960   48.2110 O   0  0  0  0  0  0  0  0  0  0  0  0
   61.4850   34.2680   49.3190 C   0  0  0  0  0  0  0  0  0  0  0  0
   61.4115   35.1637   49.9533 H   0  0  0  0  0  0  0  0  0  0  0  0
   61.2122   33.3793   49.9070 H   0  0  0  0  0  0  0  0  0  0  0  0
   62.9110   34.1220   48.8110 C   0  0  0  0  0  0  0  0  0  0  0  0
   63.5994   34.0515   49.6660 H   0  0  0  0  0  0  0  0  0  0  0  0
   62.9910   33.2110   48.1998 H   0  0  0  0  0  0  0  0  0  0  0  0
   63.1740   34.9979   48.1998 H   0  0  0  0  0  0  0  0  0  0  0  0
   60.8410   32.2880   47.0650 C   0  0  0  0  0  0  0  0  0  0  0  0
   61.9276   32.3386   47.2283 H   0  0  0  0  0  0  0  0  0  0  0  0
   60.3040   31.2290   46.4070 N   0  0  0  0  0  0  0  0  0  0  0  0
   58.5810   28.6930   45.7350 C   0  0  0  0  0  0  0  0  0  0  0  0
   59.3400   28.2190   46.7380 C   0  0  0  0  0  0  0  0  0  0  0  0
   59.8180   28.9155   47.4425 H   0  0  0  0  0  0  0  0  0  0  0  0
   59.4831   27.1346   46.8543 H   0  0  0  0  0  0  0  0  0  0  0  0
  1  2  1  0
  2  3  1  0
  3  4  1  0
  4  5  1  0
  5  6  2  0
  5  7  1  0
  7  8  1  0
  8  9  1  0
  9 10  1  0
  9 11  2  0
 11 12  1  0
 12 13  1  0
 12 14  2  0
 14 15  1  0
 15 16  1  0
 15 17  1  0
 15 18  1  0
 14 19  1  0
 19 20  1  0
 20 21  2  0
 21 22  1  0
 22 23  1  0
 22 24  2  0
 24 25  1  0
 25 26  1  0
 26 27  1  0
 26 28  1  0
 26 29  1  0
 29 30  1  0
 29 31  1  0
 29 32  1  0
 24 33  1  0
 33 34  1  0
 33 35  2  0
 19 36  1  0
 36 37  2  0
 37 38  1  0
 37 39  1  0
  8  3  2  0
 36 11  1  0
 35 20  1  0
M  CHG  2   4  -1   7  -1
M  END
>  <UniqueID>  (59) 
54

>  <SMILES>  (59) 
C=c1/c(=C\c2[n-]c(=O)[n-]c2O)cc(C)n1-c1ncc(OCC)cn1

>  <Energy>  (59) 
113.00868598571748

>  <Genealogy>  (59) 
C=c1c(=Cc2[n-]c(=O)[n-]c2O)cc(C)n1-c1ncc(OCC)cn1 (protonated)
C=c1/c(=C\c2[n-]c(=O)[n-]c2O)cc(C)n1-c1ncc(OCC)cn1 (cis-trans isomerization)
C=c1/c(=C\c2[n-]c(=O)[n-]c2O)cc(C)n1-c1ncc(OCC)cn1 (3D coordinates assigned)
C=c1/c(=C\c2[n-]c(=O)[n-]c2O)cc(C)n1-c1ncc(OCC)cn1 (optimized conformer: 113.00868598571748 kcal/mol)

>  <smiles>  (59) 
C=c1c(=Cc2[nH]c(=O)[nH]c2O)cc(C)n1-c1ncc(OCC)cn1

>  <score_type>  (59) 
oracle

>  <origin>  (59) 
adg

>  <m_score__min__energy>  (59) 
-11.57

>  <m_primary>  (59) 
energy

$$$$
61:0
     RDKit          3D

 46 48  0  0  0  0  0  0  0  0999 V2000
   54.0120   28.1550   53.5900 C   0  0  0  0  0  0  0  0  0  0  0  0
   54.3930   29.3720   53.1730 C   0  0  0  0  0  0  0  0  0  0  0  0
   53.6470   30.2760   52.4010 C   0  0  0  0  0  0  0  0  0  0  0  0
   52.3400   30.2910   52.0760 C   0  0  0  0  0  0  0  0  0  0  0  0
   51.7760   30.8120   50.8200 C   0  0  0  0  0  0  0  0  0  0  0  0
   51.6420   30.1010   49.6850 N   0  0  0  0  0  0  0  0  0  0  0  0
   50.9630   30.9360   48.8710 C   0  0  0  0  0  0  0  0  0  0  0  0
   50.6550   30.6300   47.6900 O   0  0  0  0  0  0  0  0  0  0  0  0
   50.6310   32.1230   49.4250 N   0  0  0  0  0  0  0  0  0  0  0  0
   51.1410   32.0200   50.6640 C   0  0  0  0  0  0  0  0  0  0  0  0
   51.0250   33.0090   51.6320 O   0  0  0  0  0  0  0  0  0  0  0  0
   54.5300   31.2650   52.0000 C   0  0  0  0  0  0  0  0  0  0  0  0
   55.7430   30.9840   52.5950 C   0  0  0  0  0  0  0  0  0  0  0  0
   56.9760   31.8230   52.4460 C   0  0  0  0  0  0  0  0  0  0  0  0
   55.6630   29.8350   53.3030 N   0  0  0  0  0  0  0  0  0  0  0  0
   56.7400   29.2160   54.0300 C   0  0  0  0  0  0  0  0  0  0  0  0
   56.6280   29.0170   55.4110 C   0  0  0  0  0  0  0  0  0  0  0  0
   57.6780   28.4330   56.1200 C   0  0  0  0  0  0  0  0  0  0  0  0
   58.8320   28.0490   55.4350 C   0  0  0  0  0  0  0  0  0  0  0  0
   58.9230   28.2410   54.0930 N   0  0  0  0  0  0  0  0  0  0  0  0
   57.9140   28.8090   53.3730 C   0  0  0  0  0  0  0  0  0  0  0  0
   58.0190   28.9800   51.9850 O   0  0  0  0  0  0  0  0  0  0  0  0
   59.1770   29.3570   51.2940 C   0  0  0  0  0  0  0  0  0  0  0  0
   59.1080   29.8440   50.1320 O   0  0  0  0  0  0  0  0  0  0  0  0
   60.4480   29.1690   51.9290 N   0  0  0  0  0  0  0  0  0  0  0  0
   61.7130   29.4530   51.3110 C   0  0  0  0  0  0  0  0  0  0  0  0
   61.7680   29.9050   50.1350 O   0  0  0  0  0  0  0  0  0  0  0  0
   62.8880   29.2080   52.0290 O   0  0  0  0  0  0  0  0  0  0  0  0
   63.1420   27.9920   52.7310 C   0  0  0  0  0  0  0  0  0  0  0  0
   62.4780   26.8150   52.0250 C   0  0  0  0  0  0  0  0  0  0  0  0
   54.6965   27.5413   54.1941 H   0  0  0  0  0  0  0  0  0  0  0  0
   53.0151   27.7709   53.3278 H   0  0  0  0  0  0  0  0  0  0  0  0
   51.6338   29.8788   52.8118 H   0  0  0  0  0  0  0  0  0  0  0  0
   54.3070   32.1121   51.3347 H   0  0  0  0  0  0  0  0  0  0  0  0
   57.3629   32.0863   53.4415 H   0  0  0  0  0  0  0  0  0  0  0  0
   57.7403   31.2567   51.8936 H   0  0  0  0  0  0  0  0  0  0  0  0
   56.7298   32.7418   51.8936 H   0  0  0  0  0  0  0  0  0  0  0  0
   55.7114   29.3213   55.9376 H   0  0  0  0  0  0  0  0  0  0  0  0
   57.5975   28.2770   57.2059 H   0  0  0  0  0  0  0  0  0  0  0  0
   59.6687   27.5904   55.9823 H   0  0  0  0  0  0  0  0  0  0  0  0
   60.4560   28.7870   52.8990 H   0  0  0  0  0  0  0  0  0  0  0  0
   64.2276   27.8207   52.7759 H   0  0  0  0  0  0  0  0  0  0  0  0
   62.7272   28.0758   53.7464 H   0  0  0  0  0  0  0  0  0  0  0  0
   62.0824   26.1137   52.7744 H   0  0  0  0  0  0  0  0  0  0  0  0
   61.6540   27.1824   51.3956 H   0  0  0  0  0  0  0  0  0  0  0  0
   63.2185   26.2998   51.3956 H   0  0  0  0  0  0  0  0  0  0  0  0
  1  2  2  0
  2  3  1  0
  3  4  2  3
  4  5  1  0
  5  6  1  0
  6  7  1  0
  7  8  2  0
  7  9  1  0
  9 10  1  0
 10 11  1  0
  3 12  1  0
 12 13  2  0
 13 14  1  0
 13 15  1  0
 15 16  1  0
 16 17  2  0
 17 18  1  0
 18 19  2  0
 19 20  1  0
 20 21  2  0
 21 22  1  0
 22 23  1  0
 23 24  2  0
 23 25  1  0
 25 26  1  0
 26 27  2  0
 26 28  1  0
 28 29  1  0
 29 30  1  0
 15  2  1  0
 21 16  1  0
 10  5  2  0
  1 31  1  0
  1 32  1  0
  4 33  1  0
 12 34  1  0
 14 35  1  0
 14 36  1  0
 14 37  1  0
 17 38  1  0
 18 39  1  0
 19 40  1  0
 25 41  1  0
 29 42  1  0
 29 43  1  0
 30 44  1  0
 30 45  1  0
 30 46  1  0
M  CHG  3   6  -1   9  -1  11  -1
M  END
>  <UniqueID>  (60) 
55

>  <SMILES>  (60) 
C=c1c(=Cc2[n-]c(=O)[n-]c2[O-])cc(C)n1-c1cccnc1OC(=O)NC(=O)OCC

>  <Energy>  (60) 
120.17259887582726

>  <Genealogy>  (60) 
C=c1c(=Cc2[n-]c(=O)[n-]c2[O-])cc(C)n1-c1cccnc1OC(=O)NC(=O)OCC (protonated)
C=c1c(=Cc2[n-]c(=O)[n-]c2[O-])cc(C)n1-c1cccnc1OC(=O)NC(=O)OCC (3D coordinates assigned)
C=c1c(=Cc2[n-]c(=O)[n-]c2[O-])cc(C)n1-c1cccnc1OC(=O)NC(=O)OCC (optimized conformer: 120.17259887582726 kcal/mol)

>  <smiles>  (60) 
C=c1c(=Cc2[nH]c(=O)[nH]c2O)cc(C)n1-c1cccnc1OC(=O)NC(=O)OCC

>  <score_type>  (60) 
oracle

>  <origin>  (60) 
adg

>  <m_score__min__energy>  (60) 
-15.9

>  <m_primary>  (60) 
energy

$$$$
62:0
     RDKit          3D

 41 43  0  0  0  0  0  0  0  0999 V2000
   58.0330   32.3520   42.5360 C   0  0  0  0  0  0  0  0  0  0  0  0
   58.1470   32.6370   44.0050 C   0  0  0  0  0  0  0  0  0  0  0  0
   58.6120   33.8710   44.4930 C   0  0  0  0  0  0  0  0  0  0  0  0
   58.6490   33.9500   45.8760 C   0  0  0  0  0  0  0  0  0  0  0  0
   58.1090   32.4880   46.4960 S   0  0  0  0  0  0  0  0  0  0  0  0
   57.8170   31.7290   45.0200 C   0  0  0  0  0  0  0  0  0  0  0  0
   57.3250   30.3370   44.8600 C   0  0  0  0  0  0  0  0  0  0  0  0
   56.1100   30.1400   44.5790 O   0  0  0  0  0  0  0  0  0  0  0  0
   58.2300   29.2070   44.9430 N   0  0  0  0  0  0  0  0  0  0  0  0
   58.4220   28.7720   46.3580 C   0  0  0  0  0  0  0  0  0  0  0  0
   57.6750   27.4770   46.7020 C   0  0  0  0  0  0  0  0  0  0  0  0
   58.0710   26.4160   45.7670 N   0  0  0  0  0  0  0  0  0  0  0  0
   58.0730   25.0400   46.1990 C   0  0  0  0  0  0  0  0  0  0  0  0
   57.4260   24.7110   47.2330 O   0  0  0  0  0  0  0  0  0  0  0  0
   58.7860   23.9680   45.4140 C   0  0  0  0  0  0  0  0  0  0  0  0
   57.8510   23.2910   44.4530 C   0  0  0  0  0  0  0  0  0  0  0  0
   56.7890   23.9520   43.8160 C   0  0  0  0  0  0  0  0  0  0  0  0
   56.0290   23.1220   43.0030 C   0  0  0  0  0  0  0  0  0  0  0  0
   56.6730   21.5730   43.0920 S   0  0  0  0  0  0  0  0  0  0  0  0
   57.9220   21.9340   44.1560 C   0  0  0  0  0  0  0  0  0  0  0  0
   58.3620   26.7730   44.3710 C   0  0  0  0  0  0  0  0  0  0  0  0
   57.7530   28.1390   44.0300 C   0  0  0  0  0  0  0  0  0  0  0  0
   57.6281   31.3398   42.3892 H   0  0  0  0  0  0  0  0  0  0  0  0
   57.3597   33.0872   42.0710 H   0  0  0  0  0  0  0  0  0  0  0  0
   59.0276   32.4201   42.0710 H   0  0  0  0  0  0  0  0  0  0  0  0
   58.9186   34.6986   43.8365 H   0  0  0  0  0  0  0  0  0  0  0  0
   58.9756   34.8199   46.4647 H   0  0  0  0  0  0  0  0  0  0  0  0
   59.1720   29.5090   44.6010 H   0  0  0  0  0  0  0  0  0  0  0  0
   59.4964   28.6117   46.5312 H   0  0  0  0  0  0  0  0  0  0  0  0
   58.0120   29.5649   47.0008 H   0  0  0  0  0  0  0  0  0  0  0  0
   57.9250   27.1720   47.7289 H   0  0  0  0  0  0  0  0  0  0  0  0
   56.5914   27.6484   46.6220 H   0  0  0  0  0  0  0  0  0  0  0  0
   59.6124   24.4250   44.8499 H   0  0  0  0  0  0  0  0  0  0  0  0
   59.1694   23.2151   46.1183 H   0  0  0  0  0  0  0  0  0  0  0  0
   56.5793   25.0237   43.9482 H   0  0  0  0  0  0  0  0  0  0  0  0
   55.1572   23.4257   42.4049 H   0  0  0  0  0  0  0  0  0  0  0  0
   58.6643   21.2233   44.5482 H   0  0  0  0  0  0  0  0  0  0  0  0
   59.4518   26.8161   44.2276 H   0  0  0  0  0  0  0  0  0  0  0  0
   57.9233   26.0117   43.7092 H   0  0  0  0  0  0  0  0  0  0  0  0
   58.0307   28.4036   42.9991 H   0  0  0  0  0  0  0  0  0  0  0  0
   56.6615   28.0605   44.1420 H   0  0  0  0  0  0  0  0  0  0  0  0
  1  2  1  0
  2  3  1  0
  3  4  2  0
  4  5  1  0
  5  6  1  0
  6  7  1  0
  7  8  2  0
  7  9  1  0
  9 10  1  0
 10 11  1  0
 11 12  1  0
 12 13  1  0
 13 14  2  0
 13 15  1  0
 15 16  1  0
 16 17  1  0
 17 18  2  0
 18 19  1  0
 19 20  1  0
 12 21  1  0
 21 22  1  0
  6  2  2  0
 22  9  1  0
 20 16  2  0
  1 23  1  0
  1 24  1  0
  1 25  1  0
  3 26  1  0
  4 27  1  0
  9 28  1  0
 10 29  1  0
 10 30  1  0
 11 31  1  0
 11 32  1  0
 15 33  1  0
 15 34  1  0
 17 35  1  0
 18 36  1  0
 20 37  1  0
 21 38  1  0
 21 39  1  0
 22 40  1  0
 22 41  1  0
M  CHG  1   9   1
M  END
>  <UniqueID>  (61) 
56

>  <SMILES>  (61) 
Cc1ccsc1C(=O)[NH+]1CCN(C(=O)Cc2ccsc2)CC1

>  <Energy>  (61) 
102.26168744196332

>  <Genealogy>  (61) 
Cc1ccsc1C(=O)[NH+]1CCN(C(=O)Cc2ccsc2)CC1 (protonated)
Cc1ccsc1C(=O)[NH+]1CCN(C(=O)Cc2ccsc2)CC1 (3D coordinates assigned)
Cc1ccsc1C(=O)[NH+]1CCN(C(=O)Cc2ccsc2)CC1 (nonaromatic ring conformer: 102.26168744196332 kcal/mol)

>  <smiles>  (61) 
Cc1ccsc1C(=O)N1CCN(C(=O)Cc2ccsc2)CC1

>  <score_type>  (61) 
oracle

>  <origin>  (61) 
adg

>  <m_score__min__energy>  (61) 
-6.0800000000000001

>  <m_primary>  (61) 
energy

$$$$
63:0
     RDKit          3D

 63 66  0  0  0  0  0  0  0  0999 V2000
   61.3660   33.9770   45.9700 O   0  0  0  0  0  0  0  0  0  0  0  0
   61.7360   33.5370   47.0920 C   0  0  0  0  0  0  0  0  0  0  0  0
   63.1760   33.3100   47.3230 C   0  0  0  0  0  0  0  0  0  0  0  0
   63.8570   33.6160   48.4400 C   0  0  0  0  0  0  0  0  0  0  0  0
   64.4640   32.6480   49.3760 C   0  0  0  0  0  0  0  0  0  0  0  0
   65.8040   32.7660   49.7830 C   0  0  0  0  0  0  0  0  0  0  0  0
   66.3390   31.8610   50.7060 C   0  0  0  0  0  0  0  0  0  0  0  0
   65.5320   30.8670   51.2640 C   0  0  0  0  0  0  0  0  0  0  0  0
   64.1770   30.7850   50.9220 C   0  0  0  0  0  0  0  0  0  0  0  0
   63.3690   29.7590   51.5160 N   0  0  0  0  0  0  0  0  0  0  0  0
   62.1050   29.2890   51.0290 C   0  0  0  0  0  0  0  0  0  0  0  0
   61.9170   28.0470   50.9220 O   0  0  0  0  0  0  0  0  0  0  0  0
   60.9560   30.2270   50.7710 C   0  0  0  0  0  0  0  0  0  0  0  0
   60.2970   29.8850   49.4620 C   0  0  0  0  0  0  0  0  0  0  0  0
   59.1310   29.1010   49.4290 C   0  0  0  0  0  0  0  0  0  0  0  0
   58.5140   28.8100   48.2080 C   0  0  0  0  0  0  0  0  0  0  0  0
   59.0350   29.3250   47.0100 C   0  0  0  0  0  0  0  0  0  0  0  0
   58.4280   29.0280   45.7470 N   0  0  0  0  0  0  0  0  0  0  0  0
   57.4110   29.7930   45.0900 C   0  0  0  0  0  0  0  0  0  0  0  0
   56.2180   29.4060   45.1890 O   0  0  0  0  0  0  0  0  0  0  0  0
   57.7430   30.9220   44.1440 C   0  0  0  0  0  0  0  0  0  0  0  0
   57.9410   32.2190   44.8890 C   0  0  0  0  0  0  0  0  0  0  0  0
   57.7600   32.2660   46.2830 C   0  0  0  0  0  0  0  0  0  0  0  0
   57.9800   33.4590   46.9820 C   0  0  0  0  0  0  0  0  0  0  0  0
   58.3870   34.6090   46.2980 C   0  0  0  0  0  0  0  0  0  0  0  0
   58.5770   34.5700   44.9130 C   0  0  0  0  0  0  0  0  0  0  0  0
   58.3560   33.3800   44.2090 C   0  0  0  0  0  0  0  0  0  0  0  0
   60.2120   30.0840   47.0400 C   0  0  0  0  0  0  0  0  0  0  0  0
   60.8350   30.3720   48.2580 C   0  0  0  0  0  0  0  0  0  0  0  0
   63.6510   31.6650   49.9600 C   0  0  0  0  0  0  0  0  0  0  0  0
   60.7700   33.3170   48.1280 N   0  0  0  0  0  0  0  0  0  0  0  0
   60.8110   33.9690   49.4310 C   0  0  0  0  0  0  0  0  0  0  0  0
   59.7220   33.4320   50.3070 C   0  0  0  0  0  0  0  0  0  0  0  0
   59.6720   33.7460   51.6740 C   0  0  0  0  0  0  0  0  0  0  0  0
   58.6570   33.2000   52.4650 C   0  0  0  0  0  0  0  0  0  0  0  0
   57.7130   32.3470   51.8920 C   0  0  0  0  0  0  0  0  0  0  0  0
   57.7970   32.0510   50.5270 C   0  0  0  0  0  0  0  0  0  0  0  0
   58.7940   32.5870   49.7750 N   0  0  0  0  0  0  0  0  0  0  0  0
   63.7451   32.8467   46.5036 H   0  0  0  0  0  0  0  0  0  0  0  0
   63.9729   34.6835   48.6789 H   0  0  0  0  0  0  0  0  0  0  0  0
   66.4330   33.5710   49.3753 H   0  0  0  0  0  0  0  0  0  0  0  0
   67.3985   31.9325   50.9931 H   0  0  0  0  0  0  0  0  0  0  0  0
   65.9626   30.1461   51.9746 H   0  0  0  0  0  0  0  0  0  0  0  0
   60.2208   30.1349   51.5841 H   0  0  0  0  0  0  0  0  0  0  0  0
   61.3349   31.2587   50.7261 H   0  0  0  0  0  0  0  0  0  0  0  0
   58.7026   28.7153   50.3658 H   0  0  0  0  0  0  0  0  0  0  0  0
   57.6163   28.1747   48.1861 H   0  0  0  0  0  0  0  0  0  0  0  0
   58.6676   30.6752   43.6016 H   0  0  0  0  0  0  0  0  0  0  0  0
   56.9038   31.0475   43.4440 H   0  0  0  0  0  0  0  0  0  0  0  0
   57.4446   31.3627   46.8257 H   0  0  0  0  0  0  0  0  0  0  0  0
   57.8324   33.4919   48.0716 H   0  0  0  0  0  0  0  0  0  0  0  0
   58.5578   35.5451   46.8499 H   0  0  0  0  0  0  0  0  0  0  0  0
   58.9001   35.4744   44.3766 H   0  0  0  0  0  0  0  0  0  0  0  0
   58.5073   33.3520   43.1198 H   0  0  0  0  0  0  0  0  0  0  0  0
   60.6481   30.4551   46.1008 H   0  0  0  0  0  0  0  0  0  0  0  0
   61.7500   30.9823   48.2743 H   0  0  0  0  0  0  0  0  0  0  0  0
   62.5950   31.5823   49.6632 H   0  0  0  0  0  0  0  0  0  0  0  0
   61.7859   33.7780   49.9033 H   0  0  0  0  0  0  0  0  0  0  0  0
   60.6665   35.0513   49.2978 H   0  0  0  0  0  0  0  0  0  0  0  0
   60.4238   34.4149   52.1184 H   0  0  0  0  0  0  0  0  0  0  0  0
   58.6026   33.4422   53.5366 H   0  0  0  0  0  0  0  0  0  0  0  0
   56.9113   31.9119   52.5068 H   0  0  0  0  0  0  0  0  0  0  0  0
   57.0557   31.3842   50.0624 H   0  0  0  0  0  0  0  0  0  0  0  0
  1  2  2  0
  2  3  1  0
  3  4  2  3
  4  5  1  0
  5  6  2  0
  6  7  1  0
  7  8  2  0
  8  9  1  0
  9 10  1  0
 10 11  1  0
 11 12  2  0
 11 13  1  0
 13 14  1  0
 14 15  2  0
 15 16  1  0
 16 17  2  0
 17 18  1  0
 18 19  1  0
 19 20  2  0
 19 21  1  0
 21 22  1  0
 22 23  2  0
 23 24  1  0
 24 25  2  0
 25 26  1  0
 26 27  2  0
 17 28  1  0
 28 29  2  0
  9 30  2  0
  2 31  1  0
 31 32  1  0
 32 33  1  0
 33 34  2  0
 34 35  1  0
 35 36  2  0
 36 37  1  0
 37 38  2  0
 30  5  1  0
 38 33  1  0
 29 14  1  0
 27 22  1  0
  3 39  1  0
  4 40  1  0
  6 41  1  0
  7 42  1  0
  8 43  1  0
 13 44  1  0
 13 45  1  0
 15 46  1  0
 16 47  1  0
 21 48  1  0
 21 49  1  0
 23 50  1  0
 24 51  1  0
 25 52  1  0
 26 53  1  0
 27 54  1  0
 28 55  1  0
 29 56  1  0
 30 57  1  0
 32 58  1  0
 32 59  1  0
 34 60  1  0
 35 61  1  0
 36 62  1  0
 37 63  1  0
M  CHG  3  10  -1  18  -1  31  -1
M  END
>  <UniqueID>  (62) 
57

>  <SMILES>  (62) 
O=C(C=Cc1cccc([N-]C(=O)Cc2ccc([N-]C(=O)Cc3ccccc3)cc2)c1)[N-]Cc1ccccn1

>  <Energy>  (62) 
82.5846799948198

>  <Genealogy>  (62) 
O=C(C=Cc1cccc([N-]C(=O)Cc2ccc([N-]C(=O)Cc3ccccc3)cc2)c1)[N-]Cc1ccccn1 (protonated)
O=C(C=Cc1cccc([N-]C(=O)Cc2ccc([N-]C(=O)Cc3ccccc3)cc2)c1)[N-]Cc1ccccn1 (3D coordinates assigned)
O=C(C=Cc1cccc([N-]C(=O)Cc2ccc([N-]C(=O)Cc3ccccc3)cc2)c1)[N-]Cc1ccccn1 (optimized conformer: 82.5846799948198 kcal/mol)

>  <smiles>  (62) 
O=C(C=Cc1cccc(NC(=O)Cc2ccc(NC(=O)Cc3ccccc3)cc2)c1)NCc1ccccn1

>  <score_type>  (62) 
oracle

>  <origin>  (62) 
adg

>  <m_score__min__energy>  (62) 
-13.880000000000001

>  <m_primary>  (62) 
energy

$$$$
64:0
     RDKit          3D

 58 61  0  0  0  0  0  0  0  0999 V2000
   57.5740   34.2160   44.9000 C   0  0  0  0  0  0  0  0  0  0  0  0
   58.7640   33.6360   45.0640 C   0  0  0  0  0  0  0  0  0  0  0  0
   59.0240   32.5890   46.0840 C   0  0  0  0  0  0  0  0  0  0  0  0
   59.1270   31.2410   45.7050 C   0  0  0  0  0  0  0  0  0  0  0  0
   59.4730   30.2620   46.6420 C   0  0  0  0  0  0  0  0  0  0  0  0
   59.6410   28.9310   46.2610 C   0  0  0  0  0  0  0  0  0  0  0  0
   60.0670   27.9850   47.1940 C   0  0  0  0  0  0  0  0  0  0  0  0
   60.3830   26.6150   46.7420 C   0  0  0  0  0  0  0  0  0  0  0  0
   61.5400   26.3410   46.3280 O   0  0  0  0  0  0  0  0  0  0  0  0
   59.3830   25.5860   46.7650 N   0  0  0  0  0  0  0  0  0  0  0  0
   58.4590   25.3240   45.6580 C   0  0  0  0  0  0  0  0  0  0  0  0
   57.8720   26.5960   45.1070 C   0  0  0  0  0  0  0  0  0  0  0  0
   58.2390   27.0530   43.8320 C   0  0  0  0  0  0  0  0  0  0  0  0
   57.7700   28.2810   43.3590 C   0  0  0  0  0  0  0  0  0  0  0  0
   56.9270   29.0760   44.1530 C   0  0  0  0  0  0  0  0  0  0  0  0
   56.4890   30.4120   43.6830 C   0  0  0  0  0  0  0  0  0  0  0  0
   55.9470   31.2190   44.4890 O   0  0  0  0  0  0  0  0  0  0  0  0
   56.6920   30.7990   42.3220 N   0  0  0  0  0  0  0  0  0  0  0  0
   57.4540   31.9790   41.9480 C   0  0  0  0  0  0  0  0  0  0  0  0
   56.5350   28.5990   45.4160 C   0  0  0  0  0  0  0  0  0  0  0  0
   57.0030   27.3680   45.8880 C   0  0  0  0  0  0  0  0  0  0  0  0
   60.2620   28.3790   48.5310 C   0  0  0  0  0  0  0  0  0  0  0  0
   60.6200   27.5150   49.3800 O   0  0  0  0  0  0  0  0  0  0  0  0
   60.0920   29.6930   48.9070 N   0  0  0  0  0  0  0  0  0  0  0  0
   60.4110   30.1100   50.2900 C   0  0  0  0  0  0  0  0  0  0  0  0
   59.2160   30.7720   50.9280 C   0  0  0  0  0  0  0  0  0  0  0  0
   58.0640   30.0210   51.2230 C   0  0  0  0  0  0  0  0  0  0  0  0
   56.9730   30.6240   51.8560 C   0  0  0  0  0  0  0  0  0  0  0  0
   57.0230   31.9780   52.2020 C   0  0  0  0  0  0  0  0  0  0  0  0
   58.1640   32.7330   51.9120 C   0  0  0  0  0  0  0  0  0  0  0  0
   58.2100   34.0470   52.2480 F   0  0  0  0  0  0  0  0  0  0  0  0
   59.2570   32.1350   51.2770 C   0  0  0  0  0  0  0  0  0  0  0  0
   59.7150   30.6340   47.9750 C   0  0  0  0  0  0  0  0  0  0  0  0
   59.5960   31.9440   48.3200 N   0  0  0  0  0  0  0  0  0  0  0  0
   59.2650   32.9200   47.4360 C   0  0  0  0  0  0  0  0  0  0  0  0
   59.1640   34.2630   47.9150 N   0  0  0  0  0  0  0  0  0  0  0  0
   57.4398   34.9870   44.1270 H   0  0  0  0  0  0  0  0  0  0  0  0
   56.7269   33.9233   45.5378 H   0  0  0  0  0  0  0  0  0  0  0  0
   59.5929   33.9486   44.4119 H   0  0  0  0  0  0  0  0  0  0  0  0
   58.9338   30.9522   44.6613 H   0  0  0  0  0  0  0  0  0  0  0  0
   59.4374   28.6266   45.2237 H   0  0  0  0  0  0  0  0  0  0  0  0
   59.0034   24.8059   44.8548 H   0  0  0  0  0  0  0  0  0  0  0  0
   57.6344   24.7043   46.0402 H   0  0  0  0  0  0  0  0  0  0  0  0
   58.9000   26.4406   43.2011 H   0  0  0  0  0  0  0  0  0  0  0  0
   58.0631   28.6280   42.3572 H   0  0  0  0  0  0  0  0  0  0  0  0
   57.7910   32.5008   42.8558 H   0  0  0  0  0  0  0  0  0  0  0  0
   58.3283   31.6773   41.3526 H   0  0  0  0  0  0  0  0  0  0  0  0
   56.8193   32.6518   41.3526 H   0  0  0  0  0  0  0  0  0  0  0  0
   55.8546   29.1987   46.0384 H   0  0  0  0  0  0  0  0  0  0  0  0
   56.6870   27.0048   46.8771 H   0  0  0  0  0  0  0  0  0  0  0  0
   60.6929   29.2251   50.8795 H   0  0  0  0  0  0  0  0  0  0  0  0
   61.2444   30.8274   50.2632 H   0  0  0  0  0  0  0  0  0  0  0  0
   58.0213   28.9551   50.9546 H   0  0  0  0  0  0  0  0  0  0  0  0
   56.0737   30.0323   52.0823 H   0  0  0  0  0  0  0  0  0  0  0  0
   56.1644   32.4495   52.7025 H   0  0  0  0  0  0  0  0  0  0  0  0
   60.1523   32.7321   51.0493 H   0  0  0  0  0  0  0  0  0  0  0  0
   59.6240   34.5220   48.8170 H   0  0  0  0  0  0  0  0  0  0  0  0
   58.6330   35.0060   47.4120 H   0  0  0  0  0  0  0  0  0  0  0  0
  1  2  2  0
  2  3  1  0
  3  4  2  0
  4  5  1  0
  5  6  1  0
  6  7  2  0
  7  8  1  0
  8  9  2  0
  8 10  1  0
 10 11  1  0
 11 12  1  0
 12 13  2  0
 13 14  1  0
 14 15  2  0
 15 16  1  0
 16 17  2  0
 16 18  1  0
 18 19  1  0
 15 20  1  0
 20 21  2  0
  7 22  1  0
 22 23  2  0
 22 24  1  0
 24 25  1  0
 25 26  1  0
 26 27  2  0
 27 28  1  0
 28 29  2  0
 29 30  1  0
 30 31  1  0
 30 32  2  0
 24 33  1  0
 33 34  1  0
 34 35  2  0
 35 36  1  0
 35  3  1  0
 33  5  2  0
 21 12  1  0
 32 26  1  0
  1 37  1  0
  1 38  1  0
  2 39  1  0
  4 40  1  0
  6 41  1  0
 11 42  1  0
 11 43  1  0
 13 44  1  0
 14 45  1  0
 19 46  1  0
 19 47  1  0
 19 48  1  0
 20 49  1  0
 21 50  1  0
 25 51  1  0
 25 52  1  0
 27 53  1  0
 28 54  1  0
 29 55  1  0
 32 56  1  0
 36 57  1  0
 36 58  1  0
M  CHG  2  10  -1  18  -1
M  END
>  <UniqueID>  (63) 
58

>  <SMILES>  (63) 
C=Cc1cc2cc(C(=O)[N-]Cc3ccc(C(=O)[N-]C)cc3)c(=O)n(Cc3cccc(F)c3)c2nc1N

>  <Energy>  (63) 
69.566424614628

>  <Genealogy>  (63) 
C=Cc1cc2cc(C(=O)[N-]Cc3ccc(C(=O)[N-]C)cc3)c(=O)n(Cc3cccc(F)c3)c2nc1N (protonated)
C=Cc1cc2cc(C(=O)[N-]Cc3ccc(C(=O)[N-]C)cc3)c(=O)n(Cc3cccc(F)c3)c2nc1N (3D coordinates assigned)
C=Cc1cc2cc(C(=O)[N-]Cc3ccc(C(=O)[N-]C)cc3)c(=O)n(Cc3cccc(F)c3)c2nc1N (optimized conformer: 69.566424614628 kcal/mol)

>  <smiles>  (63) 
C=Cc1cc2cc(C(=O)NCc3ccc(C(=O)NC)cc3)c(=O)n(Cc3cccc(F)c3)c2nc1N

>  <score_type>  (63) 
oracle

>  <origin>  (63) 
adg

>  <m_score__min__energy>  (63) 
-12.44

>  <m_primary>  (63) 
energy

$$$$
65:0
     RDKit          3D

 61 64  0  0  0  0  0  0  0  0999 V2000
   59.4400   25.0970   46.3800 O   0  0  0  0  0  0  0  0  0  0  0  0
   58.5310   25.6840   45.7300 C   0  0  0  0  0  0  0  0  0  0  0  0
   57.1230   25.1560   45.8270 C   0  0  0  0  0  0  0  0  0  0  0  0
   56.9610   23.8990   45.0140 C   0  0  0  0  0  0  0  0  0  0  0  0
   56.3330   23.9380   43.7580 C   0  0  0  0  0  0  0  0  0  0  0  0
   56.2020   22.7710   42.9990 C   0  0  0  0  0  0  0  0  0  0  0  0
   56.6970   21.5560   43.4830 C   0  0  0  0  0  0  0  0  0  0  0  0
   56.5540   20.4010   42.7170 O   0  0  0  0  0  0  0  0  0  0  0  0
   57.3310   21.5120   44.7330 C   0  0  0  0  0  0  0  0  0  0  0  0
   57.4680   22.6780   45.4920 C   0  0  0  0  0  0  0  0  0  0  0  0
   58.8480   26.8930   45.0100 N   0  0  0  0  0  0  0  0  0  0  0  0
   59.8480   27.8110   45.5760 C   0  0  0  0  0  0  0  0  0  0  0  0
   59.6990   29.2270   44.9960 C   0  0  0  0  0  0  0  0  0  0  0  0
   58.2720   29.5450   44.8180 N   0  0  0  0  0  0  0  0  0  0  0  0
   57.6620   30.7060   45.4190 C   0  0  0  0  0  0  0  0  0  0  0  0
   56.6660   31.2410   44.8610 O   0  0  0  0  0  0  0  0  0  0  0  0
   58.1460   31.2790   46.7270 C   0  0  0  0  0  0  0  0  0  0  0  0
   58.9400   32.5510   46.5350 C   0  0  0  0  0  0  0  0  0  0  0  0
   58.3150   33.6950   46.0120 C   0  0  0  0  0  0  0  0  0  0  0  0
   59.0460   34.8670   45.8100 C   0  0  0  0  0  0  0  0  0  0  0  0
   60.4030   34.9150   46.1370 C   0  0  0  0  0  0  0  0  0  0  0  0
   61.0400   33.7930   46.6940 C   0  0  0  0  0  0  0  0  0  0  0  0
   62.4850   33.8380   47.0050 C   0  0  0  0  0  0  0  0  0  0  0  0
   63.3090   34.0700   46.0790 O   0  0  0  0  0  0  0  0  0  0  0  0
   62.9690   33.6130   48.3390 N   0  0  0  0  0  0  0  0  0  0  0  0
   64.2450   32.9740   48.6130 C   0  0  0  0  0  0  0  0  0  0  0  0
   64.5770   33.3150   50.0600 C   0  0  0  0  0  0  0  0  0  0  0  0
   63.2770   33.8220   50.6780 C   0  0  0  0  0  0  0  0  0  0  0  0
   62.4020   34.2580   49.5110 C   0  0  0  0  0  0  0  0  0  0  0  0
   60.3000   32.6130   46.8910 C   0  0  0  0  0  0  0  0  0  0  0  0
   57.4220   28.6270   44.0430 C   0  0  0  0  0  0  0  0  0  0  0  0
   58.1330   27.2960   43.7900 C   0  0  0  0  0  0  0  0  0  0  0  0
   56.8932   24.9356   46.8799 H   0  0  0  0  0  0  0  0  0  0  0  0
   56.4348   25.9188   45.4339 H   0  0  0  0  0  0  0  0  0  0  0  0
   55.9427   24.8905   43.3700 H   0  0  0  0  0  0  0  0  0  0  0  0
   55.7075   22.8088   42.0171 H   0  0  0  0  0  0  0  0  0  0  0  0
   57.0090   19.5350   42.9780 H   0  0  0  0  0  0  0  0  0  0  0  0
   57.7214   20.5580   45.1171 H   0  0  0  0  0  0  0  0  0  0  0  0
   57.9748   22.6399   46.4676 H   0  0  0  0  0  0  0  0  0  0  0  0
   59.7166   27.8552   46.6672 H   0  0  0  0  0  0  0  0  0  0  0  0
   60.8492   27.4345   45.3192 H   0  0  0  0  0  0  0  0  0  0  0  0
   60.1519   29.9540   45.6862 H   0  0  0  0  0  0  0  0  0  0  0  0
   60.2065   29.2758   44.0213 H   0  0  0  0  0  0  0  0  0  0  0  0
   57.2747   31.4978   47.3618 H   0  0  0  0  0  0  0  0  0  0  0  0
   58.8074   30.5361   47.1967 H   0  0  0  0  0  0  0  0  0  0  0  0
   57.2445   33.6673   45.7604 H   0  0  0  0  0  0  0  0  0  0  0  0
   58.5514   35.7560   45.3917 H   0  0  0  0  0  0  0  0  0  0  0  0
   60.9765   35.8364   45.9575 H   0  0  0  0  0  0  0  0  0  0  0  0
   64.1632   31.8845   48.4852 H   0  0  0  0  0  0  0  0  0  0  0  0
   65.0288   33.3228   47.9245 H   0  0  0  0  0  0  0  0  0  0  0  0
   64.9306   32.4199   50.5928 H   0  0  0  0  0  0  0  0  0  0  0  0
   65.3761   34.0682   50.1248 H   0  0  0  0  0  0  0  0  0  0  0  0
   62.7848   33.0189   51.2461 H   0  0  0  0  0  0  0  0  0  0  0  0
   63.4590   34.6509   51.3778 H   0  0  0  0  0  0  0  0  0  0  0  0
   61.3634   33.9302   49.6656 H   0  0  0  0  0  0  0  0  0  0  0  0
   62.3798   35.3526   49.4040 H   0  0  0  0  0  0  0  0  0  0  0  0
   60.7893   31.7299   47.3277 H   0  0  0  0  0  0  0  0  0  0  0  0
   56.4944   28.4376   44.6031 H   0  0  0  0  0  0  0  0  0  0  0  0
   57.2000   29.0936   43.0719 H   0  0  0  0  0  0  0  0  0  0  0  0
   57.3921   26.5269   43.5262 H   0  0  0  0  0  0  0  0  0  0  0  0
   58.8480   27.4093   42.9618 H   0  0  0  0  0  0  0  0  0  0  0  0
  1  2  2  0
  2  3  1  0
  3  4  1  0
  4  5  2  0
  5  6  1  0
  6  7  2  0
  7  8  1  0
  7  9  1  0
  9 10  2  0
  2 11  1  0
 11 12  1  0
 12 13  1  0
 13 14  1  0
 14 15  1  0
 15 16  2  0
 15 17  1  0
 17 18  1  0
 18 19  2  0
 19 20  1  0
 20 21  2  0
 21 22  1  0
 22 23  1  0
 23 24  2  0
 23 25  1  0
 25 26  1  0
 26 27  1  0
 27 28  1  0
 28 29  1  0
 22 30  2  0
 14 31  1  0
 31 32  1  0
 10  4  1  0
 32 11  1  0
 30 18  1  0
 29 25  1  0
  3 33  1  0
  3 34  1  0
  5 35  1  0
  6 36  1  0
  8 37  1  0
  9 38  1  0
 10 39  1  0
 12 40  1  0
 12 41  1  0
 13 42  1  0
 13 43  1  0
 17 44  1  0
 17 45  1  0
 19 46  1  0
 20 47  1  0
 21 48  1  0
 26 49  1  0
 26 50  1  0
 27 51  1  0
 27 52  1  0
 28 53  1  0
 28 54  1  0
 29 55  1  0
 29 56  1  0
 30 57  1  0
 31 58  1  0
 31 59  1  0
 32 60  1  0
 32 61  1  0
M  END
>  <UniqueID>  (64) 
59

>  <SMILES>  (64) 
O=C(Cc1ccc(O)cc1)N1CCN(C(=O)Cc2cccc(C(=O)N3CCCC3)c2)CC1

>  <Energy>  (64) 
66.94350437688504

>  <Genealogy>  (64) 
O=C(Cc1ccc(O)cc1)N1CCN(C(=O)Cc2cccc(C(=O)N3CCCC3)c2)CC1 (3D coordinates assigned)
O=C(Cc1ccc(O)cc1)N1CCN(C(=O)Cc2cccc(C(=O)N3CCCC3)c2)CC1 (nonaromatic ring conformer: 66.94350437688504 kcal/mol)

>  <smiles>  (64) 
O=C(Cc1ccc(O)cc1)N1CCN(C(=O)Cc2cccc(C(=O)N3CCCC3)c2)CC1

>  <score_type>  (64) 
oracle

>  <origin>  (64) 
adg

>  <m_score__min__energy>  (64) 
-10.43

>  <m_primary>  (64) 
energy

$$$$
66:0
     RDKit          3D

 51 53  0  0  0  0  0  0  0  0999 V2000
   56.4560   31.4920   44.5320 O   0  0  0  0  0  0  0  0  0  0  0  0
   57.6930   31.7060   44.4190 C   0  0  0  0  0  0  0  0  0  0  0  0
   58.1640   33.0630   43.9820 C   0  0  0  0  0  0  0  0  0  0  0  0
   57.7510   34.1560   44.9770 C   0  0  0  0  0  0  0  0  0  0  0  0
   57.7480   33.6540   46.4280 C   0  0  0  0  0  0  0  0  0  0  0  0
   59.1290   33.7430   47.0200 C   0  0  0  0  0  0  0  0  0  0  0  0
   59.3050   33.7280   48.4130 C   0  0  0  0  0  0  0  0  0  0  0  0
   60.5900   33.7790   48.9610 C   0  0  0  0  0  0  0  0  0  0  0  0
   61.7070   33.8340   48.1230 C   0  0  0  0  0  0  0  0  0  0  0  0
   61.5420   33.8340   46.7360 C   0  0  0  0  0  0  0  0  0  0  0  0
   60.2570   33.7830   46.1840 C   0  0  0  0  0  0  0  0  0  0  0  0
   58.6480   30.6940   44.7760 N   0  0  0  0  0  0  0  0  0  0  0  0
   58.3020   29.3330   45.0840 C   0  0  0  0  0  0  0  0  0  0  0  0
   59.3070   28.3550   45.1050 C   0  0  0  0  0  0  0  0  0  0  0  0
   58.9930   27.0220   45.3790 C   0  0  0  0  0  0  0  0  0  0  0  0
   57.6650   26.6420   45.6140 C   0  0  0  0  0  0  0  0  0  0  0  0
   57.2660   24.9520   45.9390 S   0  0  0  0  0  0  0  0  0  0  0  0
   55.8280   24.8580   46.3700 O   0  0  0  0  0  0  0  0  0  0  0  0
   58.1240   24.4490   47.0670 O   0  0  0  0  0  0  0  0  0  0  0  0
   57.5110   23.9480   44.5290 N   0  0  0  0  0  0  0  0  0  0  0  0
   56.3370   24.0130   43.6380 C   0  0  0  0  0  0  0  0  0  0  0  0
   56.3020   22.7970   42.6980 C   0  0  0  0  0  0  0  0  0  0  0  0
   56.2260   21.5450   43.3720 O   0  0  0  0  0  0  0  0  0  0  0  0
   56.7150   21.5810   44.7060 C   0  0  0  0  0  0  0  0  0  0  0  0
   57.8830   22.5640   44.9000 C   0  0  0  0  0  0  0  0  0  0  0  0
   56.6550   27.6130   45.5800 C   0  0  0  0  0  0  0  0  0  0  0  0
   56.9680   28.9480   45.3080 C   0  0  0  0  0  0  0  0  0  0  0  0
   59.2610   33.0505   43.9015 H   0  0  0  0  0  0  0  0  0  0  0  0
   57.6995   33.2905   43.0112 H   0  0  0  0  0  0  0  0  0  0  0  0
   58.4581   34.9946   44.8945 H   0  0  0  0  0  0  0  0  0  0  0  0
   56.7261   34.4678   44.7273 H   0  0  0  0  0  0  0  0  0  0  0  0
   57.0587   34.2711   47.0230 H   0  0  0  0  0  0  0  0  0  0  0  0
   57.4231   32.6031   46.4400 H   0  0  0  0  0  0  0  0  0  0  0  0
   58.4284   33.6759   49.0755 H   0  0  0  0  0  0  0  0  0  0  0  0
   60.7221   33.7758   50.0530 H   0  0  0  0  0  0  0  0  0  0  0  0
   62.7172   33.8773   48.5561 H   0  0  0  0  0  0  0  0  0  0  0  0
   62.4222   33.8741   46.0775 H   0  0  0  0  0  0  0  0  0  0  0  0
   60.1299   33.7742   45.0914 H   0  0  0  0  0  0  0  0  0  0  0  0
   59.6400   30.9890   44.9180 H   0  0  0  0  0  0  0  0  0  0  0  0
   60.3503   28.6399   44.9042 H   0  0  0  0  0  0  0  0  0  0  0  0
   59.7921   26.2668   45.4105 H   0  0  0  0  0  0  0  0  0  0  0  0
   55.4212   24.0252   44.2473 H   0  0  0  0  0  0  0  0  0  0  0  0
   56.4031   24.9281   43.0311 H   0  0  0  0  0  0  0  0  0  0  0  0
   55.4230   22.8912   42.0434 H   0  0  0  0  0  0  0  0  0  0  0  0
   57.2493   22.8000   42.1389 H   0  0  0  0  0  0  0  0  0  0  0  0
   55.8921   21.8809   45.3715 H   0  0  0  0  0  0  0  0  0  0  0  0
   57.0931   20.5753   44.9416 H   0  0  0  0  0  0  0  0  0  0  0  0
   58.1875   22.5494   45.9569 H   0  0  0  0  0  0  0  0  0  0  0  0
   58.7068   22.2463   44.2439 H   0  0  0  0  0  0  0  0  0  0  0  0
   55.6107   27.3232   45.7683 H   0  0  0  0  0  0  0  0  0  0  0  0
   56.1671   29.7010   45.2690 H   0  0  0  0  0  0  0  0  0  0  0  0
  1  2  2  0
  2  3  1  0
  3  4  1  0
  4  5  1  0
  5  6  1  0
  6  7  2  0
  7  8  1  0
  8  9  2  0
  9 10  1  0
 10 11  2  0
  2 12  1  0
 12 13  1  0
 13 14  2  0
 14 15  1  0
 15 16  2  0
 16 17  1  0
 17 18  2  0
 17 19  2  0
 17 20  1  0
 20 21  1  0
 21 22  1  0
 22 23  1  0
 23 24  1  0
 24 25  1  0
 16 26  1  0
 26 27  2  0
 11  6  1  0
 27 13  1  0
 25 20  1  0
  3 28  1  0
  3 29  1  0
  4 30  1  0
  4 31  1  0
  5 32  1  0
  5 33  1  0
  7 34  1  0
  8 35  1  0
  9 36  1  0
 10 37  1  0
 11 38  1  0
 12 39  1  0
 14 40  1  0
 15 41  1  0
 21 42  1  0
 21 43  1  0
 22 44  1  0
 22 45  1  0
 24 46  1  0
 24 47  1  0
 25 48  1  0
 25 49  1  0
 26 50  1  0
 27 51  1  0
M  END
>  <UniqueID>  (65) 
60

>  <SMILES>  (65) 
O=C(CCCc1ccccc1)Nc1ccc(S(=O)(=O)N2CCOCC2)cc1

>  <Energy>  (65) 
61.28863088767454

>  <Genealogy>  (65) 
O=C(CCCc1ccccc1)Nc1ccc(S(=O)(=O)N2CCOCC2)cc1 (3D coordinates assigned)
O=C(CCCc1ccccc1)Nc1ccc(S(=O)(=O)N2CCOCC2)cc1 (nonaromatic ring conformer: 61.28863088767454 kcal/mol)

>  <smiles>  (65) 
O=C(CCCc1ccccc1)Nc1ccc(S(=O)(=O)N2CCOCC2)cc1

>  <score_type>  (65) 
oracle

>  <origin>  (65) 
adg

>  <m_score__min__energy>  (65) 
-9.8800000000000008

>  <m_primary>  (65) 
energy

$$$$
67:0
     RDKit          3D

 45 46  0  0  0  0  0  0  0  0999 V2000
   59.1512   30.5353   45.8558 H   0  0  0  0  0  0  0  0  0  0  0  0
   59.1110   30.4200   46.9490 C   0  0  0  0  0  0  0  0  0  0  0  0
   59.2600   29.1560   47.5240 C   0  0  0  0  0  0  0  0  0  0  0  0
   59.4068   28.2749   46.8820 H   0  0  0  0  0  0  0  0  0  0  0  0
   59.2230   29.0080   48.9150 C   0  0  0  0  0  0  0  0  0  0  0  0
   59.3416   28.0099   49.3620 H   0  0  0  0  0  0  0  0  0  0  0  0
   59.0350   30.1280   49.7450 C   0  0  0  0  0  0  0  0  0  0  0  0
   58.9810   29.9880   51.2180 C   0  0  0  0  0  0  0  0  0  0  0  0
   59.9920   29.5540   51.8360 O   0  0  0  0  0  0  0  0  0  0  0  0
   57.7950   30.3270   51.9520 N   0  0  0  0  0  0  0  0  0  0  0  0
   56.9230   30.6030   51.4530 H   0  0  0  0  0  0  0  0  0  0  0  0
   57.7910   30.3850   53.3850 C   0  0  0  0  0  0  0  0  0  0  0  0
   57.6320   29.3010   54.0920 N   0  0  0  0  0  0  0  0  0  0  0  0
   56.3520   28.6650   54.4000 C   0  0  0  0  0  0  0  0  0  0  0  0
   56.5374   27.7418   54.9686 H   0  0  0  0  0  0  0  0  0  0  0  0
   55.7461   29.3681   54.9903 H   0  0  0  0  0  0  0  0  0  0  0  0
   55.5840   28.3180   53.1180 C   0  0  0  0  0  0  0  0  0  0  0  0
   56.2578   28.4238   52.2550 H   0  0  0  0  0  0  0  0  0  0  0  0
   55.2191   27.2833   53.1967 H   0  0  0  0  0  0  0  0  0  0  0  0
   54.4360   29.2050   52.9400 N   0  0  0  0  0  0  0  0  0  0  0  0
   54.3930   30.3970   52.1410 C   0  0  0  0  0  0  0  0  0  0  0  0
   55.2950   30.5750   51.2800 O   0  0  0  0  0  0  0  0  0  0  0  0
   53.3270   31.4470   52.3020 C   0  0  0  0  0  0  0  0  0  0  0  0
   52.7890   31.2755   53.2460 H   0  0  0  0  0  0  0  0  0  0  0  0
   53.8021   32.4391   52.3124 H   0  0  0  0  0  0  0  0  0  0  0  0
   52.3560   31.3850   51.1620 C   0  0  0  0  0  0  0  0  0  0  0  0
   52.3900   30.4560   50.1890 N   0  0  0  0  0  0  0  0  0  0  0  0
   51.3790   30.8240   49.3710 C   0  0  0  0  0  0  0  0  0  0  0  0
   51.0860   30.1870   48.3250 O   0  0  0  0  0  0  0  0  0  0  0  0
   50.7130   31.9350   49.7560 N   0  0  0  0  0  0  0  0  0  0  0  0
   51.3480   32.2810   50.8890 C   0  0  0  0  0  0  0  0  0  0  0  0
   51.0210   33.3960   51.6510 O   0  0  0  0  0  0  0  0  0  0  0  0
   57.9510   31.6550   54.0470 N   0  0  0  0  0  0  0  0  0  0  0  0
   58.1440   32.8700   53.2490 C   0  0  0  0  0  0  0  0  0  0  0  0
   58.2808   33.7312   53.9195 H   0  0  0  0  0  0  0  0  0  0  0  0
   59.0350   32.7542   52.6144 H   0  0  0  0  0  0  0  0  0  0  0  0
   57.2610   33.0360   52.6144 H   0  0  0  0  0  0  0  0  0  0  0  0
   57.9280   31.7260   55.5130 C   0  0  0  0  0  0  0  0  0  0  0  0
   58.2414   30.7584   55.9319 H   0  0  0  0  0  0  0  0  0  0  0  0
   58.6171   32.5132   55.8528 H   0  0  0  0  0  0  0  0  0  0  0  0
   56.9082   31.9596   55.8528 H   0  0  0  0  0  0  0  0  0  0  0  0
   58.8690   31.3940   49.1520 C   0  0  0  0  0  0  0  0  0  0  0  0
   58.7051   32.2771   49.7870 H   0  0  0  0  0  0  0  0  0  0  0  0
   58.9110   31.5370   47.7620 C   0  0  0  0  0  0  0  0  0  0  0  0
   58.7863   32.5312   47.3082 H   0  0  0  0  0  0  0  0  0  0  0  0
  1  2  1  0
  2  3  2  0
  3  4  1  0
  3  5  1  0
  5  6  1  0
  5  7  2  0
  7  8  1  0
  8  9  2  0
  8 10  1  0
 10 11  1  0
 10 12  1  0
 12 13  2  0
 13 14  1  0
 14 15  1  0
 14 16  1  0
 14 17  1  0
 17 18  1  0
 17 19  1  0
 17 20  1  0
 20 21  1  0
 21 22  2  0
 21 23  1  0
 23 24  1  0
 23 25  1  0
 23 26  1  0
 26 27  1  0
 27 28  1  0
 28 29  2  0
 28 30  1  0
 30 31  1  0
 31 32  1  0
 12 33  1  0
 33 34  1  0
 34 35  1  0
 34 36  1  0
 34 37  1  0
 33 38  1  0
 38 39  1  0
 38 40  1  0
 38 41  1  0
  7 42  1  0
 42 43  1  0
 42 44  2  0
 44 45  1  0
 44  2  1  0
 31 26  2  0
M  CHG  4  20  -1  27  -1  30  -1  32  -1
M  END
>  <UniqueID>  (66) 
61

>  <SMILES>  (66) 
CN(C)/C(=N/CC[N-]C(=O)Cc1[n-]c(=O)[n-]c1[O-])NC(=O)c1ccccc1

>  <Energy>  (66) 
75.83037532479094

>  <Genealogy>  (66) 
CN(C)C(=NCC[N-]C(=O)Cc1[n-]c(=O)[n-]c1[O-])NC(=O)c1ccccc1 (protonated)
CN(C)/C(=N/CC[N-]C(=O)Cc1[n-]c(=O)[n-]c1[O-])NC(=O)c1ccccc1 (cis-trans isomerization)
CN(C)/C(=N/CC[N-]C(=O)Cc1[n-]c(=O)[n-]c1[O-])NC(=O)c1ccccc1 (3D coordinates assigned)
CN(C)/C(=N/CC[N-]C(=O)Cc1[n-]c(=O)[n-]c1[O-])NC(=O)c1ccccc1 (optimized conformer: 75.83037532479094 kcal/mol)

>  <smiles>  (66) 
CN(C)C(=NCCNC(=O)Cc1[nH]c(=O)[nH]c1O)NC(=O)c1ccccc1

>  <score_type>  (66) 
oracle

>  <origin>  (66) 
adg

>  <m_score__min__energy>  (66) 
-18.25

>  <m_primary>  (66) 
energy

$$$$
68:0
     RDKit          3D

 46 49  0  0  0  0  0  0  0  0999 V2000
   53.0290   23.7930   45.1320 C   0  0  0  0  0  0  0  0  0  0  0  0
   53.5420   25.0300   45.6100 O   0  0  0  0  0  0  0  0  0  0  0  0
   54.9090   25.3260   45.6230 C   0  0  0  0  0  0  0  0  0  0  0  0
   55.7510   24.4620   45.2610 O   0  0  0  0  0  0  0  0  0  0  0  0
   55.3670   26.6300   45.9960 N   0  0  0  0  0  0  0  0  0  0  0  0
   56.7060   27.1250   45.8590 C   0  0  0  0  0  0  0  0  0  0  0  0
   57.7740   26.5970   46.6040 C   0  0  0  0  0  0  0  0  0  0  0  0
   59.0670   27.0960   46.4290 C   0  0  0  0  0  0  0  0  0  0  0  0
   59.3100   28.1110   45.5020 C   0  0  0  0  0  0  0  0  0  0  0  0
   58.2590   28.6270   44.7240 C   0  0  0  0  0  0  0  0  0  0  0  0
   58.5030   29.6910   43.7820 N   0  0  0  0  0  0  0  0  0  0  0  0
   58.4120   30.9610   44.4560 C   0  0  0  0  0  0  0  0  0  0  0  0
   57.6160   32.0010   43.9130 C   0  0  0  0  0  0  0  0  0  0  0  0
   57.4950   33.2350   44.5740 C   0  0  0  0  0  0  0  0  0  0  0  0
   58.1670   33.4110   45.7820 C   0  0  0  0  0  0  0  0  0  0  0  0
   58.9350   32.3930   46.3290 C   0  0  0  0  0  0  0  0  0  0  0  0
   59.0750   31.1610   45.6850 C   0  0  0  0  0  0  0  0  0  0  0  0
   59.4660   32.8050   47.4740 C   0  0  0  0  0  0  0  0  0  0  0  0
   60.4410   32.0900   48.3610 C   0  0  0  0  0  0  0  0  0  0  0  0
   61.7940   32.7180   48.2460 C   0  0  0  0  0  0  0  0  0  0  0  0
   62.9280   32.1030   47.7500 C   0  0  0  0  0  0  0  0  0  0  0  0
   63.9210   33.0610   47.7630 C   0  0  0  0  0  0  0  0  0  0  0  0
   63.3500   34.2180   48.2580 C   0  0  0  0  0  0  0  0  0  0  0  0
   62.0530   34.0040   48.5460 N   0  0  0  0  0  0  0  0  0  0  0  0
   58.9910   34.1750   47.5930 C   0  0  0  0  0  0  0  0  0  0  0  0
   59.2700   34.9760   48.5230 O   0  0  0  0  0  0  0  0  0  0  0  0
   58.1580   34.4990   46.4850 N   0  0  0  0  0  0  0  0  0  0  0  0
   56.9590   28.1250   44.9110 C   0  0  0  0  0  0  0  0  0  0  0  0
   52.7632   23.1520   45.9855 H   0  0  0  0  0  0  0  0  0  0  0  0
   52.1339   23.9791   44.5204 H   0  0  0  0  0  0  0  0  0  0  0  0
   53.7931   23.2910   44.5204 H   0  0  0  0  0  0  0  0  0  0  0  0
   57.5914   25.7884   47.3271 H   0  0  0  0  0  0  0  0  0  0  0  0
   59.8970   26.6874   47.0241 H   0  0  0  0  0  0  0  0  0  0  0  0
   60.3283   28.5088   45.3798 H   0  0  0  0  0  0  0  0  0  0  0  0
   59.4500   29.5810   43.3490 H   0  0  0  0  0  0  0  0  0  0  0  0
   57.8070   29.6440   43.0000 H   0  0  0  0  0  0  0  0  0  0  0  0
   57.0865   31.8398   42.9624 H   0  0  0  0  0  0  0  0  0  0  0  0
   56.8836   34.0439   44.1475 H   0  0  0  0  0  0  0  0  0  0  0  0
   59.6897   30.3632   46.1273 H   0  0  0  0  0  0  0  0  0  0  0  0
   60.0979   32.1526   49.4043 H   0  0  0  0  0  0  0  0  0  0  0  0
   60.5048   31.0363   48.0516 H   0  0  0  0  0  0  0  0  0  0  0  0
   63.0203   31.0600   47.4128 H   0  0  0  0  0  0  0  0  0  0  0  0
   64.9647   32.9293   47.4417 H   0  0  0  0  0  0  0  0  0  0  0  0
   63.8779   35.1731   48.3962 H   0  0  0  0  0  0  0  0  0  0  0  0
   61.3770   34.7080   48.9180 H   0  0  0  0  0  0  0  0  0  0  0  0
   56.1308   28.5222   44.3058 H   0  0  0  0  0  0  0  0  0  0  0  0
  1  2  1  0
  2  3  1  0
  3  4  2  0
  3  5  1  0
  5  6  1  0
  6  7  2  0
  7  8  1  0
  8  9  2  0
  9 10  1  0
 10 11  1  0
 11 12  1  0
 12 13  1  0
 13 14  2  0
 14 15  1  0
 15 16  1  0
 16 17  1  0
 16 18  2  0
 18 19  1  0
 19 20  1  0
 20 21  2  0
 21 22  1  0
 22 23  2  0
 23 24  1  0
 18 25  1  0
 25 26  2  0
 25 27  1  0
 10 28  2  0
 28  6  1  0
 17 12  2  0
 24 20  1  0
 27 15  2  0
  1 29  1  0
  1 30  1  0
  1 31  1  0
  7 32  1  0
  8 33  1  0
  9 34  1  0
 11 35  1  0
 11 36  1  0
 13 37  1  0
 14 38  1  0
 17 39  1  0
 19 40  1  0
 19 41  1  0
 21 42  1  0
 22 43  1  0
 23 44  1  0
 24 45  1  0
 28 46  1  0
M  CHG  2   5  -1  11   1
M  END
>  <UniqueID>  (67) 
62

>  <SMILES>  (67) 
COC(=O)[N-]c1cccc([NH2+]c2ccc3c(c2)=C(Cc2ccc[nH]2)C(=O)N=3)c1

>  <Energy>  (67) 
106.81359260618706

>  <Genealogy>  (67) 
COC(=O)[N-]c1cccc([NH2+]c2ccc3c(c2)=C(Cc2ccc[nH]2)C(=O)N=3)c1 (protonated)
COC(=O)[N-]c1cccc([NH2+]c2ccc3c(c2)=C(Cc2ccc[nH]2)C(=O)N=3)c1 (3D coordinates assigned)
COC(=O)[N-]c1cccc([NH2+]c2ccc3c(c2)=C(Cc2ccc[nH]2)C(=O)N=3)c1 (nonaromatic ring conformer: 106.81359260618706 kcal/mol)

>  <smiles>  (67) 
COC(=O)Nc1cccc(Nc2ccc3c(c2)=C(Cc2ccc[nH]2)C(=O)N=3)c1

>  <score_type>  (67) 
oracle

>  <origin>  (67) 
adg

>  <m_score__min__energy>  (67) 
-9.3300000000000001

>  <m_primary>  (67) 
energy

$$$$
69:0
     RDKit          3D

 31 32  0  0  0  0  0  0  0  0999 V2000
   58.1770   30.9850   50.5780 C   0  0  0  0  0  0  0  0  0  0  0  0
   57.4320   30.0170   51.3090 O   0  0  0  0  0  0  0  0  0  0  0  0
   57.5470   29.7970   52.6920 C   0  0  0  0  0  0  0  0  0  0  0  0
   58.7560   29.3620   53.2710 C   0  0  0  0  0  0  0  0  0  0  0  0
   58.8470   29.1580   54.6490 C   0  0  0  0  0  0  0  0  0  0  0  0
   57.7390   29.3820   55.4630 C   0  0  0  0  0  0  0  0  0  0  0  0
   56.5340   29.8100   54.9050 C   0  0  0  0  0  0  0  0  0  0  0  0
   56.4230   30.0280   53.5160 C   0  0  0  0  0  0  0  0  0  0  0  0
   55.1840   30.4730   52.9260 N   0  0  0  0  0  0  0  0  0  0  0  0
   54.0650   29.5890   52.5900 C   0  0  0  0  0  0  0  0  0  0  0  0
   53.0570   30.3090   51.7350 C   0  0  0  0  0  0  0  0  0  0  0  0
   52.6650   29.7830   50.4930 C   0  0  0  0  0  0  0  0  0  0  0  0
   51.7290   30.4570   49.7040 C   0  0  0  0  0  0  0  0  0  0  0  0
   51.1790   31.6650   50.1450 C   0  0  0  0  0  0  0  0  0  0  0  0
   50.2480   32.3300   49.3570 O   0  0  0  0  0  0  0  0  0  0  0  0
   51.5700   32.2010   51.3780 C   0  0  0  0  0  0  0  0  0  0  0  0
   51.0300   33.4040   51.8200 O   0  0  0  0  0  0  0  0  0  0  0  0
   52.5080   31.5290   52.1690 C   0  0  0  0  0  0  0  0  0  0  0  0
   58.6937   31.6564   51.2796 H   0  0  0  0  0  0  0  0  0  0  0  0
   58.9182   30.4755   49.9448 H   0  0  0  0  0  0  0  0  0  0  0  0
   57.4947   31.5711   49.9448 H   0  0  0  0  0  0  0  0  0  0  0  0
   59.6337   29.1820   52.6329 H   0  0  0  0  0  0  0  0  0  0  0  0
   59.7951   28.8199   55.0927 H   0  0  0  0  0  0  0  0  0  0  0  0
   57.8143   29.2210   56.5486 H   0  0  0  0  0  0  0  0  0  0  0  0
   55.6624   29.9790   55.5544 H   0  0  0  0  0  0  0  0  0  0  0  0
   55.0340   31.4950   52.7710 H   0  0  0  0  0  0  0  0  0  0  0  0
   54.4468   28.7159   52.0405 H   0  0  0  0  0  0  0  0  0  0  0  0
   53.5749   29.2690   53.5213 H   0  0  0  0  0  0  0  0  0  0  0  0
   53.0972   28.8353   50.1394 H   0  0  0  0  0  0  0  0  0  0  0  0
   51.4242   30.0367   48.7342 H   0  0  0  0  0  0  0  0  0  0  0  0
   52.8174   31.9564   53.1342 H   0  0  0  0  0  0  0  0  0  0  0  0
  1  2  1  0
  2  3  1  0
  3  4  2  0
  4  5  1  0
  5  6  2  0
  6  7  1  0
  7  8  2  0
  8  9  1  0
  9 10  1  0
 10 11  1  0
 11 12  2  0
 12 13  1  0
 13 14  2  0
 14 15  1  0
 14 16  1  0
 16 17  1  0
 16 18  2  0
  8  3  1  0
 18 11  1  0
  1 19  1  0
  1 20  1  0
  1 21  1  0
  4 22  1  0
  5 23  1  0
  6 24  1  0
  7 25  1  0
  9 26  1  0
 10 27  1  0
 10 28  1  0
 12 29  1  0
 13 30  1  0
 18 31  1  0
M  CHG  2  15  -1  17  -1
M  END
>  <UniqueID>  (68) 
63

>  <SMILES>  (68) 
COc1ccccc1NCc1ccc([O-])c([O-])c1

>  <Energy>  (68) 
31.337318793549574

>  <Genealogy>  (68) 
COc1ccccc1NCc1ccc([O-])c([O-])c1 (protonated)
COc1ccccc1NCc1ccc([O-])c([O-])c1 (3D coordinates assigned)
COc1ccccc1NCc1ccc([O-])c([O-])c1 (optimized conformer: 31.337318793549574 kcal/mol)

>  <smiles>  (68) 
COc1ccccc1NCc1ccc(O)c(O)c1

>  <score_type>  (68) 
oracle

>  <origin>  (68) 
adg

>  <m_score__min__energy>  (68) 
-14.85

>  <m_primary>  (68) 
energy

$$$$
70:0
     RDKit          3D

 59 60  0  0  0  0  0  0  0  0999 V2000
   61.4340   30.1790   46.2350 N   0  0  0  0  0  0  0  0  0  0  0  0
   60.8000   29.2650   45.3360 C   0  0  0  0  0  0  0  0  0  0  0  0
   61.5220   28.4010   44.6850 N   0  0  0  0  0  0  0  0  0  0  0  0
   59.3720   29.3190   45.1780 N   0  0  0  0  0  0  0  0  0  0  0  0
   58.6400   28.5600   44.1580 C   0  0  0  0  0  0  0  0  0  0  0  0
   57.1200   28.5840   44.4080 C   0  0  0  0  0  0  0  0  0  0  0  0
   56.4060   29.7520   43.7050 C   0  0  0  0  0  0  0  0  0  0  0  0
   57.0340   31.0860   44.0090 C   0  0  0  0  0  0  0  0  0  0  0  0
   57.4470   31.9470   42.8790 C   0  0  0  0  0  0  0  0  0  0  0  0
   58.4610   32.6900   42.9480 O   0  0  0  0  0  0  0  0  0  0  0  0
   57.2590   31.3850   45.2580 N   0  0  0  0  0  0  0  0  0  0  0  0
   57.4780   32.6870   45.8190 C   0  0  0  0  0  0  0  0  0  0  0  0
   56.8680   33.6880   45.3500 O   0  0  0  0  0  0  0  0  0  0  0  0
   58.4010   32.8310   47.0020 C   0  0  2  0  0  0  0  0  0  0  0  0
   59.1480   34.1740   46.9430 C   0  0  0  0  0  0  0  0  0  0  0  0
   60.5870   34.0110   47.3610 C   0  0  0  0  0  0  0  0  0  0  0  0
   60.9290   34.0210   48.7240 C   0  0  0  0  0  0  0  0  0  0  0  0
   62.2590   33.8320   49.1170 C   0  0  0  0  0  0  0  0  0  0  0  0
   63.2510   33.6250   48.1560 C   0  0  0  0  0  0  0  0  0  0  0  0
   62.9170   33.6050   46.7990 C   0  0  0  0  0  0  0  0  0  0  0  0
   61.5900   33.7930   46.4000 C   0  0  0  0  0  0  0  0  0  0  0  0
   59.3730   31.7390   47.0420 N   0  0  0  0  0  0  0  0  0  0  0  0
   59.2730   30.6160   47.9200 C   0  0  0  0  0  0  0  0  0  0  0  0
   58.2240   29.9190   47.9090 O   0  0  0  0  0  0  0  0  0  0  0  0
   60.3310   30.2920   48.7760 O   0  0  0  0  0  0  0  0  0  0  0  0
   60.1290   29.9910   50.1540 C   0  0  0  0  0  0  0  0  0  0  0  0
   59.4280   31.1350   50.8240 C   0  0  0  0  0  0  0  0  0  0  0  0
   60.1540   32.1250   51.4990 C   0  0  0  0  0  0  0  0  0  0  0  0
   59.4840   33.1860   52.1100 C   0  0  0  0  0  0  0  0  0  0  0  0
   58.0920   33.2610   52.0190 C   0  0  0  0  0  0  0  0  0  0  0  0
   57.3990   32.3020   51.3480 N   0  0  0  0  0  0  0  0  0  0  0  0
   58.0310   31.2500   50.7560 C   0  0  0  0  0  0  0  0  0  0  0  0
   60.8830   30.9270   46.7130 H   0  0  0  0  0  0  0  0  0  0  0  0
   62.4630   30.1390   46.4010 H   0  0  0  0  0  0  0  0  0  0  0  0
   61.7320   27.4660   45.1010 H   0  0  0  0  0  0  0  0  0  0  0  0
   61.9130   28.6020   43.7400 H   0  0  0  0  0  0  0  0  0  0  0  0
   58.8470   29.9550   45.8210 H   0  0  0  0  0  0  0  0  0  0  0  0
   58.8455   29.0000   43.1710 H   0  0  0  0  0  0  0  0  0  0  0  0
   58.9773   27.5140   44.2026 H   0  0  0  0  0  0  0  0  0  0  0  0
   56.6907   27.6403   44.0404 H   0  0  0  0  0  0  0  0  0  0  0  0
   56.9697   28.7140   45.4899 H   0  0  0  0  0  0  0  0  0  0  0  0
   56.4442   29.5847   42.6185 H   0  0  0  0  0  0  0  0  0  0  0  0
   55.3711   29.7802   44.0768 H   0  0  0  0  0  0  0  0  0  0  0  0
   56.8522   31.9377   41.9537 H   0  0  0  0  0  0  0  0  0  0  0  0
   57.7852   32.7955   47.9128 H   0  0  0  0  0  0  0  0  0  0  0  0
   59.1140   34.5595   45.9133 H   0  0  0  0  0  0  0  0  0  0  0  0
   58.6600   34.8769   47.6342 H   0  0  0  0  0  0  0  0  0  0  0  0
   60.1494   34.1778   49.4840 H   0  0  0  0  0  0  0  0  0  0  0  0
   62.5234   33.8465   50.1847 H   0  0  0  0  0  0  0  0  0  0  0  0
   64.2957   33.4776   48.4672 H   0  0  0  0  0  0  0  0  0  0  0  0
   63.6995   33.4411   46.0434 H   0  0  0  0  0  0  0  0  0  0  0  0
   61.3301   33.7703   45.3314 H   0  0  0  0  0  0  0  0  0  0  0  0
   59.5148   29.0829   50.2436 H   0  0  0  0  0  0  0  0  0  0  0  0
   61.1033   29.8273   50.6377 H   0  0  0  0  0  0  0  0  0  0  0  0
   61.2514   32.0661   51.5474 H   0  0  0  0  0  0  0  0  0  0  0  0
   60.0468   33.9560   52.6581 H   0  0  0  0  0  0  0  0  0  0  0  0
   57.5553   34.0972   52.4909 H   0  0  0  0  0  0  0  0  0  0  0  0
   56.3580   32.3730   51.2870 H   0  0  0  0  0  0  0  0  0  0  0  0
   57.4439   30.4879   50.2227 H   0  0  0  0  0  0  0  0  0  0  0  0
  1  2  1  0
  2  3  2  0
  2  4  1  0
  4  5  1  0
  5  6  1  0
  6  7  1  0
  7  8  1  0
  8  9  1  0
  9 10  2  0
  8 11  2  3
 11 12  1  0
 12 13  2  0
 12 14  1  0
 14 15  1  0
 15 16  1  0
 16 17  2  0
 17 18  1  0
 18 19  2  0
 19 20  1  0
 20 21  2  0
 14 22  1  0
 22 23  1  0
 23 24  2  0
 23 25  1  0
 25 26  1  0
 26 27  1  0
 27 28  2  0
 28 29  1  0
 29 30  2  0
 30 31  1  0
 31 32  2  0
 21 16  1  0
 32 27  1  0
  1 33  1  0
  1 34  1  0
  3 35  1  0
  3 36  1  0
  4 37  1  0
  5 38  1  0
  5 39  1  0
  6 40  1  0
  6 41  1  0
  7 42  1  0
  7 43  1  0
  9 44  1  0
 14 45  1  1
 15 46  1  0
 15 47  1  0
 17 48  1  0
 18 49  1  0
 19 50  1  0
 20 51  1  0
 21 52  1  0
 26 53  1  0
 26 54  1  0
 28 55  1  0
 29 56  1  0
 30 57  1  0
 31 58  1  0
 32 59  1  0
M  CHG  3   3   1  22  -1  31   1
M  END
>  <UniqueID>  (69) 
64

>  <SMILES>  (69) 
NC(=[NH2+])NCCCC(C=O)=NC(=O)[C@H](Cc1ccccc1)[N-]C(=O)OCc1ccc[nH+]c1

>  <Energy>  (69) 
49.00692625688886

>  <Genealogy>  (69) 
NC(=[NH2+])NCCCC(C=O)=NC(=O)C(Cc1ccccc1)[N-]C(=O)OCc1ccc[nH+]c1 (protonated)
NC(=[NH2+])NCCCC(C=O)=NC(=O)[C@H](Cc1ccccc1)[N-]C(=O)OCc1ccc[nH+]c1 (chirality)
NC(=[NH2+])NCCCC(C=O)=NC(=O)[C@H](Cc1ccccc1)[N-]C(=O)OCc1ccc[nH+]c1 (3D coordinates assigned)
NC(=[NH2+])NCCCC(C=O)=NC(=O)[C@H](Cc1ccccc1)[N-]C(=O)OCc1ccc[nH+]c1 (optimized conformer: 49.00692625688886 kcal/mol)

>  <smiles>  (69) 
N=C(N)NCCCC(C=O)=NC(=O)C(Cc1ccccc1)NC(=O)OCc1cccnc1

>  <score_type>  (69) 
oracle

>  <origin>  (69) 
adg

>  <m_score__min__energy>  (69) 
-4.4800000000000004

>  <m_primary>  (69) 
energy

$$$$
71:0
     RDKit          3D

 40 42  0  0  1  0  0  0  0  0999 V2000
   61.0480   30.8050   46.7520 C   0  0  0  0  0  0  0  0  0  0  0  0
   61.0840   31.0990   48.2400 C   0  0  0  0  0  0  0  0  0  0  0  0
   59.7900   30.2090   49.1190 S   0  0  0  0  0  0  0  0  0  0  0  0
   59.4530   28.6870   48.3020 C   0  0  0  0  0  0  0  0  0  0  0  0
   60.4030   27.6660   48.4560 C   0  0  0  0  0  0  0  0  0  0  0  0
   60.2260   26.4450   47.9040 N   0  0  0  0  0  0  0  0  0  0  0  0
   59.1130   26.1820   47.1780 C   0  0  0  0  0  0  0  0  0  0  0  0
   58.1730   27.1820   47.0190 C   0  0  0  0  0  0  0  0  0  0  0  0
   56.9710   26.7940   46.2440 C   0  0  0  0  0  0  0  0  0  0  0  0
   56.0410   26.1280   46.7440 O   0  0  0  0  0  0  0  0  0  0  0  0
   56.9680   27.2420   44.8930 N   0  0  0  0  0  0  0  0  0  0  0  0
   56.7940   28.5830   44.7490 C   0  0  0  0  0  0  0  0  0  0  0  0
   55.7140   29.3490   44.9380 N   0  0  0  0  0  0  0  0  0  0  0  0
   55.9230   30.6040   44.6970 N   0  0  0  0  0  0  0  0  0  0  0  0
   56.8600   31.1820   44.3510 C   0  0  0  0  0  0  0  0  0  0  0  0
   57.3980   32.5400   44.0330 C   0  0  0  0  0  0  0  0  0  0  0  0
   58.0500   33.1630   45.2330 C   0  0  0  0  0  0  0  0  0  0  0  0
   58.8790   34.2450   45.0890 C   0  0  0  0  0  0  0  0  0  0  0  0
   59.4580   34.7630   46.2260 C   0  0  0  0  0  0  0  0  0  0  0  0
   59.2480   34.2530   47.4900 C   0  0  0  0  0  0  0  0  0  0  0  0
   58.4050   33.1550   47.6350 C   0  0  0  0  0  0  0  0  0  0  0  0
   57.8090   32.6150   46.4890 C   0  0  0  0  0  0  0  0  0  0  0  0
   58.1210   29.7140   44.2120 S   0  0  0  0  0  0  0  0  0  0  0  0
   58.3190   28.4340   47.5660 C   0  0  0  0  0  0  0  0  0  0  0  0
   60.9157   29.7244   46.5949 H   0  0  0  0  0  0  0  0  0  0  0  0
   60.2096   31.3479   46.2912 H   0  0  0  0  0  0  0  0  0  0  0  0
   61.9926   31.1296   46.2912 H   0  0  0  0  0  0  0  0  0  0  0  0
   62.0624   30.7955   48.6409 H   0  0  0  0  0  0  0  0  0  0  0  0
   60.9199   32.1772   48.3831 H   0  0  0  0  0  0  0  0  0  0  0  0
   61.3138   27.8640   49.0401 H   0  0  0  0  0  0  0  0  0  0  0  0
   58.9606   25.1917   46.7240 H   0  0  0  0  0  0  0  0  0  0  0  0
   54.7970   28.9580   45.2520 H   0  0  0  0  0  0  0  0  0  0  0  0
   58.1413   32.4513   43.2270 H   0  0  0  0  0  0  0  0  0  0  0  0
   56.5603   33.1810   43.7210 H   0  0  0  0  0  0  0  0  0  0  0  0
   59.0750   34.6842   44.0997 H   0  0  0  0  0  0  0  0  0  0  0  0
   60.1248   35.6315   46.1202 H   0  0  0  0  0  0  0  0  0  0  0  0
   59.7368   34.7048   48.3658 H   0  0  0  0  0  0  0  0  0  0  0  0
   58.2115   32.7214   48.6273 H   0  0  0  0  0  0  0  0  0  0  0  0
   57.1413   31.7459   46.5828 H   0  0  0  0  0  0  0  0  0  0  0  0
   57.5529   29.2097   47.4198 H   0  0  0  0  0  0  0  0  0  0  0  0
  1  2  1  0
  2  3  1  0
  3  4  1  0
  4  5  2  0
  5  6  1  0
  6  7  2  0
  7  8  1  0
  8  9  1  0
  9 10  2  0
  9 11  1  0
 11 12  2  0
 12 13  1  0
 13 14  1  0
 14 15  2  0
 15 16  1  0
 16 17  1  0
 17 18  2  0
 18 19  1  0
 19 20  2  0
 20 21  1  0
 21 22  2  0
 15 23  1  0
  8 24  2  0
 24  4  1  0
 23 12  1  0
 22 17  1  0
  1 25  1  0
  1 26  1  0
  1 27  1  0
  2 28  1  0
  2 29  1  0
  5 30  1  0
  7 31  1  0
 13 32  1  0
 16 33  1  0
 16 34  1  0
 18 35  1  0
 19 36  1  0
 20 37  1  0
 21 38  1  0
 22 39  1  0
 24 40  1  0
M  END
>  <smiles>  (70) 
CCSc1cncc(C(=O)N=c2[nH]nc(Cc3ccccc3)s2)c1

>  <score_type>  (70) 
oracle

>  <origin>  (70) 
adg

>  <m_score__min__energy>  (70) 
-9.3200000000000003

>  <m_primary>  (70) 
energy

$$$$
72:0
     RDKit          3D

 51 54  0  0  0  0  0  0  0  0999 V2000
   58.5380   34.7090   47.6990 O   0  0  0  0  0  0  0  0  0  0  0  0
   58.8290   34.0580   46.6590 C   0  0  0  0  0  0  0  0  0  0  0  0
   57.8440   33.2520   45.9890 N   0  0  0  0  0  0  0  0  0  0  0  0
   57.9890   32.0470   45.5250 C   0  0  0  0  0  0  0  0  0  0  0  0
   57.0460   31.4630   44.7550 N   0  0  0  0  0  0  0  0  0  0  0  0
   57.3910   30.1980   44.4070 C   0  0  0  0  0  0  0  0  0  0  0  0
   58.6080   29.7630   44.9210 C   0  0  0  0  0  0  0  0  0  0  0  0
   59.2150   28.4110   44.7250 C   0  0  0  0  0  0  0  0  0  0  0  0
   58.4310   27.3670   45.4700 C   0  0  0  0  0  0  0  0  0  0  0  0
   59.0890   26.4340   46.2850 C   0  0  0  0  0  0  0  0  0  0  0  0
   58.3540   25.4690   46.9780 C   0  0  0  0  0  0  0  0  0  0  0  0
   56.9600   25.4360   46.8740 C   0  0  0  0  0  0  0  0  0  0  0  0
   56.2940   26.3740   46.0780 C   0  0  0  0  0  0  0  0  0  0  0  0
   54.9040   26.3410   45.9970 O   0  0  0  0  0  0  0  0  0  0  0  0
   57.0300   27.3400   45.3760 C   0  0  0  0  0  0  0  0  0  0  0  0
   59.2870   31.0110   45.8190 S   0  0  0  0  0  0  0  0  0  0  0  0
   60.1850   34.0790   46.1990 N   0  0  0  0  0  0  0  0  0  0  0  0
   61.3360   33.5720   46.8900 C   0  0  0  0  0  0  0  0  0  0  0  0
   62.6030   33.8330   46.3590 C   0  0  0  0  0  0  0  0  0  0  0  0
   63.7550   33.3610   47.0020 C   0  0  0  0  0  0  0  0  0  0  0  0
   63.6430   32.6080   48.1720 C   0  0  0  0  0  0  0  0  0  0  0  0
   62.3770   32.3160   48.7040 C   0  0  0  0  0  0  0  0  0  0  0  0
   62.2410   31.3970   50.2030 S   0  0  0  0  0  0  0  0  0  0  0  0
   61.9150   32.3310   51.3350 O   0  0  0  0  0  0  0  0  0  0  0  0
   63.5540   30.7280   50.5020 O   0  0  0  0  0  0  0  0  0  0  0  0
   61.0090   30.1750   50.0270 N   0  0  0  0  0  0  0  0  0  0  0  0
   61.0560   29.5440   48.7080 C   0  0  0  0  0  0  0  0  0  0  0  0
   59.6560   29.0220   48.4360 C   0  0  0  0  0  0  0  0  0  0  0  0
   58.7420   29.8450   49.3360 C   0  0  0  0  0  0  0  0  0  0  0  0
   59.6690   30.7520   50.1300 C   0  0  0  0  0  0  0  0  0  0  0  0
   61.2280   32.7870   48.0540 C   0  0  0  0  0  0  0  0  0  0  0  0
   56.7574   29.5654   43.7679 H   0  0  0  0  0  0  0  0  0  0  0  0
   59.2149   28.1665   43.6525 H   0  0  0  0  0  0  0  0  0  0  0  0
   60.2447   28.4247   45.1116 H   0  0  0  0  0  0  0  0  0  0  0  0
   60.1847   26.4622   46.3785 H   0  0  0  0  0  0  0  0  0  0  0  0
   58.8740   24.7322   47.6079 H   0  0  0  0  0  0  0  0  0  0  0  0
   56.3864   24.6716   47.4187 H   0  0  0  0  0  0  0  0  0  0  0  0
   54.3250   26.6810   46.7590 H   0  0  0  0  0  0  0  0  0  0  0  0
   56.5082   28.0787   44.7499 H   0  0  0  0  0  0  0  0  0  0  0  0
   62.6960   34.4134   45.4292 H   0  0  0  0  0  0  0  0  0  0  0  0
   64.7480   33.5839   46.5846 H   0  0  0  0  0  0  0  0  0  0  0  0
   64.5486   32.2426   48.6783 H   0  0  0  0  0  0  0  0  0  0  0  0
   61.3432   30.2806   47.9432 H   0  0  0  0  0  0  0  0  0  0  0  0
   61.7983   28.7327   48.6788 H   0  0  0  0  0  0  0  0  0  0  0  0
   59.3888   29.1667   47.3788 H   0  0  0  0  0  0  0  0  0  0  0  0
   59.5719   27.9442   48.6392 H   0  0  0  0  0  0  0  0  0  0  0  0
   58.0432   30.4424   48.7320 H   0  0  0  0  0  0  0  0  0  0  0  0
   58.1316   29.2075   49.9925 H   0  0  0  0  0  0  0  0  0  0  0  0
   59.6597   31.7675   49.7073 H   0  0  0  0  0  0  0  0  0  0  0  0
   59.3486   30.8248   51.1798 H   0  0  0  0  0  0  0  0  0  0  0  0
   60.2341   32.5415   48.4563 H   0  0  0  0  0  0  0  0  0  0  0  0
  1  2  2  0
  2  3  1  0
  3  4  2  3
  4  5  1  0
  5  6  1  0
  6  7  2  0
  7  8  1  0
  8  9  1  0
  9 10  2  0
 10 11  1  0
 11 12  2  0
 12 13  1  0
 13 14  1  0
 13 15  2  0
  7 16  1  0
  2 17  1  0
 17 18  1  0
 18 19  2  0
 19 20  1  0
 20 21  2  0
 21 22  1  0
 22 23  1  0
 23 24  2  0
 23 25  2  0
 23 26  1  0
 26 27  1  0
 27 28  1  0
 28 29  1  0
 29 30  1  0
 22 31  2  0
 16  4  1  0
 31 18  1  0
 15  9  1  0
 30 26  1  0
  6 32  1  0
  8 33  1  0
  8 34  1  0
 10 35  1  0
 11 36  1  0
 12 37  1  0
 14 38  1  0
 15 39  1  0
 19 40  1  0
 20 41  1  0
 21 42  1  0
 27 43  1  0
 27 44  1  0
 28 45  1  0
 28 46  1  0
 29 47  1  0
 29 48  1  0
 30 49  1  0
 30 50  1  0
 31 51  1  0
M  CHG  2   5  -1  17  -1
M  END
>  <UniqueID>  (71) 
65

>  <SMILES>  (71) 
O=C(N=c1[n-]cc(Cc2cccc(O)c2)s1)[N-]c1cccc(S(=O)(=O)N2CCCC2)c1

>  <Energy>  (71) 
89.98112831976997

>  <Genealogy>  (71) 
O=C(N=c1[n-]cc(Cc2cccc(O)c2)s1)[N-]c1cccc(S(=O)(=O)N2CCCC2)c1 (protonated)
O=C(N=c1[n-]cc(Cc2cccc(O)c2)s1)[N-]c1cccc(S(=O)(=O)N2CCCC2)c1 (3D coordinates assigned)
O=C(N=c1[n-]cc(Cc2cccc(O)c2)s1)[N-]c1cccc(S(=O)(=O)N2CCCC2)c1 (nonaromatic ring conformer: 89.98112831976997 kcal/mol)

>  <smiles>  (71) 
O=C(N=c1[nH]cc(Cc2cccc(O)c2)s1)Nc1cccc(S(=O)(=O)N2CCCC2)c1

>  <score_type>  (71) 
oracle

>  <origin>  (71) 
adg

>  <m_score__min__energy>  (71) 
-12.67

>  <m_primary>  (71) 
energy

$$$$
73:0
     RDKit          3D

 47 50  0  0  0  0  0  0  0  0999 V2000
   62.9730   31.5470   47.4930 C   0  0  0  0  0  0  0  0  0  0  0  0
   63.3580   33.2760   47.6750 S   0  0  0  0  0  0  0  0  0  0  0  0
   63.7480   33.8410   46.3400 O   0  0  0  0  0  0  0  0  0  0  0  0
   64.5090   33.4350   48.6280 O   0  0  0  0  0  0  0  0  0  0  0  0
   61.9790   34.1170   48.3020 N   0  0  0  0  0  0  0  0  0  0  0  0
   60.6440   33.9030   47.8370 C   0  0  0  0  0  0  0  0  0  0  0  0
   60.2860   34.4210   46.5770 C   0  0  0  0  0  0  0  0  0  0  0  0
   58.9780   34.2380   46.1390 C   0  0  0  0  0  0  0  0  0  0  0  0
   58.0510   33.5950   46.8910 C   0  0  0  0  0  0  0  0  0  0  0  0
   58.3490   33.0860   48.1500 C   0  0  0  0  0  0  0  0  0  0  0  0
   59.6610   33.2500   48.6400 C   0  0  0  0  0  0  0  0  0  0  0  0
   60.0220   32.6850   50.3050 S   0  0  0  0  0  0  0  0  0  0  0  0
   60.1440   30.9750   49.7950 C   0  0  0  0  0  0  0  0  0  0  0  0
   60.6970   29.9470   50.5440 C   0  0  0  0  0  0  0  0  0  0  0  0
   60.6650   28.7140   49.8830 C   0  0  0  0  0  0  0  0  0  0  0  0
   60.0900   28.7830   48.6170 C   0  0  0  0  0  0  0  0  0  0  0  0
   59.8750   27.6320   47.6870 C   0  0  0  0  0  0  0  0  0  0  0  0
   59.3840   28.1330   46.3660 C   0  0  0  0  0  0  0  0  0  0  0  0
   60.0730   27.9290   45.3290 O   0  0  0  0  0  0  0  0  0  0  0  0
   58.1430   28.8540   46.2890 N   0  0  0  0  0  0  0  0  0  0  0  0
   57.7250   29.5880   45.1250 C   0  0  0  0  0  0  0  0  0  0  0  0
   58.5940   30.4970   44.4930 C   0  0  0  0  0  0  0  0  0  0  0  0
   58.1720   31.2150   43.3680 C   0  0  0  0  0  0  0  0  0  0  0  0
   56.8800   31.0400   42.8710 C   0  0  0  0  0  0  0  0  0  0  0  0
   55.9990   30.1590   43.5020 C   0  0  0  0  0  0  0  0  0  0  0  0
   56.4140   29.4380   44.6300 C   0  0  0  0  0  0  0  0  0  0  0  0
   55.5240   28.5640   45.2450 O   0  0  0  0  0  0  0  0  0  0  0  0
   59.6110   30.3690   48.3190 S   0  0  0  0  0  0  0  0  0  0  0  0
   56.8480   33.5600   46.2120 O   0  0  0  0  0  0  0  0  0  0  0  0
   57.0320   34.2200   44.9530 C   0  0  0  0  0  0  0  0  0  0  0  0
   58.4050   34.6390   44.9470 O   0  0  0  0  0  0  0  0  0  0  0  0
   62.8707   31.0875   48.4872 H   0  0  0  0  0  0  0  0  0  0  0  0
   62.0286   31.4379   46.9397 H   0  0  0  0  0  0  0  0  0  0  0  0
   63.7819   31.0475   46.9397 H   0  0  0  0  0  0  0  0  0  0  0  0
   61.0202   34.9555   45.9563 H   0  0  0  0  0  0  0  0  0  0  0  0
   57.5828   32.5698   48.7471 H   0  0  0  0  0  0  0  0  0  0  0  0
   61.1165   30.0862   51.5513 H   0  0  0  0  0  0  0  0  0  0  0  0
   61.0553   27.7831   50.3201 H   0  0  0  0  0  0  0  0  0  0  0  0
   60.8247   27.0956   47.5441 H   0  0  0  0  0  0  0  0  0  0  0  0
   59.1263   26.9514   48.1184 H   0  0  0  0  0  0  0  0  0  0  0  0
   57.4820   28.7830   47.0960 H   0  0  0  0  0  0  0  0  0  0  0  0
   59.6110   30.6441   44.8855 H   0  0  0  0  0  0  0  0  0  0  0  0
   58.8597   31.9180   42.8752 H   0  0  0  0  0  0  0  0  0  0  0  0
   56.5546   31.5972   41.9801 H   0  0  0  0  0  0  0  0  0  0  0  0
   54.9780   30.0308   43.1132 H   0  0  0  0  0  0  0  0  0  0  0  0
   56.8362   33.5270   44.1215 H   0  0  0  0  0  0  0  0  0  0  0  0
   56.3421   35.0675   44.8275 H   0  0  0  0  0  0  0  0  0  0  0  0
  1  2  1  0
  2  3  2  0
  2  4  2  0
  2  5  1  0
  5  6  1  0
  6  7  2  0
  7  8  1  0
  8  9  2  0
  9 10  1  0
 10 11  2  0
 11 12  1  0
 12 13  1  0
 13 14  2  0
 14 15  1  0
 15 16  2  0
 16 17  1  0
 17 18  1  0
 18 19  2  0
 18 20  1  0
 20 21  1  0
 21 22  2  0
 22 23  1  0
 23 24  2  0
 24 25  1  0
 25 26  2  0
 26 27  1  0
 16 28  1  0
  9 29  1  0
 29 30  1  0
 30 31  1  0
 11  6  1  0
 28 13  1  0
 31  8  1  0
 26 21  1  0
  1 32  1  0
  1 33  1  0
  1 34  1  0
  7 35  1  0
 10 36  1  0
 14 37  1  0
 15 38  1  0
 17 39  1  0
 17 40  1  0
 20 41  1  0
 22 42  1  0
 23 43  1  0
 24 44  1  0
 25 45  1  0
 30 46  1  0
 30 47  1  0
M  CHG  2   5  -1  27  -1
M  END
>  <UniqueID>  (72) 
66

>  <SMILES>  (72) 
CS(=O)(=O)[N-]c1cc2c(cc1Sc1ccc(CC(=O)Nc3ccccc3[O-])s1)OCO2

>  <Energy>  (72) 
106.5918832745879

>  <Genealogy>  (72) 
CS(=O)(=O)[N-]c1cc2c(cc1Sc1ccc(CC(=O)Nc3ccccc3[O-])s1)OCO2 (protonated)
CS(=O)(=O)[N-]c1cc2c(cc1Sc1ccc(CC(=O)Nc3ccccc3[O-])s1)OCO2 (3D coordinates assigned)
CS(=O)(=O)[N-]c1cc2c(cc1Sc1ccc(CC(=O)Nc3ccccc3[O-])s1)OCO2 (nonaromatic ring conformer: 106.5918832745879 kcal/mol)

>  <smiles>  (72) 
CS(=O)(=O)Nc1cc2c(cc1Sc1ccc(CC(=O)Nc3ccccc3O)s1)OCO2

>  <score_type>  (72) 
oracle

>  <origin>  (72) 
adg

>  <m_score__min__energy>  (72) 
-13.98

>  <m_primary>  (72) 
energy

$$$$
74:0
     RDKit          3D

 40 42  0  0  0  0  0  0  0  0999 V2000
   58.5080   34.9680   47.1080 O   0  0  0  0  0  0  0  0  0  0  0  0
   59.2220   34.2070   46.4020 C   0  0  0  0  0  0  0  0  0  0  0  0
   60.6380   34.4360   46.3590 N   0  0  0  0  0  0  0  0  0  0  0  0
   61.6340   33.8340   47.2010 C   0  0  0  0  0  0  0  0  0  0  0  0
   62.8570   33.3700   46.6900 C   0  0  0  0  0  0  0  0  0  0  0  0
   63.8030   32.7890   47.5390 C   0  0  0  0  0  0  0  0  0  0  0  0
   63.5580   32.6820   48.9230 C   0  0  0  0  0  0  0  0  0  0  0  0
   64.5460   32.0610   49.8550 C   0  0  0  0  0  0  0  0  0  0  0  0
   64.1740   31.0750   50.5520 O   0  0  0  0  0  0  0  0  0  0  0  0
   65.9170   32.5390   49.9410 N   0  0  0  0  0  0  0  0  0  0  0  0
   66.7930   31.5620   50.6070 C   0  0  0  0  0  0  0  0  0  0  0  0
   67.9190   32.3440   51.2800 C   0  0  0  0  0  0  0  0  0  0  0  0
   67.5230   33.8080   51.1720 C   0  0  0  0  0  0  0  0  0  0  0  0
   66.0760   33.7800   50.7140 C   0  0  0  0  0  0  0  0  0  0  0  0
   62.3470   33.1920   49.4280 C   0  0  0  0  0  0  0  0  0  0  0  0
   61.3990   33.7630   48.5750 C   0  0  0  0  0  0  0  0  0  0  0  0
   58.5770   33.0970   45.6680 C   0  0  0  0  0  0  0  0  0  0  0  0
   58.0910   33.3370   44.3700 C   0  0  0  0  0  0  0  0  0  0  0  0
   57.5050   32.3080   43.6300 C   0  0  0  0  0  0  0  0  0  0  0  0
   57.3870   31.0300   44.1810 C   0  0  0  0  0  0  0  0  0  0  0  0
   56.6550   29.7370   43.2480 Cl  0  0  0  0  0  0  0  0  0  0  0  0
   57.8430   30.7830   45.4790 C   0  0  0  0  0  0  0  0  0  0  0  0
   58.4320   31.8090   46.2300 C   0  0  0  0  0  0  0  0  0  0  0  0
   58.8950   31.4570   47.8930 Cl  0  0  0  0  0  0  0  0  0  0  0  0
   63.0716   33.4644   45.6153 H   0  0  0  0  0  0  0  0  0  0  0  0
   64.7486   32.4113   47.1229 H   0  0  0  0  0  0  0  0  0  0  0  0
   66.2780   32.7310   48.9770 H   0  0  0  0  0  0  0  0  0  0  0  0
   66.2235   30.9987   51.3609 H   0  0  0  0  0  0  0  0  0  0  0  0
   67.1992   30.8443   49.8790 H   0  0  0  0  0  0  0  0  0  0  0  0
   68.0136   32.0489   52.3354 H   0  0  0  0  0  0  0  0  0  0  0  0
   68.8908   32.1494   50.8027 H   0  0  0  0  0  0  0  0  0  0  0  0
   67.6119   34.3074   52.1481 H   0  0  0  0  0  0  0  0  0  0  0  0
   68.1697   34.3652   50.4782 H   0  0  0  0  0  0  0  0  0  0  0  0
   65.4007   33.7781   51.5823 H   0  0  0  0  0  0  0  0  0  0  0  0
   65.8287   34.6648   50.1091 H   0  0  0  0  0  0  0  0  0  0  0  0
   62.1444   33.1403   50.5080 H   0  0  0  0  0  0  0  0  0  0  0  0
   60.4604   34.1596   48.9895 H   0  0  0  0  0  0  0  0  0  0  0  0
   58.1733   34.3437   43.9343 H   0  0  0  0  0  0  0  0  0  0  0  0
   57.1361   32.5040   42.6124 H   0  0  0  0  0  0  0  0  0  0  0  0
   57.7389   29.7777   45.9133 H   0  0  0  0  0  0  0  0  0  0  0  0
  1  2  2  0
  2  3  1  0
  3  4  1  0
  4  5  2  0
  5  6  1  0
  6  7  2  0
  7  8  1  0
  8  9  2  0
  8 10  1  0
 10 11  1  0
 11 12  1  0
 12 13  1  0
 13 14  1  0
  7 15  1  0
 15 16  2  0
  2 17  1  0
 17 18  2  0
 18 19  1  0
 19 20  2  0
 20 21  1  0
 20 22  1  0
 22 23  2  0
 23 24  1  0
 16  4  1  0
 23 17  1  0
 14 10  1  0
  5 25  1  0
  6 26  1  0
 10 27  1  0
 11 28  1  0
 11 29  1  0
 12 30  1  0
 12 31  1  0
 13 32  1  0
 13 33  1  0
 14 34  1  0
 14 35  1  0
 15 36  1  0
 16 37  1  0
 18 38  1  0
 19 39  1  0
 22 40  1  0
M  CHG  2   3  -1  10   1
M  END
>  <UniqueID>  (73) 
67

>  <SMILES>  (73) 
O=C([N-]c1ccc(C(=O)[NH+]2CCCC2)cc1)c1ccc(Cl)cc1Cl

>  <Energy>  (73) 
59.38761570853128

>  <Genealogy>  (73) 
O=C([N-]c1ccc(C(=O)[NH+]2CCCC2)cc1)c1ccc(Cl)cc1Cl (protonated)
O=C([N-]c1ccc(C(=O)[NH+]2CCCC2)cc1)c1ccc(Cl)cc1Cl (3D coordinates assigned)
O=C([N-]c1ccc(C(=O)[NH+]2CCCC2)cc1)c1ccc(Cl)cc1Cl (nonaromatic ring conformer: 59.38761570853128 kcal/mol)

>  <smiles>  (73) 
O=C(Nc1ccc(C(=O)N2CCCC2)cc1)c1ccc(Cl)cc1Cl

>  <score_type>  (73) 
oracle

>  <origin>  (73) 
adg

>  <m_score__min__energy>  (73) 
-8.6099999999999994

>  <m_primary>  (73) 
energy

$$$$
75:0
     RDKit          3D

 67 71  0  0  0  0  0  0  0  0999 V2000
   52.6210   24.1260   44.9280 C   0  0  0  0  0  0  0  0  0  0  0  0
   54.1050   24.0790   45.0510 C   0  0  0  0  0  0  0  0  0  0  0  0
   54.9090   23.4780   44.1470 N   0  0  0  0  0  0  0  0  0  0  0  0
   56.1260   23.6230   44.7100 C   0  0  0  0  0  0  0  0  0  0  0  0
   57.3720   23.0320   44.1350 C   0  0  0  0  0  0  0  0  0  0  0  0
   56.0460   24.2560   45.9010 N   0  0  0  0  0  0  0  0  0  0  0  0
   57.1220   24.5590   46.8460 C   0  0  0  0  0  0  0  0  0  0  0  0
   57.7840   25.8600   46.4820 C   0  0  0  0  0  0  0  0  0  0  0  0
   57.7980   26.2970   45.1480 C   0  0  0  0  0  0  0  0  0  0  0  0
   58.4210   27.5010   44.8060 C   0  0  0  0  0  0  0  0  0  0  0  0
   59.0160   28.2990   45.7910 C   0  0  0  0  0  0  0  0  0  0  0  0
   59.6740   29.5090   45.3840 N   0  0  0  0  0  0  0  0  0  0  0  0
   59.8010   30.7190   46.1470 C   0  0  0  0  0  0  0  0  0  0  0  0
   60.7490   30.8620   46.9680 O   0  0  0  0  0  0  0  0  0  0  0  0
   58.8170   31.8090   45.9580 C   0  0  0  0  0  0  0  0  0  0  0  0
   58.3030   32.0220   44.6650 C   0  0  0  0  0  0  0  0  0  0  0  0
   57.4910   33.1260   44.3960 C   0  0  0  0  0  0  0  0  0  0  0  0
   57.1830   34.0360   45.4090 C   0  0  0  0  0  0  0  0  0  0  0  0
   57.6570   33.8250   46.7050 C   0  0  0  0  0  0  0  0  0  0  0  0
   58.4510   32.7010   47.0050 C   0  0  0  0  0  0  0  0  0  0  0  0
   58.8170   32.4550   48.3770 N   0  0  0  0  0  0  0  0  0  0  0  0
   58.1390   31.6630   49.1970 N   0  0  0  0  0  0  0  0  0  0  0  0
   58.7480   31.7420   50.3910 C   0  0  0  0  0  0  0  0  0  0  0  0
   58.3290   30.9350   51.5450 C   0  0  0  0  0  0  0  0  0  0  0  0
   57.4270   30.0710   51.4440 O   0  0  0  0  0  0  0  0  0  0  0  0
   59.8010   32.6430   50.2680 C   0  0  0  0  0  0  0  0  0  0  0  0
   60.6440   33.2480   51.3140 C   0  0  0  0  0  0  0  0  0  0  0  0
   60.1870   33.3430   52.4870 O   0  0  0  0  0  0  0  0  0  0  0  0
   61.9950   33.6430   51.0270 N   0  0  0  0  0  0  0  0  0  0  0  0
   62.7150   33.3750   49.7770 C   0  0  0  0  0  0  0  0  0  0  0  0
   62.5950   31.9080   49.3180 C   0  0  0  0  0  0  0  0  0  0  0  0
   63.4840   31.6310   48.0830 C   0  0  0  0  0  0  0  0  0  0  0  0
   63.6820   32.8640   47.1730 C   0  0  0  0  0  0  0  0  0  0  0  0
   62.4910   33.8300   47.2410 C   0  0  0  0  0  0  0  0  0  0  0  0
   62.2600   34.3620   48.6720 C   0  0  0  0  0  0  0  0  0  0  0  0
   59.8120   33.0770   48.9940 N   0  0  0  0  0  0  0  0  0  0  0  0
   59.0000   27.8610   47.1280 C   0  0  0  0  0  0  0  0  0  0  0  0
   58.3770   26.6580   47.4710 C   0  0  0  0  0  0  0  0  0  0  0  0
   54.7770   24.5350   46.1300 N   0  0  0  0  0  0  0  0  0  0  0  0
   52.1702   24.1403   45.9313 H   0  0  0  0  0  0  0  0  0  0  0  0
   52.3270   25.0339   44.3810 H   0  0  0  0  0  0  0  0  0  0  0  0
   52.2701   23.2385   44.3810 H   0  0  0  0  0  0  0  0  0  0  0  0
   58.0384   22.7159   44.9511 H   0  0  0  0  0  0  0  0  0  0  0  0
   57.1126   22.1610   43.5153 H   0  0  0  0  0  0  0  0  0  0  0  0
   57.8824   23.7840   43.5153 H   0  0  0  0  0  0  0  0  0  0  0  0
   56.7034   24.6359   47.8603 H   0  0  0  0  0  0  0  0  0  0  0  0
   57.8700   23.7533   46.8077 H   0  0  0  0  0  0  0  0  0  0  0  0
   57.3164   25.6891   44.3679 H   0  0  0  0  0  0  0  0  0  0  0  0
   58.4440   27.8240   43.7548 H   0  0  0  0  0  0  0  0  0  0  0  0
   58.5430   31.3126   43.8593 H   0  0  0  0  0  0  0  0  0  0  0  0
   57.0926   33.2791   43.3822 H   0  0  0  0  0  0  0  0  0  0  0  0
   56.5667   34.9194   45.1859 H   0  0  0  0  0  0  0  0  0  0  0  0
   57.4080   34.5436   47.4997 H   0  0  0  0  0  0  0  0  0  0  0  0
   58.8173   31.0925   52.5180 H   0  0  0  0  0  0  0  0  0  0  0  0
   63.7848   33.5388   49.9739 H   0  0  0  0  0  0  0  0  0  0  0  0
   62.9087   31.2484   50.1405 H   0  0  0  0  0  0  0  0  0  0  0  0
   61.5478   31.7151   49.0422 H   0  0  0  0  0  0  0  0  0  0  0  0
   64.4712   31.2956   48.4336 H   0  0  0  0  0  0  0  0  0  0  0  0
   62.9709   30.8660   47.4818 H   0  0  0  0  0  0  0  0  0  0  0  0
   64.5898   33.3974   47.4913 H   0  0  0  0  0  0  0  0  0  0  0  0
   63.7705   32.5084   46.1358 H   0  0  0  0  0  0  0  0  0  0  0  0
   62.6856   34.6816   46.5724 H   0  0  0  0  0  0  0  0  0  0  0  0
   61.5893   33.2806   46.9326 H   0  0  0  0  0  0  0  0  0  0  0  0
   62.8217   35.3004   48.7900 H   0  0  0  0  0  0  0  0  0  0  0  0
   61.1764   34.5077   48.7931 H   0  0  0  0  0  0  0  0  0  0  0  0
   59.4809   28.4693   47.9082 H   0  0  0  0  0  0  0  0  0  0  0  0
   58.3516   26.3353   48.5223 H   0  0  0  0  0  0  0  0  0  0  0  0
  1  2  1  0
  2  3  1  0
  3  4  2  0
  4  5  1  0
  4  6  1  0
  6  7  1  0
  7  8  1  0
  8  9  2  0
  9 10  1  0
 10 11  2  0
 11 12  1  0
 12 13  1  0
 13 14  2  0
 13 15  1  0
 15 16  2  0
 16 17  1  0
 17 18  2  0
 18 19  1  0
 19 20  2  0
 20 21  1  0
 21 22  1  0
 22 23  2  0
 23 24  1  0
 24 25  2  0
 23 26  1  0
 26 27  1  0
 27 28  2  0
 27 29  1  0
 29 30  1  0
 30 31  1  0
 31 32  1  0
 32 33  1  0
 33 34  1  0
 34 35  1  0
 26 36  2  0
 11 37  1  0
 37 38  2  0
  6 39  1  0
 39  2  2  0
 38  8  1  0
 20 15  1  0
 36 21  1  0
 35 30  1  0
  1 40  1  0
  1 41  1  0
  1 42  1  0
  5 43  1  0
  5 44  1  0
  5 45  1  0
  7 46  1  0
  7 47  1  0
  9 48  1  0
 10 49  1  0
 16 50  1  0
 17 51  1  0
 18 52  1  0
 19 53  1  0
 24 54  1  0
 30 55  1  0
 31 56  1  0
 31 57  1  0
 32 58  1  0
 32 59  1  0
 33 60  1  0
 33 61  1  0
 34 62  1  0
 34 63  1  0
 35 64  1  0
 35 65  1  0
 37 66  1  0
 38 67  1  0
M  CHG  2  12  -1  29  -1
M  END
>  <UniqueID>  (74) 
68

>  <SMILES>  (74) 
Cc1nc(C)n(Cc2ccc([N-]C(=O)c3ccccc3-n3nc(C=O)c(C(=O)[N-]C4CCCCC4)n3)cc2)n1

>  <Energy>  (74) 
155.92080397906108

>  <Genealogy>  (74) 
Cc1nc(C)n(Cc2ccc([N-]C(=O)c3ccccc3-n3nc(C=O)c(C(=O)[N-]C4CCCCC4)n3)cc2)n1 (protonated)
Cc1nc(C)n(Cc2ccc([N-]C(=O)c3ccccc3-n3nc(C=O)c(C(=O)[N-]C4CCCCC4)n3)cc2)n1 (3D coordinates assigned)
Cc1nc(C)n(Cc2ccc([N-]C(=O)c3ccccc3-n3nc(C=O)c(C(=O)[N-]C4CCCCC4)n3)cc2)n1 (nonaromatic ring conformer: 155.92080397906108 kcal/mol)

>  <smiles>  (74) 
Cc1nc(C)n(Cc2ccc(NC(=O)c3ccccc3-n3nc(C=O)c(C(=O)NC4CCCCC4)n3)cc2)n1

>  <score_type>  (74) 
oracle

>  <origin>  (74) 
adg

>  <m_score__min__energy>  (74) 
-12.76

>  <m_primary>  (74) 
energy

$$$$
76:0
     RDKit          3D

 29 30  0  0  0  0  0  0  0  0999 V2000
   58.1630   24.8590   45.3640 C   0  0  0  0  0  0  0  0  0  0  0  0
   58.2910   25.9830   46.0690 C   0  0  0  0  0  0  0  0  0  0  0  0
   57.6970   27.2770   45.6480 C   0  0  0  0  0  0  0  0  0  0  0  0
   56.3090   27.4890   45.6230 C   0  0  0  0  0  0  0  0  0  0  0  0
   55.4200   26.4760   45.9740 O   0  0  0  0  0  0  0  0  0  0  0  0
   55.8210   28.6890   45.2260 N   0  0  0  0  0  0  0  0  0  0  0  0
   56.6340   29.6970   44.8280 C   0  0  0  0  0  0  0  0  0  0  0  0
   56.1160   30.7900   44.4740 O   0  0  0  0  0  0  0  0  0  0  0  0
   57.9950   29.5230   44.8110 N   0  0  0  0  0  0  0  0  0  0  0  0
   58.8800   30.6060   44.3330 C   0  0  0  0  0  0  0  0  0  0  0  0
   58.6060   31.8830   45.0870 C   0  0  0  0  0  0  0  0  0  0  0  0
   58.7910   31.9420   46.4790 C   0  0  0  0  0  0  0  0  0  0  0  0
   58.5670   33.1350   47.1700 C   0  0  0  0  0  0  0  0  0  0  0  0
   58.1600   34.2800   46.4790 C   0  0  0  0  0  0  0  0  0  0  0  0
   57.9770   34.2310   45.0950 C   0  0  0  0  0  0  0  0  0  0  0  0
   58.2010   33.0390   44.3990 C   0  0  0  0  0  0  0  0  0  0  0  0
   58.5300   28.3220   45.2080 C   0  0  0  0  0  0  0  0  0  0  0  0
   59.7810   28.1480   45.1950 O   0  0  0  0  0  0  0  0  0  0  0  0
   58.6250   23.9281   45.7245 H   0  0  0  0  0  0  0  0  0  0  0  0
   57.5954   24.8624   44.4218 H   0  0  0  0  0  0  0  0  0  0  0  0
   58.8640   25.9503   47.0074 H   0  0  0  0  0  0  0  0  0  0  0  0
   55.1370   26.3420   46.9370 H   0  0  0  0  0  0  0  0  0  0  0  0
   59.9285   30.3118   44.4881 H   0  0  0  0  0  0  0  0  0  0  0  0
   58.6884   30.7762   43.2633 H   0  0  0  0  0  0  0  0  0  0  0  0
   59.1137   31.0444   47.0269 H   0  0  0  0  0  0  0  0  0  0  0  0
   58.7111   33.1736   48.2598 H   0  0  0  0  0  0  0  0  0  0  0  0
   57.9840   35.2188   47.0246 H   0  0  0  0  0  0  0  0  0  0  0  0
   57.6560   35.1319   44.5515 H   0  0  0  0  0  0  0  0  0  0  0  0
   58.0596   33.0063   43.3086 H   0  0  0  0  0  0  0  0  0  0  0  0
  1  2  2  0
  2  3  1  0
  3  4  2  0
  4  5  1  0
  4  6  1  0
  6  7  1  0
  7  8  2  0
  7  9  1  0
  9 10  1  0
 10 11  1  0
 11 12  2  0
 12 13  1  0
 13 14  2  0
 14 15  1  0
 15 16  2  0
  9 17  1  0
 17 18  2  0
 17  3  1  0
 16 11  1  0
  1 19  1  0
  1 20  1  0
  2 21  1  0
  5 22  1  0
 10 23  1  0
 10 24  1  0
 12 25  1  0
 13 26  1  0
 14 27  1  0
 15 28  1  0
 16 29  1  0
M  CHG  1   6  -1
M  END
>  <UniqueID>  (75) 
69

>  <SMILES>  (75) 
C=Cc1c(O)[n-]c(=O)n(Cc2ccccc2)c1=O

>  <Energy>  (75) 
37.654170956259485

>  <Genealogy>  (75) 
C=Cc1c(O)[n-]c(=O)n(Cc2ccccc2)c1=O (protonated)
C=Cc1c(O)[n-]c(=O)n(Cc2ccccc2)c1=O (3D coordinates assigned)
C=Cc1c(O)[n-]c(=O)n(Cc2ccccc2)c1=O (optimized conformer: 37.654170956259485 kcal/mol)

>  <smiles>  (75) 
C=Cc1c(O)[nH]c(=O)n(Cc2ccccc2)c1=O

>  <score_type>  (75) 
oracle

>  <origin>  (75) 
adg

>  <m_score__min__energy>  (75) 
-8.9499999999999993

>  <m_primary>  (75) 
energy

$$$$
77:0
     RDKit          3D

 35 37  0  0  0  0  0  0  0  0999 V2000
   57.0650   30.2880   44.4780 H   0  0  0  0  0  0  0  0  0  0  0  0
   56.3670   29.7270   44.9520 O   0  0  0  0  0  0  0  0  0  0  0  0
   56.7270   28.5690   45.6380 C   0  0  0  0  0  0  0  0  0  0  0  0
   55.9000   27.4910   45.6170 N   0  0  0  0  0  0  0  0  0  0  0  0
   56.2300   26.3410   46.2600 C   0  0  0  0  0  0  0  0  0  0  0  0
   55.4470   25.3560   46.2280 O   0  0  0  0  0  0  0  0  0  0  0  0
   57.4060   26.2510   46.9320 N   0  0  0  0  0  0  0  0  0  0  0  0
   58.2670   27.3000   46.9840 C   0  0  0  0  0  0  0  0  0  0  0  0
   59.3500   27.1810   47.6160 O   0  0  0  0  0  0  0  0  0  0  0  0
   57.9390   28.5070   46.3440 C   0  0  0  0  0  0  0  0  0  0  0  0
   58.8730   29.6570   46.3660 C   0  0  0  0  0  0  0  0  0  0  0  0
   58.9310   30.5270   45.3940 N   0  0  0  0  0  0  0  0  0  0  0  0
   58.5020   31.8980   45.4030 C   0  0  0  0  0  0  0  0  0  0  0  0
   57.1830   32.2280   45.2870 N   0  0  0  0  0  0  0  0  0  0  0  0
   56.7600   33.5200   45.3270 C   0  0  0  0  0  0  0  0  0  0  0  0
   55.6902   33.7514   45.2173 H   0  0  0  0  0  0  0  0  0  0  0  0
   57.6810   34.5520   45.5070 C   0  0  0  0  0  0  0  0  0  0  0  0
   57.3445   35.5988   45.5383 H   0  0  0  0  0  0  0  0  0  0  0  0
   59.0350   34.2410   45.6470 C   0  0  0  0  0  0  0  0  0  0  0  0
   59.7731   35.0437   45.7915 H   0  0  0  0  0  0  0  0  0  0  0  0
   59.4500   32.9070   45.6030 C   0  0  0  0  0  0  0  0  0  0  0  0
   60.5133   32.6527   45.7246 H   0  0  0  0  0  0  0  0  0  0  0  0
   59.8090   29.7440   47.4540 N   0  0  0  0  0  0  0  0  0  0  0  0
   59.9890   28.8780   48.0110 H   0  0  0  0  0  0  0  0  0  0  0  0
   60.5780   30.9180   47.7700 C   0  0  0  0  0  0  0  0  0  0  0  0
   61.8570   31.0730   47.2150 C   0  0  0  0  0  0  0  0  0  0  0  0
   62.2534   30.3075   46.5317 H   0  0  0  0  0  0  0  0  0  0  0  0
   62.6310   32.1960   47.5260 C   0  0  0  0  0  0  0  0  0  0  0  0
   63.6281   32.3169   47.0775 H   0  0  0  0  0  0  0  0  0  0  0  0
   62.1400   33.1640   48.4050 C   0  0  0  0  0  0  0  0  0  0  0  0
   62.7473   34.0497   48.6430 H   0  0  0  0  0  0  0  0  0  0  0  0
   60.8770   33.0070   48.9820 C   0  0  0  0  0  0  0  0  0  0  0  0
   60.4940   33.7654   49.6806 H   0  0  0  0  0  0  0  0  0  0  0  0
   60.0990   31.8860   48.6720 C   0  0  0  0  0  0  0  0  0  0  0  0
   59.1091   31.7610   49.1352 H   0  0  0  0  0  0  0  0  0  0  0  0
  1  2  1  0
  2  3  1  0
  3  4  1  0
  4  5  1  0
  5  6  2  0
  5  7  1  0
  7  8  1  0
  8  9  2  0
  8 10  1  0
 10 11  1  0
 11 12  2  0
 12 13  1  0
 13 14  2  0
 14 15  1  0
 15 16  1  0
 15 17  2  0
 17 18  1  0
 17 19  1  0
 19 20  1  0
 19 21  2  0
 21 22  1  0
 11 23  1  0
 23 24  1  0
 23 25  1  0
 25 26  2  0
 26 27  1  0
 26 28  1  0
 28 29  1  0
 28 30  2  0
 30 31  1  0
 30 32  1  0
 32 33  1  0
 32 34  2  0
 34 35  1  0
 10  3  2  0
 21 13  1  0
 34 25  1  0
M  CHG  2   4  -1   7  -1
M  END
>  <UniqueID>  (76) 
70

>  <SMILES>  (76) 
O=c1[n-]c(O)c(/C(=N/c2ccccn2)Nc2ccccc2)c(=O)[n-]1

>  <Energy>  (76) 
53.96796659299898

>  <Genealogy>  (76) 
O=c1[n-]c(O)c(C(=Nc2ccccn2)Nc2ccccc2)c(=O)[n-]1 (protonated)
O=c1[n-]c(O)c(/C(=N/c2ccccn2)Nc2ccccc2)c(=O)[n-]1 (cis-trans isomerization)
O=c1[n-]c(O)c(/C(=N/c2ccccn2)Nc2ccccc2)c(=O)[n-]1 (3D coordinates assigned)
O=c1[n-]c(O)c(/C(=N/c2ccccn2)Nc2ccccc2)c(=O)[n-]1 (optimized conformer: 53.96796659299898 kcal/mol)

>  <smiles>  (76) 
O=c1[nH]c(O)c(C(=Nc2ccccn2)Nc2ccccc2)c(=O)[nH]1

>  <score_type>  (76) 
oracle

>  <origin>  (76) 
adg

>  <m_score__min__energy>  (76) 
-10.550000000000001

>  <m_primary>  (76) 
energy

$$$$
78:0
     RDKit          3D

 25 26  0  0  1  0  0  0  0  0999 V2000
   57.4660   31.7080   42.1360 N   0  0  0  0  0  0  0  0  0  0  0  0
   57.7460   31.6690   43.4140 C   0  0  0  0  0  0  0  0  0  0  0  0
   57.4770   32.7360   44.1860 N   0  0  0  0  0  0  0  0  0  0  0  0
   57.7570   32.7310   45.5230 C   0  0  0  0  0  0  0  0  0  0  0  0
   58.3240   31.5700   46.0050 C   0  0  0  0  0  0  0  0  0  0  0  0
   58.5930   30.4770   45.1870 C   0  0  0  0  0  0  0  0  0  0  0  0
   59.1200   29.4560   45.7500 N   0  0  0  0  0  0  0  0  0  0  0  0
   58.4300   28.2100   45.7320 C   0  0  0  0  0  0  0  0  0  0  0  0
   59.1870   27.0660   45.4530 C   0  0  0  0  0  0  0  0  0  0  0  0
   58.6180   25.8100   45.4120 C   0  0  0  0  0  0  0  0  0  0  0  0
   57.2480   25.6680   45.6530 C   0  0  0  0  0  0  0  0  0  0  0  0
   56.4940   26.8110   45.9300 C   0  0  0  0  0  0  0  0  0  0  0  0
   55.1250   26.6610   46.1710 O   0  0  0  0  0  0  0  0  0  0  0  0
   57.0960   28.0680   45.9670 C   0  0  0  0  0  0  0  0  0  0  0  0
   58.2980   30.5390   43.8840 N   0  0  0  0  0  0  0  0  0  0  0  0
   56.7270   32.4340   41.8940 H   0  0  0  0  0  0  0  0  0  0  0  0
   57.0460   33.6200   43.8150 H   0  0  0  0  0  0  0  0  0  0  0  0
   57.5447   33.5942   46.1710 H   0  0  0  0  0  0  0  0  0  0  0  0
   58.5726   31.5057   47.0746 H   0  0  0  0  0  0  0  0  0  0  0  0
   60.2650   27.1715   45.2612 H   0  0  0  0  0  0  0  0  0  0  0  0
   59.2368   24.9277   45.1916 H   0  0  0  0  0  0  0  0  0  0  0  0
   56.7734   24.6761   45.6250 H   0  0  0  0  0  0  0  0  0  0  0  0
   54.7970   26.7170   47.1250 H   0  0  0  0  0  0  0  0  0  0  0  0
   56.4860   28.9561   46.1887 H   0  0  0  0  0  0  0  0  0  0  0  0
   58.5010   29.7260   43.2890 H   0  0  0  0  0  0  0  0  0  0  0  0
  1  2  2  3
  2  3  1  0
  3  4  1  0
  4  5  2  0
  5  6  1  0
  6  7  2  0
  7  8  1  0
  8  9  2  0
  9 10  1  0
 10 11  2  0
 11 12  1  0
 12 13  1  0
 12 14  2  0
  6 15  1  0
 15  2  1  0
 14  8  1  0
  1 16  1  0
  3 17  1  0
  4 18  1  0
  5 19  1  0
  9 20  1  0
 10 21  1  0
 11 22  1  0
 13 23  1  0
 14 24  1  0
 15 25  1  0
M  END
>  <smiles>  (77) 
N=c1[nH]ccc(=Nc2cccc(O)c2)[nH]1

>  <score_type>  (77) 
oracle

>  <origin>  (77) 
adg

>  <m_score__min__energy>  (77) 
-6.2300000000000004

>  <m_primary>  (77) 
energy

$$$$
79:0
     RDKit          3D

 48 51  0  0  0  0  0  0  0  0999 V2000
   57.8840   20.5250   46.3050 C   0  0  0  0  0  0  0  0  0  0  0  0
   58.4260   21.5220   45.3240 C   0  0  0  0  0  0  0  0  0  0  0  0
   59.5870   21.8860   45.4240 O   0  0  0  0  0  0  0  0  0  0  0  0
   57.5720   22.0620   44.2090 C   0  0  0  0  0  0  0  0  0  0  0  0
   56.8350   23.2920   44.6720 C   0  0  0  0  0  0  0  0  0  0  0  0
   57.5340   24.5000   44.8300 C   0  0  0  0  0  0  0  0  0  0  0  0
   56.8810   25.6570   45.2900 C   0  0  0  0  0  0  0  0  0  0  0  0
   57.6450   26.9190   45.4380 C   0  0  0  0  0  0  0  0  0  0  0  0
   58.9580   26.9040   45.9360 C   0  0  0  0  0  0  0  0  0  0  0  0
   59.6680   28.0970   46.0900 C   0  0  0  0  0  0  0  0  0  0  0  0
   59.0780   29.3150   45.7470 C   0  0  0  0  0  0  0  0  0  0  0  0
   57.7690   29.3510   45.2390 C   0  0  0  0  0  0  0  0  0  0  0  0
   57.1340   30.6400   44.8860 C   0  0  0  0  0  0  0  0  0  0  0  0
   55.9330   30.6520   44.5000 O   0  0  0  0  0  0  0  0  0  0  0  0
   57.8730   31.8710   44.9450 N   0  0  0  0  0  0  0  0  0  0  0  0
   57.8810   32.8650   43.8660 C   0  0  0  0  0  0  0  0  0  0  0  0
   58.3990   34.1820   44.4930 C   0  0  0  0  0  0  0  0  0  0  0  0
   58.6360   33.8170   45.9140 C   0  0  0  0  0  0  0  0  0  0  0  0
   59.1210   34.6300   46.9410 C   0  0  0  0  0  0  0  0  0  0  0  0
   59.2890   34.0700   48.2160 C   0  0  0  0  0  0  0  0  0  0  0  0
   58.9800   32.7150   48.4410 C   0  0  0  0  0  0  0  0  0  0  0  0
   58.4960   31.9160   47.3930 C   0  0  0  0  0  0  0  0  0  0  0  0
   58.3220   32.5040   46.1340 C   0  0  0  0  0  0  0  0  0  0  0  0
   57.0530   28.1490   45.1010 C   0  0  0  0  0  0  0  0  0  0  0  0
   55.5120   25.5870   45.6140 C   0  0  0  0  0  0  0  0  0  0  0  0
   54.8400   26.7000   46.1090 O   0  0  0  0  0  0  0  0  0  0  0  0
   54.8160   24.3840   45.4660 C   0  0  0  0  0  0  0  0  0  0  0  0
   55.4690   23.2380   45.0060 C   0  0  0  0  0  0  0  0  0  0  0  0
   54.7560   22.0510   44.8870 O   0  0  0  0  0  0  0  0  0  0  0  0
   58.0755   20.8772   47.3294 H   0  0  0  0  0  0  0  0  0  0  0  0
   56.8005   20.4123   46.1525 H   0  0  0  0  0  0  0  0  0  0  0  0
   58.3786   19.5544   46.1525 H   0  0  0  0  0  0  0  0  0  0  0  0
   58.2123   22.3219   43.3532 H   0  0  0  0  0  0  0  0  0  0  0  0
   56.8419   21.2953   43.9103 H   0  0  0  0  0  0  0  0  0  0  0  0
   58.6068   24.5414   44.5906 H   0  0  0  0  0  0  0  0  0  0  0  0
   59.4298   25.9478   46.2062 H   0  0  0  0  0  0  0  0  0  0  0  0
   60.6953   28.0768   46.4828 H   0  0  0  0  0  0  0  0  0  0  0  0
   59.6411   30.2512   45.8753 H   0  0  0  0  0  0  0  0  0  0  0  0
   58.5490   32.5409   43.0544 H   0  0  0  0  0  0  0  0  0  0  0  0
   56.8776   32.9950   43.4345 H   0  0  0  0  0  0  0  0  0  0  0  0
   59.3317   34.5080   44.0095 H   0  0  0  0  0  0  0  0  0  0  0  0
   57.6951   35.0192   44.3763 H   0  0  0  0  0  0  0  0  0  0  0  0
   59.3658   35.6860   46.7541 H   0  0  0  0  0  0  0  0  0  0  0  0
   59.6634   34.6915   49.0428 H   0  0  0  0  0  0  0  0  0  0  0  0
   59.1184   32.2806   49.4421 H   0  0  0  0  0  0  0  0  0  0  0  0
   58.2593   30.8543   47.5568 H   0  0  0  0  0  0  0  0  0  0  0  0
   56.0193   28.1710   44.7256 H   0  0  0  0  0  0  0  0  0  0  0  0
   53.7452   24.3393   45.7138 H   0  0  0  0  0  0  0  0  0  0  0  0
  1  2  1  0
  2  3  2  0
  2  4  1  0
  4  5  1  0
  5  6  2  0
  6  7  1  0
  7  8  1  0
  8  9  2  0
  9 10  1  0
 10 11  2  0
 11 12  1  0
 12 13  1  0
 13 14  2  0
 13 15  1  0
 15 16  1  0
 16 17  1  0
 17 18  1  0
 18 19  2  0
 19 20  1  0
 20 21  2  0
 21 22  1  0
 22 23  2  0
 12 24  2  0
  7 25  2  0
 25 26  1  0
 25 27  1  0
 27 28  2  0
 28 29  1  0
 28  5  1  0
 24  8  1  0
 23 15  1  0
 23 18  1  0
  1 30  1  0
  1 31  1  0
  1 32  1  0
  4 33  1  0
  4 34  1  0
  6 35  1  0
  9 36  1  0
 10 37  1  0
 11 38  1  0
 16 39  1  0
 16 40  1  0
 17 41  1  0
 17 42  1  0
 19 43  1  0
 20 44  1  0
 21 45  1  0
 22 46  1  0
 24 47  1  0
 27 48  1  0
M  CHG  2  26  -1  29  -1
M  END
>  <UniqueID>  (78) 
71

>  <SMILES>  (78) 
CC(=O)Cc1cc(-c2cccc(C(=O)N3CCc4ccccc43)c2)c([O-])cc1[O-]

>  <Energy>  (78) 
75.4761087022828

>  <Genealogy>  (78) 
CC(=O)Cc1cc(-c2cccc(C(=O)N3CCc4ccccc43)c2)c([O-])cc1[O-] (protonated)
CC(=O)Cc1cc(-c2cccc(C(=O)N3CCc4ccccc43)c2)c([O-])cc1[O-] (3D coordinates assigned)
CC(=O)Cc1cc(-c2cccc(C(=O)N3CCc4ccccc43)c2)c([O-])cc1[O-] (nonaromatic ring conformer: 75.4761087022828 kcal/mol)

>  <smiles>  (78) 
CC(=O)Cc1cc(-c2cccc(C(=O)N3CCc4ccccc43)c2)c(O)cc1O

>  <score_type>  (78) 
oracle

>  <origin>  (78) 
adg

>  <m_score__min__energy>  (78) 
-16.07

>  <m_primary>  (78) 
energy

$$$$
80:0
     RDKit          3D

 57 60  0  0  0  0  0  0  0  0999 V2000
   59.3015   26.3395   47.4709 H   0  0  0  0  0  0  0  0  0  0  0  0
   58.7330   25.5240   47.0000 C   0  0  0  0  0  0  0  0  0  0  0  0
   57.4170   25.1620   47.5520 C   0  0  0  0  0  0  0  0  0  0  0  0
   57.3730   24.4800   48.6110 O   0  0  0  0  0  0  0  0  0  0  0  0
   56.2120   25.5910   46.8950 N   0  0  0  0  0  0  0  0  0  0  0  0
   55.3010   24.8430   46.3450 C   0  0  0  0  0  0  0  0  0  0  0  0
   54.2920   25.3670   45.6200 N   0  0  0  0  0  0  0  0  0  0  0  0
   53.4490   24.4050   45.1590 C   0  0  0  0  0  0  0  0  0  0  0  0
   52.5673   24.6398   44.5445 H   0  0  0  0  0  0  0  0  0  0  0  0
   53.7800   23.1040   45.5190 C   0  0  0  0  0  0  0  0  0  0  0  0
   53.2241   22.1955   45.2439 H   0  0  0  0  0  0  0  0  0  0  0  0
   55.1810   23.1630   46.4500 S   0  0  0  0  0  0  0  0  0  0  0  0
   59.2610   24.8920   45.9420 C   0  0  0  0  0  0  0  0  0  0  0  0
   60.3503   24.9486   45.7995 H   0  0  0  0  0  0  0  0  0  0  0  0
   58.4670   24.1180   44.9470 C   0  0  0  0  0  0  0  0  0  0  0  0
   58.7170   22.7510   44.6960 C   0  0  0  0  0  0  0  0  0  0  0  0
   59.5275   22.2382   45.2346 H   0  0  0  0  0  0  0  0  0  0  0  0
   57.9460   22.0430   43.7710 C   0  0  0  0  0  0  0  0  0  0  0  0
   58.1599   20.9815   43.5777 H   0  0  0  0  0  0  0  0  0  0  0  0
   56.9080   22.6760   43.0930 C   0  0  0  0  0  0  0  0  0  0  0  0
   56.3054   22.1155   42.3632 H   0  0  0  0  0  0  0  0  0  0  0  0
   56.6320   24.0210   43.3390 C   0  0  0  0  0  0  0  0  0  0  0  0
   55.8025   24.5140   42.8109 H   0  0  0  0  0  0  0  0  0  0  0  0
   57.4040   24.7480   44.2540 C   0  0  0  0  0  0  0  0  0  0  0  0
   57.0910   26.1260   44.4740 N   0  0  0  0  0  0  0  0  0  0  0  0
   56.1280   26.3620   44.8050 H   0  0  0  0  0  0  0  0  0  0  0  0
   57.9620   27.3710   43.6440 S   0  0  0  0  0  0  0  0  0  0  0  0
   56.9820   28.2440   42.9110 O   0  0  0  0  0  0  0  0  0  0  0  0
   58.8960   26.7500   42.6450 O   0  0  0  0  0  0  0  0  0  0  0  0
   58.8880   28.3530   44.7770 C   0  0  0  0  0  0  0  0  0  0  0  0
   60.2650   28.5220   44.5870 C   0  0  0  0  0  0  0  0  0  0  0  0
   60.7631   28.0412   43.7322 H   0  0  0  0  0  0  0  0  0  0  0  0
   61.0090   29.2990   45.4790 C   0  0  0  0  0  0  0  0  0  0  0  0
   62.0895   29.4303   45.3198 H   0  0  0  0  0  0  0  0  0  0  0  0
   60.3860   29.9130   46.5770 C   0  0  0  0  0  0  0  0  0  0  0  0
   61.1750   30.7640   47.4960 C   0  0  0  0  0  0  0  0  0  0  0  0
   61.7230   30.2320   48.5000 O   0  0  0  0  0  0  0  0  0  0  0  0
   61.3150   32.1820   47.2780 N   0  0  0  0  0  0  0  0  0  0  0  0
   62.5170   32.8860   47.7460 C   0  0  0  0  0  0  0  0  0  0  0  0
   63.2342   32.1531   48.1441 H   0  0  0  0  0  0  0  0  0  0  0  0
   62.9628   33.4309   46.9008 H   0  0  0  0  0  0  0  0  0  0  0  0
   62.1540   33.8910   48.8510 C   0  0  0  0  0  0  0  0  0  0  0  0
   62.1282   33.3577   49.8127 H   0  0  0  0  0  0  0  0  0  0  0  0
   62.9183   34.6819   48.8348 H   0  0  0  0  0  0  0  0  0  0  0  0
   60.7860   34.5740   48.6330 C   0  0  0  0  0  0  0  0  0  0  0  0
   60.0485   34.1078   49.3029 H   0  0  0  0  0  0  0  0  0  0  0  0
   60.9097   35.6454   48.8496 H   0  0  0  0  0  0  0  0  0  0  0  0
   60.2880   34.4460   47.1890 C   0  0  0  0  0  0  0  0  0  0  0  0
   59.3020   34.9258   47.1017 H   0  0  0  0  0  0  0  0  0  0  0  0
   61.0079   34.9375   46.5181 H   0  0  0  0  0  0  0  0  0  0  0  0
   60.1680   32.9670   46.7940 C   0  0  0  0  0  0  0  0  0  0  0  0
   59.2450   32.5553   47.2283 H   0  0  0  0  0  0  0  0  0  0  0  0
   60.1474   32.9048   45.6960 H   0  0  0  0  0  0  0  0  0  0  0  0
   59.0020   29.7500   46.7580 C   0  0  0  0  0  0  0  0  0  0  0  0
   58.4993   30.2414   47.6040 H   0  0  0  0  0  0  0  0  0  0  0  0
   58.2610   28.9670   45.8690 C   0  0  0  0  0  0  0  0  0  0  0  0
   57.1808   28.8321   46.0273 H   0  0  0  0  0  0  0  0  0  0  0  0
  1  2  1  0
  2  3  1  0
  3  4  2  0
  3  5  1  0
  5  6  2  3
  6  7  1  0
  7  8  1  0
  8  9  1  0
  8 10  2  0
 10 11  1  0
 10 12  1  0
  2 13  2  0
 13 14  1  0
 13 15  1  0
 15 16  2  0
 16 17  1  0
 16 18  1  0
 18 19  1  0
 18 20  2  0
 20 21  1  0
 20 22  1  0
 22 23  1  0
 22 24  2  0
 24 25  1  0
 25 26  1  0
 25 27  1  0
 27 28  2  0
 27 29  2  0
 27 30  1  0
 30 31  2  0
 31 32  1  0
 31 33  1  0
 33 34  1  0
 33 35  2  0
 35 36  1  0
 36 37  2  0
 36 38  1  0
 38 39  1  0
 39 40  1  0
 39 41  1  0
 39 42  1  0
 42 43  1  0
 42 44  1  0
 42 45  1  0
 45 46  1  0
 45 47  1  0
 45 48  1  0
 48 49  1  0
 48 50  1  0
 48 51  1  0
 51 52  1  0
 51 53  1  0
 35 54  1  0
 54 55  1  0
 54 56  2  0
 56 57  1  0
 12  6  1  0
 24 15  1  0
 56 30  1  0
 51 38  1  0
M  CHG  1   7  -1
M  END
>  <UniqueID>  (79) 
72

>  <SMILES>  (79) 
O=C(/C=C/c1ccccc1NS(=O)(=O)c1ccc(C(=O)N2CCCCC2)cc1)N=c1[n-]ccs1

>  <Energy>  (79) 
104.58442354533645

>  <Genealogy>  (79) 
O=C(C=Cc1ccccc1NS(=O)(=O)c1ccc(C(=O)N2CCCCC2)cc1)N=c1[n-]ccs1 (protonated)
O=C(/C=C/c1ccccc1NS(=O)(=O)c1ccc(C(=O)N2CCCCC2)cc1)N=c1[n-]ccs1 (cis-trans isomerization)
O=C(/C=C/c1ccccc1NS(=O)(=O)c1ccc(C(=O)N2CCCCC2)cc1)N=c1[n-]ccs1 (3D coordinates assigned)
O=C(/C=C/c1ccccc1NS(=O)(=O)c1ccc(C(=O)N2CCCCC2)cc1)N=c1[n-]ccs1 (nonaromatic ring conformer: 104.58442354533645 kcal/mol)

>  <smiles>  (79) 
O=C(C=Cc1ccccc1NS(=O)(=O)c1ccc(C(=O)N2CCCCC2)cc1)N=c1[nH]ccs1

>  <score_type>  (79) 
oracle

>  <origin>  (79) 
adg

>  <m_score__min__energy>  (79) 
-13.470000000000001

>  <m_primary>  (79) 
energy

$$$$
81:0
     RDKit          3D

 46 49  0  0  0  0  0  0  0  0999 V2000
   64.0570   34.4720   51.6060 C   0  0  0  0  0  0  0  0  0  0  0  0
   63.3500   33.8940   50.4090 C   0  0  0  0  0  0  0  0  0  0  0  0
   62.1950   34.4070   50.1170 N   0  0  0  0  0  0  0  0  0  0  0  0
   60.8970   33.7830   50.2900 C   0  0  0  0  0  0  0  0  0  0  0  0
   60.1320   33.7680   48.9920 C   0  0  0  0  0  0  0  0  0  0  0  0
   60.5570   34.4240   47.8830 N   0  0  0  0  0  0  0  0  0  0  0  0
   59.5920   34.2070   46.9770 C   0  0  0  0  0  0  0  0  0  0  0  0
   59.5080   34.7000   45.6770 C   0  0  0  0  0  0  0  0  0  0  0  0
   58.3690   34.3630   44.9240 C   0  0  0  0  0  0  0  0  0  0  0  0
   57.3520   33.5580   45.4850 C   0  0  0  0  0  0  0  0  0  0  0  0
   57.4660   33.0790   46.8040 C   0  0  0  0  0  0  0  0  0  0  0  0
   58.6150   33.4240   47.5230 C   0  0  0  0  0  0  0  0  0  0  0  0
   58.9520   33.1150   48.7910 N   0  0  0  0  0  0  0  0  0  0  0  0
   58.1750   32.3430   49.7590 C   0  0  0  0  0  0  0  0  0  0  0  0
   63.9600   32.7190   49.6380 C   0  0  2  0  0  0  0  0  0  0  0  0
   64.1290   33.0460   48.1380 C   0  0  0  0  0  0  0  0  0  0  0  0
   62.8750   32.8170   47.3460 C   0  0  0  0  0  0  0  0  0  0  0  0
   62.6050   33.5790   46.3790 O   0  0  0  0  0  0  0  0  0  0  0  0
   62.0120   31.6570   47.6530 C   0  0  0  0  0  0  0  0  0  0  0  0
   61.0280   31.2330   46.7450 C   0  0  0  0  0  0  0  0  0  0  0  0
   60.2270   30.1270   47.0370 C   0  0  0  0  0  0  0  0  0  0  0  0
   60.4010   29.4360   48.2370 C   0  0  0  0  0  0  0  0  0  0  0  0
   61.3700   29.8520   49.1530 C   0  0  0  0  0  0  0  0  0  0  0  0
   62.1800   30.9680   48.8730 C   0  0  0  0  0  0  0  0  0  0  0  0
   63.1750   31.4470   49.8650 C   0  0  0  0  0  0  0  0  0  0  0  0
   63.3480   30.8130   50.9410 O   0  0  0  0  0  0  0  0  0  0  0  0
   63.5908   34.0909   52.5266 H   0  0  0  0  0  0  0  0  0  0  0  0
   65.1168   34.1784   51.5830 H   0  0  0  0  0  0  0  0  0  0  0  0
   63.9799   35.5691   51.5830 H   0  0  0  0  0  0  0  0  0  0  0  0
   61.0377   32.7488   50.6374 H   0  0  0  0  0  0  0  0  0  0  0  0
   60.3240   34.3614   51.0297 H   0  0  0  0  0  0  0  0  0  0  0  0
   61.4220   35.0000   47.7700 H   0  0  0  0  0  0  0  0  0  0  0  0
   60.3042   35.3305   45.2544 H   0  0  0  0  0  0  0  0  0  0  0  0
   58.2691   34.7285   43.8913 H   0  0  0  0  0  0  0  0  0  0  0  0
   56.4647   33.3037   44.8867 H   0  0  0  0  0  0  0  0  0  0  0  0
   56.6791   32.4554   47.2533 H   0  0  0  0  0  0  0  0  0  0  0  0
   58.4673   32.6334   50.7789 H   0  0  0  0  0  0  0  0  0  0  0  0
   57.1035   32.5445   49.6133 H   0  0  0  0  0  0  0  0  0  0  0  0
   58.3695   31.2702   49.6133 H   0  0  0  0  0  0  0  0  0  0  0  0
   64.9711   32.5472   50.0357 H   0  0  0  0  0  0  0  0  0  0  0  0
   64.4184   34.1027   48.0395 H   0  0  0  0  0  0  0  0  0  0  0  0
   64.9003   32.3715   47.7377 H   0  0  0  0  0  0  0  0  0  0  0  0
   60.8874   31.7753   45.7983 H   0  0  0  0  0  0  0  0  0  0  0  0
   59.4586   29.8003   46.3209 H   0  0  0  0  0  0  0  0  0  0  0  0
   59.7732   28.5612   48.4621 H   0  0  0  0  0  0  0  0  0  0  0  0
   61.5005   29.3044   50.0980 H   0  0  0  0  0  0  0  0  0  0  0  0
  1  2  1  0
  2  3  2  3
  3  4  1  0
  4  5  1  0
  5  6  2  0
  6  7  1  0
  7  8  2  0
  8  9  1  0
  9 10  2  0
 10 11  1  0
 11 12  2  0
 12 13  1  0
 13 14  1  0
  2 15  1  0
 15 16  1  0
 16 17  1  0
 17 18  2  0
 17 19  1  0
 19 20  2  0
 20 21  1  0
 21 22  2  0
 22 23  1  0
 23 24  2  0
 24 25  1  0
 25 26  2  0
 13  5  1  0
 25 15  1  0
 12  7  1  0
 24 19  1  0
  1 27  1  0
  1 28  1  0
  1 29  1  0
  4 30  1  0
  4 31  1  0
  6 32  1  0
  8 33  1  0
  9 34  1  0
 10 35  1  0
 11 36  1  0
 14 37  1  0
 14 38  1  0
 14 39  1  0
 15 40  1  1
 16 41  1  0
 16 42  1  0
 20 43  1  0
 21 44  1  0
 22 45  1  0
 23 46  1  0
M  CHG  1   6   1
M  END
>  <UniqueID>  (80) 
73

>  <SMILES>  (80) 
CC(=NCc1[nH+]c2ccccc2n1C)[C@@H]1CC(=O)c2ccccc2C1=O

>  <Energy>  (80) 
90.1252568637288

>  <Genealogy>  (80) 
CC(=NCc1[nH+]c2ccccc2n1C)C1CC(=O)c2ccccc2C1=O (protonated)
CC(=NCc1[nH+]c2ccccc2n1C)[C@@H]1CC(=O)c2ccccc2C1=O (chirality)
CC(=NCc1[nH+]c2ccccc2n1C)[C@@H]1CC(=O)c2ccccc2C1=O (3D coordinates assigned)
CC(=NCc1[nH+]c2ccccc2n1C)[C@@H]1CC(=O)c2ccccc2C1=O (nonaromatic ring conformer: 90.1252568637288 kcal/mol)

>  <smiles>  (80) 
CC(=NCc1nc2ccccc2n1C)C1CC(=O)c2ccccc2C1=O

>  <score_type>  (80) 
oracle

>  <origin>  (80) 
adg

>  <m_score__min__energy>  (80) 
-8.2899999999999991

>  <m_primary>  (80) 
energy

$$$$
82:0
     RDKit          3D

 53 55  0  0  0  0  0  0  0  0999 V2000
   61.8870   32.7630   51.2320 N   0  0  0  0  0  0  0  0  0  0  0  0
   62.9820   33.6120   50.8890 C   0  0  0  0  0  0  0  0  0  0  0  0
   63.2530   34.6010   51.6230 O   0  0  0  0  0  0  0  0  0  0  0  0
   63.8280   33.3200   49.6730 C   0  0  2  0  0  0  0  0  0  0  0  0
   63.3920   34.2160   48.4840 C   0  0  0  0  0  0  0  0  0  0  0  0
   63.5500   33.5010   47.1380 C   0  0  0  0  0  0  0  0  0  0  0  0
   62.6700   32.2430   47.1060 C   0  0  0  0  0  0  0  0  0  0  0  0
   62.7500   31.4920   48.3700 N   0  0  0  0  0  0  0  0  0  0  0  0
   61.7230   30.5400   48.7100 C   0  0  0  0  0  0  0  0  0  0  0  0
   61.7440   29.9780   49.8390 O   0  0  0  0  0  0  0  0  0  0  0  0
   60.6280   30.2140   47.7710 C   0  0  0  0  0  0  0  0  0  0  0  0
   59.3130   30.0780   48.2430 C   0  0  0  0  0  0  0  0  0  0  0  0
   58.2770   29.7560   47.3620 C   0  0  0  0  0  0  0  0  0  0  0  0
   58.5430   29.5540   46.0020 C   0  0  0  0  0  0  0  0  0  0  0  0
   57.2250   29.1310   44.9120 S   0  0  0  0  0  0  0  0  0  0  0  0
   56.3050   28.1360   45.5610 O   0  0  0  0  0  0  0  0  0  0  0  0
   57.8030   28.5160   43.6690 O   0  0  0  0  0  0  0  0  0  0  0  0
   56.3280   30.5540   44.4820 N   0  0  0  0  0  0  0  0  0  0  0  0
   57.2390   31.6870   44.3220 C   0  0  0  0  0  0  0  0  0  0  0  0
   56.8050   32.8400   45.2270 C   0  0  0  0  0  0  0  0  0  0  0  0
   57.9780   33.4340   45.9630 C   0  0  0  0  0  0  0  0  0  0  0  0
   58.8890   34.2650   45.2880 C   0  0  0  0  0  0  0  0  0  0  0  0
   59.9940   34.7940   45.9630 C   0  0  0  0  0  0  0  0  0  0  0  0
   60.2020   34.4900   47.3110 C   0  0  0  0  0  0  0  0  0  0  0  0
   59.3070   33.6550   47.9870 C   0  0  0  0  0  0  0  0  0  0  0  0
   58.2000   33.1260   47.3160 C   0  0  0  0  0  0  0  0  0  0  0  0
   59.8580   29.6680   45.5300 C   0  0  0  0  0  0  0  0  0  0  0  0
   60.8950   29.9910   46.4110 C   0  0  0  0  0  0  0  0  0  0  0  0
   63.8120   31.8090   49.3350 C   0  0  0  0  0  0  0  0  0  0  0  0
   61.3070   32.9690   52.0750 H   0  0  0  0  0  0  0  0  0  0  0  0
   61.6530   31.9260   50.6530 H   0  0  0  0  0  0  0  0  0  0  0  0
   64.8758   33.5720   49.8936 H   0  0  0  0  0  0  0  0  0  0  0  0
   62.3359   34.4933   48.6170 H   0  0  0  0  0  0  0  0  0  0  0  0
   64.0389   35.1056   48.4740 H   0  0  0  0  0  0  0  0  0  0  0  0
   63.2458   34.1792   46.3272 H   0  0  0  0  0  0  0  0  0  0  0  0
   64.6023   33.2095   47.0050 H   0  0  0  0  0  0  0  0  0  0  0  0
   61.6255   32.5425   46.9344 H   0  0  0  0  0  0  0  0  0  0  0  0
   63.0307   31.5919   46.2961 H   0  0  0  0  0  0  0  0  0  0  0  0
   59.0969   30.2256   49.3114 H   0  0  0  0  0  0  0  0  0  0  0  0
   57.2479   29.6608   47.7386 H   0  0  0  0  0  0  0  0  0  0  0  0
   58.2586   31.3755   44.5929 H   0  0  0  0  0  0  0  0  0  0  0  0
   57.2168   32.0225   43.2747 H   0  0  0  0  0  0  0  0  0  0  0  0
   56.3364   33.6215   44.6108 H   0  0  0  0  0  0  0  0  0  0  0  0
   56.0936   32.4483   45.9690 H   0  0  0  0  0  0  0  0  0  0  0  0
   58.7323   34.5001   44.2249 H   0  0  0  0  0  0  0  0  0  0  0  0
   60.6998   35.4499   45.4323 H   0  0  0  0  0  0  0  0  0  0  0  0
   61.0707   34.9080   47.8408 H   0  0  0  0  0  0  0  0  0  0  0  0
   59.4738   33.4141   49.0473 H   0  0  0  0  0  0  0  0  0  0  0  0
   57.5001   32.4661   47.8495 H   0  0  0  0  0  0  0  0  0  0  0  0
   60.0747   29.5030   44.4643 H   0  0  0  0  0  0  0  0  0  0  0  0
   61.9260   30.0708   46.0360 H   0  0  0  0  0  0  0  0  0  0  0  0
   63.6404   31.2365   50.2584 H   0  0  0  0  0  0  0  0  0  0  0  0
   64.7807   31.5417   48.8875 H   0  0  0  0  0  0  0  0  0  0  0  0
  1  2  1  0
  2  3  2  0
  2  4  1  0
  4  5  1  0
  5  6  1  0
  6  7  1  0
  7  8  1  0
  8  9  1  0
  9 10  2  0
  9 11  1  0
 11 12  2  0
 12 13  1  0
 13 14  2  0
 14 15  1  0
 15 16  2  0
 15 17  2  0
 15 18  1  0
 18 19  1  0
 19 20  1  0
 20 21  1  0
 21 22  2  0
 22 23  1  0
 23 24  2  0
 24 25  1  0
 25 26  2  0
 14 27  1  0
 27 28  2  0
  8 29  1  0
 29  4  1  0
 28 11  1  0
 26 21  1  0
  1 30  1  0
  1 31  1  0
  4 32  1  1
  5 33  1  0
  5 34  1  0
  6 35  1  0
  6 36  1  0
  7 37  1  0
  7 38  1  0
 12 39  1  0
 13 40  1  0
 19 41  1  0
 19 42  1  0
 20 43  1  0
 20 44  1  0
 22 45  1  0
 23 46  1  0
 24 47  1  0
 25 48  1  0
 26 49  1  0
 27 50  1  0
 28 51  1  0
 29 52  1  0
 29 53  1  0
M  CHG  1  18  -1
M  END
>  <UniqueID>  (81) 
74

>  <SMILES>  (81) 
NC(=O)[C@@H]1CCCN(C(=O)c2ccc(S(=O)(=O)[N-]CCc3ccccc3)cc2)C1

>  <Energy>  (81) 
55.9723425057187

>  <Genealogy>  (81) 
NC(=O)C1CCCN(C(=O)c2ccc(S(=O)(=O)[N-]CCc3ccccc3)cc2)C1 (protonated)
NC(=O)[C@@H]1CCCN(C(=O)c2ccc(S(=O)(=O)[N-]CCc3ccccc3)cc2)C1 (chirality)
NC(=O)[C@@H]1CCCN(C(=O)c2ccc(S(=O)(=O)[N-]CCc3ccccc3)cc2)C1 (3D coordinates assigned)
NC(=O)[C@@H]1CCCN(C(=O)c2ccc(S(=O)(=O)[N-]CCc3ccccc3)cc2)C1 (nonaromatic ring conformer: 55.9723425057187 kcal/mol)

>  <smiles>  (81) 
NC(=O)C1CCCN(C(=O)c2ccc(S(=O)(=O)NCCc3ccccc3)cc2)C1

>  <score_type>  (81) 
oracle

>  <origin>  (81) 
adg

>  <m_score__min__energy>  (81) 
-10.68

>  <m_primary>  (81) 
energy

$$$$
83:0
     RDKit          3D

 38 40  0  0  0  0  0  0  0  0999 V2000
   57.0740   22.7490   47.8810 O   0  0  0  0  0  0  0  0  0  0  0  0
   56.9790   23.7350   47.1070 C   0  0  0  0  0  0  0  0  0  0  0  0
   55.9500   24.6060   47.1480 N   0  0  0  0  0  0  0  0  0  0  0  0
   56.0860   25.5760   46.2050 C   0  0  0  0  0  0  0  0  0  0  0  0
   55.1270   26.5760   46.0650 O   0  0  0  0  0  0  0  0  0  0  0  0
   57.2390   25.4780   45.4180 C   0  0  0  0  0  0  0  0  0  0  0  0
   57.6300   26.3490   44.2620 C   0  0  0  0  0  0  0  0  0  0  0  0
   58.0710   27.7030   44.7480 C   0  0  0  0  0  0  0  0  0  0  0  0
   57.1680   28.7770   44.7920 C   0  0  0  0  0  0  0  0  0  0  0  0
   57.5910   30.0380   45.2220 C   0  0  0  0  0  0  0  0  0  0  0  0
   58.9230   30.2460   45.6120 C   0  0  0  0  0  0  0  0  0  0  0  0
   59.3650   31.6050   46.0850 C   0  0  0  0  0  0  0  0  0  0  0  0
   58.1880   32.4780   46.2920 N   0  0  0  0  0  0  0  0  0  0  0  0
   57.8330   33.2230   45.0680 C   0  0  0  0  0  0  0  0  0  0  0  0
   58.8630   34.3340   44.7510 C   0  0  0  0  0  0  0  0  0  0  0  0
   59.6920   34.6590   45.8530 O   0  0  0  0  0  0  0  0  0  0  0  0
   58.9170   34.7730   47.0270 C   0  0  0  0  0  0  0  0  0  0  0  0
   58.3580   33.3970   47.4430 C   0  0  0  0  0  0  0  0  0  0  0  0
   59.8270   29.1720   45.5690 C   0  0  0  0  0  0  0  0  0  0  0  0
   59.4040   27.9110   45.1390 C   0  0  0  0  0  0  0  0  0  0  0  0
   58.0970   24.1140   45.9140 S   0  0  0  0  0  0  0  0  0  0  0  0
   54.3970   26.7210   46.7500 H   0  0  0  0  0  0  0  0  0  0  0  0
   58.4572   25.8739   43.7143 H   0  0  0  0  0  0  0  0  0  0  0  0
   56.7600   26.4744   43.6007 H   0  0  0  0  0  0  0  0  0  0  0  0
   56.1222   28.6254   44.4865 H   0  0  0  0  0  0  0  0  0  0  0  0
   56.8753   30.8726   45.2549 H   0  0  0  0  0  0  0  0  0  0  0  0
   59.9118   31.5002   47.0337 H   0  0  0  0  0  0  0  0  0  0  0  0
   60.0192   32.0562   45.3244 H   0  0  0  0  0  0  0  0  0  0  0  0
   57.7955   32.5207   44.2222 H   0  0  0  0  0  0  0  0  0  0  0  0
   56.8552   33.7001   45.2301 H   0  0  0  0  0  0  0  0  0  0  0  0
   59.5011   33.9928   43.9225 H   0  0  0  0  0  0  0  0  0  0  0  0
   58.2961   35.2400   44.4907 H   0  0  0  0  0  0  0  0  0  0  0  0
   59.5457   35.1683   47.8384 H   0  0  0  0  0  0  0  0  0  0  0  0
   58.0754   35.4540   46.8321 H   0  0  0  0  0  0  0  0  0  0  0  0
   59.0528   32.9371   48.1611 H   0  0  0  0  0  0  0  0  0  0  0  0
   57.3651   33.5616   47.8869 H   0  0  0  0  0  0  0  0  0  0  0  0
   60.8726   29.3238   45.8751 H   0  0  0  0  0  0  0  0  0  0  0  0
   60.1196   27.0762   45.1066 H   0  0  0  0  0  0  0  0  0  0  0  0
  1  2  2  0
  2  3  1  0
  3  4  1  0
  4  5  1  0
  4  6  2  0
  6  7  1  0
  7  8  1  0
  8  9  2  0
  9 10  1  0
 10 11  2  0
 11 12  1  0
 12 13  1  0
 13 14  1  0
 14 15  1  0
 15 16  1  0
 16 17  1  0
 17 18  1  0
 11 19  1  0
 19 20  2  0
  6 21  1  0
 21  2  1  0
 20  8  1  0
 18 13  1  0
  5 22  1  0
  7 23  1  0
  7 24  1  0
  9 25  1  0
 10 26  1  0
 12 27  1  0
 12 28  1  0
 14 29  1  0
 14 30  1  0
 15 31  1  0
 15 32  1  0
 17 33  1  0
 17 34  1  0
 18 35  1  0
 18 36  1  0
 19 37  1  0
 20 38  1  0
M  CHG  1   3  -1
M  END
>  <UniqueID>  (82) 
75

>  <SMILES>  (82) 
O=c1[n-]c(O)c(Cc2ccc(CN3CCOCC3)cc2)s1

>  <Energy>  (82) 
79.9410311618642

>  <Genealogy>  (82) 
O=c1[n-]c(O)c(Cc2ccc(CN3CCOCC3)cc2)s1 (protonated)
O=c1[n-]c(O)c(Cc2ccc(CN3CCOCC3)cc2)s1 (3D coordinates assigned)
O=c1[n-]c(O)c(Cc2ccc(CN3CCOCC3)cc2)s1 (nonaromatic ring conformer: 79.9410311618642 kcal/mol)

>  <smiles>  (82) 
O=c1[nH]c(O)c(Cc2ccc(CN3CCOCC3)cc2)s1

>  <score_type>  (82) 
oracle

>  <origin>  (82) 
adg

>  <m_score__min__energy>  (82) 
-10.66

>  <m_primary>  (82) 
energy

$$$$
84:0
     RDKit          3D

 59 62  0  0  0  0  0  0  0  0999 V2000
   64.7100   30.7420   51.2320 C   0  0  0  0  0  0  0  0  0  0  0  0
   64.0130   31.5280   50.1610 C   0  0  0  0  0  0  0  0  0  0  0  0
   64.6660   32.5820   49.5000 C   0  0  0  0  0  0  0  0  0  0  0  0
   64.0040   33.3100   48.5060 C   0  0  0  0  0  0  0  0  0  0  0  0
   62.6760   32.9980   48.1510 C   0  0  0  0  0  0  0  0  0  0  0  0
   61.9470   33.7920   47.1290 C   0  0  0  0  0  0  0  0  0  0  0  0
   62.3750   33.8220   45.9410 O   0  0  0  0  0  0  0  0  0  0  0  0
   60.7420   34.5020   47.4600 N   0  0  0  0  0  0  0  0  0  0  0  0
   59.7100   34.7840   46.4620 C   0  0  0  0  0  0  0  0  0  0  0  0
   59.0330   33.5200   45.9960 C   0  0  0  0  0  0  0  0  0  0  0  0
   58.7150   32.4970   46.9030 C   0  0  0  0  0  0  0  0  0  0  0  0
   58.0630   31.3420   46.4660 C   0  0  0  0  0  0  0  0  0  0  0  0
   57.6590   31.2130   45.1260 C   0  0  0  0  0  0  0  0  0  0  0  0
   56.9310   30.0060   44.6630 C   0  0  0  0  0  0  0  0  0  0  0  0
   55.6730   29.9950   44.6920 O   0  0  0  0  0  0  0  0  0  0  0  0
   57.6140   28.8650   44.1280 N   0  0  0  0  0  0  0  0  0  0  0  0
   58.0420   27.7220   44.8800 C   0  0  0  0  0  0  0  0  0  0  0  0
   59.0990   27.8080   45.8010 C   0  0  0  0  0  0  0  0  0  0  0  0
   59.5270   26.6700   46.4830 C   0  0  0  0  0  0  0  0  0  0  0  0
   58.9040   25.4390   46.2580 C   0  0  0  0  0  0  0  0  0  0  0  0
   57.8250   25.3400   45.3630 C   0  0  0  0  0  0  0  0  0  0  0  0
   57.2120   24.0600   45.0960 N   0  0  0  0  0  0  0  0  0  0  0  0
   58.0060   22.9750   44.5020 C   0  0  0  0  0  0  0  0  0  0  0  0
   57.0910   21.9250   43.8640 C   0  0  0  0  0  0  0  0  0  0  0  0
   56.0010   22.6000   43.1490 N   0  0  0  0  0  0  0  0  0  0  0  0
   55.0930   23.3320   44.0580 C   0  0  0  0  0  0  0  0  0  0  0  0
   55.7860   23.8230   45.3470 C   0  0  0  0  0  0  0  0  0  0  0  0
   57.3950   26.4950   44.6850 C   0  0  0  0  0  0  0  0  0  0  0  0
   57.9770   32.2380   44.2190 C   0  0  0  0  0  0  0  0  0  0  0  0
   58.6450   33.3860   44.6530 C   0  0  0  0  0  0  0  0  0  0  0  0
   62.0230   31.9490   48.8290 C   0  0  0  0  0  0  0  0  0  0  0  0
   62.6860   31.2210   49.8230 C   0  0  0  0  0  0  0  0  0  0  0  0
   64.3891   31.1038   52.2200 H   0  0  0  0  0  0  0  0  0  0  0  0
   64.4540   29.6770   51.1307 H   0  0  0  0  0  0  0  0  0  0  0  0
   65.7980   30.8688   51.1307 H   0  0  0  0  0  0  0  0  0  0  0  0
   65.7029   32.8358   49.7655 H   0  0  0  0  0  0  0  0  0  0  0  0
   64.5248   34.1340   47.9963 H   0  0  0  0  0  0  0  0  0  0  0  0
   60.5730   34.8160   48.4420 H   0  0  0  0  0  0  0  0  0  0  0  0
   58.9560   35.4507   46.9059 H   0  0  0  0  0  0  0  0  0  0  0  0
   60.1898   35.2592   45.5937 H   0  0  0  0  0  0  0  0  0  0  0  0
   58.9811   32.6058   47.9648 H   0  0  0  0  0  0  0  0  0  0  0  0
   57.8639   30.5262   47.1765 H   0  0  0  0  0  0  0  0  0  0  0  0
   59.5900   28.7751   45.9845 H   0  0  0  0  0  0  0  0  0  0  0  0
   60.3577   26.7409   47.2006 H   0  0  0  0  0  0  0  0  0  0  0  0
   59.2607   24.5418   46.7850 H   0  0  0  0  0  0  0  0  0  0  0  0
   58.6696   23.3930   43.7307 H   0  0  0  0  0  0  0  0  0  0  0  0
   58.5991   22.4946   45.2941 H   0  0  0  0  0  0  0  0  0  0  0  0
   57.6708   21.3136   43.1569 H   0  0  0  0  0  0  0  0  0  0  0  0
   56.6714   21.2774   44.6479 H   0  0  0  0  0  0  0  0  0  0  0  0
   55.4430   21.8730   42.6390 H   0  0  0  0  0  0  0  0  0  0  0  0
   54.6922   24.2053   43.5226 H   0  0  0  0  0  0  0  0  0  0  0  0
   54.3002   22.6319   44.3604 H   0  0  0  0  0  0  0  0  0  0  0  0
   55.3147   24.7599   45.6788 H   0  0  0  0  0  0  0  0  0  0  0  0
   55.6814   23.0539   46.1264 H   0  0  0  0  0  0  0  0  0  0  0  0
   56.5413   26.4340   43.9941 H   0  0  0  0  0  0  0  0  0  0  0  0
   57.6981   32.1360   43.1598 H   0  0  0  0  0  0  0  0  0  0  0  0
   58.8686   34.1908   43.9373 H   0  0  0  0  0  0  0  0  0  0  0  0
   60.9822   31.7003   48.5742 H   0  0  0  0  0  0  0  0  0  0  0  0
   62.1643   30.4036   50.3423 H   0  0  0  0  0  0  0  0  0  0  0  0
  1  2  1  0
  2  3  2  0
  3  4  1  0
  4  5  2  0
  5  6  1  0
  6  7  2  0
  6  8  1  0
  8  9  1  0
  9 10  1  0
 10 11  2  0
 11 12  1  0
 12 13  2  0
 13 14  1  0
 14 15  2  0
 14 16  1  0
 16 17  1  0
 17 18  2  0
 18 19  1  0
 19 20  2  0
 20 21  1  0
 21 22  1  0
 22 23  1  0
 23 24  1  0
 24 25  1  0
 25 26  1  0
 26 27  1  0
 21 28  2  0
 13 29  1  0
 29 30  2  0
  5 31  1  0
 31 32  2  0
 32  2  1  0
 30 10  1  0
 28 17  1  0
 27 22  1  0
  1 33  1  0
  1 34  1  0
  1 35  1  0
  3 36  1  0
  4 37  1  0
  8 38  1  0
  9 39  1  0
  9 40  1  0
 11 41  1  0
 12 42  1  0
 18 43  1  0
 19 44  1  0
 20 45  1  0
 23 46  1  0
 23 47  1  0
 24 48  1  0
 24 49  1  0
 25 50  1  0
 26 51  1  0
 26 52  1  0
 27 53  1  0
 27 54  1  0
 28 55  1  0
 29 56  1  0
 30 57  1  0
 31 58  1  0
 32 59  1  0
M  CHG  1  16  -1
M  END
>  <UniqueID>  (83) 
76

>  <SMILES>  (83) 
Cc1ccc(C(=O)NCc2ccc(C(=O)[N-]c3cccc(N4CCNCC4)c3)cc2)cc1

>  <Energy>  (83) 
78.07388180022123

>  <Genealogy>  (83) 
Cc1ccc(C(=O)NCc2ccc(C(=O)[N-]c3cccc(N4CCNCC4)c3)cc2)cc1 (protonated)
Cc1ccc(C(=O)NCc2ccc(C(=O)[N-]c3cccc(N4CCNCC4)c3)cc2)cc1 (3D coordinates assigned)
Cc1ccc(C(=O)NCc2ccc(C(=O)[N-]c3cccc(N4CCNCC4)c3)cc2)cc1 (nonaromatic ring conformer: 78.07388180022123 kcal/mol)

>  <smiles>  (83) 
Cc1ccc(C(=O)NCc2ccc(C(=O)Nc3cccc(N4CCNCC4)c3)cc2)cc1

>  <score_type>  (83) 
oracle

>  <origin>  (83) 
adg

>  <m_score__min__energy>  (83) 
-10.58

>  <m_primary>  (83) 
energy

$$$$
85:0
     RDKit          3D

 48 51  0  0  0  0  0  0  0  0999 V2000
   54.6170   31.5910   51.9880 C   0  0  0  0  0  0  0  0  0  0  0  0
   54.3440   30.4030   52.5490 C   0  0  0  0  0  0  0  0  0  0  0  0
   53.0740   29.8620   52.8040 C   0  0  0  0  0  0  0  0  0  0  0  0
   51.8520   30.2340   52.3750 C   0  0  0  0  0  0  0  0  0  0  0  0
   51.5390   30.7630   51.0380 C   0  0  0  0  0  0  0  0  0  0  0  0
   51.4580   30.0200   49.9180 N   0  0  0  0  0  0  0  0  0  0  0  0
   51.0180   30.8990   48.9930 C   0  0  0  0  0  0  0  0  0  0  0  0
   50.8270   30.5800   47.7900 O   0  0  0  0  0  0  0  0  0  0  0  0
   50.7850   32.1450   49.4590 N   0  0  0  0  0  0  0  0  0  0  0  0
   51.1070   32.0360   50.7580 C   0  0  0  0  0  0  0  0  0  0  0  0
   51.0030   33.0790   51.6710 O   0  0  0  0  0  0  0  0  0  0  0  0
   53.2780   28.7680   53.6310 C   0  0  0  0  0  0  0  0  0  0  0  0
   54.6400   28.6310   53.7840 C   0  0  0  0  0  0  0  0  0  0  0  0
   55.3010   27.5520   54.5890 C   0  0  0  0  0  0  0  0  0  0  0  0
   55.2910   29.6210   53.1300 N   0  0  0  0  0  0  0  0  0  0  0  0
   56.7170   29.8130   53.0980 C   0  0  0  0  0  0  0  0  0  0  0  0
   57.4620   29.7860   54.2800 C   0  0  0  0  0  0  0  0  0  0  0  0
   58.8440   29.9740   54.2240 C   0  0  0  0  0  0  0  0  0  0  0  0
   59.4600   30.1860   53.0300 N   0  0  0  0  0  0  0  0  0  0  0  0
   58.7630   30.2190   51.8550 C   0  0  0  0  0  0  0  0  0  0  0  0
   59.4480   30.4530   50.6050 N   0  0  0  0  0  0  0  0  0  0  0  0
   60.1320   31.7350   50.3710 C   0  0  0  0  0  0  0  0  0  0  0  0
   60.1510   32.0690   48.8770 C   0  0  0  0  0  0  0  0  0  0  0  0
   60.8040   30.9560   48.0350 C   0  0  0  0  0  0  0  0  0  0  0  0
   60.7130   29.5590   48.6780 C   0  0  0  0  0  0  0  0  0  0  0  0
   59.4740   29.4100   49.5670 C   0  0  0  0  0  0  0  0  0  0  0  0
   57.3700   30.0310   51.8790 C   0  0  0  0  0  0  0  0  0  0  0  0
   55.6616   31.9028   51.8411 H   0  0  0  0  0  0  0  0  0  0  0  0
   53.7962   32.2530   51.6750 H   0  0  0  0  0  0  0  0  0  0  0  0
   51.0175   30.1337   53.0846 H   0  0  0  0  0  0  0  0  0  0  0  0
   52.5009   28.1314   54.0791 H   0  0  0  0  0  0  0  0  0  0  0  0
   55.1718   27.7629   55.6608 H   0  0  0  0  0  0  0  0  0  0  0  0
   54.8421   26.5817   54.3483 H   0  0  0  0  0  0  0  0  0  0  0  0
   56.3739   27.5200   54.3483 H   0  0  0  0  0  0  0  0  0  0  0  0
   56.9637   29.6180   55.2462 H   0  0  0  0  0  0  0  0  0  0  0  0
   59.4376   29.9506   55.1498 H   0  0  0  0  0  0  0  0  0  0  0  0
   60.4980   30.3050   53.0290 H   0  0  0  0  0  0  0  0  0  0  0  0
   59.6021   32.5320   50.9132 H   0  0  0  0  0  0  0  0  0  0  0  0
   61.1686   31.6555   50.7305 H   0  0  0  0  0  0  0  0  0  0  0  0
   59.1157   32.2107   48.5334 H   0  0  0  0  0  0  0  0  0  0  0  0
   60.7479   32.9835   48.7452 H   0  0  0  0  0  0  0  0  0  0  0  0
   60.3026   30.9213   47.0565 H   0  0  0  0  0  0  0  0  0  0  0  0
   61.8728   31.2020   47.9504 H   0  0  0  0  0  0  0  0  0  0  0  0
   60.6688   28.8038   47.8794 H   0  0  0  0  0  0  0  0  0  0  0  0
   61.6015   29.4206   49.3116 H   0  0  0  0  0  0  0  0  0  0  0  0
   58.5710   29.4975   48.9450 H   0  0  0  0  0  0  0  0  0  0  0  0
   59.5073   28.4255   50.0566 H   0  0  0  0  0  0  0  0  0  0  0  0
   56.7943   30.0551   50.9420 H   0  0  0  0  0  0  0  0  0  0  0  0
  1  2  2  0
  2  3  1  0
  3  4  2  3
  4  5  1  0
  5  6  1  0
  6  7  1  0
  7  8  2  0
  7  9  1  0
  9 10  1  0
 10 11  1  0
  3 12  1  0
 12 13  2  0
 13 14  1  0
 13 15  1  0
 15 16  1  0
 16 17  2  0
 17 18  1  0
 18 19  2  0
 19 20  1  0
 20 21  1  0
 21 22  1  0
 22 23  1  0
 23 24  1  0
 24 25  1  0
 25 26  1  0
 20 27  2  0
 15  2  1  0
 27 16  1  0
 10  5  2  0
 26 21  1  0
  1 28  1  0
  1 29  1  0
  4 30  1  0
 12 31  1  0
 14 32  1  0
 14 33  1  0
 14 34  1  0
 17 35  1  0
 18 36  1  0
 19 37  1  0
 22 38  1  0
 22 39  1  0
 23 40  1  0
 23 41  1  0
 24 42  1  0
 24 43  1  0
 25 44  1  0
 25 45  1  0
 26 46  1  0
 26 47  1  0
 27 48  1  0
M  CHG  4   6  -1   9  -1  11  -1  19   1
M  END
>  <UniqueID>  (84) 
77

>  <SMILES>  (84) 
C=c1c(=Cc2[n-]c(=O)[n-]c2[O-])cc(C)n1-c1cc[nH+]c(N2CCCCC2)c1

>  <Energy>  (84) 
128.993076054824

>  <Genealogy>  (84) 
C=c1c(=Cc2[n-]c(=O)[n-]c2[O-])cc(C)n1-c1cc[nH+]c(N2CCCCC2)c1 (protonated)
C=c1c(=Cc2[n-]c(=O)[n-]c2[O-])cc(C)n1-c1cc[nH+]c(N2CCCCC2)c1 (3D coordinates assigned)
C=c1c(=Cc2[n-]c(=O)[n-]c2[O-])cc(C)n1-c1cc[nH+]c(N2CCCCC2)c1 (nonaromatic ring conformer: 128.993076054824 kcal/mol)

>  <smiles>  (84) 
C=c1c(=Cc2[nH]c(=O)[nH]c2O)cc(C)n1-c1ccnc(N2CCCCC2)c1

>  <score_type>  (84) 
oracle

>  <origin>  (84) 
adg

>  <m_score__min__energy>  (84) 
-15.08

>  <m_primary>  (84) 
energy

$$$$
