0:0
     RDKit          3D

 36 37  0  0  0  0  0  0  0  0999 V2000
   55.1480   28.9810   44.6150 N   0  0  0  0  0  0  0  0  0  0  0  0
   56.5480   29.9770   44.4170 S   0  0  0  0  0  0  0  0  0  0  0  0
   56.1820   31.3950   44.7520 O   0  0  0  0  0  0  0  0  0  0  0  0
   57.0120   29.9020   42.9900 O   0  0  0  0  0  0  0  0  0  0  0  0
   57.8410   29.4340   45.4810 C   0  0  0  0  0  0  0  0  0  0  0  0
   57.6710   28.2980   46.2840 C   0  0  0  0  0  0  0  0  0  0  0  0
   58.7060   27.8660   47.1170 C   0  0  0  0  0  0  0  0  0  0  0  0
   59.9130   28.5700   47.1570 C   0  0  0  0  0  0  0  0  0  0  0  0
   60.0860   29.7210   46.3780 C   0  0  0  0  0  0  0  0  0  0  0  0
   61.3280   30.4320   46.4560 N   0  0  0  0  0  0  0  0  0  0  0  0
   61.7450   31.3240   47.5030 C   0  0  0  0  0  0  0  0  0  0  0  0
   62.4960   32.2890   47.2050 O   0  0  0  0  0  0  0  0  0  0  0  0
   61.3520   31.1350   48.9470 C   0  0  0  0  0  0  0  0  0  0  0  0
   60.4470   32.1850   49.4000 N   0  0  0  0  0  0  0  0  0  0  0  0
   59.1390   32.4060   48.8600 C   0  0  0  0  0  0  0  0  0  0  0  0
   58.1390   31.8890   49.4310 O   0  0  0  0  0  0  0  0  0  0  0  0
   58.9590   33.1980   47.6150 C   0  0  0  0  0  0  0  0  0  0  0  0
   57.8220   32.9720   46.8130 C   0  0  0  0  0  0  0  0  0  0  0  0
   57.6420   33.6670   45.6150 C   0  0  0  0  0  0  0  0  0  0  0  0
   58.5910   34.5980   45.1970 C   0  0  0  0  0  0  0  0  0  0  0  0
   59.7210   34.8400   45.9780 C   0  0  0  0  0  0  0  0  0  0  0  0
   59.9130   34.1540   47.1860 C   0  0  0  0  0  0  0  0  0  0  0  0
   61.0450   34.4310   47.9520 O   0  0  0  0  0  0  0  0  0  0  0  0
   59.0550   30.1350   45.5190 C   0  0  0  0  0  0  0  0  0  0  0  0
   54.6300   29.3420   45.4470 H   0  0  0  0  0  0  0  0  0  0  0  0
   56.7203   27.7452   46.2583 H   0  0  0  0  0  0  0  0  0  0  0  0
   58.5710   26.9710   47.7420 H   0  0  0  0  0  0  0  0  0  0  0  0
   60.7307   28.2184   47.8033 H   0  0  0  0  0  0  0  0  0  0  0  0
   60.8519   30.1614   49.0561 H   0  0  0  0  0  0  0  0  0  0  0  0
   62.2643   31.1796   49.5600 H   0  0  0  0  0  0  0  0  0  0  0  0
   57.0673   32.2393   47.1347 H   0  0  0  0  0  0  0  0  0  0  0  0
   56.7494   33.4791   45.0002 H   0  0  0  0  0  0  0  0  0  0  0  0
   58.4489   35.1418   44.2514 H   0  0  0  0  0  0  0  0  0  0  0  0
   60.4679   35.5751   45.6436 H   0  0  0  0  0  0  0  0  0  0  0  0
   61.5170   33.7120   48.4860 H   0  0  0  0  0  0  0  0  0  0  0  0
   59.2004   31.0133   44.8729 H   0  0  0  0  0  0  0  0  0  0  0  0
  1  2  1  0
  2  3  2  0
  2  4  2  0
  2  5  1  0
  5  6  2  0
  6  7  1  0
  7  8  2  0
  8  9  1  0
  9 10  1  0
 10 11  1  0
 11 12  2  0
 11 13  1  0
 13 14  1  0
 14 15  1  0
 15 16  2  0
 15 17  1  0
 17 18  2  0
 18 19  1  0
 19 20  2  0
 20 21  1  0
 21 22  2  0
 22 23  1  0
  9 24  2  0
 24  5  1  0
 22 17  1  0
  1 25  1  0
  6 26  1  0
  7 27  1  0
  8 28  1  0
 13 29  1  0
 13 30  1  0
 18 31  1  0
 19 32  1  0
 20 33  1  0
 21 34  1  0
 23 35  1  0
 24 36  1  0
M  CHG  3   1  -1  10  -1  14  -1
M  END
>  <UniqueID>  (1) 
1

>  <SMILES>  (1) 
[NH-]S(=O)(=O)c1cccc([N-]C(=O)C[N-]C(=O)c2ccccc2O)c1

>  <Energy>  (1) 
38.54578247230981

>  <Genealogy>  (1) 
[NH-]S(=O)(=O)c1cccc([N-]C(=O)C[N-]C(=O)c2ccccc2O)c1 (protonated)
[NH-]S(=O)(=O)c1cccc([N-]C(=O)C[N-]C(=O)c2ccccc2O)c1 (3D coordinates assigned)
[NH-]S(=O)(=O)c1cccc([N-]C(=O)C[N-]C(=O)c2ccccc2O)c1 (optimized conformer: 38.54578247230981 kcal/mol)

>  <smiles>  (1) 
NS(=O)(=O)c1cccc(NC(=O)CNC(=O)c2ccccc2O)c1

>  <score_type>  (1) 
oracle

>  <origin>  (1) 
adg

>  <m_score__min__energy>  (1) 
-12.81

>  <m_primary>  (1) 
energy

$$$$
1:0
     RDKit          3D

 37 39  0  0  0  0  0  0  0  0999 V2000
   57.3950   25.4470   44.4280 C   0  0  0  0  0  0  0  0  0  0  0  0
   58.0760   26.1820   45.5490 C   0  0  0  0  0  0  0  0  0  0  0  0
   59.2830   25.6880   46.0720 C   0  0  0  0  0  0  0  0  0  0  0  0
   59.9130   26.3420   47.1350 C   0  0  0  0  0  0  0  0  0  0  0  0
   59.3460   27.4910   47.6840 C   0  0  0  0  0  0  0  0  0  0  0  0
   58.1370   27.9830   47.1830 C   0  0  0  0  0  0  0  0  0  0  0  0
   57.4790   27.3180   46.1360 C   0  0  0  0  0  0  0  0  0  0  0  0
   56.2470   27.8330   45.6110 N   0  0  0  0  0  0  0  0  0  0  0  0
   56.1160   28.9800   44.7620 C   0  0  0  0  0  0  0  0  0  0  0  0
   55.1530   29.7690   44.9500 O   0  0  0  0  0  0  0  0  0  0  0  0
   57.1520   29.3250   43.7280 C   0  0  0  0  0  0  0  0  0  0  0  0
   58.7760   29.6210   44.5090 S   0  0  0  0  0  0  0  0  0  0  0  0
   58.4020   31.3090   45.0130 C   0  0  0  0  0  0  0  0  0  0  0  0
   57.7120   32.1490   44.1290 C   0  0  0  0  0  0  0  0  0  0  0  0
   57.4030   33.4610   44.4970 C   0  0  0  0  0  0  0  0  0  0  0  0
   57.7870   33.9520   45.7470 C   0  0  0  0  0  0  0  0  0  0  0  0
   58.4880   33.1260   46.6380 C   0  0  0  0  0  0  0  0  0  0  0  0
   58.8890   33.5940   47.8970 C   0  0  0  0  0  0  0  0  0  0  0  0
   59.5900   32.7500   48.7600 C   0  0  0  0  0  0  0  0  0  0  0  0
   59.8860   31.4470   48.3570 C   0  0  0  0  0  0  0  0  0  0  0  0
   59.4910   31.0040   47.1350 N   0  0  0  0  0  0  0  0  0  0  0  0
   58.8030   31.7970   46.2680 C   0  0  0  0  0  0  0  0  0  0  0  0
   56.7034   24.7006   44.8458 H   0  0  0  0  0  0  0  0  0  0  0  0
   56.8329   26.1618   43.8091 H   0  0  0  0  0  0  0  0  0  0  0  0
   58.1505   24.9409   43.8091 H   0  0  0  0  0  0  0  0  0  0  0  0
   59.7348   24.7816   45.6426 H   0  0  0  0  0  0  0  0  0  0  0  0
   60.8578   25.9492   47.5388 H   0  0  0  0  0  0  0  0  0  0  0  0
   59.8501   28.0110   48.5120 H   0  0  0  0  0  0  0  0  0  0  0  0
   57.6988   28.8964   47.6116 H   0  0  0  0  0  0  0  0  0  0  0  0
   57.2413   28.4919   43.0153 H   0  0  0  0  0  0  0  0  0  0  0  0
   56.8388   30.2424   43.2081 H   0  0  0  0  0  0  0  0  0  0  0  0
   57.4119   31.7734   43.1396 H   0  0  0  0  0  0  0  0  0  0  0  0
   56.8546   34.1105   43.7988 H   0  0  0  0  0  0  0  0  0  0  0  0
   57.5400   34.9852   46.0323 H   0  0  0  0  0  0  0  0  0  0  0  0
   58.6520   34.6233   48.2040 H   0  0  0  0  0  0  0  0  0  0  0  0
   59.9067   33.1092   49.7503 H   0  0  0  0  0  0  0  0  0  0  0  0
   60.4405   30.7770   49.0305 H   0  0  0  0  0  0  0  0  0  0  0  0
  1  2  1  0
  2  3  2  0
  3  4  1  0
  4  5  2  0
  5  6  1  0
  6  7  2  0
  7  8  1  0
  8  9  1  0
  9 10  2  0
  9 11  1  0
 11 12  1  0
 12 13  1  0
 13 14  2  0
 14 15  1  0
 15 16  2  0
 16 17  1  0
 17 18  2  0
 18 19  1  0
 19 20  2  0
 20 21  1  0
 21 22  2  0
  7  2  1  0
 22 13  1  0
 22 17  1  0
  1 23  1  0
  1 24  1  0
  1 25  1  0
  3 26  1  0
  4 27  1  0
  5 28  1  0
  6 29  1  0
 11 30  1  0
 11 31  1  0
 14 32  1  0
 15 33  1  0
 16 34  1  0
 18 35  1  0
 19 36  1  0
 20 37  1  0
M  CHG  1   8  -1
M  END
>  <UniqueID>  (2) 
2

>  <SMILES>  (2) 
Cc1ccccc1[N-]C(=O)CSc1cccc2cccnc12

>  <Energy>  (2) 
42.6173724539022

>  <Genealogy>  (2) 
Cc1ccccc1[N-]C(=O)CSc1cccc2cccnc12 (protonated)
Cc1ccccc1[N-]C(=O)CSc1cccc2cccnc12 (3D coordinates assigned)
Cc1ccccc1[N-]C(=O)CSc1cccc2cccnc12 (optimized conformer: 42.6173724539022 kcal/mol)

>  <smiles>  (2) 
Cc1ccccc1NC(=O)CSc1cccc2cccnc12

>  <score_type>  (2) 
oracle

>  <origin>  (2) 
adg

>  <m_score__min__energy>  (2) 
-9.4499999999999993

>  <m_primary>  (2) 
energy

$$$$
2:0
     RDKit          3D

 68 71  0  0  0  0  0  0  0  0999 V2000
   63.5240   33.6130   49.6650 C   0  0  0  0  0  0  0  0  0  0  0  0
   64.4360   32.6040   50.3190 C   0  0  0  0  0  0  0  0  0  0  0  0
   65.7960   32.6310   49.9660 C   0  0  0  0  0  0  0  0  0  0  0  0
   66.6810   31.6710   50.4610 C   0  0  0  0  0  0  0  0  0  0  0  0
   66.2150   30.6560   51.2950 C   0  0  0  0  0  0  0  0  0  0  0  0
   64.8670   30.6030   51.6470 C   0  0  0  0  0  0  0  0  0  0  0  0
   63.9620   31.5800   51.1880 C   0  0  0  0  0  0  0  0  0  0  0  0
   62.5120   31.4880   51.6240 C   0  0  0  0  0  0  0  0  0  0  0  0
   61.8940   30.0920   51.3670 C   0  0  0  0  0  0  0  0  0  0  0  0
   61.4320   29.8930   49.9810 N   0  0  0  0  0  0  0  0  0  0  0  0
   60.4700   28.7790   49.8490 C   0  0  0  0  0  0  0  0  0  0  0  0
   60.7260   27.9490   48.5790 C   0  0  0  0  0  0  0  0  0  0  0  0
   59.4330   27.4040   47.9310 C   0  0  0  0  0  0  0  0  0  0  0  0
   59.2690   27.7880   46.4440 C   0  0  0  0  0  0  0  0  0  0  0  0
   60.3640   28.7290   45.8990 C   0  0  0  0  0  0  0  0  0  0  0  0
   59.9650   30.1570   45.9720 N   0  0  0  0  0  0  0  0  0  0  0  0
   58.9950   30.6500   45.1310 C   0  0  0  0  0  0  0  0  0  0  0  0
   58.5050   29.9470   44.2060 O   0  0  0  0  0  0  0  0  0  0  0  0
   58.5680   31.9540   45.2970 C   0  0  0  0  0  0  0  0  0  0  0  0
   57.3860   32.7960   44.4480 S   0  0  0  0  0  0  0  0  0  0  0  0
   57.5760   34.2320   45.3170 C   0  0  0  0  0  0  0  0  0  0  0  0
   58.5750   34.0590   46.2730 C   0  0  0  0  0  0  0  0  0  0  0  0
   59.1310   32.7650   46.2560 C   0  0  0  0  0  0  0  0  0  0  0  0
   60.1470   32.3020   47.0500 N   0  0  0  0  0  0  0  0  0  0  0  0
   60.8010   33.1930   48.0320 C   0  0  0  0  0  0  0  0  0  0  0  0
   60.0130   33.2340   49.3150 C   0  0  0  0  0  0  0  0  0  0  0  0
   59.4010   34.2900   49.6280 O   0  0  0  0  0  0  0  0  0  0  0  0
   59.8950   32.0880   50.1670 N   0  0  0  0  0  0  0  0  0  0  0  0
   58.8120   31.8120   51.0640 C   0  0  0  0  0  0  0  0  0  0  0  0
   57.8510   30.8330   50.7580 C   0  0  0  0  0  0  0  0  0  0  0  0
   56.8160   30.5590   51.6550 C   0  0  0  0  0  0  0  0  0  0  0  0
   56.7360   31.2510   52.8640 C   0  0  0  0  0  0  0  0  0  0  0  0
   57.7000   32.2090   53.1840 C   0  0  0  0  0  0  0  0  0  0  0  0
   58.7410   32.4870   52.2930 C   0  0  0  0  0  0  0  0  0  0  0  0
   60.0330   33.8200   52.7560 Br  0  0  0  0  0  0  0  0  0  0  0  0
   60.5840   31.0030   46.8770 C   0  0  0  0  0  0  0  0  0  0  0  0
   61.5750   30.5880   47.5430 O   0  0  0  0  0  0  0  0  0  0  0  0
   63.0011   34.1916   50.4408 H   0  0  0  0  0  0  0  0  0  0  0  0
   64.1194   34.2937   49.0388 H   0  0  0  0  0  0  0  0  0  0  0  0
   62.7868   33.0892   49.0388 H   0  0  0  0  0  0  0  0  0  0  0  0
   66.1675   33.4172   49.2922 H   0  0  0  0  0  0  0  0  0  0  0  0
   67.7468   31.7158   50.1926 H   0  0  0  0  0  0  0  0  0  0  0  0
   66.9122   29.8953   51.6762 H   0  0  0  0  0  0  0  0  0  0  0  0
   64.5056   29.7880   52.2913 H   0  0  0  0  0  0  0  0  0  0  0  0
   62.4547   31.7045   52.7010 H   0  0  0  0  0  0  0  0  0  0  0  0
   61.9413   32.2166   51.0295 H   0  0  0  0  0  0  0  0  0  0  0  0
   62.6539   29.3293   51.5924 H   0  0  0  0  0  0  0  0  0  0  0  0
   61.0093   30.0084   52.0153 H   0  0  0  0  0  0  0  0  0  0  0  0
   62.2520   29.7250   49.3510 H   0  0  0  0  0  0  0  0  0  0  0  0
   60.9850   30.7870   49.6750 H   0  0  0  0  0  0  0  0  0  0  0  0
   60.5622   28.1232   50.7273 H   0  0  0  0  0  0  0  0  0  0  0  0
   59.4592   29.2072   49.7790 H   0  0  0  0  0  0  0  0  0  0  0  0
   61.2426   28.5850   47.8450 H   0  0  0  0  0  0  0  0  0  0  0  0
   61.3318   27.0801   48.8755 H   0  0  0  0  0  0  0  0  0  0  0  0
   59.4437   26.3066   48.0063 H   0  0  0  0  0  0  0  0  0  0  0  0
   58.5890   27.8560   48.4727 H   0  0  0  0  0  0  0  0  0  0  0  0
   59.2827   26.8639   45.8475 H   0  0  0  0  0  0  0  0  0  0  0  0
   58.3191   28.3373   46.3668 H   0  0  0  0  0  0  0  0  0  0  0  0
   61.2800   28.5866   46.4911 H   0  0  0  0  0  0  0  0  0  0  0  0
   60.5278   28.4783   44.8405 H   0  0  0  0  0  0  0  0  0  0  0  0
   57.0025   35.1564   45.1542 H   0  0  0  0  0  0  0  0  0  0  0  0
   58.8955   34.8495   46.9675 H   0  0  0  0  0  0  0  0  0  0  0  0
   61.8141   32.8191   48.2414 H   0  0  0  0  0  0  0  0  0  0  0  0
   60.8504   34.2087   47.6126 H   0  0  0  0  0  0  0  0  0  0  0  0
   57.9142   30.2807   49.8088 H   0  0  0  0  0  0  0  0  0  0  0  0
   56.0627   29.7964   51.4079 H   0  0  0  0  0  0  0  0  0  0  0  0
   55.9141   31.0419   53.5645 H   0  0  0  0  0  0  0  0  0  0  0  0
   57.6402   32.7474   54.1414 H   0  0  0  0  0  0  0  0  0  0  0  0
  1  2  1  0
  2  3  2  0
  3  4  1  0
  4  5  2  0
  5  6  1  0
  6  7  2  0
  7  8  1  0
  8  9  1  0
  9 10  1  0
 10 11  1  0
 11 12  1  0
 12 13  1  0
 13 14  1  0
 14 15  1  0
 15 16  1  0
 16 17  1  0
 17 18  2  0
 17 19  1  0
 19 20  1  0
 20 21  1  0
 21 22  2  0
 22 23  1  0
 23 24  1  0
 24 25  1  0
 25 26  1  0
 26 27  2  0
 26 28  1  0
 28 29  1  0
 29 30  2  0
 30 31  1  0
 31 32  2  0
 32 33  1  0
 33 34  2  0
 34 35  1  0
 24 36  1  0
 36 37  2  0
  7  2  1  0
 36 16  1  0
 23 19  2  0
 34 29  1  0
  1 38  1  0
  1 39  1  0
  1 40  1  0
  3 41  1  0
  4 42  1  0
  5 43  1  0
  6 44  1  0
  8 45  1  0
  8 46  1  0
  9 47  1  0
  9 48  1  0
 10 49  1  0
 10 50  1  0
 11 51  1  0
 11 52  1  0
 12 53  1  0
 12 54  1  0
 13 55  1  0
 13 56  1  0
 14 57  1  0
 14 58  1  0
 15 59  1  0
 15 60  1  0
 21 61  1  0
 22 62  1  0
 25 63  1  0
 25 64  1  0
 30 65  1  0
 31 66  1  0
 32 67  1  0
 33 68  1  0
M  CHG  2  10   1  28  -1
M  END
>  <UniqueID>  (3) 
3

>  <SMILES>  (3) 
Cc1ccccc1CC[NH2+]CCCCCn1c(=O)c2sccc2n(CC(=O)[N-]c2ccccc2Br)c1=O

>  <Energy>  (3) 
116.34715583692933

>  <Genealogy>  (3) 
Cc1ccccc1CC[NH2+]CCCCCn1c(=O)c2sccc2n(CC(=O)[N-]c2ccccc2Br)c1=O (protonated)
Cc1ccccc1CC[NH2+]CCCCCn1c(=O)c2sccc2n(CC(=O)[N-]c2ccccc2Br)c1=O (3D coordinates assigned)
Cc1ccccc1CC[NH2+]CCCCCn1c(=O)c2sccc2n(CC(=O)[N-]c2ccccc2Br)c1=O (optimized conformer: 116.34715583692933 kcal/mol)

>  <smiles>  (3) 
Cc1ccccc1CCNCCCCCn1c(=O)c2sccc2n(CC(=O)Nc2ccccc2Br)c1=O

>  <score_type>  (3) 
oracle

>  <origin>  (3) 
adg

>  <m_score__min__energy>  (3) 
-8.2799999999999994

>  <m_primary>  (3) 
energy

$$$$
3:0
     RDKit          3D

 39 40  0  0  0  0  0  0  0  0999 V2000
   58.8770   27.5070   44.2480 C   0  0  0  0  0  0  0  0  0  0  0  0
   57.7380   26.5340   44.5270 C   0  0  0  0  0  0  0  0  0  0  0  0
   56.6490   27.1720   45.7920 S   0  0  0  0  0  0  0  0  0  0  0  0
   57.4130   27.4640   47.0550 O   0  0  0  0  0  0  0  0  0  0  0  0
   55.5940   26.1460   46.0930 O   0  0  0  0  0  0  0  0  0  0  0  0
   55.8720   28.6150   45.2270 N   0  0  0  0  0  0  0  0  0  0  0  0
   56.4990   29.6720   44.4870 C   0  0  0  0  0  0  0  0  0  0  0  0
   56.2900   29.8510   43.1090 C   0  0  0  0  0  0  0  0  0  0  0  0
   56.9310   30.8900   42.4300 C   0  0  0  0  0  0  0  0  0  0  0  0
   57.7770   31.7620   43.1170 C   0  0  0  0  0  0  0  0  0  0  0  0
   57.9810   31.6110   44.4990 C   0  0  0  0  0  0  0  0  0  0  0  0
   58.8660   32.4780   45.2290 N   0  0  0  0  0  0  0  0  0  0  0  0
   58.4540   33.6990   45.8640 C   0  0  0  0  0  0  0  0  0  0  0  0
   57.2310   33.9660   46.0150 O   0  0  0  0  0  0  0  0  0  0  0  0
   59.4810   34.6170   46.4420 C   0  0  0  0  0  0  0  0  0  0  0  0
   60.7750   34.0670   46.2260 O   0  0  0  0  0  0  0  0  0  0  0  0
   61.2890   33.0200   46.9970 C   0  0  0  0  0  0  0  0  0  0  0  0
   60.9670   31.8260   46.7510 O   0  0  0  0  0  0  0  0  0  0  0  0
   62.2090   33.3200   48.0990 C   0  0  0  0  0  0  0  0  0  0  0  0
   61.9490   34.1490   49.1840 C   0  0  0  0  0  0  0  0  0  0  0  0
   63.0240   34.2420   50.0770 C   0  0  0  0  0  0  0  0  0  0  0  0
   64.1290   33.4890   49.6990 C   0  0  0  0  0  0  0  0  0  0  0  0
   63.7670   32.7080   48.2540 S   0  0  0  0  0  0  0  0  0  0  0  0
   57.3510   30.5500   45.1700 C   0  0  0  0  0  0  0  0  0  0  0  0
   59.2955   27.8645   45.2004 H   0  0  0  0  0  0  0  0  0  0  0  0
   59.6623   26.9966   43.6711 H   0  0  0  0  0  0  0  0  0  0  0  0
   58.4955   28.3624   43.6711 H   0  0  0  0  0  0  0  0  0  0  0  0
   57.1631   26.3779   43.6022 H   0  0  0  0  0  0  0  0  0  0  0  0
   58.1661   25.5837   44.8786 H   0  0  0  0  0  0  0  0  0  0  0  0
   55.6195   29.1708   42.5632 H   0  0  0  0  0  0  0  0  0  0  0  0
   56.7684   31.0214   41.3500 H   0  0  0  0  0  0  0  0  0  0  0  0
   58.2866   32.5715   42.5738 H   0  0  0  0  0  0  0  0  0  0  0  0
   59.8500   32.1610   45.3810 H   0  0  0  0  0  0  0  0  0  0  0  0
   59.4127   35.5999   45.9529 H   0  0  0  0  0  0  0  0  0  0  0  0
   59.3053   34.7351   47.5214 H   0  0  0  0  0  0  0  0  0  0  0  0
   60.9954   34.6784   49.3269 H   0  0  0  0  0  0  0  0  0  0  0  0
   62.9962   34.8533   50.9911 H   0  0  0  0  0  0  0  0  0  0  0  0
   65.0780   33.4162   50.2504 H   0  0  0  0  0  0  0  0  0  0  0  0
   57.5289   30.4064   46.2460 H   0  0  0  0  0  0  0  0  0  0  0  0
  1  2  1  0
  2  3  1  0
  3  4  2  0
  3  5  2  0
  3  6  1  0
  6  7  1  0
  7  8  2  0
  8  9  1  0
  9 10  2  0
 10 11  1  0
 11 12  1  0
 12 13  1  0
 13 14  2  0
 13 15  1  0
 15 16  1  0
 16 17  1  0
 17 18  2  0
 17 19  1  0
 19 20  2  0
 20 21  1  0
 21 22  2  0
 22 23  1  0
 11 24  2  0
 24  7  1  0
 23 19  1  0
  1 25  1  0
  1 26  1  0
  1 27  1  0
  2 28  1  0
  2 29  1  0
  8 30  1  0
  9 31  1  0
 10 32  1  0
 12 33  1  0
 15 34  1  0
 15 35  1  0
 20 36  1  0
 21 37  1  0
 22 38  1  0
 24 39  1  0
M  CHG  1   6  -1
M  END
>  <UniqueID>  (4) 
4

>  <SMILES>  (4) 
CCS(=O)(=O)[N-]c1cccc(NC(=O)COC(=O)c2cccs2)c1

>  <Energy>  (4) 
60.39634756351566

>  <Genealogy>  (4) 
CCS(=O)(=O)[N-]c1cccc(NC(=O)COC(=O)c2cccs2)c1 (protonated)
CCS(=O)(=O)[N-]c1cccc(NC(=O)COC(=O)c2cccs2)c1 (3D coordinates assigned)
CCS(=O)(=O)[N-]c1cccc(NC(=O)COC(=O)c2cccs2)c1 (optimized conformer: 60.39634756351566 kcal/mol)

>  <smiles>  (4) 
CCS(=O)(=O)Nc1cccc(NC(=O)COC(=O)c2cccs2)c1

>  <score_type>  (4) 
oracle

>  <origin>  (4) 
adg

>  <m_score__min__energy>  (4) 
-10.369999999999999

>  <m_primary>  (4) 
energy

$$$$
4:0
     RDKit          3D

 48 50  0  0  0  0  0  0  0  0999 V2000
   55.1180   21.5820   49.7660 C   0  0  0  0  0  0  0  0  0  0  0  0
   56.5340   22.2690   48.9310 S   0  0  0  0  0  0  0  0  0  0  0  0
   57.0990   21.2260   48.0080 O   0  0  0  0  0  0  0  0  0  0  0  0
   57.5920   22.6610   49.9240 O   0  0  0  0  0  0  0  0  0  0  0  0
   56.0620   23.6470   47.9910 N   0  0  0  0  0  0  0  0  0  0  0  0
   56.4350   23.9110   46.6280 C   0  0  0  0  0  0  0  0  0  0  0  0
   55.9730   23.1140   45.5640 C   0  0  0  0  0  0  0  0  0  0  0  0
   56.3760   23.3730   44.2420 C   0  0  0  0  0  0  0  0  0  0  0  0
   55.8860   22.5340   43.1230 C   0  0  0  0  0  0  0  0  0  0  0  0
   55.0980   23.0100   42.2640 O   0  0  0  0  0  0  0  0  0  0  0  0
   56.3010   21.2120   43.0010 O   0  0  0  0  0  0  0  0  0  0  0  0
   57.2360   24.4520   43.9920 C   0  0  0  0  0  0  0  0  0  0  0  0
   57.6890   25.2560   45.0390 C   0  0  0  0  0  0  0  0  0  0  0  0
   57.2990   24.9890   46.3640 C   0  0  0  0  0  0  0  0  0  0  0  0
   57.7060   25.8350   47.4490 N   0  0  0  0  0  0  0  0  0  0  0  0
   58.8630   26.6840   47.4880 C   0  0  0  0  0  0  0  0  0  0  0  0
   59.7090   26.5580   48.4160 O   0  0  0  0  0  0  0  0  0  0  0  0
   59.0310   27.7480   46.4700 C   0  0  0  0  0  0  0  0  0  0  0  0
   60.3080   28.0540   45.9630 C   0  0  0  0  0  0  0  0  0  0  0  0
   60.4670   29.0600   45.0070 C   0  0  0  0  0  0  0  0  0  0  0  0
   59.3570   29.7670   44.5400 C   0  0  0  0  0  0  0  0  0  0  0  0
   58.0770   29.4680   45.0250 C   0  0  0  0  0  0  0  0  0  0  0  0
   56.6720   30.3560   44.4420 S   0  0  0  0  0  0  0  0  0  0  0  0
   56.7550   30.4940   42.9470 O   0  0  0  0  0  0  0  0  0  0  0  0
   55.4320   29.5950   44.8260 O   0  0  0  0  0  0  0  0  0  0  0  0
   56.6400   31.9360   45.1600 N   0  0  0  0  0  0  0  0  0  0  0  0
   57.7720   32.7500   45.5010 C   0  0  0  0  0  0  0  0  0  0  0  0
   58.1100   33.7980   44.6310 C   0  0  0  0  0  0  0  0  0  0  0  0
   59.2070   34.6220   44.9000 C   0  0  0  0  0  0  0  0  0  0  0  0
   59.9730   34.4130   46.0460 C   0  0  0  0  0  0  0  0  0  0  0  0
   59.6370   33.3870   46.9320 C   0  0  0  0  0  0  0  0  0  0  0  0
   58.5390   32.5590   46.6720 C   0  0  0  0  0  0  0  0  0  0  0  0
   58.2220   31.6100   47.5880 F   0  0  0  0  0  0  0  0  0  0  0  0
   57.9200   28.4690   45.9950 C   0  0  0  0  0  0  0  0  0  0  0  0
   55.2639   21.6528   50.8540 H   0  0  0  0  0  0  0  0  0  0  0  0
   54.2159   22.1426   49.4798 H   0  0  0  0  0  0  0  0  0  0  0  0
   55.0000   20.5265   49.4798 H   0  0  0  0  0  0  0  0  0  0  0  0
   55.2881   22.2780   45.7691 H   0  0  0  0  0  0  0  0  0  0  0  0
   57.5564   24.6666   42.9618 H   0  0  0  0  0  0  0  0  0  0  0  0
   58.3558   26.1046   44.8266 H   0  0  0  0  0  0  0  0  0  0  0  0
   61.1863   27.4974   46.3219 H   0  0  0  0  0  0  0  0  0  0  0  0
   61.4696   29.2960   44.6209 H   0  0  0  0  0  0  0  0  0  0  0  0
   59.4879   30.5606   43.7896 H   0  0  0  0  0  0  0  0  0  0  0  0
   57.5059   33.9729   43.7285 H   0  0  0  0  0  0  0  0  0  0  0  0
   59.4660   35.4359   44.2068 H   0  0  0  0  0  0  0  0  0  0  0  0
   60.8415   35.0558   46.2522 H   0  0  0  0  0  0  0  0  0  0  0  0
   60.2387   33.2288   47.8392 H   0  0  0  0  0  0  0  0  0  0  0  0
   56.9176   28.2461   46.3893 H   0  0  0  0  0  0  0  0  0  0  0  0
  1  2  1  0
  2  3  2  0
  2  4  2  0
  2  5  1  0
  5  6  1  0
  6  7  2  0
  7  8  1  0
  8  9  1  0
  9 10  2  0
  9 11  1  0
  8 12  2  0
 12 13  1  0
 13 14  2  0
 14 15  1  0
 15 16  1  0
 16 17  2  0
 16 18  1  0
 18 19  2  0
 19 20  1  0
 20 21  2  0
 21 22  1  0
 22 23  1  0
 23 24  2  0
 23 25  2  0
 23 26  1  0
 26 27  1  0
 27 28  2  0
 28 29  1  0
 29 30  2  0
 30 31  1  0
 31 32  2  0
 32 33  1  0
 22 34  2  0
 14  6  1  0
 34 18  1  0
 32 27  1  0
  1 35  1  0
  1 36  1  0
  1 37  1  0
  7 38  1  0
 12 39  1  0
 13 40  1  0
 19 41  1  0
 20 42  1  0
 21 43  1  0
 28 44  1  0
 29 45  1  0
 30 46  1  0
 31 47  1  0
 34 48  1  0
M  CHG  4   5  -1  11  -1  15  -1  26  -1
M  END
>  <UniqueID>  (5) 
5

>  <SMILES>  (5) 
CS(=O)(=O)[N-]c1cc(C(=O)[O-])ccc1[N-]C(=O)c1cccc(S(=O)(=O)[N-]c2ccccc2F)c1

>  <Energy>  (5) 
62.42003118099726

>  <Genealogy>  (5) 
CS(=O)(=O)[N-]c1cc(C(=O)[O-])ccc1[N-]C(=O)c1cccc(S(=O)(=O)[N-]c2ccccc2F)c1 (protonated)
CS(=O)(=O)[N-]c1cc(C(=O)[O-])ccc1[N-]C(=O)c1cccc(S(=O)(=O)[N-]c2ccccc2F)c1 (3D coordinates assigned)
CS(=O)(=O)[N-]c1cc(C(=O)[O-])ccc1[N-]C(=O)c1cccc(S(=O)(=O)[N-]c2ccccc2F)c1 (optimized conformer: 62.42003118099726 kcal/mol)

>  <smiles>  (5) 
CS(=O)(=O)Nc1cc(C(=O)O)ccc1NC(=O)c1cccc(S(=O)(=O)Nc2ccccc2F)c1

>  <score_type>  (5) 
oracle

>  <origin>  (5) 
adg

>  <m_score__min__energy>  (5) 
-16.370000000000001

>  <m_primary>  (5) 
energy

$$$$
5:0
     RDKit          3D

 32 34  0  0  0  0  0  0  0  0999 V2000
   57.8420   30.4000   46.7520 O   0  0  0  0  0  0  0  0  0  0  0  0
   58.8240   31.1770   46.9130 C   0  0  0  0  0  0  0  0  0  0  0  0
   58.8250   32.4420   46.3010 C   0  0  0  0  0  0  0  0  0  0  0  0
   57.7800   32.8750   45.4630 C   0  0  0  0  0  0  0  0  0  0  0  0
   57.8310   34.1450   44.8790 C   0  0  0  0  0  0  0  0  0  0  0  0
   58.9180   34.9900   45.1270 C   0  0  0  0  0  0  0  0  0  0  0  0
   59.9580   34.5680   45.9600 C   0  0  0  0  0  0  0  0  0  0  0  0
   59.9150   33.2980   46.5470 C   0  0  0  0  0  0  0  0  0  0  0  0
   60.9190   32.8930   47.3620 N   0  0  0  0  0  0  0  0  0  0  0  0
   60.9100   31.6660   47.9420 C   0  0  0  0  0  0  0  0  0  0  0  0
   62.1690   31.2490   48.9090 S   0  0  0  0  0  0  0  0  0  0  0  0
   59.8840   30.7910   47.6940 N   0  0  0  0  0  0  0  0  0  0  0  0
   59.8860   29.5220   48.3120 N   0  0  0  0  0  0  0  0  0  0  0  0
   60.1070   28.3950   47.6940 C   0  0  0  0  0  0  0  0  0  0  0  0
   59.2320   27.8490   46.6340 C   0  0  0  0  0  0  0  0  0  0  0  0
   59.5640   27.9660   45.2730 C   0  0  0  0  0  0  0  0  0  0  0  0
   58.7230   27.4300   44.2960 C   0  0  0  0  0  0  0  0  0  0  0  0
   57.5560   26.7570   44.6650 C   0  0  0  0  0  0  0  0  0  0  0  0
   57.2220   26.6030   46.0210 C   0  0  0  0  0  0  0  0  0  0  0  0
   56.0260   25.9000   46.4070 N   0  0  0  0  0  0  0  0  0  0  0  0
   56.0890   24.8850   47.1330 O   0  0  0  0  0  0  0  0  0  0  0  0
   54.7910   26.3350   45.9830 O   0  0  0  0  0  0  0  0  0  0  0  0
   58.0740   27.1460   47.0000 C   0  0  0  0  0  0  0  0  0  0  0  0
   56.9227   32.2141   45.2673 H   0  0  0  0  0  0  0  0  0  0  0  0
   57.0142   34.4802   44.2229 H   0  0  0  0  0  0  0  0  0  0  0  0
   58.9543   35.9880   44.6658 H   0  0  0  0  0  0  0  0  0  0  0  0
   60.8111   35.2346   46.1545 H   0  0  0  0  0  0  0  0  0  0  0  0
   60.9978   27.8157   47.9783 H   0  0  0  0  0  0  0  0  0  0  0  0
   60.4895   28.4816   44.9769 H   0  0  0  0  0  0  0  0  0  0  0  0
   58.9803   27.5381   43.2320 H   0  0  0  0  0  0  0  0  0  0  0  0
   56.8942   26.3449   43.8890 H   0  0  0  0  0  0  0  0  0  0  0  0
   57.8296   27.0180   48.0648 H   0  0  0  0  0  0  0  0  0  0  0  0
  1  2  2  0
  2  3  1  0
  3  4  2  0
  4  5  1  0
  5  6  2  0
  6  7  1  0
  7  8  2  0
  8  9  1  0
  9 10  1  0
 10 11  2  0
 10 12  1  0
 12 13  1  0
 13 14  2  3
 14 15  1  0
 15 16  2  0
 16 17  1  0
 17 18  2  0
 18 19  1  0
 19 20  1  0
 20 21  2  0
 20 22  1  0
 19 23  2  0
 12  2  1  0
 23 15  1  0
  8  3  1  0
  4 24  1  0
  5 25  1  0
  6 26  1  0
  7 27  1  0
 14 28  1  0
 16 29  1  0
 17 30  1  0
 18 31  1  0
 23 32  1  0
M  CHG  3   9  -1  20   1  22  -1
M  END
>  <UniqueID>  (6) 
6

>  <SMILES>  (6) 
O=c1c2ccccc2[n-]c(=S)n1N=Cc1cccc([N+](=O)[O-])c1

>  <Energy>  (6) 
54.71623662993635

>  <Genealogy>  (6) 
O=c1c2ccccc2[n-]c(=S)n1N=Cc1cccc([N+](=O)[O-])c1 (protonated)
O=c1c2ccccc2[n-]c(=S)n1N=Cc1cccc([N+](=O)[O-])c1 (3D coordinates assigned)
O=c1c2ccccc2[n-]c(=S)n1N=Cc1cccc([N+](=O)[O-])c1 (optimized conformer: 54.71623662993635 kcal/mol)

>  <smiles>  (6) 
O=c1c2ccccc2[nH]c(=S)n1N=Cc1cccc([N+](=O)[O-])c1

>  <score_type>  (6) 
oracle

>  <origin>  (6) 
adg

>  <m_score__min__energy>  (6) 
-9.4700000000000006

>  <m_primary>  (6) 
energy

$$$$
6:0
     RDKit          3D

 55 58  0  0  0  0  0  0  0  0999 V2000
   56.8420   30.5460   43.6720 C   0  0  0  0  0  0  0  0  0  0  0  0
   56.3870   29.4900   44.6340 C   0  0  0  0  0  0  0  0  0  0  0  0
   55.1530   29.3570   44.8650 O   0  0  0  0  0  0  0  0  0  0  0  0
   57.3110   28.6010   45.2750 N   0  0  0  0  0  0  0  0  0  0  0  0
   58.2910   28.9570   46.2630 C   0  0  0  0  0  0  0  0  0  0  0  0
   59.2180   29.9620   45.9680 C   0  0  0  0  0  0  0  0  0  0  0  0
   60.2020   30.3100   46.8990 C   0  0  0  0  0  0  0  0  0  0  0  0
   60.2720   29.6570   48.1400 C   0  0  0  0  0  0  0  0  0  0  0  0
   61.2720   30.0660   49.0960 N   0  0  0  0  0  0  0  0  0  0  0  0
   61.5590   29.3580   50.3170 C   0  0  0  0  0  0  0  0  0  0  0  0
   60.9560   28.2870   50.6030 O   0  0  0  0  0  0  0  0  0  0  0  0
   62.5120   29.9420   51.3160 C   0  0  0  0  0  0  0  0  0  0  0  0
   61.7590   31.3590   52.1900 S   0  0  0  0  0  0  0  0  0  0  0  0
   61.6100   32.3880   50.7250 C   0  0  0  0  0  0  0  0  0  0  0  0
   60.4550   32.5150   50.0490 N   0  0  0  0  0  0  0  0  0  0  0  0
   60.7920   33.2340   48.9550 C   0  0  0  0  0  0  0  0  0  0  0  0
   59.8300   33.5840   47.8890 C   0  0  0  0  0  0  0  0  0  0  0  0
   60.1920   34.4830   46.8670 C   0  0  0  0  0  0  0  0  0  0  0  0
   59.2870   34.7930   45.8460 C   0  0  0  0  0  0  0  0  0  0  0  0
   58.0120   34.1990   45.8240 C   0  0  0  0  0  0  0  0  0  0  0  0
   57.0290   34.5230   44.7370 C   0  0  0  0  0  0  0  0  0  0  0  0
   57.6490   33.3070   46.8430 C   0  0  0  0  0  0  0  0  0  0  0  0
   58.5480   33.0020   47.8690 C   0  0  0  0  0  0  0  0  0  0  0  0
   62.1010   33.5640   48.9100 N   0  0  0  0  0  0  0  0  0  0  0  0
   62.6190   33.0340   50.0340 C   0  0  0  0  0  0  0  0  0  0  0  0
   64.0540   33.1290   50.3870 C   0  0  0  0  0  0  0  0  0  0  0  0
   64.9900   32.3010   49.7390 C   0  0  0  0  0  0  0  0  0  0  0  0
   66.3510   32.3930   50.0490 C   0  0  0  0  0  0  0  0  0  0  0  0
   66.7900   33.3200   50.9990 C   0  0  0  0  0  0  0  0  0  0  0  0
   65.8700   34.1620   51.6350 C   0  0  0  0  0  0  0  0  0  0  0  0
   64.5110   34.0710   51.3270 C   0  0  0  0  0  0  0  0  0  0  0  0
   59.3830   28.5990   48.4050 C   0  0  0  0  0  0  0  0  0  0  0  0
   58.3970   28.2570   47.4770 C   0  0  0  0  0  0  0  0  0  0  0  0
   57.2166   31.4154   44.2321 H   0  0  0  0  0  0  0  0  0  0  0  0
   57.6465   30.1433   43.0390 H   0  0  0  0  0  0  0  0  0  0  0  0
   55.9968   30.8541   43.0390 H   0  0  0  0  0  0  0  0  0  0  0  0
   59.1729   30.4811   44.9992 H   0  0  0  0  0  0  0  0  0  0  0  0
   60.9267   31.1014   46.6571 H   0  0  0  0  0  0  0  0  0  0  0  0
   61.6530   31.0360   49.0130 H   0  0  0  0  0  0  0  0  0  0  0  0
   62.7817   29.1687   52.0504 H   0  0  0  0  0  0  0  0  0  0  0  0
   63.4063   30.2953   50.7817 H   0  0  0  0  0  0  0  0  0  0  0  0
   61.1909   34.9436   46.8716 H   0  0  0  0  0  0  0  0  0  0  0  0
   59.5736   35.5041   45.0572 H   0  0  0  0  0  0  0  0  0  0  0  0
   56.0755   34.8373   45.1866 H   0  0  0  0  0  0  0  0  0  0  0  0
   57.4267   35.3376   44.1139 H   0  0  0  0  0  0  0  0  0  0  0  0
   56.8644   33.6316   44.1139 H   0  0  0  0  0  0  0  0  0  0  0  0
   56.6510   32.8445   46.8350 H   0  0  0  0  0  0  0  0  0  0  0  0
   58.2522   32.3033   48.6654 H   0  0  0  0  0  0  0  0  0  0  0  0
   64.6491   31.5771   48.9842 H   0  0  0  0  0  0  0  0  0  0  0  0
   67.0756   31.7362   49.5454 H   0  0  0  0  0  0  0  0  0  0  0  0
   67.8595   33.3879   51.2470 H   0  0  0  0  0  0  0  0  0  0  0  0
   66.2177   34.8954   52.3775 H   0  0  0  0  0  0  0  0  0  0  0  0
   63.7927   34.7405   51.8228 H   0  0  0  0  0  0  0  0  0  0  0  0
   59.4651   28.0384   49.3479 H   0  0  0  0  0  0  0  0  0  0  0  0
   57.6996   27.4354   47.6974 H   0  0  0  0  0  0  0  0  0  0  0  0
  1  2  1  0
  2  3  2  0
  2  4  1  0
  4  5  1  0
  5  6  2  0
  6  7  1  0
  7  8  2  0
  8  9  1  0
  9 10  1  0
 10 11  2  0
 10 12  1  0
 12 13  1  0
 13 14  1  0
 14 15  1  0
 15 16  1  0
 16 17  1  0
 17 18  2  0
 18 19  1  0
 19 20  2  0
 20 21  1  0
 20 22  1  0
 22 23  2  0
 16 24  2  0
 24 25  1  0
 25 26  1  0
 26 27  2  0
 27 28  1  0
 28 29  2  0
 29 30  1  0
 30 31  2  0
  8 32  1  0
 32 33  2  0
 33  5  1  0
 25 14  2  0
 31 26  1  0
 23 17  1  0
  1 34  1  0
  1 35  1  0
  1 36  1  0
  6 37  1  0
  7 38  1  0
  9 39  1  0
 12 40  1  0
 12 41  1  0
 18 42  1  0
 19 43  1  0
 21 44  1  0
 21 45  1  0
 21 46  1  0
 22 47  1  0
 23 48  1  0
 27 49  1  0
 28 50  1  0
 29 51  1  0
 30 52  1  0
 31 53  1  0
 32 54  1  0
 33 55  1  0
M  CHG  2   4  -1  15  -1
M  END
>  <UniqueID>  (7) 
7

>  <SMILES>  (7) 
CC(=O)[N-]c1ccc(NC(=O)CSc2[n-]c(-c3ccc(C)cc3)nc2-c2ccccc2)cc1

>  <Energy>  (7) 
89.01166220196443

>  <Genealogy>  (7) 
CC(=O)[N-]c1ccc(NC(=O)CSc2[n-]c(-c3ccc(C)cc3)nc2-c2ccccc2)cc1 (protonated)
CC(=O)[N-]c1ccc(NC(=O)CSc2[n-]c(-c3ccc(C)cc3)nc2-c2ccccc2)cc1 (3D coordinates assigned)
CC(=O)[N-]c1ccc(NC(=O)CSc2[n-]c(-c3ccc(C)cc3)nc2-c2ccccc2)cc1 (optimized conformer: 89.01166220196443 kcal/mol)

>  <smiles>  (7) 
CC(=O)Nc1ccc(NC(=O)CSc2[nH]c(-c3ccc(C)cc3)nc2-c2ccccc2)cc1

>  <score_type>  (7) 
oracle

>  <origin>  (7) 
adg

>  <m_score__min__energy>  (7) 
-11.67

>  <m_primary>  (7) 
energy

$$$$
7:0
     RDKit          3D

 35 36  0  0  0  0  0  0  0  0999 V2000
   56.0730   25.7210   45.9230 C   0  0  0  0  0  0  0  0  0  0  0  0
   55.5700   27.0840   45.8380 N   0  0  0  0  0  0  0  0  0  0  0  0
   56.2730   28.1850   45.2490 C   0  0  0  0  0  0  0  0  0  0  0  0
   55.6580   29.2710   45.0770 O   0  0  0  0  0  0  0  0  0  0  0  0
   57.7160   28.0880   44.8340 C   0  0  0  0  0  0  0  0  0  0  0  0
   58.6180   27.8310   46.0180 C   0  0  0  0  0  0  0  0  0  0  0  0
   59.3230   26.6170   46.1040 C   0  0  0  0  0  0  0  0  0  0  0  0
   60.1620   26.3590   47.1900 C   0  0  0  0  0  0  0  0  0  0  0  0
   60.3070   27.3070   48.2020 C   0  0  0  0  0  0  0  0  0  0  0  0
   59.6250   28.5220   48.1260 C   0  0  0  0  0  0  0  0  0  0  0  0
   58.7950   28.8060   47.0260 C   0  0  0  0  0  0  0  0  0  0  0  0
   58.0920   30.0570   46.9400 N   0  0  0  0  0  0  0  0  0  0  0  0
   58.5630   31.3270   47.4080 C   0  0  0  0  0  0  0  0  0  0  0  0
   58.9070   31.4390   48.6150 O   0  0  0  0  0  0  0  0  0  0  0  0
   58.5500   32.5270   46.5410 C   0  0  0  0  0  0  0  0  0  0  0  0
   59.4510   33.5720   46.8130 C   0  0  0  0  0  0  0  0  0  0  0  0
   59.4980   34.7010   45.9930 C   0  0  0  0  0  0  0  0  0  0  0  0
   58.6510   34.7990   44.8890 C   0  0  0  0  0  0  0  0  0  0  0  0
   57.7470   33.7730   44.6080 C   0  0  0  0  0  0  0  0  0  0  0  0
   57.6770   32.6410   45.4300 C   0  0  0  0  0  0  0  0  0  0  0  0
   56.7180   31.6710   45.1320 O   0  0  0  0  0  0  0  0  0  0  0  0
   56.1788   25.4344   46.9797 H   0  0  0  0  0  0  0  0  0  0  0  0
   55.3676   25.0382   45.4268 H   0  0  0  0  0  0  0  0  0  0  0  0
   57.0528   25.6601   45.4268 H   0  0  0  0  0  0  0  0  0  0  0  0
   57.8262   27.2626   44.1152 H   0  0  0  0  0  0  0  0  0  0  0  0
   58.0088   29.0459   44.3794 H   0  0  0  0  0  0  0  0  0  0  0  0
   59.2125   25.8646   45.3092 H   0  0  0  0  0  0  0  0  0  0  0  0
   60.7093   25.4065   47.2471 H   0  0  0  0  0  0  0  0  0  0  0  0
   60.9601   27.0968   49.0618 H   0  0  0  0  0  0  0  0  0  0  0  0
   59.7370   29.2627   48.9315 H   0  0  0  0  0  0  0  0  0  0  0  0
   60.1247   33.4992   47.6795 H   0  0  0  0  0  0  0  0  0  0  0  0
   60.2038   35.5142   46.2178 H   0  0  0  0  0  0  0  0  0  0  0  0
   58.6954   35.6855   44.2393 H   0  0  0  0  0  0  0  0  0  0  0  0
   57.0842   33.8542   43.7339 H   0  0  0  0  0  0  0  0  0  0  0  0
   56.6500   30.7910   45.6250 H   0  0  0  0  0  0  0  0  0  0  0  0
  1  2  1  0
  2  3  1  0
  3  4  2  0
  3  5  1  0
  5  6  1  0
  6  7  2  0
  7  8  1  0
  8  9  2  0
  9 10  1  0
 10 11  2  0
 11 12  1  0
 12 13  1  0
 13 14  2  0
 13 15  1  0
 15 16  2  0
 16 17  1  0
 17 18  2  0
 18 19  1  0
 19 20  2  0
 20 21  1  0
 11  6  1  0
 20 15  1  0
  1 22  1  0
  1 23  1  0
  1 24  1  0
  5 25  1  0
  5 26  1  0
  7 27  1  0
  8 28  1  0
  9 29  1  0
 10 30  1  0
 16 31  1  0
 17 32  1  0
 18 33  1  0
 19 34  1  0
 21 35  1  0
M  CHG  2   2  -1  12  -1
M  END
>  <UniqueID>  (8) 
8

>  <SMILES>  (8) 
C[N-]C(=O)Cc1ccccc1[N-]C(=O)c1ccccc1O

>  <Energy>  (8) 
42.22209690287705

>  <Genealogy>  (8) 
C[N-]C(=O)Cc1ccccc1[N-]C(=O)c1ccccc1O (protonated)
C[N-]C(=O)Cc1ccccc1[N-]C(=O)c1ccccc1O (3D coordinates assigned)
C[N-]C(=O)Cc1ccccc1[N-]C(=O)c1ccccc1O (optimized conformer: 42.22209690287705 kcal/mol)

>  <smiles>  (8) 
CNC(=O)Cc1ccccc1NC(=O)c1ccccc1O

>  <score_type>  (8) 
oracle

>  <origin>  (8) 
adg

>  <m_score__min__energy>  (8) 
-10.51

>  <m_primary>  (8) 
energy

$$$$
8:0
     RDKit          3D

 30 32  0  0  0  0  0  0  0  0999 V2000
   57.9940   32.6140   42.0450 O   0  0  0  0  0  0  0  0  0  0  0  0
   57.7850   31.9730   43.1090 C   0  0  0  0  0  0  0  0  0  0  0  0
   57.2850   30.6700   43.0380 C   0  0  0  0  0  0  0  0  0  0  0  0
   57.0460   29.9480   44.2180 C   0  0  0  0  0  0  0  0  0  0  0  0
   56.5630   28.5930   44.1690 N   0  0  0  0  0  0  0  0  0  0  0  0
   57.2570   27.8000   45.1540 C   0  0  0  0  0  0  0  0  0  0  0  0
   58.6630   27.8310   45.2150 C   0  0  0  0  0  0  0  0  0  0  0  0
   59.3490   27.0430   46.1440 C   0  0  0  0  0  0  0  0  0  0  0  0
   58.6420   26.2140   47.0170 C   0  0  0  0  0  0  0  0  0  0  0  0
   57.2470   26.1670   46.9600 C   0  0  0  0  0  0  0  0  0  0  0  0
   56.5520   26.9510   46.0340 C   0  0  0  0  0  0  0  0  0  0  0  0
   55.1630   26.8810   45.9930 O   0  0  0  0  0  0  0  0  0  0  0  0
   57.3170   30.5220   45.4230 N   0  0  0  0  0  0  0  0  0  0  0  0
   57.8040   31.7860   45.5290 C   0  0  0  0  0  0  0  0  0  0  0  0
   58.0630   32.3300   46.7920 C   0  0  0  0  0  0  0  0  0  0  0  0
   58.5650   33.6290   46.9070 C   0  0  0  0  0  0  0  0  0  0  0  0
   58.8110   34.3900   45.7610 C   0  0  0  0  0  0  0  0  0  0  0  0
   58.5580   33.8570   44.4930 C   0  0  0  0  0  0  0  0  0  0  0  0
   58.0530   32.5500   44.3650 C   0  0  0  0  0  0  0  0  0  0  0  0
   57.0792   30.2111   42.0597 H   0  0  0  0  0  0  0  0  0  0  0  0
   55.5350   28.5880   44.3670 H   0  0  0  0  0  0  0  0  0  0  0  0
   56.6870   28.1920   43.2100 H   0  0  0  0  0  0  0  0  0  0  0  0
   59.2256   28.4794   44.5273 H   0  0  0  0  0  0  0  0  0  0  0  0
   60.4476   27.0762   46.1872 H   0  0  0  0  0  0  0  0  0  0  0  0
   59.1835   25.5978   47.7498 H   0  0  0  0  0  0  0  0  0  0  0  0
   56.6928   25.5103   47.6467 H   0  0  0  0  0  0  0  0  0  0  0  0
   57.8710   31.7338   47.6962 H   0  0  0  0  0  0  0  0  0  0  0  0
   58.7669   34.0534   47.9015 H   0  0  0  0  0  0  0  0  0  0  0  0
   59.2053   35.4125   45.8567 H   0  0  0  0  0  0  0  0  0  0  0  0
   58.7541   34.4605   43.5945 H   0  0  0  0  0  0  0  0  0  0  0  0
  1  2  2  0
  2  3  1  0
  3  4  2  0
  4  5  1  0
  5  6  1  0
  6  7  2  0
  7  8  1  0
  8  9  2  0
  9 10  1  0
 10 11  2  0
 11 12  1  0
  4 13  1  0
 13 14  1  0
 14 15  2  0
 15 16  1  0
 16 17  2  0
 17 18  1  0
 18 19  2  0
 19  2  1  0
 11  6  1  0
 19 14  1  0
  3 20  1  0
  5 21  1  0
  5 22  1  0
  7 23  1  0
  8 24  1  0
  9 25  1  0
 10 26  1  0
 15 27  1  0
 16 28  1  0
 17 29  1  0
 18 30  1  0
M  CHG  3   5   1  12  -1  13  -1
M  END
>  <UniqueID>  (9) 
9

>  <SMILES>  (9) 
O=c1cc([NH2+]c2ccccc2[O-])[n-]c2ccccc12

>  <Energy>  (9) 
39.65965015342292

>  <Genealogy>  (9) 
O=c1cc([NH2+]c2ccccc2[O-])[n-]c2ccccc12 (protonated)
O=c1cc([NH2+]c2ccccc2[O-])[n-]c2ccccc12 (3D coordinates assigned)
O=c1cc([NH2+]c2ccccc2[O-])[n-]c2ccccc12 (optimized conformer: 39.65965015342292 kcal/mol)

>  <smiles>  (9) 
O=c1cc(Nc2ccccc2O)[nH]c2ccccc12

>  <score_type>  (9) 
oracle

>  <origin>  (9) 
adg

>  <m_score__min__energy>  (9) 
-10.960000000000001

>  <m_primary>  (9) 
energy

$$$$
9:0
     RDKit          3D

 34 35  0  0  0  0  0  0  0  0999 V2000
   56.4106   33.0464   44.5801 H   0  0  0  0  0  0  0  0  0  0  0  0
   56.9150   32.1160   44.8800 C   0  0  0  0  0  0  0  0  0  0  0  0
   56.2830   30.9230   44.7280 N   0  0  0  0  0  0  0  0  0  0  0  0
   56.8610   29.7470   45.1030 C   0  0  0  0  0  0  0  0  0  0  0  0
   56.2410   28.6170   44.9390 N   0  0  0  0  0  0  0  0  0  0  0  0
   56.6980   27.1380   45.7220 S   0  0  0  0  0  0  0  0  0  0  0  0
   55.4590   26.3400   46.0150 O   0  0  0  0  0  0  0  0  0  0  0  0
   57.4000   27.4420   47.0160 O   0  0  0  0  0  0  0  0  0  0  0  0
   57.7620   26.1870   44.6580 C   0  0  0  0  0  0  0  0  0  0  0  0
   58.4434   25.5780   45.2703 H   0  0  0  0  0  0  0  0  0  0  0  0
   57.1515   25.5280   44.0231 H   0  0  0  0  0  0  0  0  0  0  0  0
   58.3486   26.8673   44.0231 H   0  0  0  0  0  0  0  0  0  0  0  0
   58.1400   29.7560   45.6690 C   0  0  0  0  0  0  0  0  0  0  0  0
   58.6126   28.8143   45.9849 H   0  0  0  0  0  0  0  0  0  0  0  0
   58.8120   30.9680   45.8300 C   0  0  0  0  0  0  0  0  0  0  0  0
   59.8155   30.9851   46.2801 H   0  0  0  0  0  0  0  0  0  0  0  0
   58.2080   32.1640   45.4180 C   0  0  0  0  0  0  0  0  0  0  0  0
   58.9100   33.4520   45.5460 C   0  0  0  0  0  0  0  0  0  0  0  0
   59.5840   33.8820   44.5730 O   0  0  0  0  0  0  0  0  0  0  0  0
   58.8880   34.2110   46.7630 N   0  0  0  0  0  0  0  0  0  0  0  0
   59.5370   33.8270   48.0160 C   0  0  0  0  0  0  0  0  0  0  0  0
   59.3651   34.6125   48.7666 H   0  0  0  0  0  0  0  0  0  0  0  0
   59.1097   32.8722   48.3561 H   0  0  0  0  0  0  0  0  0  0  0  0
   61.0200   33.6490   47.8180 C   0  0  0  0  0  0  0  0  0  0  0  0
   61.8280   33.2580   48.8960 C   0  0  0  0  0  0  0  0  0  0  0  0
   61.3795   33.0494   49.8785 H   0  0  0  0  0  0  0  0  0  0  0  0
   63.2060   33.1360   48.7110 C   0  0  0  0  0  0  0  0  0  0  0  0
   63.8495   32.8289   49.5486 H   0  0  0  0  0  0  0  0  0  0  0  0
   63.7650   33.4040   47.4630 C   0  0  0  0  0  0  0  0  0  0  0  0
   64.8507   33.3156   47.3102 H   0  0  0  0  0  0  0  0  0  0  0  0
   62.9330   33.7860   46.4080 C   0  0  0  0  0  0  0  0  0  0  0  0
   63.3642   33.9985   45.4186 H   0  0  0  0  0  0  0  0  0  0  0  0
   61.5900   33.8960   46.6010 N   0  0  0  0  0  0  0  0  0  0  0  0
   60.9960   34.1850   45.7930 H   0  0  0  0  0  0  0  0  0  0  0  0
  1  2  1  0
  2  3  1  0
  3  4  1  0
  4  5  2  0
  5  6  1  0
  6  7  2  0
  6  8  2  0
  6  9  1  0
  9 10  1  0
  9 11  1  0
  9 12  1  0
  4 13  1  0
 13 14  1  0
 13 15  2  0
 15 16  1  0
 15 17  1  0
 17 18  1  0
 18 19  2  0
 18 20  1  0
 20 21  1  0
 21 22  1  0
 21 23  1  0
 21 24  1  0
 24 25  2  0
 25 26  1  0
 25 27  1  0
 27 28  1  0
 27 29  2  0
 29 30  1  0
 29 31  1  0
 31 32  1  0
 31 33  2  0
 33 34  1  0
 17  2  2  0
 33 24  1  0
M  CHG  3   3  -1  20  -1  33   1
M  END
>  <UniqueID>  (10) 
10

>  <SMILES>  (10) 
CS(=O)(=O)/N=c1/ccc(C(=O)[N-]Cc2cccc[nH+]2)c[n-]1

>  <Energy>  (10) 
35.615448258305605

>  <Genealogy>  (10) 
CS(=O)(=O)N=c1ccc(C(=O)[N-]Cc2cccc[nH+]2)c[n-]1 (protonated)
CS(=O)(=O)/N=c1/ccc(C(=O)[N-]Cc2cccc[nH+]2)c[n-]1 (cis-trans isomerization)
CS(=O)(=O)/N=c1/ccc(C(=O)[N-]Cc2cccc[nH+]2)c[n-]1 (3D coordinates assigned)
CS(=O)(=O)/N=c1/ccc(C(=O)[N-]Cc2cccc[nH+]2)c[n-]1 (optimized conformer: 35.615448258305605 kcal/mol)

>  <smiles>  (10) 
CS(=O)(=O)N=c1ccc(C(=O)NCc2ccccn2)c[nH]1

>  <score_type>  (10) 
oracle

>  <origin>  (10) 
adg

>  <m_score__min__energy>  (10) 
-9.0199999999999996

>  <m_primary>  (10) 
energy

$$$$
10:0
     RDKit          3D

 46 48  0  0  0  0  0  0  0  0999 V2000
   66.5080   32.8290   49.7500 C   0  0  0  0  0  0  0  0  0  0  0  0
   65.0190   32.9260   49.7800 C   0  0  0  0  0  0  0  0  0  0  0  0
   64.2600   33.4560   50.8070 C   0  0  0  0  0  0  0  0  0  0  0  0
   62.9580   33.3930   50.3410 C   0  0  0  0  0  0  0  0  0  0  0  0
   61.7480   33.8270   51.1100 C   0  0  0  0  0  0  0  0  0  0  0  0
   62.9640   32.8800   49.0870 N   0  0  0  0  0  0  0  0  0  0  0  0
   61.8380   32.6520   48.2230 C   0  0  0  0  0  0  0  0  0  0  0  0
   61.0180   31.5270   48.3930 C   0  0  0  0  0  0  0  0  0  0  0  0
   59.9200   31.3190   47.5530 C   0  0  0  0  0  0  0  0  0  0  0  0
   59.6260   32.2310   46.5270 C   0  0  0  0  0  0  0  0  0  0  0  0
   58.4680   31.9900   45.6350 C   0  0  0  0  0  0  0  0  0  0  0  0
   57.3880   32.6010   45.8490 O   0  0  0  0  0  0  0  0  0  0  0  0
   58.5330   31.0800   44.5270 N   0  0  0  0  0  0  0  0  0  0  0  0
   58.6010   29.6510   44.6260 C   0  0  0  0  0  0  0  0  0  0  0  0
   59.6450   29.0910   45.3760 C   0  0  0  0  0  0  0  0  0  0  0  0
   59.7580   27.7070   45.5140 C   0  0  0  0  0  0  0  0  0  0  0  0
   58.8420   26.8670   44.8840 C   0  0  0  0  0  0  0  0  0  0  0  0
   57.8190   27.4070   44.1010 C   0  0  0  0  0  0  0  0  0  0  0  0
   57.6830   28.8000   43.9590 C   0  0  0  0  0  0  0  0  0  0  0  0
   56.6450   29.3290   42.9940 C   0  0  0  0  0  0  0  0  0  0  0  0
   55.3730   29.7430   43.7370 C   0  0  0  0  0  0  0  0  0  0  0  0
   55.6990   30.5050   44.8680 O   0  0  0  0  0  0  0  0  0  0  0  0
   60.4260   33.3780   46.3840 C   0  0  0  0  0  0  0  0  0  0  0  0
   61.5220   33.5850   47.2250 C   0  0  0  0  0  0  0  0  0  0  0  0
   64.2140   32.5940   48.7550 N   0  0  0  0  0  0  0  0  0  0  0  0
   66.8946   32.8038   50.7795 H   0  0  0  0  0  0  0  0  0  0  0  0
   66.8050   31.9096   49.2242 H   0  0  0  0  0  0  0  0  0  0  0  0
   66.9218   33.7021   49.2242 H   0  0  0  0  0  0  0  0  0  0  0  0
   64.6114   33.8409   51.7757 H   0  0  0  0  0  0  0  0  0  0  0  0
   61.9530   33.7535   52.1882 H   0  0  0  0  0  0  0  0  0  0  0  0
   61.5045   34.8685   50.8532 H   0  0  0  0  0  0  0  0  0  0  0  0
   60.8980   33.1777   50.8532 H   0  0  0  0  0  0  0  0  0  0  0  0
   61.2401   30.8041   49.1919 H   0  0  0  0  0  0  0  0  0  0  0  0
   59.2820   30.4346   47.6970 H   0  0  0  0  0  0  0  0  0  0  0  0
   60.3818   29.7488   45.8601 H   0  0  0  0  0  0  0  0  0  0  0  0
   60.5702   27.2792   46.1201 H   0  0  0  0  0  0  0  0  0  0  0  0
   58.9246   25.7766   45.0035 H   0  0  0  0  0  0  0  0  0  0  0  0
   57.1125   26.7362   43.5902 H   0  0  0  0  0  0  0  0  0  0  0  0
   57.0551   30.2029   42.4666 H   0  0  0  0  0  0  0  0  0  0  0  0
   56.3917   28.5335   42.2778 H   0  0  0  0  0  0  0  0  0  0  0  0
   54.7389   30.3413   43.0662 H   0  0  0  0  0  0  0  0  0  0  0  0
   54.8337   28.8391   44.0565 H   0  0  0  0  0  0  0  0  0  0  0  0
   56.5440   30.9790   44.6560 H   0  0  0  0  0  0  0  0  0  0  0  0
   60.1875   34.1171   45.6050 H   0  0  0  0  0  0  0  0  0  0  0  0
   62.1413   34.4859   47.1036 H   0  0  0  0  0  0  0  0  0  0  0  0
   64.5150   32.2010   47.8350 H   0  0  0  0  0  0  0  0  0  0  0  0
  1  2  1  0
  2  3  1  0
  3  4  2  0
  4  5  1  0
  4  6  1  0
  6  7  1  0
  7  8  2  0
  8  9  1  0
  9 10  2  0
 10 11  1  0
 11 12  2  0
 11 13  1  0
 13 14  1  0
 14 15  2  0
 15 16  1  0
 16 17  2  0
 17 18  1  0
 18 19  2  0
 19 20  1  0
 20 21  1  0
 21 22  1  0
 10 23  1  0
 23 24  2  0
  6 25  1  0
 25  2  2  0
 24  7  1  0
 19 14  1  0
  1 26  1  0
  1 27  1  0
  1 28  1  0
  3 29  1  0
  5 30  1  0
  5 31  1  0
  5 32  1  0
  8 33  1  0
  9 34  1  0
 15 35  1  0
 16 36  1  0
 17 37  1  0
 18 38  1  0
 20 39  1  0
 20 40  1  0
 21 41  1  0
 21 42  1  0
 22 43  1  0
 23 44  1  0
 24 45  1  0
 25 46  1  0
M  CHG  2  13  -1  25   1
M  END
>  <UniqueID>  (11) 
11

>  <SMILES>  (11) 
Cc1cc(C)n(-c2ccc(C(=O)[N-]c3ccccc3CCO)cc2)[nH+]1

>  <Energy>  (11) 
90.01358188454914

>  <Genealogy>  (11) 
Cc1cc(C)n(-c2ccc(C(=O)[N-]c3ccccc3CCO)cc2)[nH+]1 (protonated)
Cc1cc(C)n(-c2ccc(C(=O)[N-]c3ccccc3CCO)cc2)[nH+]1 (3D coordinates assigned)
Cc1cc(C)n(-c2ccc(C(=O)[N-]c3ccccc3CCO)cc2)[nH+]1 (optimized conformer: 90.01358188454914 kcal/mol)

>  <smiles>  (11) 
Cc1cc(C)n(-c2ccc(C(=O)Nc3ccccc3CCO)cc2)n1

>  <score_type>  (11) 
oracle

>  <origin>  (11) 
adg

>  <m_score__min__energy>  (11) 
-8.2400000000000002

>  <m_primary>  (11) 
energy

$$$$
11:0
     RDKit          3D

 56 59  0  0  0  0  0  0  0  0999 V2000
   62.1990   33.8330   46.7560 C   0  0  0  0  0  0  0  0  0  0  0  0
   60.7940   33.2980   46.7310 C   0  0  0  0  0  0  0  0  0  0  0  0
   59.7920   33.9710   46.0160 C   0  0  0  0  0  0  0  0  0  0  0  0
   58.4810   33.4700   45.9920 C   0  0  0  0  0  0  0  0  0  0  0  0
   57.4150   34.1850   45.2100 C   0  0  0  0  0  0  0  0  0  0  0  0
   58.1620   32.3230   46.7380 C   0  0  0  0  0  0  0  0  0  0  0  0
   59.1540   31.6530   47.4790 C   0  0  0  0  0  0  0  0  0  0  0  0
   58.9000   30.4350   48.2000 N   0  0  0  0  0  0  0  0  0  0  0  0
   59.8070   29.3660   48.5100 C   0  0  0  0  0  0  0  0  0  0  0  0
   60.7990   29.5470   49.2670 O   0  0  0  0  0  0  0  0  0  0  0  0
   59.6080   28.0290   47.8670 C   0  0  0  0  0  0  0  0  0  0  0  0
   58.1380   27.7740   47.4960 C   0  0  0  0  0  0  0  0  0  0  0  0
   57.9390   27.5600   46.0500 N   0  0  0  0  0  0  0  0  0  0  0  0
   58.1270   26.2450   45.4140 C   0  0  0  0  0  0  0  0  0  0  0  0
   57.1540   25.2260   45.9350 C   0  0  0  0  0  0  0  0  0  0  0  0
   57.5490   24.3220   46.8690 N   0  0  0  0  0  0  0  0  0  0  0  0
   56.6930   23.3860   47.3590 C   0  0  0  0  0  0  0  0  0  0  0  0
   57.1080   22.5600   48.2160 O   0  0  0  0  0  0  0  0  0  0  0  0
   55.3670   23.3460   46.8990 C   0  0  0  0  0  0  0  0  0  0  0  0
   54.4310   22.4080   47.3690 C   0  0  0  0  0  0  0  0  0  0  0  0
   53.1220   22.4150   46.8720 C   0  0  0  0  0  0  0  0  0  0  0  0
   52.7370   23.3610   45.9080 C   0  0  0  0  0  0  0  0  0  0  0  0
   51.0880   23.3760   45.2960 Cl  0  0  0  0  0  0  0  0  0  0  0  0
   53.6640   24.2970   45.4350 C   0  0  0  0  0  0  0  0  0  0  0  0
   54.9780   24.2910   45.9240 C   0  0  0  0  0  0  0  0  0  0  0  0
   55.8780   25.2010   45.4660 N   0  0  0  0  0  0  0  0  0  0  0  0
   57.6460   28.6910   45.2110 C   0  0  0  0  0  0  0  0  0  0  0  0
   56.3110   29.0360   44.9480 C   0  0  0  0  0  0  0  0  0  0  0  0
   56.0090   30.1180   44.1210 C   0  0  0  0  0  0  0  0  0  0  0  0
   57.0400   30.8720   43.5560 C   0  0  0  0  0  0  0  0  0  0  0  0
   58.3730   30.5420   43.8150 C   0  0  0  0  0  0  0  0  0  0  0  0
   58.6830   29.4510   44.6330 C   0  0  0  0  0  0  0  0  0  0  0  0
   60.3700   29.0480   44.8980 Cl  0  0  0  0  0  0  0  0  0  0  0  0
   60.4660   32.1470   47.4640 C   0  0  0  0  0  0  0  0  0  0  0  0
   62.5255   33.9573   47.7990 H   0  0  0  0  0  0  0  0  0  0  0  0
   62.8693   33.1272   46.2436 H   0  0  0  0  0  0  0  0  0  0  0  0
   62.2301   34.8059   46.2436 H   0  0  0  0  0  0  0  0  0  0  0  0
   60.0348   34.8955   45.4717 H   0  0  0  0  0  0  0  0  0  0  0  0
   56.7068   34.6600   45.9049 H   0  0  0  0  0  0  0  0  0  0  0  0
   57.8793   34.9550   44.5764 H   0  0  0  0  0  0  0  0  0  0  0  0
   56.8787   33.4632   44.5764 H   0  0  0  0  0  0  0  0  0  0  0  0
   57.1288   31.9454   46.7431 H   0  0  0  0  0  0  0  0  0  0  0  0
   60.2171   27.9820   46.9523 H   0  0  0  0  0  0  0  0  0  0  0  0
   59.9113   27.2584   48.5911 H   0  0  0  0  0  0  0  0  0  0  0  0
   57.7904   26.8798   48.0341 H   0  0  0  0  0  0  0  0  0  0  0  0
   57.5663   28.6703   47.7785 H   0  0  0  0  0  0  0  0  0  0  0  0
   57.9834   26.3512   44.3286 H   0  0  0  0  0  0  0  0  0  0  0  0
   59.1436   25.8959   45.6475 H   0  0  0  0  0  0  0  0  0  0  0  0
   54.7272   21.6684   48.1274 H   0  0  0  0  0  0  0  0  0  0  0  0
   52.3928   21.6771   47.2378 H   0  0  0  0  0  0  0  0  0  0  0  0
   53.3616   25.0373   44.6797 H   0  0  0  0  0  0  0  0  0  0  0  0
   55.4968   28.4486   45.3975 H   0  0  0  0  0  0  0  0  0  0  0  0
   54.9602   30.3771   43.9141 H   0  0  0  0  0  0  0  0  0  0  0  0
   56.8023   31.7270   42.9061 H   0  0  0  0  0  0  0  0  0  0  0  0
   59.1817   31.1429   43.3736 H   0  0  0  0  0  0  0  0  0  0  0  0
   61.2488   31.6255   48.0344 H   0  0  0  0  0  0  0  0  0  0  0  0
  1  2  1  0
  2  3  2  0
  3  4  1  0
  4  5  1  0
  4  6  2  0
  6  7  1  0
  7  8  1  0
  8  9  1  0
  9 10  2  0
  9 11  1  0
 11 12  1  0
 12 13  1  0
 13 14  1  0
 14 15  1  0
 15 16  2  0
 16 17  1  0
 17 18  2  0
 17 19  1  0
 19 20  2  0
 20 21  1  0
 21 22  2  0
 22 23  1  0
 22 24  1  0
 24 25  2  0
 25 26  1  0
 13 27  1  0
 27 28  2  0
 28 29  1  0
 29 30  2  0
 30 31  1  0
 31 32  2  0
 32 33  1  0
  7 34  2  0
 34  2  1  0
 26 15  1  0
 32 27  1  0
 25 19  1  0
  1 35  1  0
  1 36  1  0
  1 37  1  0
  3 38  1  0
  5 39  1  0
  5 40  1  0
  5 41  1  0
  6 42  1  0
 11 43  1  0
 11 44  1  0
 12 45  1  0
 12 46  1  0
 14 47  1  0
 14 48  1  0
 20 49  1  0
 21 50  1  0
 24 51  1  0
 28 52  1  0
 29 53  1  0
 30 54  1  0
 31 55  1  0
 34 56  1  0
M  CHG  2   8  -1  26  -1
M  END
>  <UniqueID>  (12) 
12

>  <SMILES>  (12) 
Cc1cc(C)cc([N-]C(=O)CCN(Cc2nc(=O)c3ccc(Cl)cc3[n-]2)c2ccccc2Cl)c1

>  <Energy>  (12) 
68.474439835085

>  <Genealogy>  (12) 
Cc1cc(C)cc([N-]C(=O)CCN(Cc2nc(=O)c3ccc(Cl)cc3[n-]2)c2ccccc2Cl)c1 (protonated)
Cc1cc(C)cc([N-]C(=O)CCN(Cc2nc(=O)c3ccc(Cl)cc3[n-]2)c2ccccc2Cl)c1 (3D coordinates assigned)
Cc1cc(C)cc([N-]C(=O)CCN(Cc2nc(=O)c3ccc(Cl)cc3[n-]2)c2ccccc2Cl)c1 (optimized conformer: 68.474439835085 kcal/mol)

>  <smiles>  (12) 
Cc1cc(C)cc(NC(=O)CCN(Cc2nc(=O)c3ccc(Cl)cc3[nH]2)c2ccccc2Cl)c1

>  <score_type>  (12) 
oracle

>  <origin>  (12) 
adg

>  <m_score__min__energy>  (12) 
-12.039999999999999

>  <m_primary>  (12) 
energy

$$$$
12:0
     RDKit          3D

 33 35  0  0  0  0  0  0  0  0999 V2000
   59.7070   26.7180   46.9090 O   0  0  0  0  0  0  0  0  0  0  0  0
   58.6700   27.2730   46.4580 C   0  0  0  0  0  0  0  0  0  0  0  0
   58.7610   28.5220   45.9350 N   0  0  0  0  0  0  0  0  0  0  0  0
   57.6730   29.1670   45.4370 C   0  0  0  0  0  0  0  0  0  0  0  0
   57.8050   30.5330   44.8720 C   0  0  0  0  0  0  0  0  0  0  0  0
   58.1180   31.6270   45.7040 C   0  0  0  0  0  0  0  0  0  0  0  0
   58.2420   32.9130   45.1690 C   0  0  0  0  0  0  0  0  0  0  0  0
   58.0540   33.1250   43.8010 C   0  0  0  0  0  0  0  0  0  0  0  0
   57.7440   32.0500   42.9660 C   0  0  0  0  0  0  0  0  0  0  0  0
   57.6180   30.7620   43.4940 C   0  0  0  0  0  0  0  0  0  0  0  0
   56.4630   28.5480   45.4640 N   0  0  0  0  0  0  0  0  0  0  0  0
   56.3140   27.2990   45.9760 C   0  0  0  0  0  0  0  0  0  0  0  0
   55.0520   26.7160   45.9790 O   0  0  0  0  0  0  0  0  0  0  0  0
   57.4280   26.6130   46.4900 C   0  0  0  0  0  0  0  0  0  0  0  0
   57.2830   25.2380   47.1000 C   0  0  0  0  0  0  0  0  0  0  0  0
   57.1970   24.1880   46.0250 C   0  0  0  0  0  0  0  0  0  0  0  0
   58.3470   23.4860   45.6240 C   0  0  0  0  0  0  0  0  0  0  0  0
   58.2720   22.5330   44.6030 C   0  0  0  0  0  0  0  0  0  0  0  0
   57.0510   22.2770   43.9700 C   0  0  0  0  0  0  0  0  0  0  0  0
   56.9600   21.0840   42.6880 Cl  0  0  0  0  0  0  0  0  0  0  0  0
   55.9030   22.9760   44.3590 C   0  0  0  0  0  0  0  0  0  0  0  0
   55.9760   23.9280   45.3800 C   0  0  0  0  0  0  0  0  0  0  0  0
   58.2658   31.4679   46.7823 H   0  0  0  0  0  0  0  0  0  0  0  0
   58.4881   33.7596   45.8268 H   0  0  0  0  0  0  0  0  0  0  0  0
   58.1501   34.1377   43.3823 H   0  0  0  0  0  0  0  0  0  0  0  0
   57.5984   32.2172   41.8886 H   0  0  0  0  0  0  0  0  0  0  0  0
   57.3711   29.9211   42.8293 H   0  0  0  0  0  0  0  0  0  0  0  0
   58.1551   25.0317   47.7379 H   0  0  0  0  0  0  0  0  0  0  0  0
   56.3597   25.2105   47.6973 H   0  0  0  0  0  0  0  0  0  0  0  0
   59.3103   23.6871   46.1155 H   0  0  0  0  0  0  0  0  0  0  0  0
   59.1747   21.9838   44.2972 H   0  0  0  0  0  0  0  0  0  0  0  0
   54.9426   22.7763   43.8612 H   0  0  0  0  0  0  0  0  0  0  0  0
   55.0716   24.4773   45.6805 H   0  0  0  0  0  0  0  0  0  0  0  0
  1  2  2  0
  2  3  1  0
  3  4  2  0
  4  5  1  0
  5  6  2  0
  6  7  1  0
  7  8  2  0
  8  9  1  0
  9 10  2  0
  4 11  1  0
 11 12  1  0
 12 13  1  0
 12 14  2  0
 14 15  1  0
 15 16  1  0
 16 17  2  0
 17 18  1  0
 18 19  2  0
 19 20  1  0
 19 21  1  0
 21 22  2  0
 14  2  1  0
 22 16  1  0
 10  5  1  0
  6 23  1  0
  7 24  1  0
  8 25  1  0
  9 26  1  0
 10 27  1  0
 15 28  1  0
 15 29  1  0
 17 30  1  0
 18 31  1  0
 21 32  1  0
 22 33  1  0
M  CHG  2  11  -1  13  -1
M  END
>  <UniqueID>  (13) 
13

>  <SMILES>  (13) 
O=c1nc(-c2ccccc2)[n-]c([O-])c1Cc1ccc(Cl)cc1

>  <Energy>  (13) 
38.92022858451979

>  <Genealogy>  (13) 
O=c1nc(-c2ccccc2)[n-]c([O-])c1Cc1ccc(Cl)cc1 (protonated)
O=c1nc(-c2ccccc2)[n-]c([O-])c1Cc1ccc(Cl)cc1 (3D coordinates assigned)
O=c1nc(-c2ccccc2)[n-]c([O-])c1Cc1ccc(Cl)cc1 (optimized conformer: 38.92022858451979 kcal/mol)

>  <smiles>  (13) 
O=c1nc(-c2ccccc2)[nH]c(O)c1Cc1ccc(Cl)cc1

>  <score_type>  (13) 
oracle

>  <origin>  (13) 
adg

>  <m_score__min__energy>  (13) 
-12.31

>  <m_primary>  (13) 
energy

$$$$
13:0
     RDKit          3D

 65 69  0  0  0  0  0  0  0  0999 V2000
   56.1990   29.2830   45.0340 C   0  0  0  0  0  0  0  0  0  0  0  0
   57.1650   30.0220   44.0860 C   0  0  0  0  0  0  0  0  0  0  0  0
   58.5770   29.4250   44.2200 C   0  0  0  0  0  0  0  0  0  0  0  0
   56.6690   29.8510   42.6370 C   0  0  0  0  0  0  0  0  0  0  0  0
   57.2020   31.4920   44.4530 C   0  0  0  0  0  0  0  0  0  0  0  0
   58.1440   32.4170   44.0430 C   0  0  0  0  0  0  0  0  0  0  0  0
   57.7520   33.5730   44.6890 C   0  0  0  0  0  0  0  0  0  0  0  0
   58.3430   34.7320   44.6540 N   0  0  0  0  0  0  0  0  0  0  0  0
   59.5480   35.0910   45.3440 C   0  0  0  0  0  0  0  0  0  0  0  0
   59.7140   36.2890   45.6800 O   0  0  0  0  0  0  0  0  0  0  0  0
   60.5810   34.1360   45.6280 N   0  0  0  0  0  0  0  0  0  0  0  0
   60.7710   33.4770   46.8870 C   0  0  0  0  0  0  0  0  0  0  0  0
   59.6940   33.2220   47.7510 C   0  0  0  0  0  0  0  0  0  0  0  0
   59.8950   32.4900   48.9260 C   0  0  0  0  0  0  0  0  0  0  0  0
   61.1650   31.9850   49.2330 C   0  0  0  0  0  0  0  0  0  0  0  0
   61.3340   31.1780   50.3610 O   0  0  0  0  0  0  0  0  0  0  0  0
   61.1370   29.7990   50.2850 C   0  0  0  0  0  0  0  0  0  0  0  0
   61.6730   28.9480   51.2540 C   0  0  0  0  0  0  0  0  0  0  0  0
   61.5200   27.5680   51.1100 C   0  0  0  0  0  0  0  0  0  0  0  0
   60.8420   27.0650   50.0420 N   0  0  0  0  0  0  0  0  0  0  0  0
   60.2790   27.8710   49.0940 C   0  0  0  0  0  0  0  0  0  0  0  0
   59.5670   27.2640   47.9440 C   0  0  0  0  0  0  0  0  0  0  0  0
   60.2190   26.3690   47.0780 C   0  0  0  0  0  0  0  0  0  0  0  0
   59.5390   25.7980   46.0020 C   0  0  0  0  0  0  0  0  0  0  0  0
   58.1840   26.0980   45.7720 C   0  0  0  0  0  0  0  0  0  0  0  0
   57.4500   25.4970   44.6330 C   0  0  0  0  0  0  0  0  0  0  0  0
   57.7580   25.8260   43.4570 O   0  0  0  0  0  0  0  0  0  0  0  0
   56.3820   24.5620   44.8450 N   0  0  0  0  0  0  0  0  0  0  0  0
   55.8610   23.7410   43.7570 C   0  0  0  0  0  0  0  0  0  0  0  0
   55.8910   22.2500   44.0370 C   0  0  0  0  0  0  0  0  0  0  0  0
   56.9250   22.8680   43.1150 C   0  0  0  0  0  0  0  0  0  0  0  0
   57.5390   27.0100   46.6260 C   0  0  0  0  0  0  0  0  0  0  0  0
   58.2240   27.5900   47.6960 C   0  0  0  0  0  0  0  0  0  0  0  0
   60.4200   29.2650   49.2090 C   0  0  0  0  0  0  0  0  0  0  0  0
   62.2500   32.2750   48.3900 C   0  0  0  0  0  0  0  0  0  0  0  0
   62.0560   33.0400   47.2360 C   0  0  0  0  0  0  0  0  0  0  0  0
   56.6330   33.3510   45.3970 N   0  0  0  0  0  0  0  0  0  0  0  0
   56.3360   32.0950   45.2370 O   0  0  0  0  0  0  0  0  0  0  0  0
   56.4757   29.4947   46.0774 H   0  0  0  0  0  0  0  0  0  0  0  0
   55.1704   29.6269   44.8504 H   0  0  0  0  0  0  0  0  0  0  0  0
   56.2618   28.2002   44.8504 H   0  0  0  0  0  0  0  0  0  0  0  0
   58.8303   29.3179   45.2851 H   0  0  0  0  0  0  0  0  0  0  0  0
   58.6053   28.4379   43.7354 H   0  0  0  0  0  0  0  0  0  0  0  0
   59.3048   30.0924   43.7354 H   0  0  0  0  0  0  0  0  0  0  0  0
   55.6291   29.4925   42.6453 H   0  0  0  0  0  0  0  0  0  0  0  0
   56.7192   30.8183   42.1157 H   0  0  0  0  0  0  0  0  0  0  0  0
   57.3047   29.1201   42.1157 H   0  0  0  0  0  0  0  0  0  0  0  0
   58.9985   32.2683   43.3664 H   0  0  0  0  0  0  0  0  0  0  0  0
   58.6905   33.5985   47.5035 H   0  0  0  0  0  0  0  0  0  0  0  0
   59.0532   32.3104   49.6109 H   0  0  0  0  0  0  0  0  0  0  0  0
   62.2097   29.3606   52.1210 H   0  0  0  0  0  0  0  0  0  0  0  0
   61.9476   26.8864   51.8601 H   0  0  0  0  0  0  0  0  0  0  0  0
   61.2756   26.1164   47.2504 H   0  0  0  0  0  0  0  0  0  0  0  0
   60.0668   25.1074   45.3278 H   0  0  0  0  0  0  0  0  0  0  0  0
   55.8950   24.5250   45.7680 H   0  0  0  0  0  0  0  0  0  0  0  0
   55.0972   24.4462   43.3973 H   0  0  0  0  0  0  0  0  0  0  0  0
   56.1893   21.8830   45.0301 H   0  0  0  0  0  0  0  0  0  0  0  0
   55.1650   21.4281   43.9510 H   0  0  0  0  0  0  0  0  0  0  0  0
   57.9728   22.9494   43.4397 H   0  0  0  0  0  0  0  0  0  0  0  0
   57.2592   22.6802   42.0840 H   0  0  0  0  0  0  0  0  0  0  0  0
   56.4846   27.2692   46.4496 H   0  0  0  0  0  0  0  0  0  0  0  0
   57.7072   28.3080   48.3497 H   0  0  0  0  0  0  0  0  0  0  0  0
   59.9698   29.9311   48.4583 H   0  0  0  0  0  0  0  0  0  0  0  0
   63.2539   31.8998   48.6379 H   0  0  0  0  0  0  0  0  0  0  0  0
   62.9149   33.2998   46.5998 H   0  0  0  0  0  0  0  0  0  0  0  0
  1  2  1  0
  2  3  1  0
  2  4  1  0
  2  5  1  0
  5  6  2  0
  6  7  1  0
  7  8  2  3
  8  9  1  0
  9 10  2  0
  9 11  1  0
 11 12  1  0
 12 13  2  0
 13 14  1  0
 14 15  2  0
 15 16  1  0
 16 17  1  0
 17 18  2  0
 18 19  1  0
 19 20  2  0
 20 21  1  0
 21 22  1  0
 22 23  2  0
 23 24  1  0
 24 25  2  0
 25 26  1  0
 26 27  2  0
 26 28  1  0
 28 29  1  0
 29 30  1  0
 30 31  1  0
 25 32  1  0
 32 33  2  0
 21 34  2  0
 15 35  1  0
 35 36  2  0
  7 37  1  0
 37 38  1  0
 38  5  1  0
 36 12  1  0
 34 17  1  0
 33 22  1  0
 31 29  1  0
  1 39  1  0
  1 40  1  0
  1 41  1  0
  3 42  1  0
  3 43  1  0
  3 44  1  0
  4 45  1  0
  4 46  1  0
  4 47  1  0
  6 48  1  0
 13 49  1  0
 14 50  1  0
 18 51  1  0
 19 52  1  0
 23 53  1  0
 24 54  1  0
 28 55  1  0
 29 56  1  0
 30 57  1  0
 30 58  1  0
 31 59  1  0
 31 60  1  0
 32 61  1  0
 33 62  1  0
 34 63  1  0
 35 64  1  0
 36 65  1  0
M  CHG  2  11  -1  37  -1
M  END
>  <UniqueID>  (14) 
14

>  <SMILES>  (14) 
CC(C)(C)c1cc(=NC(=O)[N-]c2ccc(Oc3ccnc(-c4ccc(C(=O)NC5CC5)cc4)c3)cc2)[n-]o1

>  <Energy>  (14) 
385.19400054231187

>  <Genealogy>  (14) 
CC(C)(C)c1cc(=NC(=O)[N-]c2ccc(Oc3ccnc(-c4ccc(C(=O)NC5CC5)cc4)c3)cc2)[n-]o1 (protonated)
CC(C)(C)c1cc(=NC(=O)[N-]c2ccc(Oc3ccnc(-c4ccc(C(=O)NC5CC5)cc4)c3)cc2)[n-]o1 (3D coordinates assigned)
CC(C)(C)c1cc(=NC(=O)[N-]c2ccc(Oc3ccnc(-c4ccc(C(=O)NC5CC5)cc4)c3)cc2)[n-]o1 (nonaromatic ring conformer: 385.19400054231187 kcal/mol)

>  <smiles>  (14) 
CC(C)(C)c1cc(=NC(=O)Nc2ccc(Oc3ccnc(-c4ccc(C(=O)NC5CC5)cc4)c3)cc2)[nH]o1

>  <score_type>  (14) 
oracle

>  <origin>  (14) 
adg

>  <m_score__min__energy>  (14) 
-12.710000000000001

>  <m_primary>  (14) 
energy

$$$$
14:0
     RDKit          3D

 47 49  0  0  0  0  0  0  0  0999 V2000
   59.2520   32.2220   48.2690 C   0  0  0  0  0  0  0  0  0  0  0  0
   59.1830   33.0980   47.0540 C   0  0  0  0  0  0  0  0  0  0  0  0
   59.4200   34.4010   47.2040 O   0  0  0  0  0  0  0  0  0  0  0  0
   59.4000   35.2610   46.1920 C   0  0  0  0  0  0  0  0  0  0  0  0
   59.1240   34.8230   44.8990 C   0  0  0  0  0  0  0  0  0  0  0  0
   58.8580   33.4710   44.6860 C   0  0  0  0  0  0  0  0  0  0  0  0
   58.5950   33.0650   43.5220 O   0  0  0  0  0  0  0  0  0  0  0  0
   58.8770   32.5800   45.7730 C   0  0  0  0  0  0  0  0  0  0  0  0
   58.5900   31.1410   45.5650 C   0  0  0  0  0  0  0  0  0  0  0  0
   57.3880   30.7360   44.9690 C   0  0  0  0  0  0  0  0  0  0  0  0
   57.1170   29.3790   44.7800 C   0  0  0  0  0  0  0  0  0  0  0  0
   58.0490   28.4060   45.1770 C   0  0  0  0  0  0  0  0  0  0  0  0
   57.7440   26.9370   45.0050 C   0  0  0  0  0  0  0  0  0  0  0  0
   57.4450   26.2210   46.3380 C   0  0  2  0  0  0  0  0  0  0  0  0
   58.1950   24.9680   46.4410 N   0  0  0  0  0  0  0  0  0  0  0  0
   57.6280   23.6510   46.3850 C   0  0  0  0  0  0  0  0  0  0  0  0
   57.4730   23.0110   47.4580 O   0  0  0  0  0  0  0  0  0  0  0  0
   57.2530   23.0140   45.1060 C   0  0  0  0  0  0  0  0  0  0  0  0
   56.7720   23.8230   44.0630 C   0  0  0  0  0  0  0  0  0  0  0  0
   56.4300   23.2640   42.8310 C   0  0  0  0  0  0  0  0  0  0  0  0
   56.5720   21.8920   42.6220 C   0  0  0  0  0  0  0  0  0  0  0  0
   57.0610   21.0770   43.6440 C   0  0  0  0  0  0  0  0  0  0  0  0
   57.4090   21.6230   44.8900 C   0  0  0  0  0  0  0  0  0  0  0  0
   57.8940   20.7500   45.9200 N   0  0  0  0  0  0  0  0  0  0  0  0
   55.9770   25.9440   46.4940 C   0  0  0  0  0  0  0  0  0  0  0  0
   55.1320   26.7110   45.9620 O   0  0  0  0  0  0  0  0  0  0  0  0
   55.5400   24.8140   47.1750 O   0  0  0  0  0  0  0  0  0  0  0  0
   59.2560   28.8150   45.7660 C   0  0  0  0  0  0  0  0  0  0  0  0
   59.5270   30.1730   45.9560 C   0  0  0  0  0  0  0  0  0  0  0  0
   59.2029   32.8455   49.1739 H   0  0  0  0  0  0  0  0  0  0  0  0
   58.4065   31.5184   48.2622 H   0  0  0  0  0  0  0  0  0  0  0  0
   60.1972   31.6594   48.2622 H   0  0  0  0  0  0  0  0  0  0  0  0
   59.6028   36.3263   46.3763 H   0  0  0  0  0  0  0  0  0  0  0  0
   59.1160   35.5328   44.0587 H   0  0  0  0  0  0  0  0  0  0  0  0
   56.6545   31.4905   44.6485 H   0  0  0  0  0  0  0  0  0  0  0  0
   56.1679   29.0703   44.3174 H   0  0  0  0  0  0  0  0  0  0  0  0
   56.8668   26.8360   44.3490 H   0  0  0  0  0  0  0  0  0  0  0  0
   58.6384   26.4648   44.5725 H   0  0  0  0  0  0  0  0  0  0  0  0
   57.7627   26.8959   47.1464 H   0  0  0  0  0  0  0  0  0  0  0  0
   56.6640   24.9065   44.2189 H   0  0  0  0  0  0  0  0  0  0  0  0
   56.0480   23.9060   42.0236 H   0  0  0  0  0  0  0  0  0  0  0  0
   56.2985   21.4524   41.6515 H   0  0  0  0  0  0  0  0  0  0  0  0
   57.1749   19.9966   43.4718 H   0  0  0  0  0  0  0  0  0  0  0  0
   58.5150   19.9390   45.7140 H   0  0  0  0  0  0  0  0  0  0  0  0
   57.6400   20.9180   46.9190 H   0  0  0  0  0  0  0  0  0  0  0  0
   59.9934   28.0616   46.0801 H   0  0  0  0  0  0  0  0  0  0  0  0
   60.4779   30.4836   46.4135 H   0  0  0  0  0  0  0  0  0  0  0  0
  1  2  1  0
  2  3  1  0
  3  4  1  0
  4  5  2  0
  5  6  1  0
  6  7  2  0
  6  8  1  0
  8  9  1  0
  9 10  2  0
 10 11  1  0
 11 12  2  0
 12 13  1  0
 13 14  1  0
 14 15  1  0
 15 16  1  0
 16 17  2  0
 16 18  1  0
 18 19  2  0
 19 20  1  0
 20 21  2  0
 21 22  1  0
 22 23  2  0
 23 24  1  0
 14 25  1  0
 25 26  2  0
 25 27  1  0
 12 28  1  0
 28 29  2  0
  8  2  2  0
 29  9  1  0
 23 18  1  0
  1 30  1  0
  1 31  1  0
  1 32  1  0
  4 33  1  0
  5 34  1  0
 10 35  1  0
 11 36  1  0
 13 37  1  0
 13 38  1  0
 14 39  1  1
 19 40  1  0
 20 41  1  0
 21 42  1  0
 22 43  1  0
 24 44  1  0
 24 45  1  0
 28 46  1  0
 29 47  1  0
M  CHG  2  15  -1  27  -1
M  END
>  <UniqueID>  (15) 
15

>  <SMILES>  (15) 
Cc1occc(=O)c1-c1ccc(C[C@H]([N-]C(=O)c2ccccc2N)C(=O)[O-])cc1

>  <Energy>  (15) 
61.541766266371525

>  <Genealogy>  (15) 
Cc1occc(=O)c1-c1ccc(CC([N-]C(=O)c2ccccc2N)C(=O)[O-])cc1 (protonated)
Cc1occc(=O)c1-c1ccc(C[C@H]([N-]C(=O)c2ccccc2N)C(=O)[O-])cc1 (chirality)
Cc1occc(=O)c1-c1ccc(C[C@H]([N-]C(=O)c2ccccc2N)C(=O)[O-])cc1 (3D coordinates assigned)
Cc1occc(=O)c1-c1ccc(C[C@H]([N-]C(=O)c2ccccc2N)C(=O)[O-])cc1 (optimized conformer: 61.541766266371525 kcal/mol)

>  <smiles>  (15) 
Cc1occc(=O)c1-c1ccc(CC(NC(=O)c2ccccc2N)C(=O)O)cc1

>  <score_type>  (15) 
oracle

>  <origin>  (15) 
adg

>  <m_score__min__energy>  (15) 
-13.31

>  <m_primary>  (15) 
energy

$$$$
15:0
     RDKit          3D

 33 35  0  0  0  0  0  0  0  0999 V2000
   53.6940   24.5820   45.9880 O   0  0  0  0  0  0  0  0  0  0  0  0
   54.8960   24.9220   45.8260 C   0  0  0  0  0  0  0  0  0  0  0  0
   55.9180   23.9050   45.4030 C   0  0  0  0  0  0  0  0  0  0  0  0
   57.2490   24.3290   45.7150 O   0  0  0  0  0  0  0  0  0  0  0  0
   57.6270   25.6760   45.7830 C   0  0  0  0  0  0  0  0  0  0  0  0
   58.9780   26.0290   45.7750 C   0  0  0  0  0  0  0  0  0  0  0  0
   59.3520   27.3750   45.8500 C   0  0  0  0  0  0  0  0  0  0  0  0
   58.3720   28.3820   45.9290 C   0  0  0  0  0  0  0  0  0  0  0  0
   58.7300   29.7710   46.0380 N   0  0  0  0  0  0  0  0  0  0  0  0
   57.9460   30.8460   45.4870 C   0  0  0  0  0  0  0  0  0  0  0  0
   56.8310   30.6020   44.9510 O   0  0  0  0  0  0  0  0  0  0  0  0
   58.4210   32.2500   45.5440 C   0  0  0  0  0  0  0  0  0  0  0  0
   57.7410   33.2800   44.8680 C   0  0  0  0  0  0  0  0  0  0  0  0
   58.2080   34.5940   44.9310 C   0  0  0  0  0  0  0  0  0  0  0  0
   59.3600   34.8980   45.6580 C   0  0  0  0  0  0  0  0  0  0  0  0
   60.0650   33.8850   46.3300 C   0  0  0  0  0  0  0  0  0  0  0  0
   61.2580   34.1920   47.0770 N   0  0  0  0  0  0  0  0  0  0  0  0
   61.1870   34.5390   48.2740 O   0  0  0  0  0  0  0  0  0  0  0  0
   62.4970   34.1100   46.4830 O   0  0  0  0  0  0  0  0  0  0  0  0
   59.5900   32.5630   46.2620 C   0  0  0  0  0  0  0  0  0  0  0  0
   57.0160   28.0170   45.9730 C   0  0  0  0  0  0  0  0  0  0  0  0
   56.6460   26.6720   45.8910 C   0  0  0  0  0  0  0  0  0  0  0  0
   55.2710   26.2930   45.9680 N   0  0  0  0  0  0  0  0  0  0  0  0
   55.7146   22.9577   45.9237 H   0  0  0  0  0  0  0  0  0  0  0  0
   55.8453   23.7796   44.3126 H   0  0  0  0  0  0  0  0  0  0  0  0
   59.7494   25.2475   45.7096 H   0  0  0  0  0  0  0  0  0  0  0  0
   60.4177   27.6477   45.8472 H   0  0  0  0  0  0  0  0  0  0  0  0
   59.5840   29.9940   46.5930 H   0  0  0  0  0  0  0  0  0  0  0  0
   56.8363   33.0484   44.2867 H   0  0  0  0  0  0  0  0  0  0  0  0
   57.6656   35.3936   44.4052 H   0  0  0  0  0  0  0  0  0  0  0  0
   59.7183   35.9369   45.7052 H   0  0  0  0  0  0  0  0  0  0  0  0
   60.1403   31.7621   46.7775 H   0  0  0  0  0  0  0  0  0  0  0  0
   56.2427   28.7929   46.0724 H   0  0  0  0  0  0  0  0  0  0  0  0
  1  2  2  0
  2  3  1  0
  3  4  1  0
  4  5  1  0
  5  6  2  0
  6  7  1  0
  7  8  2  0
  8  9  1  0
  9 10  1  0
 10 11  2  0
 10 12  1  0
 12 13  2  0
 13 14  1  0
 14 15  2  0
 15 16  1  0
 16 17  1  0
 17 18  2  0
 17 19  1  0
 16 20  2  0
  8 21  1  0
 21 22  2  0
 22 23  1  0
 23  2  1  0
 22  5  1  0
 20 12  1  0
  3 24  1  0
  3 25  1  0
  6 26  1  0
  7 27  1  0
  9 28  1  0
 13 29  1  0
 14 30  1  0
 15 31  1  0
 20 32  1  0
 21 33  1  0
M  CHG  3  17   1  19  -1  23  -1
M  END
>  <UniqueID>  (16) 
16

>  <SMILES>  (16) 
O=C1COc2ccc(NC(=O)c3cccc([N+](=O)[O-])c3)cc2[N-]1

>  <Energy>  (16) 
45.61694804512962

>  <Genealogy>  (16) 
O=C1COc2ccc(NC(=O)c3cccc([N+](=O)[O-])c3)cc2[N-]1 (protonated)
O=C1COc2ccc(NC(=O)c3cccc([N+](=O)[O-])c3)cc2[N-]1 (3D coordinates assigned)
O=C1COc2ccc(NC(=O)c3cccc([N+](=O)[O-])c3)cc2[N-]1 (nonaromatic ring conformer: 45.61694804512962 kcal/mol)

>  <smiles>  (16) 
O=C1COc2ccc(NC(=O)c3cccc([N+](=O)[O-])c3)cc2N1

>  <score_type>  (16) 
oracle

>  <origin>  (16) 
adg

>  <m_score__min__energy>  (16) 
-10.029999999999999

>  <m_primary>  (16) 
energy

$$$$
16:0
     RDKit          3D

 47 50  0  0  0  0  0  0  0  0999 V2000
   56.6930   23.0850   43.1300 O   0  0  0  0  0  0  0  0  0  0  0  0
   56.7580   23.5850   44.2890 C   0  0  0  0  0  0  0  0  0  0  0  0
   56.6420   22.7270   45.3860 O   0  0  0  0  0  0  0  0  0  0  0  0
   56.9470   24.9990   44.5150 C   0  0  0  0  0  0  0  0  0  0  0  0
   57.7640   25.7040   43.6390 C   0  0  0  0  0  0  0  0  0  0  0  0
   57.9590   27.0380   43.8290 N   0  0  0  0  0  0  0  0  0  0  0  0
   57.3900   27.7120   44.8390 C   0  0  0  0  0  0  0  0  0  0  0  0
   57.5880   29.1380   45.0600 C   0  0  0  0  0  0  0  0  0  0  0  0
   56.8890   30.0910   44.3490 C   0  0  0  0  0  0  0  0  0  0  0  0
   57.0980   31.4550   44.5740 C   0  0  0  0  0  0  0  0  0  0  0  0
   58.0160   31.8620   45.5180 C   0  0  0  0  0  0  0  0  0  0  0  0
   58.2930   33.2220   45.8140 N   0  0  0  0  0  0  0  0  0  0  0  0
   58.0020   33.8520   47.0830 C   0  0  0  0  0  0  0  0  0  0  0  0
   59.3380   34.4580   47.5300 C   0  0  0  0  0  0  0  0  0  0  0  0
   59.6780   35.5170   46.6510 N   0  0  0  0  0  0  0  0  0  0  0  0
   59.4630   35.3370   45.2640 C   0  0  0  0  0  0  0  0  0  0  0  0
   58.9040   34.0520   44.7950 C   0  0  0  0  0  0  0  0  0  0  0  0
   58.6700   30.8910   46.1820 N   0  0  0  0  0  0  0  0  0  0  0  0
   58.4890   29.5770   45.9880 C   0  0  0  0  0  0  0  0  0  0  0  0
   59.2970   28.6780   46.8220 C   0  0  0  0  0  0  0  0  0  0  0  0
   59.2860   28.9190   48.1950 C   0  0  0  0  0  0  0  0  0  0  0  0
   60.0150   28.1120   49.0390 C   0  0  0  0  0  0  0  0  0  0  0  0
   60.7610   27.0560   48.5280 C   0  0  0  0  0  0  0  0  0  0  0  0
   60.7460   26.8500   47.1610 C   0  0  0  0  0  0  0  0  0  0  0  0
   60.0310   27.6340   46.2850 C   0  0  0  0  0  0  0  0  0  0  0  0
   56.6040   27.0040   45.6700 N   0  0  0  0  0  0  0  0  0  0  0  0
   56.3600   25.6870   45.5530 C   0  0  0  0  0  0  0  0  0  0  0  0
   55.6130   25.0680   46.3630 O   0  0  0  0  0  0  0  0  0  0  0  0
   56.1410   22.9810   46.2330 H   0  0  0  0  0  0  0  0  0  0  0  0
   58.2498   25.1877   42.7979 H   0  0  0  0  0  0  0  0  0  0  0  0
   58.5710   27.5060   43.1530 H   0  0  0  0  0  0  0  0  0  0  0  0
   56.1557   29.7730   43.5932 H   0  0  0  0  0  0  0  0  0  0  0  0
   56.5309   32.2017   43.9988 H   0  0  0  0  0  0  0  0  0  0  0  0
   57.2410   34.6369   46.9613 H   0  0  0  0  0  0  0  0  0  0  0  0
   57.5998   33.1405   47.8192 H   0  0  0  0  0  0  0  0  0  0  0  0
   59.2435   34.8449   48.5554 H   0  0  0  0  0  0  0  0  0  0  0  0
   60.1231   33.6878   47.5074 H   0  0  0  0  0  0  0  0  0  0  0  0
   59.2340   36.4020   46.9770 H   0  0  0  0  0  0  0  0  0  0  0  0
   58.7730   36.1290   44.9375 H   0  0  0  0  0  0  0  0  0  0  0  0
   60.4737   35.3635   44.8307 H   0  0  0  0  0  0  0  0  0  0  0  0
   58.1390   34.2733   44.0362 H   0  0  0  0  0  0  0  0  0  0  0  0
   59.7591   33.4754   44.4123 H   0  0  0  0  0  0  0  0  0  0  0  0
   58.6958   29.7526   48.6033 H   0  0  0  0  0  0  0  0  0  0  0  0
   60.0072   28.3035   50.1222 H   0  0  0  0  0  0  0  0  0  0  0  0
   61.3463   26.4032   49.1922 H   0  0  0  0  0  0  0  0  0  0  0  0
   61.3361   26.0163   46.7526 H   0  0  0  0  0  0  0  0  0  0  0  0
   60.0421   27.4393   45.2024 H   0  0  0  0  0  0  0  0  0  0  0  0
  1  2  2  0
  2  3  1  0
  2  4  1  0
  4  5  2  0
  5  6  1  0
  6  7  1  0
  7  8  1  0
  8  9  2  0
  9 10  1  0
 10 11  2  0
 11 12  1  0
 12 13  1  0
 13 14  1  0
 14 15  1  0
 15 16  1  0
 16 17  1  0
 11 18  1  0
 18 19  2  0
 19 20  1  0
 20 21  2  0
 21 22  1  0
 22 23  2  0
 23 24  1  0
 24 25  2  0
  7 26  2  0
 26 27  1  0
 27 28  2  0
 27  4  1  0
 19  8  1  0
 25 20  1  0
 17 12  1  0
  3 29  1  0
  5 30  1  0
  6 31  1  0
  9 32  1  0
 10 33  1  0
 13 34  1  0
 13 35  1  0
 14 36  1  0
 14 37  1  0
 15 38  1  0
 16 39  1  0
 16 40  1  0
 17 41  1  0
 17 42  1  0
 21 43  1  0
 22 44  1  0
 23 45  1  0
 24 46  1  0
 25 47  1  0
M  END
>  <smiles>  (17) 
O=C(O)c1c[nH]c(-c2ccc(N3CCNCC3)nc2-c2ccccc2)nc1=O

>  <score_type>  (17) 
oracle

>  <origin>  (17) 
adg

>  <m_score__min__energy>  (17) 
-8.4399999999999995

>  <m_primary>  (17) 
energy

$$$$
17:0
     RDKit          3D

 41 42  0  0  0  0  0  0  0  0999 V2000
   58.3800   26.0750   46.1810 C   0  0  0  0  0  0  0  0  0  0  0  0
   58.6370   27.5220   46.3180 N   0  0  0  0  0  0  0  0  0  0  0  0
   57.9550   28.4140   45.5250 C   0  0  0  0  0  0  0  0  0  0  0  0
   57.0220   27.9490   44.5300 N   0  0  0  0  0  0  0  0  0  0  0  0
   58.1560   29.7960   45.6990 C   0  0  0  0  0  0  0  0  0  0  0  0
   57.4390   30.7900   44.8700 C   0  0  0  0  0  0  0  0  0  0  0  0
   56.1930   30.6820   44.7050 O   0  0  0  0  0  0  0  0  0  0  0  0
   58.1630   31.9700   44.2930 C   0  0  0  0  0  0  0  0  0  0  0  0
   57.8130   33.1990   45.0690 C   0  0  0  0  0  0  0  0  0  0  0  0
   56.6260   33.3770   45.4570 O   0  0  0  0  0  0  0  0  0  0  0  0
   58.7970   34.1660   45.3030 O   0  0  0  0  0  0  0  0  0  0  0  0
   59.0040   34.7810   46.5740 C   0  0  0  0  0  0  0  0  0  0  0  0
   60.2980   34.3060   47.1780 C   0  0  0  0  0  0  0  0  0  0  0  0
   60.4360   34.2320   48.5740 C   0  0  0  0  0  0  0  0  0  0  0  0
   61.6140   33.7320   49.1410 C   0  0  0  0  0  0  0  0  0  0  0  0
   62.6590   33.2980   48.3170 C   0  0  0  0  0  0  0  0  0  0  0  0
   64.1180   32.6300   49.0230 Cl  0  0  0  0  0  0  0  0  0  0  0  0
   62.5270   33.3660   46.9250 C   0  0  0  0  0  0  0  0  0  0  0  0
   61.3540   33.8690   46.3570 C   0  0  0  0  0  0  0  0  0  0  0  0
   59.0840   30.2270   46.6560 C   0  0  0  0  0  0  0  0  0  0  0  0
   59.2850   31.4660   46.8140 O   0  0  0  0  0  0  0  0  0  0  0  0
   59.7850   29.3180   47.3980 N   0  0  0  0  0  0  0  0  0  0  0  0
   60.7610   29.8130   48.3880 C   0  0  0  0  0  0  0  0  0  0  0  0
   59.5600   27.9750   47.2340 C   0  0  0  0  0  0  0  0  0  0  0  0
   60.2090   27.1460   47.9310 O   0  0  0  0  0  0  0  0  0  0  0  0
   58.2993   25.6208   47.1796 H   0  0  0  0  0  0  0  0  0  0  0  0
   57.4403   25.9200   45.6307 H   0  0  0  0  0  0  0  0  0  0  0  0
   59.2089   25.6059   45.6307 H   0  0  0  0  0  0  0  0  0  0  0  0
   56.9990   26.9540   44.2200 H   0  0  0  0  0  0  0  0  0  0  0  0
   56.2860   28.5680   44.1250 H   0  0  0  0  0  0  0  0  0  0  0  0
   59.2480   31.7976   44.3493 H   0  0  0  0  0  0  0  0  0  0  0  0
   57.8664   32.1036   43.2422 H   0  0  0  0  0  0  0  0  0  0  0  0
   59.0417   35.8730   46.4472 H   0  0  0  0  0  0  0  0  0  0  0  0
   58.1747   34.5085   47.2433 H   0  0  0  0  0  0  0  0  0  0  0  0
   59.6150   34.5684   49.2242 H   0  0  0  0  0  0  0  0  0  0  0  0
   61.7186   33.6801   50.2348 H   0  0  0  0  0  0  0  0  0  0  0  0
   63.3477   33.0230   46.2778 H   0  0  0  0  0  0  0  0  0  0  0  0
   61.2554   33.9237   45.2628 H   0  0  0  0  0  0  0  0  0  0  0  0
   60.3830   29.6213   49.4031 H   0  0  0  0  0  0  0  0  0  0  0  0
   61.7200   29.2923   48.2494 H   0  0  0  0  0  0  0  0  0  0  0  0
   60.9075   30.8944   48.2494 H   0  0  0  0  0  0  0  0  0  0  0  0
  1  2  1  0
  2  3  1  0
  3  4  1  0
  3  5  2  0
  5  6  1  0
  6  7  2  0
  6  8  1  0
  8  9  1  0
  9 10  2  0
  9 11  1  0
 11 12  1  0
 12 13  1  0
 13 14  2  0
 14 15  1  0
 15 16  2  0
 16 17  1  0
 16 18  1  0
 18 19  2  0
  5 20  1  0
 20 21  2  0
 20 22  1  0
 22 23  1  0
 22 24  1  0
 24 25  2  0
 24  2  1  0
 19 13  1  0
  1 26  1  0
  1 27  1  0
  1 28  1  0
  4 29  1  0
  4 30  1  0
  8 31  1  0
  8 32  1  0
 12 33  1  0
 12 34  1  0
 14 35  1  0
 15 36  1  0
 18 37  1  0
 19 38  1  0
 23 39  1  0
 23 40  1  0
 23 41  1  0
M  END
>  <UniqueID>  (18) 
17

>  <SMILES>  (18) 
Cn1c(N)c(C(=O)CC(=O)OCc2ccc(Cl)cc2)c(=O)n(C)c1=O

>  <Energy>  (18) 
52.074378104597926

>  <Genealogy>  (18) 
Cn1c(N)c(C(=O)CC(=O)OCc2ccc(Cl)cc2)c(=O)n(C)c1=O (3D coordinates assigned)
Cn1c(N)c(C(=O)CC(=O)OCc2ccc(Cl)cc2)c(=O)n(C)c1=O (optimized conformer: 52.074378104597926 kcal/mol)

>  <smiles>  (18) 
Cn1c(N)c(C(=O)CC(=O)OCc2ccc(Cl)cc2)c(=O)n(C)c1=O

>  <score_type>  (18) 
oracle

>  <origin>  (18) 
adg

>  <m_score__min__energy>  (18) 
-8.9700000000000006

>  <m_primary>  (18) 
energy

$$$$
18:0
     RDKit          3D

 35 37  0  0  0  0  0  0  0  0999 V2000
   57.1602   21.1560   43.2728 H   0  0  0  0  0  0  0  0  0  0  0  0
   57.0740   22.1750   43.6780 C   0  0  0  0  0  0  0  0  0  0  0  0
   57.5050   22.6620   45.2320 S   0  0  0  0  0  0  0  0  0  0  0  0
   57.0560   24.2670   44.9710 C   0  0  0  0  0  0  0  0  0  0  0  0
   57.1340   25.2490   45.8240 N   0  0  0  0  0  0  0  0  0  0  0  0
   56.5290   26.5520   45.7270 C   0  0  0  0  0  0  0  0  0  0  0  0
   55.3060   26.7080   45.9910 O   0  0  0  0  0  0  0  0  0  0  0  0
   57.3580   27.7180   45.3090 C   0  0  0  0  0  0  0  0  0  0  0  0
   58.7570   27.6040   45.3030 C   0  0  0  0  0  0  0  0  0  0  0  0
   59.2290   26.6562   45.6012 H   0  0  0  0  0  0  0  0  0  0  0  0
   59.5500   28.6800   44.9230 C   0  0  0  0  0  0  0  0  0  0  0  0
   60.6460   28.5862   44.9225 H   0  0  0  0  0  0  0  0  0  0  0  0
   58.9500   29.8770   44.5430 C   0  0  0  0  0  0  0  0  0  0  0  0
   59.5775   30.7303   44.2461 H   0  0  0  0  0  0  0  0  0  0  0  0
   57.5880   30.0030   44.5350 N   0  0  0  0  0  0  0  0  0  0  0  0
   57.0020   31.3000   44.1540 C   0  0  0  0  0  0  0  0  0  0  0  0
   57.1306   31.4529   43.0723 H   0  0  0  0  0  0  0  0  0  0  0  0
   55.9320   31.2987   44.4091 H   0  0  0  0  0  0  0  0  0  0  0  0
   57.6830   32.4190   44.8990 C   0  0  0  0  0  0  0  0  0  0  0  0
   58.2830   33.4740   44.1940 C   0  0  0  0  0  0  0  0  0  0  0  0
   58.2345   33.4959   43.0953 H   0  0  0  0  0  0  0  0  0  0  0  0
   58.9420   34.4970   44.8820 C   0  0  0  0  0  0  0  0  0  0  0  0
   59.4048   35.3242   44.3239 H   0  0  0  0  0  0  0  0  0  0  0  0
   59.0140   34.4710   46.2770 C   0  0  0  0  0  0  0  0  0  0  0  0
   59.5326   35.2770   46.8168 H   0  0  0  0  0  0  0  0  0  0  0  0
   58.4260   33.4190   46.9860 C   0  0  0  0  0  0  0  0  0  0  0  0
   58.4838   33.3973   48.0843 H   0  0  0  0  0  0  0  0  0  0  0  0
   57.7650   32.3950   46.3020 C   0  0  0  0  0  0  0  0  0  0  0  0
   57.3073   31.5673   46.8636 H   0  0  0  0  0  0  0  0  0  0  0  0
   56.7850   28.9520   44.9160 C   0  0  0  0  0  0  0  0  0  0  0  0
   55.5310   29.0910   44.9140 O   0  0  0  0  0  0  0  0  0  0  0  0
   56.5840   24.4390   43.7180 N   0  0  0  0  0  0  0  0  0  0  0  0
   56.2490   25.3530   43.3400 H   0  0  0  0  0  0  0  0  0  0  0  0
   56.5900   23.2870   42.9970 C   0  0  0  0  0  0  0  0  0  0  0  0
   56.2393   23.2378   41.9556 H   0  0  0  0  0  0  0  0  0  0  0  0
  1  2  1  0
  2  3  1  0
  3  4  1  0
  4  5  2  0
  5  6  1  0
  6  7  2  0
  6  8  1  0
  8  9  2  0
  9 10  1  0
  9 11  1  0
 11 12  1  0
 11 13  2  0
 13 14  1  0
 13 15  1  0
 15 16  1  0
 16 17  1  0
 16 18  1  0
 16 19  1  0
 19 20  2  0
 20 21  1  0
 20 22  1  0
 22 23  1  0
 22 24  2  0
 24 25  1  0
 24 26  1  0
 26 27  1  0
 26 28  2  0
 28 29  1  0
 15 30  1  0
 30 31  2  0
  4 32  1  0
 32 33  1  0
 32 34  1  0
 34 35  1  0
 34  2  2  0
 30  8  1  0
 28 19  1  0
M  END
>  <UniqueID>  (19) 
18

>  <SMILES>  (19) 
O=C(/N=c1/[nH]ccs1)c1cccn(Cc2ccccc2)c1=O

>  <Energy>  (19) 
75.43494000755818

>  <Genealogy>  (19) 
O=C(/N=c1/[nH]ccs1)c1cccn(Cc2ccccc2)c1=O (cis-trans isomerization)
O=C(/N=c1/[nH]ccs1)c1cccn(Cc2ccccc2)c1=O (3D coordinates assigned)
O=C(/N=c1/[nH]ccs1)c1cccn(Cc2ccccc2)c1=O (optimized conformer: 75.43494000755818 kcal/mol)

>  <smiles>  (19) 
O=C(N=c1[nH]ccs1)c1cccn(Cc2ccccc2)c1=O

>  <score_type>  (19) 
oracle

>  <origin>  (19) 
adg

>  <m_score__min__energy>  (19) 
-8.4100000000000001

>  <m_primary>  (19) 
energy

$$$$
19:0
     RDKit          3D

 33 34  0  0  0  0  0  0  0  0999 V2000
   60.3860   27.7040   45.8450 C   0  0  0  0  0  0  0  0  0  0  0  0
   59.0610   27.0460   46.2120 C   0  0  0  0  0  0  0  0  0  0  0  0
   58.0900   28.0280   46.5760 O   0  0  0  0  0  0  0  0  0  0  0  0
   57.5190   28.9760   45.7100 C   0  0  0  0  0  0  0  0  0  0  0  0
   58.1980   30.1430   45.3080 C   0  0  0  0  0  0  0  0  0  0  0  0
   57.5840   31.0620   44.4420 C   0  0  0  0  0  0  0  0  0  0  0  0
   58.2930   32.3370   44.0640 C   0  0  0  0  0  0  0  0  0  0  0  0
   57.7270   33.5430   44.8270 C   0  0  0  0  0  0  0  0  0  0  0  0
   58.4310   33.7410   46.0990 N   0  0  0  0  0  0  0  0  0  0  0  0
   58.1630   32.9120   47.1130 N   0  0  0  0  0  0  0  0  0  0  0  0
   58.7470   33.0600   48.3280 C   0  0  0  0  0  0  0  0  0  0  0  0
   59.6430   34.1070   48.5150 C   0  0  0  0  0  0  0  0  0  0  0  0
   60.2040   34.2770   49.6300 O   0  0  0  0  0  0  0  0  0  0  0  0
   59.9080   34.9470   47.4860 N   0  0  0  0  0  0  0  0  0  0  0  0
   59.3090   34.7770   46.2800 C   0  0  0  0  0  0  0  0  0  0  0  0
   59.5700   35.5780   45.3420 O   0  0  0  0  0  0  0  0  0  0  0  0
   56.2810   30.8150   43.9840 C   0  0  0  0  0  0  0  0  0  0  0  0
   55.6080   29.6560   44.3720 C   0  0  0  0  0  0  0  0  0  0  0  0
   56.2230   28.7380   45.2290 C   0  0  0  0  0  0  0  0  0  0  0  0
   55.5390   27.5900   45.6070 O   0  0  0  0  0  0  0  0  0  0  0  0
   60.9284   27.9734   46.7633 H   0  0  0  0  0  0  0  0  0  0  0  0
   60.9924   27.0023   45.2534 H   0  0  0  0  0  0  0  0  0  0  0  0
   60.1934   28.6112   45.2534 H   0  0  0  0  0  0  0  0  0  0  0  0
   58.6902   26.4755   45.3477 H   0  0  0  0  0  0  0  0  0  0  0  0
   59.2253   26.3779   47.0703 H   0  0  0  0  0  0  0  0  0  0  0  0
   59.2168   30.3357   45.6753 H   0  0  0  0  0  0  0  0  0  0  0  0
   59.3625   32.2347   44.2999 H   0  0  0  0  0  0  0  0  0  0  0  0
   58.1441   32.5087   42.9877 H   0  0  0  0  0  0  0  0  0  0  0  0
   57.8418   34.4454   44.2086 H   0  0  0  0  0  0  0  0  0  0  0  0
   56.6648   33.3537   45.0413 H   0  0  0  0  0  0  0  0  0  0  0  0
   58.5165   32.3656   49.1494 H   0  0  0  0  0  0  0  0  0  0  0  0
   55.7883   31.5376   43.3168 H   0  0  0  0  0  0  0  0  0  0  0  0
   54.5900   29.4637   44.0024 H   0  0  0  0  0  0  0  0  0  0  0  0
  1  2  1  0
  2  3  1  0
  3  4  1  0
  4  5  2  0
  5  6  1  0
  6  7  1  0
  7  8  1  0
  8  9  1  0
  9 10  1  0
 10 11  2  0
 11 12  1  0
 12 13  2  0
 12 14  1  0
 14 15  1  0
 15 16  2  0
  6 17  2  0
 17 18  1  0
 18 19  2  0
 19 20  1  0
 19  4  1  0
 15  9  1  0
  1 21  1  0
  1 22  1  0
  1 23  1  0
  2 24  1  0
  2 25  1  0
  5 26  1  0
  7 27  1  0
  7 28  1  0
  8 29  1  0
  8 30  1  0
 11 31  1  0
 17 32  1  0
 18 33  1  0
M  CHG  2  14  -1  20  -1
M  END
>  <UniqueID>  (20) 
19

>  <SMILES>  (20) 
CCOc1cc(CCn2ncc(=O)[n-]c2=O)ccc1[O-]

>  <Energy>  (20) 
30.29667068134622

>  <Genealogy>  (20) 
CCOc1cc(CCn2ncc(=O)[n-]c2=O)ccc1[O-] (protonated)
CCOc1cc(CCn2ncc(=O)[n-]c2=O)ccc1[O-] (3D coordinates assigned)
CCOc1cc(CCn2ncc(=O)[n-]c2=O)ccc1[O-] (optimized conformer: 30.29667068134622 kcal/mol)

>  <smiles>  (20) 
CCOc1cc(CCn2ncc(=O)[nH]c2=O)ccc1O

>  <score_type>  (20) 
oracle

>  <origin>  (20) 
adg

>  <m_score__min__energy>  (20) 
-11.01

>  <m_primary>  (20) 
energy

$$$$
20:0
     RDKit          3D

 39 41  0  0  0  0  0  0  0  0999 V2000
   57.9117   32.8448   47.3943 H   0  0  0  0  0  0  0  0  0  0  0  0
   57.9770   32.7830   46.2980 C   0  0  0  0  0  0  0  0  0  0  0  0
   57.3150   31.7980   45.6320 N   0  0  0  0  0  0  0  0  0  0  0  0
   57.3560   31.6820   44.2760 C   0  0  0  0  0  0  0  0  0  0  0  0
   56.6840   30.7140   43.7180 N   0  0  0  0  0  0  0  0  0  0  0  0
   56.3000   29.4610   44.3060 C   0  0  0  0  0  0  0  0  0  0  0  0
   55.1670   29.3630   44.8450 O   0  0  0  0  0  0  0  0  0  0  0  0
   57.1530   28.3080   44.2710 N   0  0  0  0  0  0  0  0  0  0  0  0
   58.3510   28.1090   45.0360 C   0  0  0  0  0  0  0  0  0  0  0  0
   58.7640   26.8000   45.3110 C   0  0  0  0  0  0  0  0  0  0  0  0
   58.1640   25.9502   44.9535 H   0  0  0  0  0  0  0  0  0  0  0  0
   59.9340   26.5680   46.0370 C   0  0  0  0  0  0  0  0  0  0  0  0
   60.2507   25.5369   46.2526 H   0  0  0  0  0  0  0  0  0  0  0  0
   60.7030   27.6420   46.4900 C   0  0  0  0  0  0  0  0  0  0  0  0
   61.6266   27.4525   47.0566 H   0  0  0  0  0  0  0  0  0  0  0  0
   60.3050   28.9600   46.2270 C   0  0  0  0  0  0  0  0  0  0  0  0
   61.1330   30.0470   46.6740 N   0  0  0  0  0  0  0  0  0  0  0  0
   62.1130   30.0800   46.3130 H   0  0  0  0  0  0  0  0  0  0  0  0
   60.7140   31.0310   47.6370 C   0  0  0  0  0  0  0  0  0  0  0  0
   59.5640   30.9720   48.1480 O   0  0  0  0  0  0  0  0  0  0  0  0
   61.6190   32.1290   48.0410 C   0  0  0  0  0  0  0  0  0  0  0  0
   62.8600   32.2710   47.3970 C   0  0  0  0  0  0  0  0  0  0  0  0
   63.1458   31.5682   46.6006 H   0  0  0  0  0  0  0  0  0  0  0  0
   63.7340   33.3000   47.7620 C   0  0  0  0  0  0  0  0  0  0  0  0
   64.7077   33.3973   47.2595 H   0  0  0  0  0  0  0  0  0  0  0  0
   63.3730   34.2040   48.7630 C   0  0  0  0  0  0  0  0  0  0  0  0
   64.0645   35.0087   49.0534 H   0  0  0  0  0  0  0  0  0  0  0  0
   62.1340   34.0860   49.3950 C   0  0  0  0  0  0  0  0  0  0  0  0
   61.8479   34.8044   50.1773 H   0  0  0  0  0  0  0  0  0  0  0  0
   61.2540   33.0580   49.0380 C   0  0  0  0  0  0  0  0  0  0  0  0
   60.0320   33.0100   49.6250 F   0  0  0  0  0  0  0  0  0  0  0  0
   59.1420   29.1880   45.4700 C   0  0  0  0  0  0  0  0  0  0  0  0
   58.8489   30.2172   45.2156 H   0  0  0  0  0  0  0  0  0  0  0  0
   58.1420   32.5910   43.5370 C   0  0  0  0  0  0  0  0  0  0  0  0
   58.2167   32.4971   42.4436 H   0  0  0  0  0  0  0  0  0  0  0  0
   58.8240   33.6100   44.2030 C   0  0  0  0  0  0  0  0  0  0  0  0
   59.4290   34.3309   43.6335 H   0  0  0  0  0  0  0  0  0  0  0  0
   58.7380   33.7140   45.5920 C   0  0  0  0  0  0  0  0  0  0  0  0
   59.6660   35.1040   46.5160 Br  0  0  0  0  0  0  0  0  0  0  0  0
  1  2  1  0
  2  3  1  0
  3  4  1  0
  4  5  2  0
  5  6  1  0
  6  7  2  0
  6  8  1  0
  8  9  1  0
  9 10  2  0
 10 11  1  0
 10 12  1  0
 12 13  1  0
 12 14  2  0
 14 15  1  0
 14 16  1  0
 16 17  1  0
 17 18  1  0
 17 19  1  0
 19 20  2  0
 19 21  1  0
 21 22  2  0
 22 23  1  0
 22 24  1  0
 24 25  1  0
 24 26  2  0
 26 27  1  0
 26 28  1  0
 28 29  1  0
 28 30  2  0
 30 31  1  0
 16 32  2  0
 32 33  1  0
  4 34  1  0
 34 35  1  0
 34 36  2  0
 36 37  1  0
 36 38  1  0
 38 39  1  0
 38  2  2  0
 32  9  1  0
 30 21  1  0
M  CHG  2   3  -1   8  -1
M  END
>  <UniqueID>  (21) 
20

>  <SMILES>  (21) 
O=C(/N=c1\ccc(Br)c[n-]1)[N-]c1cccc(NC(=O)c2ccccc2F)c1

>  <Energy>  (21) 
61.19440316867554

>  <Genealogy>  (21) 
O=C(N=c1ccc(Br)c[n-]1)[N-]c1cccc(NC(=O)c2ccccc2F)c1 (protonated)
O=C(/N=c1\ccc(Br)c[n-]1)[N-]c1cccc(NC(=O)c2ccccc2F)c1 (cis-trans isomerization)
O=C(/N=c1\ccc(Br)c[n-]1)[N-]c1cccc(NC(=O)c2ccccc2F)c1 (3D coordinates assigned)
O=C(/N=c1\ccc(Br)c[n-]1)[N-]c1cccc(NC(=O)c2ccccc2F)c1 (optimized conformer: 61.19440316867554 kcal/mol)

>  <smiles>  (21) 
O=C(N=c1ccc(Br)c[nH]1)Nc1cccc(NC(=O)c2ccccc2F)c1

>  <score_type>  (21) 
oracle

>  <origin>  (21) 
adg

>  <m_score__min__energy>  (21) 
-11.279999999999999

>  <m_primary>  (21) 
energy

$$$$
21:0
     RDKit          3D

 41 44  0  0  0  0  0  0  0  0999 V2000
   57.7970   26.7280   47.0010 C   0  0  0  0  0  0  0  0  0  0  0  0
   58.7520   27.8360   47.3250 C   0  0  0  0  0  0  0  0  0  0  0  0
   59.5280   27.7350   48.4520 N   0  0  0  0  0  0  0  0  0  0  0  0
   60.4420   28.6860   48.7990 C   0  0  0  0  0  0  0  0  0  0  0  0
   60.5670   29.8010   47.9820 C   0  0  0  0  0  0  0  0  0  0  0  0
   59.8030   29.9450   46.8450 C   0  0  0  0  0  0  0  0  0  0  0  0
   60.0610   31.1260   46.2350 N   0  0  0  0  0  0  0  0  0  0  0  0
   61.0150   31.7090   46.9910 C   0  0  0  0  0  0  0  0  0  0  0  0
   61.6230   32.9440   46.7750 C   0  0  0  0  0  0  0  0  0  0  0  0
   62.6000   33.3690   47.6940 C   0  0  0  0  0  0  0  0  0  0  0  0
   62.9470   32.5620   48.8080 C   0  0  0  0  0  0  0  0  0  0  0  0
   63.9400   33.0100   49.7330 N   0  0  0  0  0  0  0  0  0  0  0  0
   62.3110   31.3180   49.0040 C   0  0  0  0  0  0  0  0  0  0  0  0
   61.3520   30.9250   48.0730 C   0  0  0  0  0  0  0  0  0  0  0  0
   58.9000   28.9440   46.4540 C   0  0  0  0  0  0  0  0  0  0  0  0
   58.1630   29.0000   45.2220 N   0  0  0  0  0  0  0  0  0  0  0  0
   56.7900   29.3910   45.0700 C   0  0  0  0  0  0  0  0  0  0  0  0
   55.8910   28.5270   45.2340 O   0  0  0  0  0  0  0  0  0  0  0  0
   56.4090   30.7390   44.7560 N   0  0  0  0  0  0  0  0  0  0  0  0
   57.1970   31.9090   45.0020 C   0  0  0  0  0  0  0  0  0  0  0  0
   57.7920   32.5710   43.9210 C   0  0  0  0  0  0  0  0  0  0  0  0
   58.5270   33.7420   44.1290 C   0  0  0  0  0  0  0  0  0  0  0  0
   58.6900   34.2470   45.4250 C   0  0  0  0  0  0  0  0  0  0  0  0
   59.4400   35.4570   45.6380 C   0  0  0  0  0  0  0  0  0  0  0  0
   60.0440   36.4300   45.8090 N   0  0  0  0  0  0  0  0  0  0  0  0
   58.1260   33.5700   46.5130 C   0  0  0  0  0  0  0  0  0  0  0  0
   57.3900   32.4000   46.3040 C   0  0  0  0  0  0  0  0  0  0  0  0
   57.4169   26.2870   47.9343 H   0  0  0  0  0  0  0  0  0  0  0  0
   56.9562   27.1281   46.4154 H   0  0  0  0  0  0  0  0  0  0  0  0
   58.3168   25.9554   46.4154 H   0  0  0  0  0  0  0  0  0  0  0  0
   61.0622   28.5726   49.7004 H   0  0  0  0  0  0  0  0  0  0  0  0
   59.6120   31.5260   45.3820 H   0  0  0  0  0  0  0  0  0  0  0  0
   61.3475   33.5679   45.9120 H   0  0  0  0  0  0  0  0  0  0  0  0
   63.1002   34.3376   47.5471 H   0  0  0  0  0  0  0  0  0  0  0  0
   63.6730   33.3260   50.6930 H   0  0  0  0  0  0  0  0  0  0  0  0
   64.9500   33.0290   49.4660 H   0  0  0  0  0  0  0  0  0  0  0  0
   62.5639   30.6796   49.8633 H   0  0  0  0  0  0  0  0  0  0  0  0
   57.6806   32.1679   42.9036 H   0  0  0  0  0  0  0  0  0  0  0  0
   58.9776   34.2671   43.2739 H   0  0  0  0  0  0  0  0  0  0  0  0
   58.2621   33.9590   47.5329 H   0  0  0  0  0  0  0  0  0  0  0  0
   56.9605   31.8620   47.1620 H   0  0  0  0  0  0  0  0  0  0  0  0
  1  2  1  0
  2  3  2  0
  3  4  1  0
  4  5  2  0
  5  6  1  0
  6  7  1  0
  7  8  1  0
  8  9  2  0
  9 10  1  0
 10 11  2  0
 11 12  1  0
 11 13  1  0
 13 14  2  0
  6 15  2  0
 15 16  1  0
 16 17  1  0
 17 18  2  0
 17 19  1  0
 19 20  1  0
 20 21  2  0
 21 22  1  0
 22 23  2  0
 23 24  1  0
 24 25  3  0
 23 26  1  0
 26 27  2  0
 15  2  1  0
 27 20  1  0
 14  5  1  0
 14  8  1  0
  1 28  1  0
  1 29  1  0
  1 30  1  0
  4 31  1  0
  7 32  1  0
  9 33  1  0
 10 34  1  0
 12 35  1  0
 12 36  1  0
 13 37  1  0
 21 38  1  0
 22 39  1  0
 26 40  1  0
 27 41  1  0
M  CHG  2  16  -1  19  -1
M  END
>  <UniqueID>  (22) 
21

>  <SMILES>  (22) 
Cc1ncc2c([nH]c3ccc(N)cc32)c1[N-]C(=O)[N-]c1ccc(C#N)cc1

>  <Energy>  (22) 
92.15816251624814

>  <Genealogy>  (22) 
Cc1ncc2c([nH]c3ccc(N)cc32)c1[N-]C(=O)[N-]c1ccc(C#N)cc1 (protonated)
Cc1ncc2c([nH]c3ccc(N)cc32)c1[N-]C(=O)[N-]c1ccc(C#N)cc1 (3D coordinates assigned)
Cc1ncc2c([nH]c3ccc(N)cc32)c1[N-]C(=O)[N-]c1ccc(C#N)cc1 (optimized conformer: 92.15816251624814 kcal/mol)

>  <smiles>  (22) 
Cc1ncc2c([nH]c3ccc(N)cc32)c1NC(=O)Nc1ccc(C#N)cc1

>  <score_type>  (22) 
oracle

>  <origin>  (22) 
adg

>  <m_score__min__energy>  (22) 
-11.1

>  <m_primary>  (22) 
energy

$$$$
22:0
     RDKit          3D

 40 42  0  0  0  0  0  0  0  0999 V2000
   58.9600   30.4090   48.4760 C   0  0  0  0  0  0  0  0  0  0  0  0
   59.3550   29.5910   47.2760 C   0  0  0  0  0  0  0  0  0  0  0  0
   59.8120   28.2750   47.4610 C   0  0  0  0  0  0  0  0  0  0  0  0
   60.1880   27.4930   46.3660 C   0  0  0  0  0  0  0  0  0  0  0  0
   60.1040   28.0120   45.0740 C   0  0  0  0  0  0  0  0  0  0  0  0
   59.6370   29.3120   44.8710 C   0  0  0  0  0  0  0  0  0  0  0  0
   59.2530   30.1090   45.9610 C   0  0  0  0  0  0  0  0  0  0  0  0
   58.7390   31.4740   45.7020 C   0  0  0  0  0  0  0  0  0  0  0  0
   59.4910   32.5800   46.1290 C   0  0  0  0  0  0  0  0  0  0  0  0
   59.0210   33.8800   45.9200 C   0  0  0  0  0  0  0  0  0  0  0  0
   59.9770   35.2870   46.4940 S   0  0  0  0  0  0  0  0  0  0  0  0
   60.3080   34.5930   48.1540 C   0  0  0  0  0  0  0  0  0  0  0  0
   61.5300   33.7150   48.1410 C   0  0  0  0  0  0  0  0  0  0  0  0
   62.4750   33.8230   47.1070 C   0  0  0  0  0  0  0  0  0  0  0  0
   63.5880   32.9780   47.0790 C   0  0  0  0  0  0  0  0  0  0  0  0
   63.7660   32.0220   48.0820 C   0  0  0  0  0  0  0  0  0  0  0  0
   62.8310   31.9070   49.1130 C   0  0  0  0  0  0  0  0  0  0  0  0
   61.7150   32.7490   49.1440 C   0  0  0  0  0  0  0  0  0  0  0  0
   57.8020   34.0840   45.2660 C   0  0  0  0  0  0  0  0  0  0  0  0
   57.0430   32.9930   44.8390 C   0  0  0  0  0  0  0  0  0  0  0  0
   57.5020   31.6860   45.0540 C   0  0  0  0  0  0  0  0  0  0  0  0
   56.7010   30.5800   44.5850 C   0  0  0  0  0  0  0  0  0  0  0  0
   56.0590   29.6950   44.2070 N   0  0  0  0  0  0  0  0  0  0  0  0
   59.2233   29.8637   49.3943 H   0  0  0  0  0  0  0  0  0  0  0  0
   59.4928   31.3711   48.4554 H   0  0  0  0  0  0  0  0  0  0  0  0
   57.8752   30.5900   48.4554 H   0  0  0  0  0  0  0  0  0  0  0  0
   59.8742   27.8570   48.4766 H   0  0  0  0  0  0  0  0  0  0  0  0
   60.5508   26.4665   46.5230 H   0  0  0  0  0  0  0  0  0  0  0  0
   60.4061   27.3963   44.2140 H   0  0  0  0  0  0  0  0  0  0  0  0
   59.5695   29.7146   43.8496 H   0  0  0  0  0  0  0  0  0  0  0  0
   60.4568   32.4226   46.6315 H   0  0  0  0  0  0  0  0  0  0  0  0
   60.4665   35.4186   48.8634 H   0  0  0  0  0  0  0  0  0  0  0  0
   59.4435   33.9837   48.4564 H   0  0  0  0  0  0  0  0  0  0  0  0
   62.3384   34.5755   46.3164 H   0  0  0  0  0  0  0  0  0  0  0  0
   64.3244   33.0658   46.2666 H   0  0  0  0  0  0  0  0  0  0  0  0
   64.6435   31.3591   48.0597 H   0  0  0  0  0  0  0  0  0  0  0  0
   62.9726   31.1532   49.9015 H   0  0  0  0  0  0  0  0  0  0  0  0
   60.9795   32.6546   49.9565 H   0  0  0  0  0  0  0  0  0  0  0  0
   57.4400   35.1073   45.0875 H   0  0  0  0  0  0  0  0  0  0  0  0
   56.0812   33.1595   44.3319 H   0  0  0  0  0  0  0  0  0  0  0  0
  1  2  1  0
  2  3  2  0
  3  4  1  0
  4  5  2  0
  5  6  1  0
  6  7  2  0
  7  8  1  0
  8  9  2  0
  9 10  1  0
 10 11  1  0
 11 12  1  0
 12 13  1  0
 13 14  2  0
 14 15  1  0
 15 16  2  0
 16 17  1  0
 17 18  2  0
 10 19  2  0
 19 20  1  0
 20 21  2  0
 21 22  1  0
 22 23  3  0
  7  2  1  0
 21  8  1  0
 18 13  1  0
  1 24  1  0
  1 25  1  0
  1 26  1  0
  3 27  1  0
  4 28  1  0
  5 29  1  0
  6 30  1  0
  9 31  1  0
 12 32  1  0
 12 33  1  0
 14 34  1  0
 15 35  1  0
 16 36  1  0
 17 37  1  0
 18 38  1  0
 19 39  1  0
 20 40  1  0
M  END
>  <UniqueID>  (23) 
22

>  <SMILES>  (23) 
Cc1ccccc1-c1cc(SCc2ccccc2)ccc1C#N

>  <Energy>  (23) 
44.64579728034857

>  <Genealogy>  (23) 
Cc1ccccc1-c1cc(SCc2ccccc2)ccc1C#N (3D coordinates assigned)
Cc1ccccc1-c1cc(SCc2ccccc2)ccc1C#N (optimized conformer: 44.64579728034857 kcal/mol)

>  <smiles>  (23) 
Cc1ccccc1-c1cc(SCc2ccccc2)ccc1C#N

>  <score_type>  (23) 
oracle

>  <origin>  (23) 
adg

>  <m_score__min__energy>  (23) 
-8.1500000000000004

>  <m_primary>  (23) 
energy

$$$$
23:0
     RDKit          3D

 52 53  0  0  0  0  0  0  0  0999 V2000
   63.6760   34.1290   51.1370 C   0  0  0  0  0  0  0  0  0  0  0  0
   62.6770   34.5650   50.0690 C   0  0  0  0  0  0  0  0  0  0  0  0
   62.6670   33.6060   48.9470 N   0  0  0  0  0  0  0  0  0  0  0  0
   63.5930   34.0130   47.8660 C   0  0  0  0  0  0  0  0  0  0  0  0
   63.7400   32.8830   46.8540 C   0  0  0  0  0  0  0  0  0  0  0  0
   61.0390   33.4510   48.3230 S   0  0  0  0  0  0  0  0  0  0  0  0
   60.9600   33.9930   46.9230 O   0  0  0  0  0  0  0  0  0  0  0  0
   60.0820   34.2240   49.1900 O   0  0  0  0  0  0  0  0  0  0  0  0
   60.5860   31.7480   48.2880 C   0  0  0  0  0  0  0  0  0  0  0  0
   59.5740   31.2820   49.1350 C   0  0  0  0  0  0  0  0  0  0  0  0
   59.1950   29.9390   49.1090 C   0  0  0  0  0  0  0  0  0  0  0  0
   59.8190   29.0380   48.2260 C   0  0  0  0  0  0  0  0  0  0  0  0
   59.4220   27.6110   48.2020 C   0  0  0  0  0  0  0  0  0  0  0  0
   60.2680   26.7160   48.4750 O   0  0  0  0  0  0  0  0  0  0  0  0
   58.0800   27.2400   47.8630 N   0  0  0  0  0  0  0  0  0  0  0  0
   57.7350   26.3870   46.7320 C   0  0  0  0  0  0  0  0  0  0  0  0
   56.5930   26.9690   45.9540 C   0  0  0  0  0  0  0  0  0  0  0  0
   55.4180   26.5780   46.1950 O   0  0  0  0  0  0  0  0  0  0  0  0
   56.8500   27.8740   44.8730 N   0  0  0  0  0  0  0  0  0  0  0  0
   57.0960   29.2830   44.9720 C   0  0  0  0  0  0  0  0  0  0  0  0
   57.9850   29.7430   45.9510 C   0  0  0  0  0  0  0  0  0  0  0  0
   58.2380   31.1110   46.0960 C   0  0  0  0  0  0  0  0  0  0  0  0
   57.5890   32.0380   45.2700 C   0  0  0  0  0  0  0  0  0  0  0  0
   57.8870   33.7640   45.4420 S   0  0  0  0  0  0  0  0  0  0  0  0
   58.0180   34.1620   47.1170 N   0  0  0  0  0  0  0  0  0  0  0  0
   59.1620   34.1460   44.7420 O   0  0  0  0  0  0  0  0  0  0  0  0
   56.7480   34.5300   44.8310 O   0  0  0  0  0  0  0  0  0  0  0  0
   56.6770   31.5850   44.3070 C   0  0  0  0  0  0  0  0  0  0  0  0
   56.4240   30.2180   44.1630 C   0  0  0  0  0  0  0  0  0  0  0  0
   60.8290   29.5150   47.3710 C   0  0  0  0  0  0  0  0  0  0  0  0
   61.2120   30.8590   47.4050 C   0  0  0  0  0  0  0  0  0  0  0  0
   63.2508   34.3146   52.1344 H   0  0  0  0  0  0  0  0  0  0  0  0
   63.8894   33.0559   51.0232 H   0  0  0  0  0  0  0  0  0  0  0  0
   64.6079   34.7022   51.0232 H   0  0  0  0  0  0  0  0  0  0  0  0
   61.6715   34.6136   50.5124 H   0  0  0  0  0  0  0  0  0  0  0  0
   62.9724   35.5540   49.6886 H   0  0  0  0  0  0  0  0  0  0  0  0
   63.1940   34.9050   47.3609 H   0  0  0  0  0  0  0  0  0  0  0  0
   64.5779   34.2399   48.3001 H   0  0  0  0  0  0  0  0  0  0  0  0
   63.8642   31.9282   47.3860 H   0  0  0  0  0  0  0  0  0  0  0  0
   62.8403   32.8367   46.2228 H   0  0  0  0  0  0  0  0  0  0  0  0
   64.6216   33.0684   46.2228 H   0  0  0  0  0  0  0  0  0  0  0  0
   59.0746   31.9780   49.8250 H   0  0  0  0  0  0  0  0  0  0  0  0
   58.4028   29.5821   49.7836 H   0  0  0  0  0  0  0  0  0  0  0  0
   58.6098   26.2923   46.0718 H   0  0  0  0  0  0  0  0  0  0  0  0
   57.4344   25.4002   47.1139 H   0  0  0  0  0  0  0  0  0  0  0  0
   58.4889   29.0223   46.6119 H   0  0  0  0  0  0  0  0  0  0  0  0
   58.9481   31.4598   46.8603 H   0  0  0  0  0  0  0  0  0  0  0  0
   58.8750   33.6860   47.4800 H   0  0  0  0  0  0  0  0  0  0  0  0
   56.1579   32.3088   43.6615 H   0  0  0  0  0  0  0  0  0  0  0  0
   55.6965   29.8715   43.4141 H   0  0  0  0  0  0  0  0  0  0  0  0
   61.3214   28.8249   46.6700 H   0  0  0  0  0  0  0  0  0  0  0  0
   62.0075   31.2195   46.7362 H   0  0  0  0  0  0  0  0  0  0  0  0
  1  2  1  0
  2  3  1  0
  3  4  1  0
  4  5  1  0
  3  6  1  0
  6  7  2  0
  6  8  2  0
  6  9  1  0
  9 10  2  0
 10 11  1  0
 11 12  2  0
 12 13  1  0
 13 14  2  0
 13 15  1  0
 15 16  1  0
 16 17  1  0
 17 18  2  0
 17 19  1  0
 19 20  1  0
 20 21  2  0
 21 22  1  0
 22 23  2  0
 23 24  1  0
 24 25  1  0
 24 26  2  0
 24 27  2  0
 23 28  1  0
 28 29  2  0
 12 30  1  0
 30 31  2  0
 31  9  1  0
 29 20  1  0
  1 32  1  0
  1 33  1  0
  1 34  1  0
  2 35  1  0
  2 36  1  0
  4 37  1  0
  4 38  1  0
  5 39  1  0
  5 40  1  0
  5 41  1  0
 10 42  1  0
 11 43  1  0
 16 44  1  0
 16 45  1  0
 21 46  1  0
 22 47  1  0
 25 48  1  0
 28 49  1  0
 29 50  1  0
 30 51  1  0
 31 52  1  0
M  CHG  3  15  -1  19  -1  25  -1
M  END
>  <UniqueID>  (24) 
23

>  <SMILES>  (24) 
CCN(CC)S(=O)(=O)c1ccc(C(=O)[N-]CC(=O)[N-]c2ccc(S([NH-])(=O)=O)cc2)cc1

>  <Energy>  (24) 
50.42561989706846

>  <Genealogy>  (24) 
CCN(CC)S(=O)(=O)c1ccc(C(=O)[N-]CC(=O)[N-]c2ccc(S([NH-])(=O)=O)cc2)cc1 (protonated)
CCN(CC)S(=O)(=O)c1ccc(C(=O)[N-]CC(=O)[N-]c2ccc(S([NH-])(=O)=O)cc2)cc1 (3D coordinates assigned)
CCN(CC)S(=O)(=O)c1ccc(C(=O)[N-]CC(=O)[N-]c2ccc(S([NH-])(=O)=O)cc2)cc1 (optimized conformer: 50.42561989706846 kcal/mol)

>  <smiles>  (24) 
CCN(CC)S(=O)(=O)c1ccc(C(=O)NCC(=O)Nc2ccc(S(N)(=O)=O)cc2)cc1

>  <score_type>  (24) 
oracle

>  <origin>  (24) 
adg

>  <m_score__min__energy>  (24) 
-13.16

>  <m_primary>  (24) 
energy

$$$$
24:0
     RDKit          3D

 39 41  0  0  0  0  0  0  0  0999 V2000
   55.2650   28.9960   44.8020 N   0  0  0  0  0  0  0  0  0  0  0  0
   56.2660   29.9800   44.5560 C   0  0  0  0  0  0  0  0  0  0  0  0
   55.9450   31.1970   44.4950 O   0  0  0  0  0  0  0  0  0  0  0  0
   57.7000   29.5770   44.4140 C   0  0  0  0  0  0  0  0  0  0  0  0
   58.1660   28.8880   45.6220 N   0  0  0  0  0  0  0  0  0  0  0  0
   57.8760   27.6140   45.9600 C   0  0  0  0  0  0  0  0  0  0  0  0
   57.1110   26.7540   45.1770 O   0  0  0  0  0  0  0  0  0  0  0  0
   58.4300   27.3070   47.1810 C   0  0  0  0  0  0  0  0  0  0  0  0
   58.3320   26.0890   47.8420 O   0  0  0  0  0  0  0  0  0  0  0  0
   59.1050   28.4280   47.6220 C   0  0  0  0  0  0  0  0  0  0  0  0
   59.8370   28.5510   48.9020 C   0  0  0  0  0  0  0  0  0  0  0  0
   60.5300   27.5780   49.3020 O   0  0  0  0  0  0  0  0  0  0  0  0
   59.7820   29.7810   49.7230 C   0  0  0  0  0  0  0  0  0  0  0  0
   58.5410   30.3110   50.1140 C   0  0  0  0  0  0  0  0  0  0  0  0
   58.4820   31.4860   50.8690 C   0  0  0  0  0  0  0  0  0  0  0  0
   59.6600   32.1340   51.2510 C   0  0  0  0  0  0  0  0  0  0  0  0
   60.8990   31.6020   50.8860 C   0  0  0  0  0  0  0  0  0  0  0  0
   60.9620   30.4270   50.1320 C   0  0  0  0  0  0  0  0  0  0  0  0
   58.9200   29.3970   46.6310 C   0  0  0  0  0  0  0  0  0  0  0  0
   59.3690   30.8030   46.7080 C   0  0  0  0  0  0  0  0  0  0  0  0
   58.4270   31.8440   46.7370 C   0  0  0  0  0  0  0  0  0  0  0  0
   58.8490   33.1710   46.8560 C   0  0  0  0  0  0  0  0  0  0  0  0
   60.2130   33.4660   46.9450 C   0  0  0  0  0  0  0  0  0  0  0  0
   61.1550   32.4350   46.9160 C   0  0  0  0  0  0  0  0  0  0  0  0
   60.7360   31.1060   46.7980 C   0  0  0  0  0  0  0  0  0  0  0  0
   55.5220   27.9970   44.9540 H   0  0  0  0  0  0  0  0  0  0  0  0
   57.8019   28.9023   43.5512 H   0  0  0  0  0  0  0  0  0  0  0  0
   58.3087   30.4810   44.2649 H   0  0  0  0  0  0  0  0  0  0  0  0
   56.3790   27.1080   44.5740 H   0  0  0  0  0  0  0  0  0  0  0  0
   57.6114   29.7990   49.8247 H   0  0  0  0  0  0  0  0  0  0  0  0
   57.5068   31.9013   51.1630 H   0  0  0  0  0  0  0  0  0  0  0  0
   59.6115   33.0625   51.8388 H   0  0  0  0  0  0  0  0  0  0  0  0
   61.8261   32.1085   51.1924 H   0  0  0  0  0  0  0  0  0  0  0  0
   61.9400   30.0053   49.8570 H   0  0  0  0  0  0  0  0  0  0  0  0
   57.3536   31.6143   46.6658 H   0  0  0  0  0  0  0  0  0  0  0  0
   58.1080   33.9836   46.8797 H   0  0  0  0  0  0  0  0  0  0  0  0
   60.5444   34.5108   47.0379 H   0  0  0  0  0  0  0  0  0  0  0  0
   62.2276   32.6687   46.9861 H   0  0  0  0  0  0  0  0  0  0  0  0
   61.4801   30.2961   46.7757 H   0  0  0  0  0  0  0  0  0  0  0  0
  1  2  1  0
  2  3  2  0
  2  4  1  0
  4  5  1  0
  5  6  1  0
  6  7  1  0
  6  8  2  0
  8  9  1  0
  8 10  1  0
 10 11  1  0
 11 12  2  0
 11 13  1  0
 13 14  2  0
 14 15  1  0
 15 16  2  0
 16 17  1  0
 17 18  2  0
 10 19  2  0
 19 20  1  0
 20 21  2  0
 21 22  1  0
 22 23  2  0
 23 24  1  0
 24 25  2  0
 19  5  1  0
 25 20  1  0
 18 13  1  0
  1 26  1  0
  4 27  1  0
  4 28  1  0
  7 29  1  0
 14 30  1  0
 15 31  1  0
 16 32  1  0
 17 33  1  0
 18 34  1  0
 21 35  1  0
 22 36  1  0
 23 37  1  0
 24 38  1  0
 25 39  1  0
M  CHG  2   1  -1   9  -1
M  END
>  <UniqueID>  (25) 
24

>  <SMILES>  (25) 
[NH-]C(=O)Cn1c(O)c([O-])c(C(=O)c2ccccc2)c1-c1ccccc1

>  <Energy>  (25) 
77.9358553160402

>  <Genealogy>  (25) 
[NH-]C(=O)Cn1c(O)c([O-])c(C(=O)c2ccccc2)c1-c1ccccc1 (protonated)
[NH-]C(=O)Cn1c(O)c([O-])c(C(=O)c2ccccc2)c1-c1ccccc1 (3D coordinates assigned)
[NH-]C(=O)Cn1c(O)c([O-])c(C(=O)c2ccccc2)c1-c1ccccc1 (optimized conformer: 77.9358553160402 kcal/mol)

>  <smiles>  (25) 
NC(=O)Cn1c(O)c(O)c(C(=O)c2ccccc2)c1-c1ccccc1

>  <score_type>  (25) 
oracle

>  <origin>  (25) 
adg

>  <m_score__min__energy>  (25) 
-11.48

>  <m_primary>  (25) 
energy

$$$$
25:0
     RDKit          3D

 47 50  0  0  1  0  0  0  0  0999 V2000
   55.3640   26.7500   45.9350 O   0  0  0  0  0  0  0  0  0  0  0  0
   56.6560   27.2440   45.8640 C   0  0  0  0  0  0  0  0  0  0  0  0
   57.5980   26.6510   46.6950 C   0  0  0  0  0  0  0  0  0  0  0  0
   58.8780   27.1250   46.6410 C   0  0  0  0  0  0  0  0  0  0  0  0
   59.2590   28.1640   45.7900 C   0  0  0  0  0  0  0  0  0  0  0  0
   60.7030   28.6030   45.8190 C   0  0  0  0  0  0  0  0  0  0  0  0
   60.6620   30.0310   45.9840 N   0  0  0  0  0  0  0  0  0  0  0  0
   60.2920   30.6680   47.0300 C   0  0  0  0  0  0  0  0  0  0  0  0
   60.5890   31.9890   47.1220 N   0  0  0  0  0  0  0  0  0  0  0  0
   60.2170   32.6930   48.2060 C   0  0  0  0  0  0  0  0  0  0  0  0
   60.5240   33.9550   48.2470 N   0  0  0  0  0  0  0  0  0  0  0  0
   59.7160   34.9630   47.5880 C   0  0  0  0  0  0  0  0  0  0  0  0
   58.9950   34.3060   46.4650 C   0  0  0  0  0  0  0  0  0  0  0  0
   59.5720   34.2790   45.1960 C   0  0  0  0  0  0  0  0  0  0  0  0
   58.8940   33.6710   44.1840 C   0  0  0  0  0  0  0  0  0  0  0  0
   57.6440   33.0740   44.3630 C   0  0  0  0  0  0  0  0  0  0  0  0
   57.0670   33.1010   45.6290 C   0  0  0  0  0  0  0  0  0  0  0  0
   57.7470   33.7140   46.6590 C   0  0  0  0  0  0  0  0  0  0  0  0
   59.5320   32.0580   49.2210 C   0  0  0  0  0  0  0  0  0  0  0  0
   59.1450   32.7670   50.3400 C   0  0  0  0  0  0  0  0  0  0  0  0
   58.4610   32.1140   51.3450 C   0  0  0  0  0  0  0  0  0  0  0  0
   58.1730   30.7580   51.2200 C   0  0  0  0  0  0  0  0  0  0  0  0
   58.5660   30.0590   50.0960 C   0  0  0  0  0  0  0  0  0  0  0  0
   59.2570   30.7030   49.0720 C   0  0  0  0  0  0  0  0  0  0  0  0
   59.6300   30.0030   47.9870 N   0  0  0  0  0  0  0  0  0  0  0  0
   58.3310   28.7550   44.9640 C   0  0  0  0  0  0  0  0  0  0  0  0
   57.0220   28.2780   45.0130 C   0  0  0  0  0  0  0  0  0  0  0  0
   55.0220   26.3290   46.7910 H   0  0  0  0  0  0  0  0  0  0  0  0
   57.3230   25.8291   47.3724 H   0  0  0  0  0  0  0  0  0  0  0  0
   59.6380   26.6704   47.2934 H   0  0  0  0  0  0  0  0  0  0  0  0
   61.2319   28.1328   46.6612 H   0  0  0  0  0  0  0  0  0  0  0  0
   61.2390   28.3110   44.9038 H   0  0  0  0  0  0  0  0  0  0  0  0
   61.1000   32.4330   46.3450 H   0  0  0  0  0  0  0  0  0  0  0  0
   58.9925   35.3868   48.3000 H   0  0  0  0  0  0  0  0  0  0  0  0
   60.3511   35.7785   47.2117 H   0  0  0  0  0  0  0  0  0  0  0  0
   60.5547   34.7394   45.0162 H   0  0  0  0  0  0  0  0  0  0  0  0
   59.3498   33.6490   43.1831 H   0  0  0  0  0  0  0  0  0  0  0  0
   57.1263   32.5923   43.5204 H   0  0  0  0  0  0  0  0  0  0  0  0
   56.0837   32.6403   45.8048 H   0  0  0  0  0  0  0  0  0  0  0  0
   57.2935   33.7371   47.6609 H   0  0  0  0  0  0  0  0  0  0  0  0
   59.3786   33.8382   50.4296 H   0  0  0  0  0  0  0  0  0  0  0  0
   58.1440   32.6641   52.2432 H   0  0  0  0  0  0  0  0  0  0  0  0
   57.6282   30.2394   52.0227 H   0  0  0  0  0  0  0  0  0  0  0  0
   58.3322   28.9877   50.0086 H   0  0  0  0  0  0  0  0  0  0  0  0
   59.3880   28.9930   47.9490 H   0  0  0  0  0  0  0  0  0  0  0  0
   58.6123   29.5759   44.2880 H   0  0  0  0  0  0  0  0  0  0  0  0
   56.2607   28.7319   44.3616 H   0  0  0  0  0  0  0  0  0  0  0  0
  1  2  1  0
  2  3  2  0
  3  4  1  0
  4  5  2  0
  5  6  1  0
  6  7  1  0
  7  8  2  0
  8  9  1  0
  9 10  1  0
 10 11  2  0
 11 12  1  0
 12 13  1  0
 13 14  2  0
 14 15  1  0
 15 16  2  0
 16 17  1  0
 17 18  2  0
 10 19  1  0
 19 20  2  0
 20 21  1  0
 21 22  2  0
 22 23  1  0
 23 24  2  0
 24 25  1  0
  5 26  1  0
 26 27  2  0
 27  2  1  0
 25  8  1  0
 18 13  1  0
 24 19  1  0
  1 28  1  0
  3 29  1  0
  4 30  1  0
  6 31  1  0
  6 32  1  0
  9 33  1  0
 12 34  1  0
 12 35  1  0
 14 36  1  0
 15 37  1  0
 16 38  1  0
 17 39  1  0
 18 40  1  0
 20 41  1  0
 21 42  1  0
 22 43  1  0
 23 44  1  0
 25 45  1  0
 26 46  1  0
 27 47  1  0
M  END
>  <smiles>  (26) 
Oc1ccc(CN=c2[nH]c(=NCc3ccccc3)c3ccccc3[nH]2)cc1

>  <score_type>  (26) 
oracle

>  <origin>  (26) 
adg

>  <m_score__min__energy>  (26) 
-9.0800000000000001

>  <m_primary>  (26) 
energy

$$$$
26:0
     RDKit          3D

 93 99  0  0  0  0  0  0  0  0999 V2000
   54.0930   23.7530   45.9230 C   0  0  0  0  0  0  0  0  0  0  0  0
   55.5000   23.4380   46.2430 N   0  0  0  0  0  0  0  0  0  0  0  0
   56.3770   23.6470   45.0660 C   0  0  0  0  0  0  0  0  0  0  0  0
   56.9060   25.0860   44.9640 C   0  0  0  0  0  0  0  0  0  0  0  0
   57.5170   25.5100   46.2300 N   0  0  0  0  0  0  0  0  0  0  0  0
   58.2700   26.7340   46.2990 C   0  0  0  0  0  0  0  0  0  0  0  0
   59.2110   27.0400   45.3060 C   0  0  0  0  0  0  0  0  0  0  0  0
   59.9570   28.2170   45.3770 C   0  0  0  0  0  0  0  0  0  0  0  0
   59.7930   29.0970   46.4570 C   0  0  0  0  0  0  0  0  0  0  0  0
   60.7240   30.2320   46.5880 C   0  0  0  0  0  0  0  0  0  0  0  0
   61.9320   30.0940   46.2600 O   0  0  0  0  0  0  0  0  0  0  0  0
   60.2750   31.4450   47.2010 N   0  0  0  0  0  0  0  0  0  0  0  0
   61.1860   32.3750   47.7900 C   0  0  0  0  0  0  0  0  0  0  0  0
   62.5000   32.4260   47.3060 C   0  0  0  0  0  0  0  0  0  0  0  0
   63.4140   33.3350   47.8360 C   0  0  0  0  0  0  0  0  0  0  0  0
   63.0230   34.2060   48.8520 C   0  0  0  0  0  0  0  0  0  0  0  0
   61.7190   34.1650   49.3520 C   0  0  0  0  0  0  0  0  0  0  0  0
   60.7770   33.2530   48.8310 C   0  0  0  0  0  0  0  0  0  0  0  0
   59.4040   33.2260   49.4130 C   0  0  0  0  0  0  0  0  0  0  0  0
   59.2330   33.3280   50.6590 O   0  0  0  0  0  0  0  0  0  0  0  0
   58.2700   33.0870   48.5410 N   0  0  0  0  0  0  0  0  0  0  0  0
   58.2370   33.3630   47.2710 C   0  0  0  0  0  0  0  0  0  0  0  0
   57.6930   32.5580   46.3270 N   0  0  0  0  0  0  0  0  0  0  0  0
   57.8410   33.0820   45.0800 C   0  0  0  0  0  0  0  0  0  0  0  0
   58.4940   34.3100   45.0310 C   0  0  0  0  0  0  0  0  0  0  0  0
   58.9010   34.7520   46.6040 S   0  0  0  0  0  0  0  0  0  0  0  0
   58.8330   28.8100   47.4520 C   0  0  0  0  0  0  0  0  0  0  0  0
   58.5680   29.7480   48.5070 N   0  0  0  0  0  0  0  0  0  0  0  0
   58.8200   29.4590   49.8850 C   0  0  0  0  0  0  0  0  0  0  0  0
   57.9280   29.6660   50.7460 O   0  0  0  0  0  0  0  0  0  0  0  0
   60.1440   28.9980   50.2980 C   0  0  0  0  0  0  0  0  0  0  0  0
   60.4340   27.6990   50.6790 C   0  0  0  0  0  0  0  0  0  0  0  0
   61.7030   27.5570   51.2400 C   0  0  0  0  0  0  0  0  0  0  0  0
   62.1000   26.3030   51.8000 N   0  0  0  0  0  0  0  0  0  0  0  0
   63.4180   25.7600   51.9480 C   0  0  0  0  0  0  0  0  0  0  0  0
   63.6560   24.5480   51.7020 O   0  0  0  0  0  0  0  0  0  0  0  0
   64.5360   26.6930   52.3250 C   0  0  0  0  0  0  0  0  0  0  0  0
   65.0370   26.4730   53.7750 C   0  0  0  0  0  0  0  0  0  0  0  0
   66.5030   26.9140   53.9660 C   0  0  0  0  0  0  0  0  0  0  0  0
   66.8600   27.9700   53.0060 N   0  0  0  0  0  0  0  0  0  0  0  0
   67.0990   29.3180   53.4610 C   0  0  0  0  0  0  0  0  0  0  0  0
   66.5890   29.7160   54.5420 O   0  0  0  0  0  0  0  0  0  0  0  0
   67.8440   30.2520   52.6710 N   0  0  0  0  0  0  0  0  0  0  0  0
   67.2940   31.2040   51.7480 C   0  0  0  0  0  0  0  0  0  0  0  0
   66.0070   30.9860   51.2390 C   0  0  0  0  0  0  0  0  0  0  0  0
   65.4250   31.9130   50.3680 C   0  0  0  0  0  0  0  0  0  0  0  0
   66.1230   33.0710   50.0080 C   0  0  0  0  0  0  0  0  0  0  0  0
   67.4000   33.3040   50.5270 C   0  0  0  0  0  0  0  0  0  0  0  0
   67.9810   32.3800   51.4020 C   0  0  0  0  0  0  0  0  0  0  0  0
   66.7120   27.7000   51.5630 C   0  0  0  0  0  0  0  0  0  0  0  0
   65.6870   26.5840   51.3110 C   0  0  0  0  0  0  0  0  0  0  0  0
   62.4330   28.7470   51.2920 C   0  0  0  0  0  0  0  0  0  0  0  0
   61.4710   29.9690   50.6420 S   0  0  0  0  0  0  0  0  0  0  0  0
   58.0750   27.6310   47.3610 C   0  0  0  0  0  0  0  0  0  0  0  0
   57.3740   24.6590   47.4140 C   0  0  0  0  0  0  0  0  0  0  0  0
   55.9370   24.1330   47.4840 C   0  0  0  0  0  0  0  0  0  0  0  0
   53.5244   23.8803   46.8560 H   0  0  0  0  0  0  0  0  0  0  0  0
   54.0495   24.6831   45.3373 H   0  0  0  0  0  0  0  0  0  0  0  0
   53.6571   22.9302   45.3373 H   0  0  0  0  0  0  0  0  0  0  0  0
   57.2345   22.9621   45.1409 H   0  0  0  0  0  0  0  0  0  0  0  0
   55.7751   23.4515   44.1663 H   0  0  0  0  0  0  0  0  0  0  0  0
   57.6604   25.1367   44.1651 H   0  0  0  0  0  0  0  0  0  0  0  0
   56.0628   25.7555   44.7388 H   0  0  0  0  0  0  0  0  0  0  0  0
   59.3623   26.3474   44.4650 H   0  0  0  0  0  0  0  0  0  0  0  0
   60.6780   28.4562   44.5814 H   0  0  0  0  0  0  0  0  0  0  0  0
   59.2750   31.5180   47.4690 H   0  0  0  0  0  0  0  0  0  0  0  0
   62.8125   31.7436   46.5018 H   0  0  0  0  0  0  0  0  0  0  0  0
   64.4445   33.3652   47.4524 H   0  0  0  0  0  0  0  0  0  0  0  0
   63.7442   34.9285   49.2617 H   0  0  0  0  0  0  0  0  0  0  0  0
   61.4238   34.8506   50.1599 H   0  0  0  0  0  0  0  0  0  0  0  0
   57.4719   32.5727   44.1776 H   0  0  0  0  0  0  0  0  0  0  0  0
   58.7074   34.8914   44.1219 H   0  0  0  0  0  0  0  0  0  0  0  0
   59.7326   26.8613   50.5518 H   0  0  0  0  0  0  0  0  0  0  0  0
   64.1327   27.7159   52.2936 H   0  0  0  0  0  0  0  0  0  0  0  0
   64.4017   27.0538   54.4598 H   0  0  0  0  0  0  0  0  0  0  0  0
   64.9813   25.3953   53.9883 H   0  0  0  0  0  0  0  0  0  0  0  0
   66.6341   27.2971   54.9888 H   0  0  0  0  0  0  0  0  0  0  0  0
   67.1573   26.0464   53.7954 H   0  0  0  0  0  0  0  0  0  0  0  0
   65.4513   30.0811   51.5258 H   0  0  0  0  0  0  0  0  0  0  0  0
   64.4175   31.7314   49.9656 H   0  0  0  0  0  0  0  0  0  0  0  0
   65.6678   33.7967   49.3179 H   0  0  0  0  0  0  0  0  0  0  0  0
   67.9488   34.2153   50.2469 H   0  0  0  0  0  0  0  0  0  0  0  0
   68.9794   32.5747   51.8208 H   0  0  0  0  0  0  0  0  0  0  0  0
   66.3751   28.6177   51.0586 H   0  0  0  0  0  0  0  0  0  0  0  0
   67.6856   27.3759   51.1668 H   0  0  0  0  0  0  0  0  0  0  0  0
   65.2855   26.6807   50.2915 H   0  0  0  0  0  0  0  0  0  0  0  0
   66.1794   25.6070   51.4251 H   0  0  0  0  0  0  0  0  0  0  0  0
   63.4530   28.8653   51.6865 H   0  0  0  0  0  0  0  0  0  0  0  0
   57.3207   27.4082   48.1300 H   0  0  0  0  0  0  0  0  0  0  0  0
   58.0730   23.8124   47.3455 H   0  0  0  0  0  0  0  0  0  0  0  0
   57.5989   25.2428   48.3188 H   0  0  0  0  0  0  0  0  0  0  0  0
   55.8653   23.4256   48.3233 H   0  0  0  0  0  0  0  0  0  0  0  0
   55.2788   25.0043   47.6166 H   0  0  0  0  0  0  0  0  0  0  0  0
  1  2  1  0
  2  3  1  0
  3  4  1  0
  4  5  1  0
  5  6  1  0
  6  7  2  0
  7  8  1  0
  8  9  2  0
  9 10  1  0
 10 11  2  0
 10 12  1  0
 12 13  1  0
 13 14  2  0
 14 15  1  0
 15 16  2  0
 16 17  1  0
 17 18  2  0
 18 19  1  0
 19 20  2  0
 19 21  1  0
 21 22  2  3
 22 23  1  0
 23 24  1  0
 24 25  2  0
 25 26  1  0
  9 27  1  0
 27 28  1  0
 28 29  1  0
 29 30  2  0
 29 31  1  0
 31 32  2  0
 32 33  1  0
 33 34  1  0
 34 35  1  0
 35 36  2  0
 35 37  1  0
 37 38  1  0
 38 39  1  0
 39 40  1  0
 40 41  1  0
 41 42  2  0
 41 43  1  0
 43 44  1  0
 44 45  2  0
 45 46  1  0
 46 47  2  0
 47 48  1  0
 48 49  2  0
 40 50  1  0
 50 51  1  0
 33 52  2  0
 52 53  1  0
 27 54  2  0
  5 55  1  0
 55 56  1  0
 56  2  1  0
 54  6  1  0
 18 13  1  0
 26 22  1  0
 53 31  1  0
 51 37  1  0
 49 44  1  0
  1 57  1  0
  1 58  1  0
  1 59  1  0
  3 60  1  0
  3 61  1  0
  4 62  1  0
  4 63  1  0
  7 64  1  0
  8 65  1  0
 12 66  1  0
 14 67  1  0
 15 68  1  0
 16 69  1  0
 17 70  1  0
 24 71  1  0
 25 72  1  0
 32 73  1  0
 37 74  1  0
 38 75  1  0
 38 76  1  0
 39 77  1  0
 39 78  1  0
 45 79  1  0
 46 80  1  0
 47 81  1  0
 48 82  1  0
 49 83  1  0
 50 84  1  0
 50 85  1  0
 51 86  1  0
 51 87  1  0
 52 88  1  0
 54 89  1  0
 55 90  1  0
 55 91  1  0
 56 92  1  0
 56 93  1  0
M  CHG  4  23  -1  28  -1  34  -1  43  -1
M  END
>  <UniqueID>  (27) 
25

>  <SMILES>  (27) 
CN1CCN(c2ccc(C(=O)Nc3ccccc3C(=O)N=c3[n-]ccs3)c([N-]C(=O)c3cc([N-]C(=O)C4CCN(C(=O)[N-]c5ccccc5)CC4)cs3)c2)CC1

>  <Energy>  (27) 
203.8866689059539

>  <Genealogy>  (27) 
CN1CCN(c2ccc(C(=O)Nc3ccccc3C(=O)N=c3[n-]ccs3)c([N-]C(=O)c3cc([N-]C(=O)C4CCN(C(=O)[N-]c5ccccc5)CC4)cs3)c2)CC1 (protonated)
CN1CCN(c2ccc(C(=O)Nc3ccccc3C(=O)N=c3[n-]ccs3)c([N-]C(=O)c3cc([N-]C(=O)C4CCN(C(=O)[N-]c5ccccc5)CC4)cs3)c2)CC1 (3D coordinates assigned)
CN1CCN(c2ccc(C(=O)Nc3ccccc3C(=O)N=c3[n-]ccs3)c([N-]C(=O)c3cc([N-]C(=O)C4CCN(C(=O)[N-]c5ccccc5)CC4)cs3)c2)CC1 (nonaromatic ring conformer: 203.8866689059539 kcal/mol)

>  <smiles>  (27) 
CN1CCN(c2ccc(C(=O)Nc3ccccc3C(=O)N=c3[nH]ccs3)c(NC(=O)c3cc(NC(=O)C4CCN(C(=O)Nc5ccccc5)CC4)cs3)c2)CC1

>  <score_type>  (27) 
oracle

>  <origin>  (27) 
adg

>  <m_score__min__energy>  (27) 
-16.920000000000002

>  <m_primary>  (27) 
energy

$$$$
27:0
     RDKit          3D

 42 45  0  0  0  0  0  0  0  0999 V2000
   50.6480   33.3210   52.1660 O   0  0  0  0  0  0  0  0  0  0  0  0
   51.0790   32.3270   51.5260 C   0  0  0  0  0  0  0  0  0  0  0  0
   51.0460   32.3460   50.1370 O   0  0  0  0  0  0  0  0  0  0  0  0
   51.6160   31.1500   52.2300 C   0  0  0  0  0  0  0  0  0  0  0  0
   50.8590   30.1510   52.8350 C   0  0  0  0  0  0  0  0  0  0  0  0
   51.6630   29.2170   53.3900 N   0  0  0  0  0  0  0  0  0  0  0  0
   52.9220   29.6150   53.1430 C   0  0  0  0  0  0  0  0  0  0  0  0
   54.0950   28.9710   53.5270 C   0  0  0  0  0  0  0  0  0  0  0  0
   55.3190   29.5600   53.1670 C   0  0  0  0  0  0  0  0  0  0  0  0
   55.3520   30.7730   52.4330 C   0  0  0  0  0  0  0  0  0  0  0  0
   56.6150   31.3700   52.0800 N   0  0  0  0  0  0  0  0  0  0  0  0
   56.8170   32.6950   52.3500 C   0  0  0  0  0  0  0  0  0  0  0  0
   58.0210   33.3180   52.0140 C   0  0  0  0  0  0  0  0  0  0  0  0
   59.0360   32.5770   51.3910 C   0  0  0  0  0  0  0  0  0  0  0  0
   60.2680   33.1380   51.0180 O   0  0  0  0  0  0  0  0  0  0  0  0
   60.9100   32.9530   49.7560 C   0  0  0  0  0  0  0  0  0  0  0  0
   59.9950   33.3470   48.6270 C   0  0  0  0  0  0  0  0  0  0  0  0
   58.9860   32.4740   48.1850 C   0  0  0  0  0  0  0  0  0  0  0  0
   58.1350   32.8510   47.1420 C   0  0  0  0  0  0  0  0  0  0  0  0
   58.2780   34.1040   46.5390 C   0  0  0  0  0  0  0  0  0  0  0  0
   59.2700   34.9830   46.9820 C   0  0  0  0  0  0  0  0  0  0  0  0
   60.1240   34.6100   48.0240 C   0  0  0  0  0  0  0  0  0  0  0  0
   58.8190   31.2230   51.1320 C   0  0  0  0  0  0  0  0  0  0  0  0
   57.6040   30.6280   51.4840 C   0  0  0  0  0  0  0  0  0  0  0  0
   57.4390   29.3970   51.2570 O   0  0  0  0  0  0  0  0  0  0  0  0
   54.1400   31.4010   52.0650 C   0  0  0  0  0  0  0  0  0  0  0  0
   52.9400   30.7910   52.4360 C   0  0  0  0  0  0  0  0  0  0  0  0
   49.7595   30.1252   52.8582 H   0  0  0  0  0  0  0  0  0  0  0  0
   51.3610   28.3610   53.9070 H   0  0  0  0  0  0  0  0  0  0  0  0
   54.0646   28.0295   54.0951 H   0  0  0  0  0  0  0  0  0  0  0  0
   56.2623   29.0747   53.4578 H   0  0  0  0  0  0  0  0  0  0  0  0
   56.0215   33.2775   52.8378 H   0  0  0  0  0  0  0  0  0  0  0  0
   58.1725   34.3845   52.2368 H   0  0  0  0  0  0  0  0  0  0  0  0
   61.8170   33.5742   49.7185 H   0  0  0  0  0  0  0  0  0  0  0  0
   61.1688   31.8897   49.6450 H   0  0  0  0  0  0  0  0  0  0  0  0
   58.8655   31.4900   48.6618 H   0  0  0  0  0  0  0  0  0  0  0  0
   57.3518   32.1608   46.7953 H   0  0  0  0  0  0  0  0  0  0  0  0
   57.6099   34.3980   45.7161 H   0  0  0  0  0  0  0  0  0  0  0  0
   59.3791   35.9705   46.5098 H   0  0  0  0  0  0  0  0  0  0  0  0
   60.8997   35.3074   48.3732 H   0  0  0  0  0  0  0  0  0  0  0  0
   59.6051   30.6231   50.6502 H   0  0  0  0  0  0  0  0  0  0  0  0
   54.1423   32.3455   51.5011 H   0  0  0  0  0  0  0  0  0  0  0  0
  1  2  2  0
  2  3  1  0
  2  4  1  0
  4  5  2  0
  5  6  1  0
  6  7  1  0
  7  8  2  0
  8  9  1  0
  9 10  2  0
 10 11  1  0
 11 12  1  0
 12 13  2  0
 13 14  1  0
 14 15  1  0
 15 16  1  0
 16 17  1  0
 17 18  2  0
 18 19  1  0
 19 20  2  0
 20 21  1  0
 21 22  2  0
 14 23  2  0
 23 24  1  0
 24 25  2  0
 10 26  1  0
 26 27  2  0
 27  4  1  0
 27  7  1  0
 24 11  1  0
 22 17  1  0
  5 28  1  0
  6 29  1  0
  8 30  1  0
  9 31  1  0
 12 32  1  0
 13 33  1  0
 16 34  1  0
 16 35  1  0
 18 36  1  0
 19 37  1  0
 20 38  1  0
 21 39  1  0
 22 40  1  0
 23 41  1  0
 26 42  1  0
M  CHG  1   3  -1
M  END
>  <UniqueID>  (28) 
26

>  <SMILES>  (28) 
O=C([O-])c1c[nH]c2ccc(-n3ccc(OCc4ccccc4)cc3=O)cc12

>  <Energy>  (28) 
88.65465074076087

>  <Genealogy>  (28) 
O=C([O-])c1c[nH]c2ccc(-n3ccc(OCc4ccccc4)cc3=O)cc12 (protonated)
O=C([O-])c1c[nH]c2ccc(-n3ccc(OCc4ccccc4)cc3=O)cc12 (3D coordinates assigned)
O=C([O-])c1c[nH]c2ccc(-n3ccc(OCc4ccccc4)cc3=O)cc12 (optimized conformer: 88.65465074076087 kcal/mol)

>  <smiles>  (28) 
O=C(O)c1c[nH]c2ccc(-n3ccc(OCc4ccccc4)cc3=O)cc12

>  <score_type>  (28) 
oracle

>  <origin>  (28) 
adg

>  <m_score__min__energy>  (28) 
-11.85

>  <m_primary>  (28) 
energy

$$$$
28:0
     RDKit          3D

 45 47  0  0  0  0  0  0  0  0999 V2000
   55.5970   23.9050   44.3300 C   0  0  0  0  0  0  0  0  0  0  0  0
   54.5570   24.5350   45.6310 S   0  0  0  0  0  0  0  0  0  0  0  0
   54.7790   23.7090   46.8650 O   0  0  0  0  0  0  0  0  0  0  0  0
   53.1090   24.4380   45.2390 O   0  0  0  0  0  0  0  0  0  0  0  0
   54.9700   26.1820   45.9810 N   0  0  0  0  0  0  0  0  0  0  0  0
   56.3000   26.7150   46.0640 C   0  0  0  0  0  0  0  0  0  0  0  0
   57.2790   25.9620   46.7210 C   0  0  0  0  0  0  0  0  0  0  0  0
   58.5860   26.4400   46.8270 C   0  0  0  0  0  0  0  0  0  0  0  0
   58.9290   27.6760   46.2750 C   0  0  0  0  0  0  0  0  0  0  0  0
   57.9630   28.4440   45.6020 C   0  0  0  0  0  0  0  0  0  0  0  0
   58.3170   29.7590   45.0180 C   0  0  0  0  0  0  0  0  0  0  0  0
   59.2600   29.8330   44.1870 O   0  0  0  0  0  0  0  0  0  0  0  0
   57.5820   30.9500   45.3330 N   0  0  0  0  0  0  0  0  0  0  0  0
   58.1430   32.2560   45.5380 C   0  0  0  0  0  0  0  0  0  0  0  0
   57.7960   33.3120   44.6760 C   0  0  0  0  0  0  0  0  0  0  0  0
   58.2870   34.5990   44.8940 C   0  0  0  0  0  0  0  0  0  0  0  0
   59.1160   34.8530   45.9850 C   0  0  0  0  0  0  0  0  0  0  0  0
   59.4590   33.8210   46.8600 C   0  0  0  0  0  0  0  0  0  0  0  0
   58.9840   32.5100   46.6530 C   0  0  0  0  0  0  0  0  0  0  0  0
   59.3990   31.4370   47.5950 C   0  0  0  0  0  0  0  0  0  0  0  0
   58.5640   30.9750   48.4190 O   0  0  0  0  0  0  0  0  0  0  0  0
   60.7590   30.9820   47.6280 N   0  0  0  0  0  0  0  0  0  0  0  0
   61.9140   31.7310   48.0320 C   0  0  0  0  0  0  0  0  0  0  0  0
   62.4760   32.6360   47.1220 C   0  0  0  0  0  0  0  0  0  0  0  0
   63.6190   33.3670   47.4630 C   0  0  0  0  0  0  0  0  0  0  0  0
   64.2130   33.1920   48.7160 C   0  0  0  0  0  0  0  0  0  0  0  0
   63.6720   32.2770   49.6230 C   0  0  0  0  0  0  0  0  0  0  0  0
   62.5330   31.5410   49.2820 C   0  0  0  0  0  0  0  0  0  0  0  0
   56.6460   27.9630   45.5120 C   0  0  0  0  0  0  0  0  0  0  0  0
   56.4592   23.3827   44.7703 H   0  0  0  0  0  0  0  0  0  0  0  0
   55.0218   23.2034   43.7080 H   0  0  0  0  0  0  0  0  0  0  0  0
   55.9525   24.7398   43.7080 H   0  0  0  0  0  0  0  0  0  0  0  0
   57.0169   24.9867   47.1570 H   0  0  0  0  0  0  0  0  0  0  0  0
   59.3483   25.8412   47.3470 H   0  0  0  0  0  0  0  0  0  0  0  0
   59.9593   28.0501   46.3672 H   0  0  0  0  0  0  0  0  0  0  0  0
   57.1306   33.1207   43.8212 H   0  0  0  0  0  0  0  0  0  0  0  0
   58.0199   35.4136   44.2048 H   0  0  0  0  0  0  0  0  0  0  0  0
   59.5009   35.8690   46.1570 H   0  0  0  0  0  0  0  0  0  0  0  0
   60.1083   34.0334   47.7221 H   0  0  0  0  0  0  0  0  0  0  0  0
   62.0153   32.7727   46.1325 H   0  0  0  0  0  0  0  0  0  0  0  0
   64.0504   34.0798   46.7447 H   0  0  0  0  0  0  0  0  0  0  0  0
   65.1058   33.7742   48.9880 H   0  0  0  0  0  0  0  0  0  0  0  0
   64.1429   32.1354   50.6070 H   0  0  0  0  0  0  0  0  0  0  0  0
   62.1192   30.8109   49.9931 H   0  0  0  0  0  0  0  0  0  0  0  0
   55.8785   28.5669   45.0058 H   0  0  0  0  0  0  0  0  0  0  0  0
  1  2  1  0
  2  3  2  0
  2  4  2  0
  2  5  1  0
  5  6  1  0
  6  7  2  0
  7  8  1  0
  8  9  2  0
  9 10  1  0
 10 11  1  0
 11 12  2  0
 11 13  1  0
 13 14  1  0
 14 15  2  0
 15 16  1  0
 16 17  2  0
 17 18  1  0
 18 19  2  0
 19 20  1  0
 20 21  2  0
 20 22  1  0
 22 23  1  0
 23 24  2  0
 24 25  1  0
 25 26  2  0
 26 27  1  0
 27 28  2  0
 10 29  2  0
 29  6  1  0
 19 14  1  0
 28 23  1  0
  1 30  1  0
  1 31  1  0
  1 32  1  0
  7 33  1  0
  8 34  1  0
  9 35  1  0
 15 36  1  0
 16 37  1  0
 17 38  1  0
 18 39  1  0
 24 40  1  0
 25 41  1  0
 26 42  1  0
 27 43  1  0
 28 44  1  0
 29 45  1  0
M  CHG  3   5  -1  13  -1  22  -1
M  END
>  <UniqueID>  (29) 
27

>  <SMILES>  (29) 
CS(=O)(=O)[N-]c1cccc(C(=O)[N-]c2ccccc2C(=O)[N-]c2ccccc2)c1

>  <Energy>  (29) 
60.31746321361766

>  <Genealogy>  (29) 
CS(=O)(=O)[N-]c1cccc(C(=O)[N-]c2ccccc2C(=O)[N-]c2ccccc2)c1 (protonated)
CS(=O)(=O)[N-]c1cccc(C(=O)[N-]c2ccccc2C(=O)[N-]c2ccccc2)c1 (3D coordinates assigned)
CS(=O)(=O)[N-]c1cccc(C(=O)[N-]c2ccccc2C(=O)[N-]c2ccccc2)c1 (optimized conformer: 60.31746321361766 kcal/mol)

>  <smiles>  (29) 
CS(=O)(=O)Nc1cccc(C(=O)Nc2ccccc2C(=O)Nc2ccccc2)c1

>  <score_type>  (29) 
oracle

>  <origin>  (29) 
adg

>  <m_score__min__energy>  (29) 
-14.44

>  <m_primary>  (29) 
energy

$$$$
29:0
     RDKit          3D

 50 53  0  0  0  0  0  0  0  0999 V2000
   58.7300   29.7620   49.8850 C   0  0  0  0  0  0  0  0  0  0  0  0
   59.5960   29.9930   48.6610 C   0  0  0  0  0  0  0  0  0  0  0  0
   59.6020   29.0130   47.6500 C   0  0  0  0  0  0  0  0  0  0  0  0
   58.8250   27.8590   47.7550 O   0  0  0  0  0  0  0  0  0  0  0  0
   60.4100   29.2010   46.5350 C   0  0  0  0  0  0  0  0  0  0  0  0
   60.4400   28.3410   45.6150 O   0  0  0  0  0  0  0  0  0  0  0  0
   61.1610   30.3210   46.4310 N   0  0  0  0  0  0  0  0  0  0  0  0
   61.1620   31.2750   47.3970 C   0  0  0  0  0  0  0  0  0  0  0  0
   62.1960   32.7340   47.1210 S   0  0  0  0  0  0  0  0  0  0  0  0
   63.6660   32.1090   48.0160 C   0  0  0  0  0  0  0  0  0  0  0  0
   63.9080   32.8590   49.2980 C   0  0  0  0  0  0  0  0  0  0  0  0
   63.0370   33.8960   49.6850 C   0  0  0  0  0  0  0  0  0  0  0  0
   63.2880   34.6330   50.8490 C   0  0  0  0  0  0  0  0  0  0  0  0
   64.4050   34.3340   51.6360 C   0  0  0  0  0  0  0  0  0  0  0  0
   65.2740   33.3030   51.2610 C   0  0  0  0  0  0  0  0  0  0  0  0
   65.0290   32.5620   50.0990 C   0  0  0  0  0  0  0  0  0  0  0  0
   65.8860   31.5660   49.7500 F   0  0  0  0  0  0  0  0  0  0  0  0
   60.4260   31.0950   48.5520 N   0  0  0  0  0  0  0  0  0  0  0  0
   60.5510   32.0620   49.6670 C   0  0  0  0  0  0  0  0  0  0  0  0
   59.4150   33.0400   49.6780 C   0  0  0  0  0  0  0  0  0  0  0  0
   58.6140   33.0660   50.6530 O   0  0  0  0  0  0  0  0  0  0  0  0
   59.2610   33.9370   48.5710 N   0  0  0  0  0  0  0  0  0  0  0  0
   58.9060   33.5990   47.2210 C   0  0  0  0  0  0  0  0  0  0  0  0
   59.1900   34.5270   46.2090 C   0  0  0  0  0  0  0  0  0  0  0  0
   58.8850   34.2430   44.8750 C   0  0  0  0  0  0  0  0  0  0  0  0
   58.2900   33.0230   44.5340 C   0  0  0  0  0  0  0  0  0  0  0  0
   57.9900   32.7200   43.1960 C   0  0  0  0  0  0  0  0  0  0  0  0
   57.4190   31.4850   42.8650 C   0  0  0  0  0  0  0  0  0  0  0  0
   57.1290   30.5520   43.8660 C   0  0  0  0  0  0  0  0  0  0  0  0
   57.4000   30.8490   45.2050 C   0  0  0  0  0  0  0  0  0  0  0  0
   57.9840   32.0820   45.5490 C   0  0  0  0  0  0  0  0  0  0  0  0
   58.2710   32.3860   46.8890 C   0  0  0  0  0  0  0  0  0  0  0  0
   59.3292   29.9218   50.7935 H   0  0  0  0  0  0  0  0  0  0  0  0
   57.8850   30.4661   49.8745 H   0  0  0  0  0  0  0  0  0  0  0  0
   58.3479   28.7305   49.8745 H   0  0  0  0  0  0  0  0  0  0  0  0
   63.5130   31.0453   48.2506 H   0  0  0  0  0  0  0  0  0  0  0  0
   64.5436   32.2520   47.3684 H   0  0  0  0  0  0  0  0  0  0  0  0
   62.1551   34.1281   49.0698 H   0  0  0  0  0  0  0  0  0  0  0  0
   62.6079   35.4457   51.1439 H   0  0  0  0  0  0  0  0  0  0  0  0
   64.6009   34.9107   52.5520 H   0  0  0  0  0  0  0  0  0  0  0  0
   66.1528   33.0741   51.8817 H   0  0  0  0  0  0  0  0  0  0  0  0
   60.5569   31.5107   50.6189 H   0  0  0  0  0  0  0  0  0  0  0  0
   61.4875   32.6233   49.5328 H   0  0  0  0  0  0  0  0  0  0  0  0
   59.6577   35.4884   46.4677 H   0  0  0  0  0  0  0  0  0  0  0  0
   59.1132   34.9802   44.0911 H   0  0  0  0  0  0  0  0  0  0  0  0
   58.2041   33.4547   42.4059 H   0  0  0  0  0  0  0  0  0  0  0  0
   57.1977   31.2477   41.8140 H   0  0  0  0  0  0  0  0  0  0  0  0
   56.6862   29.5812   43.5987 H   0  0  0  0  0  0  0  0  0  0  0  0
   57.1565   30.1182   45.9902 H   0  0  0  0  0  0  0  0  0  0  0  0
   57.9991   31.6746   47.6827 H   0  0  0  0  0  0  0  0  0  0  0  0
  1  2  1  0
  2  3  2  0
  3  4  1  0
  3  5  1  0
  5  6  2  0
  5  7  1  0
  7  8  2  0
  8  9  1  0
  9 10  1  0
 10 11  1  0
 11 12  2  0
 12 13  1  0
 13 14  2  0
 14 15  1  0
 15 16  2  0
 16 17  1  0
  8 18  1  0
 18 19  1  0
 19 20  1  0
 20 21  2  0
 20 22  1  0
 22 23  1  0
 23 24  2  0
 24 25  1  0
 25 26  2  0
 26 27  1  0
 27 28  2  0
 28 29  1  0
 29 30  2  0
 30 31  1  0
 31 32  2  0
 18  2  1  0
 32 23  1  0
 16 11  1  0
 31 26  1  0
  1 33  1  0
  1 34  1  0
  1 35  1  0
 10 36  1  0
 10 37  1  0
 12 38  1  0
 13 39  1  0
 14 40  1  0
 15 41  1  0
 19 42  1  0
 19 43  1  0
 24 44  1  0
 25 45  1  0
 27 46  1  0
 28 47  1  0
 29 48  1  0
 30 49  1  0
 32 50  1  0
M  CHG  2   4  -1  22  -1
M  END
>  <UniqueID>  (30) 
28

>  <SMILES>  (30) 
Cc1c([O-])c(=O)nc(SCc2ccccc2F)n1CC(=O)[N-]c1ccc2ccccc2c1

>  <Energy>  (30) 
61.60016402603882

>  <Genealogy>  (30) 
Cc1c([O-])c(=O)nc(SCc2ccccc2F)n1CC(=O)[N-]c1ccc2ccccc2c1 (protonated)
Cc1c([O-])c(=O)nc(SCc2ccccc2F)n1CC(=O)[N-]c1ccc2ccccc2c1 (3D coordinates assigned)
Cc1c([O-])c(=O)nc(SCc2ccccc2F)n1CC(=O)[N-]c1ccc2ccccc2c1 (optimized conformer: 61.60016402603882 kcal/mol)

>  <smiles>  (30) 
Cc1c(O)c(=O)nc(SCc2ccccc2F)n1CC(=O)Nc1ccc2ccccc2c1

>  <score_type>  (30) 
oracle

>  <origin>  (30) 
adg

>  <m_score__min__energy>  (30) 
-12.640000000000001

>  <m_primary>  (30) 
energy

$$$$
30:0
     RDKit          3D

 67 71  0  0  0  0  0  0  0  0999 V2000
   58.6760   34.4900   44.7200 C   0  0  0  0  0  0  0  0  0  0  0  0
   59.4490   34.3850   46.0020 C   0  0  0  0  0  0  0  0  0  0  0  0
   58.8270   34.6880   47.2210 C   0  0  0  0  0  0  0  0  0  0  0  0
   59.5240   34.5470   48.4220 C   0  0  0  0  0  0  0  0  0  0  0  0
   60.8430   34.0940   48.4180 C   0  0  0  0  0  0  0  0  0  0  0  0
   61.4880   33.7920   47.2040 C   0  0  0  0  0  0  0  0  0  0  0  0
   62.8810   33.2830   47.1800 C   0  0  0  0  0  0  0  0  0  0  0  0
   63.7570   33.9130   46.5290 O   0  0  0  0  0  0  0  0  0  0  0  0
   63.2680   32.0670   47.8340 N   0  0  0  0  0  0  0  0  0  0  0  0
   62.4430   31.2520   48.6820 C   0  0  0  0  0  0  0  0  0  0  0  0
   61.4980   30.4210   48.0690 C   0  0  0  0  0  0  0  0  0  0  0  0
   60.6690   29.5880   48.8370 C   0  0  0  0  0  0  0  0  0  0  0  0
   59.6790   28.7480   48.2300 N   0  0  0  0  0  0  0  0  0  0  0  0
   59.8550   27.3860   47.8170 C   0  0  0  0  0  0  0  0  0  0  0  0
   60.3740   26.5720   48.6260 O   0  0  0  0  0  0  0  0  0  0  0  0
   59.5200   26.9210   46.4260 C   0  0  0  0  0  0  0  0  0  0  0  0
   58.2740   27.6040   45.9400 C   0  0  0  0  0  0  0  0  0  0  0  0
   56.9920   27.0620   45.7770 C   0  0  0  0  0  0  0  0  0  0  0  0
   56.5740   25.6790   46.0970 C   0  0  0  0  0  0  0  0  0  0  0  0
   55.9200   25.4570   47.1510 O   0  0  0  0  0  0  0  0  0  0  0  0
   56.9170   24.5770   45.2350 N   0  0  0  0  0  0  0  0  0  0  0  0
   57.0290   24.7620   43.7830 C   0  0  0  0  0  0  0  0  0  0  0  0
   56.5800   23.4900   43.0480 C   0  0  0  0  0  0  0  0  0  0  0  0
   57.2670   22.3030   43.5730 N   0  0  0  0  0  0  0  0  0  0  0  0
   56.9770   22.1260   45.0010 C   0  0  0  0  0  0  0  0  0  0  0  0
   57.4410   23.3380   45.8190 C   0  0  0  0  0  0  0  0  0  0  0  0
   56.1560   27.9820   45.2360 N   0  0  0  0  0  0  0  0  0  0  0  0
   56.8880   29.0940   45.0640 C   0  0  0  0  0  0  0  0  0  0  0  0
   56.4610   30.3090   44.5250 C   0  0  0  0  0  0  0  0  0  0  0  0
   57.4000   31.3510   44.4250 C   0  0  0  0  0  0  0  0  0  0  0  0
   58.7310   31.1560   44.8590 C   0  0  0  0  0  0  0  0  0  0  0  0
   59.1350   29.9190   45.3920 C   0  0  0  0  0  0  0  0  0  0  0  0
   58.1810   28.9040   45.4800 C   0  0  0  0  0  0  0  0  0  0  0  0
   60.7560   29.6300   50.2300 C   0  0  0  0  0  0  0  0  0  0  0  0
   61.7140   30.4330   50.8520 C   0  0  0  0  0  0  0  0  0  0  0  0
   62.5910   31.2230   50.0900 C   0  0  0  0  0  0  0  0  0  0  0  0
   63.6640   32.0000   50.8040 C   0  0  0  0  0  0  0  0  0  0  0  0
   60.7730   33.9260   46.0000 C   0  0  0  0  0  0  0  0  0  0  0  0
   57.6092   34.6349   44.9459 H   0  0  0  0  0  0  0  0  0  0  0  0
   59.0470   35.3460   44.1372 H   0  0  0  0  0  0  0  0  0  0  0  0
   58.8052   33.5661   44.1372 H   0  0  0  0  0  0  0  0  0  0  0  0
   57.7844   35.0386   47.2312 H   0  0  0  0  0  0  0  0  0  0  0  0
   59.0317   34.7938   49.3742 H   0  0  0  0  0  0  0  0  0  0  0  0
   61.3823   33.9720   49.3689 H   0  0  0  0  0  0  0  0  0  0  0  0
   61.4039   30.4206   46.9730 H   0  0  0  0  0  0  0  0  0  0  0  0
   60.3542   27.1624   45.7508 H   0  0  0  0  0  0  0  0  0  0  0  0
   59.3527   25.8339   46.4402 H   0  0  0  0  0  0  0  0  0  0  0  0
   56.3918   25.6038   43.4741 H   0  0  0  0  0  0  0  0  0  0  0  0
   58.0785   24.9711   43.5285 H   0  0  0  0  0  0  0  0  0  0  0  0
   55.4951   23.3639   43.1789 H   0  0  0  0  0  0  0  0  0  0  0  0
   56.8323   23.5958   41.9826 H   0  0  0  0  0  0  0  0  0  0  0  0
   58.3000   22.4280   43.4520 H   0  0  0  0  0  0  0  0  0  0  0  0
   55.8924   21.9986   45.1332 H   0  0  0  0  0  0  0  0  0  0  0  0
   57.5198   21.2383   45.3578 H   0  0  0  0  0  0  0  0  0  0  0  0
   57.0750   23.2404   46.8517 H   0  0  0  0  0  0  0  0  0  0  0  0
   58.5403   23.3756   45.8108 H   0  0  0  0  0  0  0  0  0  0  0  0
   55.1590   27.8470   44.9610 H   0  0  0  0  0  0  0  0  0  0  0  0
   55.4227   30.4469   44.1891 H   0  0  0  0  0  0  0  0  0  0  0  0
   57.0973   32.3224   44.0070 H   0  0  0  0  0  0  0  0  0  0  0  0
   59.4568   31.9787   44.7792 H   0  0  0  0  0  0  0  0  0  0  0  0
   60.1695   29.7565   45.7287 H   0  0  0  0  0  0  0  0  0  0  0  0
   60.0667   29.0278   50.8401 H   0  0  0  0  0  0  0  0  0  0  0  0
   61.7828   30.4472   51.9498 H   0  0  0  0  0  0  0  0  0  0  0  0
   63.5269   31.9007   51.8909 H   0  0  0  0  0  0  0  0  0  0  0  0
   64.6515   31.6062   50.5215 H   0  0  0  0  0  0  0  0  0  0  0  0
   63.5979   33.0610   50.5215 H   0  0  0  0  0  0  0  0  0  0  0  0
   61.2582   33.6678   45.0471 H   0  0  0  0  0  0  0  0  0  0  0  0
  1  2  1  0
  2  3  2  0
  3  4  1  0
  4  5  2  0
  5  6  1  0
  6  7  1  0
  7  8  2  0
  7  9  1  0
  9 10  1  0
 10 11  2  0
 11 12  1  0
 12 13  1  0
 13 14  1  0
 14 15  2  0
 14 16  1  0
 16 17  1  0
 17 18  2  0
 18 19  1  0
 19 20  2  0
 19 21  1  0
 21 22  1  0
 22 23  1  0
 23 24  1  0
 24 25  1  0
 25 26  1  0
 18 27  1  0
 27 28  1  0
 28 29  2  0
 29 30  1  0
 30 31  2  0
 31 32  1  0
 32 33  2  0
 12 34  2  0
 34 35  1  0
 35 36  2  0
 36 37  1  0
  6 38  2  0
 38  2  1  0
 36 10  1  0
 33 17  1  0
 26 21  1  0
 33 28  1  0
  1 39  1  0
  1 40  1  0
  1 41  1  0
  3 42  1  0
  4 43  1  0
  5 44  1  0
 11 45  1  0
 16 46  1  0
 16 47  1  0
 22 48  1  0
 22 49  1  0
 23 50  1  0
 23 51  1  0
 24 52  1  0
 25 53  1  0
 25 54  1  0
 26 55  1  0
 26 56  1  0
 27 57  1  0
 29 58  1  0
 30 59  1  0
 31 60  1  0
 32 61  1  0
 34 62  1  0
 35 63  1  0
 37 64  1  0
 37 65  1  0
 37 66  1  0
 38 67  1  0
M  CHG  2   9  -1  13  -1
M  END
>  <UniqueID>  (31) 
29

>  <SMILES>  (31) 
Cc1cccc(C(=O)[N-]c2cc([N-]C(=O)Cc3c(C(=O)N4CCNCC4)[nH]c4ccccc34)ccc2C)c1

>  <Energy>  (31) 
120.51556980291475

>  <Genealogy>  (31) 
Cc1cccc(C(=O)[N-]c2cc([N-]C(=O)Cc3c(C(=O)N4CCNCC4)[nH]c4ccccc34)ccc2C)c1 (protonated)
Cc1cccc(C(=O)[N-]c2cc([N-]C(=O)Cc3c(C(=O)N4CCNCC4)[nH]c4ccccc34)ccc2C)c1 (3D coordinates assigned)
Cc1cccc(C(=O)[N-]c2cc([N-]C(=O)Cc3c(C(=O)N4CCNCC4)[nH]c4ccccc34)ccc2C)c1 (nonaromatic ring conformer: 120.51556980291475 kcal/mol)

>  <smiles>  (31) 
Cc1cccc(C(=O)Nc2cc(NC(=O)Cc3c(C(=O)N4CCNCC4)[nH]c4ccccc34)ccc2C)c1

>  <score_type>  (31) 
oracle

>  <origin>  (31) 
adg

>  <m_score__min__energy>  (31) 
-13.85

>  <m_primary>  (31) 
energy

$$$$
31:0
     RDKit          3D

 41 44  0  0  0  0  0  0  0  0999 V2000
   53.1850   24.9337   45.9449 H   0  0  0  0  0  0  0  0  0  0  0  0
   54.2310   24.8540   45.6140 C   0  0  0  0  0  0  0  0  0  0  0  0
   55.1700   25.7000   46.1160 N   0  0  0  0  0  0  0  0  0  0  0  0
   56.4770   25.6430   45.7280 C   0  0  0  0  0  0  0  0  0  0  0  0
   57.3690   26.4450   46.2340 N   0  0  0  0  0  0  0  0  0  0  0  0
   57.4710   27.8640   46.0310 C   0  0  0  0  0  0  0  0  0  0  0  0
   56.7560   28.5260   45.0180 C   0  0  0  0  0  0  0  0  0  0  0  0
   56.0735   27.9577   44.3690 H   0  0  0  0  0  0  0  0  0  0  0  0
   56.9080   29.9040   44.8310 C   0  0  0  0  0  0  0  0  0  0  0  0
   56.3357   30.4140   44.0421 H   0  0  0  0  0  0  0  0  0  0  0  0
   57.7860   30.6420   45.6430 C   0  0  0  0  0  0  0  0  0  0  0  0
   57.9370   32.0620   45.4490 N   0  0  0  0  0  0  0  0  0  0  0  0
   57.0420   32.9240   44.8960 C   0  0  0  0  0  0  0  0  0  0  0  0
   56.0642   32.6082   44.5035 H   0  0  0  0  0  0  0  0  0  0  0  0
   57.4730   34.2160   44.8750 N   0  0  0  0  0  0  0  0  0  0  0  0
   58.6870   34.1310   45.4450 C   0  0  0  0  0  0  0  0  0  0  0  0
   59.5920   35.1410   45.7280 C   0  0  0  0  0  0  0  0  0  0  0  0
   59.3839   36.1858   45.4540 H   0  0  0  0  0  0  0  0  0  0  0  0
   60.7510   34.7930   46.3590 N   0  0  0  0  0  0  0  0  0  0  0  0
   61.0200   33.4910   46.7120 C   0  0  0  0  0  0  0  0  0  0  0  0
   62.2520   33.1600   47.3810 N   0  0  0  0  0  0  0  0  0  0  0  0
   62.2130   32.4940   48.6870 C   0  0  0  0  0  0  0  0  0  0  0  0
   62.2572   33.2495   49.4853 H   0  0  0  0  0  0  0  0  0  0  0  0
   61.2796   31.9190   48.7776 H   0  0  0  0  0  0  0  0  0  0  0  0
   63.0729   31.8140   48.7776 H   0  0  0  0  0  0  0  0  0  0  0  0
   63.5330   33.4910   46.7520 C   0  0  0  0  0  0  0  0  0  0  0  0
   64.2847   33.6852   47.5312 H   0  0  0  0  0  0  0  0  0  0  0  0
   63.8628   32.6486   46.1263 H   0  0  0  0  0  0  0  0  0  0  0  0
   63.4134   34.3877   46.1263 H   0  0  0  0  0  0  0  0  0  0  0  0
   60.1090   32.5080   46.4270 N   0  0  0  0  0  0  0  0  0  0  0  0
   58.9660   32.8530   45.7860 C   0  0  0  0  0  0  0  0  0  0  0  0
   58.5290   29.9680   46.6280 C   0  0  0  0  0  0  0  0  0  0  0  0
   59.2353   30.5287   47.2579 H   0  0  0  0  0  0  0  0  0  0  0  0
   58.3770   28.5910   46.8130 C   0  0  0  0  0  0  0  0  0  0  0  0
   58.9738   28.0742   47.5790 H   0  0  0  0  0  0  0  0  0  0  0  0
   56.8750   24.6750   44.7980 C   0  0  0  0  0  0  0  0  0  0  0  0
   57.9272   24.6084   44.4842 H   0  0  0  0  0  0  0  0  0  0  0  0
   55.9270   23.7940   44.2710 C   0  0  0  0  0  0  0  0  0  0  0  0
   56.2295   23.0320   43.5376 H   0  0  0  0  0  0  0  0  0  0  0  0
   54.5960   23.8840   44.6780 C   0  0  0  0  0  0  0  0  0  0  0  0
   53.8414   23.1979   44.2659 H   0  0  0  0  0  0  0  0  0  0  0  0
  1  2  1  0
  2  3  1  0
  3  4  1  0
  4  5  2  0
  5  6  1  0
  6  7  2  0
  7  8  1  0
  7  9  1  0
  9 10  1  0
  9 11  2  0
 11 12  1  0
 12 13  1  0
 13 14  1  0
 13 15  2  0
 15 16  1  0
 16 17  2  0
 17 18  1  0
 17 19  1  0
 19 20  2  0
 20 21  1  0
 21 22  1  0
 22 23  1  0
 22 24  1  0
 22 25  1  0
 21 26  1  0
 26 27  1  0
 26 28  1  0
 26 29  1  0
 20 30  1  0
 30 31  2  0
 11 32  1  0
 32 33  1  0
 32 34  2  0
 34 35  1  0
  4 36  1  0
 36 37  1  0
 36 38  2  0
 38 39  1  0
 38 40  1  0
 40 41  1  0
 40  2  2  0
 34  6  1  0
 31 12  1  0
 31 16  1  0
M  CHG  1   3  -1
M  END
>  <UniqueID>  (32) 
30

>  <SMILES>  (32) 
CN(C)c1ncc2ncn(-c3ccc(/N=c4/cccc[n-]4)cc3)c2n1

>  <Energy>  (32) 
94.79829367616566

>  <Genealogy>  (32) 
CN(C)c1ncc2ncn(-c3ccc(N=c4cccc[n-]4)cc3)c2n1 (protonated)
CN(C)c1ncc2ncn(-c3ccc(/N=c4/cccc[n-]4)cc3)c2n1 (cis-trans isomerization)
CN(C)c1ncc2ncn(-c3ccc(/N=c4/cccc[n-]4)cc3)c2n1 (3D coordinates assigned)
CN(C)c1ncc2ncn(-c3ccc(/N=c4/cccc[n-]4)cc3)c2n1 (optimized conformer: 94.79829367616566 kcal/mol)

>  <smiles>  (32) 
CN(C)c1ncc2ncn(-c3ccc(N=c4cccc[nH]4)cc3)c2n1

>  <score_type>  (32) 
oracle

>  <origin>  (32) 
adg

>  <m_score__min__energy>  (32) 
-9.0700000000000003

>  <m_primary>  (32) 
energy

$$$$
32:0
     RDKit          3D

 44 46  0  0  0  0  0  0  0  0999 V2000
   55.1540   26.7060   46.0110 N   0  0  0  0  0  0  0  0  0  0  0  0
   56.2470   25.8940   46.4330 C   0  0  0  0  0  0  0  0  0  0  0  0
   56.0280   24.7420   46.8940 O   0  0  0  0  0  0  0  0  0  0  0  0
   57.6240   26.3950   46.3310 C   0  0  0  0  0  0  0  0  0  0  0  0
   58.0000   27.7180   46.1380 C   0  0  0  0  0  0  0  0  0  0  0  0
   59.3910   27.8880   46.0830 C   0  0  0  0  0  0  0  0  0  0  0  0
   60.1520   29.4560   45.8720 S   0  0  0  0  0  0  0  0  0  0  0  0
   59.2060   30.3790   45.1560 O   0  0  0  0  0  0  0  0  0  0  0  0
   61.3990   29.3020   45.0450 O   0  0  0  0  0  0  0  0  0  0  0  0
   60.5640   30.1250   47.4710 C   0  0  0  0  0  0  0  0  0  0  0  0
   59.3210   30.5360   48.1900 C   0  0  0  0  0  0  0  0  0  0  0  0
   58.5970   29.6610   48.7370 O   0  0  0  0  0  0  0  0  0  0  0  0
   58.9790   31.9250   48.2600 N   0  0  0  0  0  0  0  0  0  0  0  0
   58.8110   32.8270   47.1560 C   0  0  0  0  0  0  0  0  0  0  0  0
   57.6200   32.8670   46.4080 C   0  0  0  0  0  0  0  0  0  0  0  0
   57.4900   33.7530   45.3350 C   0  0  0  0  0  0  0  0  0  0  0  0
   58.5470   34.5970   44.9900 C   0  0  0  0  0  0  0  0  0  0  0  0
   59.7430   34.5470   45.7090 C   0  0  0  0  0  0  0  0  0  0  0  0
   59.8870   33.6560   46.7800 C   0  0  0  0  0  0  0  0  0  0  0  0
   61.1270   33.6200   47.4980 N   0  0  0  0  0  0  0  0  0  0  0  0
   62.3730   33.4220   46.7580 C   0  0  0  0  0  0  0  0  0  0  0  0
   63.4350   32.8270   47.6880 C   0  0  0  0  0  0  0  0  0  0  0  0
   63.5520   33.5910   48.8740 O   0  0  0  0  0  0  0  0  0  0  0  0
   62.3480   33.5150   49.6150 C   0  0  0  0  0  0  0  0  0  0  0  0
   61.1980   34.1750   48.8500 C   0  0  0  0  0  0  0  0  0  0  0  0
   60.1120   26.7100   46.2370 C   0  0  0  0  0  0  0  0  0  0  0  0
   59.0140   25.4520   46.4360 S   0  0  0  0  0  0  0  0  0  0  0  0
   54.4800   27.1010   46.7050 H   0  0  0  0  0  0  0  0  0  0  0  0
   57.2822   28.5456   46.0387 H   0  0  0  0  0  0  0  0  0  0  0  0
   61.0898   29.3600   48.0612 H   0  0  0  0  0  0  0  0  0  0  0  0
   61.2110   31.0046   47.3379 H   0  0  0  0  0  0  0  0  0  0  0  0
   56.7871   32.1976   46.6690 H   0  0  0  0  0  0  0  0  0  0  0  0
   56.5523   33.7854   44.7608 H   0  0  0  0  0  0  0  0  0  0  0  0
   58.4378   35.3012   44.1521 H   0  0  0  0  0  0  0  0  0  0  0  0
   60.5759   35.2104   45.4330 H   0  0  0  0  0  0  0  0  0  0  0  0
   62.1947   32.7338   45.9186 H   0  0  0  0  0  0  0  0  0  0  0  0
   62.7263   34.3898   46.3726 H   0  0  0  0  0  0  0  0  0  0  0  0
   63.1491   31.7975   47.9494 H   0  0  0  0  0  0  0  0  0  0  0  0
   64.4037   32.8357   47.1669 H   0  0  0  0  0  0  0  0  0  0  0  0
   62.1016   32.4583   49.7959 H   0  0  0  0  0  0  0  0  0  0  0  0
   62.4867   34.0439   50.5695 H   0  0  0  0  0  0  0  0  0  0  0  0
   60.2507   33.9827   49.3751 H   0  0  0  0  0  0  0  0  0  0  0  0
   61.3724   35.2595   48.7915 H   0  0  0  0  0  0  0  0  0  0  0  0
   61.2080   26.6169   46.2300 H   0  0  0  0  0  0  0  0  0  0  0  0
  1  2  1  0
  2  3  2  0
  2  4  1  0
  4  5  2  0
  5  6  1  0
  6  7  1  0
  7  8  2  0
  7  9  2  0
  7 10  1  0
 10 11  1  0
 11 12  2  0
 11 13  1  0
 13 14  1  0
 14 15  2  0
 15 16  1  0
 16 17  2  0
 17 18  1  0
 18 19  2  0
 19 20  1  0
 20 21  1  0
 21 22  1  0
 22 23  1  0
 23 24  1  0
 24 25  1  0
  6 26  2  0
 26 27  1  0
 27  4  1  0
 19 14  1  0
 25 20  1  0
  1 28  1  0
  5 29  1  0
 10 30  1  0
 10 31  1  0
 15 32  1  0
 16 33  1  0
 17 34  1  0
 18 35  1  0
 21 36  1  0
 21 37  1  0
 22 38  1  0
 22 39  1  0
 24 40  1  0
 24 41  1  0
 25 42  1  0
 25 43  1  0
 26 44  1  0
M  CHG  2   1  -1  13  -1
M  END
>  <UniqueID>  (33) 
31

>  <SMILES>  (33) 
[NH-]C(=O)c1cc(S(=O)(=O)CC(=O)[N-]c2ccccc2N2CCOCC2)cs1

>  <Energy>  (33) 
75.33841393862704

>  <Genealogy>  (33) 
[NH-]C(=O)c1cc(S(=O)(=O)CC(=O)[N-]c2ccccc2N2CCOCC2)cs1 (protonated)
[NH-]C(=O)c1cc(S(=O)(=O)CC(=O)[N-]c2ccccc2N2CCOCC2)cs1 (3D coordinates assigned)
[NH-]C(=O)c1cc(S(=O)(=O)CC(=O)[N-]c2ccccc2N2CCOCC2)cs1 (nonaromatic ring conformer: 75.33841393862704 kcal/mol)

>  <smiles>  (33) 
NC(=O)c1cc(S(=O)(=O)CC(=O)Nc2ccccc2N2CCOCC2)cs1

>  <score_type>  (33) 
oracle

>  <origin>  (33) 
adg

>  <m_score__min__energy>  (33) 
-13.08

>  <m_primary>  (33) 
energy

$$$$
33:0
     RDKit          3D

 35 37  0  0  0  0  0  0  0  0999 V2000
   55.4920   29.4020   42.8970 O   0  0  0  0  0  0  0  0  0  0  0  0
   56.0510   29.7470   43.9730 C   0  0  0  0  0  0  0  0  0  0  0  0
   55.8800   28.9570   45.1590 N   0  0  0  0  0  0  0  0  0  0  0  0
   56.7400   27.9010   45.6140 C   0  0  0  0  0  0  0  0  0  0  0  0
   58.1430   28.0310   45.6090 C   0  0  0  0  0  0  0  0  0  0  0  0
   58.9510   26.9720   46.0380 C   0  0  0  0  0  0  0  0  0  0  0  0
   60.6970   27.1410   46.0310 Cl  0  0  0  0  0  0  0  0  0  0  0  0
   58.3680   25.7730   46.4600 C   0  0  0  0  0  0  0  0  0  0  0  0
   56.9780   25.6280   46.4430 C   0  0  0  0  0  0  0  0  0  0  0  0
   56.1670   26.6850   46.0160 C   0  0  0  0  0  0  0  0  0  0  0  0
   54.7850   26.5240   45.9990 O   0  0  0  0  0  0  0  0  0  0  0  0
   56.9290   30.9410   43.9980 C   0  0  0  0  0  0  0  0  0  0  0  0
   57.3230   31.5660   42.8010 C   0  0  0  0  0  0  0  0  0  0  0  0
   58.1440   32.6950   42.8280 C   0  0  0  0  0  0  0  0  0  0  0  0
   58.5890   33.2100   44.0460 C   0  0  0  0  0  0  0  0  0  0  0  0
   58.2280   32.5860   45.2510 C   0  0  0  0  0  0  0  0  0  0  0  0
   58.6520   33.1020   46.5200 N   0  0  0  0  0  0  0  0  0  0  0  0
   59.7510   33.9960   46.7430 C   0  0  0  0  0  0  0  0  0  0  0  0
   59.5180   35.2270   46.8620 O   0  0  0  0  0  0  0  0  0  0  0  0
   61.1350   33.5130   46.8970 C   0  0  0  0  0  0  0  0  0  0  0  0
   61.5430   32.3650   47.5500 C   0  0  0  0  0  0  0  0  0  0  0  0
   62.9170   32.3470   47.4500 C   0  0  0  0  0  0  0  0  0  0  0  0
   63.2650   33.4860   46.7500 C   0  0  0  0  0  0  0  0  0  0  0  0
   62.1830   34.1610   46.4400 O   0  0  0  0  0  0  0  0  0  0  0  0
   57.3850   31.4680   45.2220 C   0  0  0  0  0  0  0  0  0  0  0  0
   58.6050   28.9687   45.2665 H   0  0  0  0  0  0  0  0  0  0  0  0
   59.0033   24.9441   46.8053 H   0  0  0  0  0  0  0  0  0  0  0  0
   56.5208   24.6811   46.7660 H   0  0  0  0  0  0  0  0  0  0  0  0
   56.9817   31.1622   41.8364 H   0  0  0  0  0  0  0  0  0  0  0  0
   58.4409   33.1799   41.8863 H   0  0  0  0  0  0  0  0  0  0  0  0
   59.2246   34.1076   44.0623 H   0  0  0  0  0  0  0  0  0  0  0  0
   60.9034   31.6204   48.0464 H   0  0  0  0  0  0  0  0  0  0  0  0
   63.5989   31.5807   47.8472 H   0  0  0  0  0  0  0  0  0  0  0  0
   64.2925   33.7821   46.4918 H   0  0  0  0  0  0  0  0  0  0  0  0
   57.0754   30.9960   46.1661 H   0  0  0  0  0  0  0  0  0  0  0  0
  1  2  2  0
  2  3  1  0
  3  4  1  0
  4  5  2  0
  5  6  1  0
  6  7  1  0
  6  8  2  0
  8  9  1  0
  9 10  2  0
 10 11  1  0
  2 12  1  0
 12 13  2  0
 13 14  1  0
 14 15  2  0
 15 16  1  0
 16 17  1  0
 17 18  1  0
 18 19  2  0
 18 20  1  0
 20 21  2  0
 21 22  1  0
 22 23  2  0
 23 24  1  0
 16 25  2  0
 10  4  1  0
 25 12  1  0
 24 20  1  0
  5 26  1  0
  8 27  1  0
  9 28  1  0
 13 29  1  0
 14 30  1  0
 15 31  1  0
 21 32  1  0
 22 33  1  0
 23 34  1  0
 25 35  1  0
M  CHG  3   3  -1  11  -1  17  -1
M  END
>  <UniqueID>  (34) 
32

>  <SMILES>  (34) 
O=C([N-]c1cc(Cl)ccc1[O-])c1cccc([N-]C(=O)c2ccco2)c1

>  <Energy>  (34) 
73.4773962182582

>  <Genealogy>  (34) 
O=C([N-]c1cc(Cl)ccc1[O-])c1cccc([N-]C(=O)c2ccco2)c1 (protonated)
O=C([N-]c1cc(Cl)ccc1[O-])c1cccc([N-]C(=O)c2ccco2)c1 (3D coordinates assigned)
O=C([N-]c1cc(Cl)ccc1[O-])c1cccc([N-]C(=O)c2ccco2)c1 (optimized conformer: 73.4773962182582 kcal/mol)

>  <smiles>  (34) 
O=C(Nc1cc(Cl)ccc1O)c1cccc(NC(=O)c2ccco2)c1

>  <score_type>  (34) 
oracle

>  <origin>  (34) 
adg

>  <m_score__min__energy>  (34) 
-15.109999999999999

>  <m_primary>  (34) 
energy

$$$$
34:0
     RDKit          3D

 32 33  0  0  0  0  0  0  0  0999 V2000
   63.6520   33.0840   47.4050 C   0  0  0  0  0  0  0  0  0  0  0  0
   62.6480   33.9610   47.9050 O   0  0  0  0  0  0  0  0  0  0  0  0
   61.2830   33.6460   47.9740 C   0  0  0  0  0  0  0  0  0  0  0  0
   60.6710   33.1950   49.1590 C   0  0  0  0  0  0  0  0  0  0  0  0
   59.3060   32.8950   49.1750 C   0  0  0  0  0  0  0  0  0  0  0  0
   58.5420   33.0370   48.0140 C   0  0  0  0  0  0  0  0  0  0  0  0
   59.1420   33.4790   46.8280 C   0  0  0  0  0  0  0  0  0  0  0  0
   58.1900   33.6470   45.3570 S   0  0  0  0  0  0  0  0  0  0  0  0
   58.6710   34.8470   44.5940 O   0  0  0  0  0  0  0  0  0  0  0  0
   56.7360   33.8260   45.6970 O   0  0  0  0  0  0  0  0  0  0  0  0
   58.3680   32.2510   44.3820 O   0  0  0  0  0  0  0  0  0  0  0  0
   57.8690   30.9800   44.7030 C   0  0  0  0  0  0  0  0  0  0  0  0
   58.7320   30.0700   45.3170 C   0  0  0  0  0  0  0  0  0  0  0  0
   58.2890   28.7920   45.6660 C   0  0  0  0  0  0  0  0  0  0  0  0
   56.9650   28.3950   45.4050 C   0  0  0  0  0  0  0  0  0  0  0  0
   56.5250   27.0310   45.7910 C   0  0  0  0  0  0  0  0  0  0  0  0
   57.3550   26.0950   45.9340 O   0  0  0  0  0  0  0  0  0  0  0  0
   55.1780   26.7640   46.0050 O   0  0  0  0  0  0  0  0  0  0  0  0
   56.0910   29.3140   44.7830 C   0  0  0  0  0  0  0  0  0  0  0  0
   54.7720   28.9760   44.5020 O   0  0  0  0  0  0  0  0  0  0  0  0
   56.5440   30.5920   44.4350 C   0  0  0  0  0  0  0  0  0  0  0  0
   60.5090   33.7870   46.8160 C   0  0  0  0  0  0  0  0  0  0  0  0
   64.1849   32.6186   48.2473 H   0  0  0  0  0  0  0  0  0  0  0  0
   63.1826   32.3015   46.7907 H   0  0  0  0  0  0  0  0  0  0  0  0
   64.3643   33.6544   46.7907 H   0  0  0  0  0  0  0  0  0  0  0  0
   61.2689   33.0784   50.0749 H   0  0  0  0  0  0  0  0  0  0  0  0
   58.8320   32.5461   50.1043 H   0  0  0  0  0  0  0  0  0  0  0  0
   57.4677   32.8013   48.0313 H   0  0  0  0  0  0  0  0  0  0  0  0
   59.7712   30.3625   45.5280 H   0  0  0  0  0  0  0  0  0  0  0  0
   58.9827   28.0888   46.1500 H   0  0  0  0  0  0  0  0  0  0  0  0
   55.8572   31.2994   43.9473 H   0  0  0  0  0  0  0  0  0  0  0  0
   60.9787   34.1432   45.8873 H   0  0  0  0  0  0  0  0  0  0  0  0
  1  2  1  0
  2  3  1  0
  3  4  2  0
  4  5  1  0
  5  6  2  0
  6  7  1  0
  7  8  1  0
  8  9  2  0
  8 10  2  0
  8 11  1  0
 11 12  1  0
 12 13  2  0
 13 14  1  0
 14 15  2  0
 15 16  1  0
 16 17  2  0
 16 18  1  0
 15 19  1  0
 19 20  1  0
 19 21  2  0
  7 22  2  0
 22  3  1  0
 21 12  1  0
  1 23  1  0
  1 24  1  0
  1 25  1  0
  4 26  1  0
  5 27  1  0
  6 28  1  0
 13 29  1  0
 14 30  1  0
 21 31  1  0
 22 32  1  0
M  CHG  2  18  -1  20  -1
M  END
>  <UniqueID>  (35) 
33

>  <SMILES>  (35) 
COc1cccc(S(=O)(=O)Oc2ccc(C(=O)[O-])c([O-])c2)c1

>  <Energy>  (35) 
34.08442073432216

>  <Genealogy>  (35) 
COc1cccc(S(=O)(=O)Oc2ccc(C(=O)[O-])c([O-])c2)c1 (protonated)
COc1cccc(S(=O)(=O)Oc2ccc(C(=O)[O-])c([O-])c2)c1 (3D coordinates assigned)
COc1cccc(S(=O)(=O)Oc2ccc(C(=O)[O-])c([O-])c2)c1 (optimized conformer: 34.08442073432216 kcal/mol)

>  <smiles>  (35) 
COc1cccc(S(=O)(=O)Oc2ccc(C(=O)O)c(O)c2)c1

>  <score_type>  (35) 
oracle

>  <origin>  (35) 
adg

>  <m_score__min__energy>  (35) 
-13.66

>  <m_primary>  (35) 
energy

$$$$
35:0
     RDKit          3D

 50 51  0  0  0  0  0  0  0  0999 V2000
   60.4790   27.1800   47.8380 O   0  0  0  0  0  0  0  0  0  0  0  0
   59.4330   27.6480   47.3070 C   0  0  0  0  0  0  0  0  0  0  0  0
   59.2320   29.0310   47.2590 O   0  0  0  0  0  0  0  0  0  0  0  0
   59.3440   29.8700   48.4050 C   0  0  0  0  0  0  0  0  0  0  0  0
   58.8500   29.1260   49.6510 C   0  0  0  0  0  0  0  0  0  0  0  0
   59.3710   29.7440   50.9580 C   0  0  0  0  0  0  0  0  0  0  0  0
   58.5760   30.9920   51.3850 C   0  0  0  0  0  0  0  0  0  0  0  0
   57.2290   30.6070   52.0130 C   0  0  0  0  0  0  0  0  0  0  0  0
   57.3870   29.4890   53.0660 C   0  0  0  0  0  0  0  0  0  0  0  0
   56.2150   28.5110   53.0440 C   0  0  0  0  0  0  0  0  0  0  0  0
   55.1470   29.0760   52.2910 O   0  0  0  0  0  0  0  0  0  0  0  0
   54.1370   29.8580   52.8600 C   0  0  0  0  0  0  0  0  0  0  0  0
   54.0920   30.0190   54.1110 O   0  0  0  0  0  0  0  0  0  0  0  0
   53.1220   30.4870   51.9880 C   0  0  0  0  0  0  0  0  0  0  0  0
   52.4290   31.6310   52.4210 C   0  0  0  0  0  0  0  0  0  0  0  0
   51.4870   32.2450   51.5920 C   0  0  0  0  0  0  0  0  0  0  0  0
   50.8220   33.3840   52.0300 O   0  0  0  0  0  0  0  0  0  0  0  0
   51.2190   31.7190   50.3230 C   0  0  0  0  0  0  0  0  0  0  0  0
   50.2820   32.3390   49.5020 O   0  0  0  0  0  0  0  0  0  0  0  0
   51.8960   30.5710   49.8830 C   0  0  0  0  0  0  0  0  0  0  0  0
   51.6450   30.0240   48.6250 O   0  0  0  0  0  0  0  0  0  0  0  0
   52.8420   29.9610   50.7150 C   0  0  0  0  0  0  0  0  0  0  0  0
   58.4150   26.7380   46.7420 C   0  0  0  0  0  0  0  0  0  0  0  0
   58.7700   25.4450   46.3110 C   0  0  0  0  0  0  0  0  0  0  0  0
   57.8020   24.5850   45.7850 C   0  0  0  0  0  0  0  0  0  0  0  0
   56.4720   25.0020   45.6840 C   0  0  0  0  0  0  0  0  0  0  0  0
   55.5140   24.1400   45.1620 O   0  0  0  0  0  0  0  0  0  0  0  0
   56.1060   26.2830   46.1100 C   0  0  0  0  0  0  0  0  0  0  0  0
   54.7840   26.6980   46.0120 O   0  0  0  0  0  0  0  0  0  0  0  0
   57.0730   27.1480   46.6360 C   0  0  0  0  0  0  0  0  0  0  0  0
   60.3968   30.1561   48.5453 H   0  0  0  0  0  0  0  0  0  0  0  0
   58.7293   30.7697   48.2548 H   0  0  0  0  0  0  0  0  0  0  0  0
   57.7504   29.1524   49.6634 H   0  0  0  0  0  0  0  0  0  0  0  0
   59.2324   28.0961   49.5956 H   0  0  0  0  0  0  0  0  0  0  0  0
   59.2988   28.9908   51.7564 H   0  0  0  0  0  0  0  0  0  0  0  0
   60.4115   30.0564   50.7856 H   0  0  0  0  0  0  0  0  0  0  0  0
   59.1658   31.5582   52.1210 H   0  0  0  0  0  0  0  0  0  0  0  0
   58.3806   31.6021   50.4908 H   0  0  0  0  0  0  0  0  0  0  0  0
   56.7954   31.4942   52.4977 H   0  0  0  0  0  0  0  0  0  0  0  0
   56.5727   30.2336   51.2131 H   0  0  0  0  0  0  0  0  0  0  0  0
   58.3149   28.9356   52.8595 H   0  0  0  0  0  0  0  0  0  0  0  0
   57.4167   29.9605   54.0594 H   0  0  0  0  0  0  0  0  0  0  0  0
   56.5331   27.5661   52.5792 H   0  0  0  0  0  0  0  0  0  0  0  0
   55.8783   28.3150   54.0727 H   0  0  0  0  0  0  0  0  0  0  0  0
   52.6300   32.0457   53.4198 H   0  0  0  0  0  0  0  0  0  0  0  0
   51.0420   30.4790   47.9510 H   0  0  0  0  0  0  0  0  0  0  0  0
   53.3716   29.0610   50.3691 H   0  0  0  0  0  0  0  0  0  0  0  0
   59.8149   25.1102   46.3888 H   0  0  0  0  0  0  0  0  0  0  0  0
   58.0878   23.5771   45.4496 H   0  0  0  0  0  0  0  0  0  0  0  0
   56.7817   28.1552   46.9688 H   0  0  0  0  0  0  0  0  0  0  0  0
  1  2  2  0
  2  3  1  0
  3  4  1  0
  4  5  1  0
  5  6  1  0
  6  7  1  0
  7  8  1  0
  8  9  1  0
  9 10  1  0
 10 11  1  0
 11 12  1  0
 12 13  2  0
 12 14  1  0
 14 15  2  0
 15 16  1  0
 16 17  1  0
 16 18  2  0
 18 19  1  0
 18 20  1  0
 20 21  1  0
 20 22  2  0
  2 23  1  0
 23 24  2  0
 24 25  1  0
 25 26  2  0
 26 27  1  0
 26 28  1  0
 28 29  1  0
 28 30  2  0
 22 14  1  0
 30 23  1  0
  4 31  1  0
  4 32  1  0
  5 33  1  0
  5 34  1  0
  6 35  1  0
  6 36  1  0
  7 37  1  0
  7 38  1  0
  8 39  1  0
  8 40  1  0
  9 41  1  0
  9 42  1  0
 10 43  1  0
 10 44  1  0
 15 45  1  0
 21 46  1  0
 22 47  1  0
 24 48  1  0
 25 49  1  0
 30 50  1  0
M  CHG  4  17  -1  19  -1  27  -1  29  -1
M  END
>  <UniqueID>  (36) 
34

>  <SMILES>  (36) 
O=C(OCCCCCCCOC(=O)c1cc([O-])c([O-])c(O)c1)c1ccc([O-])c([O-])c1

>  <Energy>  (36) 
37.32627686309867

>  <Genealogy>  (36) 
O=C(OCCCCCCCOC(=O)c1cc([O-])c([O-])c(O)c1)c1ccc([O-])c([O-])c1 (protonated)
O=C(OCCCCCCCOC(=O)c1cc([O-])c([O-])c(O)c1)c1ccc([O-])c([O-])c1 (3D coordinates assigned)
O=C(OCCCCCCCOC(=O)c1cc([O-])c([O-])c(O)c1)c1ccc([O-])c([O-])c1 (optimized conformer: 37.32627686309867 kcal/mol)

>  <smiles>  (36) 
O=C(OCCCCCCCOC(=O)c1cc(O)c(O)c(O)c1)c1ccc(O)c(O)c1

>  <score_type>  (36) 
oracle

>  <origin>  (36) 
adg

>  <m_score__min__energy>  (36) 
-22.460000000000001

>  <m_primary>  (36) 
energy

$$$$
36:0
     RDKit          3D

 40 41  0  0  0  0  0  0  0  0999 V2000
   59.0780   21.8740   44.1140 C   0  0  0  0  0  0  0  0  0  0  0  0
   57.6290   22.2400   44.0970 C   0  0  0  0  0  0  0  0  0  0  0  0
   56.6580   21.4400   43.6170 N   0  0  0  0  0  0  0  0  0  0  0  0
   55.5290   22.0640   43.7930 O   0  0  0  0  0  0  0  0  0  0  0  0
   55.7140   23.2340   44.3610 C   0  0  0  0  0  0  0  0  0  0  0  0
   54.6110   24.1670   44.7390 C   0  0  0  0  0  0  0  0  0  0  0  0
   57.0680   23.4090   44.5770 C   0  0  0  0  0  0  0  0  0  0  0  0
   57.7540   24.5400   45.2840 C   0  0  0  0  0  0  0  0  0  0  0  0
   57.7190   25.7410   44.4560 N   0  0  0  0  0  0  0  0  0  0  0  0
   57.7270   27.0110   44.9040 C   0  0  0  0  0  0  0  0  0  0  0  0
   57.7530   27.8370   43.8000 C   0  0  0  0  0  0  0  0  0  0  0  0
   57.8280   29.2700   43.7580 N   0  0  0  0  0  0  0  0  0  0  0  0
   56.8830   30.1550   44.3820 C   0  0  0  0  0  0  0  0  0  0  0  0
   55.8130   29.7110   44.8750 O   0  0  0  0  0  0  0  0  0  0  0  0
   57.1340   31.6350   44.3920 C   0  0  0  0  0  0  0  0  0  0  0  0
   57.7640   32.1030   45.7200 C   0  0  0  0  0  0  0  0  0  0  0  0
   59.0650   31.3380   45.9860 C   0  0  0  0  0  0  0  0  0  0  0  0
   58.0360   33.6160   45.7160 C   0  0  0  0  0  0  0  0  0  0  0  0
   57.7810   26.9990   42.7040 C   0  0  0  0  0  0  0  0  0  0  0  0
   57.7590   25.7210   43.1320 N   0  0  0  0  0  0  0  0  0  0  0  0
   59.4220   21.7871   45.1552 H   0  0  0  0  0  0  0  0  0  0  0  0
   59.2192   20.9120   43.5997 H   0  0  0  0  0  0  0  0  0  0  0  0
   59.6591   22.6536   43.5997 H   0  0  0  0  0  0  0  0  0  0  0  0
   54.5406   24.2265   45.8351 H   0  0  0  0  0  0  0  0  0  0  0  0
   54.8200   25.1666   44.3302 H   0  0  0  0  0  0  0  0  0  0  0  0
   53.6599   23.7951   44.3302 H   0  0  0  0  0  0  0  0  0  0  0  0
   57.2407   24.7391   46.2363 H   0  0  0  0  0  0  0  0  0  0  0  0
   58.8015   24.2638   45.4752 H   0  0  0  0  0  0  0  0  0  0  0  0
   57.7150   27.3306   45.9565 H   0  0  0  0  0  0  0  0  0  0  0  0
   58.6090   29.6940   43.2070 H   0  0  0  0  0  0  0  0  0  0  0  0
   57.8169   31.8854   43.5668 H   0  0  0  0  0  0  0  0  0  0  0  0
   56.1666   32.1455   44.2752 H   0  0  0  0  0  0  0  0  0  0  0  0
   57.0441   31.8912   46.5243 H   0  0  0  0  0  0  0  0  0  0  0  0
   59.2211   31.2462   47.0710 H   0  0  0  0  0  0  0  0  0  0  0  0
   58.9986   30.3351   45.5390 H   0  0  0  0  0  0  0  0  0  0  0  0
   59.9091   31.8836   45.5390 H   0  0  0  0  0  0  0  0  0  0  0  0
   58.1014   33.9795   46.7521 H   0  0  0  0  0  0  0  0  0  0  0  0
   58.9846   33.8166   45.1965 H   0  0  0  0  0  0  0  0  0  0  0  0
   57.2167   34.1345   45.1965 H   0  0  0  0  0  0  0  0  0  0  0  0
   57.8156   27.3213   41.6528 H   0  0  0  0  0  0  0  0  0  0  0  0
  1  2  1  0
  2  3  2  0
  3  4  1  0
  4  5  1  0
  5  6  1  0
  5  7  2  0
  7  8  1  0
  8  9  1  0
  9 10  1  0
 10 11  2  0
 11 12  1  0
 12 13  1  0
 13 14  2  0
 13 15  1  0
 15 16  1  0
 16 17  1  0
 16 18  1  0
 11 19  1  0
 19 20  2  0
  7  2  1  0
 20  9  1  0
  1 21  1  0
  1 22  1  0
  1 23  1  0
  6 24  1  0
  6 25  1  0
  6 26  1  0
  8 27  1  0
  8 28  1  0
 10 29  1  0
 12 30  1  0
 15 31  1  0
 15 32  1  0
 16 33  1  0
 17 34  1  0
 17 35  1  0
 17 36  1  0
 18 37  1  0
 18 38  1  0
 18 39  1  0
 19 40  1  0
M  END
>  <UniqueID>  (37) 
35

>  <SMILES>  (37) 
Cc1noc(C)c1Cn1cc(NC(=O)CC(C)C)cn1

>  <Energy>  (37) 
90.49255800877005

>  <Genealogy>  (37) 
Cc1noc(C)c1Cn1cc(NC(=O)CC(C)C)cn1 (3D coordinates assigned)
Cc1noc(C)c1Cn1cc(NC(=O)CC(C)C)cn1 (optimized conformer: 90.49255800877005 kcal/mol)

>  <smiles>  (37) 
Cc1noc(C)c1Cn1cc(NC(=O)CC(C)C)cn1

>  <score_type>  (37) 
oracle

>  <origin>  (37) 
adg

>  <m_score__min__energy>  (37) 
-7.4500000000000002

>  <m_primary>  (37) 
energy

$$$$
37:0
     RDKit          3D

 34 36  0  0  0  0  0  0  0  0999 V2000
   57.2960   31.5360   41.9800 O   0  0  0  0  0  0  0  0  0  0  0  0
   57.3920   31.5830   43.2350 C   0  0  0  0  0  0  0  0  0  0  0  0
   57.9940   32.7410   43.8340 N   0  0  0  0  0  0  0  0  0  0  0  0
   57.3910   33.6290   44.8270 C   0  0  0  0  0  0  0  0  0  0  0  0
   58.2120   33.6700   46.0910 C   0  0  0  0  0  0  0  0  0  0  0  0
   59.2330   34.6220   46.2480 C   0  0  0  0  0  0  0  0  0  0  0  0
   59.9840   34.6630   47.4260 C   0  0  0  0  0  0  0  0  0  0  0  0
   59.7310   33.7460   48.4500 C   0  0  0  0  0  0  0  0  0  0  0  0
   58.7280   32.7850   48.2970 C   0  0  0  0  0  0  0  0  0  0  0  0
   57.9730   32.7430   47.1210 C   0  0  0  0  0  0  0  0  0  0  0  0
   56.9260   30.4250   44.0180 C   0  0  0  0  0  0  0  0  0  0  0  0
   57.6680   29.3260   44.4000 C   0  0  0  0  0  0  0  0  0  0  0  0
   56.7790   28.5560   45.1280 C   0  0  0  0  0  0  0  0  0  0  0  0
   57.0480   27.2440   45.7640 C   0  0  0  0  0  0  0  0  0  0  0  0
   55.9910   26.3440   45.9900 C   0  0  0  0  0  0  0  0  0  0  0  0
   56.2320   25.1000   46.5830 C   0  0  0  0  0  0  0  0  0  0  0  0
   57.5290   24.7410   46.9550 C   0  0  0  0  0  0  0  0  0  0  0  0
   57.7670   23.5050   47.5450 O   0  0  0  0  0  0  0  0  0  0  0  0
   58.5880   25.6250   46.7340 C   0  0  0  0  0  0  0  0  0  0  0  0
   58.3530   26.8690   46.1410 C   0  0  0  0  0  0  0  0  0  0  0  0
   55.5900   29.1880   45.1880 N   0  0  0  0  0  0  0  0  0  0  0  0
   55.6820   30.3270   44.5190 N   0  0  0  0  0  0  0  0  0  0  0  0
   57.3259   34.6441   44.4082 H   0  0  0  0  0  0  0  0  0  0  0  0
   56.3896   33.2467   45.0741 H   0  0  0  0  0  0  0  0  0  0  0  0
   59.4424   35.3385   45.4401 H   0  0  0  0  0  0  0  0  0  0  0  0
   60.7750   35.4177   47.5473 H   0  0  0  0  0  0  0  0  0  0  0  0
   60.3219   33.7808   49.3772 H   0  0  0  0  0  0  0  0  0  0  0  0
   58.5325   32.0614   49.1021 H   0  0  0  0  0  0  0  0  0  0  0  0
   57.1885   31.9814   47.0009 H   0  0  0  0  0  0  0  0  0  0  0  0
   58.7236   29.1116   44.1769 H   0  0  0  0  0  0  0  0  0  0  0  0
   54.9670   26.6204   45.6983 H   0  0  0  0  0  0  0  0  0  0  0  0
   55.3984   24.4036   46.7565 H   0  0  0  0  0  0  0  0  0  0  0  0
   59.6095   25.3414   47.0274 H   0  0  0  0  0  0  0  0  0  0  0  0
   59.1918   27.5592   45.9677 H   0  0  0  0  0  0  0  0  0  0  0  0
  1  2  2  0
  2  3  1  0
  3  4  1  0
  4  5  1  0
  5  6  2  0
  6  7  1  0
  7  8  2  0
  8  9  1  0
  9 10  2  0
  2 11  1  0
 11 12  2  0
 12 13  1  0
 13 14  1  0
 14 15  2  0
 15 16  1  0
 16 17  2  0
 17 18  1  0
 17 19  1  0
 19 20  2  0
 13 21  2  0
 21 22  1  0
 10  5  1  0
 22 11  1  0
 20 14  1  0
  4 23  1  0
  4 24  1  0
  6 25  1  0
  7 26  1  0
  8 27  1  0
  9 28  1  0
 10 29  1  0
 12 30  1  0
 15 31  1  0
 16 32  1  0
 19 33  1  0
 20 34  1  0
M  CHG  3   3  -1  18  -1  22  -1
M  END
>  <UniqueID>  (38) 
36

>  <SMILES>  (38) 
O=C([N-]Cc1ccccc1)c1cc(-c2ccc([O-])cc2)n[n-]1

>  <Energy>  (38) 
68.62637088159089

>  <Genealogy>  (38) 
O=C([N-]Cc1ccccc1)c1cc(-c2ccc([O-])cc2)n[n-]1 (protonated)
O=C([N-]Cc1ccccc1)c1cc(-c2ccc([O-])cc2)n[n-]1 (3D coordinates assigned)
O=C([N-]Cc1ccccc1)c1cc(-c2ccc([O-])cc2)n[n-]1 (optimized conformer: 68.62637088159089 kcal/mol)

>  <smiles>  (38) 
O=C(NCc1ccccc1)c1cc(-c2ccc(O)cc2)n[nH]1

>  <score_type>  (38) 
oracle

>  <origin>  (38) 
adg

>  <m_score__min__energy>  (38) 
-12.279999999999999

>  <m_primary>  (38) 
energy

$$$$
38:0
     RDKit          3D

 49 51  0  0  0  0  0  0  0  0999 V2000
   58.9680   34.9200   45.1220 C   0  0  0  0  0  0  0  0  0  0  0  0
   58.0970   33.8430   44.4900 C   0  0  0  0  0  0  0  0  0  0  0  0
   57.4080   33.0320   45.5420 C   0  0  0  0  0  0  0  0  0  0  0  0
   57.1490   33.5540   46.6610 O   0  0  0  0  0  0  0  0  0  0  0  0
   56.9810   31.7330   45.2350 O   0  0  0  0  0  0  0  0  0  0  0  0
   57.8090   30.6030   45.1620 C   0  0  0  0  0  0  0  0  0  0  0  0
   59.1930   30.7870   45.2540 C   0  0  0  0  0  0  0  0  0  0  0  0
   60.0580   29.6940   45.1920 C   0  0  0  0  0  0  0  0  0  0  0  0
   59.5470   28.4000   45.0570 C   0  0  0  0  0  0  0  0  0  0  0  0
   58.1600   28.1930   44.9950 C   0  0  0  0  0  0  0  0  0  0  0  0
   57.6070   26.8030   44.8460 C   0  0  0  0  0  0  0  0  0  0  0  0
   57.3410   26.1980   46.1890 C   0  0  0  0  0  0  0  0  0  0  0  0
   56.1510   25.9640   46.5390 O   0  0  0  0  0  0  0  0  0  0  0  0
   58.4440   25.8770   47.0490 N   0  0  0  0  0  0  0  0  0  0  0  0
   59.0970   26.7130   47.8000 C   0  0  0  0  0  0  0  0  0  0  0  0
   60.3320   26.4830   48.3010 N   0  0  0  0  0  0  0  0  0  0  0  0
   60.7690   27.5290   49.0500 C   0  0  0  0  0  0  0  0  0  0  0  0
   59.8790   28.5950   49.1380 C   0  0  0  0  0  0  0  0  0  0  0  0
   60.1350   29.8910   49.8440 C   0  0  0  0  0  0  0  0  0  0  0  0
   60.5200   30.9710   48.8640 C   0  0  0  0  0  0  0  0  0  0  0  0
   61.8450   31.0890   48.4280 C   0  0  0  0  0  0  0  0  0  0  0  0
   62.2000   32.0510   47.5250 N   0  0  0  0  0  0  0  0  0  0  0  0
   63.6000   32.1670   47.0950 C   0  0  0  0  0  0  0  0  0  0  0  0
   61.2530   32.9140   47.0400 C   0  0  0  0  0  0  0  0  0  0  0  0
   61.5730   33.8140   46.2140 O   0  0  0  0  0  0  0  0  0  0  0  0
   59.9570   32.8080   47.4410 N   0  0  0  0  0  0  0  0  0  0  0  0
   59.5710   31.8570   48.3330 C   0  0  0  0  0  0  0  0  0  0  0  0
   58.3590   31.7800   48.6770 O   0  0  0  0  0  0  0  0  0  0  0  0
   58.4980   28.2170   48.2500 S   0  0  0  0  0  0  0  0  0  0  0  0
   57.2930   29.2980   45.0400 C   0  0  0  0  0  0  0  0  0  0  0  0
   58.9070   34.8446   46.2177 H   0  0  0  0  0  0  0  0  0  0  0  0
   60.0115   34.7820   44.8025 H   0  0  0  0  0  0  0  0  0  0  0  0
   58.6148   35.9115   44.8025 H   0  0  0  0  0  0  0  0  0  0  0  0
   57.3407   34.3205   43.8498 H   0  0  0  0  0  0  0  0  0  0  0  0
   58.7374   33.1763   43.8939 H   0  0  0  0  0  0  0  0  0  0  0  0
   59.6021   31.8008   45.3761 H   0  0  0  0  0  0  0  0  0  0  0  0
   61.1452   29.8511   45.2495 H   0  0  0  0  0  0  0  0  0  0  0  0
   60.2331   27.5422   44.9992 H   0  0  0  0  0  0  0  0  0  0  0  0
   56.6672   26.8464   44.2760 H   0  0  0  0  0  0  0  0  0  0  0  0
   58.3438   26.1819   44.3156 H   0  0  0  0  0  0  0  0  0  0  0  0
   61.7498   27.5328   49.5480 H   0  0  0  0  0  0  0  0  0  0  0  0
   59.2228   30.1970   50.3771 H   0  0  0  0  0  0  0  0  0  0  0  0
   60.9642   29.7474   50.5524 H   0  0  0  0  0  0  0  0  0  0  0  0
   62.6089   30.3995   48.8167 H   0  0  0  0  0  0  0  0  0  0  0  0
   64.2519   32.2210   47.9794 H   0  0  0  0  0  0  0  0  0  0  0  0
   63.8723   31.2883   46.4918 H   0  0  0  0  0  0  0  0  0  0  0  0
   63.7240   33.0785   46.4918 H   0  0  0  0  0  0  0  0  0  0  0  0
   59.2440   33.4700   47.0560 H   0  0  0  0  0  0  0  0  0  0  0  0
   56.2056   29.1431   44.9796 H   0  0  0  0  0  0  0  0  0  0  0  0
  1  2  1  0
  2  3  1  0
  3  4  2  0
  3  5  1  0
  5  6  1  0
  6  7  2  0
  7  8  1  0
  8  9  2  0
  9 10  1  0
 10 11  1  0
 11 12  1  0
 12 13  2  0
 12 14  1  0
 14 15  2  3
 15 16  1  0
 16 17  1  0
 17 18  2  0
 18 19  1  0
 19 20  1  0
 20 21  2  0
 21 22  1  0
 22 23  1  0
 22 24  1  0
 24 25  2  0
 24 26  1  0
 26 27  1  0
 27 28  2  0
 18 29  1  0
 10 30  2  0
 30  6  1  0
 29 15  1  0
 27 20  1  0
  1 31  1  0
  1 32  1  0
  1 33  1  0
  2 34  1  0
  2 35  1  0
  7 36  1  0
  8 37  1  0
  9 38  1  0
 11 39  1  0
 11 40  1  0
 17 41  1  0
 19 42  1  0
 19 43  1  0
 21 44  1  0
 23 45  1  0
 23 46  1  0
 23 47  1  0
 26 48  1  0
 30 49  1  0
M  CHG  1  16  -1
M  END
>  <UniqueID>  (39) 
37

>  <SMILES>  (39) 
CCC(=O)Oc1cccc(CC(=O)N=c2[n-]cc(Cc3cn(C)c(=O)[nH]c3=O)s2)c1

>  <Energy>  (39) 
83.093178635506

>  <Genealogy>  (39) 
CCC(=O)Oc1cccc(CC(=O)N=c2[n-]cc(Cc3cn(C)c(=O)[nH]c3=O)s2)c1 (protonated)
CCC(=O)Oc1cccc(CC(=O)N=c2[n-]cc(Cc3cn(C)c(=O)[nH]c3=O)s2)c1 (3D coordinates assigned)
CCC(=O)Oc1cccc(CC(=O)N=c2[n-]cc(Cc3cn(C)c(=O)[nH]c3=O)s2)c1 (optimized conformer: 83.093178635506 kcal/mol)

>  <smiles>  (39) 
CCC(=O)Oc1cccc(CC(=O)N=c2[nH]cc(Cc3cn(C)c(=O)[nH]c3=O)s2)c1

>  <score_type>  (39) 
oracle

>  <origin>  (39) 
adg

>  <m_score__min__energy>  (39) 
-11.31

>  <m_primary>  (39) 
energy

$$$$
39:0
     RDKit          3D

 30 31  0  0  0  0  0  0  0  0999 V2000
   57.3280   34.5050   44.9260 C   0  0  0  0  0  0  0  0  0  0  0  0
   58.4190   33.5620   45.9660 S   0  0  0  0  0  0  0  0  0  0  0  0
   59.7150   33.3350   45.2400 O   0  0  0  0  0  0  0  0  0  0  0  0
   58.6680   34.3260   47.2360 O   0  0  0  0  0  0  0  0  0  0  0  0
   57.6730   32.0400   46.3290 N   0  0  0  0  0  0  0  0  0  0  0  0
   58.2820   30.7510   46.1570 C   0  0  0  0  0  0  0  0  0  0  0  0
   57.5920   29.6920   45.5380 C   0  0  0  0  0  0  0  0  0  0  0  0
   58.2010   28.4360   45.3750 C   0  0  0  0  0  0  0  0  0  0  0  0
   57.4610   27.3300   44.6710 C   0  0  0  0  0  0  0  0  0  0  0  0
   57.1590   26.2190   45.6280 C   0  0  0  0  0  0  0  0  0  0  0  0
   58.2500   25.0270   46.1070 S   0  0  0  0  0  0  0  0  0  0  0  0
   57.0960   24.2270   47.0310 C   0  0  0  0  0  0  0  0  0  0  0  0
   57.3200   23.1820   47.6930 O   0  0  0  0  0  0  0  0  0  0  0  0
   55.8870   24.8250   46.9870 N   0  0  0  0  0  0  0  0  0  0  0  0
   55.9200   25.9320   46.2000 C   0  0  0  0  0  0  0  0  0  0  0  0
   54.7890   26.7100   45.9880 O   0  0  0  0  0  0  0  0  0  0  0  0
   59.5180   28.2470   45.8220 C   0  0  0  0  0  0  0  0  0  0  0  0
   60.1390   27.0520   45.6580 F   0  0  0  0  0  0  0  0  0  0  0  0
   60.2050   29.2920   46.4420 C   0  0  0  0  0  0  0  0  0  0  0  0
   59.5980   30.5430   46.6150 C   0  0  0  0  0  0  0  0  0  0  0  0
   60.3310   31.5980   47.2520 N   0  0  0  0  0  0  0  0  0  0  0  0
   56.6440   35.0962   45.5527 H   0  0  0  0  0  0  0  0  0  0  0  0
   57.9198   35.1806   44.2909 H   0  0  0  0  0  0  0  0  0  0  0  0
   56.7452   33.8216   44.2909 H   0  0  0  0  0  0  0  0  0  0  0  0
   56.5646   29.8491   45.1778 H   0  0  0  0  0  0  0  0  0  0  0  0
   56.5186   27.7251   44.2639 H   0  0  0  0  0  0  0  0  0  0  0  0
   58.0884   26.9407   43.8556 H   0  0  0  0  0  0  0  0  0  0  0  0
   61.2333   29.1318   46.7984 H   0  0  0  0  0  0  0  0  0  0  0  0
   61.2480   31.4240   47.7190 H   0  0  0  0  0  0  0  0  0  0  0  0
   59.9590   32.5730   47.2600 H   0  0  0  0  0  0  0  0  0  0  0  0
  1  2  1  0
  2  3  2  0
  2  4  2  0
  2  5  1  0
  5  6  1  0
  6  7  2  0
  7  8  1  0
  8  9  1  0
  9 10  1  0
 10 11  1  0
 11 12  1  0
 12 13  2  0
 12 14  1  0
 14 15  1  0
 15 16  1  0
  8 17  2  0
 17 18  1  0
 17 19  1  0
 19 20  2  0
 20 21  1  0
 20  6  1  0
 15 10  2  0
  1 22  1  0
  1 23  1  0
  1 24  1  0
  7 25  1  0
  9 26  1  0
  9 27  1  0
 19 28  1  0
 21 29  1  0
 21 30  1  0
M  CHG  3   5  -1  14  -1  16  -1
M  END
>  <UniqueID>  (40) 
38

>  <SMILES>  (40) 
CS(=O)(=O)[N-]c1cc(Cc2sc(=O)[n-]c2[O-])c(F)cc1N

>  <Energy>  (40) 
58.55224720546859

>  <Genealogy>  (40) 
CS(=O)(=O)[N-]c1cc(Cc2sc(=O)[n-]c2[O-])c(F)cc1N (protonated)
CS(=O)(=O)[N-]c1cc(Cc2sc(=O)[n-]c2[O-])c(F)cc1N (3D coordinates assigned)
CS(=O)(=O)[N-]c1cc(Cc2sc(=O)[n-]c2[O-])c(F)cc1N (optimized conformer: 58.55224720546859 kcal/mol)

>  <smiles>  (40) 
CS(=O)(=O)Nc1cc(Cc2sc(=O)[nH]c2O)c(F)cc1N

>  <score_type>  (40) 
oracle

>  <origin>  (40) 
adg

>  <m_score__min__energy>  (40) 
-14.06

>  <m_primary>  (40) 
energy

$$$$
40:0
     RDKit          3D

 50 52  0  0  0  0  0  0  0  0999 V2000
   56.9466   24.7081   43.0233 H   0  0  0  0  0  0  0  0  0  0  0  0
   56.8710   23.8660   43.7270 C   0  0  0  0  0  0  0  0  0  0  0  0
   56.4410   22.6550   43.2890 N   0  0  0  0  0  0  0  0  0  0  0  0
   56.3330   21.5980   44.1380 C   0  0  0  0  0  0  0  0  0  0  0  0
   55.9200   20.4410   43.7160 N   0  0  0  0  0  0  0  0  0  0  0  0
   55.7490   19.2730   44.5720 C   0  0  0  0  0  0  0  0  0  0  0  0
   55.7942   19.5817   45.6268 H   0  0  0  0  0  0  0  0  0  0  0  0
   54.7732   18.8082   44.3675 H   0  0  0  0  0  0  0  0  0  0  0  0
   56.5506   18.5480   44.3675 H   0  0  0  0  0  0  0  0  0  0  0  0
   56.6540   21.7530   45.4480 N   0  0  0  0  0  0  0  0  0  0  0  0
   57.0890   22.9460   45.9390 C   0  0  0  0  0  0  0  0  0  0  0  0
   57.3820   23.0820   47.3000 O   0  0  0  0  0  0  0  0  0  0  0  0
   56.3910   22.9950   48.3150 C   0  0  0  0  0  0  0  0  0  0  0  0
   56.8732   23.0373   49.3028 H   0  0  0  0  0  0  0  0  0  0  0  0
   55.6879   23.8349   48.2139 H   0  0  0  0  0  0  0  0  0  0  0  0
   55.8450   22.0455   48.2139 H   0  0  0  0  0  0  0  0  0  0  0  0
   57.2190   24.0470   45.0730 C   0  0  0  0  0  0  0  0  0  0  0  0
   57.6970   25.3660   45.5520 C   0  0  0  0  0  0  0  0  0  0  0  0
   58.4900   25.4590   46.7080 C   0  0  0  0  0  0  0  0  0  0  0  0
   58.7663   24.5468   47.2572 H   0  0  0  0  0  0  0  0  0  0  0  0
   58.9290   26.7040   47.1630 C   0  0  0  0  0  0  0  0  0  0  0  0
   59.5421   26.7701   48.0739 H   0  0  0  0  0  0  0  0  0  0  0  0
   58.5920   27.8650   46.4650 C   0  0  0  0  0  0  0  0  0  0  0  0
   58.9248   28.8445   46.8390 H   0  0  0  0  0  0  0  0  0  0  0  0
   57.8330   27.7890   45.2920 C   0  0  0  0  0  0  0  0  0  0  0  0
   57.5080   29.0030   44.6010 N   0  0  0  0  0  0  0  0  0  0  0  0
   56.3160   29.7840   44.7630 C   0  0  0  0  0  0  0  0  0  0  0  0
   55.2120   29.1910   44.8720 O   0  0  0  0  0  0  0  0  0  0  0  0
   56.3380   31.2190   44.7950 N   0  0  0  0  0  0  0  0  0  0  0  0
   57.4290   32.0500   45.2160 C   0  0  0  0  0  0  0  0  0  0  0  0
   57.3900   33.4120   44.9070 C   0  0  0  0  0  0  0  0  0  0  0  0
   56.5349   33.8222   44.3498 H   0  0  0  0  0  0  0  0  0  0  0  0
   58.4290   34.2540   45.3010 C   0  0  0  0  0  0  0  0  0  0  0  0
   58.3975   35.3224   45.0410 H   0  0  0  0  0  0  0  0  0  0  0  0
   59.5100   33.7450   46.0250 C   0  0  0  0  0  0  0  0  0  0  0  0
   60.3278   34.4157   46.3275 H   0  0  0  0  0  0  0  0  0  0  0  0
   59.5620   32.3810   46.3710 C   0  0  0  0  0  0  0  0  0  0  0  0
   60.6770   31.8530   47.1310 N   0  0  0  0  0  0  0  0  0  0  0  0
   60.6210   30.4950   47.6850 C   0  0  0  0  0  0  0  0  0  0  0  0
   60.6231   30.5469   48.7838 H   0  0  0  0  0  0  0  0  0  0  0  0
   59.7016   29.9972   47.3432 H   0  0  0  0  0  0  0  0  0  0  0  0
   61.4963   29.9232   47.3432 H   0  0  0  0  0  0  0  0  0  0  0  0
   61.8610   32.6820   47.3850 C   0  0  0  0  0  0  0  0  0  0  0  0
   62.0098   32.7862   48.4699 H   0  0  0  0  0  0  0  0  0  0  0  0
   62.7455   32.2049   46.9377 H   0  0  0  0  0  0  0  0  0  0  0  0
   61.7152   33.6763   46.9377 H   0  0  0  0  0  0  0  0  0  0  0  0
   58.5020   31.5410   45.9690 C   0  0  0  0  0  0  0  0  0  0  0  0
   58.5151   30.4769   46.2475 H   0  0  0  0  0  0  0  0  0  0  0  0
   57.3700   26.5380   44.8480 C   0  0  0  0  0  0  0  0  0  0  0  0
   56.7474   26.4758   43.9433 H   0  0  0  0  0  0  0  0  0  0  0  0
  1  2  1  0
  2  3  2  0
  3  4  1  0
  4  5  2  0
  5  6  1  0
  6  7  1  0
  6  8  1  0
  6  9  1  0
  4 10  1  0
 10 11  1  0
 11 12  1  0
 12 13  1  0
 13 14  1  0
 13 15  1  0
 13 16  1  0
 11 17  2  0
 17 18  1  0
 18 19  2  0
 19 20  1  0
 19 21  1  0
 21 22  1  0
 21 23  2  0
 23 24  1  0
 23 25  1  0
 25 26  1  0
 26 27  1  0
 27 28  2  0
 27 29  1  0
 29 30  1  0
 30 31  2  0
 31 32  1  0
 31 33  1  0
 33 34  1  0
 33 35  2  0
 35 36  1  0
 35 37  1  0
 37 38  1  0
 38 39  1  0
 39 40  1  0
 39 41  1  0
 39 42  1  0
 38 43  1  0
 43 44  1  0
 43 45  1  0
 43 46  1  0
 37 47  2  0
 47 48  1  0
 25 49  2  0
 49 50  1  0
 17  2  1  0
 49 18  1  0
 47 30  1  0
M  CHG  3  10  -1  26  -1  29  -1
M  END
>  <UniqueID>  (41) 
39

>  <SMILES>  (41) 
C/N=c1\ncc(-c2cccc([N-]C(=O)[N-]c3cccc(N(C)C)c3)c2)c(OC)[n-]1

>  <Energy>  (41) 
62.24018958419264

>  <Genealogy>  (41) 
CN=c1ncc(-c2cccc([N-]C(=O)[N-]c3cccc(N(C)C)c3)c2)c(OC)[n-]1 (protonated)
C/N=c1\ncc(-c2cccc([N-]C(=O)[N-]c3cccc(N(C)C)c3)c2)c(OC)[n-]1 (cis-trans isomerization)
C/N=c1\ncc(-c2cccc([N-]C(=O)[N-]c3cccc(N(C)C)c3)c2)c(OC)[n-]1 (3D coordinates assigned)
C/N=c1\ncc(-c2cccc([N-]C(=O)[N-]c3cccc(N(C)C)c3)c2)c(OC)[n-]1 (optimized conformer: 62.24018958419264 kcal/mol)

>  <smiles>  (41) 
CN=c1ncc(-c2cccc(NC(=O)Nc3cccc(N(C)C)c3)c2)c(OC)[nH]1

>  <score_type>  (41) 
oracle

>  <origin>  (41) 
adg

>  <m_score__min__energy>  (41) 
-12.119999999999999

>  <m_primary>  (41) 
energy

$$$$
41:0
     RDKit          3D

 52 54  0  0  0  0  0  0  0  0999 V2000
   63.8570   32.6440   50.9920 C   0  0  0  0  0  0  0  0  0  0  0  0
   63.0260   31.4870   51.0100 O   0  0  0  0  0  0  0  0  0  0  0  0
   62.2670   31.0370   49.9190 C   0  0  0  0  0  0  0  0  0  0  0  0
   62.6960   31.3720   48.6290 C   0  0  0  0  0  0  0  0  0  0  0  0
   61.9750   30.9560   47.5060 C   0  0  0  0  0  0  0  0  0  0  0  0
   60.8040   30.1920   47.6610 C   0  0  0  0  0  0  0  0  0  0  0  0
   60.0420   29.7580   46.5610 C   0  0  0  0  0  0  0  0  0  0  0  0
   60.3950   30.0520   45.3840 O   0  0  0  0  0  0  0  0  0  0  0  0
   58.8800   28.9980   46.7850 C   0  0  0  0  0  0  0  0  0  0  0  0
   57.9950   28.5400   45.6500 C   0  0  0  0  0  0  0  0  0  0  0  0
   57.2790   29.7030   45.0300 C   0  0  0  0  0  0  0  0  0  0  0  0
   56.0220   29.6700   44.9200 O   0  0  0  0  0  0  0  0  0  0  0  0
   58.0170   30.8350   44.5470 N   0  0  0  0  0  0  0  0  0  0  0  0
   57.3930   31.9120   43.7800 C   0  0  0  0  0  0  0  0  0  0  0  0
   58.0770   33.2550   44.0650 C   0  0  0  0  0  0  0  0  0  0  0  0
   58.6260   33.3000   45.4690 C   0  0  0  0  0  0  0  0  0  0  0  0
   57.7980   33.0100   46.5620 C   0  0  0  0  0  0  0  0  0  0  0  0
   58.2910   33.1010   47.8650 C   0  0  0  0  0  0  0  0  0  0  0  0
   59.6250   33.4880   48.0960 C   0  0  0  0  0  0  0  0  0  0  0  0
   60.1570   33.5890   49.3930 O   0  0  0  0  0  0  0  0  0  0  0  0
   59.4190   33.3660   50.5940 C   0  0  0  0  0  0  0  0  0  0  0  0
   60.4590   33.7880   47.0070 C   0  0  0  0  0  0  0  0  0  0  0  0
   61.7830   34.1750   47.2690 O   0  0  0  0  0  0  0  0  0  0  0  0
   62.8970   33.8590   46.4410 C   0  0  0  0  0  0  0  0  0  0  0  0
   59.9520   33.6980   45.6950 C   0  0  0  0  0  0  0  0  0  0  0  0
   58.5200   28.7040   48.1110 C   0  0  0  0  0  0  0  0  0  0  0  0
   59.2620   29.1290   49.1290 O   0  0  0  0  0  0  0  0  0  0  0  0
   60.3680   29.8490   48.9600 C   0  0  0  0  0  0  0  0  0  0  0  0
   61.0960   30.2690   50.0800 C   0  0  0  0  0  0  0  0  0  0  0  0
   64.0785   32.9524   52.0244 H   0  0  0  0  0  0  0  0  0  0  0  0
   64.7965   32.4125   50.4689 H   0  0  0  0  0  0  0  0  0  0  0  0
   63.3376   33.4604   50.4689 H   0  0  0  0  0  0  0  0  0  0  0  0
   63.6105   31.9691   48.4978 H   0  0  0  0  0  0  0  0  0  0  0  0
   62.3241   31.2267   46.4986 H   0  0  0  0  0  0  0  0  0  0  0  0
   58.6146   28.0487   44.8853 H   0  0  0  0  0  0  0  0  0  0  0  0
   57.2478   27.8371   46.0471 H   0  0  0  0  0  0  0  0  0  0  0  0
   59.0440   30.8890   44.7250 H   0  0  0  0  0  0  0  0  0  0  0  0
   57.4775   31.6855   42.7069 H   0  0  0  0  0  0  0  0  0  0  0  0
   56.3360   31.9866   44.0752 H   0  0  0  0  0  0  0  0  0  0  0  0
   58.9028   33.3956   43.3521 H   0  0  0  0  0  0  0  0  0  0  0  0
   57.3308   34.0560   43.9568 H   0  0  0  0  0  0  0  0  0  0  0  0
   56.7537   32.7090   46.3922 H   0  0  0  0  0  0  0  0  0  0  0  0
   57.6336   32.8691   48.7159 H   0  0  0  0  0  0  0  0  0  0  0  0
   60.0648   33.5612   51.4628 H   0  0  0  0  0  0  0  0  0  0  0  0
   58.5519   34.0422   50.6224 H   0  0  0  0  0  0  0  0  0  0  0  0
   59.0715   32.3227   50.6224 H   0  0  0  0  0  0  0  0  0  0  0  0
   63.7643   33.6130   47.0713 H   0  0  0  0  0  0  0  0  0  0  0  0
   62.6487   32.9959   45.8059 H   0  0  0  0  0  0  0  0  0  0  0  0
   63.1389   34.7240   45.8059 H   0  0  0  0  0  0  0  0  0  0  0  0
   60.6014   33.9419   44.8413 H   0  0  0  0  0  0  0  0  0  0  0  0
   57.6126   28.1147   48.3093 H   0  0  0  0  0  0  0  0  0  0  0  0
   60.7527   29.9985   51.0895 H   0  0  0  0  0  0  0  0  0  0  0  0
  1  2  1  0
  2  3  1  0
  3  4  2  0
  4  5  1  0
  5  6  2  0
  6  7  1  0
  7  8  2  0
  7  9  1  0
  9 10  1  0
 10 11  1  0
 11 12  2  0
 11 13  1  0
 13 14  1  0
 14 15  1  0
 15 16  1  0
 16 17  2  0
 17 18  1  0
 18 19  2  0
 19 20  1  0
 20 21  1  0
 19 22  1  0
 22 23  1  0
 23 24  1  0
 22 25  2  0
  9 26  2  0
 26 27  1  0
 27 28  1  0
 28 29  2  0
 29  3  1  0
 28  6  1  0
 25 16  1  0
  1 30  1  0
  1 31  1  0
  1 32  1  0
  4 33  1  0
  5 34  1  0
 10 35  1  0
 10 36  1  0
 13 37  1  0
 14 38  1  0
 14 39  1  0
 15 40  1  0
 15 41  1  0
 17 42  1  0
 18 43  1  0
 21 44  1  0
 21 45  1  0
 21 46  1  0
 24 47  1  0
 24 48  1  0
 24 49  1  0
 25 50  1  0
 26 51  1  0
 29 52  1  0
M  END
>  <UniqueID>  (42) 
40

>  <SMILES>  (42) 
COc1ccc2c(=O)c(CC(=O)NCCc3ccc(OC)c(OC)c3)coc2c1

>  <Energy>  (42) 
51.46302629039474

>  <Genealogy>  (42) 
COc1ccc2c(=O)c(CC(=O)NCCc3ccc(OC)c(OC)c3)coc2c1 (3D coordinates assigned)
COc1ccc2c(=O)c(CC(=O)NCCc3ccc(OC)c(OC)c3)coc2c1 (optimized conformer: 51.46302629039474 kcal/mol)

>  <smiles>  (42) 
COc1ccc2c(=O)c(CC(=O)NCCc3ccc(OC)c(OC)c3)coc2c1

>  <score_type>  (42) 
oracle

>  <origin>  (42) 
adg

>  <m_score__min__energy>  (42) 
-7.3700000000000001

>  <m_primary>  (42) 
energy

$$$$
42:0
     RDKit          3D

 53 55  0  0  0  0  0  0  0  0999 V2000
   57.1530   32.3460   41.0330 C   0  0  0  0  0  0  0  0  0  0  0  0
   58.0980   31.9930   42.1220 C   0  0  0  0  0  0  0  0  0  0  0  0
   57.6150   32.1660   43.4650 N   0  0  0  0  0  0  0  0  0  0  0  0
   57.7600   33.4470   44.1140 C   0  0  0  0  0  0  0  0  0  0  0  0
   58.7880   33.5380   45.1430 C   0  0  0  0  0  0  0  0  0  0  0  0
   59.1680   34.7100   45.4900 O   0  0  0  0  0  0  0  0  0  0  0  0
   59.4220   32.4640   45.8080 N   0  0  0  0  0  0  0  0  0  0  0  0
   60.4180   32.6460   46.8050 C   0  0  0  0  0  0  0  0  0  0  0  0
   61.5240   33.3970   46.4430 C   0  0  0  0  0  0  0  0  0  0  0  0
   62.5460   33.6310   47.3420 C   0  0  0  0  0  0  0  0  0  0  0  0
   62.4760   33.1190   48.6080 C   0  0  0  0  0  0  0  0  0  0  0  0
   63.9020   33.4490   49.8470 Br  0  0  0  0  0  0  0  0  0  0  0  0
   61.3750   32.3760   48.9560 C   0  0  0  0  0  0  0  0  0  0  0  0
   60.3310   32.1230   48.0750 C   0  0  0  0  0  0  0  0  0  0  0  0
   59.1410   31.3200   48.4510 C   0  0  0  0  0  0  0  0  0  0  0  0
   57.0140   31.0920   44.2210 C   0  0  0  0  0  0  0  0  0  0  0  0
   57.0330   31.1250   45.5000 O   0  0  0  0  0  0  0  0  0  0  0  0
   56.3690   29.9380   43.5010 C   0  0  0  0  0  0  0  0  0  0  0  0
   57.3950   28.8570   43.3720 C   0  0  0  0  0  0  0  0  0  0  0  0
   58.2670   28.6740   44.5340 C   0  0  0  0  0  0  0  0  0  0  0  0
   59.3180   29.5290   44.6890 N   0  0  0  0  0  0  0  0  0  0  0  0
   60.1580   29.4500   45.7080 N   0  0  0  0  0  0  0  0  0  0  0  0
   60.0100   28.5030   46.6550 C   0  0  0  0  0  0  0  0  0  0  0  0
   60.8210   28.4450   47.6170 O   0  0  0  0  0  0  0  0  0  0  0  0
   58.9670   27.6110   46.5490 C   0  0  0  0  0  0  0  0  0  0  0  0
   58.7790   26.6150   47.5060 C   0  0  0  0  0  0  0  0  0  0  0  0
   57.7390   25.7300   47.3920 C   0  0  0  0  0  0  0  0  0  0  0  0
   56.8680   25.8240   46.3210 C   0  0  0  0  0  0  0  0  0  0  0  0
   57.0430   26.8090   45.3630 C   0  0  0  0  0  0  0  0  0  0  0  0
   58.0920   27.6970   45.4850 C   0  0  0  0  0  0  0  0  0  0  0  0
   56.2069   32.6994   41.4688 H   0  0  0  0  0  0  0  0  0  0  0  0
   57.5902   33.1414   40.4116 H   0  0  0  0  0  0  0  0  0  0  0  0
   56.9617   31.4587   40.4116 H   0  0  0  0  0  0  0  0  0  0  0  0
   58.3722   30.9349   41.9981 H   0  0  0  0  0  0  0  0  0  0  0  0
   58.9388   32.6948   42.0199 H   0  0  0  0  0  0  0  0  0  0  0  0
   57.9957   34.1906   43.3384 H   0  0  0  0  0  0  0  0  0  0  0  0
   56.8073   33.6204   44.6358 H   0  0  0  0  0  0  0  0  0  0  0  0
   59.1690   31.4900   45.5650 H   0  0  0  0  0  0  0  0  0  0  0  0
   61.5892   33.8124   45.4265 H   0  0  0  0  0  0  0  0  0  0  0  0
   63.4175   34.2300   47.0392 H   0  0  0  0  0  0  0  0  0  0  0  0
   61.3172   31.9641   49.9743 H   0  0  0  0  0  0  0  0  0  0  0  0
   59.0648   31.2686   49.5472 H   0  0  0  0  0  0  0  0  0  0  0  0
   58.2357   31.7926   48.0423 H   0  0  0  0  0  0  0  0  0  0  0  0
   59.2404   30.3036   48.0423 H   0  0  0  0  0  0  0  0  0  0  0  0
   55.5070   29.5706   44.0772 H   0  0  0  0  0  0  0  0  0  0  0  0
   56.0110   30.2520   42.5094 H   0  0  0  0  0  0  0  0  0  0  0  0
   56.8675   27.9088   43.1914 H   0  0  0  0  0  0  0  0  0  0  0  0
   58.0533   29.1624   42.5454 H   0  0  0  0  0  0  0  0  0  0  0  0
   60.9650   30.1050   45.8310 H   0  0  0  0  0  0  0  0  0  0  0  0
   59.4701   26.5390   48.3584 H   0  0  0  0  0  0  0  0  0  0  0  0
   57.5969   24.9462   48.1506 H   0  0  0  0  0  0  0  0  0  0  0  0
   56.0331   25.1136   46.2300 H   0  0  0  0  0  0  0  0  0  0  0  0
   56.3508   26.8828   44.5113 H   0  0  0  0  0  0  0  0  0  0  0  0
  1  2  1  0
  2  3  1  0
  3  4  1  0
  4  5  1  0
  5  6  2  0
  5  7  1  0
  7  8  1  0
  8  9  2  0
  9 10  1  0
 10 11  2  0
 11 12  1  0
 11 13  1  0
 13 14  2  0
 14 15  1  0
  3 16  1  0
 16 17  2  0
 16 18  1  0
 18 19  1  0
 19 20  1  0
 20 21  2  0
 21 22  1  0
 22 23  1  0
 23 24  2  0
 23 25  1  0
 25 26  2  0
 26 27  1  0
 27 28  2  0
 28 29  1  0
 29 30  2  0
 14  8  1  0
 30 20  1  0
 30 25  1  0
  1 31  1  0
  1 32  1  0
  1 33  1  0
  2 34  1  0
  2 35  1  0
  4 36  1  0
  4 37  1  0
  7 38  1  0
  9 39  1  0
 10 40  1  0
 13 41  1  0
 15 42  1  0
 15 43  1  0
 15 44  1  0
 18 45  1  0
 18 46  1  0
 19 47  1  0
 19 48  1  0
 22 49  1  0
 26 50  1  0
 27 51  1  0
 28 52  1  0
 29 53  1  0
M  END
>  <smiles>  (43) 
CCN(CC(=O)Nc1ccc(Br)cc1C)C(=O)CCc1n[nH]c(=O)c2ccccc12

>  <score_type>  (43) 
oracle

>  <origin>  (43) 
adg

>  <m_score__min__energy>  (43) 
-9.1999999999999993

>  <m_primary>  (43) 
energy

$$$$
43:0
     RDKit          3D

 40 41  0  0  0  0  0  0  0  0999 V2000
   56.4090   22.4160   42.6180 C   0  0  0  0  0  0  0  0  0  0  0  0
   56.2970   21.4450   43.7100 N   0  0  0  0  0  0  0  0  0  0  0  0
   55.5570   21.9930   44.8560 C   0  0  0  0  0  0  0  0  0  0  0  0
   56.1050   23.3320   45.3030 C   0  0  0  0  0  0  0  0  0  0  0  0
   55.2300   24.4170   45.4570 C   0  0  0  0  0  0  0  0  0  0  0  0
   55.7010   25.6580   45.8950 C   0  0  0  0  0  0  0  0  0  0  0  0
   54.8050   26.7160   46.0050 O   0  0  0  0  0  0  0  0  0  0  0  0
   57.0640   25.8290   46.2100 C   0  0  0  0  0  0  0  0  0  0  0  0
   57.5980   27.1560   46.7020 C   0  0  0  0  0  0  0  0  0  0  0  0
   59.1040   27.3370   46.4370 C   0  0  0  0  0  0  0  0  0  0  0  0
   59.4360   27.8680   45.0310 C   0  0  0  0  0  0  0  0  0  0  0  0
   58.4640   28.9210   44.5630 C   0  0  0  0  0  0  0  0  0  0  0  0
   57.4390   28.5900   43.6580 C   0  0  0  0  0  0  0  0  0  0  0  0
   56.5360   29.5670   43.2280 C   0  0  0  0  0  0  0  0  0  0  0  0
   56.6520   30.8800   43.6890 C   0  0  0  0  0  0  0  0  0  0  0  0
   57.6750   31.2210   44.5780 C   0  0  0  0  0  0  0  0  0  0  0  0
   58.5810   30.2480   45.0100 C   0  0  0  0  0  0  0  0  0  0  0  0
   57.9430   24.7470   46.0320 C   0  0  0  0  0  0  0  0  0  0  0  0
   57.4720   23.5020   45.5930 C   0  0  0  0  0  0  0  0  0  0  0  0
   58.3610   22.4370   45.4470 O   0  0  0  0  0  0  0  0  0  0  0  0
   56.5256   23.4266   43.0365 H   0  0  0  0  0  0  0  0  0  0  0  0
   57.2850   22.1722   41.9990 H   0  0  0  0  0  0  0  0  0  0  0  0
   55.5005   22.3780   41.9990 H   0  0  0  0  0  0  0  0  0  0  0  0
   57.2610   21.1710   44.0140 H   0  0  0  0  0  0  0  0  0  0  0  0
   54.5026   22.1196   44.5691 H   0  0  0  0  0  0  0  0  0  0  0  0
   55.6619   21.2883   45.6941 H   0  0  0  0  0  0  0  0  0  0  0  0
   54.1611   24.2900   45.2306 H   0  0  0  0  0  0  0  0  0  0  0  0
   57.0532   27.9636   46.1912 H   0  0  0  0  0  0  0  0  0  0  0  0
   57.4510   27.1849   47.7918 H   0  0  0  0  0  0  0  0  0  0  0  0
   59.5020   28.0469   47.1771 H   0  0  0  0  0  0  0  0  0  0  0  0
   59.5616   26.3398   46.5154 H   0  0  0  0  0  0  0  0  0  0  0  0
   60.4458   28.3040   45.0487 H   0  0  0  0  0  0  0  0  0  0  0  0
   59.3711   27.0213   44.3318 H   0  0  0  0  0  0  0  0  0  0  0  0
   57.3476   27.5584   43.2872 H   0  0  0  0  0  0  0  0  0  0  0  0
   55.7327   29.3009   42.5252 H   0  0  0  0  0  0  0  0  0  0  0  0
   55.9380   31.6461   43.3523 H   0  0  0  0  0  0  0  0  0  0  0  0
   57.7674   32.2562   44.9382 H   0  0  0  0  0  0  0  0  0  0  0  0
   59.3896   30.5226   45.7034 H   0  0  0  0  0  0  0  0  0  0  0  0
   59.0151   24.8789   46.2400 H   0  0  0  0  0  0  0  0  0  0  0  0
   58.1150   21.6060   44.9230 H   0  0  0  0  0  0  0  0  0  0  0  0
  1  2  1  0
  2  3  1  0
  3  4  1  0
  4  5  2  0
  5  6  1  0
  6  7  1  0
  6  8  2  0
  8  9  1  0
  9 10  1  0
 10 11  1  0
 11 12  1  0
 12 13  2  0
 13 14  1  0
 14 15  2  0
 15 16  1  0
 16 17  2  0
  8 18  1  0
 18 19  2  0
 19 20  1  0
 19  4  1  0
 17 12  1  0
  1 21  1  0
  1 22  1  0
  1 23  1  0
  2 24  1  0
  3 25  1  0
  3 26  1  0
  5 27  1  0
  9 28  1  0
  9 29  1  0
 10 30  1  0
 10 31  1  0
 11 32  1  0
 11 33  1  0
 13 34  1  0
 14 35  1  0
 15 36  1  0
 16 37  1  0
 17 38  1  0
 18 39  1  0
 20 40  1  0
M  CHG  1   7  -1
M  END
>  <UniqueID>  (44) 
41

>  <SMILES>  (44) 
CNCc1cc([O-])c(CCCc2ccccc2)cc1O

>  <Energy>  (44) 
36.37705311901161

>  <Genealogy>  (44) 
CNCc1cc([O-])c(CCCc2ccccc2)cc1O (protonated)
CNCc1cc([O-])c(CCCc2ccccc2)cc1O (3D coordinates assigned)
CNCc1cc([O-])c(CCCc2ccccc2)cc1O (optimized conformer: 36.37705311901161 kcal/mol)

>  <smiles>  (44) 
CNCc1cc(O)c(CCCc2ccccc2)cc1O

>  <score_type>  (44) 
oracle

>  <origin>  (44) 
adg

>  <m_score__min__energy>  (44) 
-10.359999999999999

>  <m_primary>  (44) 
energy

$$$$
44:0
     RDKit          3D

 59 61  0  0  0  0  0  0  0  0999 V2000
   54.1650   25.2080   45.6080 C   0  0  0  0  0  0  0  0  0  0  0  0
   55.5430   25.2160   45.9720 O   0  0  0  0  0  0  0  0  0  0  0  0
   56.4480   24.1770   45.6980 C   0  0  0  0  0  0  0  0  0  0  0  0
   56.0340   22.8290   45.6700 C   0  0  0  0  0  0  0  0  0  0  0  0
   56.9590   21.8050   45.4400 C   0  0  0  0  0  0  0  0  0  0  0  0
   56.5490   20.5140   45.4250 F   0  0  0  0  0  0  0  0  0  0  0  0
   58.3040   22.1120   45.2400 C   0  0  0  0  0  0  0  0  0  0  0  0
   58.7300   23.4400   45.2580 C   0  0  0  0  0  0  0  0  0  0  0  0
   57.8110   24.4850   45.4700 C   0  0  0  0  0  0  0  0  0  0  0  0
   58.3080   25.8810   45.4760 C   0  0  0  0  0  0  0  0  0  0  0  0
   59.3710   26.2820   46.2930 C   0  0  0  0  0  0  0  0  0  0  0  0
   59.7810   27.6100   46.2720 C   0  0  0  0  0  0  0  0  0  0  0  0
   59.1140   28.5230   45.4540 C   0  0  0  0  0  0  0  0  0  0  0  0
   59.4950   29.7240   45.4330 O   0  0  0  0  0  0  0  0  0  0  0  0
   58.0560   28.0990   44.6880 N   0  0  0  0  0  0  0  0  0  0  0  0
   57.3060   29.0150   43.8210 C   0  0  0  0  0  0  0  0  0  0  0  0
   56.3030   29.7820   44.6260 C   0  0  0  0  0  0  0  0  0  0  0  0
   55.1510   29.3070   44.8150 O   0  0  0  0  0  0  0  0  0  0  0  0
   56.6670   31.0450   45.1880 N   0  0  0  0  0  0  0  0  0  0  0  0
   57.4800   32.0210   44.4700 C   0  0  0  0  0  0  0  0  0  0  0  0
   57.3370   33.4420   45.0680 C   0  0  0  0  0  0  0  0  0  0  0  0
   58.5350   34.3490   44.7790 C   0  0  0  0  0  0  0  0  0  0  0  0
   59.7970   33.8410   45.4660 C   0  0  0  0  0  0  0  0  0  0  0  0
   59.5700   33.4470   46.8660 N   0  0  0  0  0  0  0  0  0  0  0  0
   60.7400   33.0970   47.6340 C   0  0  0  0  0  0  0  0  0  0  0  0
   61.6660   32.4370   47.0850 O   0  0  0  0  0  0  0  0  0  0  0  0
   60.9340   33.5850   48.9750 N   0  0  0  0  0  0  0  0  0  0  0  0
   60.1120   33.0840   50.0800 C   0  0  0  0  0  0  0  0  0  0  0  0
   62.1860   34.2760   49.2880 C   0  0  0  0  0  0  0  0  0  0  0  0
   58.2470   33.4570   47.5210 C   0  0  0  0  0  0  0  0  0  0  0  0
   57.0190   33.4410   46.5740 C   0  0  0  0  0  0  0  0  0  0  0  0
   57.6820   26.8150   44.7090 N   0  0  0  0  0  0  0  0  0  0  0  0
   53.5456   25.2044   46.5171 H   0  0  0  0  0  0  0  0  0  0  0  0
   53.9377   26.1048   45.0130 H   0  0  0  0  0  0  0  0  0  0  0  0
   53.9481   24.3086   45.0130 H   0  0  0  0  0  0  0  0  0  0  0  0
   54.9745   22.5807   45.8304 H   0  0  0  0  0  0  0  0  0  0  0  0
   59.0312   21.3049   45.0676 H   0  0  0  0  0  0  0  0  0  0  0  0
   59.7941   23.6729   45.1051 H   0  0  0  0  0  0  0  0  0  0  0  0
   59.8766   25.5542   46.9447 H   0  0  0  0  0  0  0  0  0  0  0  0
   60.6252   27.9390   46.8957 H   0  0  0  0  0  0  0  0  0  0  0  0
   58.0046   29.7186   43.3447 H   0  0  0  0  0  0  0  0  0  0  0  0
   56.7790   28.4314   43.0518 H   0  0  0  0  0  0  0  0  0  0  0  0
   58.5352   31.7156   44.5268 H   0  0  0  0  0  0  0  0  0  0  0  0
   57.1325   32.0532   43.4268 H   0  0  0  0  0  0  0  0  0  0  0  0
   56.4677   33.8654   44.5436 H   0  0  0  0  0  0  0  0  0  0  0  0
   58.7066   34.3797   43.6929 H   0  0  0  0  0  0  0  0  0  0  0  0
   58.3101   35.3531   45.1677 H   0  0  0  0  0  0  0  0  0  0  0  0
   60.1704   32.9672   44.9119 H   0  0  0  0  0  0  0  0  0  0  0  0
   60.5247   34.6659   45.4698 H   0  0  0  0  0  0  0  0  0  0  0  0
   60.5741   33.3656   51.0377 H   0  0  0  0  0  0  0  0  0  0  0  0
   59.1050   33.5221   50.0159 H   0  0  0  0  0  0  0  0  0  0  0  0
   60.0399   31.9882   50.0159 H   0  0  0  0  0  0  0  0  0  0  0  0
   62.3055   34.3419   50.3795 H   0  0  0  0  0  0  0  0  0  0  0  0
   63.0307   33.7163   48.8598 H   0  0  0  0  0  0  0  0  0  0  0  0
   62.1627   35.2890   48.8598 H   0  0  0  0  0  0  0  0  0  0  0  0
   58.1849   32.5692   48.1675 H   0  0  0  0  0  0  0  0  0  0  0  0
   58.1915   34.4130   48.0622 H   0  0  0  0  0  0  0  0  0  0  0  0
   56.4335   32.5364   46.7951 H   0  0  0  0  0  0  0  0  0  0  0  0
   56.4795   34.3800   46.7670 H   0  0  0  0  0  0  0  0  0  0  0  0
  1  2  1  0
  2  3  1  0
  3  4  2  0
  4  5  1  0
  5  6  1  0
  5  7  2  0
  7  8  1  0
  8  9  2  0
  9 10  1  0
 10 11  1  0
 11 12  2  0
 12 13  1  0
 13 14  2  0
 13 15  1  0
 15 16  1  0
 16 17  1  0
 17 18  2  0
 17 19  1  0
 19 20  1  0
 20 21  1  0
 21 22  1  0
 22 23  1  0
 23 24  1  0
 24 25  1  0
 25 26  2  0
 25 27  1  0
 27 28  1  0
 27 29  1  0
 24 30  1  0
 30 31  1  0
 15 32  1  0
  9  3  1  0
 32 10  2  0
 31 21  1  0
  1 33  1  0
  1 34  1  0
  1 35  1  0
  4 36  1  0
  7 37  1  0
  8 38  1  0
 11 39  1  0
 12 40  1  0
 16 41  1  0
 16 42  1  0
 20 43  1  0
 20 44  1  0
 21 45  1  0
 22 46  1  0
 22 47  1  0
 23 48  1  0
 23 49  1  0
 28 50  1  0
 28 51  1  0
 28 52  1  0
 29 53  1  0
 29 54  1  0
 29 55  1  0
 30 56  1  0
 30 57  1  0
 31 58  1  0
 31 59  1  0
M  CHG  1  19  -1
M  END
>  <UniqueID>  (45) 
42

>  <SMILES>  (45) 
COc1cc(F)ccc1-c1ccc(=O)n(CC(=O)[N-]CC2CCN(C(=O)N(C)C)CC2)n1

>  <Energy>  (45) 
71.96572954450968

>  <Genealogy>  (45) 
COc1cc(F)ccc1-c1ccc(=O)n(CC(=O)[N-]CC2CCN(C(=O)N(C)C)CC2)n1 (protonated)
COc1cc(F)ccc1-c1ccc(=O)n(CC(=O)[N-]CC2CCN(C(=O)N(C)C)CC2)n1 (3D coordinates assigned)
COc1cc(F)ccc1-c1ccc(=O)n(CC(=O)[N-]CC2CCN(C(=O)N(C)C)CC2)n1 (nonaromatic ring conformer: 71.96572954450968 kcal/mol)

>  <smiles>  (45) 
COc1cc(F)ccc1-c1ccc(=O)n(CC(=O)NCC2CCN(C(=O)N(C)C)CC2)n1

>  <score_type>  (45) 
oracle

>  <origin>  (45) 
adg

>  <m_score__min__energy>  (45) 
-10.5

>  <m_primary>  (45) 
energy

$$$$
45:0
     RDKit          3D

 65 69  0  0  0  0  0  0  0  0999 V2000
   67.3090   28.8480   51.8380 C   0  0  0  0  0  0  0  0  0  0  0  0
   66.7850   30.1310   52.1630 O   0  0  0  0  0  0  0  0  0  0  0  0
   65.9410   30.8780   51.3270 C   0  0  0  0  0  0  0  0  0  0  0  0
   66.3920   31.9970   50.6070 C   0  0  0  0  0  0  0  0  0  0  0  0
   65.5190   32.7020   49.7790 C   0  0  0  0  0  0  0  0  0  0  0  0
   64.1770   32.3080   49.6590 C   0  0  0  0  0  0  0  0  0  0  0  0
   63.3320   33.0050   48.8460 N   0  0  0  0  0  0  0  0  0  0  0  0
   62.0170   32.6630   48.7090 C   0  0  0  0  0  0  0  0  0  0  0  0
   61.1500   33.4390   47.8560 N   0  0  0  0  0  0  0  0  0  0  0  0
   60.0650   34.2330   48.4530 C   0  0  0  0  0  0  0  0  0  0  0  0
   59.5750   35.3170   47.4870 C   0  0  0  0  0  0  0  0  0  0  0  0
   59.1600   34.7270   46.1230 C   0  0  0  0  0  0  0  0  0  0  0  0
   57.7620   34.2590   46.2110 N   0  0  0  0  0  0  0  0  0  0  0  0
   57.5880   32.8620   45.7820 C   0  0  0  0  0  0  0  0  0  0  0  0
   57.3340   32.7700   44.2700 C   0  0  0  0  0  0  0  0  0  0  0  0
   57.9130   31.4850   43.6650 C   0  0  0  0  0  0  0  0  0  0  0  0
   57.3640   30.2800   44.3700 C   0  0  0  0  0  0  0  0  0  0  0  0
   56.1270   29.6850   44.1430 C   0  0  0  0  0  0  0  0  0  0  0  0
   55.9860   28.5810   44.9120 N   0  0  0  0  0  0  0  0  0  0  0  0
   57.1280   28.4690   45.6130 C   0  0  0  0  0  0  0  0  0  0  0  0
   57.4590   27.4750   46.5330 C   0  0  0  0  0  0  0  0  0  0  0  0
   58.7240   27.5390   47.1460 C   0  0  0  0  0  0  0  0  0  0  0  0
   59.6230   28.5830   46.8250 C   0  0  0  0  0  0  0  0  0  0  0  0
   60.8390   28.6320   47.4240 F   0  0  0  0  0  0  0  0  0  0  0  0
   59.2620   29.5700   45.8890 C   0  0  0  0  0  0  0  0  0  0  0  0
   57.9990   29.4830   45.3040 C   0  0  0  0  0  0  0  0  0  0  0  0
   60.1180   33.6010   45.6300 C   0  0  0  0  0  0  0  0  0  0  0  0
   61.4310   33.5440   46.4180 C   0  0  0  0  0  0  0  0  0  0  0  0
   61.5120   31.5650   49.4160 C   0  0  0  0  0  0  0  0  0  0  0  0
   62.3460   30.8160   50.2560 C   0  0  0  0  0  0  0  0  0  0  0  0
   61.7730   29.6170   50.9730 C   0  0  0  0  0  0  0  0  0  0  0  0
   63.7050   31.1900   50.3870 C   0  0  0  0  0  0  0  0  0  0  0  0
   64.6030   30.4820   51.2140 C   0  0  0  0  0  0  0  0  0  0  0  0
   67.5335   28.2983   52.7640 H   0  0  0  0  0  0  0  0  0  0  0  0
   66.5677   28.2875   51.2494 H   0  0  0  0  0  0  0  0  0  0  0  0
   68.2307   28.9667   51.2494 H   0  0  0  0  0  0  0  0  0  0  0  0
   67.4400   32.3189   50.6969 H   0  0  0  0  0  0  0  0  0  0  0  0
   65.8847   33.5732   49.2158 H   0  0  0  0  0  0  0  0  0  0  0  0
   63.6960   33.8330   48.3260 H   0  0  0  0  0  0  0  0  0  0  0  0
   59.2258   33.5658   48.6991 H   0  0  0  0  0  0  0  0  0  0  0  0
   60.4501   34.7227   49.3596 H   0  0  0  0  0  0  0  0  0  0  0  0
   58.7076   35.8254   47.9333 H   0  0  0  0  0  0  0  0  0  0  0  0
   60.4027   36.0211   47.3163 H   0  0  0  0  0  0  0  0  0  0  0  0
   59.2360   35.5208   45.3653 H   0  0  0  0  0  0  0  0  0  0  0  0
   57.4130   34.3620   47.1920 H   0  0  0  0  0  0  0  0  0  0  0  0
   58.4985   32.2957   46.0275 H   0  0  0  0  0  0  0  0  0  0  0  0
   56.7163   32.4437   46.3066 H   0  0  0  0  0  0  0  0  0  0  0  0
   56.2489   32.7888   44.0908 H   0  0  0  0  0  0  0  0  0  0  0  0
   57.8326   33.6250   43.7900 H   0  0  0  0  0  0  0  0  0  0  0  0
   57.6458   31.4341   42.5992 H   0  0  0  0  0  0  0  0  0  0  0  0
   59.0068   31.4980   43.7809 H   0  0  0  0  0  0  0  0  0  0  0  0
   55.3704   30.0594   43.4378 H   0  0  0  0  0  0  0  0  0  0  0  0
   55.1580   27.9440   44.9420 H   0  0  0  0  0  0  0  0  0  0  0  0
   56.7532   26.6659   46.7722 H   0  0  0  0  0  0  0  0  0  0  0  0
   59.0156   26.7726   47.8792 H   0  0  0  0  0  0  0  0  0  0  0  0
   59.9539   30.3841   45.6272 H   0  0  0  0  0  0  0  0  0  0  0  0
   59.6046   32.6337   45.7339 H   0  0  0  0  0  0  0  0  0  0  0  0
   60.3723   33.8207   44.5826 H   0  0  0  0  0  0  0  0  0  0  0  0
   62.0117   32.6672   46.0954 H   0  0  0  0  0  0  0  0  0  0  0  0
   62.0058   34.4625   46.2286 H   0  0  0  0  0  0  0  0  0  0  0  0
   60.4525   31.2885   49.3110 H   0  0  0  0  0  0  0  0  0  0  0  0
   61.8462   29.7702   52.0598 H   0  0  0  0  0  0  0  0  0  0  0  0
   60.7173   29.4910   50.6908 H   0  0  0  0  0  0  0  0  0  0  0  0
   62.3380   28.7164   50.6908 H   0  0  0  0  0  0  0  0  0  0  0  0
   64.2468   29.6070   51.7775 H   0  0  0  0  0  0  0  0  0  0  0  0
  1  2  1  0
  2  3  1  0
  3  4  2  0
  4  5  1  0
  5  6  2  0
  6  7  1  0
  7  8  2  0
  8  9  1  0
  9 10  1  0
 10 11  1  0
 11 12  1  0
 12 13  1  0
 13 14  1  0
 14 15  1  0
 15 16  1  0
 16 17  1  0
 17 18  2  0
 18 19  1  0
 19 20  1  0
 20 21  2  0
 21 22  1  0
 22 23  2  0
 23 24  1  0
 23 25  1  0
 25 26  2  0
 12 27  1  0
 27 28  1  0
  8 29  1  0
 29 30  2  0
 30 31  1  0
 30 32  1  0
 32 33  2  0
 33  3  1  0
 32  6  1  0
 28  9  1  0
 26 17  1  0
 26 20  1  0
  1 34  1  0
  1 35  1  0
  1 36  1  0
  4 37  1  0
  5 38  1  0
  7 39  1  0
 10 40  1  0
 10 41  1  0
 11 42  1  0
 11 43  1  0
 12 44  1  0
 13 45  1  0
 14 46  1  0
 14 47  1  0
 15 48  1  0
 15 49  1  0
 16 50  1  0
 16 51  1  0
 18 52  1  0
 19 53  1  0
 21 54  1  0
 22 55  1  0
 25 56  1  0
 27 57  1  0
 27 58  1  0
 28 59  1  0
 28 60  1  0
 29 61  1  0
 31 62  1  0
 31 63  1  0
 31 64  1  0
 33 65  1  0
M  CHG  1   7   1
M  END
>  <UniqueID>  (46) 
43

>  <SMILES>  (46) 
COc1ccc2[nH+]c(N3CCC(NCCCc4c[nH]c5ccc(F)cc45)CC3)cc(C)c2c1

>  <Energy>  (46) 
108.68183918577023

>  <Genealogy>  (46) 
COc1ccc2[nH+]c(N3CCC(NCCCc4c[nH]c5ccc(F)cc45)CC3)cc(C)c2c1 (protonated)
COc1ccc2[nH+]c(N3CCC(NCCCc4c[nH]c5ccc(F)cc45)CC3)cc(C)c2c1 (3D coordinates assigned)
COc1ccc2[nH+]c(N3CCC(NCCCc4c[nH]c5ccc(F)cc45)CC3)cc(C)c2c1 (nonaromatic ring conformer: 108.68183918577023 kcal/mol)

>  <smiles>  (46) 
COc1ccc2nc(N3CCC(NCCCc4c[nH]c5ccc(F)cc45)CC3)cc(C)c2c1

>  <score_type>  (46) 
oracle

>  <origin>  (46) 
adg

>  <m_score__min__energy>  (46) 
-7.8499999999999996

>  <m_primary>  (46) 
energy

$$$$
46:0
     RDKit          3D

 61 64  0  0  0  0  0  0  0  0999 V2000
   56.9040   33.4860   47.0240 O   0  0  0  0  0  0  0  0  0  0  0  0
   57.7720   33.9600   46.2430 C   0  0  0  0  0  0  0  0  0  0  0  0
   57.4620   34.1280   44.8970 O   0  0  0  0  0  0  0  0  0  0  0  0
   59.1060   34.4240   46.7620 C   0  0  0  0  0  0  0  0  0  0  0  0
   59.9970   33.2500   47.2170 C   0  0  2  0  0  0  0  0  0  0  0  0
   61.2010   33.2210   46.3860 N   0  0  0  0  0  0  0  0  0  0  0  0
   62.5020   32.8660   46.8640 C   0  0  0  0  0  0  0  0  0  0  0  0
   62.9070   31.6750   46.7970 O   0  0  0  0  0  0  0  0  0  0  0  0
   63.3750   33.9190   47.4710 C   0  0  0  0  0  0  0  0  0  0  0  0
   63.8300   33.5070   48.8440 C   0  0  0  0  0  0  0  0  0  0  0  0
   64.9400   33.0180   48.9970 O   0  0  0  0  0  0  0  0  0  0  0  0
   62.9020   33.6270   50.0240 C   0  0  0  0  0  0  0  0  0  0  0  0
   61.8270   32.5260   49.9990 C   0  0  2  0  0  0  0  0  0  0  0  0
   61.1750   32.4510   51.2460 O   0  0  0  0  0  0  0  0  0  0  0  0
   60.7570   31.1100   51.4310 C   0  0  1  0  0  0  0  0  0  0  0  0
   59.2830   31.0100   51.5430 N   0  0  0  0  0  0  0  0  0  0  0  0
   58.5040   32.1400   51.5400 C   0  0  0  0  0  0  0  0  0  0  0  0
   57.1150   32.0470   51.5990 C   0  0  0  0  0  0  0  0  0  0  0  0
   56.5340   30.7840   51.6560 C   0  0  0  0  0  0  0  0  0  0  0  0
   55.2810   30.6620   51.7030 O   0  0  0  0  0  0  0  0  0  0  0  0
   57.3210   29.6810   51.6550 N   0  0  0  0  0  0  0  0  0  0  0  0
   58.6760   29.7770   51.5940 C   0  0  0  0  0  0  0  0  0  0  0  0
   59.3620   28.7200   51.5780 O   0  0  0  0  0  0  0  0  0  0  0  0
   61.3180   30.2320   50.2960 C   0  0  1  0  0  0  0  0  0  0  0  0
   60.3280   29.8310   49.3740 O   0  0  0  0  0  0  0  0  0  0  0  0
   62.3520   31.1310   49.6480 C   0  0  2  0  0  0  0  0  0  0  0  0
   63.6370   30.8840   50.1740 O   0  0  0  0  0  0  0  0  0  0  0  0
   59.2790   31.9170   47.1140 C   0  0  0  0  0  0  0  0  0  0  0  0
   58.7770   31.3970   48.1440 O   0  0  0  0  0  0  0  0  0  0  0  0
   59.1090   31.2510   45.8550 N   0  0  0  0  0  0  0  0  0  0  0  0
   58.1110   30.4760   45.5230 C   0  0  0  0  0  0  0  0  0  0  0  0
   57.0370   30.9460   44.7380 C   0  0  0  0  0  0  0  0  0  0  0  0
   55.9780   30.0940   44.4230 C   0  0  0  0  0  0  0  0  0  0  0  0
   55.9720   28.8140   44.8730 N   0  0  0  0  0  0  0  0  0  0  0  0
   56.9840   28.3150   45.6290 C   0  0  0  0  0  0  0  0  0  0  0  0
   56.9280   26.9880   46.0730 C   0  0  0  0  0  0  0  0  0  0  0  0
   57.9620   26.4630   46.8540 C   0  0  0  0  0  0  0  0  0  0  0  0
   59.0590   27.2600   47.1870 C   0  0  0  0  0  0  0  0  0  0  0  0
   59.1280   28.5870   46.7510 C   0  0  0  0  0  0  0  0  0  0  0  0
   58.0870   29.1360   45.9720 C   0  0  0  0  0  0  0  0  0  0  0  0
   59.6251   34.9731   45.9626 H   0  0  0  0  0  0  0  0  0  0  0  0
   58.9225   35.0660   47.6362 H   0  0  0  0  0  0  0  0  0  0  0  0
   60.2560   33.4058   48.2747 H   0  0  0  0  0  0  0  0  0  0  0  0
   64.2555   34.0716   46.8296 H   0  0  0  0  0  0  0  0  0  0  0  0
   62.7974   34.8514   47.5552 H   0  0  0  0  0  0  0  0  0  0  0  0
   63.4868   33.5369   50.9513 H   0  0  0  0  0  0  0  0  0  0  0  0
   62.4009   34.6051   49.9758 H   0  0  0  0  0  0  0  0  0  0  0  0
   61.1359   32.8232   49.1965 H   0  0  0  0  0  0  0  0  0  0  0  0
   61.1611   30.7378   52.3840 H   0  0  0  0  0  0  0  0  0  0  0  0
   58.9814   33.1298   51.4905 H   0  0  0  0  0  0  0  0  0  0  0  0
   56.4910   32.9529   51.6005 H   0  0  0  0  0  0  0  0  0  0  0  0
   61.7321   29.2831   50.6677 H   0  0  0  0  0  0  0  0  0  0  0  0
   59.4390   30.0730   49.7420 H   0  0  0  0  0  0  0  0  0  0  0  0
   62.4718   30.9809   48.5649 H   0  0  0  0  0  0  0  0  0  0  0  0
   64.3080   31.2630   49.5470 H   0  0  0  0  0  0  0  0  0  0  0  0
   57.0346   31.9841   44.3743 H   0  0  0  0  0  0  0  0  0  0  0  0
   55.1441   30.4617   43.8070 H   0  0  0  0  0  0  0  0  0  0  0  0
   56.0676   26.3566   45.8064 H   0  0  0  0  0  0  0  0  0  0  0  0
   57.9113   25.4221   47.2061 H   0  0  0  0  0  0  0  0  0  0  0  0
   59.8739   26.8416   47.7960 H   0  0  0  0  0  0  0  0  0  0  0  0
   59.9978   29.2058   47.0165 H   0  0  0  0  0  0  0  0  0  0  0  0
  1  2  2  0
  2  3  1  0
  2  4  1  0
  4  5  1  0
  5  6  1  0
  6  7  1  0
  7  8  2  0
  7  9  1  0
  9 10  1  0
 10 11  2  0
 10 12  1  0
 12 13  1  0
 13 14  1  0
 14 15  1  0
 15 16  1  0
 16 17  1  0
 17 18  2  0
 18 19  1  0
 19 20  2  0
 19 21  1  0
 21 22  1  0
 22 23  2  0
 15 24  1  0
 24 25  1  0
 24 26  1  0
 26 27  1  0
  5 28  1  0
 28 29  2  0
 28 30  1  0
 30 31  2  3
 31 32  1  0
 32 33  2  0
 33 34  1  0
 34 35  1  0
 35 36  2  0
 36 37  1  0
 37 38  2  0
 38 39  1  0
 39 40  2  0
 26 13  1  0
 40 31  1  0
 22 16  1  0
 40 35  1  0
  4 41  1  0
  4 42  1  0
  5 43  1  1
  9 44  1  0
  9 45  1  0
 12 46  1  0
 12 47  1  0
 13 48  1  6
 15 49  1  1
 17 50  1  0
 18 51  1  0
 24 52  1  1
 25 53  1  0
 26 54  1  6
 27 55  1  0
 32 56  1  0
 33 57  1  0
 36 58  1  0
 37 59  1  0
 38 60  1  0
 39 61  1  0
M  CHG  4   3  -1   6  -1  21  -1  34  -1
M  END
>  <UniqueID>  (47) 
44

>  <SMILES>  (47) 
O=C([O-])C[C@H]([N-]C(=O)CC(=O)C[C@@H]1OC(n2ccc(=O)[n-]c2=O)C(O)C1O)C(=O)N=c1cc[n-]c2ccccc12

>  <Energy>  (47) 
85.03431990082642

>  <Genealogy>  (47) 
O=C([O-])CC([N-]C(=O)CC(=O)CC1OC(n2ccc(=O)[n-]c2=O)C(O)C1O)C(=O)N=c1cc[n-]c2ccccc12 (protonated)
O=C([O-])C[C@H]([N-]C(=O)CC(=O)C[C@@H]1OC(n2ccc(=O)[n-]c2=O)C(O)C1O)C(=O)N=c1cc[n-]c2ccccc12 (chirality)
O=C([O-])C[C@H]([N-]C(=O)CC(=O)C[C@@H]1OC(n2ccc(=O)[n-]c2=O)C(O)C1O)C(=O)N=c1cc[n-]c2ccccc12 (3D coordinates assigned)
O=C([O-])C[C@H]([N-]C(=O)CC(=O)C[C@@H]1OC(n2ccc(=O)[n-]c2=O)C(O)C1O)C(=O)N=c1cc[n-]c2ccccc12 (nonaromatic ring conformer: 85.03431990082642 kcal/mol)

>  <smiles>  (47) 
O=C(O)CC(NC(=O)CC(=O)CC1OC(n2ccc(=O)[nH]c2=O)C(O)C1O)C(=O)N=c1cc[nH]c2ccccc12

>  <score_type>  (47) 
oracle

>  <origin>  (47) 
adg

>  <m_score__min__energy>  (47) 
-15.31

>  <m_primary>  (47) 
energy

$$$$
47:0
     RDKit          3D

 43 45  0  0  0  0  0  0  0  0999 V2000
   57.1550   25.4010   46.7790 C   0  0  0  0  0  0  0  0  0  0  0  0
   57.7940   26.5840   46.1140 C   0  0  0  0  0  0  0  0  0  0  0  0
   59.1820   26.6100   45.9230 C   0  0  0  0  0  0  0  0  0  0  0  0
   59.7790   27.6780   45.2480 C   0  0  0  0  0  0  0  0  0  0  0  0
   58.9950   28.7220   44.7550 C   0  0  0  0  0  0  0  0  0  0  0  0
   57.6040   28.7210   44.9550 C   0  0  0  0  0  0  0  0  0  0  0  0
   56.7600   29.8420   44.4040 C   0  0  0  0  0  0  0  0  0  0  0  0
   56.9490   31.0940   45.1570 N   0  0  0  0  0  0  0  0  0  0  0  0
   58.1290   31.9070   44.7830 C   0  0  1  0  0  0  0  0  0  0  0  0
   57.7710   33.2110   44.0180 C   0  0  0  0  0  0  0  0  0  0  0  0
   57.8800   34.4810   44.8680 C   0  0  0  0  0  0  0  0  0  0  0  0
   59.2530   34.5690   45.5200 C   0  0  0  0  0  0  0  0  0  0  0  0
   59.4850   33.4080   46.3840 N   0  0  0  0  0  0  0  0  0  0  0  0
   60.2620   33.5740   47.5840 C   0  0  0  0  0  0  0  0  0  0  0  0
   61.6630   33.5890   47.5230 C   0  0  0  0  0  0  0  0  0  0  0  0
   62.4120   33.7640   48.6880 C   0  0  0  0  0  0  0  0  0  0  0  0
   61.7510   33.9100   49.9090 C   0  0  0  0  0  0  0  0  0  0  0  0
   60.3930   33.8780   49.9560 N   0  0  0  0  0  0  0  0  0  0  0  0
   59.6420   33.7120   48.8350 C   0  0  0  0  0  0  0  0  0  0  0  0
   59.0680   32.0960   45.9520 C   0  0  0  0  0  0  0  0  0  0  0  0
   59.4770   31.0710   46.5630 O   0  0  0  0  0  0  0  0  0  0  0  0
   57.0070   27.6360   45.6190 C   0  0  0  0  0  0  0  0  0  0  0  0
   57.2173   25.5164   47.8712 H   0  0  0  0  0  0  0  0  0  0  0  0
   56.0993   25.3364   46.4768 H   0  0  0  0  0  0  0  0  0  0  0  0
   57.6798   24.4827   46.4768 H   0  0  0  0  0  0  0  0  0  0  0  0
   59.8036   25.7871   46.3056 H   0  0  0  0  0  0  0  0  0  0  0  0
   60.8695   27.6959   45.1049 H   0  0  0  0  0  0  0  0  0  0  0  0
   59.4683   29.5500   44.2070 H   0  0  0  0  0  0  0  0  0  0  0  0
   57.0383   30.0134   43.3537 H   0  0  0  0  0  0  0  0  0  0  0  0
   55.7037   29.5479   44.4917 H   0  0  0  0  0  0  0  0  0  0  0  0
   57.0320   30.8510   46.1720 H   0  0  0  0  0  0  0  0  0  0  0  0
   58.6951   31.3277   44.0387 H   0  0  0  0  0  0  0  0  0  0  0  0
   58.4541   33.3083   43.1613 H   0  0  0  0  0  0  0  0  0  0  0  0
   56.7183   33.1219   43.7117 H   0  0  0  0  0  0  0  0  0  0  0  0
   57.7270   35.3608   44.2258 H   0  0  0  0  0  0  0  0  0  0  0  0
   57.1130   34.4491   45.6559 H   0  0  0  0  0  0  0  0  0  0  0  0
   60.0248   34.5976   44.7367 H   0  0  0  0  0  0  0  0  0  0  0  0
   59.2995   35.4826   46.1308 H   0  0  0  0  0  0  0  0  0  0  0  0
   62.1722   33.4627   46.5562 H   0  0  0  0  0  0  0  0  0  0  0  0
   63.5109   33.7866   48.6444 H   0  0  0  0  0  0  0  0  0  0  0  0
   62.3297   34.0511   50.8338 H   0  0  0  0  0  0  0  0  0  0  0  0
   58.5448   33.6858   48.9090 H   0  0  0  0  0  0  0  0  0  0  0  0
   55.9154   27.6107   45.7519 H   0  0  0  0  0  0  0  0  0  0  0  0
  1  2  1  0
  2  3  2  0
  3  4  1  0
  4  5  2  0
  5  6  1  0
  6  7  1  0
  7  8  1  0
  8  9  1  0
  9 10  1  0
 10 11  1  0
 11 12  1  0
 12 13  1  0
 13 14  1  0
 14 15  2  0
 15 16  1  0
 16 17  2  0
 17 18  1  0
 18 19  2  0
 13 20  1  0
 20 21  2  0
  6 22  2  0
 22  2  1  0
 20  9  1  0
 19 14  1  0
  1 23  1  0
  1 24  1  0
  1 25  1  0
  3 26  1  0
  4 27  1  0
  5 28  1  0
  7 29  1  0
  7 30  1  0
  8 31  1  0
  9 32  1  6
 10 33  1  0
 10 34  1  0
 11 35  1  0
 11 36  1  0
 12 37  1  0
 12 38  1  0
 15 39  1  0
 16 40  1  0
 17 41  1  0
 19 42  1  0
 22 43  1  0
M  END
>  <UniqueID>  (48) 
45

>  <SMILES>  (48) 
Cc1cccc(CN[C@H]2CCCN(c3cccnc3)C2=O)c1

>  <Energy>  (48) 
52.00598831296711

>  <Genealogy>  (48) 
Cc1cccc(CN[C@H]2CCCN(c3cccnc3)C2=O)c1 (chirality)
Cc1cccc(CN[C@H]2CCCN(c3cccnc3)C2=O)c1 (3D coordinates assigned)
Cc1cccc(CN[C@H]2CCCN(c3cccnc3)C2=O)c1 (nonaromatic ring conformer: 52.00598831296711 kcal/mol)

>  <smiles>  (48) 
Cc1cccc(CNC2CCCN(c3cccnc3)C2=O)c1

>  <score_type>  (48) 
oracle

>  <origin>  (48) 
adg

>  <m_score__min__energy>  (48) 
-8.5099999999999998

>  <m_primary>  (48) 
energy

$$$$
48:0
     RDKit          3D

 73 77  0  0  0  0  0  0  0  0999 V2000
   64.9760   29.8010   54.1630 C   0  0  0  0  0  0  0  0  0  0  0  0
   64.1570   28.9040   53.2720 C   0  0  0  0  0  0  0  0  0  0  0  0
   64.4170   27.5220   53.2490 C   0  0  0  0  0  0  0  0  0  0  0  0
   63.6730   26.6700   52.4240 C   0  0  0  0  0  0  0  0  0  0  0  0
   62.6590   27.1890   51.6180 C   0  0  0  0  0  0  0  0  0  0  0  0
   62.3910   28.5590   51.6260 C   0  0  0  0  0  0  0  0  0  0  0  0
   63.1430   29.4270   52.4360 C   0  0  0  0  0  0  0  0  0  0  0  0
   62.8600   30.8740   52.3830 C   0  0  0  0  0  0  0  0  0  0  0  0
   61.7220   31.2690   52.7560 O   0  0  0  0  0  0  0  0  0  0  0  0
   63.8410   31.8270   51.9070 N   0  0  0  0  0  0  0  0  0  0  0  0
   63.5440   33.2690   52.0150 C   0  0  0  0  0  0  0  0  0  0  0  0
   64.3950   34.1080   51.0470 C   0  0  0  0  0  0  0  0  0  0  0  0
   64.6820   33.3140   49.7630 C   0  0  0  0  0  0  0  0  0  0  0  0
   63.3740   32.9410   49.1360 N   0  0  0  0  0  0  0  0  0  0  0  0
   62.3310   33.9680   49.3800 C   0  0  0  0  0  0  0  0  0  0  0  0
   61.0300   33.7170   48.5840 C   0  0  0  0  0  0  0  0  0  0  0  0
   60.9270   32.3160   48.1510 N   0  0  0  0  0  0  0  0  0  0  0  0
   59.6970   31.5780   48.3190 C   0  0  0  0  0  0  0  0  0  0  0  0
   58.6610   32.1540   48.7510 O   0  0  0  0  0  0  0  0  0  0  0  0
   59.6350   30.1280   48.0450 C   0  0  0  0  0  0  0  0  0  0  0  0
   59.5970   29.2140   49.1190 C   0  0  0  0  0  0  0  0  0  0  0  0
   59.5490   29.8040   50.9450 Br  0  0  0  0  0  0  0  0  0  0  0  0
   59.6390   27.8390   48.8670 C   0  0  0  0  0  0  0  0  0  0  0  0
   59.7350   27.3650   47.5570 C   0  0  0  0  0  0  0  0  0  0  0  0
   59.7820   28.2630   46.4890 C   0  0  0  0  0  0  0  0  0  0  0  0
   59.7140   29.6420   46.7200 C   0  0  0  0  0  0  0  0  0  0  0  0
   59.7640   30.5090   45.6210 O   0  0  0  0  0  0  0  0  0  0  0  0
   58.9050   31.6030   45.4330 C   0  0  0  0  0  0  0  0  0  0  0  0
   59.3660   32.9230   45.6030 C   0  0  0  0  0  0  0  0  0  0  0  0
   58.5000   34.0030   45.4200 C   0  0  0  0  0  0  0  0  0  0  0  0
   57.1710   33.7800   45.0640 C   0  0  0  0  0  0  0  0  0  0  0  0
   56.6980   32.4760   44.9020 C   0  0  0  0  0  0  0  0  0  0  0  0
   57.5530   31.3810   45.0970 C   0  0  0  0  0  0  0  0  0  0  0  0
   56.9200   29.7480   44.8640 S   0  0  0  0  0  0  0  0  0  0  0  0
   55.2380   29.8240   44.4780 N   0  0  0  0  0  0  0  0  0  0  0  0
   57.0850   28.9360   46.1190 O   0  0  0  0  0  0  0  0  0  0  0  0
   57.6580   29.0830   43.7370 O   0  0  0  0  0  0  0  0  0  0  0  0
   62.0890   31.6770   47.5140 C   0  0  0  0  0  0  0  0  0  0  0  0
   63.3620   32.4910   47.7330 C   0  0  0  0  0  0  0  0  0  0  0  0
   65.6110   32.1340   50.1490 C   0  0  0  0  0  0  0  0  0  0  0  0
   65.1710   31.3940   51.4360 C   0  0  0  0  0  0  0  0  0  0  0  0
   64.7617   29.5663   55.2161 H   0  0  0  0  0  0  0  0  0  0  0  0
   66.0454   29.6402   53.9618 H   0  0  0  0  0  0  0  0  0  0  0  0
   64.7189   30.8514   53.9618 H   0  0  0  0  0  0  0  0  0  0  0  0
   65.2124   27.1066   53.8852 H   0  0  0  0  0  0  0  0  0  0  0  0
   63.8878   25.5913   52.4112 H   0  0  0  0  0  0  0  0  0  0  0  0
   62.0701   26.5178   50.9756 H   0  0  0  0  0  0  0  0  0  0  0  0
   61.5858   28.9618   50.9940 H   0  0  0  0  0  0  0  0  0  0  0  0
   62.4807   33.4306   51.7841 H   0  0  0  0  0  0  0  0  0  0  0  0
   63.7823   33.5885   53.0402 H   0  0  0  0  0  0  0  0  0  0  0  0
   63.8507   35.0287   50.7902 H   0  0  0  0  0  0  0  0  0  0  0  0
   65.3492   34.3575   51.5340 H   0  0  0  0  0  0  0  0  0  0  0  0
   65.2167   33.8863   48.9906 H   0  0  0  0  0  0  0  0  0  0  0  0
   62.0889   33.9721   50.4530 H   0  0  0  0  0  0  0  0  0  0  0  0
   62.7382   34.9331   49.0441 H   0  0  0  0  0  0  0  0  0  0  0  0
   60.1676   33.9583   49.2228 H   0  0  0  0  0  0  0  0  0  0  0  0
   61.0438   34.3556   47.6885 H   0  0  0  0  0  0  0  0  0  0  0  0
   59.5962   27.1274   49.7048 H   0  0  0  0  0  0  0  0  0  0  0  0
   59.7737   26.2824   47.3662 H   0  0  0  0  0  0  0  0  0  0  0  0
   59.8730   27.8847   45.4601 H   0  0  0  0  0  0  0  0  0  0  0  0
   60.4146   33.1042   45.8816 H   0  0  0  0  0  0  0  0  0  0  0  0
   58.8670   35.0309   45.5569 H   0  0  0  0  0  0  0  0  0  0  0  0
   56.4934   34.6328   44.9103 H   0  0  0  0  0  0  0  0  0  0  0  0
   55.6484   32.3064   44.6197 H   0  0  0  0  0  0  0  0  0  0  0  0
   54.7220   29.3490   45.2520 H   0  0  0  0  0  0  0  0  0  0  0  0
   62.2268   30.6743   47.9448 H   0  0  0  0  0  0  0  0  0  0  0  0
   61.8999   31.6145   46.4322 H   0  0  0  0  0  0  0  0  0  0  0  0
   64.2448   31.8659   47.5331 H   0  0  0  0  0  0  0  0  0  0  0  0
   63.3871   33.3549   47.0525 H   0  0  0  0  0  0  0  0  0  0  0  0
   65.6199   31.4124   49.3188 H   0  0  0  0  0  0  0  0  0  0  0  0
   66.6067   32.5582   50.3453 H   0  0  0  0  0  0  0  0  0  0  0  0
   65.1381   30.3142   51.2289 H   0  0  0  0  0  0  0  0  0  0  0  0
   65.8998   31.6310   52.2251 H   0  0  0  0  0  0  0  0  0  0  0  0
  1  2  1  0
  2  3  2  0
  3  4  1  0
  4  5  2  0
  5  6  1  0
  6  7  2  0
  7  8  1  0
  8  9  2  0
  8 10  1  0
 10 11  1  0
 11 12  1  0
 12 13  1  0
 13 14  1  0
 14 15  1  0
 15 16  1  0
 16 17  1  0
 17 18  1  0
 18 19  2  0
 18 20  1  0
 20 21  2  0
 21 22  1  0
 21 23  1  0
 23 24  2  0
 24 25  1  0
 25 26  2  0
 26 27  1  0
 27 28  1  0
 28 29  2  0
 29 30  1  0
 30 31  2  0
 31 32  1  0
 32 33  2  0
 33 34  1  0
 34 35  1  0
 34 36  2  0
 34 37  2  0
 17 38  1  0
 38 39  1  0
 13 40  1  0
 40 41  1  0
  7  2  1  0
 41 10  1  0
 39 14  1  0
 26 20  1  0
 33 28  1  0
  1 42  1  0
  1 43  1  0
  1 44  1  0
  3 45  1  0
  4 46  1  0
  5 47  1  0
  6 48  1  0
 11 49  1  0
 11 50  1  0
 12 51  1  0
 12 52  1  0
 13 53  1  0
 15 54  1  0
 15 55  1  0
 16 56  1  0
 16 57  1  0
 23 58  1  0
 24 59  1  0
 25 60  1  0
 29 61  1  0
 30 62  1  0
 31 63  1  0
 32 64  1  0
 35 65  1  0
 38 66  1  0
 38 67  1  0
 39 68  1  0
 39 69  1  0
 40 70  1  0
 40 71  1  0
 41 72  1  0
 41 73  1  0
M  CHG  1  35  -1
M  END
>  <UniqueID>  (49) 
46

>  <SMILES>  (49) 
Cc1ccccc1C(=O)N1CCC(N2CCN(C(=O)c3c(Br)cccc3Oc3ccccc3S([NH-])(=O)=O)CC2)CC1

>  <Energy>  (49) 
116.90572224606801

>  <Genealogy>  (49) 
Cc1ccccc1C(=O)N1CCC(N2CCN(C(=O)c3c(Br)cccc3Oc3ccccc3S([NH-])(=O)=O)CC2)CC1 (protonated)
Cc1ccccc1C(=O)N1CCC(N2CCN(C(=O)c3c(Br)cccc3Oc3ccccc3S([NH-])(=O)=O)CC2)CC1 (3D coordinates assigned)
Cc1ccccc1C(=O)N1CCC(N2CCN(C(=O)c3c(Br)cccc3Oc3ccccc3S([NH-])(=O)=O)CC2)CC1 (nonaromatic ring conformer: 116.90572224606801 kcal/mol)

>  <smiles>  (49) 
Cc1ccccc1C(=O)N1CCC(N2CCN(C(=O)c3c(Br)cccc3Oc3ccccc3S(N)(=O)=O)CC2)CC1

>  <score_type>  (49) 
oracle

>  <origin>  (49) 
adg

>  <m_score__min__energy>  (49) 
-12.67

>  <m_primary>  (49) 
energy

$$$$
49:0
     RDKit          3D

 47 48  0  0  0  0  0  0  0  0999 V2000
   55.1460   29.0270   44.9030 O   0  0  0  0  0  0  0  0  0  0  0  0
   56.3340   29.4240   44.7750 C   0  0  0  0  0  0  0  0  0  0  0  0
   57.2850   29.0680   45.7230 O   0  0  0  0  0  0  0  0  0  0  0  0
   56.7310   30.2440   43.5860 C   0  0  0  0  0  0  0  0  0  0  0  0
   57.5920   31.4490   43.9890 C   0  0  0  0  0  0  0  0  0  0  0  0
   57.9000   31.4320   45.4250 N   0  0  0  0  0  0  0  0  0  0  0  0
   58.3600   32.7240   45.8400 C   0  0  0  0  0  0  0  0  0  0  0  0
   59.4470   33.1870   46.5560 C   0  0  0  0  0  0  0  0  0  0  0  0
   60.5800   32.5650   47.1620 N   0  0  0  0  0  0  0  0  0  0  0  0
   61.8900   33.2130   47.1630 C   0  0  0  0  0  0  0  0  0  0  0  0
   62.2030   33.8610   48.5220 C   0  0  0  0  0  0  0  0  0  0  0  0
   62.5020   32.8470   49.6470 C   0  0  0  0  0  0  0  0  0  0  0  0
   61.2770   32.4870   50.5070 C   0  0  0  0  0  0  0  0  0  0  0  0
   60.3850   31.5450   49.8220 N   0  0  0  0  0  0  0  0  0  0  0  0
   60.6020   30.1160   49.7870 C   0  0  0  0  0  0  0  0  0  0  0  0
   61.2980   29.4680   50.8290 C   0  0  0  0  0  0  0  0  0  0  0  0
   61.3990   28.0760   50.8640 C   0  0  0  0  0  0  0  0  0  0  0  0
   60.8130   27.3060   49.8620 C   0  0  0  0  0  0  0  0  0  0  0  0
   60.1470   27.9260   48.8060 C   0  0  0  0  0  0  0  0  0  0  0  0
   60.0510   29.3270   48.7420 C   0  0  0  0  0  0  0  0  0  0  0  0
   59.4080   29.9220   47.6040 N   0  0  0  0  0  0  0  0  0  0  0  0
   58.4690   30.7290   47.7680 O   0  0  0  0  0  0  0  0  0  0  0  0
   59.9890   29.8260   46.3600 O   0  0  0  0  0  0  0  0  0  0  0  0
   58.9890   34.4830   46.4110 C   0  0  0  0  0  0  0  0  0  0  0  0
   59.3980   35.6180   46.7690 O   0  0  0  0  0  0  0  0  0  0  0  0
   57.8910   34.0170   45.7170 C   0  0  0  0  0  0  0  0  0  0  0  0
   56.8820   34.5500   45.1850 O   0  0  0  0  0  0  0  0  0  0  0  0
   57.3050   29.6118   42.8926 H   0  0  0  0  0  0  0  0  0  0  0  0
   55.8147   30.6217   43.1087 H   0  0  0  0  0  0  0  0  0  0  0  0
   58.5335   31.4220   43.4208 H   0  0  0  0  0  0  0  0  0  0  0  0
   57.0279   32.3669   43.7670 H   0  0  0  0  0  0  0  0  0  0  0  0
   58.6530   30.7360   45.6280 H   0  0  0  0  0  0  0  0  0  0  0  0
   57.0420   31.1940   45.9730 H   0  0  0  0  0  0  0  0  0  0  0  0
   60.4550   31.6100   47.5660 H   0  0  0  0  0  0  0  0  0  0  0  0
   62.6604   32.4598   46.9413 H   0  0  0  0  0  0  0  0  0  0  0  0
   61.8815   34.0048   46.3994 H   0  0  0  0  0  0  0  0  0  0  0  0
   63.0813   34.5121   48.4007 H   0  0  0  0  0  0  0  0  0  0  0  0
   61.3029   34.4161   48.8248 H   0  0  0  0  0  0  0  0  0  0  0  0
   62.8856   31.9240   49.1878 H   0  0  0  0  0  0  0  0  0  0  0  0
   63.2333   33.3220   50.3176 H   0  0  0  0  0  0  0  0  0  0  0  0
   61.6235   32.0300   51.4457 H   0  0  0  0  0  0  0  0  0  0  0  0
   60.7128   33.4113   50.7003 H   0  0  0  0  0  0  0  0  0  0  0  0
   59.5110   31.9270   49.4010 H   0  0  0  0  0  0  0  0  0  0  0  0
   61.7669   30.0668   51.6237 H   0  0  0  0  0  0  0  0  0  0  0  0
   61.9428   27.5860   51.6851 H   0  0  0  0  0  0  0  0  0  0  0  0
   60.8758   26.2086   49.9040 H   0  0  0  0  0  0  0  0  0  0  0  0
   59.6918   27.3126   48.0145 H   0  0  0  0  0  0  0  0  0  0  0  0
  1  2  2  0
  2  3  1  0
  2  4  1  0
  4  5  1  0
  5  6  1  0
  6  7  1  0
  7  8  2  0
  8  9  1  0
  9 10  1  0
 10 11  1  0
 11 12  1  0
 12 13  1  0
 13 14  1  0
 14 15  1  0
 15 16  2  0
 16 17  1  0
 17 18  2  0
 18 19  1  0
 19 20  2  0
 20 21  1  0
 21 22  2  0
 21 23  1  0
  8 24  1  0
 24 25  2  0
 24 26  1  0
 26 27  2  0
 26  7  1  0
 20 15  1  0
  4 28  1  0
  4 29  1  0
  5 30  1  0
  5 31  1  0
  6 32  1  0
  6 33  1  0
  9 34  1  0
 10 35  1  0
 10 36  1  0
 11 37  1  0
 11 38  1  0
 12 39  1  0
 12 40  1  0
 13 41  1  0
 13 42  1  0
 14 43  1  0
 16 44  1  0
 17 45  1  0
 18 46  1  0
 19 47  1  0
M  CHG  4   3  -1   6   1  21   1  23  -1
M  END
>  <UniqueID>  (50) 
47

>  <SMILES>  (50) 
O=C([O-])CC[NH2+]c1c(NCCCCNc2ccccc2[N+](=O)[O-])c(=O)c1=O

>  <Energy>  (50) 
29.632953460859955

>  <Genealogy>  (50) 
O=C([O-])CC[NH2+]c1c(NCCCCNc2ccccc2[N+](=O)[O-])c(=O)c1=O (protonated)
O=C([O-])CC[NH2+]c1c(NCCCCNc2ccccc2[N+](=O)[O-])c(=O)c1=O (3D coordinates assigned)
O=C([O-])CC[NH2+]c1c(NCCCCNc2ccccc2[N+](=O)[O-])c(=O)c1=O (optimized conformer: 29.632953460859955 kcal/mol)

>  <smiles>  (50) 
O=C(O)CCNc1c(NCCCCNc2ccccc2[N+](=O)[O-])c(=O)c1=O

>  <score_type>  (50) 
oracle

>  <origin>  (50) 
adg

>  <m_score__min__energy>  (50) 
-7.7599999999999998

>  <m_primary>  (50) 
energy

$$$$
50:0
     RDKit          3D

 53 56  0  0  0  0  0  0  0  0999 V2000
   56.2100   26.3380   45.7500 O   0  0  0  0  0  0  0  0  0  0  0  0
   57.4270   26.6460   45.6280 C   0  0  0  0  0  0  0  0  0  0  0  0
   57.8820   27.3870   44.4120 C   0  0  0  0  0  0  0  0  0  0  0  0
   57.7410   28.8620   44.6280 C   0  0  0  0  0  0  0  0  0  0  0  0
   59.0320   29.9320   44.7740 S   0  0  0  0  0  0  0  0  0  0  0  0
   58.0300   31.2560   45.0600 C   0  0  0  0  0  0  0  0  0  0  0  0
   58.4860   32.5980   45.2790 N   0  0  0  0  0  0  0  0  0  0  0  0
   58.6030   33.5810   44.2190 C   0  0  0  0  0  0  0  0  0  0  0  0
   59.2670   34.7930   44.8590 C   0  0  0  0  0  0  0  0  0  0  0  0
   59.1140   34.6050   46.3680 C   0  0  0  0  0  0  0  0  0  0  0  0
   58.8640   33.1170   46.5810 C   0  0  0  0  0  0  0  0  0  0  0  0
   56.7240   30.9080   45.0620 N   0  0  0  0  0  0  0  0  0  0  0  0
   56.5580   29.5790   44.8310 C   0  0  0  0  0  0  0  0  0  0  0  0
   55.2880   29.0060   44.8140 O   0  0  0  0  0  0  0  0  0  0  0  0
   58.3730   26.3190   46.6530 N   0  0  0  0  0  0  0  0  0  0  0  0
   59.0080   27.2440   47.5470 C   0  0  0  0  0  0  0  0  0  0  0  0
   58.5120   28.5500   47.6280 C   0  0  0  0  0  0  0  0  0  0  0  0
   59.1100   29.4840   48.4790 C   0  0  0  0  0  0  0  0  0  0  0  0
   60.2210   29.1230   49.2570 C   0  0  0  0  0  0  0  0  0  0  0  0
   60.8660   30.1020   50.1520 C   0  0  0  0  0  0  0  0  0  0  0  0
   60.1660   31.0100   50.6730 O   0  0  0  0  0  0  0  0  0  0  0  0
   62.2740   30.0790   50.4160 N   0  0  0  0  0  0  0  0  0  0  0  0
   63.1210   31.2650   50.4980 C   0  0  0  0  0  0  0  0  0  0  0  0
   62.8730   32.1370   49.3030 C   0  0  0  0  0  0  0  0  0  0  0  0
   61.9240   33.1720   49.3670 C   0  0  0  0  0  0  0  0  0  0  0  0
   61.7140   34.0040   48.2620 C   0  0  0  0  0  0  0  0  0  0  0  0
   62.4560   33.8160   47.0930 C   0  0  0  0  0  0  0  0  0  0  0  0
   63.4150   32.8020   47.0290 C   0  0  0  0  0  0  0  0  0  0  0  0
   63.6280   31.9680   48.1310 C   0  0  0  0  0  0  0  0  0  0  0  0
   60.7510   27.8310   49.1370 C   0  0  0  0  0  0  0  0  0  0  0  0
   60.1490   26.8950   48.2900 C   0  0  0  0  0  0  0  0  0  0  0  0
   58.9369   27.1473   44.2129 H   0  0  0  0  0  0  0  0  0  0  0  0
   57.2627   27.0871   43.5538 H   0  0  0  0  0  0  0  0  0  0  0  0
   59.2242   33.1905   43.3995 H   0  0  0  0  0  0  0  0  0  0  0  0
   57.6235   33.8333   43.7867 H   0  0  0  0  0  0  0  0  0  0  0  0
   60.3313   34.8358   44.5845 H   0  0  0  0  0  0  0  0  0  0  0  0
   58.8063   35.7325   44.5199 H   0  0  0  0  0  0  0  0  0  0  0  0
   60.0322   34.9168   46.8873 H   0  0  0  0  0  0  0  0  0  0  0  0
   58.2905   35.2141   46.7691 H   0  0  0  0  0  0  0  0  0  0  0  0
   59.7772   32.6214   46.9423 H   0  0  0  0  0  0  0  0  0  0  0  0
   58.0831   32.9377   47.3347 H   0  0  0  0  0  0  0  0  0  0  0  0
   55.1500   28.0050   44.8800 H   0  0  0  0  0  0  0  0  0  0  0  0
   57.6453   28.8438   47.0176 H   0  0  0  0  0  0  0  0  0  0  0  0
   58.7081   30.5062   48.5392 H   0  0  0  0  0  0  0  0  0  0  0  0
   62.8832   31.8232   51.4155 H   0  0  0  0  0  0  0  0  0  0  0  0
   64.1780   30.9613   50.5186 H   0  0  0  0  0  0  0  0  0  0  0  0
   61.3446   33.3283   50.2889 H   0  0  0  0  0  0  0  0  0  0  0  0
   60.9640   34.8070   48.3135 H   0  0  0  0  0  0  0  0  0  0  0  0
   62.2850   34.4667   46.2227 H   0  0  0  0  0  0  0  0  0  0  0  0
   64.0033   32.6595   46.1105 H   0  0  0  0  0  0  0  0  0  0  0  0
   64.3900   31.1764   48.0797 H   0  0  0  0  0  0  0  0  0  0  0  0
   61.6458   27.5515   49.7125 H   0  0  0  0  0  0  0  0  0  0  0  0
   60.5699   25.8823   48.2050 H   0  0  0  0  0  0  0  0  0  0  0  0
  1  2  2  0
  2  3  1  0
  3  4  1  0
  4  5  1  0
  5  6  1  0
  6  7  1  0
  7  8  1  0
  8  9  1  0
  9 10  1  0
 10 11  1  0
  6 12  2  0
 12 13  1  0
 13 14  1  0
  2 15  1  0
 15 16  1  0
 16 17  2  0
 17 18  1  0
 18 19  2  0
 19 20  1  0
 20 21  2  0
 20 22  1  0
 22 23  1  0
 23 24  1  0
 24 25  2  0
 25 26  1  0
 26 27  2  0
 27 28  1  0
 28 29  2  0
 19 30  1  0
 30 31  2  0
 13  4  2  0
 31 16  1  0
 11  7  1  0
 29 24  1  0
  3 32  1  0
  3 33  1  0
  8 34  1  0
  8 35  1  0
  9 36  1  0
  9 37  1  0
 10 38  1  0
 10 39  1  0
 11 40  1  0
 11 41  1  0
 14 42  1  0
 17 43  1  0
 18 44  1  0
 23 45  1  0
 23 46  1  0
 25 47  1  0
 26 48  1  0
 27 49  1  0
 28 50  1  0
 29 51  1  0
 30 52  1  0
 31 53  1  0
M  CHG  2  15  -1  22  -1
M  END
>  <UniqueID>  (51) 
48

>  <SMILES>  (51) 
O=C(Cc1sc(N2CCCC2)nc1O)[N-]c1ccc(C(=O)[N-]Cc2ccccc2)cc1

>  <Energy>  (51) 
88.97214769588847

>  <Genealogy>  (51) 
O=C(Cc1sc(N2CCCC2)nc1O)[N-]c1ccc(C(=O)[N-]Cc2ccccc2)cc1 (protonated)
O=C(Cc1sc(N2CCCC2)nc1O)[N-]c1ccc(C(=O)[N-]Cc2ccccc2)cc1 (3D coordinates assigned)
O=C(Cc1sc(N2CCCC2)nc1O)[N-]c1ccc(C(=O)[N-]Cc2ccccc2)cc1 (nonaromatic ring conformer: 88.97214769588847 kcal/mol)

>  <smiles>  (51) 
O=C(Cc1sc(N2CCCC2)nc1O)Nc1ccc(C(=O)NCc2ccccc2)cc1

>  <score_type>  (51) 
oracle

>  <origin>  (51) 
adg

>  <m_score__min__energy>  (51) 
-11.99

>  <m_primary>  (51) 
energy

$$$$
51:0
     RDKit          3D

 37 38  0  0  0  0  0  0  0  0999 V2000
   55.1700   26.6620   46.0030 N   0  0  0  0  0  0  0  0  0  0  0  0
   56.7620   26.0350   46.2360 S   0  0  0  0  0  0  0  0  0  0  0  0
   57.1730   25.2440   45.0250 O   0  0  0  0  0  0  0  0  0  0  0  0
   56.7760   25.1270   47.4330 O   0  0  0  0  0  0  0  0  0  0  0  0
   57.8850   27.3680   46.4840 C   0  0  0  0  0  0  0  0  0  0  0  0
   58.8920   27.2690   47.4550 C   0  0  0  0  0  0  0  0  0  0  0  0
   59.7610   28.3400   47.6740 C   0  0  0  0  0  0  0  0  0  0  0  0
   59.6340   29.5110   46.9230 C   0  0  0  0  0  0  0  0  0  0  0  0
   58.6450   29.6180   45.9380 C   0  0  0  0  0  0  0  0  0  0  0  0
   58.5290   30.8490   45.2110 N   0  0  0  0  0  0  0  0  0  0  0  0
   57.3220   31.5790   44.9550 C   0  0  0  0  0  0  0  0  0  0  0  0
   56.2540   30.9680   44.6870 O   0  0  0  0  0  0  0  0  0  0  0  0
   57.3420   33.0500   44.8530 C   0  0  0  0  0  0  0  0  0  0  0  0
   58.4370   33.8000   44.6510 C   0  0  0  0  0  0  0  0  0  0  0  0
   59.4370   34.1540   45.6780 C   0  0  0  0  0  0  0  0  0  0  0  0
   59.6400   35.3620   45.9830 O   0  0  0  0  0  0  0  0  0  0  0  0
   60.2050   33.1140   46.3000 N   0  0  0  0  0  0  0  0  0  0  0  0
   61.3130   33.3630   47.1830 C   0  0  0  0  0  0  0  0  0  0  0  0
   62.6230   33.4510   46.6750 C   0  0  0  0  0  0  0  0  0  0  0  0
   63.7030   33.6680   47.5360 C   0  0  0  0  0  0  0  0  0  0  0  0
   63.4880   33.7870   48.9110 C   0  0  0  0  0  0  0  0  0  0  0  0
   62.1950   33.6870   49.4280 C   0  0  0  0  0  0  0  0  0  0  0  0
   61.1070   33.4700   48.5730 C   0  0  0  0  0  0  0  0  0  0  0  0
   59.4940   33.3730   49.2680 Cl  0  0  0  0  0  0  0  0  0  0  0  0
   57.7550   28.5470   45.7370 C   0  0  0  0  0  0  0  0  0  0  0  0
   55.1480   27.0940   45.0520 H   0  0  0  0  0  0  0  0  0  0  0  0
   58.9975   26.3465   48.0449 H   0  0  0  0  0  0  0  0  0  0  0  0
   60.5471   28.2614   48.4394 H   0  0  0  0  0  0  0  0  0  0  0  0
   60.3156   30.3546   47.1068 H   0  0  0  0  0  0  0  0  0  0  0  0
   56.3808   33.5759   44.9504 H   0  0  0  0  0  0  0  0  0  0  0  0
   58.6034   34.1835   43.6335 H   0  0  0  0  0  0  0  0  0  0  0  0
   59.8870   32.1270   46.1650 H   0  0  0  0  0  0  0  0  0  0  0  0
   62.7980   33.3484   45.5939 H   0  0  0  0  0  0  0  0  0  0  0  0
   64.7226   33.7451   47.1303 H   0  0  0  0  0  0  0  0  0  0  0  0
   64.3383   33.9597   49.5872 H   0  0  0  0  0  0  0  0  0  0  0  0
   62.0300   33.7790   50.5116 H   0  0  0  0  0  0  0  0  0  0  0  0
   56.9528   28.6353   44.9896 H   0  0  0  0  0  0  0  0  0  0  0  0
  1  2  1  0
  2  3  2  0
  2  4  2  0
  2  5  1  0
  5  6  2  0
  6  7  1  0
  7  8  2  0
  8  9  1  0
  9 10  1  0
 10 11  1  0
 11 12  2  0
 11 13  1  0
 13 14  2  3
 14 15  1  0
 15 16  2  0
 15 17  1  0
 17 18  1  0
 18 19  2  0
 19 20  1  0
 20 21  2  0
 21 22  1  0
 22 23  2  0
 23 24  1  0
  9 25  2  0
 25  5  1  0
 23 18  1  0
  1 26  1  0
  6 27  1  0
  7 28  1  0
  8 29  1  0
 13 30  1  0
 14 31  1  0
 17 32  1  0
 19 33  1  0
 20 34  1  0
 21 35  1  0
 22 36  1  0
 25 37  1  0
M  CHG  2   1  -1  10  -1
M  END
>  <UniqueID>  (52) 
49

>  <SMILES>  (52) 
[NH-]S(=O)(=O)c1cccc([N-]C(=O)C=CC(=O)Nc2ccccc2Cl)c1

>  <Energy>  (52) 
50.41583803700707

>  <Genealogy>  (52) 
[NH-]S(=O)(=O)c1cccc([N-]C(=O)C=CC(=O)Nc2ccccc2Cl)c1 (protonated)
[NH-]S(=O)(=O)c1cccc([N-]C(=O)C=CC(=O)Nc2ccccc2Cl)c1 (3D coordinates assigned)
[NH-]S(=O)(=O)c1cccc([N-]C(=O)C=CC(=O)Nc2ccccc2Cl)c1 (optimized conformer: 50.41583803700707 kcal/mol)

>  <smiles>  (52) 
NS(=O)(=O)c1cccc(NC(=O)C=CC(=O)Nc2ccccc2Cl)c1

>  <score_type>  (52) 
oracle

>  <origin>  (52) 
adg

>  <m_score__min__energy>  (52) 
-12.66

>  <m_primary>  (52) 
energy

$$$$
52:0
     RDKit          3D

 28 29  0  0  0  0  0  0  0  0999 V2000
   59.9805   27.2454   45.6219 H   0  0  0  0  0  0  0  0  0  0  0  0
   58.8930   27.1260   45.7360 C   0  0  0  0  0  0  0  0  0  0  0  0
   58.0590   28.1450   45.4010 N   0  0  0  0  0  0  0  0  0  0  0  0
   56.7060   28.0580   45.5240 C   0  0  0  0  0  0  0  0  0  0  0  0
   56.0010   29.1040   45.1850 N   0  0  0  0  0  0  0  0  0  0  0  0
   56.2850   30.0950   44.1920 C   0  0  0  0  0  0  0  0  0  0  0  0
   56.6040   29.7240   43.0320 O   0  0  0  0  0  0  0  0  0  0  0  0
   56.2720   31.4880   44.5380 N   0  0  0  0  0  0  0  0  0  0  0  0
   57.3650   32.2520   45.0690 C   0  0  0  0  0  0  0  0  0  0  0  0
   57.3860   33.6340   44.8470 C   0  0  0  0  0  0  0  0  0  0  0  0
   56.5776   34.1067   44.2699 H   0  0  0  0  0  0  0  0  0  0  0  0
   58.4260   34.4170   45.3530 C   0  0  0  0  0  0  0  0  0  0  0  0
   58.4439   35.4993   45.1572 H   0  0  0  0  0  0  0  0  0  0  0  0
   59.4430   33.8280   46.1070 C   0  0  0  0  0  0  0  0  0  0  0  0
   60.2697   34.4450   46.4890 H   0  0  0  0  0  0  0  0  0  0  0  0
   59.4140   32.4520   46.3790 C   0  0  0  0  0  0  0  0  0  0  0  0
   60.5150   31.8150   47.1750 C   0  0  0  0  0  0  0  0  0  0  0  0
   60.3078   31.9349   48.2486 H   0  0  0  0  0  0  0  0  0  0  0  0
   60.5724   30.7442   46.9299 H   0  0  0  0  0  0  0  0  0  0  0  0
   61.4719   32.2990   46.9299 H   0  0  0  0  0  0  0  0  0  0  0  0
   58.3780   31.6650   45.8500 C   0  0  0  0  0  0  0  0  0  0  0  0
   58.3582   30.5830   46.0473 H   0  0  0  0  0  0  0  0  0  0  0  0
   56.1410   26.8360   45.9710 C   0  0  0  0  0  0  0  0  0  0  0  0
   54.7690   26.6150   46.0060 O   0  0  0  0  0  0  0  0  0  0  0  0
   56.9910   25.7870   46.3370 C   0  0  0  0  0  0  0  0  0  0  0  0
   56.5671   24.8452   46.7157 H   0  0  0  0  0  0  0  0  0  0  0  0
   58.3710   25.9300   46.2240 C   0  0  0  0  0  0  0  0  0  0  0  0
   59.0414   25.1085   46.5165 H   0  0  0  0  0  0  0  0  0  0  0  0
  1  2  1  0
  2  3  1  0
  3  4  1  0
  4  5  2  0
  5  6  1  0
  6  7  2  0
  6  8  1  0
  8  9  1  0
  9 10  2  0
 10 11  1  0
 10 12  1  0
 12 13  1  0
 12 14  2  0
 14 15  1  0
 14 16  1  0
 16 17  1  0
 17 18  1  0
 17 19  1  0
 17 20  1  0
 16 21  2  0
 21 22  1  0
  4 23  1  0
 23 24  1  0
 23 25  2  0
 25 26  1  0
 25 27  1  0
 27 28  1  0
 27  2  2  0
 21  9  1  0
M  CHG  3   3  -1   8  -1  24  -1
M  END
>  <UniqueID>  (53) 
50

>  <SMILES>  (53) 
Cc1cccc([N-]C(=O)/N=c2/[n-]cccc2[O-])c1

>  <Energy>  (53) 
44.35765070502164

>  <Genealogy>  (53) 
Cc1cccc([N-]C(=O)N=c2[n-]cccc2[O-])c1 (protonated)
Cc1cccc([N-]C(=O)/N=c2/[n-]cccc2[O-])c1 (cis-trans isomerization)
Cc1cccc([N-]C(=O)/N=c2/[n-]cccc2[O-])c1 (3D coordinates assigned)
Cc1cccc([N-]C(=O)/N=c2/[n-]cccc2[O-])c1 (optimized conformer: 44.35765070502164 kcal/mol)

>  <smiles>  (53) 
Cc1cccc(NC(=O)N=c2[nH]cccc2O)c1

>  <score_type>  (53) 
oracle

>  <origin>  (53) 
adg

>  <m_score__min__energy>  (53) 
-13.18

>  <m_primary>  (53) 
energy

$$$$
53:0
     RDKit          3D

 39 41  0  0  0  0  0  0  0  0999 V2000
   64.1450   32.5660   46.7510 N   0  0  0  0  0  0  0  0  0  0  0  0
   62.7070   33.2590   47.4120 S   0  0  0  0  0  0  0  0  0  0  0  0
   63.0590   34.1040   48.6040 O   0  0  0  0  0  0  0  0  0  0  0  0
   62.0510   34.1330   46.3800 O   0  0  0  0  0  0  0  0  0  0  0  0
   61.6010   31.9780   47.8990 C   0  0  0  0  0  0  0  0  0  0  0  0
   60.8800   32.0860   49.0950 C   0  0  0  0  0  0  0  0  0  0  0  0
   59.9830   31.0810   49.4670 C   0  0  0  0  0  0  0  0  0  0  0  0
   59.8090   29.9600   48.6510 C   0  0  0  0  0  0  0  0  0  0  0  0
   60.5440   29.8320   47.4630 C   0  0  0  0  0  0  0  0  0  0  0  0
   60.3650   28.7060   46.5950 N   0  0  0  0  0  0  0  0  0  0  0  0
   59.5900   27.5350   46.8850 C   0  0  0  0  0  0  0  0  0  0  0  0
   60.1910   26.4460   47.0830 O   0  0  0  0  0  0  0  0  0  0  0  0
   58.0940   27.5810   47.0440 C   0  0  0  0  0  0  0  0  0  0  0  0
   57.2490   27.5300   45.4240 S   0  0  0  0  0  0  0  0  0  0  0  0
   57.0990   29.3090   45.2840 C   0  0  0  0  0  0  0  0  0  0  0  0
   58.0400   30.1720   45.7090 N   0  0  0  0  0  0  0  0  0  0  0  0
   57.4850   31.3610   45.3940 C   0  0  0  0  0  0  0  0  0  0  0  0
   58.1360   32.6660   45.6570 C   0  0  0  0  0  0  0  0  0  0  0  0
   58.6440   33.4240   44.5850 C   0  0  0  0  0  0  0  0  0  0  0  0
   59.2600   34.6570   44.8140 C   0  0  0  0  0  0  0  0  0  0  0  0
   59.3770   35.1490   46.1140 C   0  0  0  0  0  0  0  0  0  0  0  0
   58.8790   34.4090   47.1890 C   0  0  0  0  0  0  0  0  0  0  0  0
   58.2600   33.1740   46.9680 C   0  0  0  0  0  0  0  0  0  0  0  0
   57.7890   32.4830   48.0380 F   0  0  0  0  0  0  0  0  0  0  0  0
   56.2760   31.2210   44.8150 N   0  0  0  0  0  0  0  0  0  0  0  0
   56.0320   29.9240   44.7460 N   0  0  0  0  0  0  0  0  0  0  0  0
   61.4160   30.8570   47.0770 C   0  0  0  0  0  0  0  0  0  0  0  0
   64.2090   31.5900   47.1190 H   0  0  0  0  0  0  0  0  0  0  0  0
   64.9510   33.0920   47.1550 H   0  0  0  0  0  0  0  0  0  0  0  0
   61.0201   32.9638   49.7429 H   0  0  0  0  0  0  0  0  0  0  0  0
   59.4131   31.1725   50.4034 H   0  0  0  0  0  0  0  0  0  0  0  0
   59.0939   29.1760   48.9409 H   0  0  0  0  0  0  0  0  0  0  0  0
   57.7711   26.7170   47.6434 H   0  0  0  0  0  0  0  0  0  0  0  0
   57.8279   28.5242   47.5436 H   0  0  0  0  0  0  0  0  0  0  0  0
   58.5551   33.0419   43.5573 H   0  0  0  0  0  0  0  0  0  0  0  0
   59.6531   35.2403   43.9683 H   0  0  0  0  0  0  0  0  0  0  0  0
   59.8617   36.1202   46.2927 H   0  0  0  0  0  0  0  0  0  0  0  0
   58.9739   34.7988   48.2132 H   0  0  0  0  0  0  0  0  0  0  0  0
   61.9592   30.7826   46.1234 H   0  0  0  0  0  0  0  0  0  0  0  0
  1  2  1  0
  2  3  2  0
  2  4  2  0
  2  5  1  0
  5  6  2  0
  6  7  1  0
  7  8  2  0
  8  9  1  0
  9 10  1  0
 10 11  1  0
 11 12  2  0
 11 13  1  0
 13 14  1  0
 14 15  1  0
 15 16  2  0
 16 17  1  0
 17 18  1  0
 18 19  2  0
 19 20  1  0
 20 21  2  0
 21 22  1  0
 22 23  2  0
 23 24  1  0
 17 25  2  0
 25 26  1  0
  9 27  2  0
 27  5  1  0
 26 15  1  0
 23 18  1  0
  1 28  1  0
  1 29  1  0
  6 30  1  0
  7 31  1  0
  8 32  1  0
 13 33  1  0
 13 34  1  0
 19 35  1  0
 20 36  1  0
 21 37  1  0
 22 38  1  0
 27 39  1  0
M  CHG  2  10  -1  26  -1
M  END
>  <UniqueID>  (54) 
51

>  <SMILES>  (54) 
NS(=O)(=O)c1cccc([N-]C(=O)CSc2nc(-c3ccccc3F)n[n-]2)c1

>  <Energy>  (54) 
74.69339703062892

>  <Genealogy>  (54) 
NS(=O)(=O)c1cccc([N-]C(=O)CSc2nc(-c3ccccc3F)n[n-]2)c1 (protonated)
NS(=O)(=O)c1cccc([N-]C(=O)CSc2nc(-c3ccccc3F)n[n-]2)c1 (3D coordinates assigned)
NS(=O)(=O)c1cccc([N-]C(=O)CSc2nc(-c3ccccc3F)n[n-]2)c1 (optimized conformer: 74.69339703062892 kcal/mol)

>  <smiles>  (54) 
NS(=O)(=O)c1cccc(NC(=O)CSc2nc(-c3ccccc3F)n[nH]2)c1

>  <score_type>  (54) 
oracle

>  <origin>  (54) 
adg

>  <m_score__min__energy>  (54) 
-12.75

>  <m_primary>  (54) 
energy

$$$$
54:0
     RDKit          3D

 30 31  0  0  0  0  0  0  0  0999 V2000
   58.4940   29.2420   45.3960 O   0  0  0  0  0  0  0  0  0  0  0  0
   57.3130   28.8090   45.4780 C   0  0  0  0  0  0  0  0  0  0  0  0
   57.0070   27.6230   46.2320 N   0  0  0  0  0  0  0  0  0  0  0  0
   56.4810   26.5000   45.8250 C   0  0  0  0  0  0  0  0  0  0  0  0
   57.2200   25.4920   45.1690 C   0  0  0  0  0  0  0  0  0  0  0  0
   56.5740   24.3230   44.7600 C   0  0  0  0  0  0  0  0  0  0  0  0
   55.2080   24.1620   44.9900 C   0  0  0  0  0  0  0  0  0  0  0  0
   54.5010   25.1830   45.6240 C   0  0  0  0  0  0  0  0  0  0  0  0
   55.1450   26.3140   46.0180 N   0  0  0  0  0  0  0  0  0  0  0  0
   56.2210   29.5770   44.8710 C   0  0  0  0  0  0  0  0  0  0  0  0
   55.1520   28.9950   44.5420 O   0  0  0  0  0  0  0  0  0  0  0  0
   56.3740   30.9840   44.6540 N   0  0  0  0  0  0  0  0  0  0  0  0
   57.5630   31.5850   44.0620 C   0  0  0  0  0  0  0  0  0  0  0  0
   58.0930   32.6800   44.9470 C   0  0  0  0  0  0  0  0  0  0  0  0
   58.7440   33.7950   44.3950 C   0  0  0  0  0  0  0  0  0  0  0  0
   59.2530   34.7980   45.2290 C   0  0  0  0  0  0  0  0  0  0  0  0
   59.1180   34.6920   46.6150 C   0  0  0  0  0  0  0  0  0  0  0  0
   58.4750   33.5820   47.1720 C   0  0  0  0  0  0  0  0  0  0  0  0
   57.9660   32.5780   46.3430 C   0  0  0  0  0  0  0  0  0  0  0  0
   58.2956   25.6259   44.9815 H   0  0  0  0  0  0  0  0  0  0  0  0
   57.1435   23.5284   44.2558 H   0  0  0  0  0  0  0  0  0  0  0  0
   54.6948   23.2413   44.6753 H   0  0  0  0  0  0  0  0  0  0  0  0
   53.4216   25.0735   45.8056 H   0  0  0  0  0  0  0  0  0  0  0  0
   58.3364   30.8126   43.9384 H   0  0  0  0  0  0  0  0  0  0  0  0
   57.2972   32.0135   43.0844 H   0  0  0  0  0  0  0  0  0  0  0  0
   58.8545   33.8808   43.3039 H   0  0  0  0  0  0  0  0  0  0  0  0
   59.7600   35.6708   44.7918 H   0  0  0  0  0  0  0  0  0  0  0  0
   59.5174   35.4816   47.2685 H   0  0  0  0  0  0  0  0  0  0  0  0
   58.3696   33.4988   48.2638 H   0  0  0  0  0  0  0  0  0  0  0  0
   57.4641   31.7047   46.7850 H   0  0  0  0  0  0  0  0  0  0  0  0
  1  2  2  0
  2  3  1  0
  3  4  2  3
  4  5  1  0
  5  6  2  0
  6  7  1  0
  7  8  2  0
  8  9  1  0
  2 10  1  0
 10 11  2  0
 10 12  1  0
 12 13  1  0
 13 14  1  0
 14 15  2  0
 15 16  1  0
 16 17  2  0
 17 18  1  0
 18 19  2  0
  9  4  1  0
 19 14  1  0
  5 20  1  0
  6 21  1  0
  7 22  1  0
  8 23  1  0
 13 24  1  0
 13 25  1  0
 15 26  1  0
 16 27  1  0
 17 28  1  0
 18 29  1  0
 19 30  1  0
M  CHG  2   9  -1  12  -1
M  END
>  <UniqueID>  (55) 
52

>  <SMILES>  (55) 
O=C(N=c1cccc[n-]1)C(=O)[N-]Cc1ccccc1

>  <Energy>  (55) 
35.21759308813992

>  <Genealogy>  (55) 
O=C(N=c1cccc[n-]1)C(=O)[N-]Cc1ccccc1 (protonated)
O=C(N=c1cccc[n-]1)C(=O)[N-]Cc1ccccc1 (3D coordinates assigned)
O=C(N=c1cccc[n-]1)C(=O)[N-]Cc1ccccc1 (optimized conformer: 35.21759308813992 kcal/mol)

>  <smiles>  (55) 
O=C(N=c1cccc[nH]1)C(=O)NCc1ccccc1

>  <score_type>  (55) 
oracle

>  <origin>  (55) 
adg

>  <m_score__min__energy>  (55) 
-10.539999999999999

>  <m_primary>  (55) 
energy

$$$$
55:0
     RDKit          3D

 77 82  0  0  0  0  0  0  0  0999 V2000
   57.9560   33.0020   45.0150 C   0  0  0  0  0  0  0  0  0  0  0  0
   57.3710   31.8620   45.6340 O   0  0  0  0  0  0  0  0  0  0  0  0
   57.7490   30.5310   45.3930 C   0  0  0  0  0  0  0  0  0  0  0  0
   57.0280   29.7250   44.4870 C   0  0  0  0  0  0  0  0  0  0  0  0
   57.4020   28.4010   44.2620 C   0  0  0  0  0  0  0  0  0  0  0  0
   58.4970   27.8600   44.9290 C   0  0  0  0  0  0  0  0  0  0  0  0
   59.2250   28.6410   45.8260 C   0  0  0  0  0  0  0  0  0  0  0  0
   58.8680   29.9830   46.0750 C   0  0  0  0  0  0  0  0  0  0  0  0
   59.6660   30.7750   47.0530 C   0  0  0  0  0  0  0  0  0  0  0  0
   60.8280   31.3780   46.6840 N   0  0  0  0  0  0  0  0  0  0  0  0
   61.5610   32.1190   47.5530 C   0  0  0  0  0  0  0  0  0  0  0  0
   61.1250   32.2550   48.8880 C   0  0  0  0  0  0  0  0  0  0  0  0
   59.9240   31.6260   49.2540 C   0  0  0  0  0  0  0  0  0  0  0  0
   59.4110   31.7320   50.5870 N   0  0  0  0  0  0  0  0  0  0  0  0
   59.8870   30.8020   51.6150 C   0  0  0  0  0  0  0  0  0  0  0  0
   59.5770   31.3390   53.0180 C   0  0  0  0  0  0  0  0  0  0  0  0
   58.0870   31.7020   53.2020 C   0  0  0  0  0  0  0  0  0  0  0  0
   57.3670   32.1080   51.8960 C   0  0  2  0  0  0  0  0  0  0  0  0
   56.7300   30.9520   51.3410 O   0  0  0  0  0  0  0  0  0  0  0  0
   56.0060   30.0280   52.1030 C   0  0  0  0  0  0  0  0  0  0  0  0
   56.6910   29.0480   52.7540 N   0  0  0  0  0  0  0  0  0  0  0  0
   56.0650   28.1020   53.4990 C   0  0  0  0  0  0  0  0  0  0  0  0
   54.6760   28.1110   53.6150 C   0  0  0  0  0  0  0  0  0  0  0  0
   53.9440   29.1120   52.9740 C   0  0  0  0  0  0  0  0  0  0  0  0
   54.6010   30.1010   52.2280 C   0  0  0  0  0  0  0  0  0  0  0  0
   53.7970   31.1940   51.5830 C   0  0  0  0  0  0  0  0  0  0  0  0
   58.3580   32.7080   50.8870 C   0  0  0  0  0  0  0  0  0  0  0  0
   59.2360   30.9010   48.3370 N   0  0  0  0  0  0  0  0  0  0  0  0
   61.8930   33.1110   49.8680 C   0  0  0  0  0  0  0  0  0  0  0  0
   63.2760   33.2720   49.4150 N   0  0  0  0  0  0  0  0  0  0  0  0
   64.3600   32.6140   50.0990 C   0  0  0  0  0  0  0  0  0  0  0  0
   65.6320   33.2060   50.1330 C   0  0  0  0  0  0  0  0  0  0  0  0
   66.6900   32.5670   50.7850 C   0  0  0  0  0  0  0  0  0  0  0  0
   66.4900   31.3310   51.4030 C   0  0  0  0  0  0  0  0  0  0  0  0
   65.2240   30.7280   51.3780 C   0  0  0  0  0  0  0  0  0  0  0  0
   64.9500   29.1680   52.1490 S   0  0  0  0  0  0  0  0  0  0  0  0
   63.2250   28.7440   52.0390 C   0  0  0  0  0  0  0  0  0  0  0  0
   65.3630   29.2430   53.5920 O   0  0  0  0  0  0  0  0  0  0  0  0
   65.7540   28.1000   51.4650 O   0  0  0  0  0  0  0  0  0  0  0  0
   64.1640   31.3710   50.7270 C   0  0  0  0  0  0  0  0  0  0  0  0
   63.4530   33.7330   48.0390 C   0  0  0  0  0  0  0  0  0  0  0  0
   62.8840   32.6800   47.0830 C   0  0  0  0  0  0  0  0  0  0  0  0
   58.3127   33.6971   45.7893 H   0  0  0  0  0  0  0  0  0  0  0  0
   58.8028   32.6850   44.3886 H   0  0  0  0  0  0  0  0  0  0  0  0
   57.2047   33.5051   44.3886 H   0  0  0  0  0  0  0  0  0  0  0  0
   56.1628   30.1451   43.9532 H   0  0  0  0  0  0  0  0  0  0  0  0
   56.8299   27.7821   43.5552 H   0  0  0  0  0  0  0  0  0  0  0  0
   58.7887   26.8149   44.7484 H   0  0  0  0  0  0  0  0  0  0  0  0
   60.0900   28.2045   46.3469 H   0  0  0  0  0  0  0  0  0  0  0  0
   59.3883   29.8306   51.4819 H   0  0  0  0  0  0  0  0  0  0  0  0
   60.9764   30.6892   51.5125 H   0  0  0  0  0  0  0  0  0  0  0  0
   59.8454   30.5693   53.7566 H   0  0  0  0  0  0  0  0  0  0  0  0
   60.1628   32.2594   53.1582 H   0  0  0  0  0  0  0  0  0  0  0  0
   57.5688   30.8283   53.6241 H   0  0  0  0  0  0  0  0  0  0  0  0
   58.0552   32.5787   53.8657 H   0  0  0  0  0  0  0  0  0  0  0  0
   56.6134   32.8769   52.1216 H   0  0  0  0  0  0  0  0  0  0  0  0
   56.6543   27.3275   54.0117 H   0  0  0  0  0  0  0  0  0  0  0  0
   54.1623   27.3378   54.2052 H   0  0  0  0  0  0  0  0  0  0  0  0
   52.8470   29.1250   53.0545 H   0  0  0  0  0  0  0  0  0  0  0  0
   53.3369   31.8194   52.3622 H   0  0  0  0  0  0  0  0  0  0  0  0
   54.4562   31.8136   50.9573 H   0  0  0  0  0  0  0  0  0  0  0  0
   53.0092   30.7492   50.9573 H   0  0  0  0  0  0  0  0  0  0  0  0
   57.8246   32.9666   49.9604 H   0  0  0  0  0  0  0  0  0  0  0  0
   58.8122   33.6128   51.3170 H   0  0  0  0  0  0  0  0  0  0  0  0
   61.4159   34.0995   49.9403 H   0  0  0  0  0  0  0  0  0  0  0  0
   61.8902   32.6227   50.8537 H   0  0  0  0  0  0  0  0  0  0  0  0
   65.7969   34.1775   49.6442 H   0  0  0  0  0  0  0  0  0  0  0  0
   67.6832   33.0391   50.8114 H   0  0  0  0  0  0  0  0  0  0  0  0
   67.3271   30.8292   51.9105 H   0  0  0  0  0  0  0  0  0  0  0  0
   62.8074   28.6413   53.0514 H   0  0  0  0  0  0  0  0  0  0  0  0
   62.6864   29.5365   51.4988 H   0  0  0  0  0  0  0  0  0  0  0  0
   63.1151   27.7921   51.4988 H   0  0  0  0  0  0  0  0  0  0  0  0
   63.1701   30.9001   50.7066 H   0  0  0  0  0  0  0  0  0  0  0  0
   62.9208   34.6853   47.8978 H   0  0  0  0  0  0  0  0  0  0  0  0
   64.5229   33.8832   47.8322 H   0  0  0  0  0  0  0  0  0  0  0  0
   62.7391   33.1428   46.0957 H   0  0  0  0  0  0  0  0  0  0  0  0
   63.6016   31.8474   47.0408 H   0  0  0  0  0  0  0  0  0  0  0  0
  1  2  1  0
  2  3  1  0
  3  4  2  0
  4  5  1  0
  5  6  2  0
  6  7  1  0
  7  8  2  0
  8  9  1  0
  9 10  2  0
 10 11  1  0
 11 12  2  0
 12 13  1  0
 13 14  1  0
 14 15  1  0
 15 16  1  0
 16 17  1  0
 17 18  1  0
 18 19  1  0
 19 20  1  0
 20 21  2  0
 21 22  1  0
 22 23  2  0
 23 24  1  0
 24 25  2  0
 25 26  1  0
 18 27  1  0
 13 28  2  0
 12 29  1  0
 29 30  1  0
 30 31  1  0
 31 32  2  0
 32 33  1  0
 33 34  2  0
 34 35  1  0
 35 36  1  0
 36 37  1  0
 36 38  2  0
 36 39  2  0
 35 40  2  0
 30 41  1  0
 41 42  1  0
  8  3  1  0
 28  9  1  0
 40 31  1  0
 42 11  1  0
 27 14  1  0
 25 20  1  0
  1 43  1  0
  1 44  1  0
  1 45  1  0
  4 46  1  0
  5 47  1  0
  6 48  1  0
  7 49  1  0
 15 50  1  0
 15 51  1  0
 16 52  1  0
 16 53  1  0
 17 54  1  0
 17 55  1  0
 18 56  1  1
 22 57  1  0
 23 58  1  0
 24 59  1  0
 26 60  1  0
 26 61  1  0
 26 62  1  0
 27 63  1  0
 27 64  1  0
 29 65  1  0
 29 66  1  0
 32 67  1  0
 33 68  1  0
 34 69  1  0
 37 70  1  0
 37 71  1  0
 37 72  1  0
 40 73  1  0
 41 74  1  0
 41 75  1  0
 42 76  1  0
 42 77  1  0
M  END
>  <UniqueID>  (56) 
53

>  <SMILES>  (56) 
COc1ccccc1-c1nc2c(c(N3CCC[C@H](Oc4ncccc4C)C3)n1)CN(c1cccc(S(C)(=O)=O)c1)CC2

>  <Energy>  (56) 
101.7669666640198

>  <Genealogy>  (56) 
COc1ccccc1-c1nc2c(c(N3CCC[C@H](Oc4ncccc4C)C3)n1)CN(c1cccc(S(C)(=O)=O)c1)CC2 (chirality)
COc1ccccc1-c1nc2c(c(N3CCC[C@H](Oc4ncccc4C)C3)n1)CN(c1cccc(S(C)(=O)=O)c1)CC2 (3D coordinates assigned)
COc1ccccc1-c1nc2c(c(N3CCC[C@H](Oc4ncccc4C)C3)n1)CN(c1cccc(S(C)(=O)=O)c1)CC2 (nonaromatic ring conformer: 101.7669666640198 kcal/mol)

>  <smiles>  (56) 
COc1ccccc1-c1nc2c(c(N3CCCC(Oc4ncccc4C)C3)n1)CN(c1cccc(S(C)(=O)=O)c1)CC2

>  <score_type>  (56) 
oracle

>  <origin>  (56) 
adg

>  <m_score__min__energy>  (56) 
-10.91

>  <m_primary>  (56) 
energy

$$$$
56:0
     RDKit          3D

 53 56  0  0  0  0  0  0  0  0999 V2000
   55.4940   29.6310   52.8090 C   0  0  0  0  0  0  0  0  0  0  0  0
   56.6250   29.7310   51.9500 O   0  0  0  0  0  0  0  0  0  0  0  0
   57.3590   30.9090   51.7360 C   0  0  0  0  0  0  0  0  0  0  0  0
   57.1350   32.0720   52.4990 C   0  0  0  0  0  0  0  0  0  0  0  0
   57.9060   33.2170   52.2910 C   0  0  0  0  0  0  0  0  0  0  0  0
   58.9090   33.2180   51.3230 C   0  0  0  0  0  0  0  0  0  0  0  0
   59.1250   32.0840   50.5390 C   0  0  0  0  0  0  0  0  0  0  0  0
   58.3480   30.9270   50.7290 C   0  0  0  0  0  0  0  0  0  0  0  0
   58.5420   29.7470   49.8060 C   0  0  0  0  0  0  0  0  0  0  0  0
   60.0080   29.2950   49.6920 C   0  0  0  0  0  0  0  0  0  0  0  0
   60.7940   30.1650   48.8080 N   0  0  0  0  0  0  0  0  0  0  0  0
   60.5820   30.4160   47.4840 C   0  0  0  0  0  0  0  0  0  0  0  0
   59.1060   29.9330   46.5790 S   0  0  0  0  0  0  0  0  0  0  0  0
   58.4870   31.6040   46.3570 C   0  0  0  0  0  0  0  0  0  0  0  0
   59.1400   32.6590   47.0060 C   0  0  0  0  0  0  0  0  0  0  0  0
   58.7440   33.9780   46.7750 C   0  0  0  0  0  0  0  0  0  0  0  0
   57.6750   34.2480   45.9210 C   0  0  0  0  0  0  0  0  0  0  0  0
   57.0190   33.2020   45.2670 C   0  0  0  0  0  0  0  0  0  0  0  0
   57.4330   31.8700   45.4630 C   0  0  0  0  0  0  0  0  0  0  0  0
   56.8260   30.7970   44.7910 O   0  0  0  0  0  0  0  0  0  0  0  0
   56.9760   30.5250   43.4020 C   0  0  0  0  0  0  0  0  0  0  0  0
   61.4790   31.2820   46.9490 N   0  0  0  0  0  0  0  0  0  0  0  0
   62.2750   31.5800   47.9890 C   0  0  0  0  0  0  0  0  0  0  0  0
   61.8500   30.9500   49.1150 C   0  0  0  0  0  0  0  0  0  0  0  0
   62.4430   31.2550   50.3400 C   0  0  0  0  0  0  0  0  0  0  0  0
   61.9990   30.7950   51.4250 O   0  0  0  0  0  0  0  0  0  0  0  0
   63.5060   32.1110   50.3410 N   0  0  0  0  0  0  0  0  0  0  0  0
   63.9530   32.7010   49.1850 C   0  0  0  0  0  0  0  0  0  0  0  0
   64.9510   33.4710   49.2330 O   0  0  0  0  0  0  0  0  0  0  0  0
   63.3120   32.4660   47.9890 N   0  0  0  0  0  0  0  0  0  0  0  0
   63.7720   33.0920   46.7430 C   0  0  0  0  0  0  0  0  0  0  0  0
   55.8260   29.6604   53.8573 H   0  0  0  0  0  0  0  0  0  0  0  0
   54.8120   30.4723   52.6167 H   0  0  0  0  0  0  0  0  0  0  0  0
   54.9702   28.6830   52.6167 H   0  0  0  0  0  0  0  0  0  0  0  0
   56.3458   32.0778   53.2652 H   0  0  0  0  0  0  0  0  0  0  0  0
   57.7218   34.1198   52.8919 H   0  0  0  0  0  0  0  0  0  0  0  0
   59.5308   34.1135   51.1770 H   0  0  0  0  0  0  0  0  0  0  0  0
   59.9085   32.0950   49.7669 H   0  0  0  0  0  0  0  0  0  0  0  0
   57.9460   28.9046   50.1870 H   0  0  0  0  0  0  0  0  0  0  0  0
   58.2208   30.0634   48.8026 H   0  0  0  0  0  0  0  0  0  0  0  0
   60.4608   29.3080   50.6944 H   0  0  0  0  0  0  0  0  0  0  0  0
   60.0148   28.2833   49.2602 H   0  0  0  0  0  0  0  0  0  0  0  0
   59.9672   32.4482   47.6997 H   0  0  0  0  0  0  0  0  0  0  0  0
   59.2760   34.8053   47.2674 H   0  0  0  0  0  0  0  0  0  0  0  0
   57.3478   35.2861   45.7621 H   0  0  0  0  0  0  0  0  0  0  0  0
   56.1752   33.4198   44.5958 H   0  0  0  0  0  0  0  0  0  0  0  0
   57.5034   29.5687   43.2705 H   0  0  0  0  0  0  0  0  0  0  0  0
   55.9838   30.4643   42.9310 H   0  0  0  0  0  0  0  0  0  0  0  0
   57.5567   31.3318   42.9310 H   0  0  0  0  0  0  0  0  0  0  0  0
   63.9820   32.3340   51.2460 H   0  0  0  0  0  0  0  0  0  0  0  0
   64.4080   33.9575   46.9805 H   0  0  0  0  0  0  0  0  0  0  0  0
   64.3501   32.3619   46.1575 H   0  0  0  0  0  0  0  0  0  0  0  0
   62.9026   33.4256   46.1575 H   0  0  0  0  0  0  0  0  0  0  0  0
  1  2  1  0
  2  3  1  0
  3  4  2  0
  4  5  1  0
  5  6  2  0
  6  7  1  0
  7  8  2  0
  8  9  1  0
  9 10  1  0
 10 11  1  0
 11 12  1  0
 12 13  1  0
 13 14  1  0
 14 15  2  0
 15 16  1  0
 16 17  2  0
 17 18  1  0
 18 19  2  0
 19 20  1  0
 20 21  1  0
 12 22  2  0
 22 23  1  0
 23 24  2  0
 24 25  1  0
 25 26  2  0
 25 27  1  0
 27 28  1  0
 28 29  2  0
 28 30  1  0
 30 31  1  0
  8  3  1  0
 24 11  1  0
 19 14  1  0
 30 23  1  0
  1 32  1  0
  1 33  1  0
  1 34  1  0
  4 35  1  0
  5 36  1  0
  6 37  1  0
  7 38  1  0
  9 39  1  0
  9 40  1  0
 10 41  1  0
 10 42  1  0
 15 43  1  0
 16 44  1  0
 17 45  1  0
 18 46  1  0
 21 47  1  0
 21 48  1  0
 21 49  1  0
 27 50  1  0
 31 51  1  0
 31 52  1  0
 31 53  1  0
M  END
>  <UniqueID>  (57) 
54

>  <SMILES>  (57) 
COc1ccccc1CCn1c(Sc2ccccc2OC)nc2c1c(=O)[nH]c(=O)n2C

>  <Energy>  (57) 
92.63661163478301

>  <Genealogy>  (57) 
COc1ccccc1CCn1c(Sc2ccccc2OC)nc2c1c(=O)[nH]c(=O)n2C (3D coordinates assigned)
COc1ccccc1CCn1c(Sc2ccccc2OC)nc2c1c(=O)[nH]c(=O)n2C (optimized conformer: 92.63661163478301 kcal/mol)

>  <smiles>  (57) 
COc1ccccc1CCn1c(Sc2ccccc2OC)nc2c1c(=O)[nH]c(=O)n2C

>  <score_type>  (57) 
oracle

>  <origin>  (57) 
adg

>  <m_score__min__energy>  (57) 
-7.8799999999999999

>  <m_primary>  (57) 
energy

$$$$
57:0
     RDKit          3D

 39 41  0  0  0  0  0  0  0  0999 V2000
   57.3560   31.6200   43.2150 C   0  0  0  0  0  0  0  0  0  0  0  0
   56.6310   30.2380   44.0710 S   0  0  0  0  0  0  0  0  0  0  0  0
   56.7630   28.9850   43.2510 O   0  0  0  0  0  0  0  0  0  0  0  0
   55.1720   30.5200   44.2900 O   0  0  0  0  0  0  0  0  0  0  0  0
   57.3940   30.0240   45.6130 N   0  0  0  0  0  0  0  0  0  0  0  0
   58.2520   28.9350   45.9810 C   0  0  0  0  0  0  0  0  0  0  0  0
   59.6480   28.9900   45.8170 C   0  0  0  0  0  0  0  0  0  0  0  0
   60.4420   27.9020   46.1890 C   0  0  0  0  0  0  0  0  0  0  0  0
   59.8550   26.7550   46.7290 C   0  0  0  0  0  0  0  0  0  0  0  0
   58.4650   26.6880   46.9070 C   0  0  0  0  0  0  0  0  0  0  0  0
   57.8360   25.4510   47.4980 C   0  0  0  0  0  0  0  0  0  0  0  0
   56.7790   24.8890   46.5830 C   0  0  0  0  0  0  0  0  0  0  0  0
   55.5390   25.4450   46.6170 N   0  0  0  0  0  0  0  0  0  0  0  0
   54.5610   25.0450   45.8050 N   0  0  0  0  0  0  0  0  0  0  0  0
   54.7510   24.0580   44.8950 C   0  0  0  0  0  0  0  0  0  0  0  0
   53.8010   23.7240   44.1380 O   0  0  0  0  0  0  0  0  0  0  0  0
   56.0000   23.4270   44.8060 C   0  0  0  0  0  0  0  0  0  0  0  0
   57.0410   23.8590   45.6530 C   0  0  0  0  0  0  0  0  0  0  0  0
   58.3300   23.2240   45.5710 N   0  0  0  0  0  0  0  0  0  0  0  0
   58.6630   22.3450   44.4540 C   0  0  0  0  0  0  0  0  0  0  0  0
   57.4560   21.4760   44.1070 C   0  0  0  0  0  0  0  0  0  0  0  0
   56.2500   22.3580   43.7610 C   0  0  0  0  0  0  0  0  0  0  0  0
   57.6700   27.7790   46.5190 C   0  0  0  0  0  0  0  0  0  0  0  0
   57.7370   32.3463   43.9480 H   0  0  0  0  0  0  0  0  0  0  0  0
   58.1848   31.2666   42.5840 H   0  0  0  0  0  0  0  0  0  0  0  0
   56.5942   32.1011   42.5840 H   0  0  0  0  0  0  0  0  0  0  0  0
   60.1157   29.8917   45.3949 H   0  0  0  0  0  0  0  0  0  0  0  0
   61.5330   27.9488   46.0562 H   0  0  0  0  0  0  0  0  0  0  0  0
   60.4855   25.9005   47.0159 H   0  0  0  0  0  0  0  0  0  0  0  0
   58.6160   24.6914   47.6549 H   0  0  0  0  0  0  0  0  0  0  0  0
   57.3625   25.7224   48.4531 H   0  0  0  0  0  0  0  0  0  0  0  0
   59.0210   23.3080   46.3460 H   0  0  0  0  0  0  0  0  0  0  0  0
   58.9396   22.9529   43.5799 H   0  0  0  0  0  0  0  0  0  0  0  0
   59.5079   21.6998   44.7368 H   0  0  0  0  0  0  0  0  0  0  0  0
   57.7017   20.8413   43.2429 H   0  0  0  0  0  0  0  0  0  0  0  0
   57.2044   20.8484   44.9746 H   0  0  0  0  0  0  0  0  0  0  0  0
   56.4351   22.8463   42.7928 H   0  0  0  0  0  0  0  0  0  0  0  0
   55.3608   21.7116   43.7217 H   0  0  0  0  0  0  0  0  0  0  0  0
   56.5778   27.7255   46.6388 H   0  0  0  0  0  0  0  0  0  0  0  0
  1  2  1  0
  2  3  2  0
  2  4  2  0
  2  5  1  0
  5  6  1  0
  6  7  2  0
  7  8  1  0
  8  9  2  0
  9 10  1  0
 10 11  1  0
 11 12  1  0
 12 13  2  0
 13 14  1  0
 14 15  1  0
 15 16  2  0
 15 17  1  0
 17 18  2  0
 18 19  1  0
 19 20  1  0
 20 21  1  0
 21 22  1  0
 10 23  2  0
 23  6  1  0
 18 12  1  0
 22 17  1  0
  1 24  1  0
  1 25  1  0
  1 26  1  0
  7 27  1  0
  8 28  1  0
  9 29  1  0
 11 30  1  0
 11 31  1  0
 19 32  1  0
 20 33  1  0
 20 34  1  0
 21 35  1  0
 21 36  1  0
 22 37  1  0
 22 38  1  0
 23 39  1  0
M  CHG  2   5  -1  14  -1
M  END
>  <UniqueID>  (58) 
55

>  <SMILES>  (58) 
CS(=O)(=O)[N-]c1cccc(Cc2n[n-]c(=O)c3c2NCCC3)c1

>  <Energy>  (58) 
40.66806297301072

>  <Genealogy>  (58) 
CS(=O)(=O)[N-]c1cccc(Cc2n[n-]c(=O)c3c2NCCC3)c1 (protonated)
CS(=O)(=O)[N-]c1cccc(Cc2n[n-]c(=O)c3c2NCCC3)c1 (3D coordinates assigned)
CS(=O)(=O)[N-]c1cccc(Cc2n[n-]c(=O)c3c2NCCC3)c1 (nonaromatic ring conformer: 40.66806297301072 kcal/mol)

>  <smiles>  (58) 
CS(=O)(=O)Nc1cccc(Cc2n[nH]c(=O)c3c2NCCC3)c1

>  <score_type>  (58) 
oracle

>  <origin>  (58) 
adg

>  <m_score__min__energy>  (58) 
-11.460000000000001

>  <m_primary>  (58) 
energy

$$$$
58:0
     RDKit          3D

 48 50  0  0  0  0  0  0  0  0999 V2000
   56.9680   30.7170   43.2150 C   0  0  0  0  0  0  0  0  0  0  0  0
   56.0370   29.7240   43.9030 C   0  0  0  0  0  0  0  0  0  0  0  0
   56.3430   29.6260   45.3320 N   0  0  0  0  0  0  0  0  0  0  0  0
   57.6680   29.4320   45.8750 C   0  0  0  0  0  0  0  0  0  0  0  0
   58.3980   30.5100   46.4180 C   0  0  0  0  0  0  0  0  0  0  0  0
   59.6840   30.3220   46.9430 C   0  0  0  0  0  0  0  0  0  0  0  0
   60.3870   31.4430   47.5080 N   0  0  0  0  0  0  0  0  0  0  0  0
   61.8170   31.5280   47.5930 C   0  0  0  0  0  0  0  0  0  0  0  0
   62.5330   30.8970   46.7660 O   0  0  0  0  0  0  0  0  0  0  0  0
   62.4660   32.4010   48.6010 C   0  0  0  0  0  0  0  0  0  0  0  0
   63.8400   32.2420   48.8640 C   0  0  0  0  0  0  0  0  0  0  0  0
   64.4790   33.0430   49.8110 C   0  0  0  0  0  0  0  0  0  0  0  0
   63.7570   34.0060   50.5120 C   0  0  0  0  0  0  0  0  0  0  0  0
   62.3900   34.1670   50.2770 C   0  0  0  0  0  0  0  0  0  0  0  0
   61.7260   33.3600   49.3300 C   0  0  0  0  0  0  0  0  0  0  0  0
   60.3430   33.4720   49.1050 O   0  0  0  0  0  0  0  0  0  0  0  0
   59.6720   34.6240   48.5920 C   0  0  0  0  0  0  0  0  0  0  0  0
   59.0830   34.3350   47.2370 C   0  0  0  0  0  0  0  0  0  0  0  0
   57.8090   33.7530   47.1350 C   0  0  0  0  0  0  0  0  0  0  0  0
   57.2590   33.4770   45.8790 C   0  0  0  0  0  0  0  0  0  0  0  0
   57.9800   33.7720   44.7190 C   0  0  0  0  0  0  0  0  0  0  0  0
   59.2530   34.3410   44.8120 C   0  0  0  0  0  0  0  0  0  0  0  0
   59.8060   34.6190   46.0670 C   0  0  0  0  0  0  0  0  0  0  0  0
   60.2350   29.0320   46.9630 C   0  0  0  0  0  0  0  0  0  0  0  0
   59.5220   27.9550   46.4350 C   0  0  0  0  0  0  0  0  0  0  0  0
   58.2480   28.1450   45.8900 C   0  0  0  0  0  0  0  0  0  0  0  0
   57.4210   26.7430   45.2190 Cl  0  0  0  0  0  0  0  0  0  0  0  0
   57.5118   31.2970   43.9752 H   0  0  0  0  0  0  0  0  0  0  0  0
   57.6870   30.1708   42.5868 H   0  0  0  0  0  0  0  0  0  0  0  0
   56.3766   31.3994   42.5868 H   0  0  0  0  0  0  0  0  0  0  0  0
   54.9969   30.0601   43.7794 H   0  0  0  0  0  0  0  0  0  0  0  0
   56.1774   28.7341   43.4444 H   0  0  0  0  0  0  0  0  0  0  0  0
   55.5320   29.7050   45.9840 H   0  0  0  0  0  0  0  0  0  0  0  0
   57.9506   31.5148   46.4296 H   0  0  0  0  0  0  0  0  0  0  0  0
   59.8310   32.2760   47.8060 H   0  0  0  0  0  0  0  0  0  0  0  0
   64.4148   31.4795   48.3180 H   0  0  0  0  0  0  0  0  0  0  0  0
   65.5542   32.9138   50.0042 H   0  0  0  0  0  0  0  0  0  0  0  0
   64.2649   34.6413   51.2526 H   0  0  0  0  0  0  0  0  0  0  0  0
   61.8265   34.9294   50.8350 H   0  0  0  0  0  0  0  0  0  0  0  0
   58.8655   34.9102   49.2831 H   0  0  0  0  0  0  0  0  0  0  0  0
   60.3990   35.4438   48.4950 H   0  0  0  0  0  0  0  0  0  0  0  0
   57.2415   33.5133   48.0463 H   0  0  0  0  0  0  0  0  0  0  0  0
   56.2579   33.0273   45.8043 H   0  0  0  0  0  0  0  0  0  0  0  0
   57.5452   33.5562   43.7319 H   0  0  0  0  0  0  0  0  0  0  0  0
   59.8206   34.5705   43.8981 H   0  0  0  0  0  0  0  0  0  0  0  0
   60.8106   35.0616   46.1374 H   0  0  0  0  0  0  0  0  0  0  0  0
   61.2327   28.8689   47.3965 H   0  0  0  0  0  0  0  0  0  0  0  0
   59.9655   26.9484   46.4475 H   0  0  0  0  0  0  0  0  0  0  0  0
  1  2  1  0
  2  3  1  0
  3  4  1  0
  4  5  2  0
  5  6  1  0
  6  7  1  0
  7  8  1  0
  8  9  2  0
  8 10  1  0
 10 11  2  0
 11 12  1  0
 12 13  2  0
 13 14  1  0
 14 15  2  0
 15 16  1  0
 16 17  1  0
 17 18  1  0
 18 19  2  0
 19 20  1  0
 20 21  2  0
 21 22  1  0
 22 23  2  0
  6 24  2  0
 24 25  1  0
 25 26  2  0
 26 27  1  0
 26  4  1  0
 15 10  1  0
 23 18  1  0
  1 28  1  0
  1 29  1  0
  1 30  1  0
  2 31  1  0
  2 32  1  0
  3 33  1  0
  5 34  1  0
  7 35  1  0
 11 36  1  0
 12 37  1  0
 13 38  1  0
 14 39  1  0
 17 40  1  0
 17 41  1  0
 19 42  1  0
 20 43  1  0
 21 44  1  0
 22 45  1  0
 23 46  1  0
 24 47  1  0
 25 48  1  0
M  END
>  <UniqueID>  (59) 
56

>  <SMILES>  (59) 
CCNc1cc(NC(=O)c2ccccc2OCc2ccccc2)ccc1Cl

>  <Energy>  (59) 
55.873916596522946

>  <Genealogy>  (59) 
CCNc1cc(NC(=O)c2ccccc2OCc2ccccc2)ccc1Cl (3D coordinates assigned)
CCNc1cc(NC(=O)c2ccccc2OCc2ccccc2)ccc1Cl (optimized conformer: 55.873916596522946 kcal/mol)

>  <smiles>  (59) 
CCNc1cc(NC(=O)c2ccccc2OCc2ccccc2)ccc1Cl

>  <score_type>  (59) 
oracle

>  <origin>  (59) 
adg

>  <m_score__min__energy>  (59) 
-8.9000000000000004

>  <m_primary>  (59) 
energy

$$$$
59:0
     RDKit          3D

 32 34  0  0  0  0  0  0  0  0999 V2000
   55.1640   29.3490   44.0000 N   0  0  0  0  0  0  0  0  0  0  0  0
   56.3960   29.5880   44.6870 C   0  0  0  0  0  0  0  0  0  0  0  0
   57.1300   28.5050   45.2200 C   0  0  0  0  0  0  0  0  0  0  0  0
   58.3430   28.7260   45.8960 C   0  0  0  0  0  0  0  0  0  0  0  0
   58.8080   30.0360   46.0290 C   0  0  0  0  0  0  0  0  0  0  0  0
   59.9590   30.3890   46.6580 N   0  0  0  0  0  0  0  0  0  0  0  0
   60.1510   31.7340   46.6350 C   0  0  0  0  0  0  0  0  0  0  0  0
   61.3000   32.3860   47.2140 N   0  0  0  0  0  0  0  0  0  0  0  0
   62.5810   31.6730   47.3330 C   0  0  0  0  0  0  0  0  0  0  0  0
   63.7470   32.6450   47.1300 C   0  0  0  0  0  0  0  0  0  0  0  0
   63.6880   33.8600   48.0800 C   0  0  0  0  0  0  0  0  0  0  0  0
   62.3110   34.0740   48.7280 C   0  0  0  0  0  0  0  0  0  0  0  0
   61.1660   33.7450   47.7620 C   0  0  0  0  0  0  0  0  0  0  0  0
   58.8890   32.5300   45.8250 S   0  0  0  0  0  0  0  0  0  0  0  0
   58.0820   31.0930   45.5050 C   0  0  0  0  0  0  0  0  0  0  0  0
   56.8790   30.9030   44.8310 C   0  0  0  0  0  0  0  0  0  0  0  0
   54.3350   28.9680   44.5090 H   0  0  0  0  0  0  0  0  0  0  0  0
   55.0730   29.5500   42.9800 H   0  0  0  0  0  0  0  0  0  0  0  0
   56.7491   27.4795   45.1051 H   0  0  0  0  0  0  0  0  0  0  0  0
   58.9146   27.8833   46.3120 H   0  0  0  0  0  0  0  0  0  0  0  0
   60.6050   29.7040   47.1100 H   0  0  0  0  0  0  0  0  0  0  0  0
   62.6541   31.2214   48.3334 H   0  0  0  0  0  0  0  0  0  0  0  0
   62.6287   30.8888   46.5631 H   0  0  0  0  0  0  0  0  0  0  0  0
   64.6889   32.1055   47.3082 H   0  0  0  0  0  0  0  0  0  0  0  0
   63.6829   33.0273   46.1006 H   0  0  0  0  0  0  0  0  0  0  0  0
   64.4284   33.7112   48.8798 H   0  0  0  0  0  0  0  0  0  0  0  0
   63.8985   34.7525   47.4724 H   0  0  0  0  0  0  0  0  0  0  0  0
   62.2289   33.4236   49.6113 H   0  0  0  0  0  0  0  0  0  0  0  0
   62.2271   35.1347   49.0069 H   0  0  0  0  0  0  0  0  0  0  0  0
   60.2101   33.8210   48.3009 H   0  0  0  0  0  0  0  0  0  0  0  0
   61.2011   34.4601   46.9269 H   0  0  0  0  0  0  0  0  0  0  0  0
   56.3203   31.7575   44.4216 H   0  0  0  0  0  0  0  0  0  0  0  0
  1  2  1  0
  2  3  2  0
  3  4  1  0
  4  5  2  0
  5  6  1  0
  6  7  2  0
  7  8  1  0
  8  9  1  0
  9 10  1  0
 10 11  1  0
 11 12  1  0
 12 13  1  0
  7 14  1  0
 14 15  1  0
 15 16  2  0
 16  2  1  0
 15  5  1  0
 13  8  1  0
  1 17  1  0
  1 18  1  0
  3 19  1  0
  4 20  1  0
  6 21  1  0
  9 22  1  0
  9 23  1  0
 10 24  1  0
 10 25  1  0
 11 26  1  0
 11 27  1  0
 12 28  1  0
 12 29  1  0
 13 30  1  0
 13 31  1  0
 16 32  1  0
M  CHG  1   6   1
M  END
>  <UniqueID>  (60) 
57

>  <SMILES>  (60) 
Nc1ccc2[nH+]c(N3CCCCC3)sc2c1

>  <Energy>  (60) 
67.97654026950575

>  <Genealogy>  (60) 
Nc1ccc2[nH+]c(N3CCCCC3)sc2c1 (protonated)
Nc1ccc2[nH+]c(N3CCCCC3)sc2c1 (3D coordinates assigned)
Nc1ccc2[nH+]c(N3CCCCC3)sc2c1 (nonaromatic ring conformer: 67.97654026950575 kcal/mol)

>  <smiles>  (60) 
Nc1ccc2nc(N3CCCCC3)sc2c1

>  <score_type>  (60) 
oracle

>  <origin>  (60) 
adg

>  <m_score__min__energy>  (60) 
-5.04

>  <m_primary>  (60) 
energy

$$$$
60:0
     RDKit          3D

 29 32  0  0  0  0  0  0  0  0999 V2000
   51.8139   29.4695   51.9019 H   0  0  0  0  0  0  0  0  0  0  0  0
   52.3730   30.3540   52.2410 C   0  0  0  0  0  0  0  0  0  0  0  0
   51.5860   31.5460   52.6120 C   0  0  0  0  0  0  0  0  0  0  0  0
   51.2470   31.9000   53.8640 N   0  0  0  0  0  0  0  0  0  0  0  0
   50.4540   32.9780   53.6830 C   0  0  0  0  0  0  0  0  0  0  0  0
   49.9410   33.6120   54.6420 O   0  0  0  0  0  0  0  0  0  0  0  0
   50.2500   33.3210   52.3940 N   0  0  0  0  0  0  0  0  0  0  0  0
   50.9630   32.3970   51.7300 C   0  0  0  0  0  0  0  0  0  0  0  0
   51.0420   32.3320   50.3450 O   0  0  0  0  0  0  0  0  0  0  0  0
   53.7130   30.2540   52.2810 C   0  0  0  0  0  0  0  0  0  0  0  0
   54.6030   31.2160   51.8120 C   0  0  0  0  0  0  0  0  0  0  0  0
   54.3121   32.1642   51.3363 H   0  0  0  0  0  0  0  0  0  0  0  0
   55.8780   30.8160   52.0260 N   0  0  0  0  0  0  0  0  0  0  0  0
   55.8210   29.6360   52.6220 N   0  0  0  0  0  0  0  0  0  0  0  0
   56.8470   28.8510   53.0640 C   0  0  0  0  0  0  0  0  0  0  0  0
   58.1030   29.1620   52.9070 N   0  0  0  0  0  0  0  0  0  0  0  0
   58.6510   30.1060   51.9370 C   0  0  0  0  0  0  0  0  0  0  0  0
   58.5467   31.0194   52.5410 H   0  0  0  0  0  0  0  0  0  0  0  0
   59.7370   29.4860   51.0780 C   0  0  0  0  0  0  0  0  0  0  0  0
   60.5960   30.0923   50.7546 H   0  0  0  0  0  0  0  0  0  0  0  0
   60.3914   28.6062   51.1659 H   0  0  0  0  0  0  0  0  0  0  0  0
   58.3580   29.7470   50.4920 C   0  0  0  0  0  0  0  0  0  0  0  0
   58.2192   30.5422   49.7447 H   0  0  0  0  0  0  0  0  0  0  0  0
   57.6011   29.1345   49.9803 H   0  0  0  0  0  0  0  0  0  0  0  0
   56.5310   27.6900   53.6990 N   0  0  0  0  0  0  0  0  0  0  0  0
   55.2280   27.3290   53.8910 C   0  0  0  0  0  0  0  0  0  0  0  0
   54.9560   26.2560   54.4870 O   0  0  0  0  0  0  0  0  0  0  0  0
   54.2210   28.1280   53.4420 N   0  0  0  0  0  0  0  0  0  0  0  0
   54.5440   29.2720   52.7930 C   0  0  0  0  0  0  0  0  0  0  0  0
  1  2  1  0
  2  3  1  0
  3  4  1  0
  4  5  1  0
  5  6  2  0
  5  7  1  0
  7  8  1  0
  8  9  1  0
  2 10  2  0
 10 11  1  0
 11 12  1  0
 11 13  2  0
 13 14  1  0
 14 15  1  0
 15 16  2  3
 16 17  1  0
 17 18  1  0
 17 19  1  0
 19 20  1  0
 19 21  1  0
 19 22  1  0
 22 23  1  0
 22 24  1  0
 15 25  1  0
 25 26  1  0
 26 27  2  0
 26 28  1  0
 28 29  2  0
  8  3  2  0
 29 10  1  0
 29 14  1  0
 22 17  1  0
M  CHG  4   4  -1   7  -1   9  -1  25  -1
M  END
>  <UniqueID>  (61) 
58

>  <SMILES>  (61) 
O=c1nc2/c(=C\c3[n-]c(=O)[n-]c3[O-])cnn2c(=NC2CC2)[n-]1

>  <Energy>  (61) 
373.0651235528624

>  <Genealogy>  (61) 
O=c1nc2c(=Cc3[n-]c(=O)[n-]c3[O-])cnn2c(=NC2CC2)[n-]1 (protonated)
O=c1nc2/c(=C\c3[n-]c(=O)[n-]c3[O-])cnn2c(=NC2CC2)[n-]1 (cis-trans isomerization)
O=c1nc2/c(=C\c3[n-]c(=O)[n-]c3[O-])cnn2c(=NC2CC2)[n-]1 (3D coordinates assigned)
O=c1nc2/c(=C\c3[n-]c(=O)[n-]c3[O-])cnn2c(=NC2CC2)[n-]1 (nonaromatic ring conformer: 373.0651235528624 kcal/mol)

>  <smiles>  (61) 
O=c1nc2c(=Cc3[nH]c(=O)[nH]c3O)cnn2c(=NC2CC2)[nH]1

>  <score_type>  (61) 
oracle

>  <origin>  (61) 
adg

>  <m_score__min__energy>  (61) 
-16.390000000000001

>  <m_primary>  (61) 
energy

$$$$
61:0
     RDKit          3D

 51 53  0  0  0  0  0  0  0  0999 V2000
   56.4370   25.0250   47.4890 O   0  0  0  0  0  0  0  0  0  0  0  0
   56.2470   25.8150   46.5270 C   0  0  0  0  0  0  0  0  0  0  0  0
   54.9420   25.8550   45.9290 N   0  0  0  0  0  0  0  0  0  0  0  0
   54.2460   24.7520   45.2720 C   0  0  0  0  0  0  0  0  0  0  0  0
   55.2230   23.7130   44.7860 C   0  0  0  0  0  0  0  0  0  0  0  0
   55.6620   23.7250   43.4510 C   0  0  0  0  0  0  0  0  0  0  0  0
   56.5630   22.7580   42.9960 C   0  0  0  0  0  0  0  0  0  0  0  0
   57.0260   21.7680   43.8660 C   0  0  0  0  0  0  0  0  0  0  0  0
   56.5850   21.7390   45.1910 C   0  0  0  0  0  0  0  0  0  0  0  0
   55.6820   22.7030   45.6510 C   0  0  0  0  0  0  0  0  0  0  0  0
   57.3690   26.6590   46.0630 C   0  0  0  0  0  0  0  0  0  0  0  0
   58.2890   26.9840   46.8620 O   0  0  0  0  0  0  0  0  0  0  0  0
   57.4010   27.1330   44.7090 N   0  0  0  0  0  0  0  0  0  0  0  0
   58.4810   27.9760   44.2010 C   0  0  0  0  0  0  0  0  0  0  0  0
   58.2850   29.4000   44.6480 C   0  0  0  0  0  0  0  0  0  0  0  0
   57.8330   30.3770   43.7470 C   0  0  0  0  0  0  0  0  0  0  0  0
   57.6750   31.7010   44.1660 C   0  0  0  0  0  0  0  0  0  0  0  0
   57.9710   32.0650   45.4850 C   0  0  0  0  0  0  0  0  0  0  0  0
   57.7440   33.7350   45.9980 S   0  0  0  0  0  0  0  0  0  0  0  0
   56.6990   33.7690   47.0790 O   0  0  0  0  0  0  0  0  0  0  0  0
   57.2690   34.5720   44.8420 O   0  0  0  0  0  0  0  0  0  0  0  0
   59.2480   34.3750   46.6150 N   0  0  0  0  0  0  0  0  0  0  0  0
   59.3160   34.1780   48.0760 C   0  0  0  0  0  0  0  0  0  0  0  0
   60.7740   34.2350   48.5620 C   0  0  0  0  0  0  0  0  0  0  0  0
   61.6170   33.2450   47.9850 O   0  0  0  0  0  0  0  0  0  0  0  0
   61.1430   32.7400   46.7440 C   0  0  0  0  0  0  0  0  0  0  0  0
   60.4070   33.7970   45.8990 C   0  0  0  0  0  0  0  0  0  0  0  0
   58.4240   31.0920   46.3870 C   0  0  0  0  0  0  0  0  0  0  0  0
   58.5830   29.7670   45.9690 C   0  0  0  0  0  0  0  0  0  0  0  0
   53.5520   24.2869   45.9875 H   0  0  0  0  0  0  0  0  0  0  0  0
   53.6961   25.1495   44.4062 H   0  0  0  0  0  0  0  0  0  0  0  0
   55.2949   24.4990   42.7609 H   0  0  0  0  0  0  0  0  0  0  0  0
   56.9078   22.7766   41.9516 H   0  0  0  0  0  0  0  0  0  0  0  0
   57.7385   21.0106   43.5073 H   0  0  0  0  0  0  0  0  0  0  0  0
   56.9484   20.9568   45.8738 H   0  0  0  0  0  0  0  0  0  0  0  0
   55.3296   22.6713   46.6925 H   0  0  0  0  0  0  0  0  0  0  0  0
   56.6520   26.8370   44.0430 H   0  0  0  0  0  0  0  0  0  0  0  0
   59.4427   27.6042   44.5843 H   0  0  0  0  0  0  0  0  0  0  0  0
   58.4755   27.9416   43.1016 H   0  0  0  0  0  0  0  0  0  0  0  0
   57.6024   30.0996   42.7078 H   0  0  0  0  0  0  0  0  0  0  0  0
   57.3163   32.4607   43.4559 H   0  0  0  0  0  0  0  0  0  0  0  0
   58.7373   34.9693   48.5749 H   0  0  0  0  0  0  0  0  0  0  0  0
   58.8987   33.1901   48.3207 H   0  0  0  0  0  0  0  0  0  0  0  0
   61.1830   35.2252   48.3125 H   0  0  0  0  0  0  0  0  0  0  0  0
   60.7553   34.0441   49.6451 H   0  0  0  0  0  0  0  0  0  0  0  0
   62.0024   32.3679   46.1670 H   0  0  0  0  0  0  0  0  0  0  0  0
   60.4204   31.9423   46.9707 H   0  0  0  0  0  0  0  0  0  0  0  0
   61.1104   34.6058   45.6518 H   0  0  0  0  0  0  0  0  0  0  0  0
   60.0315   33.3026   44.9909 H   0  0  0  0  0  0  0  0  0  0  0  0
   58.6548   31.3714   47.4256 H   0  0  0  0  0  0  0  0  0  0  0  0
   58.9436   29.0086   46.6795 H   0  0  0  0  0  0  0  0  0  0  0  0
  1  2  2  0
  2  3  1  0
  3  4  1  0
  4  5  1  0
  5  6  2  0
  6  7  1  0
  7  8  2  0
  8  9  1  0
  9 10  2  0
  2 11  1  0
 11 12  2  0
 11 13  1  0
 13 14  1  0
 14 15  1  0
 15 16  2  0
 16 17  1  0
 17 18  2  0
 18 19  1  0
 19 20  2  0
 19 21  2  0
 19 22  1  0
 22 23  1  0
 23 24  1  0
 24 25  1  0
 25 26  1  0
 26 27  1  0
 18 28  1  0
 28 29  2  0
 10  5  1  0
 29 15  1  0
 27 22  1  0
  4 30  1  0
  4 31  1  0
  6 32  1  0
  7 33  1  0
  8 34  1  0
  9 35  1  0
 10 36  1  0
 13 37  1  0
 14 38  1  0
 14 39  1  0
 16 40  1  0
 17 41  1  0
 23 42  1  0
 23 43  1  0
 24 44  1  0
 24 45  1  0
 26 46  1  0
 26 47  1  0
 27 48  1  0
 27 49  1  0
 28 50  1  0
 29 51  1  0
M  CHG  1   3  -1
M  END
>  <UniqueID>  (62) 
59

>  <SMILES>  (62) 
O=C([N-]Cc1ccccc1)C(=O)NCc1ccc(S(=O)(=O)N2CCOCC2)cc1

>  <Energy>  (62) 
61.68694343576755

>  <Genealogy>  (62) 
O=C([N-]Cc1ccccc1)C(=O)NCc1ccc(S(=O)(=O)N2CCOCC2)cc1 (protonated)
O=C([N-]Cc1ccccc1)C(=O)NCc1ccc(S(=O)(=O)N2CCOCC2)cc1 (3D coordinates assigned)
O=C([N-]Cc1ccccc1)C(=O)NCc1ccc(S(=O)(=O)N2CCOCC2)cc1 (nonaromatic ring conformer: 61.68694343576755 kcal/mol)

>  <smiles>  (62) 
O=C(NCc1ccccc1)C(=O)NCc1ccc(S(=O)(=O)N2CCOCC2)cc1

>  <score_type>  (62) 
oracle

>  <origin>  (62) 
adg

>  <m_score__min__energy>  (62) 
-10.85

>  <m_primary>  (62) 
energy

$$$$
62:0
     RDKit          3D

 65 68  0  0  0  0  0  0  0  0999 V2000
   58.2734   30.1192   48.5321 H   0  0  0  0  0  0  0  0  0  0  0  0
   59.2630   29.6410   48.5780 C   0  0  0  0  0  0  0  0  0  0  0  0
   59.3460   28.3470   48.6340 N   0  0  0  0  0  0  0  0  0  0  0  0
   59.8500   27.4980   47.5900 C   0  0  0  0  0  0  0  0  0  0  0  0
   60.2290   26.3360   47.8910 O   0  0  0  0  0  0  0  0  0  0  0  0
   59.9590   27.9420   46.1460 C   0  0  0  0  0  0  0  0  0  0  0  0
   60.2606   27.0796   45.5334 H   0  0  0  0  0  0  0  0  0  0  0  0
   60.7035   28.7504   46.0996 H   0  0  0  0  0  0  0  0  0  0  0  0
   58.6770   28.4770   45.6180 N   0  0  0  0  0  0  0  0  0  0  0  0
   57.5370   27.7020   45.6050 C   0  0  0  0  0  0  0  0  0  0  0  0
   57.5520   26.2600   45.9370 C   0  0  0  0  0  0  0  0  0  0  0  0
   58.1080   25.3390   45.0390 C   0  0  0  0  0  0  0  0  0  0  0  0
   58.5575   25.6922   44.0992 H   0  0  0  0  0  0  0  0  0  0  0  0
   58.0930   23.9730   45.3340 C   0  0  0  0  0  0  0  0  0  0  0  0
   58.5237   23.2560   44.6195 H   0  0  0  0  0  0  0  0  0  0  0  0
   57.5340   23.5090   46.5320 C   0  0  0  0  0  0  0  0  0  0  0  0
   57.5320   22.1270   46.7740 O   0  0  0  0  0  0  0  0  0  0  0  0
   57.7920   21.1380   45.7850 C   0  0  0  0  0  0  0  0  0  0  0  0
   58.0423   20.1858   46.2756 H   0  0  0  0  0  0  0  0  0  0  0  0
   56.8987   21.0034   45.1574 H   0  0  0  0  0  0  0  0  0  0  0  0
   58.6360   21.4601   45.1574 H   0  0  0  0  0  0  0  0  0  0  0  0
   56.9890   24.4370   47.4410 C   0  0  0  0  0  0  0  0  0  0  0  0
   56.5613   24.0866   48.3920 H   0  0  0  0  0  0  0  0  0  0  0  0
   56.9900   25.8030   47.1380 C   0  0  0  0  0  0  0  0  0  0  0  0
   56.5483   26.5212   47.8444 H   0  0  0  0  0  0  0  0  0  0  0  0
   56.3160   28.2750   45.2410 C   0  0  0  0  0  0  0  0  0  0  0  0
   55.4015   27.6638   45.2326 H   0  0  0  0  0  0  0  0  0  0  0  0
   56.2600   29.5820   44.8990 N   0  0  0  0  0  0  0  0  0  0  0  0
   57.3660   30.3620   44.8560 C   0  0  0  0  0  0  0  0  0  0  0  0
   57.2000   31.6310   44.5930 N   0  0  0  0  0  0  0  0  0  0  0  0
   56.7680   32.7180   45.4750 C   0  0  0  0  0  0  0  0  0  0  0  0
   56.3075   33.5115   44.8681 H   0  0  0  0  0  0  0  0  0  0  0  0
   56.0438   32.3143   46.1979 H   0  0  0  0  0  0  0  0  0  0  0  0
   57.9340   33.2950   46.2370 C   0  0  0  0  0  0  0  0  0  0  0  0
   58.1340   32.9670   47.5900 C   0  0  0  0  0  0  0  0  0  0  0  0
   57.4350   32.2850   48.0962 H   0  0  0  0  0  0  0  0  0  0  0  0
   59.2150   33.5020   48.2950 C   0  0  0  0  0  0  0  0  0  0  0  0
   59.3492   33.2629   49.3603 H   0  0  0  0  0  0  0  0  0  0  0  0
   60.1260   34.3410   47.6470 C   0  0  0  0  0  0  0  0  0  0  0  0
   61.1790   34.8520   48.3290 F   0  0  0  0  0  0  0  0  0  0  0  0
   59.9430   34.6630   46.2990 C   0  0  0  0  0  0  0  0  0  0  0  0
   60.6561   35.3297   45.7920 H   0  0  0  0  0  0  0  0  0  0  0  0
   58.8550   34.1390   45.5940 C   0  0  0  0  0  0  0  0  0  0  0  0
   58.7196   34.3887   44.5313 H   0  0  0  0  0  0  0  0  0  0  0  0
   58.6200   29.7680   45.1430 C   0  0  0  0  0  0  0  0  0  0  0  0
   59.6870   30.4050   44.9460 O   0  0  0  0  0  0  0  0  0  0  0  0
   60.4740   30.4780   48.5750 C   0  0  0  0  0  0  0  0  0  0  0  0
   61.0740   30.8910   47.3770 C   0  0  0  0  0  0  0  0  0  0  0  0
   60.6657   30.5491   46.4145 H   0  0  0  0  0  0  0  0  0  0  0  0
   62.1870   31.7340   47.3990 C   0  0  0  0  0  0  0  0  0  0  0  0
   62.6593   32.0393   46.4536 H   0  0  0  0  0  0  0  0  0  0  0  0
   62.7080   32.1950   48.6190 C   0  0  0  0  0  0  0  0  0  0  0  0
   63.9090   33.1290   48.6230 C   0  0  2  0  0  0  0  0  0  0  0  0
   63.6029   34.0517   49.1377 H   0  0  0  0  0  0  0  0  0  0  0  0
   64.3140   33.4610   47.2560 N   0  0  0  0  0  0  0  0  0  0  0  0
   63.4940   33.8940   46.7680 H   0  0  0  0  0  0  0  0  0  0  0  0
   64.5560   32.5840   46.7390 H   0  0  0  0  0  0  0  0  0  0  0  0
   65.0410   32.5540   49.3600 N   0  0  0  0  0  0  0  0  0  0  0  0
   65.1190   32.9800   50.3120 H   0  0  0  0  0  0  0  0  0  0  0  0
   65.9360   32.7080   48.8370 H   0  0  0  0  0  0  0  0  0  0  0  0
   64.8900   31.5240   49.4720 H   0  0  0  0  0  0  0  0  0  0  0  0
   62.1340   31.7400   49.8210 C   0  0  0  0  0  0  0  0  0  0  0  0
   62.5601   32.0555   50.7848 H   0  0  0  0  0  0  0  0  0  0  0  0
   61.0250   30.8890   49.7960 C   0  0  0  0  0  0  0  0  0  0  0  0
   60.5823   30.5400   50.7406 H   0  0  0  0  0  0  0  0  0  0  0  0
  1  2  1  0
  2  3  2  0
  3  4  1  0
  4  5  2  0
  4  6  1  0
  6  7  1  0
  6  8  1  0
  6  9  1  0
  9 10  1  0
 10 11  1  0
 11 12  2  0
 12 13  1  0
 12 14  1  0
 14 15  1  0
 14 16  2  0
 16 17  1  0
 17 18  1  0
 18 19  1  0
 18 20  1  0
 18 21  1  0
 16 22  1  0
 22 23  1  0
 22 24  2  0
 24 25  1  0
 10 26  2  0
 26 27  1  0
 26 28  1  0
 28 29  1  0
 29 30  2  0
 30 31  1  0
 31 32  1  0
 31 33  1  0
 31 34  1  0
 34 35  2  0
 35 36  1  0
 35 37  1  0
 37 38  1  0
 37 39  2  0
 39 40  1  0
 39 41  1  0
 41 42  1  0
 41 43  2  0
 43 44  1  0
 29 45  1  0
 45 46  2  0
  2 47  1  0
 47 48  2  0
 48 49  1  0
 48 50  1  0
 50 51  1  0
 50 52  2  0
 52 53  1  0
 53 54  1  1
 53 55  1  0
 55 56  1  0
 55 57  1  0
 53 58  1  0
 58 59  1  0
 58 60  1  0
 58 61  1  0
 52 62  1  0
 62 63  1  0
 62 64  2  0
 64 65  1  0
 45  9  1  0
 64 47  1  0
 24 11  1  0
 43 34  1  0
M  CHG  2  28  -1  58   1
M  END
>  <UniqueID>  (63) 
60

>  <SMILES>  (63) 
COc1ccc(-c2c[n-]/c(=N/Cc3ccc(F)cc3)c(=O)n2CC(=O)/N=C/c2ccc([C@H](N)[NH3+])cc2)cc1

>  <Energy>  (63) 
86.48438889057181

>  <Genealogy>  (63) 
COc1ccc(-c2c[n-]c(=NCc3ccc(F)cc3)c(=O)n2CC(=O)N=Cc2ccc(C(N)[NH3+])cc2)cc1 (protonated)
COc1ccc(-c2c[n-]c(=NCc3ccc(F)cc3)c(=O)n2CC(=O)N=Cc2ccc([C@H](N)[NH3+])cc2)cc1 (chirality)
COc1ccc(-c2c[n-]/c(=N/Cc3ccc(F)cc3)c(=O)n2CC(=O)/N=C/c2ccc([C@H](N)[NH3+])cc2)cc1 (cis-trans isomerization)
COc1ccc(-c2c[n-]/c(=N/Cc3ccc(F)cc3)c(=O)n2CC(=O)/N=C/c2ccc([C@H](N)[NH3+])cc2)cc1 (3D coordinates assigned)
COc1ccc(-c2c[n-]/c(=N/Cc3ccc(F)cc3)c(=O)n2CC(=O)/N=C/c2ccc([C@H](N)[NH3+])cc2)cc1 (optimized conformer: 86.48438889057181 kcal/mol)

>  <smiles>  (63) 
COc1ccc(-c2c[nH]c(=NCc3ccc(F)cc3)c(=O)n2CC(=O)N=Cc2ccc(C(N)N)cc2)cc1

>  <score_type>  (63) 
oracle

>  <origin>  (63) 
adg

>  <m_score__min__energy>  (63) 
-8.9600000000000009

>  <m_primary>  (63) 
energy

$$$$
63:0
     RDKit          3D

 40 42  0  0  0  0  0  0  0  0999 V2000
   55.1470   29.3340   44.9300 N   0  0  0  0  0  0  0  0  0  0  0  0
   56.7840   29.5660   44.4300 S   0  0  0  0  0  0  0  0  0  0  0  0
   57.2560   30.9200   44.8790 O   0  0  0  0  0  0  0  0  0  0  0  0
   56.8670   29.5000   42.9300 O   0  0  0  0  0  0  0  0  0  0  0  0
   57.7980   28.3110   45.1350 C   0  0  0  0  0  0  0  0  0  0  0  0
   57.6620   26.9780   44.7240 C   0  0  0  0  0  0  0  0  0  0  0  0
   58.4930   25.9920   45.2610 C   0  0  0  0  0  0  0  0  0  0  0  0
   59.4590   26.3300   46.2130 C   0  0  0  0  0  0  0  0  0  0  0  0
   59.5930   27.6550   46.6460 C   0  0  0  0  0  0  0  0  0  0  0  0
   60.6180   27.9680   47.6000 N   0  0  0  0  0  0  0  0  0  0  0  0
   60.5930   27.6600   48.9990 C   0  0  0  0  0  0  0  0  0  0  0  0
   60.3510   26.4890   49.3980 O   0  0  0  0  0  0  0  0  0  0  0  0
   60.8580   28.7400   49.9970 C   0  0  0  0  0  0  0  0  0  0  0  0
   60.1060   29.9780   49.6180 C   0  0  0  0  0  0  0  0  0  0  0  0
   59.0920   30.4880   50.3490 N   0  0  0  0  0  0  0  0  0  0  0  0
   58.6590   31.5330   49.6120 C   0  0  0  0  0  0  0  0  0  0  0  0
   57.7220   32.2860   49.9880 O   0  0  0  0  0  0  0  0  0  0  0  0
   59.3360   31.7030   48.4540 N   0  0  0  0  0  0  0  0  0  0  0  0
   59.1250   32.7010   47.4380 C   0  0  0  0  0  0  0  0  0  0  0  0
   60.1970   33.4830   46.9730 C   0  0  0  0  0  0  0  0  0  0  0  0
   59.9880   34.4540   45.9880 C   0  0  0  0  0  0  0  0  0  0  0  0
   58.7120   34.6510   45.4570 C   0  0  0  0  0  0  0  0  0  0  0  0
   57.6400   33.8790   45.9110 C   0  0  0  0  0  0  0  0  0  0  0  0
   57.8430   32.9080   46.8980 C   0  0  0  0  0  0  0  0  0  0  0  0
   60.2460   30.7130   48.4560 C   0  0  0  0  0  0  0  0  0  0  0  0
   61.1480   30.4690   47.4220 O   0  0  0  0  0  0  0  0  0  0  0  0
   58.7710   28.6500   46.0860 C   0  0  0  0  0  0  0  0  0  0  0  0
   55.1550   28.5900   45.6630 H   0  0  0  0  0  0  0  0  0  0  0  0
   56.9002   26.7080   43.9779 H   0  0  0  0  0  0  0  0  0  0  0  0
   58.3869   24.9471   44.9339 H   0  0  0  0  0  0  0  0  0  0  0  0
   60.1176   25.5509   46.6244 H   0  0  0  0  0  0  0  0  0  0  0  0
   60.5315   28.4051   50.9926 H   0  0  0  0  0  0  0  0  0  0  0  0
   61.9354   28.9612   50.0146 H   0  0  0  0  0  0  0  0  0  0  0  0
   61.2051   33.3305   47.3859 H   0  0  0  0  0  0  0  0  0  0  0  0
   60.8310   35.0638   45.6310 H   0  0  0  0  0  0  0  0  0  0  0  0
   58.5508   35.4140   44.6812 H   0  0  0  0  0  0  0  0  0  0  0  0
   56.6349   34.0346   45.4921 H   0  0  0  0  0  0  0  0  0  0  0  0
   56.9955   32.3035   47.2533 H   0  0  0  0  0  0  0  0  0  0  0  0
   61.3060   29.5350   47.0640 H   0  0  0  0  0  0  0  0  0  0  0  0
   58.8922   29.6986   46.3956 H   0  0  0  0  0  0  0  0  0  0  0  0
  1  2  1  0
  2  3  2  0
  2  4  2  0
  2  5  1  0
  5  6  2  0
  6  7  1  0
  7  8  2  0
  8  9  1  0
  9 10  1  0
 10 11  1  0
 11 12  2  0
 11 13  1  0
 13 14  1  0
 14 15  1  0
 15 16  1  0
 16 17  2  0
 16 18  1  0
 18 19  1  0
 19 20  2  0
 20 21  1  0
 21 22  2  0
 22 23  1  0
 23 24  2  0
 18 25  1  0
 25 26  1  0
  9 27  2  0
 27  5  1  0
 25 14  2  0
 24 19  1  0
  1 28  1  0
  6 29  1  0
  7 30  1  0
  8 31  1  0
 13 32  1  0
 13 33  1  0
 20 34  1  0
 21 35  1  0
 22 36  1  0
 23 37  1  0
 24 38  1  0
 26 39  1  0
 27 40  1  0
M  CHG  3   1  -1  10  -1  15  -1
M  END
>  <UniqueID>  (64) 
61

>  <SMILES>  (64) 
[NH-]S(=O)(=O)c1cccc([N-]C(=O)Cc2[n-]c(=O)n(-c3ccccc3)c2O)c1

>  <Energy>  (64) 
79.93481171950039

>  <Genealogy>  (64) 
[NH-]S(=O)(=O)c1cccc([N-]C(=O)Cc2[n-]c(=O)n(-c3ccccc3)c2O)c1 (protonated)
[NH-]S(=O)(=O)c1cccc([N-]C(=O)Cc2[n-]c(=O)n(-c3ccccc3)c2O)c1 (3D coordinates assigned)
[NH-]S(=O)(=O)c1cccc([N-]C(=O)Cc2[n-]c(=O)n(-c3ccccc3)c2O)c1 (optimized conformer: 79.93481171950039 kcal/mol)

>  <smiles>  (64) 
NS(=O)(=O)c1cccc(NC(=O)Cc2[nH]c(=O)n(-c3ccccc3)c2O)c1

>  <score_type>  (64) 
oracle

>  <origin>  (64) 
adg

>  <m_score__min__energy>  (64) 
-13.5

>  <m_primary>  (64) 
energy

$$$$
64:0
     RDKit          3D

 51 53  0  0  0  0  0  0  0  0999 V2000
   62.8040   34.1740   49.8830 C   0  0  0  0  0  0  0  0  0  0  0  0
   63.5640   33.0930   49.2550 N   0  0  0  0  0  0  0  0  0  0  0  0
   64.5640   32.3790   50.0060 C   0  0  0  0  0  0  0  0  0  0  0  0
   64.2130   31.2570   50.7780 C   0  0  0  0  0  0  0  0  0  0  0  0
   65.1870   30.5520   51.4880 C   0  0  0  0  0  0  0  0  0  0  0  0
   66.5230   30.9590   51.4370 C   0  0  0  0  0  0  0  0  0  0  0  0
   67.7460   30.0720   52.3280 Cl  0  0  0  0  0  0  0  0  0  0  0  0
   66.8840   32.0720   50.6720 C   0  0  0  0  0  0  0  0  0  0  0  0
   65.9120   32.7780   49.9580 C   0  0  0  0  0  0  0  0  0  0  0  0
   63.2700   32.7120   47.5820 S   0  0  0  0  0  0  0  0  0  0  0  0
   64.1520   33.5680   46.7200 O   0  0  0  0  0  0  0  0  0  0  0  0
   63.5730   31.2640   47.3170 O   0  0  0  0  0  0  0  0  0  0  0  0
   61.5730   32.9980   47.2100 C   0  0  0  0  0  0  0  0  0  0  0  0
   61.1890   34.0280   46.3400 C   0  0  0  0  0  0  0  0  0  0  0  0
   59.8330   34.2800   46.1050 C   0  0  0  0  0  0  0  0  0  0  0  0
   58.8510   33.5180   46.7520 C   0  0  0  0  0  0  0  0  0  0  0  0
   57.4210   33.8180   46.5210 C   0  0  0  0  0  0  0  0  0  0  0  0
   56.7760   33.5720   45.3690 C   0  0  0  0  0  0  0  0  0  0  0  0
   57.1360   32.4850   44.4430 C   0  0  0  0  0  0  0  0  0  0  0  0
   57.9550   32.6980   43.5080 O   0  0  0  0  0  0  0  0  0  0  0  0
   56.5960   31.1760   44.6480 N   0  0  0  0  0  0  0  0  0  0  0  0
   57.3690   29.9850   44.8540 C   0  0  0  0  0  0  0  0  0  0  0  0
   58.7610   30.0520   44.7310 C   0  0  0  0  0  0  0  0  0  0  0  0
   59.5450   28.9160   44.9450 C   0  0  0  0  0  0  0  0  0  0  0  0
   58.9440   27.7050   45.3040 C   0  0  0  0  0  0  0  0  0  0  0  0
   57.5550   27.6300   45.4600 C   0  0  0  0  0  0  0  0  0  0  0  0
   56.7880   26.1180   45.9360 S   0  0  0  0  0  0  0  0  0  0  0  0
   55.0750   26.3340   45.9970 N   0  0  0  0  0  0  0  0  0  0  0  0
   57.2940   25.6980   47.2860 O   0  0  0  0  0  0  0  0  0  0  0  0
   57.1150   25.0410   44.9400 O   0  0  0  0  0  0  0  0  0  0  0  0
   56.7700   28.7700   45.2410 C   0  0  0  0  0  0  0  0  0  0  0  0
   59.2420   32.4520   47.5820 C   0  0  0  0  0  0  0  0  0  0  0  0
   60.5960   32.2000   47.8140 C   0  0  0  0  0  0  0  0  0  0  0  0
   62.8696   34.0807   50.9771 H   0  0  0  0  0  0  0  0  0  0  0  0
   63.2203   35.1436   49.5720 H   0  0  0  0  0  0  0  0  0  0  0  0
   61.7508   34.1104   49.5720 H   0  0  0  0  0  0  0  0  0  0  0  0
   63.1630   30.9323   50.8228 H   0  0  0  0  0  0  0  0  0  0  0  0
   64.9024   29.6752   52.0882 H   0  0  0  0  0  0  0  0  0  0  0  0
   67.9354   32.3928   50.6320 H   0  0  0  0  0  0  0  0  0  0  0  0
   66.2028   33.6508   49.3550 H   0  0  0  0  0  0  0  0  0  0  0  0
   61.9554   34.6393   45.8411 H   0  0  0  0  0  0  0  0  0  0  0  0
   59.5367   35.0793   45.4098 H   0  0  0  0  0  0  0  0  0  0  0  0
   56.8499   34.2711   47.3447 H   0  0  0  0  0  0  0  0  0  0  0  0
   55.9289   34.2207   45.1014 H   0  0  0  0  0  0  0  0  0  0  0  0
   59.2410   31.0051   44.4641 H   0  0  0  0  0  0  0  0  0  0  0  0
   60.6375   28.9738   44.8310 H   0  0  0  0  0  0  0  0  0  0  0  0
   59.5638   26.8104   45.4639 H   0  0  0  0  0  0  0  0  0  0  0  0
   54.7780   26.7160   45.0720 H   0  0  0  0  0  0  0  0  0  0  0  0
   55.6792   28.7158   45.3721 H   0  0  0  0  0  0  0  0  0  0  0  0
   58.4781   31.8140   48.0504 H   0  0  0  0  0  0  0  0  0  0  0  0
   60.8948   31.3718   48.4734 H   0  0  0  0  0  0  0  0  0  0  0  0
  1  2  1  0
  2  3  1  0
  3  4  2  0
  4  5  1  0
  5  6  2  0
  6  7  1  0
  6  8  1  0
  8  9  2  0
  2 10  1  0
 10 11  2  0
 10 12  2  0
 10 13  1  0
 13 14  2  0
 14 15  1  0
 15 16  2  0
 16 17  1  0
 17 18  2  3
 18 19  1  0
 19 20  2  0
 19 21  1  0
 21 22  1  0
 22 23  2  0
 23 24  1  0
 24 25  2  0
 25 26  1  0
 26 27  1  0
 27 28  1  0
 27 29  2  0
 27 30  2  0
 26 31  2  0
 16 32  1  0
 32 33  2  0
  9  3  1  0
 33 13  1  0
 31 22  1  0
  1 34  1  0
  1 35  1  0
  1 36  1  0
  4 37  1  0
  5 38  1  0
  8 39  1  0
  9 40  1  0
 14 41  1  0
 15 42  1  0
 17 43  1  0
 18 44  1  0
 23 45  1  0
 24 46  1  0
 25 47  1  0
 28 48  1  0
 31 49  1  0
 32 50  1  0
 33 51  1  0
M  CHG  2  21  -1  28  -1
M  END
>  <UniqueID>  (65) 
62

>  <SMILES>  (65) 
CN(c1ccc(Cl)cc1)S(=O)(=O)c1ccc(C=CC(=O)[N-]c2cccc(S([NH-])(=O)=O)c2)cc1

>  <Energy>  (65) 
66.95140484297846

>  <Genealogy>  (65) 
CN(c1ccc(Cl)cc1)S(=O)(=O)c1ccc(C=CC(=O)[N-]c2cccc(S([NH-])(=O)=O)c2)cc1 (protonated)
CN(c1ccc(Cl)cc1)S(=O)(=O)c1ccc(C=CC(=O)[N-]c2cccc(S([NH-])(=O)=O)c2)cc1 (3D coordinates assigned)
CN(c1ccc(Cl)cc1)S(=O)(=O)c1ccc(C=CC(=O)[N-]c2cccc(S([NH-])(=O)=O)c2)cc1 (optimized conformer: 66.95140484297846 kcal/mol)

>  <smiles>  (65) 
CN(c1ccc(Cl)cc1)S(=O)(=O)c1ccc(C=CC(=O)Nc2cccc(S(N)(=O)=O)c2)cc1

>  <score_type>  (65) 
oracle

>  <origin>  (65) 
adg

>  <m_score__min__energy>  (65) 
-14.42

>  <m_primary>  (65) 
energy

$$$$
65:0
     RDKit          3D

 59 62  0  0  0  0  0  0  0  0999 V2000
   53.8570   23.1410   45.8170 C   0  0  0  0  0  0  0  0  0  0  0  0
   54.9410   23.0910   46.8610 C   0  0  0  0  0  0  0  0  0  0  0  0
   54.9860   21.9940   47.7410 C   0  0  0  0  0  0  0  0  0  0  0  0
   55.9700   21.9130   48.7290 C   0  0  0  0  0  0  0  0  0  0  0  0
   56.9160   22.9280   48.8540 C   0  0  0  0  0  0  0  0  0  0  0  0
   56.8840   24.0280   47.9930 C   0  0  0  0  0  0  0  0  0  0  0  0
   55.9020   24.1240   46.9920 C   0  0  0  0  0  0  0  0  0  0  0  0
   55.9020   25.5370   45.9250 S   0  0  0  0  0  0  0  0  0  0  0  0
   54.4870   25.9710   45.6620 O   0  0  0  0  0  0  0  0  0  0  0  0
   56.5450   25.2040   44.6060 O   0  0  0  0  0  0  0  0  0  0  0  0
   56.7710   26.8310   46.6760 N   0  0  0  0  0  0  0  0  0  0  0  0
   57.9440   27.4000   46.0900 C   0  0  0  0  0  0  0  0  0  0  0  0
   59.1850   26.8260   46.3860 C   0  0  0  0  0  0  0  0  0  0  0  0
   60.3530   27.3200   45.8010 C   0  0  0  0  0  0  0  0  0  0  0  0
   60.2880   28.4030   44.9260 C   0  0  0  0  0  0  0  0  0  0  0  0
   59.0570   28.9960   44.6340 C   0  0  0  0  0  0  0  0  0  0  0  0
   57.8730   28.5160   45.2240 C   0  0  0  0  0  0  0  0  0  0  0  0
   56.5920   29.1920   44.9090 C   0  0  0  0  0  0  0  0  0  0  0  0
   55.5170   28.5440   45.0090 O   0  0  0  0  0  0  0  0  0  0  0  0
   56.5270   30.5750   44.5420 N   0  0  0  0  0  0  0  0  0  0  0  0
   57.3800   31.6170   45.0380 C   0  0  0  0  0  0  0  0  0  0  0  0
   57.9170   31.5780   46.3350 C   0  0  0  0  0  0  0  0  0  0  0  0
   58.7520   32.6030   46.7840 C   0  0  0  0  0  0  0  0  0  0  0  0
   59.0620   33.6790   45.9410 C   0  0  0  0  0  0  0  0  0  0  0  0
   60.1460   34.9460   46.4960 S   0  0  0  0  0  0  0  0  0  0  0  0
   59.7920   35.3170   47.9090 O   0  0  0  0  0  0  0  0  0  0  0  0
   59.9910   36.1620   45.6270 O   0  0  0  0  0  0  0  0  0  0  0  0
   61.7770   34.3550   46.3770 N   0  0  0  0  0  0  0  0  0  0  0  0
   61.9520   33.1040   47.1190 C   0  0  0  0  0  0  0  0  0  0  0  0
   63.4100   32.6530   47.0690 C   0  0  0  0  0  0  0  0  0  0  0  0
   64.1030   33.2840   48.2730 C   0  0  0  0  0  0  0  0  0  0  0  0
   63.0030   33.8350   49.1780 C   0  0  0  0  0  0  0  0  0  0  0  0
   61.6850   33.3540   48.5940 C   0  0  0  0  0  0  0  0  0  0  0  0
   58.5420   33.7110   44.6400 C   0  0  0  0  0  0  0  0  0  0  0  0
   57.7110   32.6810   44.1890 C   0  0  0  0  0  0  0  0  0  0  0  0
   52.8748   23.1863   46.3102 H   0  0  0  0  0  0  0  0  0  0  0  0
   53.9936   24.0338   45.1891 H   0  0  0  0  0  0  0  0  0  0  0  0
   53.9108   22.2394   45.1891 H   0  0  0  0  0  0  0  0  0  0  0  0
   54.2386   21.1920   47.6500 H   0  0  0  0  0  0  0  0  0  0  0  0
   55.9980   21.0481   49.4081 H   0  0  0  0  0  0  0  0  0  0  0  0
   57.6903   22.8633   49.6327 H   0  0  0  0  0  0  0  0  0  0  0  0
   57.6338   24.8258   48.0995 H   0  0  0  0  0  0  0  0  0  0  0  0
   59.2413   25.9787   47.0852 H   0  0  0  0  0  0  0  0  0  0  0  0
   61.3231   26.8549   46.0305 H   0  0  0  0  0  0  0  0  0  0  0  0
   61.2077   28.7916   44.4644 H   0  0  0  0  0  0  0  0  0  0  0  0
   59.0130   29.8456   43.9367 H   0  0  0  0  0  0  0  0  0  0  0  0
   57.6785   30.7354   47.0007 H   0  0  0  0  0  0  0  0  0  0  0  0
   59.1676   32.5660   47.8018 H   0  0  0  0  0  0  0  0  0  0  0  0
   61.2736   32.3604   46.6754 H   0  0  0  0  0  0  0  0  0  0  0  0
   63.4703   31.5562   47.1281 H   0  0  0  0  0  0  0  0  0  0  0  0
   63.8890   32.9625   46.1284 H   0  0  0  0  0  0  0  0  0  0  0  0
   64.6916   32.5263   48.8110 H   0  0  0  0  0  0  0  0  0  0  0  0
   64.7912   34.0823   47.9581 H   0  0  0  0  0  0  0  0  0  0  0  0
   63.1268   33.4538   50.2024 H   0  0  0  0  0  0  0  0  0  0  0  0
   63.0400   34.9333   49.2269 H   0  0  0  0  0  0  0  0  0  0  0  0
   61.3636   32.4251   49.0878 H   0  0  0  0  0  0  0  0  0  0  0  0
   60.8836   34.0931   48.7406 H   0  0  0  0  0  0  0  0  0  0  0  0
   58.7884   34.5491   43.9715 H   0  0  0  0  0  0  0  0  0  0  0  0
   57.3153   32.7062   43.1629 H   0  0  0  0  0  0  0  0  0  0  0  0
  1  2  1  0
  2  3  2  0
  3  4  1  0
  4  5  2  0
  5  6  1  0
  6  7  2  0
  7  8  1  0
  8  9  2  0
  8 10  2  0
  8 11  1  0
 11 12  1  0
 12 13  2  0
 13 14  1  0
 14 15  2  0
 15 16  1  0
 16 17  2  0
 17 18  1  0
 18 19  2  0
 18 20  1  0
 20 21  1  0
 21 22  2  0
 22 23  1  0
 23 24  2  0
 24 25  1  0
 25 26  2  0
 25 27  2  0
 25 28  1  0
 28 29  1  0
 29 30  1  0
 30 31  1  0
 31 32  1  0
 32 33  1  0
 24 34  1  0
 34 35  2  0
  7  2  1  0
 17 12  1  0
 35 21  1  0
 33 29  1  0
  1 36  1  0
  1 37  1  0
  1 38  1  0
  3 39  1  0
  4 40  1  0
  5 41  1  0
  6 42  1  0
 13 43  1  0
 14 44  1  0
 15 45  1  0
 16 46  1  0
 22 47  1  0
 23 48  1  0
 29 49  1  0
 30 50  1  0
 30 51  1  0
 31 52  1  0
 31 53  1  0
 32 54  1  0
 32 55  1  0
 33 56  1  0
 33 57  1  0
 34 58  1  0
 35 59  1  0
M  CHG  3  11  -1  20  -1  28  -1
M  END
>  <UniqueID>  (66) 
63

>  <SMILES>  (66) 
Cc1ccccc1S(=O)(=O)[N-]c1ccccc1C(=O)[N-]c1ccc(S(=O)(=O)[N-]C2CCCC2)cc1

>  <Energy>  (66) 
81.47226939239079

>  <Genealogy>  (66) 
Cc1ccccc1S(=O)(=O)[N-]c1ccccc1C(=O)[N-]c1ccc(S(=O)(=O)[N-]C2CCCC2)cc1 (protonated)
Cc1ccccc1S(=O)(=O)[N-]c1ccccc1C(=O)[N-]c1ccc(S(=O)(=O)[N-]C2CCCC2)cc1 (3D coordinates assigned)
Cc1ccccc1S(=O)(=O)[N-]c1ccccc1C(=O)[N-]c1ccc(S(=O)(=O)[N-]C2CCCC2)cc1 (nonaromatic ring conformer: 81.47226939239079 kcal/mol)

>  <smiles>  (66) 
Cc1ccccc1S(=O)(=O)Nc1ccccc1C(=O)Nc1ccc(S(=O)(=O)NC2CCCC2)cc1

>  <score_type>  (66) 
oracle

>  <origin>  (66) 
adg

>  <m_score__min__energy>  (66) 
-15.369999999999999

>  <m_primary>  (66) 
energy

$$$$
66:0
     RDKit          3D

 33 34  0  0  0  0  0  0  0  0999 V2000
   58.2510   33.6920   46.6340 N   0  0  0  0  0  0  0  0  0  0  0  0
   58.1690   33.9070   44.9210 S   0  0  0  0  0  0  0  0  0  0  0  0
   57.2540   35.0540   44.6000 O   0  0  0  0  0  0  0  0  0  0  0  0
   59.5410   34.2230   44.3920 O   0  0  0  0  0  0  0  0  0  0  0  0
   57.5590   32.4360   44.1680 C   0  0  0  0  0  0  0  0  0  0  0  0
   57.4960   32.3270   42.7730 C   0  0  0  0  0  0  0  0  0  0  0  0
   57.0260   31.1510   42.1830 C   0  0  0  0  0  0  0  0  0  0  0  0
   56.6120   30.0810   42.9810 C   0  0  0  0  0  0  0  0  0  0  0  0
   56.6560   30.1850   44.3830 C   0  0  0  0  0  0  0  0  0  0  0  0
   56.2710   29.1010   45.2380 N   0  0  0  0  0  0  0  0  0  0  0  0
   57.1280   28.0750   45.7530 C   0  0  0  0  0  0  0  0  0  0  0  0
   57.0400   26.8890   45.3370 O   0  0  0  0  0  0  0  0  0  0  0  0
   58.1270   28.4110   46.8150 C   0  0  0  0  0  0  0  0  0  0  0  0
   58.9350   29.5120   46.4040 O   0  0  0  0  0  0  0  0  0  0  0  0
   59.1260   30.6580   47.1840 C   0  0  0  0  0  0  0  0  0  0  0  0
   58.1410   31.2800   47.6640 O   0  0  0  0  0  0  0  0  0  0  0  0
   60.4840   31.1400   47.4470 C   0  0  0  0  0  0  0  0  0  0  0  0
   61.4030   30.5500   48.2950 C   0  0  0  0  0  0  0  0  0  0  0  0
   62.5310   31.3400   48.2290 C   0  0  0  0  0  0  0  0  0  0  0  0
   62.2260   32.3570   47.3480 C   0  0  0  0  0  0  0  0  0  0  0  0
   63.3960   33.7740   46.8430 Br  0  0  0  0  0  0  0  0  0  0  0  0
   61.0030   32.2140   46.8970 O   0  0  0  0  0  0  0  0  0  0  0  0
   57.1520   31.3580   44.9660 C   0  0  0  0  0  0  0  0  0  0  0  0
   57.3940   33.1650   46.9160 H   0  0  0  0  0  0  0  0  0  0  0  0
   59.0650   33.0660   46.8250 H   0  0  0  0  0  0  0  0  0  0  0  0
   57.8170   33.1683   42.1412 H   0  0  0  0  0  0  0  0  0  0  0  0
   56.9817   31.0670   41.0871 H   0  0  0  0  0  0  0  0  0  0  0  0
   56.2505   29.1544   42.5111 H   0  0  0  0  0  0  0  0  0  0  0  0
   57.5965   28.6761   47.7414 H   0  0  0  0  0  0  0  0  0  0  0  0
   58.7732   27.5377   46.9875 H   0  0  0  0  0  0  0  0  0  0  0  0
   61.2633   29.6399   48.8969 H   0  0  0  0  0  0  0  0  0  0  0  0
   63.4784   31.1904   48.7675 H   0  0  0  0  0  0  0  0  0  0  0  0
   57.2228   31.4339   46.0611 H   0  0  0  0  0  0  0  0  0  0  0  0
  1  2  1  0
  2  3  2  0
  2  4  2  0
  2  5  1  0
  5  6  2  0
  6  7  1  0
  7  8  2  0
  8  9  1  0
  9 10  1  0
 10 11  1  0
 11 12  2  0
 11 13  1  0
 13 14  1  0
 14 15  1  0
 15 16  2  0
 15 17  1  0
 17 18  2  0
 18 19  1  0
 19 20  2  0
 20 21  1  0
 20 22  1  0
  9 23  2  0
 23  5  1  0
 22 17  1  0
  1 24  1  0
  1 25  1  0
  6 26  1  0
  7 27  1  0
  8 28  1  0
 13 29  1  0
 13 30  1  0
 18 31  1  0
 19 32  1  0
 23 33  1  0
M  CHG  1  10  -1
M  END
>  <UniqueID>  (67) 
64

>  <SMILES>  (67) 
NS(=O)(=O)c1cccc([N-]C(=O)COC(=O)c2ccc(Br)o2)c1

>  <Energy>  (67) 
57.40038032809128

>  <Genealogy>  (67) 
NS(=O)(=O)c1cccc([N-]C(=O)COC(=O)c2ccc(Br)o2)c1 (protonated)
NS(=O)(=O)c1cccc([N-]C(=O)COC(=O)c2ccc(Br)o2)c1 (3D coordinates assigned)
NS(=O)(=O)c1cccc([N-]C(=O)COC(=O)c2ccc(Br)o2)c1 (optimized conformer: 57.40038032809128 kcal/mol)

>  <smiles>  (67) 
NS(=O)(=O)c1cccc(NC(=O)COC(=O)c2ccc(Br)o2)c1

>  <score_type>  (67) 
oracle

>  <origin>  (67) 
adg

>  <m_score__min__energy>  (67) 
-8.9100000000000001

>  <m_primary>  (67) 
energy

$$$$
67:0
     RDKit          3D

 35 36  0  0  0  0  0  0  0  0999 V2000
   51.8150   27.9720   53.4410 O   0  0  0  0  0  0  0  0  0  0  0  0
   52.3690   29.0990   53.3440 C   0  0  0  0  0  0  0  0  0  0  0  0
   53.4280   29.4240   54.2570 N   0  0  0  0  0  0  0  0  0  0  0  0
   54.4310   30.4720   54.0720 C   0  0  0  0  0  0  0  0  0  0  0  0
   55.6490   29.9540   53.2980 C   0  0  0  0  0  0  0  0  0  0  0  0
   56.2730   31.0440   52.4170 C   0  0  0  0  0  0  0  0  0  0  0  0
   56.8930   30.4520   51.2340 N   0  0  0  0  0  0  0  0  0  0  0  0
   58.2680   30.5810   50.8490 C   0  0  0  0  0  0  0  0  0  0  0  0
   59.0610   29.6440   51.1250 O   0  0  0  0  0  0  0  0  0  0  0  0
   58.7940   31.7650   50.1480 C   0  0  0  0  0  0  0  0  0  0  0  0
   59.3740   32.8800   50.7220 C   0  0  0  0  0  0  0  0  0  0  0  0
   59.6490   33.7360   49.6780 C   0  0  0  0  0  0  0  0  0  0  0  0
   59.2200   33.0940   48.5340 C   0  0  0  0  0  0  0  0  0  0  0  0
   58.7110   31.9260   48.8470 O   0  0  0  0  0  0  0  0  0  0  0  0
   51.9210   30.0270   52.2870 C   0  0  0  0  0  0  0  0  0  0  0  0
   51.4760   31.3120   52.6320 C   0  0  0  0  0  0  0  0  0  0  0  0
   51.0430   32.2000   51.6430 C   0  0  0  0  0  0  0  0  0  0  0  0
   50.5840   33.4620   52.0030 O   0  0  0  0  0  0  0  0  0  0  0  0
   51.0780   31.8210   50.2960 C   0  0  0  0  0  0  0  0  0  0  0  0
   50.6420   32.7100   49.3190 O   0  0  0  0  0  0  0  0  0  0  0  0
   51.5560   30.5500   49.9380 C   0  0  0  0  0  0  0  0  0  0  0  0
   51.6190   30.1530   48.6020 O   0  0  0  0  0  0  0  0  0  0  0  0
   51.9830   29.6620   50.9320 C   0  0  0  0  0  0  0  0  0  0  0  0
   53.9793   31.3042   53.5122 H   0  0  0  0  0  0  0  0  0  0  0  0
   54.7689   30.8052   55.0643 H   0  0  0  0  0  0  0  0  0  0  0  0
   56.4038   29.6023   54.0167 H   0  0  0  0  0  0  0  0  0  0  0  0
   55.3140   29.1364   52.6428 H   0  0  0  0  0  0  0  0  0  0  0  0
   55.4885   31.7474   52.1011 H   0  0  0  0  0  0  0  0  0  0  0  0
   57.0444   31.5722   52.9967 H   0  0  0  0  0  0  0  0  0  0  0  0
   59.5745   33.0491   51.7903 H   0  0  0  0  0  0  0  0  0  0  0  0
   60.1159   34.7299   49.7431 H   0  0  0  0  0  0  0  0  0  0  0  0
   59.2937   33.5001   47.5144 H   0  0  0  0  0  0  0  0  0  0  0  0
   51.4678   31.6227   53.6872 H   0  0  0  0  0  0  0  0  0  0  0  0
   51.4890   30.8070   47.8410 H   0  0  0  0  0  0  0  0  0  0  0  0
   52.3698   28.6715   50.6502 H   0  0  0  0  0  0  0  0  0  0  0  0
  1  2  2  0
  2  3  1  0
  3  4  1  0
  4  5  1  0
  5  6  1  0
  6  7  1  0
  7  8  1  0
  8  9  2  0
  8 10  1  0
 10 11  2  0
 11 12  1  0
 12 13  2  0
 13 14  1  0
  2 15  1  0
 15 16  2  0
 16 17  1  0
 17 18  1  0
 17 19  2  0
 19 20  1  0
 19 21  1  0
 21 22  1  0
 21 23  2  0
 14 10  1  0
 23 15  1  0
  4 24  1  0
  4 25  1  0
  5 26  1  0
  5 27  1  0
  6 28  1  0
  6 29  1  0
 11 30  1  0
 12 31  1  0
 13 32  1  0
 16 33  1  0
 22 34  1  0
 23 35  1  0
M  CHG  4   3  -1   7  -1  18  -1  20  -1
M  END
>  <UniqueID>  (68) 
65

>  <SMILES>  (68) 
O=C([N-]CCC[N-]C(=O)c1ccco1)c1cc([O-])c([O-])c(O)c1

>  <Energy>  (68) 
62.53077390991357

>  <Genealogy>  (68) 
O=C([N-]CCC[N-]C(=O)c1ccco1)c1cc([O-])c([O-])c(O)c1 (protonated)
O=C([N-]CCC[N-]C(=O)c1ccco1)c1cc([O-])c([O-])c(O)c1 (3D coordinates assigned)
O=C([N-]CCC[N-]C(=O)c1ccco1)c1cc([O-])c([O-])c(O)c1 (optimized conformer: 62.53077390991357 kcal/mol)

>  <smiles>  (68) 
O=C(NCCCNC(=O)c1ccco1)c1cc(O)c(O)c(O)c1

>  <score_type>  (68) 
oracle

>  <origin>  (68) 
adg

>  <m_score__min__energy>  (68) 
-16.739999999999998

>  <m_primary>  (68) 
energy

$$$$
68:0
     RDKit          3D

 38 40  0  0  0  0  0  0  0  0999 V2000
   57.0090   33.7920   44.8760 C   0  0  0  0  0  0  0  0  0  0  0  0
   58.1770   33.9670   45.7880 C   0  0  0  0  0  0  0  0  0  0  0  0
   59.3480   34.6530   45.4830 C   0  0  0  0  0  0  0  0  0  0  0  0
   60.3070   34.5860   46.4990 C   0  0  0  0  0  0  0  0  0  0  0  0
   59.8880   33.8350   47.5900 C   0  0  0  0  0  0  0  0  0  0  0  0
   60.8230   33.5140   49.0370 S   0  0  0  0  0  0  0  0  0  0  0  0
   62.0590   34.3680   49.0200 O   0  0  0  0  0  0  0  0  0  0  0  0
   59.9870   33.8320   50.2430 O   0  0  0  0  0  0  0  0  0  0  0  0
   61.2750   31.8400   49.0670 N   0  0  0  0  0  0  0  0  0  0  0  0
   60.5310   30.7730   48.4630 C   0  0  0  0  0  0  0  0  0  0  0  0
   59.6780   30.0130   49.2700 C   0  0  0  0  0  0  0  0  0  0  0  0
   58.9330   28.9630   48.7250 C   0  0  0  0  0  0  0  0  0  0  0  0
   59.0290   28.6540   47.3550 C   0  0  0  0  0  0  0  0  0  0  0  0
   58.2410   27.5420   46.7740 C   0  0  0  0  0  0  0  0  0  0  0  0
   58.6630   26.3570   46.8820 O   0  0  0  0  0  0  0  0  0  0  0  0
   57.0040   27.8210   46.0950 N   0  0  0  0  0  0  0  0  0  0  0  0
   56.7800   28.7250   45.1870 C   0  0  0  0  0  0  0  0  0  0  0  0
   55.5440   29.2330   44.9800 N   0  0  0  0  0  0  0  0  0  0  0  0
   55.5380   30.1640   43.9880 C   0  0  0  0  0  0  0  0  0  0  0  0
   56.7730   30.3890   43.3930 C   0  0  0  0  0  0  0  0  0  0  0  0
   57.0660   31.4060   42.3410 C   0  0  0  0  0  0  0  0  0  0  0  0
   57.9200   29.4170   44.1480 S   0  0  0  0  0  0  0  0  0  0  0  0
   59.8880   29.4220   46.5470 C   0  0  0  0  0  0  0  0  0  0  0  0
   60.6320   30.4710   47.0940 C   0  0  0  0  0  0  0  0  0  0  0  0
   58.3390   33.2480   47.3010 S   0  0  0  0  0  0  0  0  0  0  0  0
   56.0951   33.6551   45.4727 H   0  0  0  0  0  0  0  0  0  0  0  0
   56.9023   34.6842   44.2415 H   0  0  0  0  0  0  0  0  0  0  0  0
   57.1685   32.9077   44.2415 H   0  0  0  0  0  0  0  0  0  0  0  0
   59.5041   35.1938   44.5379 H   0  0  0  0  0  0  0  0  0  0  0  0
   61.2898   35.0765   46.4403 H   0  0  0  0  0  0  0  0  0  0  0  0
   59.5927   30.2433   50.3422 H   0  0  0  0  0  0  0  0  0  0  0  0
   58.2665   28.3736   49.3719 H   0  0  0  0  0  0  0  0  0  0  0  0
   54.6261   30.6971   43.6809 H   0  0  0  0  0  0  0  0  0  0  0  0
   57.3404   32.3584   42.8181 H   0  0  0  0  0  0  0  0  0  0  0  0
   57.8998   31.0560   41.7147 H   0  0  0  0  0  0  0  0  0  0  0  0
   56.1738   31.5533   41.7147 H   0  0  0  0  0  0  0  0  0  0  0  0
   59.9747   29.1944   45.4743 H   0  0  0  0  0  0  0  0  0  0  0  0
   61.2995   31.0628   46.4504 H   0  0  0  0  0  0  0  0  0  0  0  0
  1  2  1  0
  2  3  2  0
  3  4  1  0
  4  5  2  0
  5  6  1  0
  6  7  2  0
  6  8  2  0
  6  9  1  0
  9 10  1  0
 10 11  2  0
 11 12  1  0
 12 13  2  0
 13 14  1  0
 14 15  2  0
 14 16  1  0
 16 17  2  3
 17 18  1  0
 18 19  1  0
 19 20  2  0
 20 21  1  0
 20 22  1  0
 13 23  1  0
 23 24  2  0
  5 25  1  0
 25  2  1  0
 24 10  1  0
 22 17  1  0
  1 26  1  0
  1 27  1  0
  1 28  1  0
  3 29  1  0
  4 30  1  0
 11 31  1  0
 12 32  1  0
 19 33  1  0
 21 34  1  0
 21 35  1  0
 21 36  1  0
 23 37  1  0
 24 38  1  0
M  CHG  2   9  -1  18  -1
M  END
>  <UniqueID>  (69) 
66

>  <SMILES>  (69) 
Cc1ccc(S(=O)(=O)[N-]c2ccc(C(=O)N=c3[n-]cc(C)s3)cc2)s1

>  <Energy>  (69) 
102.3484979532675

>  <Genealogy>  (69) 
Cc1ccc(S(=O)(=O)[N-]c2ccc(C(=O)N=c3[n-]cc(C)s3)cc2)s1 (protonated)
Cc1ccc(S(=O)(=O)[N-]c2ccc(C(=O)N=c3[n-]cc(C)s3)cc2)s1 (3D coordinates assigned)
Cc1ccc(S(=O)(=O)[N-]c2ccc(C(=O)N=c3[n-]cc(C)s3)cc2)s1 (optimized conformer: 102.3484979532675 kcal/mol)

>  <smiles>  (69) 
Cc1ccc(S(=O)(=O)Nc2ccc(C(=O)N=c3[nH]cc(C)s3)cc2)s1

>  <score_type>  (69) 
oracle

>  <origin>  (69) 
adg

>  <m_score__min__energy>  (69) 
-11.57

>  <m_primary>  (69) 
energy

$$$$
69:0
     RDKit          3D

 38 40  0  0  0  0  0  0  0  0999 V2000
   59.2640   33.8060   44.5660 O   0  0  0  0  0  0  0  0  0  0  0  0
   58.5990   33.2410   45.4770 C   0  0  0  0  0  0  0  0  0  0  0  0
   58.5130   33.8350   46.7810 N   0  0  0  0  0  0  0  0  0  0  0  0
   59.3530   34.9590   47.1930 C   0  0  0  0  0  0  0  0  0  0  0  0
   60.2450   34.5660   48.3750 C   0  0  0  0  0  0  0  0  0  0  0  0
   61.2570   33.5200   47.9830 C   0  0  0  0  0  0  0  0  0  0  0  0
   60.8950   32.1630   47.9370 C   0  0  0  0  0  0  0  0  0  0  0  0
   61.8200   31.2020   47.5200 C   0  0  0  0  0  0  0  0  0  0  0  0
   63.1100   31.5860   47.1450 C   0  0  0  0  0  0  0  0  0  0  0  0
   63.4760   32.9350   47.1830 C   0  0  0  0  0  0  0  0  0  0  0  0
   62.5530   33.9010   47.5970 C   0  0  0  0  0  0  0  0  0  0  0  0
   57.9300   31.9620   45.1950 C   0  0  0  0  0  0  0  0  0  0  0  0
   58.5190   30.7140   45.2220 C   0  0  0  0  0  0  0  0  0  0  0  0
   57.4790   29.8560   44.9110 C   0  0  0  0  0  0  0  0  0  0  0  0
   57.5300   28.3820   44.7960 C   0  0  0  0  0  0  0  0  0  0  0  0
   58.0710   27.7540   43.6580 C   0  0  0  0  0  0  0  0  0  0  0  0
   58.1100   26.3580   43.5720 C   0  0  0  0  0  0  0  0  0  0  0  0
   57.6110   25.5750   44.6180 C   0  0  0  0  0  0  0  0  0  0  0  0
   57.6610   23.8260   44.5070 Cl  0  0  0  0  0  0  0  0  0  0  0  0
   57.0730   26.1900   45.7520 C   0  0  0  0  0  0  0  0  0  0  0  0
   57.0320   27.5850   45.8420 C   0  0  0  0  0  0  0  0  0  0  0  0
   56.3910   30.5720   44.7250 O   0  0  0  0  0  0  0  0  0  0  0  0
   56.6250   31.8410   44.8890 N   0  0  0  0  0  0  0  0  0  0  0  0
   57.9430   33.3630   47.5190 H   0  0  0  0  0  0  0  0  0  0  0  0
   59.9876   35.2639   46.3478 H   0  0  0  0  0  0  0  0  0  0  0  0
   58.7029   35.7905   47.5027 H   0  0  0  0  0  0  0  0  0  0  0  0
   60.7763   35.4598   48.7339 H   0  0  0  0  0  0  0  0  0  0  0  0
   59.6045   34.1461   49.1646 H   0  0  0  0  0  0  0  0  0  0  0  0
   59.8802   31.8561   48.2302 H   0  0  0  0  0  0  0  0  0  0  0  0
   61.5318   30.1409   47.4869 H   0  0  0  0  0  0  0  0  0  0  0  0
   63.8373   30.8275   46.8200 H   0  0  0  0  0  0  0  0  0  0  0  0
   64.4914   33.2370   46.8868 H   0  0  0  0  0  0  0  0  0  0  0  0
   62.8427   34.9619   47.6204 H   0  0  0  0  0  0  0  0  0  0  0  0
   59.5673   30.4613   45.4394 H   0  0  0  0  0  0  0  0  0  0  0  0
   58.4652   28.3642   42.8320 H   0  0  0  0  0  0  0  0  0  0  0  0
   58.5342   25.8750   42.6794 H   0  0  0  0  0  0  0  0  0  0  0  0
   56.6809   25.5753   46.5756 H   0  0  0  0  0  0  0  0  0  0  0  0
   56.6072   28.0622   46.7374 H   0  0  0  0  0  0  0  0  0  0  0  0
  1  2  2  0
  2  3  1  0
  3  4  1  0
  4  5  1  0
  5  6  1  0
  6  7  2  0
  7  8  1  0
  8  9  2  0
  9 10  1  0
 10 11  2  0
  2 12  1  0
 12 13  1  0
 13 14  2  0
 14 15  1  0
 15 16  2  0
 16 17  1  0
 17 18  2  0
 18 19  1  0
 18 20  1  0
 20 21  2  0
 14 22  1  0
 22 23  1  0
 11  6  1  0
 23 12  2  0
 21 15  1  0
  3 24  1  0
  4 25  1  0
  4 26  1  0
  5 27  1  0
  5 28  1  0
  7 29  1  0
  8 30  1  0
  9 31  1  0
 10 32  1  0
 11 33  1  0
 13 34  1  0
 16 35  1  0
 17 36  1  0
 20 37  1  0
 21 38  1  0
M  END
>  <UniqueID>  (70) 
67

>  <SMILES>  (70) 
O=C(NCCc1ccccc1)c1cc(-c2ccc(Cl)cc2)on1

>  <Energy>  (70) 
65.87793615690052

>  <Genealogy>  (70) 
O=C(NCCc1ccccc1)c1cc(-c2ccc(Cl)cc2)on1 (3D coordinates assigned)
O=C(NCCc1ccccc1)c1cc(-c2ccc(Cl)cc2)on1 (optimized conformer: 65.87793615690052 kcal/mol)

>  <smiles>  (70) 
O=C(NCCc1ccccc1)c1cc(-c2ccc(Cl)cc2)on1

>  <score_type>  (70) 
oracle

>  <origin>  (70) 
adg

>  <m_score__min__energy>  (70) 
-8.4900000000000002

>  <m_primary>  (70) 
energy

$$$$
70:0
     RDKit          3D

 63 66  0  0  0  0  0  0  0  0999 V2000
   58.1360   32.4400   54.9910 C   0  0  0  0  0  0  0  0  0  0  0  0
   58.7110   32.6840   53.6210 C   0  0  0  0  0  0  0  0  0  0  0  0
   59.7470   33.6150   53.4650 C   0  0  0  0  0  0  0  0  0  0  0  0
   60.2580   33.8750   52.2340 N   0  0  0  0  0  0  0  0  0  0  0  0
   59.7880   33.2400   51.1310 C   0  0  0  0  0  0  0  0  0  0  0  0
   60.2850   33.5370   49.9650 N   0  0  0  0  0  0  0  0  0  0  0  0
   59.5780   33.5470   48.7110 C   0  0  0  0  0  0  0  0  0  0  0  0
   60.0250   34.3930   47.6880 C   0  0  0  0  0  0  0  0  0  0  0  0
   59.3390   34.4590   46.4710 C   0  0  0  0  0  0  0  0  0  0  0  0
   58.1920   33.6780   46.2630 C   0  0  0  0  0  0  0  0  0  0  0  0
   57.4070   33.8050   45.0160 C   0  0  0  0  0  0  0  0  0  0  0  0
   56.7560   34.8590   44.7900 O   0  0  0  0  0  0  0  0  0  0  0  0
   57.3990   32.7560   44.0400 N   0  0  0  0  0  0  0  0  0  0  0  0
   57.2760   31.3630   44.3620 C   0  0  0  0  0  0  0  0  0  0  0  0
   56.0700   30.6740   44.1520 C   0  0  0  0  0  0  0  0  0  0  0  0
   55.9650   29.3220   44.4830 C   0  0  0  0  0  0  0  0  0  0  0  0
   57.0590   28.6450   45.0250 C   0  0  0  0  0  0  0  0  0  0  0  0
   56.9320   27.3330   45.3460 F   0  0  0  0  0  0  0  0  0  0  0  0
   58.2750   29.3190   45.2310 C   0  0  0  0  0  0  0  0  0  0  0  0
   59.4250   28.6260   45.9060 C   0  0  0  0  0  0  0  0  0  0  0  0
   58.9560   28.0400   47.1560 N   0  0  0  0  0  0  0  0  0  0  0  0
   59.6360   28.1350   48.4140 C   0  0  0  0  0  0  0  0  0  0  0  0
   60.2010   27.1080   48.8730 O   0  0  0  0  0  0  0  0  0  0  0  0
   59.7060   29.4240   49.1840 C   0  0  0  0  0  0  0  0  0  0  0  0
   58.4340   29.8560   49.5150 F   0  0  0  0  0  0  0  0  0  0  0  0
   60.3180   30.3970   48.4190 F   0  0  0  0  0  0  0  0  0  0  0  0
   60.4250   29.2330   50.3490 F   0  0  0  0  0  0  0  0  0  0  0  0
   58.3780   30.6780   44.8900 C   0  0  0  0  0  0  0  0  0  0  0  0
   57.7860   32.7780   47.2600 C   0  0  0  0  0  0  0  0  0  0  0  0
   58.4810   32.7000   48.4670 C   0  0  0  0  0  0  0  0  0  0  0  0
   58.7890   32.3280   51.2610 N   0  0  0  0  0  0  0  0  0  0  0  0
   58.2540   32.0070   52.4670 C   0  0  0  0  0  0  0  0  0  0  0  0
   57.2130   30.9570   52.5050 C   0  0  0  0  0  0  0  0  0  0  0  0
   57.5520   29.6570   52.9070 C   0  0  0  0  0  0  0  0  0  0  0  0
   56.5730   28.6650   52.9820 C   0  0  0  0  0  0  0  0  0  0  0  0
   55.2380   28.9610   52.6790 C   0  0  0  0  0  0  0  0  0  0  0  0
   54.2690   27.9610   52.7500 O   0  0  0  0  0  0  0  0  0  0  0  0
   54.8810   30.2690   52.3070 C   0  0  0  0  0  0  0  0  0  0  0  0
   53.2040   30.6670   51.9300 S   0  0  0  0  0  0  0  0  0  0  0  0
   52.2610   30.7490   53.4360 C   0  0  0  0  0  0  0  0  0  0  0  0
   53.1430   31.9900   51.2200 O   0  0  0  0  0  0  0  0  0  0  0  0
   52.6080   29.6140   51.0380 O   0  0  0  0  0  0  0  0  0  0  0  0
   55.8710   31.2610   52.2250 C   0  0  0  0  0  0  0  0  0  0  0  0
   58.8646   32.7492   55.7549 H   0  0  0  0  0  0  0  0  0  0  0  0
   57.2108   33.0231   55.1095 H   0  0  0  0  0  0  0  0  0  0  0  0
   57.9125   31.3695   55.1095 H   0  0  0  0  0  0  0  0  0  0  0  0
   60.1487   34.1383   54.3452 H   0  0  0  0  0  0  0  0  0  0  0  0
   60.9223   35.0101   47.8430 H   0  0  0  0  0  0  0  0  0  0  0  0
   59.7000   35.1256   45.6739 H   0  0  0  0  0  0  0  0  0  0  0  0
   55.2047   31.2021   43.7249 H   0  0  0  0  0  0  0  0  0  0  0  0
   55.0176   28.7885   44.3163 H   0  0  0  0  0  0  0  0  0  0  0  0
   59.8148   27.8336   45.2502 H   0  0  0  0  0  0  0  0  0  0  0  0
   60.2271   29.3500   46.1119 H   0  0  0  0  0  0  0  0  0  0  0  0
   59.3305   31.2078   45.0386 H   0  0  0  0  0  0  0  0  0  0  0  0
   56.9140   32.1297   47.0887 H   0  0  0  0  0  0  0  0  0  0  0  0
   58.1701   31.9730   49.2317 H   0  0  0  0  0  0  0  0  0  0  0  0
   58.5944   29.4179   53.1644 H   0  0  0  0  0  0  0  0  0  0  0  0
   56.8518   27.6438   53.2811 H   0  0  0  0  0  0  0  0  0  0  0  0
   53.4950   27.9240   52.0960 H   0  0  0  0  0  0  0  0  0  0  0  0
   52.9414   30.6898   54.2983 H   0  0  0  0  0  0  0  0  0  0  0  0
   51.7070   31.6987   53.4705 H   0  0  0  0  0  0  0  0  0  0  0  0
   51.5514   29.9092   53.4705 H   0  0  0  0  0  0  0  0  0  0  0  0
   55.5928   32.2860   51.9387 H   0  0  0  0  0  0  0  0  0  0  0  0
  1  2  1  0
  2  3  2  0
  3  4  1  0
  4  5  1  0
  5  6  2  3
  6  7  1  0
  7  8  2  0
  8  9  1  0
  9 10  2  0
 10 11  1  0
 11 12  2  0
 11 13  1  0
 13 14  1  0
 14 15  2  0
 15 16  1  0
 16 17  2  0
 17 18  1  0
 17 19  1  0
 19 20  1  0
 20 21  1  0
 21 22  1  0
 22 23  2  0
 22 24  1  0
 24 25  1  0
 24 26  1  0
 24 27  1  0
 19 28  2  0
 10 29  1  0
 29 30  2  0
  5 31  1  0
 31 32  2  0
 32 33  1  0
 33 34  2  0
 34 35  1  0
 35 36  2  0
 36 37  1  0
 36 38  1  0
 38 39  1  0
 39 40  1  0
 39 41  2  0
 39 42  2  0
 38 43  2  0
 32  2  1  0
 43 33  1  0
 30  7  1  0
 28 14  1  0
  1 44  1  0
  1 45  1  0
  1 46  1  0
  3 47  1  0
  8 48  1  0
  9 49  1  0
 15 50  1  0
 16 51  1  0
 20 52  1  0
 20 53  1  0
 28 54  1  0
 29 55  1  0
 30 56  1  0
 34 57  1  0
 35 58  1  0
 37 59  1  0
 40 60  1  0
 40 61  1  0
 40 62  1  0
 43 63  1  0
M  CHG  3   4  -1  13  -1  21  -1
M  END
>  <UniqueID>  (71) 
68

>  <SMILES>  (71) 
Cc1c[n-]c(=Nc2ccc(C(=O)[N-]c3ccc(F)c(C[N-]C(=O)C(F)(F)F)c3)cc2)nc1-c1ccc(O)c(S(C)(=O)=O)c1

>  <Energy>  (71) 
79.7652047076524

>  <Genealogy>  (71) 
Cc1c[n-]c(=Nc2ccc(C(=O)[N-]c3ccc(F)c(C[N-]C(=O)C(F)(F)F)c3)cc2)nc1-c1ccc(O)c(S(C)(=O)=O)c1 (protonated)
Cc1c[n-]c(=Nc2ccc(C(=O)[N-]c3ccc(F)c(C[N-]C(=O)C(F)(F)F)c3)cc2)nc1-c1ccc(O)c(S(C)(=O)=O)c1 (3D coordinates assigned)
Cc1c[n-]c(=Nc2ccc(C(=O)[N-]c3ccc(F)c(C[N-]C(=O)C(F)(F)F)c3)cc2)nc1-c1ccc(O)c(S(C)(=O)=O)c1 (optimized conformer: 79.7652047076524 kcal/mol)

>  <smiles>  (71) 
Cc1c[nH]c(=Nc2ccc(C(=O)Nc3ccc(F)c(CNC(=O)C(F)(F)F)c3)cc2)nc1-c1ccc(O)c(S(C)(=O)=O)c1

>  <score_type>  (71) 
oracle

>  <origin>  (71) 
adg

>  <m_score__min__energy>  (71) 
-14.15

>  <m_primary>  (71) 
energy

$$$$
71:0
     RDKit          3D

 37 39  0  0  0  0  0  0  0  0999 V2000
   65.7450   33.0370   50.3040 C   0  0  0  0  0  0  0  0  0  0  0  0
   64.5700   33.8300   50.1660 O   0  0  0  0  0  0  0  0  0  0  0  0
   63.5380   33.5650   49.2540 C   0  0  0  0  0  0  0  0  0  0  0  0
   63.7640   32.6070   48.2580 C   0  0  0  0  0  0  0  0  0  0  0  0
   62.7720   32.3020   47.3220 C   0  0  0  0  0  0  0  0  0  0  0  0
   61.5310   32.9530   47.3700 C   0  0  0  0  0  0  0  0  0  0  0  0
   60.5570   32.6600   46.4600 N   0  0  0  0  0  0  0  0  0  0  0  0
   59.3380   33.2740   46.4920 C   0  0  0  0  0  0  0  0  0  0  0  0
   58.3030   32.9330   45.4910 C   0  0  0  0  0  0  0  0  0  0  0  0
   57.5310   33.8370   45.0680 O   0  0  0  0  0  0  0  0  0  0  0  0
   58.1570   31.5880   44.9980 N   0  0  0  0  0  0  0  0  0  0  0  0
   57.7800   31.3650   43.5980 C   0  0  0  0  0  0  0  0  0  0  0  0
   56.3480   30.8400   43.5160 C   0  0  0  0  0  0  0  0  0  0  0  0
   56.0370   29.3410   44.5360 S   0  0  0  0  0  0  0  0  0  0  0  0
   57.6780   29.1630   45.3230 C   0  0  0  0  0  0  0  0  0  0  0  0
   58.1370   30.4750   45.9610 C   0  0  0  0  0  0  0  0  0  0  0  0
   59.0780   34.2550   47.4600 C   0  0  0  0  0  0  0  0  0  0  0  0
   60.0570   34.5740   48.4020 C   0  0  0  0  0  0  0  0  0  0  0  0
   61.2950   33.9230   48.3690 C   0  0  0  0  0  0  0  0  0  0  0  0
   62.2950   34.2250   49.3060 C   0  0  0  0  0  0  0  0  0  0  0  0
   65.9642   32.8891   51.3717 H   0  0  0  0  0  0  0  0  0  0  0  0
   65.5867   32.0603   49.8234 H   0  0  0  0  0  0  0  0  0  0  0  0
   66.5916   33.5492   49.8234 H   0  0  0  0  0  0  0  0  0  0  0  0
   64.7331   32.0887   48.2118 H   0  0  0  0  0  0  0  0  0  0  0  0
   62.9655   31.5483   46.5446 H   0  0  0  0  0  0  0  0  0  0  0  0
   60.7600   31.9650   45.7050 H   0  0  0  0  0  0  0  0  0  0  0  0
   57.8514   32.3141   43.0466 H   0  0  0  0  0  0  0  0  0  0  0  0
   58.4609   30.6226   43.1562 H   0  0  0  0  0  0  0  0  0  0  0  0
   55.6686   31.6357   43.8555 H   0  0  0  0  0  0  0  0  0  0  0  0
   56.1757   30.5518   42.4685 H   0  0  0  0  0  0  0  0  0  0  0  0
   57.6193   28.3880   46.1014 H   0  0  0  0  0  0  0  0  0  0  0  0
   58.4053   28.8828   44.5468 H   0  0  0  0  0  0  0  0  0  0  0  0
   57.4492   30.7291   46.7810 H   0  0  0  0  0  0  0  0  0  0  0  0
   59.1637   30.3294   46.3280 H   0  0  0  0  0  0  0  0  0  0  0  0
   58.1066   34.7708   47.4766 H   0  0  0  0  0  0  0  0  0  0  0  0
   59.8557   35.3361   49.1693 H   0  0  0  0  0  0  0  0  0  0  0  0
   62.1074   34.9799   50.0838 H   0  0  0  0  0  0  0  0  0  0  0  0
  1  2  1  0
  2  3  1  0
  3  4  2  0
  4  5  1  0
  5  6  2  0
  6  7  1  0
  7  8  2  0
  8  9  1  0
  9 10  2  0
  9 11  1  0
 11 12  1  0
 12 13  1  0
 13 14  1  0
 14 15  1  0
 15 16  1  0
  8 17  1  0
 17 18  2  0
 18 19  1  0
 19 20  2  0
 20  3  1  0
 19  6  1  0
 16 11  1  0
  1 21  1  0
  1 22  1  0
  1 23  1  0
  4 24  1  0
  5 25  1  0
  7 26  1  0
 12 27  1  0
 12 28  1  0
 13 29  1  0
 13 30  1  0
 15 31  1  0
 15 32  1  0
 16 33  1  0
 16 34  1  0
 17 35  1  0
 18 36  1  0
 20 37  1  0
M  CHG  1   7   1
M  END
>  <UniqueID>  (72) 
69

>  <SMILES>  (72) 
COc1ccc2[nH+]c(C(=O)N3CCSCC3)ccc2c1

>  <Energy>  (72) 
46.487835709453236

>  <Genealogy>  (72) 
COc1ccc2[nH+]c(C(=O)N3CCSCC3)ccc2c1 (protonated)
COc1ccc2[nH+]c(C(=O)N3CCSCC3)ccc2c1 (3D coordinates assigned)
COc1ccc2[nH+]c(C(=O)N3CCSCC3)ccc2c1 (nonaromatic ring conformer: 46.487835709453236 kcal/mol)

>  <smiles>  (72) 
COc1ccc2nc(C(=O)N3CCSCC3)ccc2c1

>  <score_type>  (72) 
oracle

>  <origin>  (72) 
adg

>  <m_score__min__energy>  (72) 
-5.4900000000000002

>  <m_primary>  (72) 
energy

$$$$
72:0
     RDKit          3D

 49 51  0  0  0  0  0  0  0  0999 V2000
   56.6500   34.5940   44.8940 C   0  0  0  0  0  0  0  0  0  0  0  0
   58.0850   34.2210   45.2950 C   0  0  2  0  0  0  0  0  0  0  0  0
   58.8740   33.6710   44.0880 C   0  0  0  0  0  0  0  0  0  0  0  0
   58.4190   32.2610   43.6700 C   0  0  0  0  0  0  0  0  0  0  0  0
   58.1320   31.3150   44.8700 C   0  0  1  0  0  0  0  0  0  0  0  0
   58.6850   31.8640   46.1990 C   0  0  0  0  0  0  0  0  0  0  0  0
   58.1100   33.2570   46.5140 C   0  0  0  0  0  0  0  0  0  0  0  0
   56.6880   31.0810   44.9970 N   0  0  0  0  0  0  0  0  0  0  0  0
   56.4560   29.6930   44.7960 C   0  0  0  0  0  0  0  0  0  0  0  0
   55.3120   29.1700   44.8740 O   0  0  0  0  0  0  0  0  0  0  0  0
   57.6340   28.9610   44.5140 N   0  0  0  0  0  0  0  0  0  0  0  0
   57.7870   27.5080   44.4200 C   0  0  0  0  0  0  0  0  0  0  0  0
   58.4480   26.9450   45.6500 C   0  0  0  0  0  0  0  0  0  0  0  0
   59.2110   25.9510   45.5280 O   0  0  0  0  0  0  0  0  0  0  0  0
   58.2670   27.5180   46.9540 N   0  0  0  0  0  0  0  0  0  0  0  0
   59.0450   28.5800   47.5180 C   0  0  0  0  0  0  0  0  0  0  0  0
   58.5330   29.3980   48.5360 C   0  0  0  0  0  0  0  0  0  0  0  0
   59.3020   30.4470   49.0470 C   0  0  0  0  0  0  0  0  0  0  0  0
   60.5920   30.6890   48.5580 C   0  0  0  0  0  0  0  0  0  0  0  0
   61.3020   31.7800   49.0770 O   0  0  0  0  0  0  0  0  0  0  0  0
   62.1800   32.9050   48.1330 S   0  0  0  0  0  0  0  0  0  0  0  0
   63.2230   33.8670   49.2040 C   0  0  0  0  0  0  0  0  0  0  0  0
   63.0330   32.1760   47.1330 O   0  0  0  0  0  0  0  0  0  0  0  0
   61.2290   33.8210   47.4160 O   0  0  0  0  0  0  0  0  0  0  0  0
   61.1190   29.8380   47.5680 C   0  0  0  0  0  0  0  0  0  0  0  0
   60.3500   28.7870   47.0610 C   0  0  0  0  0  0  0  0  0  0  0  0
   58.6680   29.9300   44.6080 C   0  0  0  0  0  0  0  0  0  0  0  0
   59.8910   29.6470   44.4880 O   0  0  0  0  0  0  0  0  0  0  0  0
   56.0454   34.7512   45.7994 H   0  0  0  0  0  0  0  0  0  0  0  0
   56.6644   35.5182   44.2977 H   0  0  0  0  0  0  0  0  0  0  0  0
   56.2125   33.7797   44.2977 H   0  0  0  0  0  0  0  0  0  0  0  0
   58.5948   35.1402   45.6193 H   0  0  0  0  0  0  0  0  0  0  0  0
   59.9407   33.6316   44.3539 H   0  0  0  0  0  0  0  0  0  0  0  0
   58.6899   34.3440   43.2376 H   0  0  0  0  0  0  0  0  0  0  0  0
   59.2101   31.8094   43.0534 H   0  0  0  0  0  0  0  0  0  0  0  0
   57.4735   32.3784   43.1202 H   0  0  0  0  0  0  0  0  0  0  0  0
   59.7803   31.9366   46.1281 H   0  0  0  0  0  0  0  0  0  0  0  0
   58.3907   31.1773   47.0064 H   0  0  0  0  0  0  0  0  0  0  0  0
   58.7240   33.7141   47.3040 H   0  0  0  0  0  0  0  0  0  0  0  0
   57.0649   33.1075   46.8230 H   0  0  0  0  0  0  0  0  0  0  0  0
   58.4037   27.2691   43.5410 H   0  0  0  0  0  0  0  0  0  0  0  0
   56.7868   27.0596   44.3283 H   0  0  0  0  0  0  0  0  0  0  0  0
   57.5239   29.2133   48.9330 H   0  0  0  0  0  0  0  0  0  0  0  0
   58.8905   31.0884   49.8403 H   0  0  0  0  0  0  0  0  0  0  0  0
   62.9788   33.6418   50.2527 H   0  0  0  0  0  0  0  0  0  0  0  0
   64.2767   33.6170   49.0110 H   0  0  0  0  0  0  0  0  0  0  0  0
   63.0588   34.9374   49.0110 H   0  0  0  0  0  0  0  0  0  0  0  0
   62.1399   30.0010   47.1921 H   0  0  0  0  0  0  0  0  0  0  0  0
   60.7742   28.1183   46.2975 H   0  0  0  0  0  0  0  0  0  0  0  0
  1  2  1  0
  2  3  1  0
  3  4  1  0
  4  5  1  0
  5  6  1  0
  6  7  1  0
  5  8  1  6
  8  9  1  0
  9 10  2  0
  9 11  1  0
 11 12  1  0
 12 13  1  0
 13 14  2  0
 13 15  1  0
 15 16  1  0
 16 17  2  0
 17 18  1  0
 18 19  2  0
 19 20  1  0
 20 21  1  0
 21 22  1  0
 21 23  2  0
 21 24  2  0
 19 25  1  0
 25 26  2  0
 11 27  1  0
 27 28  2  0
  7  2  1  0
 26 16  1  0
 27  5  1  0
  1 29  1  0
  1 30  1  0
  1 31  1  0
  2 32  1  6
  3 33  1  0
  3 34  1  0
  4 35  1  0
  4 36  1  0
  6 37  1  0
  6 38  1  0
  7 39  1  0
  7 40  1  0
 12 41  1  0
 12 42  1  0
 17 43  1  0
 18 44  1  0
 22 45  1  0
 22 46  1  0
 22 47  1  0
 25 48  1  0
 26 49  1  0
M  CHG  2   8  -1  15  -1
M  END
>  <UniqueID>  (73) 
70

>  <SMILES>  (73) 
CC1CCC2(CC1)[N-]C(=O)N(CC(=O)[N-]c1ccc(OS(C)(=O)=O)cc1)C2=O

>  <Energy>  (73) 
68.07680276830635

>  <Genealogy>  (73) 
CC1CCC2(CC1)[N-]C(=O)N(CC(=O)[N-]c1ccc(OS(C)(=O)=O)cc1)C2=O (protonated)
CC1CCC2(CC1)[N-]C(=O)N(CC(=O)[N-]c1ccc(OS(C)(=O)=O)cc1)C2=O (3D coordinates assigned)
CC1CCC2(CC1)[N-]C(=O)N(CC(=O)[N-]c1ccc(OS(C)(=O)=O)cc1)C2=O (nonaromatic ring conformer: 68.07680276830635 kcal/mol)

>  <smiles>  (73) 
CC1CCC2(CC1)NC(=O)N(CC(=O)Nc1ccc(OS(C)(=O)=O)cc1)C2=O

>  <score_type>  (73) 
oracle

>  <origin>  (73) 
adg

>  <m_score__min__energy>  (73) 
-11.710000000000001

>  <m_primary>  (73) 
energy

$$$$
73:0
     RDKit          3D

 68 70  0  0  0  0  0  0  0  0999 V2000
   60.4340   30.7180   47.6350 C   0  0  0  0  0  0  0  0  0  0  0  0
   58.9340   30.4890   47.7920 C   0  0  0  0  0  0  0  0  0  0  0  0
   58.6670   29.2810   48.5040 O   0  0  0  0  0  0  0  0  0  0  0  0
   59.3270   28.9470   49.6940 C   0  0  0  0  0  0  0  0  0  0  0  0
   60.4030   28.0330   49.6840 C   0  0  0  0  0  0  0  0  0  0  0  0
   60.7730   27.2680   48.4360 C   0  0  0  0  0  0  0  0  0  0  0  0
   59.5750   26.5740   47.9350 N   0  0  0  0  0  0  0  0  0  0  0  0
   59.5570   26.4560   46.4690 C   0  0  0  0  0  0  0  0  0  0  0  0
   58.9370   27.6740   45.8260 C   0  0  0  0  0  0  0  0  0  0  0  0
   59.7290   28.5820   45.1080 C   0  0  0  0  0  0  0  0  0  0  0  0
   59.1520   29.7100   44.5170 C   0  0  0  0  0  0  0  0  0  0  0  0
   57.7670   29.9320   44.6010 C   0  0  0  0  0  0  0  0  0  0  0  0
   57.1530   31.1350   43.9990 C   0  0  0  0  0  0  0  0  0  0  0  0
   57.0250   31.2030   42.7480 O   0  0  0  0  0  0  0  0  0  0  0  0
   56.6570   32.2160   44.8030 N   0  0  0  0  0  0  0  0  0  0  0  0
   57.3800   32.7950   45.9300 C   0  0  0  0  0  0  0  0  0  0  0  0
   58.4710   33.7450   45.4280 C   0  0  0  0  0  0  0  0  0  0  0  0
   59.5590   33.9060   46.4600 C   0  0  0  0  0  0  0  0  0  0  0  0
   60.9080   33.8080   46.0800 C   0  0  0  0  0  0  0  0  0  0  0  0
   61.9180   33.8280   47.0440 C   0  0  0  0  0  0  0  0  0  0  0  0
   61.5940   33.9390   48.4140 C   0  0  0  0  0  0  0  0  0  0  0  0
   62.5800   33.9420   49.4130 O   0  0  0  0  0  0  0  0  0  0  0  0
   63.7280   33.1010   49.4110 C   0  0  0  0  0  0  0  0  0  0  0  0
   60.2480   34.0530   48.8050 C   0  0  0  0  0  0  0  0  0  0  0  0
   59.9570   34.1790   50.1770 O   0  0  0  0  0  0  0  0  0  0  0  0
   59.4570   33.1240   50.9880 C   0  0  0  0  0  0  0  0  0  0  0  0
   59.2340   34.0320   47.8210 C   0  0  0  0  0  0  0  0  0  0  0  0
   56.9750   29.0090   45.3010 C   0  0  0  0  0  0  0  0  0  0  0  0
   57.5540   27.8880   45.9040 C   0  0  0  0  0  0  0  0  0  0  0  0
   61.0520   27.7250   50.8880 C   0  0  0  0  0  0  0  0  0  0  0  0
   60.6310   28.2980   52.0890 C   0  0  0  0  0  0  0  0  0  0  0  0
   59.5490   29.1790   52.1030 C   0  0  0  0  0  0  0  0  0  0  0  0
   58.8850   29.5090   50.9050 C   0  0  0  0  0  0  0  0  0  0  0  0
   57.7830   30.3780   50.8780 O   0  0  0  0  0  0  0  0  0  0  0  0
   57.0200   30.7530   52.0210 C   0  0  0  0  0  0  0  0  0  0  0  0
   60.9001   30.7892   48.6288 H   0  0  0  0  0  0  0  0  0  0  0  0
   60.8773   29.8771   47.0815 H   0  0  0  0  0  0  0  0  0  0  0  0
   60.6062   31.6528   47.0815 H   0  0  0  0  0  0  0  0  0  0  0  0
   58.4980   31.3346   48.3442 H   0  0  0  0  0  0  0  0  0  0  0  0
   58.4877   30.4080   46.7899 H   0  0  0  0  0  0  0  0  0  0  0  0
   61.1439   27.9656   47.6706 H   0  0  0  0  0  0  0  0  0  0  0  0
   61.5617   26.5362   48.6650 H   0  0  0  0  0  0  0  0  0  0  0  0
   58.7310   27.1210   48.2230 H   0  0  0  0  0  0  0  0  0  0  0  0
   60.5896   26.3461   46.1060 H   0  0  0  0  0  0  0  0  0  0  0  0
   58.9531   25.5769   46.1997 H   0  0  0  0  0  0  0  0  0  0  0  0
   60.8103   28.4056   45.0093 H   0  0  0  0  0  0  0  0  0  0  0  0
   59.7879   30.4302   43.9814 H   0  0  0  0  0  0  0  0  0  0  0  0
   56.6762   33.3533   46.5647 H   0  0  0  0  0  0  0  0  0  0  0  0
   57.8483   31.9856   46.5094 H   0  0  0  0  0  0  0  0  0  0  0  0
   58.9076   33.3366   44.5047 H   0  0  0  0  0  0  0  0  0  0  0  0
   58.0195   34.7295   45.2359 H   0  0  0  0  0  0  0  0  0  0  0  0
   61.1704   33.7149   45.0158 H   0  0  0  0  0  0  0  0  0  0  0  0
   62.9712   33.7569   46.7347 H   0  0  0  0  0  0  0  0  0  0  0  0
   64.0250   32.8835   50.4476 H   0  0  0  0  0  0  0  0  0  0  0  0
   63.4924   32.1602   48.8919 H   0  0  0  0  0  0  0  0  0  0  0  0
   64.5540   33.6093   48.8919 H   0  0  0  0  0  0  0  0  0  0  0  0
   59.5814   33.3865   52.0489 H   0  0  0  0  0  0  0  0  0  0  0  0
   58.3897   32.9692   50.7713 H   0  0  0  0  0  0  0  0  0  0  0  0
   60.0129   32.1999   50.7713 H   0  0  0  0  0  0  0  0  0  0  0  0
   58.1797   34.1151   48.1237 H   0  0  0  0  0  0  0  0  0  0  0  0
   55.8892   29.1687   45.3760 H   0  0  0  0  0  0  0  0  0  0  0  0
   56.9197   27.1691   46.4433 H   0  0  0  0  0  0  0  0  0  0  0  0
   61.9008   27.0253   50.8861 H   0  0  0  0  0  0  0  0  0  0  0  0
   61.1531   28.0547   53.0261 H   0  0  0  0  0  0  0  0  0  0  0  0
   59.2128   29.6180   53.0539 H   0  0  0  0  0  0  0  0  0  0  0  0
   57.5704   30.4825   52.9342 H   0  0  0  0  0  0  0  0  0  0  0  0
   56.8464   31.8391   52.0057 H   0  0  0  0  0  0  0  0  0  0  0  0
   56.0540   30.2270   52.0057 H   0  0  0  0  0  0  0  0  0  0  0  0
  1  2  1  0
  2  3  1  0
  3  4  1  0
  4  5  2  0
  5  6  1  0
  6  7  1  0
  7  8  1  0
  8  9  1  0
  9 10  2  0
 10 11  1  0
 11 12  2  0
 12 13  1  0
 13 14  2  0
 13 15  1  0
 15 16  1  0
 16 17  1  0
 17 18  1  0
 18 19  2  0
 19 20  1  0
 20 21  2  0
 21 22  1  0
 22 23  1  0
 21 24  1  0
 24 25  1  0
 25 26  1  0
 24 27  2  0
 12 28  1  0
 28 29  2  0
  5 30  1  0
 30 31  2  0
 31 32  1  0
 32 33  2  0
 33 34  1  0
 34 35  1  0
 33  4  1  0
 29  9  1  0
 27 18  1  0
  1 36  1  0
  1 37  1  0
  1 38  1  0
  2 39  1  0
  2 40  1  0
  6 41  1  0
  6 42  1  0
  7 43  1  0
  8 44  1  0
  8 45  1  0
 10 46  1  0
 11 47  1  0
 16 48  1  0
 16 49  1  0
 17 50  1  0
 17 51  1  0
 19 52  1  0
 20 53  1  0
 23 54  1  0
 23 55  1  0
 23 56  1  0
 26 57  1  0
 26 58  1  0
 26 59  1  0
 27 60  1  0
 28 61  1  0
 29 62  1  0
 30 63  1  0
 31 64  1  0
 32 65  1  0
 35 66  1  0
 35 67  1  0
 35 68  1  0
M  CHG  1  15  -1
M  END
>  <UniqueID>  (74) 
71

>  <SMILES>  (74) 
CCOc1c(CNCc2ccc(C(=O)[N-]CCc3ccc(OC)c(OC)c3)cc2)cccc1OC

>  <Energy>  (74) 
70.74636841755984

>  <Genealogy>  (74) 
CCOc1c(CNCc2ccc(C(=O)[N-]CCc3ccc(OC)c(OC)c3)cc2)cccc1OC (protonated)
CCOc1c(CNCc2ccc(C(=O)[N-]CCc3ccc(OC)c(OC)c3)cc2)cccc1OC (3D coordinates assigned)
CCOc1c(CNCc2ccc(C(=O)[N-]CCc3ccc(OC)c(OC)c3)cc2)cccc1OC (optimized conformer: 70.74636841755984 kcal/mol)

>  <smiles>  (74) 
CCOc1c(CNCc2ccc(C(=O)NCCc3ccc(OC)c(OC)c3)cc2)cccc1OC

>  <score_type>  (74) 
oracle

>  <origin>  (74) 
adg

>  <m_score__min__energy>  (74) 
-9.8599999999999994

>  <m_primary>  (74) 
energy

$$$$
74:0
     RDKit          3D

 51 54  0  0  0  0  0  0  0  0999 V2000
   59.1220   32.5670   46.6270 O   0  0  0  0  0  0  0  0  0  0  0  0
   59.2410   31.4600   46.0380 C   0  0  0  0  0  0  0  0  0  0  0  0
   60.3580   30.6260   46.3750 N   0  0  0  0  0  0  0  0  0  0  0  0
   60.5320   29.8690   47.5820 C   0  0  0  0  0  0  0  0  0  0  0  0
   61.3210   30.4190   48.6130 C   0  0  0  0  0  0  0  0  0  0  0  0
   61.9610   31.6950   48.4540 N   0  0  0  0  0  0  0  0  0  0  0  0
   63.0620   31.8410   47.5010 C   0  0  0  0  0  0  0  0  0  0  0  0
   63.0730   33.2700   46.9490 C   0  0  0  0  0  0  0  0  0  0  0  0
   63.0600   34.2170   48.0020 O   0  0  0  0  0  0  0  0  0  0  0  0
   61.8460   34.1210   48.7230 C   0  0  0  0  0  0  0  0  0  0  0  0
   61.7400   32.7660   49.4280 C   0  0  0  0  0  0  0  0  0  0  0  0
   61.4500   29.7440   49.8310 C   0  0  0  0  0  0  0  0  0  0  0  0
   60.8310   28.5110   50.0220 C   0  0  0  0  0  0  0  0  0  0  0  0
   60.0860   27.9360   48.9940 C   0  0  0  0  0  0  0  0  0  0  0  0
   59.9300   28.5970   47.7650 C   0  0  0  0  0  0  0  0  0  0  0  0
   59.2100   27.9390   46.7040 N   0  0  0  0  0  0  0  0  0  0  0  0
   58.0680   27.0770   47.0610 C   0  0  0  0  0  0  0  0  0  0  0  0
   57.2840   26.5670   45.8380 C   0  0  0  0  0  0  0  0  0  0  0  0
   57.5180   27.3510   44.6890 O   0  0  0  0  0  0  0  0  0  0  0  0
   58.8800   27.2500   44.3390 C   0  0  0  0  0  0  0  0  0  0  0  0
   59.7340   28.0350   45.3310 C   0  0  0  0  0  0  0  0  0  0  0  0
   58.2070   31.0450   45.0610 C   0  0  0  0  0  0  0  0  0  0  0  0
   58.2560   31.5310   43.7410 C   0  0  0  0  0  0  0  0  0  0  0  0
   57.2920   31.1400   42.8070 C   0  0  0  0  0  0  0  0  0  0  0  0
   56.2620   30.2760   43.1830 C   0  0  0  0  0  0  0  0  0  0  0  0
   56.1870   29.8080   44.4980 C   0  0  0  0  0  0  0  0  0  0  0  0
   55.1530   28.9600   44.8760 O   0  0  0  0  0  0  0  0  0  0  0  0
   57.1500   30.1950   45.4360 C   0  0  0  0  0  0  0  0  0  0  0  0
   64.0161   31.6367   48.0088 H   0  0  0  0  0  0  0  0  0  0  0  0
   62.9275   31.1291   46.6733 H   0  0  0  0  0  0  0  0  0  0  0  0
   63.9802   33.4158   46.3443 H   0  0  0  0  0  0  0  0  0  0  0  0
   62.1737   33.4164   46.3326 H   0  0  0  0  0  0  0  0  0  0  0  0
   61.8084   34.9230   49.4749 H   0  0  0  0  0  0  0  0  0  0  0  0
   61.0075   34.2189   48.0177 H   0  0  0  0  0  0  0  0  0  0  0  0
   62.4998   32.7040   50.2210 H   0  0  0  0  0  0  0  0  0  0  0  0
   60.7395   32.6592   49.8725 H   0  0  0  0  0  0  0  0  0  0  0  0
   62.0437   30.1894   50.6428 H   0  0  0  0  0  0  0  0  0  0  0  0
   60.9303   27.9902   50.9858 H   0  0  0  0  0  0  0  0  0  0  0  0
   59.6151   26.9537   49.1471 H   0  0  0  0  0  0  0  0  0  0  0  0
   58.4473   26.2085   47.6195 H   0  0  0  0  0  0  0  0  0  0  0  0
   57.3756   27.6856   47.6611 H   0  0  0  0  0  0  0  0  0  0  0  0
   57.5897   25.5314   45.6282 H   0  0  0  0  0  0  0  0  0  0  0  0
   56.2117   26.6282   46.0754 H   0  0  0  0  0  0  0  0  0  0  0  0
   59.1827   26.1926   44.3549 H   0  0  0  0  0  0  0  0  0  0  0  0
   59.0252   27.6647   43.3306 H   0  0  0  0  0  0  0  0  0  0  0  0
   60.7585   27.6348   45.3127 H   0  0  0  0  0  0  0  0  0  0  0  0
   59.7160   29.0937   45.0328 H   0  0  0  0  0  0  0  0  0  0  0  0
   59.0576   32.2226   43.4425 H   0  0  0  0  0  0  0  0  0  0  0  0
   57.3452   31.5139   41.7739 H   0  0  0  0  0  0  0  0  0  0  0  0
   55.5093   29.9634   42.4443 H   0  0  0  0  0  0  0  0  0  0  0  0
   57.0806   29.8329   46.4724 H   0  0  0  0  0  0  0  0  0  0  0  0
  1  2  2  0
  2  3  1  0
  3  4  1  0
  4  5  1  0
  5  6  1  0
  6  7  1  0
  7  8  1  0
  8  9  1  0
  9 10  1  0
 10 11  1  0
  5 12  2  0
 12 13  1  0
 13 14  2  0
 14 15  1  0
 15 16  1  0
 16 17  1  0
 17 18  1  0
 18 19  1  0
 19 20  1  0
 20 21  1  0
  2 22  1  0
 22 23  2  0
 23 24  1  0
 24 25  2  0
 25 26  1  0
 26 27  1  0
 26 28  2  0
 15  4  2  0
 21 16  1  0
 28 22  1  0
 11  6  1  0
  7 29  1  0
  7 30  1  0
  8 31  1  0
  8 32  1  0
 10 33  1  0
 10 34  1  0
 11 35  1  0
 11 36  1  0
 12 37  1  0
 13 38  1  0
 14 39  1  0
 17 40  1  0
 17 41  1  0
 18 42  1  0
 18 43  1  0
 20 44  1  0
 20 45  1  0
 21 46  1  0
 21 47  1  0
 23 48  1  0
 24 49  1  0
 25 50  1  0
 28 51  1  0
M  CHG  2   3  -1  27  -1
M  END
>  <UniqueID>  (75) 
72

>  <SMILES>  (75) 
O=C([N-]c1c(N2CCOCC2)cccc1N1CCOCC1)c1cccc([O-])c1

>  <Energy>  (75) 
76.26467562046302

>  <Genealogy>  (75) 
O=C([N-]c1c(N2CCOCC2)cccc1N1CCOCC1)c1cccc([O-])c1 (protonated)
O=C([N-]c1c(N2CCOCC2)cccc1N1CCOCC1)c1cccc([O-])c1 (3D coordinates assigned)
O=C([N-]c1c(N2CCOCC2)cccc1N1CCOCC1)c1cccc([O-])c1 (nonaromatic ring conformer: 76.26467562046302 kcal/mol)

>  <smiles>  (75) 
O=C(Nc1c(N2CCOCC2)cccc1N1CCOCC1)c1cccc(O)c1

>  <score_type>  (75) 
oracle

>  <origin>  (75) 
adg

>  <m_score__min__energy>  (75) 
-12.09

>  <m_primary>  (75) 
energy

$$$$
75:0
     RDKit          3D

 39 40  0  0  0  0  0  0  0  0999 V2000
   59.2140   35.3410   47.2800 N   0  0  0  0  0  0  0  0  0  0  0  0
   60.0100   35.0170   46.1000 C   0  0  0  0  0  0  0  0  0  0  0  0
   59.1120   34.7990   44.8790 C   0  0  0  0  0  0  0  0  0  0  0  0
   58.5230   33.4120   44.8690 C   0  0  0  0  0  0  0  0  0  0  0  0
   58.3800   32.6920   46.0660 C   0  0  0  0  0  0  0  0  0  0  0  0
   57.8110   31.4160   46.0570 C   0  0  0  0  0  0  0  0  0  0  0  0
   57.3720   30.8460   44.8540 C   0  0  0  0  0  0  0  0  0  0  0  0
   56.6790   29.2280   44.8540 S   0  0  0  0  0  0  0  0  0  0  0  0
   57.0650   28.4800   43.6080 O   0  0  0  0  0  0  0  0  0  0  0  0
   55.1810   29.3430   44.9120 O   0  0  0  0  0  0  0  0  0  0  0  0
   57.2360   28.3520   46.2420 N   0  0  0  0  0  0  0  0  0  0  0  0
   58.3810   27.4860   46.2770 C   0  0  0  0  0  0  0  0  0  0  0  0
   59.6900   28.0030   46.3440 C   0  0  0  0  0  0  0  0  0  0  0  0
   60.7890   27.1450   46.3840 C   0  0  0  0  0  0  0  0  0  0  0  0
   60.5980   25.7630   46.3600 C   0  0  0  0  0  0  0  0  0  0  0  0
   59.3080   25.2360   46.2910 C   0  0  0  0  0  0  0  0  0  0  0  0
   58.1920   26.0880   46.2460 C   0  0  0  0  0  0  0  0  0  0  0  0
   56.5550   25.4140   46.1720 S   0  0  0  0  0  0  0  0  0  0  0  0
   55.3620   26.6360   45.8870 N   0  0  0  0  0  0  0  0  0  0  0  0
   56.2430   24.7360   47.4770 O   0  0  0  0  0  0  0  0  0  0  0  0
   56.4880   24.4070   45.0580 O   0  0  0  0  0  0  0  0  0  0  0  0
   57.4980   31.5680   43.6600 C   0  0  0  0  0  0  0  0  0  0  0  0
   58.0680   32.8450   43.6670 C   0  0  0  0  0  0  0  0  0  0  0  0
   59.8080   35.1900   48.1270 H   0  0  0  0  0  0  0  0  0  0  0  0
   59.0010   36.3650   47.2460 H   0  0  0  0  0  0  0  0  0  0  0  0
   60.7030   35.8461   45.8941 H   0  0  0  0  0  0  0  0  0  0  0  0
   60.5683   34.0897   46.2961 H   0  0  0  0  0  0  0  0  0  0  0  0
   58.2945   35.5346   44.9003 H   0  0  0  0  0  0  0  0  0  0  0  0
   59.7242   34.9212   43.9733 H   0  0  0  0  0  0  0  0  0  0  0  0
   58.7174   33.1345   47.0149 H   0  0  0  0  0  0  0  0  0  0  0  0
   57.7071   30.8562   46.9982 H   0  0  0  0  0  0  0  0  0  0  0  0
   59.8464   29.0916   46.3649 H   0  0  0  0  0  0  0  0  0  0  0  0
   61.8072   27.5582   46.4345 H   0  0  0  0  0  0  0  0  0  0  0  0
   61.4658   25.0880   46.3955 H   0  0  0  0  0  0  0  0  0  0  0  0
   59.1638   24.1457   46.2717 H   0  0  0  0  0  0  0  0  0  0  0  0
   55.3310   27.2500   46.7320 H   0  0  0  0  0  0  0  0  0  0  0  0
   55.6880   27.2150   45.0810 H   0  0  0  0  0  0  0  0  0  0  0  0
   57.1475   31.1291   42.7142 H   0  0  0  0  0  0  0  0  0  0  0  0
   58.1605   33.4082   42.7267 H   0  0  0  0  0  0  0  0  0  0  0  0
  1  2  1  0
  2  3  1  0
  3  4  1  0
  4  5  2  0
  5  6  1  0
  6  7  2  0
  7  8  1  0
  8  9  2  0
  8 10  2  0
  8 11  1  0
 11 12  1  0
 12 13  2  0
 13 14  1  0
 14 15  2  0
 15 16  1  0
 16 17  2  0
 17 18  1  0
 18 19  1  0
 18 20  2  0
 18 21  2  0
  7 22  1  0
 22 23  2  0
 23  4  1  0
 17 12  1  0
  1 24  1  0
  1 25  1  0
  2 26  1  0
  2 27  1  0
  3 28  1  0
  3 29  1  0
  5 30  1  0
  6 31  1  0
 13 32  1  0
 14 33  1  0
 15 34  1  0
 16 35  1  0
 19 36  1  0
 19 37  1  0
 22 38  1  0
 23 39  1  0
M  CHG  1  11  -1
M  END
>  <UniqueID>  (76) 
73

>  <SMILES>  (76) 
NCCc1ccc(S(=O)(=O)[N-]c2ccccc2S(N)(=O)=O)cc1

>  <Energy>  (76) 
38.29755237816677

>  <Genealogy>  (76) 
NCCc1ccc(S(=O)(=O)[N-]c2ccccc2S(N)(=O)=O)cc1 (protonated)
NCCc1ccc(S(=O)(=O)[N-]c2ccccc2S(N)(=O)=O)cc1 (3D coordinates assigned)
NCCc1ccc(S(=O)(=O)[N-]c2ccccc2S(N)(=O)=O)cc1 (optimized conformer: 38.29755237816677 kcal/mol)

>  <smiles>  (76) 
NCCc1ccc(S(=O)(=O)Nc2ccccc2S(N)(=O)=O)cc1

>  <score_type>  (76) 
oracle

>  <origin>  (76) 
adg

>  <m_score__min__energy>  (76) 
-9.2200000000000006

>  <m_primary>  (76) 
energy

$$$$
76:0
     RDKit          3D

 44 46  0  0  0  0  0  0  0  0999 V2000
   63.7110   32.3670   48.9340 C   0  0  0  0  0  0  0  0  0  0  0  0
   62.8520   33.0790   47.9400 C   0  0  0  0  0  0  0  0  0  0  0  0
   63.1740   33.2200   46.6400 N   0  0  0  0  0  0  0  0  0  0  0  0
   62.1990   33.8690   46.0720 O   0  0  0  0  0  0  0  0  0  0  0  0
   61.2540   34.1650   46.9360 C   0  0  0  0  0  0  0  0  0  0  0  0
   59.9990   34.9140   46.6020 C   0  0  0  0  0  0  0  0  0  0  0  0
   58.5170   33.8900   46.9210 S   0  0  0  0  0  0  0  0  0  0  0  0
   57.7210   34.1300   45.2900 C   0  0  0  0  0  0  0  0  0  0  0  0
   57.5240   32.8180   44.6030 C   0  0  0  0  0  0  0  0  0  0  0  0
   57.8170   32.5460   43.2800 C   0  0  0  0  0  0  0  0  0  0  0  0
   57.4230   31.2410   43.0700 C   0  0  0  0  0  0  0  0  0  0  0  0
   56.9190   30.8030   44.2810 C   0  0  0  0  0  0  0  0  0  0  0  0
   56.3570   29.4770   44.5530 C   0  0  0  0  0  0  0  0  0  0  0  0
   55.1430   29.3580   44.8670 O   0  0  0  0  0  0  0  0  0  0  0  0
   57.2040   28.3260   44.4740 N   0  0  0  0  0  0  0  0  0  0  0  0
   58.6610   28.3870   44.5160 C   0  0  0  0  0  0  0  0  0  0  0  0
   59.1240   28.9190   45.8510 C   0  0  0  0  0  0  0  0  0  0  0  0
   59.7760   30.1640   45.8870 C   0  0  0  0  0  0  0  0  0  0  0  0
   60.2340   30.6940   47.0960 C   0  0  0  0  0  0  0  0  0  0  0  0
   60.0500   29.9870   48.2830 C   0  0  0  0  0  0  0  0  0  0  0  0
   59.4060   28.7480   48.2640 C   0  0  0  0  0  0  0  0  0  0  0  0
   58.9410   28.2040   47.0580 C   0  0  0  0  0  0  0  0  0  0  0  0
   58.1430   26.6380   47.1140 Cl  0  0  0  0  0  0  0  0  0  0  0  0
   56.9940   31.7620   45.1750 O   0  0  0  0  0  0  0  0  0  0  0  0
   61.6150   33.6530   48.1690 C   0  0  0  0  0  0  0  0  0  0  0  0
   60.8880   33.8010   49.4700 C   0  0  0  0  0  0  0  0  0  0  0  0
   63.3906   32.6325   49.9523 H   0  0  0  0  0  0  0  0  0  0  0  0
   63.6142   31.2807   48.7907 H   0  0  0  0  0  0  0  0  0  0  0  0
   64.7605   32.6637   48.7907 H   0  0  0  0  0  0  0  0  0  0  0  0
   59.9477   35.8227   47.2197 H   0  0  0  0  0  0  0  0  0  0  0  0
   60.0209   35.1740   45.5334 H   0  0  0  0  0  0  0  0  0  0  0  0
   56.7435   34.6139   45.4325 H   0  0  0  0  0  0  0  0  0  0  0  0
   58.3713   34.7622   44.6675 H   0  0  0  0  0  0  0  0  0  0  0  0
   58.2705   33.2288   42.5465 H   0  0  0  0  0  0  0  0  0  0  0  0
   57.4948   30.6678   42.1339 H   0  0  0  0  0  0  0  0  0  0  0  0
   59.0711   27.3775   44.3655 H   0  0  0  0  0  0  0  0  0  0  0  0
   59.0145   29.0593   43.7204 H   0  0  0  0  0  0  0  0  0  0  0  0
   59.9271   30.7266   44.9539 H   0  0  0  0  0  0  0  0  0  0  0  0
   60.7404   31.6704   47.1110 H   0  0  0  0  0  0  0  0  0  0  0  0
   60.4118   30.4047   49.2341 H   0  0  0  0  0  0  0  0  0  0  0  0
   59.2622   28.1939   49.2033 H   0  0  0  0  0  0  0  0  0  0  0  0
   61.5928   33.6575   50.3023 H   0  0  0  0  0  0  0  0  0  0  0  0
   60.4478   34.8072   49.5316 H   0  0  0  0  0  0  0  0  0  0  0  0
   60.0895   33.0470   49.5316 H   0  0  0  0  0  0  0  0  0  0  0  0
  1  2  1  0
  2  3  2  0
  3  4  1  0
  4  5  1  0
  5  6  1  0
  6  7  1  0
  7  8  1  0
  8  9  1  0
  9 10  2  0
 10 11  1  0
 11 12  2  0
 12 13  1  0
 13 14  2  0
 13 15  1  0
 15 16  1  0
 16 17  1  0
 17 18  2  0
 18 19  1  0
 19 20  2  0
 20 21  1  0
 21 22  2  0
 22 23  1  0
 12 24  1  0
  5 25  2  0
 25 26  1  0
 25  2  1  0
 24  9  1  0
 22 17  1  0
  1 27  1  0
  1 28  1  0
  1 29  1  0
  6 30  1  0
  6 31  1  0
  8 32  1  0
  8 33  1  0
 10 34  1  0
 11 35  1  0
 16 36  1  0
 16 37  1  0
 18 38  1  0
 19 39  1  0
 20 40  1  0
 21 41  1  0
 26 42  1  0
 26 43  1  0
 26 44  1  0
M  CHG  1  15  -1
M  END
>  <UniqueID>  (77) 
74

>  <SMILES>  (77) 
Cc1noc(CSCc2ccc(C(=O)[N-]Cc3ccccc3Cl)o2)c1C

>  <Energy>  (77) 
90.22677021776431

>  <Genealogy>  (77) 
Cc1noc(CSCc2ccc(C(=O)[N-]Cc3ccccc3Cl)o2)c1C (protonated)
Cc1noc(CSCc2ccc(C(=O)[N-]Cc3ccccc3Cl)o2)c1C (3D coordinates assigned)
Cc1noc(CSCc2ccc(C(=O)[N-]Cc3ccccc3Cl)o2)c1C (optimized conformer: 90.22677021776431 kcal/mol)

>  <smiles>  (77) 
Cc1noc(CSCc2ccc(C(=O)NCc3ccccc3Cl)o2)c1C

>  <score_type>  (77) 
oracle

>  <origin>  (77) 
adg

>  <m_score__min__energy>  (77) 
-11.08

>  <m_primary>  (77) 
energy

$$$$
77:0
     RDKit          3D

 65 68  0  0  0  0  0  0  0  0999 V2000
   58.5600   30.6890   49.3250 C   0  0  0  0  0  0  0  0  0  0  0  0
   59.1420   29.7270   50.3570 C   0  0  0  0  0  0  0  0  0  0  0  0
   60.3650   29.0960   49.8390 N   0  0  0  0  0  0  0  0  0  0  0  0
   60.7030   29.1960   48.4160 C   0  0  0  0  0  0  0  0  0  0  0  0
   61.2320   28.3480   50.7170 C   0  0  0  0  0  0  0  0  0  0  0  0
   61.3470   27.0980   50.5780 O   0  0  0  0  0  0  0  0  0  0  0  0
   61.9890   29.0260   51.6830 O   0  0  0  0  0  0  0  0  0  0  0  0
   63.3840   28.9350   51.8380 C   0  0  0  0  0  0  0  0  0  0  0  0
   64.0020   27.7530   52.2900 C   0  0  0  0  0  0  0  0  0  0  0  0
   65.3950   27.6740   52.3920 C   0  0  0  0  0  0  0  0  0  0  0  0
   66.1850   28.7730   52.0400 C   0  0  0  0  0  0  0  0  0  0  0  0
   65.5830   29.9620   51.6160 C   0  0  0  0  0  0  0  0  0  0  0  0
   64.1820   30.0620   51.5430 C   0  0  0  0  0  0  0  0  0  0  0  0
   63.5510   31.3340   51.1280 C   0  0  0  0  0  0  0  0  0  0  0  0
   64.2680   32.2890   50.7240 O   0  0  0  0  0  0  0  0  0  0  0  0
   62.1280   31.4980   51.2430 N   0  0  0  0  0  0  0  0  0  0  0  0
   61.3490   32.4000   50.4440 C   0  0  0  0  0  0  0  0  0  0  0  0
   60.2270   33.0660   50.9700 C   0  0  0  0  0  0  0  0  0  0  0  0
   59.5090   33.9670   50.1720 C   0  0  0  0  0  0  0  0  0  0  0  0
   59.9080   34.2160   48.8560 C   0  0  0  0  0  0  0  0  0  0  0  0
   61.0270   33.5600   48.3310 C   0  0  0  0  0  0  0  0  0  0  0  0
   61.5110   33.7960   46.6190 S   0  0  0  0  0  0  0  0  0  0  0  0
   59.9810   33.0870   46.0050 C   0  0  0  0  0  0  0  0  0  0  0  0
   59.0790   33.8910   45.2980 C   0  0  0  0  0  0  0  0  0  0  0  0
   57.8540   33.3670   44.8780 C   0  0  0  0  0  0  0  0  0  0  0  0
   57.5160   32.0350   45.1760 C   0  0  0  0  0  0  0  0  0  0  0  0
   56.2170   31.5160   44.8660 N   0  0  0  0  0  0  0  0  0  0  0  0
   55.9840   30.2850   44.1760 C   0  0  0  0  0  0  0  0  0  0  0  0
   56.0310   30.2550   42.9140 O   0  0  0  0  0  0  0  0  0  0  0  0
   55.7000   29.0780   44.8890 N   0  0  0  0  0  0  0  0  0  0  0  0
   56.6440   28.1170   45.3850 C   0  0  0  0  0  0  0  0  0  0  0  0
   58.0360   28.3210   45.3140 C   0  0  0  0  0  0  0  0  0  0  0  0
   58.9140   27.3510   45.8150 C   0  0  0  0  0  0  0  0  0  0  0  0
   58.4170   26.1660   46.3660 C   0  0  0  0  0  0  0  0  0  0  0  0
   57.0350   25.9500   46.4230 C   0  0  0  0  0  0  0  0  0  0  0  0
   56.1520   26.9180   45.9310 C   0  0  0  0  0  0  0  0  0  0  0  0
   54.7790   26.6910   45.9950 O   0  0  0  0  0  0  0  0  0  0  0  0
   58.4200   31.2360   45.8870 C   0  0  0  0  0  0  0  0  0  0  0  0
   59.6610   31.7500   46.2740 C   0  0  0  0  0  0  0  0  0  0  0  0
   61.7570   32.6770   49.1340 C   0  0  0  0  0  0  0  0  0  0  0  0
   58.0572   31.5201   49.8411 H   0  0  0  0  0  0  0  0  0  0  0  0
   59.3701   31.0850   48.6950 H   0  0  0  0  0  0  0  0  0  0  0  0
   57.8332   30.1552   48.6950 H   0  0  0  0  0  0  0  0  0  0  0  0
   59.3822   30.2829   51.2753 H   0  0  0  0  0  0  0  0  0  0  0  0
   58.4004   28.9435   50.5717 H   0  0  0  0  0  0  0  0  0  0  0  0
   61.7528   29.5066   48.3094 H   0  0  0  0  0  0  0  0  0  0  0  0
   60.5597   28.2170   47.9354 H   0  0  0  0  0  0  0  0  0  0  0  0
   60.0501   29.9395   47.9354 H   0  0  0  0  0  0  0  0  0  0  0  0
   63.3846   26.8851   52.5650 H   0  0  0  0  0  0  0  0  0  0  0  0
   65.8688   26.7477   52.7490 H   0  0  0  0  0  0  0  0  0  0  0  0
   67.2812   28.7021   52.0967 H   0  0  0  0  0  0  0  0  0  0  0  0
   66.2083   30.8233   51.3382 H   0  0  0  0  0  0  0  0  0  0  0  0
   61.6310   30.9340   51.9710 H   0  0  0  0  0  0  0  0  0  0  0  0
   59.9132   32.8796   52.0077 H   0  0  0  0  0  0  0  0  0  0  0  0
   58.6274   34.4805   50.5833 H   0  0  0  0  0  0  0  0  0  0  0  0
   59.3435   34.9263   48.2341 H   0  0  0  0  0  0  0  0  0  0  0  0
   59.3352   34.9368   45.0729 H   0  0  0  0  0  0  0  0  0  0  0  0
   57.1522   33.9979   44.3128 H   0  0  0  0  0  0  0  0  0  0  0  0
   58.4340   29.2428   44.8647 H   0  0  0  0  0  0  0  0  0  0  0  0
   59.9998   27.5226   45.7747 H   0  0  0  0  0  0  0  0  0  0  0  0
   59.1103   25.4051   46.7538 H   0  0  0  0  0  0  0  0  0  0  0  0
   56.6424   25.0178   46.8553 H   0  0  0  0  0  0  0  0  0  0  0  0
   58.1525   30.1999   46.1419 H   0  0  0  0  0  0  0  0  0  0  0  0
   60.3867   31.1042   46.7901 H   0  0  0  0  0  0  0  0  0  0  0  0
   62.6606   32.1956   48.7318 H   0  0  0  0  0  0  0  0  0  0  0  0
  1  2  1  0
  2  3  1  0
  3  4  1  0
  3  5  1  0
  5  6  2  0
  5  7  1  0
  7  8  1  0
  8  9  2  0
  9 10  1  0
 10 11  2  0
 11 12  1  0
 12 13  2  0
 13 14  1  0
 14 15  2  0
 14 16  1  0
 16 17  1  0
 17 18  2  0
 18 19  1  0
 19 20  2  0
 20 21  1  0
 21 22  1  0
 22 23  1  0
 23 24  2  0
 24 25  1  0
 25 26  2  0
 26 27  1  0
 27 28  1  0
 28 29  2  0
 28 30  1  0
 30 31  1  0
 31 32  2  0
 32 33  1  0
 33 34  2  0
 34 35  1  0
 35 36  2  0
 36 37  1  0
 26 38  1  0
 38 39  2  0
 21 40  2  0
 13  8  1  0
 40 17  1  0
 39 23  1  0
 36 31  1  0
  1 41  1  0
  1 42  1  0
  1 43  1  0
  2 44  1  0
  2 45  1  0
  4 46  1  0
  4 47  1  0
  4 48  1  0
  9 49  1  0
 10 50  1  0
 11 51  1  0
 12 52  1  0
 16 53  1  0
 18 54  1  0
 19 55  1  0
 20 56  1  0
 24 57  1  0
 25 58  1  0
 32 59  1  0
 33 60  1  0
 34 61  1  0
 35 62  1  0
 38 63  1  0
 39 64  1  0
 40 65  1  0
M  CHG  3  27  -1  30  -1  37  -1
M  END
>  <UniqueID>  (78) 
75

>  <SMILES>  (78) 
CCN(C)C(=O)Oc1ccccc1C(=O)Nc1cccc(Sc2ccc([N-]C(=O)[N-]c3ccccc3[O-])cc2)c1

>  <Energy>  (78) 
80.26181083259449

>  <Genealogy>  (78) 
CCN(C)C(=O)Oc1ccccc1C(=O)Nc1cccc(Sc2ccc([N-]C(=O)[N-]c3ccccc3[O-])cc2)c1 (protonated)
CCN(C)C(=O)Oc1ccccc1C(=O)Nc1cccc(Sc2ccc([N-]C(=O)[N-]c3ccccc3[O-])cc2)c1 (3D coordinates assigned)
CCN(C)C(=O)Oc1ccccc1C(=O)Nc1cccc(Sc2ccc([N-]C(=O)[N-]c3ccccc3[O-])cc2)c1 (optimized conformer: 80.26181083259449 kcal/mol)

>  <smiles>  (78) 
CCN(C)C(=O)Oc1ccccc1C(=O)Nc1cccc(Sc2ccc(NC(=O)Nc3ccccc3O)cc2)c1

>  <score_type>  (78) 
oracle

>  <origin>  (78) 
adg

>  <m_score__min__energy>  (78) 
-16.989999999999998

>  <m_primary>  (78) 
energy

$$$$
78:0
     RDKit          3D

 30 31  0  0  0  0  0  0  0  0999 V2000
   58.8420   29.9360   46.9020 C   0  0  0  0  0  0  0  0  0  0  0  0
   57.7500   30.6530   46.3360 O   0  0  0  0  0  0  0  0  0  0  0  0
   57.4670   30.7230   44.9610 C   0  0  0  0  0  0  0  0  0  0  0  0
   58.1260   31.6410   44.1170 C   0  0  0  0  0  0  0  0  0  0  0  0
   57.7770   31.7370   42.7680 C   0  0  0  0  0  0  0  0  0  0  0  0
   56.7680   30.9280   42.2460 C   0  0  0  0  0  0  0  0  0  0  0  0
   56.1150   30.0080   43.0690 C   0  0  0  0  0  0  0  0  0  0  0  0
   56.4780   29.8760   44.4150 C   0  0  0  0  0  0  0  0  0  0  0  0
   55.7740   28.9190   45.2190 N   0  0  0  0  0  0  0  0  0  0  0  0
   56.2790   27.6400   45.6220 C   0  0  0  0  0  0  0  0  0  0  0  0
   57.5200   27.4200   45.6310 O   0  0  0  0  0  0  0  0  0  0  0  0
   55.3860   26.5980   46.0290 N   0  0  0  0  0  0  0  0  0  0  0  0
   55.4110   25.2360   45.5780 C   0  0  0  0  0  0  0  0  0  0  0  0
   54.2690   24.4150   45.6270 C   0  0  0  0  0  0  0  0  0  0  0  0
   54.3270   23.0980   45.1570 C   0  0  0  0  0  0  0  0  0  0  0  0
   55.5170   22.5990   44.6190 C   0  0  0  0  0  0  0  0  0  0  0  0
   55.5740   21.2910   44.1520 O   0  0  0  0  0  0  0  0  0  0  0  0
   56.6470   23.4180   44.5440 C   0  0  0  0  0  0  0  0  0  0  0  0
   56.5910   24.7330   45.0130 C   0  0  0  0  0  0  0  0  0  0  0  0
   58.7786   29.9776   47.9994 H   0  0  0  0  0  0  0  0  0  0  0  0
   58.8026   28.8874   46.5720 H   0  0  0  0  0  0  0  0  0  0  0  0
   59.7885   30.3890   46.5720 H   0  0  0  0  0  0  0  0  0  0  0  0
   58.9195   32.2852   44.5236 H   0  0  0  0  0  0  0  0  0  0  0  0
   58.2992   32.4524   42.1157 H   0  0  0  0  0  0  0  0  0  0  0  0
   56.4866   31.0146   41.1861 H   0  0  0  0  0  0  0  0  0  0  0  0
   55.3095   29.3824   42.6569 H   0  0  0  0  0  0  0  0  0  0  0  0
   53.3274   24.8098   46.0362 H   0  0  0  0  0  0  0  0  0  0  0  0
   53.4359   22.4553   45.2109 H   0  0  0  0  0  0  0  0  0  0  0  0
   57.5815   23.0269   44.1153 H   0  0  0  0  0  0  0  0  0  0  0  0
   57.4790   25.3779   44.9383 H   0  0  0  0  0  0  0  0  0  0  0  0
  1  2  1  0
  2  3  1  0
  3  4  2  0
  4  5  1  0
  5  6  2  0
  6  7  1  0
  7  8  2  0
  8  9  1  0
  9 10  1  0
 10 11  2  0
 10 12  1  0
 12 13  1  0
 13 14  2  0
 14 15  1  0
 15 16  2  0
 16 17  1  0
 16 18  1  0
 18 19  2  0
  8  3  1  0
 19 13  1  0
  1 20  1  0
  1 21  1  0
  1 22  1  0
  4 23  1  0
  5 24  1  0
  6 25  1  0
  7 26  1  0
 14 27  1  0
 15 28  1  0
 18 29  1  0
 19 30  1  0
M  CHG  3   9  -1  12  -1  17  -1
M  END
>  <UniqueID>  (79) 
76

>  <SMILES>  (79) 
COc1ccccc1[N-]C(=O)[N-]c1ccc([O-])cc1

>  <Energy>  (79) 
39.09912820939454

>  <Genealogy>  (79) 
COc1ccccc1[N-]C(=O)[N-]c1ccc([O-])cc1 (protonated)
COc1ccccc1[N-]C(=O)[N-]c1ccc([O-])cc1 (3D coordinates assigned)
COc1ccccc1[N-]C(=O)[N-]c1ccc([O-])cc1 (optimized conformer: 39.09912820939454 kcal/mol)

>  <smiles>  (79) 
COc1ccccc1NC(=O)Nc1ccc(O)cc1

>  <score_type>  (79) 
oracle

>  <origin>  (79) 
adg

>  <m_score__min__energy>  (79) 
-11.890000000000001

>  <m_primary>  (79) 
energy

$$$$
79:0
     RDKit          3D

 55 58  0  0  0  0  0  0  0  0999 V2000
   57.5050   20.9370   43.8993 H   0  0  0  0  0  0  0  0  0  0  0  0
   57.5530   21.7820   44.6020 C   0  0  0  0  0  0  0  0  0  0  0  0
   56.4840   22.0340   45.4650 C   0  0  0  0  0  0  0  0  0  0  0  0
   55.5945   21.3874   45.4400 H   0  0  0  0  0  0  0  0  0  0  0  0
   56.5420   23.1080   46.3620 C   0  0  0  0  0  0  0  0  0  0  0  0
   55.6924   23.3089   47.0312 H   0  0  0  0  0  0  0  0  0  0  0  0
   57.6790   23.9290   46.4110 C   0  0  0  0  0  0  0  0  0  0  0  0
   57.7360   25.0850   47.3780 C   0  0  0  0  0  0  0  0  0  0  0  0
   58.7326   25.1102   47.8430 H   0  0  0  0  0  0  0  0  0  0  0  0
   56.9488   24.9365   48.1318 H   0  0  0  0  0  0  0  0  0  0  0  0
   57.4830   26.4100   46.6930 C   0  0  0  0  0  0  0  0  0  0  0  0
   58.4650   27.4230   46.6410 C   0  0  0  0  0  0  0  0  0  0  0  0
   59.8270   27.2540   47.2570 C   0  0  0  0  0  0  0  0  0  0  0  0
   59.7375   27.2651   48.3533 H   0  0  0  0  0  0  0  0  0  0  0  0
   60.2591   26.2954   46.9341 H   0  0  0  0  0  0  0  0  0  0  0  0
   60.4803   28.0780   46.9341 H   0  0  0  0  0  0  0  0  0  0  0  0
   58.2080   28.5710   45.9630 N   0  0  0  0  0  0  0  0  0  0  0  0
   57.0240   28.8030   45.3420 C   0  0  0  0  0  0  0  0  0  0  0  0
   56.8690   29.9380   44.7320 N   0  0  0  0  0  0  0  0  0  0  0  0
   57.8620   30.8890   44.2280 C   0  0  0  0  0  0  0  0  0  0  0  0
   58.7221   30.3397   43.8174 H   0  0  0  0  0  0  0  0  0  0  0  0
   57.4133   31.5066   43.4360 H   0  0  0  0  0  0  0  0  0  0  0  0
   58.3220   31.7730   45.3600 C   0  0  0  0  0  0  0  0  0  0  0  0
   58.9490   31.2120   46.4880 C   0  0  0  0  0  0  0  0  0  0  0  0
   59.1651   30.1337   46.5106 H   0  0  0  0  0  0  0  0  0  0  0  0
   59.3020   32.0150   47.5860 C   0  0  0  0  0  0  0  0  0  0  0  0
   59.7937   31.5630   48.4600 H   0  0  0  0  0  0  0  0  0  0  0  0
   59.0270   33.4030   47.5710 C   0  0  0  0  0  0  0  0  0  0  0  0
   59.3410   34.2330   48.6500 O   0  0  0  0  0  0  0  0  0  0  0  0
   60.6570   34.5880   49.0580 C   0  0  0  0  0  0  0  0  0  0  0  0
   60.9011   35.5770   48.6429 H   0  0  0  0  0  0  0  0  0  0  0  0
   60.6768   34.5972   50.1578 H   0  0  0  0  0  0  0  0  0  0  0  0
   61.6950   33.5920   48.5850 C   0  0  0  0  0  0  0  0  0  0  0  0
   62.3600   33.8460   47.3670 C   0  0  0  0  0  0  0  0  0  0  0  0
   62.1114   34.7472   46.7873 H   0  0  0  0  0  0  0  0  0  0  0  0
   63.3320   32.9620   46.8910 C   0  0  0  0  0  0  0  0  0  0  0  0
   63.8400   33.1682   45.9374 H   0  0  0  0  0  0  0  0  0  0  0  0
   63.6610   31.8180   47.6210 C   0  0  0  0  0  0  0  0  0  0  0  0
   64.4280   31.1253   47.2442 H   0  0  0  0  0  0  0  0  0  0  0  0
   63.0160   31.5560   48.8270 C   0  0  0  0  0  0  0  0  0  0  0  0
   63.2841   30.6596   49.4054 H   0  0  0  0  0  0  0  0  0  0  0  0
   62.0280   32.4250   49.3100 C   0  0  0  0  0  0  0  0  0  0  0  0
   61.1640   31.9550   50.9650 Br  0  0  0  0  0  0  0  0  0  0  0  0
   58.4010   33.9540   46.4480 C   0  0  0  0  0  0  0  0  0  0  0  0
   58.1912   35.0334   46.4199 H   0  0  0  0  0  0  0  0  0  0  0  0
   58.0350   33.1470   45.3520 C   0  0  0  0  0  0  0  0  0  0  0  0
   57.5229   33.5952   44.4878 H   0  0  0  0  0  0  0  0  0  0  0  0
   56.0600   27.8350   45.3780 N   0  0  0  0  0  0  0  0  0  0  0  0
   55.1440   27.9570   44.8930 H   0  0  0  0  0  0  0  0  0  0  0  0
   56.2640   26.6590   46.0280 C   0  0  0  0  0  0  0  0  0  0  0  0
   55.3530   25.7830   46.0150 O   0  0  0  0  0  0  0  0  0  0  0  0
   58.7450   23.6770   45.5290 C   0  0  0  0  0  0  0  0  0  0  0  0
   59.6327   24.3265   45.5437 H   0  0  0  0  0  0  0  0  0  0  0  0
   58.6820   22.6020   44.6310 C   0  0  0  0  0  0  0  0  0  0  0  0
   59.5225   22.4049   43.9493 H   0  0  0  0  0  0  0  0  0  0  0  0
  1  2  1  0
  2  3  2  0
  3  4  1  0
  3  5  1  0
  5  6  1  0
  5  7  2  0
  7  8  1  0
  8  9  1  0
  8 10  1  0
  8 11  1  0
 11 12  2  0
 12 13  1  0
 13 14  1  0
 13 15  1  0
 13 16  1  0
 12 17  1  0
 17 18  1  0
 18 19  2  0
 19 20  1  0
 20 21  1  0
 20 22  1  0
 20 23  1  0
 23 24  2  0
 24 25  1  0
 24 26  1  0
 26 27  1  0
 26 28  2  0
 28 29  1  0
 29 30  1  0
 30 31  1  0
 30 32  1  0
 30 33  1  0
 33 34  2  0
 34 35  1  0
 34 36  1  0
 36 37  1  0
 36 38  2  0
 38 39  1  0
 38 40  1  0
 40 41  1  0
 40 42  2  0
 42 43  1  0
 28 44  1  0
 44 45  1  0
 44 46  2  0
 46 47  1  0
 18 48  1  0
 48 49  1  0
 48 50  1  0
 50 51  2  0
  7 52  1  0
 52 53  1  0
 52 54  2  0
 54 55  1  0
 54  2  1  0
 50 11  1  0
 46 23  1  0
 42 33  1  0
M  CHG  1  17  -1
M  END
>  <UniqueID>  (80) 
77

>  <SMILES>  (80) 
Cc1[n-]/c(=N/Cc2ccc(OCc3ccccc3Br)cc2)[nH]c(=O)c1Cc1ccccc1

>  <Energy>  (80) 
71.91190841114253

>  <Genealogy>  (80) 
Cc1[n-]c(=NCc2ccc(OCc3ccccc3Br)cc2)[nH]c(=O)c1Cc1ccccc1 (protonated)
Cc1[n-]/c(=N/Cc2ccc(OCc3ccccc3Br)cc2)[nH]c(=O)c1Cc1ccccc1 (cis-trans isomerization)
Cc1[n-]/c(=N/Cc2ccc(OCc3ccccc3Br)cc2)[nH]c(=O)c1Cc1ccccc1 (3D coordinates assigned)
Cc1[n-]/c(=N/Cc2ccc(OCc3ccccc3Br)cc2)[nH]c(=O)c1Cc1ccccc1 (optimized conformer: 71.91190841114253 kcal/mol)

>  <smiles>  (80) 
Cc1[nH]c(=NCc2ccc(OCc3ccccc3Br)cc2)[nH]c(=O)c1Cc1ccccc1

>  <score_type>  (80) 
oracle

>  <origin>  (80) 
adg

>  <m_score__min__energy>  (80) 
-12.09

>  <m_primary>  (80) 
energy

$$$$
80:0
     RDKit          3D

 41 43  0  0  0  0  0  0  0  0999 V2000
   56.4210   19.7260   45.2720 C   0  0  0  0  0  0  0  0  0  0  0  0
   56.3960   21.2000   44.9650 C   0  0  0  0  0  0  0  0  0  0  0  0
   56.6480   21.6230   43.6490 C   0  0  0  0  0  0  0  0  0  0  0  0
   56.6530   22.9790   43.3290 C   0  0  0  0  0  0  0  0  0  0  0  0
   56.3810   23.9290   44.3100 C   0  0  0  0  0  0  0  0  0  0  0  0
   56.1030   23.5360   45.6230 C   0  0  0  0  0  0  0  0  0  0  0  0
   55.7850   24.5550   46.5790 N   0  0  0  0  0  0  0  0  0  0  0  0
   56.0560   25.9550   46.4140 C   0  0  0  0  0  0  0  0  0  0  0  0
   55.1400   26.6990   45.9740 O   0  0  0  0  0  0  0  0  0  0  0  0
   57.3970   26.5610   46.7300 C   0  0  0  0  0  0  0  0  0  0  0  0
   57.4630   27.9450   46.2640 N   0  0  0  0  0  0  0  0  0  0  0  0
   58.6720   28.7200   46.3160 C   0  0  0  0  0  0  0  0  0  0  0  0
   59.7780   28.1520   46.5300 O   0  0  0  0  0  0  0  0  0  0  0  0
   58.6470   30.1820   46.1550 C   0  0  0  0  0  0  0  0  0  0  0  0
   59.6940   31.0650   46.4210 C   0  0  0  0  0  0  0  0  0  0  0  0
   59.1960   32.2980   46.0730 C   0  0  0  0  0  0  0  0  0  0  0  0
   59.7830   33.5600   46.1010 C   0  0  0  0  0  0  0  0  0  0  0  0
   59.0100   34.6520   45.6630 C   0  0  0  0  0  0  0  0  0  0  0  0
   57.6850   34.4530   45.2110 C   0  0  0  0  0  0  0  0  0  0  0  0
   57.1240   33.1640   45.1930 C   0  0  0  0  0  0  0  0  0  0  0  0
   57.9140   32.1050   45.6320 C   0  0  0  0  0  0  0  0  0  0  0  0
   57.5960   30.8350   45.6880 O   0  0  0  0  0  0  0  0  0  0  0  0
   56.1580   22.1650   45.9780 C   0  0  0  0  0  0  0  0  0  0  0  0
   55.9770   21.7260   47.4130 C   0  0  0  0  0  0  0  0  0  0  0  0
   56.4235   19.5785   46.3621 H   0  0  0  0  0  0  0  0  0  0  0  0
   55.5309   19.2461   44.8391 H   0  0  0  0  0  0  0  0  0  0  0  0
   57.3269   19.2766   44.8391 H   0  0  0  0  0  0  0  0  0  0  0  0
   56.8430   20.8770   42.8645 H   0  0  0  0  0  0  0  0  0  0  0  0
   56.8722   23.2996   42.2998 H   0  0  0  0  0  0  0  0  0  0  0  0
   56.3848   24.9978   44.0500 H   0  0  0  0  0  0  0  0  0  0  0  0
   57.5556   26.5388   47.8183 H   0  0  0  0  0  0  0  0  0  0  0  0
   58.1771   25.9785   46.2179 H   0  0  0  0  0  0  0  0  0  0  0  0
   56.5970   28.3650   45.8620 H   0  0  0  0  0  0  0  0  0  0  0  0
   60.6918   30.8281   46.8190 H   0  0  0  0  0  0  0  0  0  0  0  0
   60.8157   33.6992   46.4534 H   0  0  0  0  0  0  0  0  0  0  0  0
   59.4388   35.6649   45.6724 H   0  0  0  0  0  0  0  0  0  0  0  0
   57.0890   35.3128   44.8711 H   0  0  0  0  0  0  0  0  0  0  0  0
   56.0944   32.9976   44.8434 H   0  0  0  0  0  0  0  0  0  0  0  0
   56.3084   22.5298   48.0869 H   0  0  0  0  0  0  0  0  0  0  0  0
   54.9151   21.5067   47.5982 H   0  0  0  0  0  0  0  0  0  0  0  0
   56.5758   20.8220   47.5982 H   0  0  0  0  0  0  0  0  0  0  0  0
  1  2  1  0
  2  3  2  0
  3  4  1  0
  4  5  2  0
  5  6  1  0
  6  7  1  0
  7  8  1  0
  8  9  2  0
  8 10  1  0
 10 11  1  0
 11 12  1  0
 12 13  2  0
 12 14  1  0
 14 15  2  0
 15 16  1  0
 16 17  2  0
 17 18  1  0
 18 19  2  0
 19 20  1  0
 20 21  2  0
 21 22  1  0
  6 23  2  0
 23 24  1  0
 23  2  1  0
 22 14  1  0
 21 16  1  0
  1 25  1  0
  1 26  1  0
  1 27  1  0
  3 28  1  0
  4 29  1  0
  5 30  1  0
 10 31  1  0
 10 32  1  0
 11 33  1  0
 15 34  1  0
 17 35  1  0
 18 36  1  0
 19 37  1  0
 20 38  1  0
 24 39  1  0
 24 40  1  0
 24 41  1  0
M  CHG  1   7  -1
M  END
>  <UniqueID>  (81) 
78

>  <SMILES>  (81) 
Cc1cccc([N-]C(=O)CNC(=O)c2cc3ccccc3o2)c1C

>  <Energy>  (81) 
79.72790186100178

>  <Genealogy>  (81) 
Cc1cccc([N-]C(=O)CNC(=O)c2cc3ccccc3o2)c1C (protonated)
Cc1cccc([N-]C(=O)CNC(=O)c2cc3ccccc3o2)c1C (3D coordinates assigned)
Cc1cccc([N-]C(=O)CNC(=O)c2cc3ccccc3o2)c1C (optimized conformer: 79.72790186100178 kcal/mol)

>  <smiles>  (81) 
Cc1cccc(NC(=O)CNC(=O)c2cc3ccccc3o2)c1C

>  <score_type>  (81) 
oracle

>  <origin>  (81) 
adg

>  <m_score__min__energy>  (81) 
-9.3399999999999999

>  <m_primary>  (81) 
energy

$$$$
81:0
     RDKit          3D

 70 74  0  0  0  0  0  0  0  0999 V2000
   56.6220   22.1640   42.9280 C   0  0  0  0  0  0  0  0  0  0  0  0
   57.2810   23.0500   43.9440 C   0  0  0  0  0  0  0  0  0  0  0  0
   58.4510   22.6290   44.5930 C   0  0  0  0  0  0  0  0  0  0  0  0
   59.0460   23.4400   45.5620 C   0  0  0  0  0  0  0  0  0  0  0  0
   58.4740   24.6700   45.8980 C   0  0  0  0  0  0  0  0  0  0  0  0
   57.2920   25.1000   45.2710 C   0  0  0  0  0  0  0  0  0  0  0  0
   56.6870   26.4010   45.6340 C   0  0  0  0  0  0  0  0  0  0  0  0
   55.8630   26.4670   46.5870 O   0  0  0  0  0  0  0  0  0  0  0  0
   56.9890   27.5420   44.8790 O   0  0  0  0  0  0  0  0  0  0  0  0
   58.0490   28.4250   45.1380 C   0  0  0  0  0  0  0  0  0  0  0  0
   59.3720   27.9730   45.2790 C   0  0  0  0  0  0  0  0  0  0  0  0
   60.4030   28.8820   45.5220 C   0  0  0  0  0  0  0  0  0  0  0  0
   60.1250   30.2440   45.6290 C   0  0  0  0  0  0  0  0  0  0  0  0
   58.8110   30.7200   45.4880 C   0  0  0  0  0  0  0  0  0  0  0  0
   58.5350   32.1270   45.6320 N   0  0  0  0  0  0  0  0  0  0  0  0
   57.9970   32.8990   44.5120 C   0  0  0  0  0  0  0  0  0  0  0  0
   58.7220   32.9090   47.1770 S   0  0  0  0  0  0  0  0  0  0  0  0
   57.9750   34.2120   47.1680 O   0  0  0  0  0  0  0  0  0  0  0  0
   58.1300   32.0120   48.2280 O   0  0  0  0  0  0  0  0  0  0  0  0
   60.4330   33.1990   47.5410 C   0  0  0  0  0  0  0  0  0  0  0  0
   61.3590   33.1680   46.4830 C   0  0  0  0  0  0  0  0  0  0  0  0
   62.7250   33.3090   46.7250 C   0  0  0  0  0  0  0  0  0  0  0  0
   63.1900   33.4740   48.0260 C   0  0  0  0  0  0  0  0  0  0  0  0
   62.2900   33.5120   49.0900 C   0  0  0  0  0  0  0  0  0  0  0  0
   60.9050   33.3910   48.8700 C   0  0  0  0  0  0  0  0  0  0  0  0
   60.0040   33.4760   50.0420 C   0  0  0  0  0  0  0  0  0  0  0  0
   59.3010   34.5050   50.2300 O   0  0  0  0  0  0  0  0  0  0  0  0
   60.0240   32.4310   51.0220 N   0  0  0  0  0  0  0  0  0  0  0  0
   61.1640   31.6530   51.4180 C   0  0  0  0  0  0  0  0  0  0  0  0
   61.7700   31.9510   52.6460 C   0  0  0  0  0  0  0  0  0  0  0  0
   62.8920   31.2410   53.0760 C   0  0  0  0  0  0  0  0  0  0  0  0
   63.4290   30.2330   52.2750 C   0  0  0  0  0  0  0  0  0  0  0  0
   62.8550   29.9460   51.0350 C   0  0  0  0  0  0  0  0  0  0  0  0
   61.7380   30.6710   50.5800 C   0  0  0  0  0  0  0  0  0  0  0  0
   61.1780   30.4110   49.3180 O   0  0  0  0  0  0  0  0  0  0  0  0
   60.4850   29.2450   48.9650 C   0  0  0  0  0  0  0  0  0  0  0  0
   59.1370   29.3450   48.5960 C   0  0  0  0  0  0  0  0  0  0  0  0
   58.4220   28.2040   48.2190 C   0  0  0  0  0  0  0  0  0  0  0  0
   59.0530   26.9560   48.2000 C   0  0  0  0  0  0  0  0  0  0  0  0
   60.4010   26.8500   48.5530 C   0  0  0  0  0  0  0  0  0  0  0  0
   61.1190   27.9890   48.9300 C   0  0  0  0  0  0  0  0  0  0  0  0
   57.7760   29.7990   45.2200 C   0  0  0  0  0  0  0  0  0  0  0  0
   56.4720   30.2410   45.0200 O   0  0  0  0  0  0  0  0  0  0  0  0
   56.6950   24.2760   44.2980 C   0  0  0  0  0  0  0  0  0  0  0  0
   56.0419   21.3840   43.4429 H   0  0  0  0  0  0  0  0  0  0  0  0
   55.9499   22.7652   42.2981 H   0  0  0  0  0  0  0  0  0  0  0  0
   57.3912   21.6932   42.2981 H   0  0  0  0  0  0  0  0  0  0  0  0
   58.9009   21.6581   44.3383 H   0  0  0  0  0  0  0  0  0  0  0  0
   59.9681   23.1094   46.0625 H   0  0  0  0  0  0  0  0  0  0  0  0
   58.9519   25.3056   46.6580 H   0  0  0  0  0  0  0  0  0  0  0  0
   59.5959   26.8991   45.1976 H   0  0  0  0  0  0  0  0  0  0  0  0
   61.4372   28.5229   45.6293 H   0  0  0  0  0  0  0  0  0  0  0  0
   60.9428   30.9529   45.8258 H   0  0  0  0  0  0  0  0  0  0  0  0
   57.4082   33.7440   44.8984 H   0  0  0  0  0  0  0  0  0  0  0  0
   58.8260   33.2803   43.8977 H   0  0  0  0  0  0  0  0  0  0  0  0
   57.3523   32.2533   43.8977 H   0  0  0  0  0  0  0  0  0  0  0  0
   61.0013   33.0308   45.4519 H   0  0  0  0  0  0  0  0  0  0  0  0
   63.4361   33.2898   45.8860 H   0  0  0  0  0  0  0  0  0  0  0  0
   64.2689   33.5746   48.2152 H   0  0  0  0  0  0  0  0  0  0  0  0
   62.6674   33.6383   50.1155 H   0  0  0  0  0  0  0  0  0  0  0  0
   61.3574   32.7521   53.2769 H   0  0  0  0  0  0  0  0  0  0  0  0
   63.3529   31.4763   54.0467 H   0  0  0  0  0  0  0  0  0  0  0  0
   64.3049   29.6641   52.6204 H   0  0  0  0  0  0  0  0  0  0  0  0
   63.2791   29.1471   50.4090 H   0  0  0  0  0  0  0  0  0  0  0  0
   58.6389   30.3257   48.6029 H   0  0  0  0  0  0  0  0  0  0  0  0
   57.3621   28.2881   47.9371 H   0  0  0  0  0  0  0  0  0  0  0  0
   58.4885   26.0584   47.9074 H   0  0  0  0  0  0  0  0  0  0  0  0
   60.8980   25.8689   48.5342 H   0  0  0  0  0  0  0  0  0  0  0  0
   62.1819   27.9032   49.1999 H   0  0  0  0  0  0  0  0  0  0  0  0
   55.7618   24.5952   43.8110 H   0  0  0  0  0  0  0  0  0  0  0  0
  1  2  1  0
  2  3  2  0
  3  4  1  0
  4  5  2  0
  5  6  1  0
  6  7  1  0
  7  8  2  0
  7  9  1  0
  9 10  1  0
 10 11  2  0
 11 12  1  0
 12 13  2  0
 13 14  1  0
 14 15  1  0
 15 16  1  0
 15 17  1  0
 17 18  2  0
 17 19  2  0
 17 20  1  0
 20 21  2  0
 21 22  1  0
 22 23  2  0
 23 24  1  0
 24 25  2  0
 25 26  1  0
 26 27  2  0
 26 28  1  0
 28 29  1  0
 29 30  2  0
 30 31  1  0
 31 32  2  0
 32 33  1  0
 33 34  2  0
 34 35  1  0
 35 36  1  0
 36 37  2  0
 37 38  1  0
 38 39  2  0
 39 40  1  0
 40 41  2  0
 14 42  2  0
 42 43  1  0
  6 44  2  0
 44  2  1  0
 42 10  1  0
 25 20  1  0
 34 29  1  0
 41 36  1  0
  1 45  1  0
  1 46  1  0
  1 47  1  0
  3 48  1  0
  4 49  1  0
  5 50  1  0
 11 51  1  0
 12 52  1  0
 13 53  1  0
 16 54  1  0
 16 55  1  0
 16 56  1  0
 21 57  1  0
 22 58  1  0
 23 59  1  0
 24 60  1  0
 30 61  1  0
 31 62  1  0
 32 63  1  0
 33 64  1  0
 37 65  1  0
 38 66  1  0
 39 67  1  0
 40 68  1  0
 41 69  1  0
 44 70  1  0
M  CHG  2  28  -1  43  -1
M  END
>  <UniqueID>  (82) 
79

>  <SMILES>  (82) 
Cc1cccc(C(=O)Oc2cccc(N(C)S(=O)(=O)c3ccccc3C(=O)[N-]c3ccccc3Oc3ccccc3)c2[O-])c1

>  <Energy>  (82) 
104.64854223489156

>  <Genealogy>  (82) 
Cc1cccc(C(=O)Oc2cccc(N(C)S(=O)(=O)c3ccccc3C(=O)[N-]c3ccccc3Oc3ccccc3)c2[O-])c1 (protonated)
Cc1cccc(C(=O)Oc2cccc(N(C)S(=O)(=O)c3ccccc3C(=O)[N-]c3ccccc3Oc3ccccc3)c2[O-])c1 (3D coordinates assigned)
Cc1cccc(C(=O)Oc2cccc(N(C)S(=O)(=O)c3ccccc3C(=O)[N-]c3ccccc3Oc3ccccc3)c2[O-])c1 (optimized conformer: 104.64854223489156 kcal/mol)

>  <smiles>  (82) 
Cc1cccc(C(=O)Oc2cccc(N(C)S(=O)(=O)c3ccccc3C(=O)Nc3ccccc3Oc3ccccc3)c2O)c1

>  <score_type>  (82) 
oracle

>  <origin>  (82) 
adg

>  <m_score__min__energy>  (82) 
-15.52

>  <m_primary>  (82) 
energy

$$$$
82:0
     RDKit          3D

 76 80  0  0  0  0  0  0  0  0999 V2000
   62.1300   34.0140   48.9340 O   0  0  0  0  0  0  0  0  0  0  0  0
   62.5880   33.3930   47.9380 C   0  0  0  0  0  0  0  0  0  0  0  0
   61.8970   33.5100   46.6140 C   0  0  0  0  0  0  0  0  0  0  0  0
   60.5620   32.9100   46.6850 N   0  0  0  0  0  0  0  0  0  0  0  0
   60.3670   31.6230   47.2990 C   0  0  0  0  0  0  0  0  0  0  0  0
   60.2880   31.5030   48.6930 C   0  0  0  0  0  0  0  0  0  0  0  0
   60.0860   30.2530   49.2800 C   0  0  0  0  0  0  0  0  0  0  0  0
   59.9570   29.1140   48.4820 C   0  0  0  0  0  0  0  0  0  0  0  0
   60.0430   29.2190   47.0870 C   0  0  0  0  0  0  0  0  0  0  0  0
   59.8720   27.7840   46.0710 S   0  0  0  0  0  0  0  0  0  0  0  0
   59.9980   28.1880   44.6280 O   0  0  0  0  0  0  0  0  0  0  0  0
   60.9820   26.8200   46.3830 O   0  0  0  0  0  0  0  0  0  0  0  0
   58.3390   26.9850   46.3250 N   0  0  0  0  0  0  0  0  0  0  0  0
   57.7400   26.5880   45.0380 C   0  0  0  0  0  0  0  0  0  0  0  0
   56.5660   25.6110   45.2540 C   0  0  0  0  0  0  0  0  0  0  0  0
   56.1140   25.6600   46.5930 O   0  0  0  0  0  0  0  0  0  0  0  0
   57.1200   25.1730   47.4650 C   0  0  0  0  0  0  0  0  0  0  0  0
   58.5010   25.8110   47.1950 C   0  0  0  0  0  0  0  0  0  0  0  0
   60.2630   30.4730   46.5010 C   0  0  0  0  0  0  0  0  0  0  0  0
   59.2000   33.7810   46.0450 S   0  0  0  0  0  0  0  0  0  0  0  0
   59.6590   35.0280   45.3410 O   0  0  0  0  0  0  0  0  0  0  0  0
   58.2830   34.1760   47.1680 O   0  0  0  0  0  0  0  0  0  0  0  0
   58.3590   32.7630   44.8820 C   0  0  0  0  0  0  0  0  0  0  0  0
   57.6090   31.6570   45.3060 C   0  0  0  0  0  0  0  0  0  0  0  0
   56.9570   30.8510   44.3690 C   0  0  0  0  0  0  0  0  0  0  0  0
   57.0540   31.1440   43.0050 C   0  0  0  0  0  0  0  0  0  0  0  0
   57.8060   32.2430   42.5780 C   0  0  0  0  0  0  0  0  0  0  0  0
   58.4590   33.0490   43.5140 C   0  0  0  0  0  0  0  0  0  0  0  0
   63.7830   32.6050   48.0500 N   0  0  0  0  0  0  0  0  0  0  0  0
   64.3770   32.2050   49.2960 C   0  0  0  0  0  0  0  0  0  0  0  0
   63.7080   31.2740   50.1050 C   0  0  0  0  0  0  0  0  0  0  0  0
   64.2540   30.8730   51.3270 C   0  0  0  0  0  0  0  0  0  0  0  0
   65.4730   31.4120   51.7650 C   0  0  0  0  0  0  0  0  0  0  0  0
   66.1900   30.8860   53.2850 S   0  0  0  0  0  0  0  0  0  0  0  0
   65.1230   30.3150   54.1790 O   0  0  0  0  0  0  0  0  0  0  0  0
   66.7950   32.0840   53.9660 O   0  0  0  0  0  0  0  0  0  0  0  0
   67.4270   29.6920   52.9500 N   0  0  0  0  0  0  0  0  0  0  0  0
   67.4960   29.3560   51.5100 C   0  0  0  0  0  0  0  0  0  0  0  0
   66.7530   28.0530   51.1650 C   0  0  0  0  0  0  0  0  0  0  0  0
   65.6440   27.8810   52.0180 O   0  0  0  0  0  0  0  0  0  0  0  0
   66.0810   27.6080   53.3390 C   0  0  0  0  0  0  0  0  0  0  0  0
   67.2670   28.4940   53.7940 C   0  0  0  0  0  0  0  0  0  0  0  0
   66.1330   32.3610   50.9740 C   0  0  0  0  0  0  0  0  0  0  0  0
   65.5840   32.7670   49.7540 C   0  0  0  0  0  0  0  0  0  0  0  0
   61.8039   34.5726   46.3454 H   0  0  0  0  0  0  0  0  0  0  0  0
   62.4884   32.9805   45.8525 H   0  0  0  0  0  0  0  0  0  0  0  0
   60.3855   32.3969   49.3266 H   0  0  0  0  0  0  0  0  0  0  0  0
   60.0282   30.1645   50.3749 H   0  0  0  0  0  0  0  0  0  0  0  0
   59.7876   28.1327   48.9492 H   0  0  0  0  0  0  0  0  0  0  0  0
   57.3706   27.4858   44.5207 H   0  0  0  0  0  0  0  0  0  0  0  0
   58.5089   26.0846   44.4335 H   0  0  0  0  0  0  0  0  0  0  0  0
   55.7388   25.8869   44.5835 H   0  0  0  0  0  0  0  0  0  0  0  0
   56.9112   24.5898   45.0347 H   0  0  0  0  0  0  0  0  0  0  0  0
   56.8258   25.3956   48.5013 H   0  0  0  0  0  0  0  0  0  0  0  0
   57.2140   24.0906   47.2932 H   0  0  0  0  0  0  0  0  0  0  0  0
   58.9539   26.1212   48.1483 H   0  0  0  0  0  0  0  0  0  0  0  0
   59.1530   25.0761   46.7001 H   0  0  0  0  0  0  0  0  0  0  0  0
   60.3548   30.5565   45.4080 H   0  0  0  0  0  0  0  0  0  0  0  0
   57.5336   31.4233   46.3782 H   0  0  0  0  0  0  0  0  0  0  0  0
   56.3670   29.9854   44.7046 H   0  0  0  0  0  0  0  0  0  0  0  0
   56.5389   30.5102   42.2682 H   0  0  0  0  0  0  0  0  0  0  0  0
   57.8834   32.4729   41.5051 H   0  0  0  0  0  0  0  0  0  0  0  0
   59.0534   33.9106   43.1759 H   0  0  0  0  0  0  0  0  0  0  0  0
   64.2880   32.3660   47.1680 H   0  0  0  0  0  0  0  0  0  0  0  0
   62.7456   30.8563   49.7744 H   0  0  0  0  0  0  0  0  0  0  0  0
   63.7269   30.1330   51.9471 H   0  0  0  0  0  0  0  0  0  0  0  0
   67.0469   30.1793   50.9351 H   0  0  0  0  0  0  0  0  0  0  0  0
   68.5559   29.2103   51.2545 H   0  0  0  0  0  0  0  0  0  0  0  0
   66.4051   28.0989   50.1225 H   0  0  0  0  0  0  0  0  0  0  0  0
   67.4401   27.2041   51.2963 H   0  0  0  0  0  0  0  0  0  0  0  0
   65.2382   27.7751   54.0259 H   0  0  0  0  0  0  0  0  0  0  0  0
   66.4320   26.5656   53.3543 H   0  0  0  0  0  0  0  0  0  0  0  0
   67.0920   28.8134   54.8319 H   0  0  0  0  0  0  0  0  0  0  0  0
   68.1862   27.8961   53.7070 H   0  0  0  0  0  0  0  0  0  0  0  0
   67.0876   32.7888   51.3142 H   0  0  0  0  0  0  0  0  0  0  0  0
   66.0974   33.5290   49.1492 H   0  0  0  0  0  0  0  0  0  0  0  0
  1  2  2  0
  2  3  1  0
  3  4  1  0
  4  5  1  0
  5  6  2  0
  6  7  1  0
  7  8  2  0
  8  9  1  0
  9 10  1  0
 10 11  2  0
 10 12  2  0
 10 13  1  0
 13 14  1  0
 14 15  1  0
 15 16  1  0
 16 17  1  0
 17 18  1  0
  9 19  2  0
  4 20  1  0
 20 21  2  0
 20 22  2  0
 20 23  1  0
 23 24  2  0
 24 25  1  0
 25 26  2  0
 26 27  1  0
 27 28  2  0
  2 29  1  0
 29 30  1  0
 30 31  2  0
 31 32  1  0
 32 33  2  0
 33 34  1  0
 34 35  2  0
 34 36  2  0
 34 37  1  0
 37 38  1  0
 38 39  1  0
 39 40  1  0
 40 41  1  0
 41 42  1  0
 33 43  1  0
 43 44  2  0
 19  5  1  0
 28 23  1  0
 44 30  1  0
 18 13  1  0
 42 37  1  0
  3 45  1  0
  3 46  1  0
  6 47  1  0
  7 48  1  0
  8 49  1  0
 14 50  1  0
 14 51  1  0
 15 52  1  0
 15 53  1  0
 17 54  1  0
 17 55  1  0
 18 56  1  0
 18 57  1  0
 19 58  1  0
 24 59  1  0
 25 60  1  0
 26 61  1  0
 27 62  1  0
 28 63  1  0
 29 64  1  0
 31 65  1  0
 32 66  1  0
 38 67  1  0
 38 68  1  0
 39 69  1  0
 39 70  1  0
 41 71  1  0
 41 72  1  0
 42 73  1  0
 42 74  1  0
 43 75  1  0
 44 76  1  0
M  END
>  <UniqueID>  (83) 
80

>  <SMILES>  (83) 
O=C(CN(c1cccc(S(=O)(=O)N2CCOCC2)c1)S(=O)(=O)c1ccccc1)Nc1ccc(S(=O)(=O)N2CCOCC2)cc1

>  <Energy>  (83) 
103.58604909304637

>  <Genealogy>  (83) 
O=C(CN(c1cccc(S(=O)(=O)N2CCOCC2)c1)S(=O)(=O)c1ccccc1)Nc1ccc(S(=O)(=O)N2CCOCC2)cc1 (3D coordinates assigned)
O=C(CN(c1cccc(S(=O)(=O)N2CCOCC2)c1)S(=O)(=O)c1ccccc1)Nc1ccc(S(=O)(=O)N2CCOCC2)cc1 (nonaromatic ring conformer: 103.58604909304637 kcal/mol)

>  <smiles>  (83) 
O=C(CN(c1cccc(S(=O)(=O)N2CCOCC2)c1)S(=O)(=O)c1ccccc1)Nc1ccc(S(=O)(=O)N2CCOCC2)cc1

>  <score_type>  (83) 
oracle

>  <origin>  (83) 
adg

>  <m_score__min__energy>  (83) 
-12.42

>  <m_primary>  (83) 
energy

$$$$
83:0
     RDKit          3D

 58 61  0  0  0  0  0  0  0  0999 V2000
   58.0070   23.1260   44.5740 C   0  0  0  0  0  0  0  0  0  0  0  0
   57.1660   24.2350   45.1230 C   0  0  0  0  0  0  0  0  0  0  0  0
   55.7710   24.1550   45.0870 C   0  0  0  0  0  0  0  0  0  0  0  0
   55.0290   25.2050   45.6270 C   0  0  0  0  0  0  0  0  0  0  0  0
   55.6650   26.2690   46.1810 N   0  0  0  0  0  0  0  0  0  0  0  0
   57.0250   26.3310   46.2200 C   0  0  0  0  0  0  0  0  0  0  0  0
   57.6330   27.3450   46.7540 N   0  0  0  0  0  0  0  0  0  0  0  0
   59.2820   27.3250   47.2890 S   0  0  0  0  0  0  0  0  0  0  0  0
   60.1990   27.4700   46.1060 O   0  0  0  0  0  0  0  0  0  0  0  0
   59.5800   26.0340   48.0000 O   0  0  0  0  0  0  0  0  0  0  0  0
   59.5110   28.6700   48.4000 C   0  0  0  0  0  0  0  0  0  0  0  0
   60.6470   28.6980   49.2190 C   0  0  0  0  0  0  0  0  0  0  0  0
   60.7900   29.6940   50.1890 C   0  0  0  0  0  0  0  0  0  0  0  0
   59.7960   30.6710   50.3470 C   0  0  0  0  0  0  0  0  0  0  0  0
   59.8730   31.6380   51.3950 N   0  0  0  0  0  0  0  0  0  0  0  0
   60.4220   33.2610   51.1230 S   0  0  0  0  0  0  0  0  0  0  0  0
   59.3090   34.1190   50.5900 O   0  0  0  0  0  0  0  0  0  0  0  0
   60.8720   33.8420   52.4340 O   0  0  0  0  0  0  0  0  0  0  0  0
   61.7740   33.2290   49.9800 C   0  0  0  0  0  0  0  0  0  0  0  0
   63.0050   32.6920   50.3900 C   0  0  0  0  0  0  0  0  0  0  0  0
   64.0810   32.5860   49.4930 C   0  0  0  0  0  0  0  0  0  0  0  0
   65.3400   32.0370   49.9250 N   0  0  0  0  0  0  0  0  0  0  0  0
   65.3880   30.9290   50.4990 O   0  0  0  0  0  0  0  0  0  0  0  0
   66.5130   32.7230   49.7080 O   0  0  0  0  0  0  0  0  0  0  0  0
   63.9000   33.0050   48.1650 C   0  0  0  0  0  0  0  0  0  0  0  0
   62.6780   33.5330   47.7470 C   0  0  0  0  0  0  0  0  0  0  0  0
   61.6160   33.6830   48.6550 C   0  0  0  0  0  0  0  0  0  0  0  0
   60.3460   34.2080   48.2350 N   0  0  0  0  0  0  0  0  0  0  0  0
   59.3560   33.5610   47.4280 C   0  0  0  0  0  0  0  0  0  0  0  0
   58.1500   33.6140   47.7890 O   0  0  0  0  0  0  0  0  0  0  0  0
   59.6980   32.9420   46.1790 N   0  0  0  0  0  0  0  0  0  0  0  0
   58.8960   31.9130   45.5710 C   0  0  0  0  0  0  0  0  0  0  0  0
   59.3550   30.5830   45.5310 C   0  0  0  0  0  0  0  0  0  0  0  0
   58.5910   29.5860   44.9190 C   0  0  0  0  0  0  0  0  0  0  0  0
   57.3620   29.9050   44.3390 C   0  0  0  0  0  0  0  0  0  0  0  0
   56.9000   31.2220   44.3600 C   0  0  0  0  0  0  0  0  0  0  0  0
   57.6620   32.2300   44.9660 C   0  0  0  0  0  0  0  0  0  0  0  0
   57.0240   33.8690   44.9840 Cl  0  0  0  0  0  0  0  0  0  0  0  0
   58.6920   30.6790   49.4860 C   0  0  0  0  0  0  0  0  0  0  0  0
   58.5430   29.6760   48.5240 C   0  0  0  0  0  0  0  0  0  0  0  0
   57.7610   25.3170   45.6950 N   0  0  0  0  0  0  0  0  0  0  0  0
   58.4430   22.5510   45.4042 H   0  0  0  0  0  0  0  0  0  0  0  0
   57.3825   22.4631   43.9571 H   0  0  0  0  0  0  0  0  0  0  0  0
   58.8138   23.5485   43.9571 H   0  0  0  0  0  0  0  0  0  0  0  0
   55.2694   23.2828   44.6424 H   0  0  0  0  0  0  0  0  0  0  0  0
   53.9298   25.1713   45.6042 H   0  0  0  0  0  0  0  0  0  0  0  0
   61.4289   27.9338   49.0984 H   0  0  0  0  0  0  0  0  0  0  0  0
   61.6839   29.7118   50.8298 H   0  0  0  0  0  0  0  0  0  0  0  0
   63.1285   32.3496   51.4280 H   0  0  0  0  0  0  0  0  0  0  0  0
   64.7292   32.9161   47.4477 H   0  0  0  0  0  0  0  0  0  0  0  0
   62.5447   33.8345   46.6975 H   0  0  0  0  0  0  0  0  0  0  0  0
   60.5450   33.2910   45.6780 H   0  0  0  0  0  0  0  0  0  0  0  0
   60.3233   30.3264   45.9854 H   0  0  0  0  0  0  0  0  0  0  0  0
   58.9581   28.5494   44.8942 H   0  0  0  0  0  0  0  0  0  0  0  0
   56.7572   29.1179   43.8650 H   0  0  0  0  0  0  0  0  0  0  0  0
   55.9328   31.4700   43.8985 H   0  0  0  0  0  0  0  0  0  0  0  0
   57.9395   31.4772   49.5669 H   0  0  0  0  0  0  0  0  0  0  0  0
   57.6640   29.6762   47.8627 H   0  0  0  0  0  0  0  0  0  0  0  0
  1  2  1  0
  2  3  1  0
  3  4  2  0
  4  5  1  0
  5  6  1  0
  6  7  2  3
  7  8  1  0
  8  9  2  0
  8 10  2  0
  8 11  1  0
 11 12  2  0
 12 13  1  0
 13 14  2  0
 14 15  1  0
 15 16  1  0
 16 17  2  0
 16 18  2  0
 16 19  1  0
 19 20  2  0
 20 21  1  0
 21 22  1  0
 22 23  2  0
 22 24  1  0
 21 25  2  0
 25 26  1  0
 26 27  2  0
 27 28  1  0
 28 29  1  0
 29 30  2  0
 29 31  1  0
 31 32  1  0
 32 33  2  0
 33 34  1  0
 34 35  2  0
 35 36  1  0
 36 37  2  0
 37 38  1  0
 14 39  1  0
 39 40  2  0
  6 41  1  0
 41  2  2  0
 40 11  1  0
 27 19  1  0
 37 32  1  0
  1 42  1  0
  1 43  1  0
  1 44  1  0
  3 45  1  0
  4 46  1  0
 12 47  1  0
 13 48  1  0
 20 49  1  0
 25 50  1  0
 26 51  1  0
 31 52  1  0
 33 53  1  0
 34 54  1  0
 35 55  1  0
 36 56  1  0
 39 57  1  0
 40 58  1  0
M  CHG  5   5  -1  15  -1  22   1  24  -1  28  -1
M  END
>  <UniqueID>  (84) 
81

>  <SMILES>  (84) 
Cc1cc[n-]c(=NS(=O)(=O)c2ccc([N-]S(=O)(=O)c3cc([N+](=O)[O-])ccc3[N-]C(=O)Nc3ccccc3Cl)cc2)n1

>  <Energy>  (84) 
80.81901399270374

>  <Genealogy>  (84) 
Cc1cc[n-]c(=NS(=O)(=O)c2ccc([N-]S(=O)(=O)c3cc([N+](=O)[O-])ccc3[N-]C(=O)Nc3ccccc3Cl)cc2)n1 (protonated)
Cc1cc[n-]c(=NS(=O)(=O)c2ccc([N-]S(=O)(=O)c3cc([N+](=O)[O-])ccc3[N-]C(=O)Nc3ccccc3Cl)cc2)n1 (3D coordinates assigned)
Cc1cc[n-]c(=NS(=O)(=O)c2ccc([N-]S(=O)(=O)c3cc([N+](=O)[O-])ccc3[N-]C(=O)Nc3ccccc3Cl)cc2)n1 (optimized conformer: 80.81901399270374 kcal/mol)

>  <smiles>  (84) 
Cc1cc[nH]c(=NS(=O)(=O)c2ccc(NS(=O)(=O)c3cc([N+](=O)[O-])ccc3NC(=O)Nc3ccccc3Cl)cc2)n1

>  <score_type>  (84) 
oracle

>  <origin>  (84) 
adg

>  <m_score__min__energy>  (84) 
-14.17

>  <m_primary>  (84) 
energy

$$$$
84:0
     RDKit          3D

 37 38  0  0  0  0  0  0  0  0999 V2000
   55.5910   24.4590   46.4960 C   0  0  0  0  0  0  0  0  0  0  0  0
   55.7770   25.7490   45.8360 N   0  0  0  0  0  0  0  0  0  0  0  0
   54.8200   26.6910   46.0050 O   0  0  0  0  0  0  0  0  0  0  0  0
   57.0750   26.1650   45.3920 C   0  0  0  0  0  0  0  0  0  0  0  0
   57.4040   25.9860   44.1890 O   0  0  0  0  0  0  0  0  0  0  0  0
   58.0380   26.8080   46.3040 C   0  0  0  0  0  0  0  0  0  0  0  0
   58.8390   26.1120   47.1300 N   0  0  0  0  0  0  0  0  0  0  0  0
   59.4990   27.0710   47.8100 C   0  0  0  0  0  0  0  0  0  0  0  0
   60.3590   26.8100   48.6900 O   0  0  0  0  0  0  0  0  0  0  0  0
   59.1530   28.3310   47.4830 N   0  0  0  0  0  0  0  0  0  0  0  0
   58.2270   28.1650   46.5200 C   0  0  0  0  0  0  0  0  0  0  0  0
   57.4310   29.3070   45.9520 C   0  0  0  0  0  0  0  0  0  0  0  0
   58.3100   30.2940   45.1650 C   0  0  0  0  0  0  0  0  0  0  0  0
   57.5140   31.1820   44.2010 C   0  0  0  0  0  0  0  0  0  0  0  0
   56.6810   32.1180   44.9460 N   0  0  0  0  0  0  0  0  0  0  0  0
   57.1310   33.4190   45.3370 C   0  0  0  0  0  0  0  0  0  0  0  0
   56.6130   34.4440   44.8130 O   0  0  0  0  0  0  0  0  0  0  0  0
   58.1990   33.5630   46.3530 C   0  0  0  0  0  0  0  0  0  0  0  0
   59.2650   34.4610   46.1510 C   0  0  0  0  0  0  0  0  0  0  0  0
   60.2730   34.5920   47.1110 C   0  0  0  0  0  0  0  0  0  0  0  0
   60.2290   33.8320   48.2830 C   0  0  0  0  0  0  0  0  0  0  0  0
   59.1780   32.9390   48.4960 C   0  0  0  0  0  0  0  0  0  0  0  0
   58.1680   32.8020   47.5380 C   0  0  0  0  0  0  0  0  0  0  0  0
   55.6112   24.5990   47.5869 H   0  0  0  0  0  0  0  0  0  0  0  0
   54.6219   24.0315   46.1990 H   0  0  0  0  0  0  0  0  0  0  0  0
   56.3998   23.7752   46.1990 H   0  0  0  0  0  0  0  0  0  0  0  0
   56.6622   28.9019   45.2775 H   0  0  0  0  0  0  0  0  0  0  0  0
   56.9787   29.8540   46.7924 H   0  0  0  0  0  0  0  0  0  0  0  0
   58.8357   30.9415   45.8823 H   0  0  0  0  0  0  0  0  0  0  0  0
   59.0057   29.6966   44.5574 H   0  0  0  0  0  0  0  0  0  0  0  0
   58.2131   31.7451   43.5653 H   0  0  0  0  0  0  0  0  0  0  0  0
   56.8680   30.5452   43.5788 H   0  0  0  0  0  0  0  0  0  0  0  0
   59.3048   35.0635   45.2315 H   0  0  0  0  0  0  0  0  0  0  0  0
   61.1025   35.2948   46.9434 H   0  0  0  0  0  0  0  0  0  0  0  0
   61.0226   33.9377   49.0374 H   0  0  0  0  0  0  0  0  0  0  0  0
   59.1437   32.3417   49.4190 H   0  0  0  0  0  0  0  0  0  0  0  0
   57.3435   32.0948   47.7113 H   0  0  0  0  0  0  0  0  0  0  0  0
  1  2  1  0
  2  3  1  0
  2  4  1  0
  4  5  2  0
  4  6  1  0
  6  7  1  0
  7  8  1  0
  8  9  2  0
  8 10  1  0
 10 11  1  0
 11 12  1  0
 12 13  1  0
 13 14  1  0
 14 15  1  0
 15 16  1  0
 16 17  2  0
 16 18  1  0
 18 19  2  0
 19 20  1  0
 20 21  2  0
 21 22  1  0
 22 23  2  0
 11  6  2  0
 23 18  1  0
  1 24  1  0
  1 25  1  0
  1 26  1  0
 12 27  1  0
 12 28  1  0
 13 29  1  0
 13 30  1  0
 14 31  1  0
 14 32  1  0
 19 33  1  0
 20 34  1  0
 21 35  1  0
 22 36  1  0
 23 37  1  0
M  CHG  4   3  -1   7  -1  10  -1  15  -1
M  END
>  <UniqueID>  (85) 
82

>  <SMILES>  (85) 
CN([O-])C(=O)c1[n-]c(=O)[n-]c1CCC[N-]C(=O)c1ccccc1

>  <Energy>  (85) 
63.871244342930325

>  <Genealogy>  (85) 
CN([O-])C(=O)c1[n-]c(=O)[n-]c1CCC[N-]C(=O)c1ccccc1 (protonated)
CN([O-])C(=O)c1[n-]c(=O)[n-]c1CCC[N-]C(=O)c1ccccc1 (3D coordinates assigned)
CN([O-])C(=O)c1[n-]c(=O)[n-]c1CCC[N-]C(=O)c1ccccc1 (optimized conformer: 63.871244342930325 kcal/mol)

>  <smiles>  (85) 
CN(O)C(=O)c1[nH]c(=O)[nH]c1CCCNC(=O)c1ccccc1

>  <score_type>  (85) 
oracle

>  <origin>  (85) 
adg

>  <m_score__min__energy>  (85) 
-14.859999999999999

>  <m_primary>  (85) 
energy

$$$$
85:0
     RDKit          3D

 58 61  0  0  0  0  0  0  0  0999 V2000
   57.7650   21.9870   45.3930 C   0  0  0  0  0  0  0  0  0  0  0  0
   57.7580   22.8890   46.4940 O   0  0  0  0  0  0  0  0  0  0  0  0
   57.8920   24.2810   46.3760 C   0  0  0  0  0  0  0  0  0  0  0  0
   59.1340   24.8000   45.9910 C   0  0  0  0  0  0  0  0  0  0  0  0
   59.3190   26.1790   45.8610 C   0  0  0  0  0  0  0  0  0  0  0  0
   58.2550   27.0600   46.1020 C   0  0  0  0  0  0  0  0  0  0  0  0
   58.4660   28.5200   45.9980 C   0  0  0  0  0  0  0  0  0  0  0  0
   59.3150   29.1920   46.8220 C   0  0  0  0  0  0  0  0  0  0  0  0
   58.9880   29.3940   48.2880 C   0  0  0  0  0  0  0  0  0  0  0  0
   59.9480   30.4010   48.9380 C   0  0  0  0  0  0  0  0  0  0  0  0
   60.1390   31.5790   48.0580 N   0  0  0  0  0  0  0  0  0  0  0  0
   60.8290   32.6990   48.7460 C   0  0  0  0  0  0  0  0  0  0  0  0
   60.1180   34.0640   48.6130 C   0  0  0  0  0  0  0  0  0  0  0  0
   59.3610   34.1400   47.3140 C   0  0  0  0  0  0  0  0  0  0  0  0
   60.0060   34.5760   46.1430 C   0  0  0  0  0  0  0  0  0  0  0  0
   59.3110   34.6170   44.9300 C   0  0  0  0  0  0  0  0  0  0  0  0
   57.9730   34.2150   44.8750 C   0  0  0  0  0  0  0  0  0  0  0  0
   57.3290   33.7690   46.0330 C   0  0  0  0  0  0  0  0  0  0  0  0
   58.0190   33.7260   47.2480 C   0  0  0  0  0  0  0  0  0  0  0  0
   60.7790   31.2420   46.7520 C   0  0  0  0  0  0  0  0  0  0  0  0
   60.6370   29.7610   46.3480 C   0  0  0  0  0  0  0  0  0  0  0  0
   57.7340   29.2130   44.9110 C   0  0  0  0  0  0  0  0  0  0  0  0
   57.3500   28.5210   43.7550 C   0  0  0  0  0  0  0  0  0  0  0  0
   56.6850   29.2040   42.7340 C   0  0  0  0  0  0  0  0  0  0  0  0
   56.4240   30.5320   42.8600 N   0  0  0  0  0  0  0  0  0  0  0  0
   56.7970   31.2310   43.9660 C   0  0  0  0  0  0  0  0  0  0  0  0
   57.4660   30.5850   45.0080 C   0  0  0  0  0  0  0  0  0  0  0  0
   57.0130   26.5460   46.5040 C   0  0  0  0  0  0  0  0  0  0  0  0
   56.8280   25.1670   46.6330 C   0  0  0  0  0  0  0  0  0  0  0  0
   57.7730   20.9524   45.7666 H   0  0  0  0  0  0  0  0  0  0  0  0
   56.8656   22.1488   44.7807 H   0  0  0  0  0  0  0  0  0  0  0  0
   58.6618   22.1627   44.7807 H   0  0  0  0  0  0  0  0  0  0  0  0
   59.9716   24.1162   45.7891 H   0  0  0  0  0  0  0  0  0  0  0  0
   60.3028   26.5748   45.5686 H   0  0  0  0  0  0  0  0  0  0  0  0
   57.9584   29.7709   48.3773 H   0  0  0  0  0  0  0  0  0  0  0  0
   59.0941   28.4286   48.8045 H   0  0  0  0  0  0  0  0  0  0  0  0
   59.5289   30.7318   49.8997 H   0  0  0  0  0  0  0  0  0  0  0  0
   60.9213   29.9135   49.0961 H   0  0  0  0  0  0  0  0  0  0  0  0
   59.1790   31.9400   47.8360 H   0  0  0  0  0  0  0  0  0  0  0  0
   60.9033   32.4524   49.8154 H   0  0  0  0  0  0  0  0  0  0  0  0
   61.8108   32.8078   48.2621 H   0  0  0  0  0  0  0  0  0  0  0  0
   59.4148   34.1889   49.4496 H   0  0  0  0  0  0  0  0  0  0  0  0
   60.8745   34.8623   48.6310 H   0  0  0  0  0  0  0  0  0  0  0  0
   61.0608   34.8859   46.1811 H   0  0  0  0  0  0  0  0  0  0  0  0
   59.8177   34.9659   44.0181 H   0  0  0  0  0  0  0  0  0  0  0  0
   57.4271   34.2496   43.9207 H   0  0  0  0  0  0  0  0  0  0  0  0
   56.2769   33.4512   45.9879 H   0  0  0  0  0  0  0  0  0  0  0  0
   57.5105   33.3672   48.1550 H   0  0  0  0  0  0  0  0  0  0  0  0
   60.3146   31.8601   45.9695 H   0  0  0  0  0  0  0  0  0  0  0  0
   61.8553   31.4395   46.8646 H   0  0  0  0  0  0  0  0  0  0  0  0
   60.6909   29.6805   45.2523 H   0  0  0  0  0  0  0  0  0  0  0  0
   61.4520   29.1905   46.8174 H   0  0  0  0  0  0  0  0  0  0  0  0
   57.5704   27.4482   43.6522 H   0  0  0  0  0  0  0  0  0  0  0  0
   56.3721   28.6664   41.8268 H   0  0  0  0  0  0  0  0  0  0  0  0
   56.5716   32.3052   44.0396 H   0  0  0  0  0  0  0  0  0  0  0  0
   57.7803   31.1492   45.8985 H   0  0  0  0  0  0  0  0  0  0  0  0
   56.1805   27.2322   46.7188 H   0  0  0  0  0  0  0  0  0  0  0  0
   55.8473   24.7719   46.9365 H   0  0  0  0  0  0  0  0  0  0  0  0
  1  2  1  0
  2  3  1  0
  3  4  2  0
  4  5  1  0
  5  6  2  0
  6  7  1  0
  7  8  2  3
  8  9  1  0
  9 10  1  0
 10 11  1  0
 11 12  1  0
 12 13  1  0
 13 14  1  0
 14 15  2  0
 15 16  1  0
 16 17  2  0
 17 18  1  0
 18 19  2  0
 11 20  1  0
 20 21  1  0
  7 22  1  0
 22 23  2  0
 23 24  1  0
 24 25  2  0
 25 26  1  0
 26 27  2  0
  6 28  1  0
 28 29  2  0
 29  3  1  0
 21  8  1  0
 27 22  1  0
 19 14  1  0
  1 30  1  0
  1 31  1  0
  1 32  1  0
  4 33  1  0
  5 34  1  0
  9 35  1  0
  9 36  1  0
 10 37  1  0
 10 38  1  0
 11 39  1  0
 12 40  1  0
 12 41  1  0
 13 42  1  0
 13 43  1  0
 15 44  1  0
 16 45  1  0
 17 46  1  0
 18 47  1  0
 19 48  1  0
 20 49  1  0
 20 50  1  0
 21 51  1  0
 21 52  1  0
 23 53  1  0
 24 54  1  0
 26 55  1  0
 27 56  1  0
 28 57  1  0
 29 58  1  0
M  CHG  1  11   1
M  END
>  <UniqueID>  (86) 
83

>  <SMILES>  (86) 
COc1ccc(C(=C2CC[NH+](CCc3ccccc3)CC2)c2ccncc2)cc1

>  <Energy>  (86) 
85.08215569637935

>  <Genealogy>  (86) 
COc1ccc(C(=C2CC[NH+](CCc3ccccc3)CC2)c2ccncc2)cc1 (protonated)
COc1ccc(C(=C2CC[NH+](CCc3ccccc3)CC2)c2ccncc2)cc1 (3D coordinates assigned)
COc1ccc(C(=C2CC[NH+](CCc3ccccc3)CC2)c2ccncc2)cc1 (nonaromatic ring conformer: 85.08215569637935 kcal/mol)

>  <smiles>  (86) 
COc1ccc(C(=C2CCN(CCc3ccccc3)CC2)c2ccncc2)cc1

>  <score_type>  (86) 
oracle

>  <origin>  (86) 
adg

>  <m_score__min__energy>  (86) 
-7.0899999999999999

>  <m_primary>  (86) 
energy

$$$$
86:0
     RDKit          3D

 41 45  0  0  0  0  0  0  0  0999 V2000
   59.3110   25.4060   45.6780 F   0  0  0  0  0  0  0  0  0  0  0  0
   58.9450   26.7060   45.5620 C   0  0  0  0  0  0  0  0  0  0  0  0
   59.0780   27.5290   46.6810 C   0  0  0  0  0  0  0  0  0  0  0  0
   58.7070   28.8590   46.5760 C   0  0  0  0  0  0  0  0  0  0  0  0
   58.2120   29.3870   45.3980 C   0  0  0  0  0  0  0  0  0  0  0  0
   57.8510   30.8020   45.3960 C   0  0  0  0  0  0  0  0  0  0  0  0
   56.6570   31.2960   44.9570 N   0  0  0  0  0  0  0  0  0  0  0  0
   56.6450   32.6180   45.0880 N   0  0  0  0  0  0  0  0  0  0  0  0
   57.8290   32.9970   45.6130 C   0  0  0  0  0  0  0  0  0  0  0  0
   58.3650   34.2230   45.9590 C   0  0  0  0  0  0  0  0  0  0  0  0
   59.6360   34.3200   46.4920 C   0  0  0  0  0  0  0  0  0  0  0  0
   60.4230   33.2060   46.7000 C   0  0  0  0  0  0  0  0  0  0  0  0
   61.7690   33.2750   47.2590 C   0  0  0  0  0  0  0  0  0  0  0  0
   62.1630   32.5230   48.3010 N   0  0  0  0  0  0  0  0  0  0  0  0
   63.4450   32.8220   48.5680 C   0  0  0  0  0  0  0  0  0  0  0  0
   64.3230   32.2750   49.6060 C   0  0  0  0  0  0  0  0  0  0  0  0
   63.8870   31.2700   50.4420 C   0  0  0  0  0  0  0  0  0  0  0  0
   64.7430   30.7860   51.4030 C   0  0  0  0  0  0  0  0  0  0  0  0
   66.0180   31.2700   51.5550 C   0  0  0  0  0  0  0  0  0  0  0  0
   66.4740   32.2810   50.7220 C   0  0  0  0  0  0  0  0  0  0  0  0
   65.5980   32.7690   49.7480 C   0  0  0  0  0  0  0  0  0  0  0  0
   63.7950   33.7840   47.6420 C   0  0  0  0  0  0  0  0  0  0  0  0
   62.7590   34.0340   46.8670 O   0  0  0  0  0  0  0  0  0  0  0  0
   59.8890   31.9620   46.3520 C   0  0  0  0  0  0  0  0  0  0  0  0
   58.6260   31.8710   45.8240 C   0  0  0  0  0  0  0  0  0  0  0  0
   58.0770   28.5810   44.2850 C   0  0  0  0  0  0  0  0  0  0  0  0
   58.4530   27.2600   44.4120 C   0  0  0  0  0  0  0  0  0  0  0  0
   59.4698   27.1291   47.6279 H   0  0  0  0  0  0  0  0  0  0  0  0
   58.8090   29.5135   47.4542 H   0  0  0  0  0  0  0  0  0  0  0  0
   55.8870   33.3000   44.8470 H   0  0  0  0  0  0  0  0  0  0  0  0
   57.7703   35.1359   45.8077 H   0  0  0  0  0  0  0  0  0  0  0  0
   60.0310   35.3117   46.7576 H   0  0  0  0  0  0  0  0  0  0  0  0
   62.8705   30.8616   50.3421 H   0  0  0  0  0  0  0  0  0  0  0  0
   64.3945   29.9850   52.0715 H   0  0  0  0  0  0  0  0  0  0  0  0
   66.6758   30.8579   52.3344 H   0  0  0  0  0  0  0  0  0  0  0  0
   67.4918   32.6856   50.8245 H   0  0  0  0  0  0  0  0  0  0  0  0
   65.9385   33.5708   49.0763 H   0  0  0  0  0  0  0  0  0  0  0  0
   64.7811   34.2650   47.5636 H   0  0  0  0  0  0  0  0  0  0  0  0
   60.4853   31.0500   46.5025 H   0  0  0  0  0  0  0  0  0  0  0  0
   57.6856   28.9762   43.3360 H   0  0  0  0  0  0  0  0  0  0  0  0
   58.3505   26.6094   43.5310 H   0  0  0  0  0  0  0  0  0  0  0  0
  1  2  1  0
  2  3  2  0
  3  4  1  0
  4  5  2  0
  5  6  1  0
  6  7  2  0
  7  8  1  0
  8  9  1  0
  9 10  2  0
 10 11  1  0
 11 12  2  0
 12 13  1  0
 13 14  2  0
 14 15  1  0
 15 16  1  0
 16 17  2  0
 17 18  1  0
 18 19  2  0
 19 20  1  0
 20 21  2  0
 15 22  2  0
 22 23  1  0
 12 24  1  0
 24 25  2  0
  5 26  1  0
 26 27  2  0
 27  2  1  0
 25  6  1  0
 25  9  1  0
 23 13  1  0
 21 16  1  0
  3 28  1  0
  4 29  1  0
  8 30  1  0
 10 31  1  0
 11 32  1  0
 17 33  1  0
 18 34  1  0
 19 35  1  0
 20 36  1  0
 21 37  1  0
 22 38  1  0
 24 39  1  0
 26 40  1  0
 27 41  1  0
M  END
>  <smiles>  (87) 
Fc1ccc(-c2n[nH]c3ccc(-c4nc(-c5ccccc5)co4)cc23)cc1

>  <score_type>  (87) 
oracle

>  <origin>  (87) 
adg

>  <m_score__min__energy>  (87) 
-8.5399999999999991

>  <m_primary>  (87) 
energy

$$$$
87:0
     RDKit          3D

 38 40  0  0  0  0  0  0  0  0999 V2000
   63.7530   33.0320   46.9000 C   0  0  0  0  0  0  0  0  0  0  0  0
   62.4120   33.5240   47.3610 C   0  0  0  0  0  0  0  0  0  0  0  0
   62.1710   33.7510   48.7220 C   0  0  0  0  0  0  0  0  0  0  0  0
   60.9300   34.2460   49.1260 C   0  0  0  0  0  0  0  0  0  0  0  0
   59.9710   34.5160   48.2020 N   0  0  0  0  0  0  0  0  0  0  0  0
   60.1800   34.3240   46.8690 C   0  0  0  0  0  0  0  0  0  0  0  0
   59.2540   34.6040   46.0020 N   0  0  0  0  0  0  0  0  0  0  0  0
   57.7370   33.7660   45.9070 S   0  0  0  0  0  0  0  0  0  0  0  0
   56.8800   34.4260   44.8630 O   0  0  0  0  0  0  0  0  0  0  0  0
   57.0410   33.8470   47.2360 O   0  0  0  0  0  0  0  0  0  0  0  0
   58.0140   32.0740   45.5070 C   0  0  0  0  0  0  0  0  0  0  0  0
   58.5780   31.2010   46.4460 C   0  0  0  0  0  0  0  0  0  0  0  0
   58.7600   29.8510   46.1310 C   0  0  0  0  0  0  0  0  0  0  0  0
   58.3880   29.3620   44.8680 C   0  0  0  0  0  0  0  0  0  0  0  0
   58.5260   27.8990   44.5490 C   0  0  0  0  0  0  0  0  0  0  0  0
   57.5420   27.1060   45.3520 C   0  0  0  0  0  0  0  0  0  0  0  0
   57.8280   25.5750   45.9950 S   0  0  0  0  0  0  0  0  0  0  0  0
   56.2560   25.4370   46.5770 C   0  0  0  0  0  0  0  0  0  0  0  0
   55.8180   24.4410   47.2080 O   0  0  0  0  0  0  0  0  0  0  0  0
   55.4980   26.5170   46.2910 N   0  0  0  0  0  0  0  0  0  0  0  0
   56.2140   27.4440   45.6000 C   0  0  0  0  0  0  0  0  0  0  0  0
   55.6470   28.6410   45.1750 O   0  0  0  0  0  0  0  0  0  0  0  0
   57.8220   30.2400   43.9300 C   0  0  0  0  0  0  0  0  0  0  0  0
   57.6410   31.5880   44.2470 C   0  0  0  0  0  0  0  0  0  0  0  0
   61.4120   33.8280   46.4260 C   0  0  0  0  0  0  0  0  0  0  0  0
   64.3796   32.8021   47.7743 H   0  0  0  0  0  0  0  0  0  0  0  0
   63.6217   32.1235   46.2939 H   0  0  0  0  0  0  0  0  0  0  0  0
   64.2404   33.8099   46.2939 H   0  0  0  0  0  0  0  0  0  0  0  0
   62.9532   33.5409   49.4663 H   0  0  0  0  0  0  0  0  0  0  0  0
   60.7281   34.4177   50.1936 H   0  0  0  0  0  0  0  0  0  0  0  0
   58.8787   31.5787   47.4344 H   0  0  0  0  0  0  0  0  0  0  0  0
   59.1964   29.1689   46.8755 H   0  0  0  0  0  0  0  0  0  0  0  0
   58.3345   27.7399   43.4775 H   0  0  0  0  0  0  0  0  0  0  0  0
   59.5454   27.5692   44.7981 H   0  0  0  0  0  0  0  0  0  0  0  0
   54.7750   28.9700   45.5690 H   0  0  0  0  0  0  0  0  0  0  0  0
   57.5198   29.8646   42.9412 H   0  0  0  0  0  0  0  0  0  0  0  0
   57.2036   32.2712   43.5041 H   0  0  0  0  0  0  0  0  0  0  0  0
   61.5944   33.6777   45.3517 H   0  0  0  0  0  0  0  0  0  0  0  0
  1  2  1  0
  2  3  1  0
  3  4  2  0
  4  5  1  0
  5  6  1  0
  6  7  2  3
  7  8  1  0
  8  9  2  0
  8 10  2  0
  8 11  1  0
 11 12  2  0
 12 13  1  0
 13 14  2  0
 14 15  1  0
 15 16  1  0
 16 17  1  0
 17 18  1  0
 18 19  2  0
 18 20  1  0
 20 21  1  0
 21 22  1  0
 14 23  1  0
 23 24  2  0
  6 25  1  0
 25  2  2  0
 24 11  1  0
 21 16  2  0
  1 26  1  0
  1 27  1  0
  1 28  1  0
  3 29  1  0
  4 30  1  0
 12 31  1  0
 13 32  1  0
 15 33  1  0
 15 34  1  0
 22 35  1  0
 23 36  1  0
 24 37  1  0
 25 38  1  0
M  CHG  2   5  -1  20  -1
M  END
>  <UniqueID>  (88) 
84

>  <SMILES>  (88) 
Cc1cc[n-]c(=NS(=O)(=O)c2ccc(Cc3sc(=O)[n-]c3O)cc2)c1

>  <Energy>  (88) 
71.18681437840608

>  <Genealogy>  (88) 
Cc1cc[n-]c(=NS(=O)(=O)c2ccc(Cc3sc(=O)[n-]c3O)cc2)c1 (protonated)
Cc1cc[n-]c(=NS(=O)(=O)c2ccc(Cc3sc(=O)[n-]c3O)cc2)c1 (3D coordinates assigned)
Cc1cc[n-]c(=NS(=O)(=O)c2ccc(Cc3sc(=O)[n-]c3O)cc2)c1 (optimized conformer: 71.18681437840608 kcal/mol)

>  <smiles>  (88) 
Cc1cc[nH]c(=NS(=O)(=O)c2ccc(Cc3sc(=O)[nH]c3O)cc2)c1

>  <score_type>  (88) 
oracle

>  <origin>  (88) 
adg

>  <m_score__min__energy>  (88) 
-13.109999999999999

>  <m_primary>  (88) 
energy

$$$$
88:0
     RDKit          3D

 44 46  0  0  0  0  0  0  0  0999 V2000
   55.5480   28.6850   45.2460 O   0  0  0  0  0  0  0  0  0  0  0  0
   56.3300   29.5090   44.4440 C   0  0  0  0  0  0  0  0  0  0  0  0
   55.8870   29.8210   43.1580 C   0  0  0  0  0  0  0  0  0  0  0  0
   56.6470   30.6740   42.3580 C   0  0  0  0  0  0  0  0  0  0  0  0
   57.8040   31.2050   42.8340 N   0  0  0  0  0  0  0  0  0  0  0  0
   58.2600   30.9140   44.0830 C   0  0  0  0  0  0  0  0  0  0  0  0
   57.5480   30.0350   44.9170 C   0  0  0  0  0  0  0  0  0  0  0  0
   58.0620   29.7270   46.3130 C   0  0  0  0  0  0  0  0  0  0  0  0
   59.0160   30.7300   46.8600 N   0  0  0  0  0  0  0  0  0  0  0  0
   60.3840   30.2030   47.0680 C   0  0  0  0  0  0  0  0  0  0  0  0
   61.3210   31.2800   47.5570 C   0  0  0  0  0  0  0  0  0  0  0  0
   61.5180   32.4480   46.8030 C   0  0  0  0  0  0  0  0  0  0  0  0
   62.4100   33.4310   47.2450 C   0  0  0  0  0  0  0  0  0  0  0  0
   63.1210   33.2480   48.4350 C   0  0  0  0  0  0  0  0  0  0  0  0
   62.9480   32.0780   49.1790 C   0  0  0  0  0  0  0  0  0  0  0  0
   62.0590   31.0930   48.7390 C   0  0  0  0  0  0  0  0  0  0  0  0
   58.5150   31.4540   48.0520 C   0  0  0  0  0  0  0  0  0  0  0  0
   58.1420   32.9070   47.7080 C   0  0  2  0  0  0  0  0  0  0  0  0
   58.1750   33.1690   46.2100 C   0  0  0  0  0  0  0  0  0  0  0  0
   58.5710   34.6090   46.1410 C   0  0  0  0  0  0  0  0  0  0  0  0
   59.3640   34.8070   47.4190 C   0  0  0  0  0  0  0  0  0  0  0  0
   59.0420   33.7880   48.3390 O   0  0  0  0  0  0  0  0  0  0  0  0
   54.9456   29.3974   42.7782 H   0  0  0  0  0  0  0  0  0  0  0  0
   56.3093   30.9175   41.3398 H   0  0  0  0  0  0  0  0  0  0  0  0
   58.3550   31.8560   42.2300 H   0  0  0  0  0  0  0  0  0  0  0  0
   59.1938   31.3707   44.4427 H   0  0  0  0  0  0  0  0  0  0  0  0
   57.1980   29.6704   46.9915 H   0  0  0  0  0  0  0  0  0  0  0  0
   58.6163   28.7798   46.2380 H   0  0  0  0  0  0  0  0  0  0  0  0
   60.3467   29.3954   47.8139 H   0  0  0  0  0  0  0  0  0  0  0  0
   60.7605   29.8280   46.1048 H   0  0  0  0  0  0  0  0  0  0  0  0
   60.9686   32.5907   45.8608 H   0  0  0  0  0  0  0  0  0  0  0  0
   62.5522   34.3489   46.6557 H   0  0  0  0  0  0  0  0  0  0  0  0
   63.8164   34.0250   48.7854 H   0  0  0  0  0  0  0  0  0  0  0  0
   63.5120   31.9318   50.1120 H   0  0  0  0  0  0  0  0  0  0  0  0
   61.9363   30.1672   49.3203 H   0  0  0  0  0  0  0  0  0  0  0  0
   57.6238   30.9368   48.4370 H   0  0  0  0  0  0  0  0  0  0  0  0
   59.3129   31.4703   48.8090 H   0  0  0  0  0  0  0  0  0  0  0  0
   57.1148   33.0736   48.0645 H   0  0  0  0  0  0  0  0  0  0  0  0
   58.9170   32.5285   45.7108 H   0  0  0  0  0  0  0  0  0  0  0  0
   57.2215   32.9522   45.7062 H   0  0  0  0  0  0  0  0  0  0  0  0
   59.1930   34.8059   45.2554 H   0  0  0  0  0  0  0  0  0  0  0  0
   57.7122   35.2908   46.0539 H   0  0  0  0  0  0  0  0  0  0  0  0
   60.4396   34.7685   47.1919 H   0  0  0  0  0  0  0  0  0  0  0  0
   59.1142   35.7852   47.8557 H   0  0  0  0  0  0  0  0  0  0  0  0
  1  2  1  0
  2  3  2  0
  3  4  1  0
  4  5  2  0
  5  6  1  0
  6  7  2  0
  7  8  1  0
  8  9  1  0
  9 10  1  0
 10 11  1  0
 11 12  2  0
 12 13  1  0
 13 14  2  0
 14 15  1  0
 15 16  2  0
  9 17  1  0
 17 18  1  0
 18 19  1  0
 19 20  1  0
 20 21  1  0
 21 22  1  0
  7  2  1  0
 16 11  1  0
 22 18  1  0
  3 23  1  0
  4 24  1  0
  5 25  1  0
  6 26  1  0
  8 27  1  0
  8 28  1  0
 10 29  1  0
 10 30  1  0
 12 31  1  0
 13 32  1  0
 14 33  1  0
 15 34  1  0
 16 35  1  0
 17 36  1  0
 17 37  1  0
 18 38  1  1
 19 39  1  0
 19 40  1  0
 20 41  1  0
 20 42  1  0
 21 43  1  0
 21 44  1  0
M  CHG  2   1  -1   5   1
M  END
>  <UniqueID>  (89) 
85

>  <SMILES>  (89) 
[O-]c1cc[nH+]cc1CN(Cc1ccccc1)C[C@@H]1CCCO1

>  <Energy>  (89) 
50.25032265467609

>  <Genealogy>  (89) 
[O-]c1cc[nH+]cc1CN(Cc1ccccc1)CC1CCCO1 (protonated)
[O-]c1cc[nH+]cc1CN(Cc1ccccc1)C[C@@H]1CCCO1 (chirality)
[O-]c1cc[nH+]cc1CN(Cc1ccccc1)C[C@@H]1CCCO1 (3D coordinates assigned)
[O-]c1cc[nH+]cc1CN(Cc1ccccc1)C[C@@H]1CCCO1 (nonaromatic ring conformer: 50.25032265467609 kcal/mol)

>  <smiles>  (89) 
Oc1ccncc1CN(Cc1ccccc1)CC1CCCO1

>  <score_type>  (89) 
oracle

>  <origin>  (89) 
adg

>  <m_score__min__energy>  (89) 
-9.0800000000000001

>  <m_primary>  (89) 
energy

$$$$
89:0
     RDKit          3D

 44 45  0  0  0  0  0  0  0  0999 V2000
   56.6640   20.9610   48.1690 C   0  0  0  0  0  0  0  0  0  0  0  0
   57.3480   21.8750   47.3200 O   0  0  0  0  0  0  0  0  0  0  0  0
   57.1250   22.0020   45.9390 C   0  0  0  0  0  0  0  0  0  0  0  0
   57.9900   21.4200   44.9900 C   0  0  0  0  0  0  0  0  0  0  0  0
   57.7530   21.5820   43.6230 C   0  0  0  0  0  0  0  0  0  0  0  0
   56.6580   22.3260   43.1860 C   0  0  0  0  0  0  0  0  0  0  0  0
   55.7900   22.9060   44.1130 C   0  0  0  0  0  0  0  0  0  0  0  0
   56.0050   22.7350   45.4910 C   0  0  0  0  0  0  0  0  0  0  0  0
   55.0830   23.4050   46.4720 C   0  0  0  0  0  0  0  0  0  0  0  0
   55.6830   24.6530   46.9200 N   0  0  0  0  0  0  0  0  0  0  0  0
   55.9610   25.7430   46.0380 C   0  0  0  0  0  0  0  0  0  0  0  0
   55.1680   26.7200   45.9640 O   0  0  0  0  0  0  0  0  0  0  0  0
   57.2130   25.7330   45.2080 C   0  0  0  0  0  0  0  0  0  0  0  0
   57.5030   27.0590   44.6180 N   0  0  2  0  0  0  0  0  0  0  0  0
   58.1280   26.8990   43.2970 C   0  0  0  0  0  0  0  0  0  0  0  0
   58.5650   27.9930   45.6500 S   0  0  0  0  0  0  0  0  0  0  0  0
   58.3470   27.6360   47.0930 O   0  0  0  0  0  0  0  0  0  0  0  0
   60.0020   27.7100   45.2990 O   0  0  0  0  0  0  0  0  0  0  0  0
   58.2250   29.7100   45.4530 C   0  0  0  0  0  0  0  0  0  0  0  0
   57.5810   30.1590   44.2920 C   0  0  0  0  0  0  0  0  0  0  0  0
   57.3210   31.5220   44.1140 C   0  0  0  0  0  0  0  0  0  0  0  0
   57.7060   32.4420   45.0950 C   0  0  0  0  0  0  0  0  0  0  0  0
   57.3810   34.1510   44.8710 Cl  0  0  0  0  0  0  0  0  0  0  0  0
   58.3540   31.9980   46.2530 C   0  0  0  0  0  0  0  0  0  0  0  0
   58.6150   30.6350   46.4320 C   0  0  0  0  0  0  0  0  0  0  0  0
   56.8585   21.2209   49.2200 H   0  0  0  0  0  0  0  0  0  0  0  0
   55.5832   21.0158   47.9717 H   0  0  0  0  0  0  0  0  0  0  0  0
   57.0214   19.9396   47.9717 H   0  0  0  0  0  0  0  0  0  0  0  0
   58.8575   20.8343   45.3284 H   0  0  0  0  0  0  0  0  0  0  0  0
   58.4317   21.1216   42.8899 H   0  0  0  0  0  0  0  0  0  0  0  0
   56.4776   22.4563   42.1088 H   0  0  0  0  0  0  0  0  0  0  0  0
   54.9331   23.5001   43.7627 H   0  0  0  0  0  0  0  0  0  0  0  0
   54.1186   23.6144   45.9860 H   0  0  0  0  0  0  0  0  0  0  0  0
   54.9197   22.7435   47.3356 H   0  0  0  0  0  0  0  0  0  0  0  0
   58.0586   25.4365   45.8460 H   0  0  0  0  0  0  0  0  0  0  0  0
   57.0654   25.0210   44.3826 H   0  0  0  0  0  0  0  0  0  0  0  0
   56.6130   27.5950   44.4870 H   0  0  0  0  0  0  0  0  0  0  0  0
   59.1867   26.6280   43.4227 H   0  0  0  0  0  0  0  0  0  0  0  0
   57.6098   26.1046   42.7400 H   0  0  0  0  0  0  0  0  0  0  0  0
   58.0552   27.8447   42.7400 H   0  0  0  0  0  0  0  0  0  0  0  0
   57.2791   29.4375   43.5185 H   0  0  0  0  0  0  0  0  0  0  0  0
   56.8136   31.8705   43.2023 H   0  0  0  0  0  0  0  0  0  0  0  0
   58.6586   32.7214   47.0236 H   0  0  0  0  0  0  0  0  0  0  0  0
   59.1268   30.2887   47.3420 H   0  0  0  0  0  0  0  0  0  0  0  0
  1  2  1  0
  2  3  1  0
  3  4  2  0
  4  5  1  0
  5  6  2  0
  6  7  1  0
  7  8  2  0
  8  9  1  0
  9 10  1  0
 10 11  1  0
 11 12  2  0
 11 13  1  0
 13 14  1  0
 14 15  1  0
 14 16  1  0
 16 17  2  0
 16 18  2  0
 16 19  1  0
 19 20  2  0
 20 21  1  0
 21 22  2  0
 22 23  1  0
 22 24  1  0
 24 25  2  0
  8  3  1  0
 25 19  1  0
  1 26  1  0
  1 27  1  0
  1 28  1  0
  4 29  1  0
  5 30  1  0
  6 31  1  0
  7 32  1  0
  9 33  1  0
  9 34  1  0
 13 35  1  0
 13 36  1  0
 14 37  1  6
 15 38  1  0
 15 39  1  0
 15 40  1  0
 20 41  1  0
 21 42  1  0
 24 43  1  0
 25 44  1  0
M  CHG  2  10  -1  14   1
M  END
>  <UniqueID>  (90) 
86

>  <SMILES>  (90) 
COc1ccccc1C[N-]C(=O)C[N@H+](C)S(=O)(=O)c1ccc(Cl)cc1

>  <Energy>  (90) 
39.39510031291616

>  <Genealogy>  (90) 
COc1ccccc1C[N-]C(=O)C[NH+](C)S(=O)(=O)c1ccc(Cl)cc1 (protonated)
COc1ccccc1C[N-]C(=O)C[N@H+](C)S(=O)(=O)c1ccc(Cl)cc1 (chirality)
COc1ccccc1C[N-]C(=O)C[N@H+](C)S(=O)(=O)c1ccc(Cl)cc1 (3D coordinates assigned)
COc1ccccc1C[N-]C(=O)C[N@H+](C)S(=O)(=O)c1ccc(Cl)cc1 (optimized conformer: 39.39510031291616 kcal/mol)

>  <smiles>  (90) 
COc1ccccc1CNC(=O)CN(C)S(=O)(=O)c1ccc(Cl)cc1

>  <score_type>  (90) 
oracle

>  <origin>  (90) 
adg

>  <m_score__min__energy>  (90) 
-8.9199999999999999

>  <m_primary>  (90) 
energy

$$$$
90:0
     RDKit          3D

 57 60  0  0  1  0  0  0  0  0999 V2000
   56.4250   31.5500   44.5330 N   0  0  0  0  0  0  0  0  0  0  0  0
   56.5940   29.8880   44.1640 S   0  0  0  0  0  0  0  0  0  0  0  0
   56.4500   29.7440   42.6770 O   0  0  0  0  0  0  0  0  0  0  0  0
   55.5180   29.0760   44.8430 O   0  0  0  0  0  0  0  0  0  0  0  0
   58.1640   29.2470   44.6980 C   0  0  0  0  0  0  0  0  0  0  0  0
   58.9900   30.3160   45.3760 C   0  0  0  0  0  0  0  0  0  0  0  0
   58.2120   31.0510   46.3550 N   0  0  0  0  0  0  0  0  0  0  0  0
   58.5140   32.3090   46.5190 C   0  0  0  0  0  0  0  0  0  0  0  0
   57.8680   33.2410   45.7920 N   0  0  0  0  0  0  0  0  0  0  0  0
   58.1650   34.5500   45.9480 C   0  0  0  0  0  0  0  0  0  0  0  0
   59.1100   34.9130   46.8320 N   0  0  0  0  0  0  0  0  0  0  0  0
   59.8010   34.0510   47.5950 C   0  0  0  0  0  0  0  0  0  0  0  0
   60.7590   34.3720   48.5010 O   0  0  0  0  0  0  0  0  0  0  0  0
   62.0970   34.0880   48.6020 C   0  0  0  0  0  0  0  0  0  0  0  0
   62.4980   33.2520   49.7940 C   0  0  0  0  0  0  0  0  0  0  0  0
   64.0110   33.1980   49.7900 C   0  0  0  0  0  0  0  0  0  0  0  0
   64.4880   32.5920   48.5900 N   0  0  0  0  0  0  0  0  0  0  0  0
   63.4950   32.3320   47.5860 C   0  0  0  0  0  0  0  0  0  0  0  0
   62.6060   33.4920   47.2880 C   0  0  0  0  0  0  0  0  0  0  0  0
   59.4930   32.7030   47.4340 C   0  0  0  0  0  0  0  0  0  0  0  0
   60.1390   31.6100   48.1900 C   0  0  0  0  0  0  0  0  0  0  0  0
   59.6510   31.4180   49.5550 C   0  0  0  0  0  0  0  0  0  0  0  0
   58.8050   32.4350   50.0380 C   0  0  0  0  0  0  0  0  0  0  0  0
   57.7980   32.2890   50.9860 C   0  0  0  0  0  0  0  0  0  0  0  0
   57.4530   31.1820   51.7690 C   0  0  0  0  0  0  0  0  0  0  0  0
   58.0220   29.9280   51.8160 C   0  0  0  0  0  0  0  0  0  0  0  0
   59.2660   29.6050   51.3150 C   0  0  0  0  0  0  0  0  0  0  0  0
   60.0460   28.5850   51.6950 N   0  0  0  0  0  0  0  0  0  0  0  0
   61.2010   28.6000   50.9750 C   0  0  0  0  0  0  0  0  0  0  0  0
   61.1920   29.6590   50.0870 C   0  0  0  0  0  0  0  0  0  0  0  0
   60.0020   30.3010   50.2780 C   0  0  0  0  0  0  0  0  0  0  0  0
   56.3100   31.7500   45.5370 H   0  0  0  0  0  0  0  0  0  0  0  0
   57.0540   32.1790   44.0070 H   0  0  0  0  0  0  0  0  0  0  0  0
   57.9928   28.4230   45.4063 H   0  0  0  0  0  0  0  0  0  0  0  0
   58.7134   28.8913   43.8139 H   0  0  0  0  0  0  0  0  0  0  0  0
   59.8432   29.8406   45.8820 H   0  0  0  0  0  0  0  0  0  0  0  0
   59.3338   31.0242   44.6077 H   0  0  0  0  0  0  0  0  0  0  0  0
   57.6375   35.3125   45.3561 H   0  0  0  0  0  0  0  0  0  0  0  0
   59.2970   35.9350   46.9040 H   0  0  0  0  0  0  0  0  0  0  0  0
   62.5915   35.0525   48.7896 H   0  0  0  0  0  0  0  0  0  0  0  0
   62.1365   33.7166   50.7232 H   0  0  0  0  0  0  0  0  0  0  0  0
   62.0632   32.2431   49.7374 H   0  0  0  0  0  0  0  0  0  0  0  0
   64.4095   34.2207   49.8618 H   0  0  0  0  0  0  0  0  0  0  0  0
   64.3470   32.5979   50.6485 H   0  0  0  0  0  0  0  0  0  0  0  0
   65.2740   33.0930   48.1300 H   0  0  0  0  0  0  0  0  0  0  0  0
   64.0105   32.0454   46.6575 H   0  0  0  0  0  0  0  0  0  0  0  0
   62.8496   31.5332   47.9803 H   0  0  0  0  0  0  0  0  0  0  0  0
   63.1710   34.2551   46.7326 H   0  0  0  0  0  0  0  0  0  0  0  0
   61.7529   33.1565   46.6800 H   0  0  0  0  0  0  0  0  0  0  0  0
   59.9774   30.6730   47.6368 H   0  0  0  0  0  0  0  0  0  0  0  0
   61.1984   31.8910   48.2835 H   0  0  0  0  0  0  0  0  0  0  0  0
   58.9554   33.4434   49.6251 H   0  0  0  0  0  0  0  0  0  0  0  0
   57.1763   33.1824   51.1449 H   0  0  0  0  0  0  0  0  0  0  0  0
   56.6011   31.3356   52.4478 H   0  0  0  0  0  0  0  0  0  0  0  0
   57.4400   29.1233   52.2890 H   0  0  0  0  0  0  0  0  0  0  0  0
   62.0214   27.8754   51.0839 H   0  0  0  0  0  0  0  0  0  0  0  0
   61.9827   29.9297   49.3718 H   0  0  0  0  0  0  0  0  0  0  0  0
  1  2  1  0
  2  3  2  0
  2  4  2  0
  2  5  1  0
  5  6  1  0
  6  7  1  0
  7  8  2  0
  8  9  1  0
  9 10  2  0
 10 11  1  0
 11 12  1  0
 12 13  1  0
 13 14  1  0
 14 15  1  0
 15 16  1  0
 16 17  1  0
 17 18  1  0
 18 19  1  0
 12 20  2  0
 20 21  1  0
 21 22  1  0
 22 23  2  0
 23 24  1  0
 24 25  2  0
 25 26  1  0
 26 27  2  0
 27 28  1  0
 28 29  2  0
 29 30  1  0
 30 31  2  0
 20  8  1  0
 31 22  1  0
 19 14  1  0
 31 27  1  0
  1 32  1  0
  1 33  1  0
  5 34  1  0
  5 35  1  0
  6 36  1  0
  6 37  1  0
 10 38  1  0
 11 39  1  0
 14 40  1  0
 15 41  1  0
 15 42  1  0
 16 43  1  0
 16 44  1  0
 17 45  1  0
 18 46  1  0
 18 47  1  0
 19 48  1  0
 19 49  1  0
 21 50  1  0
 21 51  1  0
 23 52  1  0
 24 53  1  0
 25 54  1  0
 26 55  1  0
 29 56  1  0
 30 57  1  0
M  END
>  <smiles>  (91) 
NS(=O)(=O)CCN=c1nc[nH]c(OC2CCNCC2)c1Cc1ccccc2nccc1-2

>  <score_type>  (91) 
oracle

>  <origin>  (91) 
adg

>  <m_score__min__energy>  (91) 
-9.7599999999999998

>  <m_primary>  (91) 
energy

$$$$
91:0
     RDKit          3D

 56 59  0  0  0  0  0  0  0  0999 V2000
   58.6490   32.7570   50.6330 C   0  0  0  0  0  0  0  0  0  0  0  0
   59.4150   33.1370   49.4450 N   0  0  0  0  0  0  0  0  0  0  0  0
   60.4650   34.1580   49.5470 C   0  0  0  0  0  0  0  0  0  0  0  0
   61.6310   33.7990   48.6640 C   0  0  0  0  0  0  0  0  0  0  0  0
   62.7380   33.1070   49.1850 C   0  0  0  0  0  0  0  0  0  0  0  0
   63.8100   32.7630   48.3520 C   0  0  0  0  0  0  0  0  0  0  0  0
   63.7790   33.0980   46.9960 C   0  0  0  0  0  0  0  0  0  0  0  0
   62.6730   33.7790   46.4700 C   0  0  0  0  0  0  0  0  0  0  0  0
   61.6050   34.1310   47.2990 C   0  0  0  0  0  0  0  0  0  0  0  0
   58.9510   32.7200   48.1530 C   0  0  0  0  0  0  0  0  0  0  0  0
   58.4210   33.6700   47.2710 C   0  0  0  0  0  0  0  0  0  0  0  0
   57.9440   33.2800   46.0170 C   0  0  0  0  0  0  0  0  0  0  0  0
   58.0040   31.9310   45.6210 C   0  0  0  0  0  0  0  0  0  0  0  0
   57.5710   31.5370   44.3060 N   0  0  0  0  0  0  0  0  0  0  0  0
   58.0300   32.1350   43.0630 C   0  0  0  0  0  0  0  0  0  0  0  0
   57.0820   31.6150   41.9680 C   0  0  0  0  0  0  0  0  0  0  0  0
   56.3060   30.4340   42.5730 C   0  0  0  0  0  0  0  0  0  0  0  0
   56.6390   30.5080   44.0100 C   0  0  0  0  0  0  0  0  0  0  0  0
   56.2090   29.6900   44.8700 O   0  0  0  0  0  0  0  0  0  0  0  0
   58.5380   30.9780   46.5080 C   0  0  0  0  0  0  0  0  0  0  0  0
   58.9940   31.3650   47.7780 C   0  0  0  0  0  0  0  0  0  0  0  0
   59.5780   30.4000   48.6600 N   0  0  0  0  0  0  0  0  0  0  0  0
   59.5870   28.9860   48.4290 C   0  0  0  0  0  0  0  0  0  0  0  0
   59.5960   28.2100   49.4210 O   0  0  0  0  0  0  0  0  0  0  0  0
   59.5620   28.4530   47.0920 N   0  0  0  0  0  0  0  0  0  0  0  0
   59.1610   27.1110   46.7740 C   0  0  0  0  0  0  0  0  0  0  0  0
   60.0780   26.1690   46.2670 C   0  0  0  0  0  0  0  0  0  0  0  0
   59.6720   24.8570   46.0070 C   0  0  0  0  0  0  0  0  0  0  0  0
   58.3540   24.4670   46.2630 C   0  0  0  0  0  0  0  0  0  0  0  0
   57.9650   23.1890   46.0190 F   0  0  0  0  0  0  0  0  0  0  0  0
   57.4400   25.3900   46.7870 C   0  0  0  0  0  0  0  0  0  0  0  0
   56.1640   25.0100   47.0560 F   0  0  0  0  0  0  0  0  0  0  0  0
   57.8440   26.7060   47.0470 C   0  0  0  0  0  0  0  0  0  0  0  0
   59.2112   33.0359   51.5364 H   0  0  0  0  0  0  0  0  0  0  0  0
   57.6810   33.2794   50.6277 H   0  0  0  0  0  0  0  0  0  0  0  0
   58.4792   31.6702   50.6277 H   0  0  0  0  0  0  0  0  0  0  0  0
   60.0575   35.1302   49.2325 H   0  0  0  0  0  0  0  0  0  0  0  0
   60.8099   34.2134   50.5901 H   0  0  0  0  0  0  0  0  0  0  0  0
   62.7624   32.8347   50.2505 H   0  0  0  0  0  0  0  0  0  0  0  0
   64.6776   32.2283   48.7659 H   0  0  0  0  0  0  0  0  0  0  0  0
   64.6214   32.8276   46.3423 H   0  0  0  0  0  0  0  0  0  0  0  0
   62.6456   34.0372   45.4011 H   0  0  0  0  0  0  0  0  0  0  0  0
   60.7413   34.6696   46.8819 H   0  0  0  0  0  0  0  0  0  0  0  0
   58.3800   34.7286   47.5670 H   0  0  0  0  0  0  0  0  0  0  0  0
   57.5192   34.0317   45.3355 H   0  0  0  0  0  0  0  0  0  0  0  0
   57.9781   33.2321   43.1244 H   0  0  0  0  0  0  0  0  0  0  0  0
   59.0761   31.8699   42.8500 H   0  0  0  0  0  0  0  0  0  0  0  0
   56.3847   32.4092   41.6629 H   0  0  0  0  0  0  0  0  0  0  0  0
   57.6448   31.3010   41.0766 H   0  0  0  0  0  0  0  0  0  0  0  0
   55.2239   30.5503   42.4129 H   0  0  0  0  0  0  0  0  0  0  0  0
   56.5710   29.4676   42.1193 H   0  0  0  0  0  0  0  0  0  0  0  0
   58.5985   29.9225   46.2041 H   0  0  0  0  0  0  0  0  0  0  0  0
   59.8620   29.0650   46.3010 H   0  0  0  0  0  0  0  0  0  0  0  0
   61.1191   26.4677   46.0748 H   0  0  0  0  0  0  0  0  0  0  0  0
   60.3906   24.1302   45.6003 H   0  0  0  0  0  0  0  0  0  0  0  0
   57.1261   27.4259   47.4671 H   0  0  0  0  0  0  0  0  0  0  0  0
  1  2  1  0
  2  3  1  0
  3  4  1  0
  4  5  2  0
  5  6  1  0
  6  7  2  0
  7  8  1  0
  8  9  2  0
  2 10  1  0
 10 11  2  0
 11 12  1  0
 12 13  2  0
 13 14  1  0
 14 15  1  0
 15 16  1  0
 16 17  1  0
 17 18  1  0
 18 19  2  0
 13 20  1  0
 20 21  2  0
 21 22  1  0
 22 23  1  0
 23 24  2  0
 23 25  1  0
 25 26  1  0
 26 27  2  0
 27 28  1  0
 28 29  2  0
 29 30  1  0
 29 31  1  0
 31 32  1  0
 31 33  2  0
  9  4  1  0
 21 10  1  0
 33 26  1  0
 18 14  1  0
  1 34  1  0
  1 35  1  0
  1 36  1  0
  3 37  1  0
  3 38  1  0
  5 39  1  0
  6 40  1  0
  7 41  1  0
  8 42  1  0
  9 43  1  0
 11 44  1  0
 12 45  1  0
 15 46  1  0
 15 47  1  0
 16 48  1  0
 16 49  1  0
 17 50  1  0
 17 51  1  0
 20 52  1  0
 25 53  1  0
 27 54  1  0
 28 55  1  0
 33 56  1  0
M  CHG  1  22  -1
M  END
>  <UniqueID>  (92) 
87

>  <SMILES>  (92) 
CN(Cc1ccccc1)c1ccc(N2CCCC2=O)cc1[N-]C(=O)Nc1ccc(F)c(F)c1

>  <Energy>  (92) 
83.14722406119617

>  <Genealogy>  (92) 
CN(Cc1ccccc1)c1ccc(N2CCCC2=O)cc1[N-]C(=O)Nc1ccc(F)c(F)c1 (protonated)
CN(Cc1ccccc1)c1ccc(N2CCCC2=O)cc1[N-]C(=O)Nc1ccc(F)c(F)c1 (3D coordinates assigned)
CN(Cc1ccccc1)c1ccc(N2CCCC2=O)cc1[N-]C(=O)Nc1ccc(F)c(F)c1 (nonaromatic ring conformer: 83.14722406119617 kcal/mol)

>  <smiles>  (92) 
CN(Cc1ccccc1)c1ccc(N2CCCC2=O)cc1NC(=O)Nc1ccc(F)c(F)c1

>  <score_type>  (92) 
oracle

>  <origin>  (92) 
adg

>  <m_score__min__energy>  (92) 
-10.140000000000001

>  <m_primary>  (92) 
energy

$$$$
92:0
     RDKit          3D

 50 52  0  0  0  0  0  0  0  0999 V2000
   58.5190   29.8510   50.6450 C   0  0  0  0  0  0  0  0  0  0  0  0
   59.0650   29.4750   49.3850 O   0  0  0  0  0  0  0  0  0  0  0  0
   60.0460   30.1970   48.6840 C   0  0  0  0  0  0  0  0  0  0  0  0
   60.6030   31.3720   49.2190 C   0  0  0  0  0  0  0  0  0  0  0  0
   61.5500   32.1140   48.4960 C   0  0  0  0  0  0  0  0  0  0  0  0
   62.0360   33.4190   48.9980 C   0  0  0  0  0  0  0  0  0  0  0  0
   63.2020   33.5220   49.4680 O   0  0  0  0  0  0  0  0  0  0  0  0
   61.2060   34.5810   48.9000 N   0  0  0  0  0  0  0  0  0  0  0  0
   59.7510   34.5270   48.9600 C   0  0  0  0  0  0  0  0  0  0  0  0
   59.2010   34.2920   47.5800 C   0  0  0  0  0  0  0  0  0  0  0  0
   58.2430   33.2840   47.3710 C   0  0  0  0  0  0  0  0  0  0  0  0
   57.7840   33.0060   46.0800 C   0  0  0  0  0  0  0  0  0  0  0  0
   58.2800   33.7260   44.9890 C   0  0  0  0  0  0  0  0  0  0  0  0
   57.8390   33.4490   43.7380 F   0  0  0  0  0  0  0  0  0  0  0  0
   59.2350   34.7270   45.1890 C   0  0  0  0  0  0  0  0  0  0  0  0
   59.6990   35.0080   46.4790 C   0  0  0  0  0  0  0  0  0  0  0  0
   61.9620   31.6300   47.2500 C   0  0  0  0  0  0  0  0  0  0  0  0
   61.4170   30.4970   46.7420 N   0  0  0  0  0  0  0  0  0  0  0  0
   60.4730   29.7720   47.3980 C   0  0  0  0  0  0  0  0  0  0  0  0
   59.9550   28.7530   46.7690 N   0  0  0  0  0  0  0  0  0  0  0  0
   59.5950   28.6640   45.3850 C   0  0  0  0  0  0  0  0  0  0  0  0
   60.4330   28.2140   44.5600 O   0  0  0  0  0  0  0  0  0  0  0  0
   58.3010   29.1870   44.9000 C   0  0  0  0  0  0  0  0  0  0  0  0
   58.3180   30.1780   43.9660 N   0  0  0  0  0  0  0  0  0  0  0  0
   57.1800   30.7310   43.4700 C   0  0  0  0  0  0  0  0  0  0  0  0
   55.9380   30.2820   43.9100 C   0  0  0  0  0  0  0  0  0  0  0  0
   55.8770   29.2570   44.8540 C   0  0  0  0  0  0  0  0  0  0  0  0
   57.0590   28.6870   45.3580 C   0  0  0  0  0  0  0  0  0  0  0  0
   57.0200   27.5910   46.2830 N   0  0  0  0  0  0  0  0  0  0  0  0
   56.2260   26.0730   46.0290 S   0  0  0  0  0  0  0  0  0  0  0  0
   57.0070   25.2360   44.6660 C   0  0  0  0  0  0  0  0  0  0  0  0
   54.7800   26.3020   45.6910 O   0  0  0  0  0  0  0  0  0  0  0  0
   56.3380   25.2240   47.2650 O   0  0  0  0  0  0  0  0  0  0  0  0
   59.1343   29.4273   51.4524 H   0  0  0  0  0  0  0  0  0  0  0  0
   58.5098   30.9478   50.7280 H   0  0  0  0  0  0  0  0  0  0  0  0
   57.4910   29.4684   50.7280 H   0  0  0  0  0  0  0  0  0  0  0  0
   60.2925   31.7142   50.2172 H   0  0  0  0  0  0  0  0  0  0  0  0
   59.4415   33.7055   49.6229 H   0  0  0  0  0  0  0  0  0  0  0  0
   59.3644   35.4795   49.3516 H   0  0  0  0  0  0  0  0  0  0  0  0
   57.8534   32.7123   48.2262 H   0  0  0  0  0  0  0  0  0  0  0  0
   57.0313   32.2195   45.9224 H   0  0  0  0  0  0  0  0  0  0  0  0
   59.6226   35.2951   44.3305 H   0  0  0  0  0  0  0  0  0  0  0  0
   60.4557   35.7917   46.6312 H   0  0  0  0  0  0  0  0  0  0  0  0
   62.7315   32.1709   46.6797 H   0  0  0  0  0  0  0  0  0  0  0  0
   57.2403   31.5338   42.7205 H   0  0  0  0  0  0  0  0  0  0  0  0
   55.0139   30.7311   43.5171 H   0  0  0  0  0  0  0  0  0  0  0  0
   54.9002   28.8933   45.2054 H   0  0  0  0  0  0  0  0  0  0  0  0
   57.7097   24.4829   45.0522 H   0  0  0  0  0  0  0  0  0  0  0  0
   56.2403   24.7412   44.0517 H   0  0  0  0  0  0  0  0  0  0  0  0
   57.5537   25.9666   44.0517 H   0  0  0  0  0  0  0  0  0  0  0  0
  1  2  1  0
  2  3  1  0
  3  4  2  0
  4  5  1  0
  5  6  1  0
  6  7  2  0
  6  8  1  0
  8  9  1  0
  9 10  1  0
 10 11  2  0
 11 12  1  0
 12 13  2  0
 13 14  1  0
 13 15  1  0
 15 16  2  0
  5 17  2  0
 17 18  1  0
 18 19  1  0
 19 20  2  3
 20 21  1  0
 21 22  2  0
 21 23  1  0
 23 24  2  0
 24 25  1  0
 25 26  2  0
 26 27  1  0
 27 28  2  0
 28 29  1  0
 29 30  1  0
 30 31  1  0
 30 32  2  0
 30 33  2  0
 19  3  1  0
 28 23  1  0
 16 10  1  0
  1 34  1  0
  1 35  1  0
  1 36  1  0
  4 37  1  0
  9 38  1  0
  9 39  1  0
 11 40  1  0
 12 41  1  0
 15 42  1  0
 16 43  1  0
 17 44  1  0
 25 45  1  0
 26 46  1  0
 27 47  1  0
 31 48  1  0
 31 49  1  0
 31 50  1  0
M  CHG  3   8  -1  18  -1  29  -1
M  END
>  <UniqueID>  (93) 
88

>  <SMILES>  (93) 
COc1cc(C(=O)[N-]Cc2ccc(F)cc2)c[n-]c1=NC(=O)c1ncccc1[N-]S(C)(=O)=O

>  <Energy>  (93) 
64.65367896070148

>  <Genealogy>  (93) 
COc1cc(C(=O)[N-]Cc2ccc(F)cc2)c[n-]c1=NC(=O)c1ncccc1[N-]S(C)(=O)=O (protonated)
COc1cc(C(=O)[N-]Cc2ccc(F)cc2)c[n-]c1=NC(=O)c1ncccc1[N-]S(C)(=O)=O (3D coordinates assigned)
COc1cc(C(=O)[N-]Cc2ccc(F)cc2)c[n-]c1=NC(=O)c1ncccc1[N-]S(C)(=O)=O (optimized conformer: 64.65367896070148 kcal/mol)

>  <smiles>  (93) 
COc1cc(C(=O)NCc2ccc(F)cc2)c[nH]c1=NC(=O)c1ncccc1NS(C)(=O)=O

>  <score_type>  (93) 
oracle

>  <origin>  (93) 
adg

>  <m_score__min__energy>  (93) 
-13.66

>  <m_primary>  (93) 
energy

$$$$
