0:0
     RDKit          3D

 48 52  0  0  1  0  0  0  0  0999 V2000
   58.1100   27.4390   43.9930 O   0  0  0  0  0  0  0  0  0  0  0  0
   57.3440   27.2730   44.9610 C   0  0  0  0  0  0  0  0  0  0  0  0
   56.9160   28.4810   45.6290 N   0  0  0  0  0  0  0  0  0  0  0  0
   57.3460   29.7580   45.2000 C   0  0  0  0  0  0  0  0  0  0  0  0
   58.1280   30.5920   45.9900 C   0  0  0  0  0  0  0  0  0  0  0  0
   58.5200   31.8130   45.5390 C   0  0  0  0  0  0  0  0  0  0  0  0
   59.2950   32.6880   46.2710 C   0  0  0  0  0  0  0  0  0  0  0  0
   59.6850   32.3540   47.4570 N   0  0  0  0  0  0  0  0  0  0  0  0
   61.0440   32.4990   47.8570 C   0  0  0  0  0  0  0  0  0  0  0  0
   62.0820   31.9410   47.1140 C   0  0  0  0  0  0  0  0  0  0  0  0
   63.3990   32.0570   47.4660 C   0  0  0  0  0  0  0  0  0  0  0  0
   63.7400   32.7500   48.5950 C   0  0  0  0  0  0  0  0  0  0  0  0
   64.9320   33.0230   49.1740 N   0  0  0  0  0  0  0  0  0  0  0  0
   64.6990   33.7340   50.2610 N   0  0  0  0  0  0  0  0  0  0  0  0
   63.3780   33.9330   50.4050 C   0  0  0  0  0  0  0  0  0  0  0  0
   62.7270   33.3110   49.3460 C   0  0  0  0  0  0  0  0  0  0  0  0
   61.3920   33.2080   49.0130 C   0  0  0  0  0  0  0  0  0  0  0  0
   59.6300   33.8740   45.7340 N   0  0  0  0  0  0  0  0  0  0  0  0
   59.2420   34.2540   44.5040 C   0  0  0  0  0  0  0  0  0  0  0  0
   58.4740   33.4120   43.7530 N   0  0  0  0  0  0  0  0  0  0  0  0
   58.1300   32.2160   44.2800 C   0  0  0  0  0  0  0  0  0  0  0  0
   57.3500   31.3970   43.4780 C   0  0  0  0  0  0  0  0  0  0  0  0
   56.9460   30.1550   43.9240 C   0  0  0  0  0  0  0  0  0  0  0  0
   56.1740   29.3570   43.1180 O   0  0  0  0  0  0  0  0  0  0  0  0
   56.8640   25.9990   45.4550 C   0  0  0  0  0  0  0  0  0  0  0  0
   55.9610   25.9920   46.3630 O   0  0  0  0  0  0  0  0  0  0  0  0
   57.3170   24.6990   45.0100 C   0  0  0  0  0  0  0  0  0  0  0  0
   58.4680   24.1720   45.5940 C   0  0  0  0  0  0  0  0  0  0  0  0
   58.9580   22.9190   45.2070 C   0  0  0  0  0  0  0  0  0  0  0  0
   58.3270   22.1770   44.2540 C   0  0  0  0  0  0  0  0  0  0  0  0
   57.1990   22.6760   43.6720 C   0  0  0  0  0  0  0  0  0  0  0  0
   56.7100   23.9280   44.0570 C   0  0  0  0  0  0  0  0  0  0  0  0
   56.2710   28.4450   46.4550 H   0  0  0  0  0  0  0  0  0  0  0  0
   58.4337   30.2599   46.9931 H   0  0  0  0  0  0  0  0  0  0  0  0
   61.8309   31.3807   46.2013 H   0  0  0  0  0  0  0  0  0  0  0  0
   64.1800   31.5952   46.8441 H   0  0  0  0  0  0  0  0  0  0  0  0
   65.8800   32.7140   48.8120 H   0  0  0  0  0  0  0  0  0  0  0  0
   62.8951   34.4917   51.2202 H   0  0  0  0  0  0  0  0  0  0  0  0
   60.6183   33.6726   49.6418 H   0  0  0  0  0  0  0  0  0  0  0  0
   60.2170   34.5470   46.2790 H   0  0  0  0  0  0  0  0  0  0  0  0
   59.5410   35.2351   44.1064 H   0  0  0  0  0  0  0  0  0  0  0  0
   57.0504   31.7404   42.4768 H   0  0  0  0  0  0  0  0  0  0  0  0
   56.4080   28.3890   43.0180 H   0  0  0  0  0  0  0  0  0  0  0  0
   58.9973   24.7474   46.3678 H   0  0  0  0  0  0  0  0  0  0  0  0
   59.8695   22.5261   45.6811 H   0  0  0  0  0  0  0  0  0  0  0  0
   58.7205   21.1930   43.9593 H   0  0  0  0  0  0  0  0  0  0  0  0
   56.6743   22.0938   42.9002 H   0  0  0  0  0  0  0  0  0  0  0  0
   55.7986   24.3091   43.5731 H   0  0  0  0  0  0  0  0  0  0  0  0
  1  2  2  0
  2  3  1  0
  3  4  1  0
  4  5  2  0
  5  6  1  0
  6  7  1  0
  7  8  2  0
  8  9  1  0
  9 10  2  0
 10 11  1  0
 11 12  2  0
 12 13  1  0
 13 14  1  0
 14 15  2  0
 15 16  1  0
 16 17  2  0
  7 18  1  0
 18 19  1  0
 19 20  2  0
 20 21  1  0
 21 22  1  0
 22 23  2  0
 23 24  1  0
  2 25  1  0
 25 26  2  0
 25 27  1  0
 27 28  2  0
 28 29  1  0
 29 30  2  0
 30 31  1  0
 31 32  2  0
 23  4  1  0
 32 27  1  0
 21  6  2  0
 17  9  1  0
 16 12  1  0
  3 33  1  0
  5 34  1  0
 10 35  1  0
 11 36  1  0
 13 37  1  0
 15 38  1  0
 17 39  1  0
 18 40  1  0
 19 41  1  0
 22 42  1  0
 24 43  1  0
 28 44  1  0
 29 45  1  0
 30 46  1  0
 31 47  1  0
 32 48  1  0
M  END
>  <smiles>  (1) 
O=C(Nc1cc2c(=Nc3ccc4[nH]ncc4c3)[nH]cnc2cc1O)C(=O)c1ccccc1

>  <score_type>  (1) 
oracle

>  <origin>  (1) 
adg

>  <m_score__min__energy>  (1) 
-9.5800000000000001

>  <m_primary>  (1) 
energy

$$$$
1:0
     RDKit          3D

 41 44  0  0  0  0  0  0  0  0999 V2000
   64.1098   33.4607   49.1482 H   0  0  0  0  0  0  0  0  0  0  0  0
   63.2400   33.6320   48.4970 C   0  0  0  0  0  0  0  0  0  0  0  0
   61.7260   34.1700   48.9970 S   0  0  0  0  0  0  0  0  0  0  0  0
   61.0240   34.1870   47.4680 C   0  0  0  0  0  0  0  0  0  0  0  0
   59.6180   34.6010   47.1520 C   0  0  0  0  0  0  0  0  0  0  0  0
   59.6410   35.5141   46.5390 H   0  0  0  0  0  0  0  0  0  0  0  0
   59.0859   34.7846   48.0971 H   0  0  0  0  0  0  0  0  0  0  0  0
   58.9060   33.5370   46.4090 N   0  0  0  0  0  0  0  0  0  0  0  0
   58.4000   32.4380   47.0700 C   0  0  0  0  0  0  0  0  0  0  0  0
   58.5090   32.2530   48.8610 S   0  0  0  0  0  0  0  0  0  0  0  0
   59.9440   31.1330   48.7950 C   0  0  0  0  0  0  0  0  0  0  0  0
   60.4252   31.0935   49.7834 H   0  0  0  0  0  0  0  0  0  0  0  0
   60.6666   31.5028   48.0526 H   0  0  0  0  0  0  0  0  0  0  0  0
   59.4850   29.7670   48.4090 C   0  0  0  0  0  0  0  0  0  0  0  0
   58.7470   29.1150   49.1980 O   0  0  0  0  0  0  0  0  0  0  0  0
   59.9120   29.2200   47.1520 N   0  0  0  0  0  0  0  0  0  0  0  0
   59.2070   28.5100   46.3150 C   0  0  0  0  0  0  0  0  0  0  0  0
   59.5560   28.2190   44.6900 S   0  0  0  0  0  0  0  0  0  0  0  0
   58.2100   27.2280   44.4640 C   0  0  0  0  0  0  0  0  0  0  0  0
   57.9263   26.7257   43.5274 H   0  0  0  0  0  0  0  0  0  0  0  0
   57.5220   27.1580   45.6710 C   0  0  0  0  0  0  0  0  0  0  0  0
   56.5996   26.5715   45.7939 H   0  0  0  0  0  0  0  0  0  0  0  0
   58.0780   27.8710   46.6880 N   0  0  0  0  0  0  0  0  0  0  0  0
   57.6840   27.8960   47.6570 H   0  0  0  0  0  0  0  0  0  0  0  0
   57.7700   31.4520   46.3790 N   0  0  0  0  0  0  0  0  0  0  0  0
   57.6310   31.5000   45.0340 C   0  0  0  0  0  0  0  0  0  0  0  0
   56.9770   30.4600   44.3580 C   0  0  0  0  0  0  0  0  0  0  0  0
   56.5829   29.6005   44.9201 H   0  0  0  0  0  0  0  0  0  0  0  0
   56.8260   30.5160   42.9690 C   0  0  0  0  0  0  0  0  0  0  0  0
   56.3120   29.7002   42.4396 H   0  0  0  0  0  0  0  0  0  0  0  0
   57.3270   31.6070   42.2510 C   0  0  0  0  0  0  0  0  0  0  0  0
   57.2065   31.6466   41.1583 H   0  0  0  0  0  0  0  0  0  0  0  0
   57.9810   32.6480   42.9190 C   0  0  0  0  0  0  0  0  0  0  0  0
   58.3728   33.5042   42.3504 H   0  0  0  0  0  0  0  0  0  0  0  0
   58.1390   32.6020   44.3200 C   0  0  0  0  0  0  0  0  0  0  0  0
   58.7830   33.6230   45.0400 C   0  0  0  0  0  0  0  0  0  0  0  0
   59.2520   34.6210   44.4190 O   0  0  0  0  0  0  0  0  0  0  0  0
   61.9650   33.7440   46.5450 C   0  0  0  0  0  0  0  0  0  0  0  0
   61.7564   33.6419   45.4698 H   0  0  0  0  0  0  0  0  0  0  0  0
   63.2040   33.4410   47.1210 C   0  0  0  0  0  0  0  0  0  0  0  0
   64.0675   33.0854   46.5396 H   0  0  0  0  0  0  0  0  0  0  0  0
  1  2  1  0
  2  3  1  0
  3  4  1  0
  4  5  1  0
  5  6  1  0
  5  7  1  0
  5  8  1  0
  8  9  1  0
  9 10  1  0
 10 11  1  0
 11 12  1  0
 11 13  1  0
 11 14  1  0
 14 15  2  0
 14 16  1  0
 16 17  2  0
 17 18  1  0
 18 19  1  0
 19 20  1  0
 19 21  2  0
 21 22  1  0
 21 23  1  0
 23 24  1  0
  9 25  2  0
 25 26  1  0
 26 27  2  0
 27 28  1  0
 27 29  1  0
 29 30  1  0
 29 31  2  0
 31 32  1  0
 31 33  1  0
 33 34  1  0
 33 35  2  0
 35 36  1  0
 36 37  2  0
  4 38  2  0
 38 39  1  0
 38 40  1  0
 40 41  1  0
 40  2  2  0
 36  8  1  0
 23 17  1  0
 35 26  1  0
M  END
>  <UniqueID>  (2) 
1

>  <SMILES>  (2) 
O=C(CSc1nc2ccccc2c(=O)n1Cc1cccs1)/N=c1/[nH]ccs1

>  <Energy>  (2) 
105.16315980602715

>  <Genealogy>  (2) 
O=C(CSc1nc2ccccc2c(=O)n1Cc1cccs1)/N=c1/[nH]ccs1 (cis-trans isomerization)
O=C(CSc1nc2ccccc2c(=O)n1Cc1cccs1)/N=c1/[nH]ccs1 (3D coordinates assigned)
O=C(CSc1nc2ccccc2c(=O)n1Cc1cccs1)/N=c1/[nH]ccs1 (optimized conformer: 105.16315980602715 kcal/mol)

>  <smiles>  (2) 
O=C(CSc1nc2ccccc2c(=O)n1Cc1cccs1)N=c1[nH]ccs1

>  <score_type>  (2) 
oracle

>  <origin>  (2) 
adg

>  <m_score__min__energy>  (2) 
-8

>  <m_primary>  (2) 
energy

$$$$
2:0
     RDKit          3D

 39 41  0  0  0  0  0  0  0  0999 V2000
   58.5880   32.0260   49.0490 C   0  0  0  0  0  0  0  0  0  0  0  0
   57.7740   32.6900   48.0870 O   0  0  0  0  0  0  0  0  0  0  0  0
   58.2510   33.5740   47.1080 C   0  0  0  0  0  0  0  0  0  0  0  0
   59.2690   34.5070   47.4030 C   0  0  0  0  0  0  0  0  0  0  0  0
   59.8000   35.3210   46.4010 C   0  0  0  0  0  0  0  0  0  0  0  0
   59.3260   35.2200   45.0950 C   0  0  0  0  0  0  0  0  0  0  0  0
   58.2950   34.3290   44.7940 C   0  0  0  0  0  0  0  0  0  0  0  0
   57.7360   33.5140   45.7900 C   0  0  0  0  0  0  0  0  0  0  0  0
   56.6850   32.6160   45.3950 N   0  0  0  0  0  0  0  0  0  0  0  0
   56.8500   31.1350   44.5020 S   0  0  0  0  0  0  0  0  0  0  0  0
   55.5110   30.4550   44.4440 O   0  0  0  0  0  0  0  0  0  0  0  0
   57.2960   31.4280   43.0960 O   0  0  0  0  0  0  0  0  0  0  0  0
   57.9780   30.0540   45.3190 C   0  0  0  0  0  0  0  0  0  0  0  0
   59.2330   30.5130   45.7450 C   0  0  0  0  0  0  0  0  0  0  0  0
   60.1210   29.6420   46.3810 C   0  0  0  0  0  0  0  0  0  0  0  0
   59.7720   28.3020   46.5710 C   0  0  0  0  0  0  0  0  0  0  0  0
   58.5280   27.8260   46.1380 C   0  0  0  0  0  0  0  0  0  0  0  0
   58.2470   26.4240   46.2560 N   0  0  0  0  0  0  0  0  0  0  0  0
   57.5770   25.6230   45.2770 C   0  0  0  0  0  0  0  0  0  0  0  0
   58.0610   25.5530   44.1150 O   0  0  0  0  0  0  0  0  0  0  0  0
   56.3820   24.8300   45.6210 C   0  0  0  0  0  0  0  0  0  0  0  0
   56.2840   23.1440   45.6020 S   0  0  0  0  0  0  0  0  0  0  0  0
   54.6440   23.1430   45.9770 C   0  0  0  0  0  0  0  0  0  0  0  0
   53.7220   21.7990   46.0860 S   0  0  0  0  0  0  0  0  0  0  0  0
   54.1470   24.3910   46.1120 N   0  0  0  0  0  0  0  0  0  0  0  0
   55.1120   25.3290   45.9140 C   0  0  0  0  0  0  0  0  0  0  0  0
   54.8280   26.6890   45.9960 O   0  0  0  0  0  0  0  0  0  0  0  0
   57.6290   28.7100   45.5140 C   0  0  0  0  0  0  0  0  0  0  0  0
   58.2548   32.2978   50.0615 H   0  0  0  0  0  0  0  0  0  0  0  0
   58.5012   30.9377   48.9142 H   0  0  0  0  0  0  0  0  0  0  0  0
   59.6366   32.3297   48.9142 H   0  0  0  0  0  0  0  0  0  0  0  0
   59.6473   34.5932   48.4323 H   0  0  0  0  0  0  0  0  0  0  0  0
   60.5937   36.0431   46.6430 H   0  0  0  0  0  0  0  0  0  0  0  0
   59.7643   35.8425   44.3011 H   0  0  0  0  0  0  0  0  0  0  0  0
   57.9159   34.2648   43.7634 H   0  0  0  0  0  0  0  0  0  0  0  0
   59.5189   31.5619   45.5778 H   0  0  0  0  0  0  0  0  0  0  0  0
   61.0958   30.0111   46.7326 H   0  0  0  0  0  0  0  0  0  0  0  0
   60.4783   27.6174   47.0634 H   0  0  0  0  0  0  0  0  0  0  0  0
   56.6474   28.3451   45.1774 H   0  0  0  0  0  0  0  0  0  0  0  0
  1  2  1  0
  2  3  1  0
  3  4  2  0
  4  5  1  0
  5  6  2  0
  6  7  1  0
  7  8  2  0
  8  9  1  0
  9 10  1  0
 10 11  2  0
 10 12  2  0
 10 13  1  0
 13 14  2  0
 14 15  1  0
 15 16  2  0
 16 17  1  0
 17 18  1  0
 18 19  1  0
 19 20  2  0
 19 21  1  0
 21 22  1  0
 22 23  1  0
 23 24  2  0
 23 25  1  0
 25 26  1  0
 26 27  1  0
 17 28  2  0
  8  3  1  0
 28 13  1  0
 26 21  2  0
  1 29  1  0
  1 30  1  0
  1 31  1  0
  4 32  1  0
  5 33  1  0
  6 34  1  0
  7 35  1  0
 14 36  1  0
 15 37  1  0
 16 38  1  0
 28 39  1  0
M  CHG  4   9  -1  18  -1  25  -1  27  -1
M  END
>  <UniqueID>  (3) 
2

>  <SMILES>  (3) 
COc1ccccc1[N-]S(=O)(=O)c1cccc([N-]C(=O)c2sc(=S)[n-]c2[O-])c1

>  <Energy>  (3) 
82.31883517841621

>  <Genealogy>  (3) 
COc1ccccc1[N-]S(=O)(=O)c1cccc([N-]C(=O)c2sc(=S)[n-]c2[O-])c1 (protonated)
COc1ccccc1[N-]S(=O)(=O)c1cccc([N-]C(=O)c2sc(=S)[n-]c2[O-])c1 (3D coordinates assigned)
COc1ccccc1[N-]S(=O)(=O)c1cccc([N-]C(=O)c2sc(=S)[n-]c2[O-])c1 (optimized conformer: 82.31883517841621 kcal/mol)

>  <smiles>  (3) 
COc1ccccc1NS(=O)(=O)c1cccc(NC(=O)c2sc(=S)[nH]c2O)c1

>  <score_type>  (3) 
oracle

>  <origin>  (3) 
adg

>  <m_score__min__energy>  (3) 
-16.719999999999999

>  <m_primary>  (3) 
energy

$$$$
3:0
     RDKit          3D

 50 53  0  0  0  0  0  0  0  0999 V2000
   57.5520   34.0730   44.8740 C   0  0  0  0  0  0  0  0  0  0  0  0
   58.7100   34.0200   45.8140 C   0  0  0  0  0  0  0  0  0  0  0  0
   58.6540   34.2330   47.1820 C   0  0  0  0  0  0  0  0  0  0  0  0
   59.9720   34.1470   47.5810 C   0  0  0  0  0  0  0  0  0  0  0  0
   60.7390   33.8880   46.5070 N   0  0  0  0  0  0  0  0  0  0  0  0
   59.9860   33.8340   45.4200 N   0  0  0  0  0  0  0  0  0  0  0  0
   62.1970   33.8390   46.5050 C   0  0  0  0  0  0  0  0  0  0  0  0
   62.7290   33.5270   47.9100 C   0  0  0  0  0  0  0  0  0  0  0  0
   62.0470   34.4130   48.9690 C   0  0  0  0  0  0  0  0  0  0  0  0
   60.5060   34.2650   48.9810 C   0  0  2  0  0  0  0  0  0  0  0  0
   60.0610   33.0740   49.8020 C   0  0  0  0  0  0  0  0  0  0  0  0
   59.2060   33.2340   50.7140 O   0  0  0  0  0  0  0  0  0  0  0  0
   60.6720   31.7850   49.6580 N   0  0  0  0  0  0  0  0  0  0  0  0
   60.2290   30.7250   48.8020 C   0  0  0  0  0  0  0  0  0  0  0  0
   59.1070   29.9760   49.1720 C   0  0  0  0  0  0  0  0  0  0  0  0
   58.6520   28.9360   48.3570 C   0  0  0  0  0  0  0  0  0  0  0  0
   59.3120   28.6430   47.1550 C   0  0  0  0  0  0  0  0  0  0  0  0
   58.8470   27.5330   46.3020 C   0  0  0  0  0  0  0  0  0  0  0  0
   59.0920   26.2170   46.7280 C   0  0  0  0  0  0  0  0  0  0  0  0
   58.6890   25.1320   45.9470 C   0  0  0  0  0  0  0  0  0  0  0  0
   58.0360   25.3500   44.7350 C   0  0  0  0  0  0  0  0  0  0  0  0
   57.7740   26.6530   44.3030 C   0  0  0  0  0  0  0  0  0  0  0  0
   58.1650   27.7570   45.0810 C   0  0  0  0  0  0  0  0  0  0  0  0
   57.7600   29.3880   44.5160 S   0  0  0  0  0  0  0  0  0  0  0  0
   56.9080   29.3020   43.0100 N   0  0  0  0  0  0  0  0  0  0  0  0
   59.0200   30.1820   44.3060 O   0  0  0  0  0  0  0  0  0  0  0  0
   56.9160   30.0850   45.5440 O   0  0  0  0  0  0  0  0  0  0  0  0
   60.3990   29.4310   46.7520 C   0  0  0  0  0  0  0  0  0  0  0  0
   60.8540   30.4690   47.5700 C   0  0  0  0  0  0  0  0  0  0  0  0
   56.6150   34.1159   45.4486 H   0  0  0  0  0  0  0  0  0  0  0  0
   57.6348   34.9683   44.2403 H   0  0  0  0  0  0  0  0  0  0  0  0
   57.5527   33.1739   44.2403 H   0  0  0  0  0  0  0  0  0  0  0  0
   57.7672   34.4254   47.8038 H   0  0  0  0  0  0  0  0  0  0  0  0
   62.5314   33.0551   45.8095 H   0  0  0  0  0  0  0  0  0  0  0  0
   62.5842   34.8188   46.1888 H   0  0  0  0  0  0  0  0  0  0  0  0
   62.5304   32.4705   48.1432 H   0  0  0  0  0  0  0  0  0  0  0  0
   63.8100   33.7296   47.9278 H   0  0  0  0  0  0  0  0  0  0  0  0
   62.4335   34.1345   49.9605 H   0  0  0  0  0  0  0  0  0  0  0  0
   62.2748   35.4595   48.7182 H   0  0  0  0  0  0  0  0  0  0  0  0
   60.0978   35.1730   49.4489 H   0  0  0  0  0  0  0  0  0  0  0  0
   58.5800   30.2069   50.1095 H   0  0  0  0  0  0  0  0  0  0  0  0
   57.7742   28.3459   48.6591 H   0  0  0  0  0  0  0  0  0  0  0  0
   59.6055   26.0399   47.6845 H   0  0  0  0  0  0  0  0  0  0  0  0
   58.8868   24.1051   46.2882 H   0  0  0  0  0  0  0  0  0  0  0  0
   57.7261   24.4944   44.1171 H   0  0  0  0  0  0  0  0  0  0  0  0
   57.2573   26.8164   43.3458 H   0  0  0  0  0  0  0  0  0  0  0  0
   57.6010   29.4770   42.2490 H   0  0  0  0  0  0  0  0  0  0  0  0
   56.5870   28.3160   42.8910 H   0  0  0  0  0  0  0  0  0  0  0  0
   60.8947   29.2321   45.7904 H   0  0  0  0  0  0  0  0  0  0  0  0
   61.7046   31.0878   47.2480 H   0  0  0  0  0  0  0  0  0  0  0  0
  1  2  1  0
  2  3  1  0
  3  4  2  0
  4  5  1  0
  5  6  1  0
  5  7  1  0
  7  8  1  0
  8  9  1  0
  9 10  1  0
 10 11  1  0
 11 12  2  0
 11 13  1  0
 13 14  1  0
 14 15  2  0
 15 16  1  0
 16 17  2  0
 17 18  1  0
 18 19  2  0
 19 20  1  0
 20 21  2  0
 21 22  1  0
 22 23  2  0
 23 24  1  0
 24 25  1  0
 24 26  2  0
 24 27  2  0
 17 28  1  0
 28 29  2  0
  6  2  2  0
 29 14  1  0
 10  4  1  0
 23 18  1  0
  1 30  1  0
  1 31  1  0
  1 32  1  0
  3 33  1  0
  7 34  1  0
  7 35  1  0
  8 36  1  0
  8 37  1  0
  9 38  1  0
  9 39  1  0
 10 40  1  1
 15 41  1  0
 16 42  1  0
 19 43  1  0
 20 44  1  0
 21 45  1  0
 22 46  1  0
 25 47  1  0
 25 48  1  0
 28 49  1  0
 29 50  1  0
M  CHG  1  13  -1
M  END
>  <UniqueID>  (4) 
3

>  <SMILES>  (4) 
Cc1cc2n(n1)CCC[C@@H]2C(=O)[N-]c1ccc(-c2ccccc2S(N)(=O)=O)cc1

>  <Energy>  (4) 
93.35644433748894

>  <Genealogy>  (4) 
Cc1cc2n(n1)CCCC2C(=O)[N-]c1ccc(-c2ccccc2S(N)(=O)=O)cc1 (protonated)
Cc1cc2n(n1)CCC[C@@H]2C(=O)[N-]c1ccc(-c2ccccc2S(N)(=O)=O)cc1 (chirality)
Cc1cc2n(n1)CCC[C@@H]2C(=O)[N-]c1ccc(-c2ccccc2S(N)(=O)=O)cc1 (3D coordinates assigned)
Cc1cc2n(n1)CCC[C@@H]2C(=O)[N-]c1ccc(-c2ccccc2S(N)(=O)=O)cc1 (nonaromatic ring conformer: 93.35644433748894 kcal/mol)

>  <smiles>  (4) 
Cc1cc2n(n1)CCCC2C(=O)Nc1ccc(-c2ccccc2S(N)(=O)=O)cc1

>  <score_type>  (4) 
oracle

>  <origin>  (4) 
adg

>  <m_score__min__energy>  (4) 
-10.69

>  <m_primary>  (4) 
energy

$$$$
4:0
     RDKit          3D

 79 83  0  0  0  0  0  0  0  0999 V2000
   64.6610   25.8630   52.0640 N   0  0  0  0  0  0  0  0  0  0  0  0
   65.6380   26.8200   51.6400 C   0  0  0  0  0  0  0  0  0  0  0  0
   66.7470   26.3980   50.9030 C   0  0  0  0  0  0  0  0  0  0  0  0
   67.7010   27.3230   50.4880 C   0  0  0  0  0  0  0  0  0  0  0  0
   67.5390   28.6670   50.8150 C   0  0  0  0  0  0  0  0  0  0  0  0
   66.4570   29.0870   51.5410 N   0  0  0  0  0  0  0  0  0  0  0  0
   66.3280   30.5210   51.8590 C   0  0  0  0  0  0  0  0  0  0  0  0
   67.1260   31.3950   50.8800 C   0  0  0  0  0  0  0  0  0  0  0  0
   66.4870   32.7750   50.6760 C   0  0  0  0  0  0  0  0  0  0  0  0
   65.7410   32.8300   49.4170 N   0  0  0  0  0  0  0  0  0  0  0  0
   64.3470   32.4840   49.3170 C   0  0  0  0  0  0  0  0  0  0  0  0
   63.7580   32.3640   48.0480 C   0  0  0  0  0  0  0  0  0  0  0  0
   62.4010   32.0510   47.9210 C   0  0  0  0  0  0  0  0  0  0  0  0
   61.6040   31.8670   49.0630 C   0  0  0  0  0  0  0  0  0  0  0  0
   60.1270   31.6080   48.9220 C   0  0  0  0  0  0  0  0  0  0  0  0
   59.8780   30.1710   48.5440 C   0  0  0  0  0  0  0  0  0  0  0  0
   58.7440   29.8190   47.7910 C   0  0  0  0  0  0  0  0  0  0  0  0
   58.4700   28.4770   47.5120 C   0  0  0  0  0  0  0  0  0  0  0  0
   59.3230   27.4670   47.9830 C   0  0  0  0  0  0  0  0  0  0  0  0
   59.0100   26.0830   47.7880 N   0  0  0  0  0  0  0  0  0  0  0  0
   59.1290   25.3690   46.5510 C   0  0  0  0  0  0  0  0  0  0  0  0
   60.0530   25.6840   45.7550 O   0  0  0  0  0  0  0  0  0  0  0  0
   58.1170   24.3220   46.1430 C   0  0  2  0  0  0  0  0  0  0  0  0
   58.7550   23.2090   45.3020 C   0  0  0  0  0  0  0  0  0  0  0  0
   57.8190   22.9820   44.1170 C   0  0  0  0  0  0  0  0  0  0  0  0
   56.9460   24.2260   44.0180 C   0  0  0  0  0  0  0  0  0  0  0  0
   57.0900   24.9050   45.2910 N   0  0  0  0  0  0  0  0  0  0  0  0
   56.2600   26.0140   45.6680 C   0  0  0  0  0  0  0  0  0  0  0  0
   55.1570   25.8080   46.2470 O   0  0  0  0  0  0  0  0  0  0  0  0
   56.6880   27.3180   45.4000 O   0  0  0  0  0  0  0  0  0  0  0  0
   57.7370   27.6280   44.4830 C   0  0  0  0  0  0  0  0  0  0  0  0
   57.6590   29.0670   44.0440 C   0  0  0  0  0  0  0  0  0  0  0  0
   56.7290   29.4690   43.0710 C   0  0  0  0  0  0  0  0  0  0  0  0
   56.6410   30.8150   42.6950 C   0  0  0  0  0  0  0  0  0  0  0  0
   57.4770   31.7650   43.2880 C   0  0  0  0  0  0  0  0  0  0  0  0
   58.4070   31.3700   44.2570 C   0  0  0  0  0  0  0  0  0  0  0  0
   58.4990   30.0270   44.6340 C   0  0  0  0  0  0  0  0  0  0  0  0
   60.4430   27.8140   48.7500 C   0  0  0  0  0  0  0  0  0  0  0  0
   60.7270   29.1580   49.0170 C   0  0  0  0  0  0  0  0  0  0  0  0
   62.1910   31.9770   50.3320 C   0  0  0  0  0  0  0  0  0  0  0  0
   63.5520   32.2760   50.4590 C   0  0  0  0  0  0  0  0  0  0  0  0
   65.5030   28.1860   51.9510 C   0  0  0  0  0  0  0  0  0  0  0  0
   64.5010   28.5780   52.6140 O   0  0  0  0  0  0  0  0  0  0  0  0
   64.7400   24.8550   51.8050 H   0  0  0  0  0  0  0  0  0  0  0  0
   63.8520   26.1530   52.6570 H   0  0  0  0  0  0  0  0  0  0  0  0
   66.8666   25.3341   50.6504 H   0  0  0  0  0  0  0  0  0  0  0  0
   68.5754   26.9951   49.9067 H   0  0  0  0  0  0  0  0  0  0  0  0
   68.2899   29.4003   50.4858 H   0  0  0  0  0  0  0  0  0  0  0  0
   65.2663   30.8038   51.8051 H   0  0  0  0  0  0  0  0  0  0  0  0
   66.7293   30.6851   52.8699 H   0  0  0  0  0  0  0  0  0  0  0  0
   68.1431   31.5314   51.2761 H   0  0  0  0  0  0  0  0  0  0  0  0
   67.1388   30.8833   49.9063 H   0  0  0  0  0  0  0  0  0  0  0  0
   65.7996   32.9794   51.5101 H   0  0  0  0  0  0  0  0  0  0  0  0
   67.2874   33.5287   50.6409 H   0  0  0  0  0  0  0  0  0  0  0  0
   66.2500   33.0850   48.5390 H   0  0  0  0  0  0  0  0  0  0  0  0
   64.3691   32.5175   47.1463 H   0  0  0  0  0  0  0  0  0  0  0  0
   61.9550   31.9483   46.9207 H   0  0  0  0  0  0  0  0  0  0  0  0
   59.6287   31.8223   49.8790 H   0  0  0  0  0  0  0  0  0  0  0  0
   59.7251   32.2590   48.1316 H   0  0  0  0  0  0  0  0  0  0  0  0
   58.0688   30.6039   47.4195 H   0  0  0  0  0  0  0  0  0  0  0  0
   57.5815   28.2113   46.9204 H   0  0  0  0  0  0  0  0  0  0  0  0
   57.7042   23.9230   47.0813 H   0  0  0  0  0  0  0  0  0  0  0  0
   59.7492   23.5201   44.9487 H   0  0  0  0  0  0  0  0  0  0  0  0
   58.8889   22.2888   45.8896 H   0  0  0  0  0  0  0  0  0  0  0  0
   58.4001   22.8498   43.1924 H   0  0  0  0  0  0  0  0  0  0  0  0
   57.2104   22.0763   44.2558 H   0  0  0  0  0  0  0  0  0  0  0  0
   57.2899   24.8722   43.1970 H   0  0  0  0  0  0  0  0  0  0  0  0
   55.8965   23.9715   43.8086 H   0  0  0  0  0  0  0  0  0  0  0  0
   58.7065   27.4527   44.9721 H   0  0  0  0  0  0  0  0  0  0  0  0
   57.6316   26.9840   43.5974 H   0  0  0  0  0  0  0  0  0  0  0  0
   56.0681   28.7245   42.6032 H   0  0  0  0  0  0  0  0  0  0  0  0
   55.9125   31.1252   41.9314 H   0  0  0  0  0  0  0  0  0  0  0  0
   57.4043   32.8224   42.9936 H   0  0  0  0  0  0  0  0  0  0  0  0
   59.0663   32.1175   44.7224 H   0  0  0  0  0  0  0  0  0  0  0  0
   59.2315   29.7205   45.3952 H   0  0  0  0  0  0  0  0  0  0  0  0
   61.1021   27.0264   49.1441 H   0  0  0  0  0  0  0  0  0  0  0  0
   61.6209   29.4223   49.6010 H   0  0  0  0  0  0  0  0  0  0  0  0
   61.5778   31.8273   51.2329 H   0  0  0  0  0  0  0  0  0  0  0  0
   64.0038   32.3490   51.4593 H   0  0  0  0  0  0  0  0  0  0  0  0
  1  2  1  0
  2  3  2  0
  3  4  1  0
  4  5  2  0
  5  6  1  0
  6  7  1  0
  7  8  1  0
  8  9  1  0
  9 10  1  0
 10 11  1  0
 11 12  2  0
 12 13  1  0
 13 14  2  0
 14 15  1  0
 15 16  1  0
 16 17  2  0
 17 18  1  0
 18 19  2  0
 19 20  1  0
 20 21  1  0
 21 22  2  0
 21 23  1  0
 23 24  1  0
 24 25  1  0
 25 26  1  0
 26 27  1  0
 27 28  1  0
 28 29  2  0
 28 30  1  0
 30 31  1  0
 31 32  1  0
 32 33  2  0
 33 34  1  0
 34 35  2  0
 35 36  1  0
 36 37  2  0
 19 38  1  0
 38 39  2  0
 14 40  1  0
 40 41  2  0
  6 42  1  0
 42 43  2  0
 42  2  1  0
 41 11  1  0
 39 16  1  0
 27 23  1  0
 37 32  1  0
  1 44  1  0
  1 45  1  0
  3 46  1  0
  4 47  1  0
  5 48  1  0
  7 49  1  0
  7 50  1  0
  8 51  1  0
  8 52  1  0
  9 53  1  0
  9 54  1  0
 10 55  1  0
 12 56  1  0
 13 57  1  0
 15 58  1  0
 15 59  1  0
 17 60  1  0
 18 61  1  0
 23 62  1  1
 24 63  1  0
 24 64  1  0
 25 65  1  0
 25 66  1  0
 26 67  1  0
 26 68  1  0
 31 69  1  0
 31 70  1  0
 33 71  1  0
 34 72  1  0
 35 73  1  0
 36 74  1  0
 37 75  1  0
 38 76  1  0
 39 77  1  0
 40 78  1  0
 41 79  1  0
M  CHG  1  20  -1
M  END
>  <UniqueID>  (5) 
4

>  <SMILES>  (5) 
Nc1cccn(CCCNc2ccc(Cc3ccc([N-]C(=O)[C@@H]4CCCN4C(=O)OCc4ccccc4)cc3)cc2)c1=O

>  <Energy>  (5) 
84.3460950448151

>  <Genealogy>  (5) 
Nc1cccn(CCCNc2ccc(Cc3ccc([N-]C(=O)C4CCCN4C(=O)OCc4ccccc4)cc3)cc2)c1=O (protonated)
Nc1cccn(CCCNc2ccc(Cc3ccc([N-]C(=O)[C@@H]4CCCN4C(=O)OCc4ccccc4)cc3)cc2)c1=O (chirality)
Nc1cccn(CCCNc2ccc(Cc3ccc([N-]C(=O)[C@@H]4CCCN4C(=O)OCc4ccccc4)cc3)cc2)c1=O (3D coordinates assigned)
Nc1cccn(CCCNc2ccc(Cc3ccc([N-]C(=O)[C@@H]4CCCN4C(=O)OCc4ccccc4)cc3)cc2)c1=O (nonaromatic ring conformer: 84.3460950448151 kcal/mol)

>  <smiles>  (5) 
Nc1cccn(CCCNc2ccc(Cc3ccc(NC(=O)C4CCCN4C(=O)OCc4ccccc4)cc3)cc2)c1=O

>  <score_type>  (5) 
oracle

>  <origin>  (5) 
adg

>  <m_score__min__energy>  (5) 
-11.07

>  <m_primary>  (5) 
energy

$$$$
5:0
     RDKit          3D

 54 57  0  0  1  0  0  0  0  0999 V2000
   56.3300   31.6370   52.4100 C   0  0  0  0  0  0  0  0  0  0  0  0
   57.5370   31.5670   51.5690 C   0  0  0  0  0  0  0  0  0  0  0  0
   57.8040   30.3610   50.9120 C   0  0  0  0  0  0  0  0  0  0  0  0
   58.9250   30.2850   50.1260 C   0  0  0  0  0  0  0  0  0  0  0  0
   59.1760   29.1860   49.5250 N   0  0  0  0  0  0  0  0  0  0  0  0
   60.4810   34.2540   49.3660 C   0  0  0  0  0  0  0  0  0  0  0  0
   61.6700   33.6590   48.6950 C   0  0  0  0  0  0  0  0  0  0  0  0
   62.9420   34.0860   48.9740 C   0  0  0  0  0  0  0  0  0  0  0  0
   57.5050   28.1280   45.9960 C   0  0  0  0  0  0  0  0  0  0  0  0
   58.0470   28.6040   44.8060 C   0  0  0  0  0  0  0  0  0  0  0  0
   59.2860   29.2240   44.8440 C   0  0  0  0  0  0  0  0  0  0  0  0
   59.9820   29.3780   46.0190 C   0  0  0  0  0  0  0  0  0  0  0  0
   61.2180   30.0070   46.0000 O   0  0  0  0  0  0  0  0  0  0  0  0
   59.7320   31.3420   49.9970 N   0  0  0  0  0  0  0  0  0  0  0  0
   59.4370   32.4700   50.6400 C   0  0  0  0  0  0  0  0  0  0  0  0
   60.1980   33.4750   50.5170 N   0  0  0  0  0  0  0  0  0  0  0  0
   60.1850   29.0610   48.5110 C   0  0  0  0  0  0  0  0  0  0  0  0
   59.4570   28.9110   47.2080 C   0  0  0  0  0  0  0  0  0  0  0  0
   58.2120   28.2880   47.1700 C   0  0  0  0  0  0  0  0  0  0  0  0
   64.0240   33.4990   48.3210 C   0  0  0  0  0  0  0  0  0  0  0  0
   63.7750   32.4950   47.4030 C   0  0  0  0  0  0  0  0  0  0  0  0
   62.5330   32.0670   47.1210 N   0  0  0  0  0  0  0  0  0  0  0  0
   61.4980   32.6360   47.7530 C   0  0  0  0  0  0  0  0  0  0  0  0
   60.1850   32.2550   47.5220 O   0  0  0  0  0  0  0  0  0  0  0  0
   59.3940   32.9300   46.6100 C   0  0  0  0  0  0  0  0  0  0  0  0
   59.8010   34.0570   45.9270 C   0  0  0  0  0  0  0  0  0  0  0  0
   58.9230   34.6440   45.0400 C   0  0  0  0  0  0  0  0  0  0  0  0
   57.6520   34.1590   44.8010 C   0  0  0  0  0  0  0  0  0  0  0  0
   57.2500   33.0240   45.4920 C   0  0  0  0  0  0  0  0  0  0  0  0
   58.1170   32.4270   46.3820 C   0  0  0  0  0  0  0  0  0  0  0  0
   58.3470   32.6070   51.4320 N   0  0  0  0  0  0  0  0  0  0  0  0
   56.6207   31.6201   53.4708 H   0  0  0  0  0  0  0  0  0  0  0  0
   55.7859   32.5682   52.1937 H   0  0  0  0  0  0  0  0  0  0  0  0
   55.6819   30.7749   52.1937 H   0  0  0  0  0  0  0  0  0  0  0  0
   57.1326   29.4968   51.0230 H   0  0  0  0  0  0  0  0  0  0  0  0
   59.6191   34.2389   48.6827 H   0  0  0  0  0  0  0  0  0  0  0  0
   60.6814   35.2981   49.6483 H   0  0  0  0  0  0  0  0  0  0  0  0
   63.1079   34.8874   49.7091 H   0  0  0  0  0  0  0  0  0  0  0  0
   56.5242   27.6299   46.0007 H   0  0  0  0  0  0  0  0  0  0  0  0
   57.5040   28.4907   43.8561 H   0  0  0  0  0  0  0  0  0  0  0  0
   59.7239   29.6029   43.9088 H   0  0  0  0  0  0  0  0  0  0  0  0
   61.3060   31.0010   46.2030 H   0  0  0  0  0  0  0  0  0  0  0  0
   60.5850   31.2730   49.3950 H   0  0  0  0  0  0  0  0  0  0  0  0
   60.8189   29.9598   48.4917 H   0  0  0  0  0  0  0  0  0  0  0  0
   60.8407   28.1991   48.7039 H   0  0  0  0  0  0  0  0  0  0  0  0
   57.7777   27.9108   48.1076 H   0  0  0  0  0  0  0  0  0  0  0  0
   65.0529   33.8267   48.5309 H   0  0  0  0  0  0  0  0  0  0  0  0
   64.6258   32.0293   46.8842 H   0  0  0  0  0  0  0  0  0  0  0  0
   60.8044   34.4787   46.0863 H   0  0  0  0  0  0  0  0  0  0  0  0
   59.2510   35.5423   44.4964 H   0  0  0  0  0  0  0  0  0  0  0  0
   56.9799   34.6561   44.0861 H   0  0  0  0  0  0  0  0  0  0  0  0
   56.2463   32.6039   45.3304 H   0  0  0  0  0  0  0  0  0  0  0  0
   57.7904   31.5288   46.9266 H   0  0  0  0  0  0  0  0  0  0  0  0
   58.1670   33.4970   51.9060 H   0  0  0  0  0  0  0  0  0  0  0  0
  1  2  1  0
  2  3  2  0
  3  4  1  0
  4  5  2  0
  5  6  1  0
  6  7  1  0
  7  8  2  0
  8  9  1  0
  9 10  2  0
 10 11  1  0
 11 12  2  0
 12 13  1  0
  4 14  1  0
 14 15  1  0
 15 16  2  0
 16 17  1  0
 17 18  1  0
 18 19  2  0
 19 20  1  0
 20 21  2  0
 21 22  1  0
 22 23  2  0
 23 24  1  0
 24 25  1  0
 25 26  2  0
 26 27  1  0
 27 28  2  0
 28 29  1  0
 29 30  2  0
 15 31  1  0
 31  2  1  0
 12  7  1  0
 23 18  1  0
 30 25  1  0
  1 32  1  0
  1 33  1  0
  1 34  1  0
  3 35  1  0
  6 36  1  0
  6 37  1  0
  8 38  1  0
  9 39  1  0
 10 40  1  0
 11 41  1  0
 13 42  1  0
 14 43  1  0
 17 44  1  0
 17 45  1  0
 19 46  1  0
 20 47  1  0
 21 48  1  0
 26 49  1  0
 27 50  1  0
 28 51  1  0
 29 52  1  0
 30 53  1  0
 31 54  1  0
M  END
>  <smiles>  (6) 
Cc1cc(=NCc2ccccc2O)[nH]c(=NCc2cccnc2Oc2ccccc2)[nH]1

>  <score_type>  (6) 
oracle

>  <origin>  (6) 
adg

>  <m_score__min__energy>  (6) 
-9.1600000000000001

>  <m_primary>  (6) 
energy

$$$$
6:0
     RDKit          3D

 40 44  0  0  0  0  0  0  0  0999 V2000
   60.1565   26.3690   47.3131 H   0  0  0  0  0  0  0  0  0  0  0  0
   60.0390   27.4560   47.4340 C   0  0  0  0  0  0  0  0  0  0  0  0
   60.9830   28.2820   47.7820 N   0  0  0  0  0  0  0  0  0  0  0  0
   60.3990   29.5520   47.8630 N   0  0  0  0  0  0  0  0  0  0  0  0
   60.9160   30.7260   47.4650 C   0  0  0  0  0  0  0  0  0  0  0  0
   62.1810   31.0080   47.5210 N   0  0  0  0  0  0  0  0  0  0  0  0
   62.6820   32.2880   48.0080 C   0  0  0  0  0  0  0  0  0  0  0  0
   62.5910   32.0819   49.0847 H   0  0  0  0  0  0  0  0  0  0  0  0
   63.7510   32.9020   47.1240 C   0  0  0  0  0  0  0  0  0  0  0  0
   64.5595   33.4986   47.5716 H   0  0  0  0  0  0  0  0  0  0  0  0
   64.4532   32.5174   46.3697 H   0  0  0  0  0  0  0  0  0  0  0  0
   62.3290   33.4460   47.0950 C   0  0  0  0  0  0  0  0  0  0  0  0
   62.1097   34.4360   47.5215 H   0  0  0  0  0  0  0  0  0  0  0  0
   61.5771   33.6178   46.3107 H   0  0  0  0  0  0  0  0  0  0  0  0
   59.9790   31.5240   46.8900 N   0  0  0  0  0  0  0  0  0  0  0  0
   58.8770   30.7280   46.9330 C   0  0  0  0  0  0  0  0  0  0  0  0
   57.7560   30.9940   46.3300 N   0  0  0  0  0  0  0  0  0  0  0  0
   57.6140   31.3110   44.9370 C   0  0  0  0  0  0  0  0  0  0  0  0
   58.2910   32.4270   44.4300 C   0  0  0  0  0  0  0  0  0  0  0  0
   58.9033   33.0456   45.1026 H   0  0  0  0  0  0  0  0  0  0  0  0
   58.1950   32.7610   43.0770 C   0  0  0  0  0  0  0  0  0  0  0  0
   58.7179   33.6488   42.6917 H   0  0  0  0  0  0  0  0  0  0  0  0
   57.4340   31.9670   42.2110 C   0  0  0  0  0  0  0  0  0  0  0  0
   57.3360   32.3090   40.8160 C   0  0  0  0  0  0  0  0  0  0  0  0
   57.2580   32.5830   39.6940 N   0  0  0  0  0  0  0  0  0  0  0  0
   56.7820   30.8300   42.7020 C   0  0  0  0  0  0  0  0  0  0  0  0
   56.1932   30.1989   42.0201 H   0  0  0  0  0  0  0  0  0  0  0  0
   56.8760   30.4930   44.0560 C   0  0  0  0  0  0  0  0  0  0  0  0
   56.2960   29.3460   44.4910 F   0  0  0  0  0  0  0  0  0  0  0  0
   59.1350   29.5500   47.5350 N   0  0  0  0  0  0  0  0  0  0  0  0
   58.7850   28.2090   47.2270 C   0  0  0  0  0  0  0  0  0  0  0  0
   57.6130   27.7980   46.7310 C   0  0  0  0  0  0  0  0  0  0  0  0
   56.9877   28.5306   46.1998 H   0  0  0  0  0  0  0  0  0  0  0  0
   57.1140   26.4190   46.8570 C   0  0  0  0  0  0  0  0  0  0  0  0
   57.8880   25.3870   47.2350 N   0  0  0  0  0  0  0  0  0  0  0  0
   57.0620   24.3230   47.1430 C   0  0  0  0  0  0  0  0  0  0  0  0
   57.4270   23.1540   47.4330 O   0  0  0  0  0  0  0  0  0  0  0  0
   55.8160   24.6080   46.7060 N   0  0  0  0  0  0  0  0  0  0  0  0
   55.8670   25.9370   46.5170 C   0  0  0  0  0  0  0  0  0  0  0  0
   54.8140   26.6780   45.9970 O   0  0  0  0  0  0  0  0  0  0  0  0
  1  2  1  0
  2  3  2  0
  3  4  1  0
  4  5  1  0
  5  6  2  3
  6  7  1  0
  7  8  1  0
  7  9  1  0
  9 10  1  0
  9 11  1  0
  9 12  1  0
 12 13  1  0
 12 14  1  0
  5 15  1  0
 15 16  1  0
 16 17  2  0
 17 18  1  0
 18 19  2  0
 19 20  1  0
 19 21  1  0
 21 22  1  0
 21 23  2  0
 23 24  1  0
 24 25  3  0
 23 26  1  0
 26 27  1  0
 26 28  2  0
 28 29  1  0
 16 30  1  0
 30 31  1  0
 31 32  2  3
 32 33  1  0
 32 34  1  0
 34 35  1  0
 35 36  1  0
 36 37  2  0
 36 38  1  0
 38 39  1  0
 39 40  1  0
 31  2  1  0
 39 34  2  0
 30  4  1  0
 12  7  1  0
 28 18  1  0
M  CHG  4  15  -1  35  -1  38  -1  40  -1
M  END
>  <UniqueID>  (7) 
5

>  <SMILES>  (7) 
N#Cc1ccc(/N=c2\[n-]c(=NC3CC3)n3n2C(=Cc2[n-]c(=O)[n-]c2[O-])C=N3)c(F)c1

>  <Energy>  (7) 
443.9573998846289

>  <Genealogy>  (7) 
N#Cc1ccc(N=c2[n-]c(=NC3CC3)n3n2C(=Cc2[n-]c(=O)[n-]c2[O-])C=N3)c(F)c1 (protonated)
N#Cc1ccc(/N=c2\[n-]c(=NC3CC3)n3n2C(=Cc2[n-]c(=O)[n-]c2[O-])C=N3)c(F)c1 (cis-trans isomerization)
N#Cc1ccc(/N=c2\[n-]c(=NC3CC3)n3n2C(=Cc2[n-]c(=O)[n-]c2[O-])C=N3)c(F)c1 (3D coordinates assigned)
N#Cc1ccc(/N=c2\[n-]c(=NC3CC3)n3n2C(=Cc2[n-]c(=O)[n-]c2[O-])C=N3)c(F)c1 (nonaromatic ring conformer: 443.9573998846289 kcal/mol)

>  <smiles>  (7) 
N#Cc1ccc(N=c2[nH]c(=NC3CC3)n3n2C(=Cc2[nH]c(=O)[nH]c2O)C=N3)c(F)c1

>  <score_type>  (7) 
oracle

>  <origin>  (7) 
adg

>  <m_score__min__energy>  (7) 
-16.710000000000001

>  <m_primary>  (7) 
energy

$$$$
7:0
     RDKit          3D

 38 40  0  0  0  0  0  0  0  0999 V2000
   59.6560   34.8375   49.5040 H   0  0  0  0  0  0  0  0  0  0  0  0
   60.0960   34.5390   48.5410 C   0  0  0  0  0  0  0  0  0  0  0  0
   59.3280   34.5130   47.4210 N   0  0  0  0  0  0  0  0  0  0  0  0
   59.8510   34.1470   46.2170 C   0  0  0  0  0  0  0  0  0  0  0  0
   59.1170   34.1310   45.1470 N   0  0  0  0  0  0  0  0  0  0  0  0
   57.9850   32.8700   44.7740 S   0  0  0  0  0  0  0  0  0  0  0  0
   56.6290   33.2490   45.3010 O   0  0  0  0  0  0  0  0  0  0  0  0
   57.9020   32.7110   43.2810 O   0  0  0  0  0  0  0  0  0  0  0  0
   58.4940   31.3650   45.5330 C   0  0  0  0  0  0  0  0  0  0  0  0
   58.6700   31.3110   46.9210 C   0  0  0  0  0  0  0  0  0  0  0  0
   58.4823   32.2062   47.5321 H   0  0  0  0  0  0  0  0  0  0  0  0
   59.0830   30.1250   47.5330 C   0  0  0  0  0  0  0  0  0  0  0  0
   59.2336   30.0936   48.6222 H   0  0  0  0  0  0  0  0  0  0  0  0
   59.3070   28.9700   46.7600 C   0  0  0  0  0  0  0  0  0  0  0  0
   59.7510   27.7430   47.3540 N   0  0  0  0  0  0  0  0  0  0  0  0
   59.5900   26.4290   46.7990 C   0  0  0  0  0  0  0  0  0  0  0  0
   60.5880   25.8760   46.2650 O   0  0  0  0  0  0  0  0  0  0  0  0
   58.2740   25.7510   46.7720 C   0  0  0  0  0  0  0  0  0  0  0  0
   58.1700   24.4560   47.1770 N   0  0  0  0  0  0  0  0  0  0  0  0
   56.9760   23.8080   47.1750 C   0  0  0  0  0  0  0  0  0  0  0  0
   56.9130   22.6080   47.5460 O   0  0  0  0  0  0  0  0  0  0  0  0
   55.8510   24.4540   46.7720 N   0  0  0  0  0  0  0  0  0  0  0  0
   55.9010   25.7500   46.3670 C   0  0  0  0  0  0  0  0  0  0  0  0
   54.8480   26.3300   45.9960 O   0  0  0  0  0  0  0  0  0  0  0  0
   57.1200   26.4330   46.3600 C   0  0  0  0  0  0  0  0  0  0  0  0
   57.1733   27.4835   46.0381 H   0  0  0  0  0  0  0  0  0  0  0  0
   59.1530   29.0350   45.3700 C   0  0  0  0  0  0  0  0  0  0  0  0
   59.3583   28.1463   44.7551 H   0  0  0  0  0  0  0  0  0  0  0  0
   58.7400   30.2220   44.7590 C   0  0  0  0  0  0  0  0  0  0  0  0
   58.6075   30.2598   43.6677 H   0  0  0  0  0  0  0  0  0  0  0  0
   61.1630   33.8020   46.1310 N   0  0  0  0  0  0  0  0  0  0  0  0
   61.9690   33.8120   47.2280 C   0  0  0  0  0  0  0  0  0  0  0  0
   63.4090   33.4280   47.1010 C   0  0  0  0  0  0  0  0  0  0  0  0
   63.8471   33.3112   48.1032 H   0  0  0  0  0  0  0  0  0  0  0  0
   63.4880   32.4774   46.5532 H   0  0  0  0  0  0  0  0  0  0  0  0
   63.9509   34.2130   46.5532 H   0  0  0  0  0  0  0  0  0  0  0  0
   61.4420   34.1870   48.4680 C   0  0  0  0  0  0  0  0  0  0  0  0
   62.0766   34.2037   49.3663 H   0  0  0  0  0  0  0  0  0  0  0  0
  1  2  1  0
  2  3  1  0
  3  4  1  0
  4  5  2  0
  5  6  1  0
  6  7  2  0
  6  8  2  0
  6  9  1  0
  9 10  2  0
 10 11  1  0
 10 12  1  0
 12 13  1  0
 12 14  2  0
 14 15  1  0
 15 16  1  0
 16 17  2  0
 16 18  1  0
 18 19  1  0
 19 20  1  0
 20 21  2  0
 20 22  1  0
 22 23  1  0
 23 24  2  0
 23 25  1  0
 25 26  1  0
 14 27  1  0
 27 28  1  0
 27 29  2  0
 29 30  1  0
  4 31  1  0
 31 32  2  0
 32 33  1  0
 33 34  1  0
 33 35  1  0
 33 36  1  0
 32 37  1  0
 37 38  1  0
 37  2  2  0
 29  9  1  0
 25 18  2  0
M  CHG  4   3  -1  15  -1  19  -1  22  -1
M  END
>  <UniqueID>  (8) 
6

>  <SMILES>  (8) 
Cc1cc[n-]/c(=N\S(=O)(=O)c2ccc([N-]C(=O)c3cc(=O)[n-]c(=O)[n-]3)cc2)n1

>  <Energy>  (8) 
50.33123585911936

>  <Genealogy>  (8) 
Cc1cc[n-]c(=NS(=O)(=O)c2ccc([N-]C(=O)c3cc(=O)[n-]c(=O)[n-]3)cc2)n1 (protonated)
Cc1cc[n-]/c(=N\S(=O)(=O)c2ccc([N-]C(=O)c3cc(=O)[n-]c(=O)[n-]3)cc2)n1 (cis-trans isomerization)
Cc1cc[n-]/c(=N\S(=O)(=O)c2ccc([N-]C(=O)c3cc(=O)[n-]c(=O)[n-]3)cc2)n1 (3D coordinates assigned)
Cc1cc[n-]/c(=N\S(=O)(=O)c2ccc([N-]C(=O)c3cc(=O)[n-]c(=O)[n-]3)cc2)n1 (optimized conformer: 50.33123585911936 kcal/mol)

>  <smiles>  (8) 
Cc1cc[nH]c(=NS(=O)(=O)c2ccc(NC(=O)c3cc(=O)[nH]c(=O)[nH]3)cc2)n1

>  <score_type>  (8) 
oracle

>  <origin>  (8) 
adg

>  <m_score__min__energy>  (8) 
-14.58

>  <m_primary>  (8) 
energy

$$$$
8:0
     RDKit          3D

 54 56  0  0  1  0  0  0  0  0999 V2000
   57.7880   33.7400   46.4810 C   0  0  0  0  0  0  0  0  0  0  0  0
   57.6610   33.4410   45.0690 N   0  0  0  0  0  0  0  0  0  0  0  0
   58.9010   33.7020   44.4100 C   0  0  0  0  0  0  0  0  0  0  0  0
   57.1350   32.1160   44.8430 C   0  0  0  0  0  0  0  0  0  0  0  0
   57.5870   31.5710   43.5040 C   0  0  0  0  0  0  0  0  0  0  0  0
   56.6390   30.4420   43.0780 C   0  0  0  0  0  0  0  0  0  0  0  0
   56.4020   29.5750   44.2210 C   0  0  0  0  0  0  0  0  0  0  0  0
   55.1700   29.5080   44.6270 O   0  0  0  0  0  0  0  0  0  0  0  0
   57.2920   28.7960   44.9620 N   0  0  0  0  0  0  0  0  0  0  0  0
   58.5490   28.8500   44.9880 C   0  0  0  0  0  0  0  0  0  0  0  0
   59.4240   28.2230   44.2000 N   0  0  0  0  0  0  0  0  0  0  0  0
   60.6320   28.5720   44.5800 N   0  0  0  0  0  0  0  0  0  0  0  0
   60.5970   29.4290   45.6150 C   0  0  0  0  0  0  0  0  0  0  0  0
   61.5720   30.0880   46.3730 C   0  0  0  0  0  0  0  0  0  0  0  0
   61.1900   30.9230   47.3940 C   0  0  0  0  0  0  0  0  0  0  0  0
   62.1110   31.6580   48.2370 C   0  0  0  0  0  0  0  0  0  0  0  0
   62.9020   32.7000   47.7860 C   0  0  0  0  0  0  0  0  0  0  0  0
   63.7760   33.3820   48.6350 C   0  0  0  0  0  0  0  0  0  0  0  0
   63.8520   33.0070   49.9600 C   0  0  0  0  0  0  0  0  0  0  0  0
   64.7280   33.6800   50.8540 N   0  0  0  0  0  0  0  0  0  0  0  0
   66.1630   33.4030   50.7760 C   0  0  0  0  0  0  0  0  0  0  0  0
   64.2330   34.6230   51.8260 C   0  0  0  0  0  0  0  0  0  0  0  0
   63.0780   31.9730   50.4430 C   0  0  0  0  0  0  0  0  0  0  0  0
   62.2220   31.3120   49.5880 C   0  0  0  0  0  0  0  0  0  0  0  0
   59.8340   31.0960   47.6510 C   0  0  0  0  0  0  0  0  0  0  0  0
   58.8540   30.4580   46.9170 C   0  0  0  0  0  0  0  0  0  0  0  0
   59.2630   29.6290   45.9030 C   0  0  0  0  0  0  0  0  0  0  0  0
   57.4250   32.8854   47.0709 H   0  0  0  0  0  0  0  0  0  0  0  0
   58.8444   33.9297   46.7221 H   0  0  0  0  0  0  0  0  0  0  0  0
   57.1910   34.6319   46.7221 H   0  0  0  0  0  0  0  0  0  0  0  0
   59.6876   33.8676   45.1609 H   0  0  0  0  0  0  0  0  0  0  0  0
   59.1702   32.8408   43.7808 H   0  0  0  0  0  0  0  0  0  0  0  0
   58.8002   34.5986   43.7808 H   0  0  0  0  0  0  0  0  0  0  0  0
   57.4899   31.4476   45.6413 H   0  0  0  0  0  0  0  0  0  0  0  0
   56.0364   32.1712   44.8449 H   0  0  0  0  0  0  0  0  0  0  0  0
   57.5651   32.3741   42.7526 H   0  0  0  0  0  0  0  0  0  0  0  0
   58.6128   31.1829   43.5880 H   0  0  0  0  0  0  0  0  0  0  0  0
   55.6857   30.8694   42.7339 H   0  0  0  0  0  0  0  0  0  0  0  0
   57.0893   29.8647   42.2571 H   0  0  0  0  0  0  0  0  0  0  0  0
   59.1440   27.5840   43.4380 H   0  0  0  0  0  0  0  0  0  0  0  0
   61.4930   28.2140   44.1170 H   0  0  0  0  0  0  0  0  0  0  0  0
   62.6390   29.9377   46.1518 H   0  0  0  0  0  0  0  0  0  0  0  0
   62.8406   32.9994   46.7293 H   0  0  0  0  0  0  0  0  0  0  0  0
   64.3952   34.2068   48.2524 H   0  0  0  0  0  0  0  0  0  0  0  0
   66.5768   33.3231   51.7921 H   0  0  0  0  0  0  0  0  0  0  0  0
   66.3252   32.4570   50.2387 H   0  0  0  0  0  0  0  0  0  0  0  0
   66.6656   34.2207   50.2387 H   0  0  0  0  0  0  0  0  0  0  0  0
   64.4321   34.2438   52.8392 H   0  0  0  0  0  0  0  0  0  0  0  0
   64.7399   35.5897   51.6902 H   0  0  0  0  0  0  0  0  0  0  0  0
   63.1494   34.7549   51.6902 H   0  0  0  0  0  0  0  0  0  0  0  0
   63.1430   31.6783   51.5008 H   0  0  0  0  0  0  0  0  0  0  0  0
   61.6079   30.4878   49.9798 H   0  0  0  0  0  0  0  0  0  0  0  0
   59.5312   31.7659   48.4693 H   0  0  0  0  0  0  0  0  0  0  0  0
   57.7867   30.6084   47.1366 H   0  0  0  0  0  0  0  0  0  0  0  0
  1  2  1  0
  2  3  1  0
  2  4  1  0
  4  5  1  0
  5  6  1  0
  6  7  1  0
  7  8  2  0
  7  9  1  0
  9 10  2  0
 10 11  1  0
 11 12  1  0
 12 13  1  0
 13 14  2  0
 14 15  1  0
 15 16  1  0
 16 17  2  0
 17 18  1  0
 18 19  2  0
 19 20  1  0
 20 21  1  0
 20 22  1  0
 19 23  1  0
 23 24  2  0
 15 25  2  0
 25 26  1  0
 26 27  2  0
 27 10  1  0
 27 13  1  0
 24 16  1  0
  1 28  1  0
  1 29  1  0
  1 30  1  0
  3 31  1  0
  3 32  1  0
  3 33  1  0
  4 34  1  0
  4 35  1  0
  5 36  1  0
  5 37  1  0
  6 38  1  0
  6 39  1  0
 11 40  1  0
 12 41  1  0
 14 42  1  0
 17 43  1  0
 18 44  1  0
 21 45  1  0
 21 46  1  0
 21 47  1  0
 22 48  1  0
 22 49  1  0
 22 50  1  0
 23 51  1  0
 24 52  1  0
 25 53  1  0
 26 54  1  0
M  END
>  <smiles>  (9) 
CN(C)CCCC(=O)N=c1[nH][nH]c2cc(-c3ccc(N(C)C)cc3)ccc12

>  <score_type>  (9) 
oracle

>  <origin>  (9) 
adg

>  <m_score__min__energy>  (9) 
-8.1099999999999994

>  <m_primary>  (9) 
energy

$$$$
9:0
     RDKit          3D

 36 37  0  0  0  0  0  0  0  0999 V2000
   60.2690   28.9610   44.8570 C   0  0  0  0  0  0  0  0  0  0  0  0
   58.8690   28.5220   45.0060 N   0  0  1  0  0  0  0  0  0  0  0  0
   58.0790   28.7410   43.7710 C   0  0  0  0  0  0  0  0  0  0  0  0
   57.0680   29.8630   43.8890 C   0  0  0  0  0  0  0  0  0  0  0  0
   56.3980   30.1890   42.8740 O   0  0  0  0  0  0  0  0  0  0  0  0
   56.9250   30.6370   45.0860 N   0  0  0  0  0  0  0  0  0  0  0  0
   57.6210   31.8540   45.3870 C   0  0  0  0  0  0  0  0  0  0  0  0
   57.3940   33.0150   44.6280 C   0  0  0  0  0  0  0  0  0  0  0  0
   58.0980   34.1890   44.9050 C   0  0  0  0  0  0  0  0  0  0  0  0
   59.0480   34.2100   45.9270 C   0  0  0  0  0  0  0  0  0  0  0  0
   59.3030   33.0550   46.6700 C   0  0  0  0  0  0  0  0  0  0  0  0
   58.6010   31.8730   46.3980 C   0  0  0  0  0  0  0  0  0  0  0  0
   58.8790   30.6910   47.1750 C   0  0  0  0  0  0  0  0  0  0  0  0
   59.1030   29.7420   47.7990 N   0  0  0  0  0  0  0  0  0  0  0  0
   58.7910   27.1420   45.4560 C   0  0  0  0  0  0  0  0  0  0  0  0
   59.8500   26.5270   45.7670 O   0  0  0  0  0  0  0  0  0  0  0  0
   57.4940   26.4110   45.5390 C   0  0  0  0  0  0  0  0  0  0  0  0
   57.4370   25.0470   45.2010 C   0  0  0  0  0  0  0  0  0  0  0  0
   56.2290   24.3500   45.2720 C   0  0  0  0  0  0  0  0  0  0  0  0
   55.0760   25.0240   45.6770 C   0  0  0  0  0  0  0  0  0  0  0  0
   53.9780   24.4120   45.7470 O   0  0  0  0  0  0  0  0  0  0  0  0
   55.1370   26.3420   45.9950 N   0  0  0  0  0  0  0  0  0  0  0  0
   56.3010   27.0430   45.9370 C   0  0  0  0  0  0  0  0  0  0  0  0
   60.7171   29.1015   45.8517 H   0  0  0  0  0  0  0  0  0  0  0  0
   60.8358   28.1975   44.3041 H   0  0  0  0  0  0  0  0  0  0  0  0
   60.2984   29.9115   44.3041 H   0  0  0  0  0  0  0  0  0  0  0  0
   58.4670   29.1390   45.7490 H   0  0  0  0  0  0  0  0  0  0  0  0
   58.7730   28.9828   42.9525 H   0  0  0  0  0  0  0  0  0  0  0  0
   57.5142   27.8164   43.5811 H   0  0  0  0  0  0  0  0  0  0  0  0
   56.6576   32.9989   43.8110 H   0  0  0  0  0  0  0  0  0  0  0  0
   57.9034   35.0980   44.3170 H   0  0  0  0  0  0  0  0  0  0  0  0
   59.5968   35.1374   46.1478 H   0  0  0  0  0  0  0  0  0  0  0  0
   60.0569   33.0733   47.4708 H   0  0  0  0  0  0  0  0  0  0  0  0
   58.3503   24.5256   44.8785 H   0  0  0  0  0  0  0  0  0  0  0  0
   56.1867   23.2821   45.0117 H   0  0  0  0  0  0  0  0  0  0  0  0
   56.3102   28.1104   46.2027 H   0  0  0  0  0  0  0  0  0  0  0  0
  1  2  1  0
  2  3  1  0
  3  4  1  0
  4  5  2  0
  4  6  1  0
  6  7  1  0
  7  8  2  0
  8  9  1  0
  9 10  2  0
 10 11  1  0
 11 12  2  0
 12 13  1  0
 13 14  3  0
  2 15  1  0
 15 16  2  0
 15 17  1  0
 17 18  1  0
 18 19  2  0
 19 20  1  0
 20 21  2  0
 20 22  1  0
 22 23  1  0
 12  7  1  0
 23 17  2  0
  1 24  1  0
  1 25  1  0
  1 26  1  0
  2 27  1  1
  3 28  1  0
  3 29  1  0
  8 30  1  0
  9 31  1  0
 10 32  1  0
 11 33  1  0
 18 34  1  0
 19 35  1  0
 23 36  1  0
M  CHG  3   2   1   6  -1  22  -1
M  END
>  <UniqueID>  (10) 
7

>  <SMILES>  (10) 
C[N@@H+](CC(=O)[N-]c1ccccc1C#N)C(=O)c1ccc(=O)[n-]c1

>  <Energy>  (10) 
49.265709761670365

>  <Genealogy>  (10) 
C[NH+](CC(=O)[N-]c1ccccc1C#N)C(=O)c1ccc(=O)[n-]c1 (protonated)
C[N@@H+](CC(=O)[N-]c1ccccc1C#N)C(=O)c1ccc(=O)[n-]c1 (chirality)
C[N@@H+](CC(=O)[N-]c1ccccc1C#N)C(=O)c1ccc(=O)[n-]c1 (3D coordinates assigned)
C[N@@H+](CC(=O)[N-]c1ccccc1C#N)C(=O)c1ccc(=O)[n-]c1 (optimized conformer: 49.265709761670365 kcal/mol)

>  <smiles>  (10) 
CN(CC(=O)Nc1ccccc1C#N)C(=O)c1ccc(=O)[nH]c1

>  <score_type>  (10) 
oracle

>  <origin>  (10) 
adg

>  <m_score__min__energy>  (10) 
-9.9199999999999999

>  <m_primary>  (10) 
energy

$$$$
10:0
     RDKit          3D

 45 47  0  0  0  0  0  0  0  0999 V2000
   52.1240   31.5910   51.0920 C   0  0  0  0  0  0  0  0  0  0  0  0
   53.1650   30.7700   51.2620 C   0  0  0  0  0  0  0  0  0  0  0  0
   53.7490   30.5080   52.6220 C   0  0  0  0  0  0  0  0  0  0  0  0
   55.0900   29.2700   52.5420 S   0  0  0  0  0  0  0  0  0  0  0  0
   56.3600   30.4540   52.0960 C   0  0  0  0  0  0  0  0  0  0  0  0
   56.3490   31.7410   52.6300 C   0  0  0  0  0  0  0  0  0  0  0  0
   57.3460   32.6400   52.2590 C   0  0  0  0  0  0  0  0  0  0  0  0
   58.3400   32.2310   51.3490 C   0  0  0  0  0  0  0  0  0  0  0  0
   59.3030   33.0160   50.9560 N   0  0  0  0  0  0  0  0  0  0  0  0
   60.2540   32.7610   49.9110 C   0  0  0  0  0  0  0  0  0  0  0  0
   61.4720   32.6600   50.2180 O   0  0  0  0  0  0  0  0  0  0  0  0
   59.8310   32.5370   48.5060 C   0  0  0  0  0  0  0  0  0  0  0  0
   60.3590   31.4720   47.7560 C   0  0  0  0  0  0  0  0  0  0  0  0
   59.9500   31.2600   46.4360 C   0  0  0  0  0  0  0  0  0  0  0  0
   59.0130   32.1210   45.8380 C   0  0  0  0  0  0  0  0  0  0  0  0
   58.5660   31.9420   44.4860 N   0  0  0  0  0  0  0  0  0  0  0  0
   57.1910   31.0010   44.0060 S   0  0  0  0  0  0  0  0  0  0  0  0
   55.9280   31.6410   44.5120 O   0  0  0  0  0  0  0  0  0  0  0  0
   57.1380   30.9120   42.5070 O   0  0  0  0  0  0  0  0  0  0  0  0
   57.3390   29.3910   44.6990 C   0  0  0  0  0  0  0  0  0  0  0  0
   58.6000   28.8150   44.9090 C   0  0  0  0  0  0  0  0  0  0  0  0
   58.7040   27.5380   45.4710 C   0  0  0  0  0  0  0  0  0  0  0  0
   57.5510   26.8340   45.8290 C   0  0  0  0  0  0  0  0  0  0  0  0
   56.2900   27.4070   45.6280 C   0  0  0  0  0  0  0  0  0  0  0  0
   55.1450   26.7080   45.9890 O   0  0  0  0  0  0  0  0  0  0  0  0
   56.1850   28.6830   45.0660 C   0  0  0  0  0  0  0  0  0  0  0  0
   58.4980   33.1900   46.5780 C   0  0  0  0  0  0  0  0  0  0  0  0
   58.9030   33.4010   47.8990 C   0  0  0  0  0  0  0  0  0  0  0  0
   58.3070   30.9540   50.8830 N   0  0  0  0  0  0  0  0  0  0  0  0
   57.3510   30.0950   51.2410 N   0  0  0  0  0  0  0  0  0  0  0  0
   51.7182   31.7632   50.0842 H   0  0  0  0  0  0  0  0  0  0  0  0
   51.6731   32.0944   51.9599 H   0  0  0  0  0  0  0  0  0  0  0  0
   53.6053   30.2737   50.3847 H   0  0  0  0  0  0  0  0  0  0  0  0
   54.1530   31.4482   53.0255 H   0  0  0  0  0  0  0  0  0  0  0  0
   52.9528   30.1156   53.2717 H   0  0  0  0  0  0  0  0  0  0  0  0
   55.5619   32.0435   53.3364 H   0  0  0  0  0  0  0  0  0  0  0  0
   57.3569   33.6592   52.6726 H   0  0  0  0  0  0  0  0  0  0  0  0
   61.1006   30.7994   48.2116 H   0  0  0  0  0  0  0  0  0  0  0  0
   60.3628   30.4165   45.8632 H   0  0  0  0  0  0  0  0  0  0  0  0
   59.5093   29.3682   44.6313 H   0  0  0  0  0  0  0  0  0  0  0  0
   59.6946   27.0875   45.6313 H   0  0  0  0  0  0  0  0  0  0  0  0
   57.6346   25.8293   46.2689 H   0  0  0  0  0  0  0  0  0  0  0  0
   55.1935   29.1334   44.9111 H   0  0  0  0  0  0  0  0  0  0  0  0
   57.7677   33.8708   46.1164 H   0  0  0  0  0  0  0  0  0  0  0  0
   58.4929   34.2488   48.4674 H   0  0  0  0  0  0  0  0  0  0  0  0
  1  2  2  0
  2  3  1  0
  3  4  1  0
  4  5  1  0
  5  6  1  0
  6  7  2  0
  7  8  1  0
  8  9  2  3
  9 10  1  0
 10 11  2  0
 10 12  1  0
 12 13  2  0
 13 14  1  0
 14 15  2  0
 15 16  1  0
 16 17  1  0
 17 18  2  0
 17 19  2  0
 17 20  1  0
 20 21  2  0
 21 22  1  0
 22 23  2  0
 23 24  1  0
 24 25  1  0
 24 26  2  0
 15 27  1  0
 27 28  2  0
  8 29  1  0
 29 30  1  0
 30  5  2  0
 28 12  1  0
 26 20  1  0
  1 31  1  0
  1 32  1  0
  2 33  1  0
  3 34  1  0
  3 35  1  0
  6 36  1  0
  7 37  1  0
 13 38  1  0
 14 39  1  0
 21 40  1  0
 22 41  1  0
 23 42  1  0
 26 43  1  0
 27 44  1  0
 28 45  1  0
M  CHG  3  16  -1  25  -1  29  -1
M  END
>  <UniqueID>  (11) 
8

>  <SMILES>  (11) 
C=CCSc1ccc(=NC(=O)c2ccc([N-]S(=O)(=O)c3cccc([O-])c3)cc2)[n-]n1

>  <Energy>  (11) 
56.758504015119755

>  <Genealogy>  (11) 
C=CCSc1ccc(=NC(=O)c2ccc([N-]S(=O)(=O)c3cccc([O-])c3)cc2)[n-]n1 (protonated)
C=CCSc1ccc(=NC(=O)c2ccc([N-]S(=O)(=O)c3cccc([O-])c3)cc2)[n-]n1 (3D coordinates assigned)
C=CCSc1ccc(=NC(=O)c2ccc([N-]S(=O)(=O)c3cccc([O-])c3)cc2)[n-]n1 (optimized conformer: 56.758504015119755 kcal/mol)

>  <smiles>  (11) 
C=CCSc1ccc(=NC(=O)c2ccc(NS(=O)(=O)c3cccc(O)c3)cc2)[nH]n1

>  <score_type>  (11) 
oracle

>  <origin>  (11) 
adg

>  <m_score__min__energy>  (11) 
-14.359999999999999

>  <m_primary>  (11) 
energy

$$$$
11:0
     RDKit          3D

 49 51  0  0  0  0  0  0  0  0999 V2000
   59.5240   35.1180   45.1650 C   0  0  0  0  0  0  0  0  0  0  0  0
   59.0530   34.3090   46.3270 C   0  0  0  0  0  0  0  0  0  0  0  0
   59.6320   34.2870   47.5010 O   0  0  0  0  0  0  0  0  0  0  0  0
   58.9380   33.4650   48.2600 C   0  0  0  0  0  0  0  0  0  0  0  0
   59.2820   33.1680   49.6680 C   0  0  0  0  0  0  0  0  0  0  0  0
   58.4660   32.2970   50.4120 C   0  0  0  0  0  0  0  0  0  0  0  0
   58.7720   32.0030   51.7440 C   0  0  0  0  0  0  0  0  0  0  0  0
   59.8930   32.5740   52.3480 C   0  0  0  0  0  0  0  0  0  0  0  0
   60.7120   33.4400   51.6220 C   0  0  0  0  0  0  0  0  0  0  0  0
   60.4130   33.7410   50.2880 C   0  0  0  0  0  0  0  0  0  0  0  0
   61.2320   34.5880   49.6130 F   0  0  0  0  0  0  0  0  0  0  0  0
   57.8840   32.9240   47.6070 N   0  0  0  0  0  0  0  0  0  0  0  0
   57.9570   33.4730   46.3800 C   0  0  0  0  0  0  0  0  0  0  0  0
   57.0240   33.1360   45.2610 C   0  0  0  0  0  0  0  0  0  0  0  0
   57.2060   31.4200   44.7990 S   0  0  0  0  0  0  0  0  0  0  0  0
   58.0820   31.3170   43.5820 O   0  0  0  0  0  0  0  0  0  0  0  0
   55.8540   30.8460   44.4780 O   0  0  0  0  0  0  0  0  0  0  0  0
   57.9040   30.5050   46.1020 N   0  0  0  0  0  0  0  0  0  0  0  0
   59.2520   30.0630   45.7410 C   0  0  0  0  0  0  0  0  0  0  0  0
   60.2050   30.4130   46.8430 C   0  0  0  0  0  0  0  0  0  0  0  0
   61.2080   31.3610   46.7700 C   0  0  0  0  0  0  0  0  0  0  0  0
   61.8010   31.3930   48.0190 C   0  0  0  0  0  0  0  0  0  0  0  0
   62.9430   32.2830   48.4000 C   0  0  0  0  0  0  0  0  0  0  0  0
   61.2100   30.4960   48.8430 N   0  0  0  0  0  0  0  0  0  0  0  0
   61.5220   30.2730   50.2550 C   0  0  0  0  0  0  0  0  0  0  0  0
   60.2070   29.9210   48.1410 C   0  0  0  0  0  0  0  0  0  0  0  0
   59.2790   28.8750   48.6860 C   0  0  0  0  0  0  0  0  0  0  0  0
   60.0461   36.0147   45.5301 H   0  0  0  0  0  0  0  0  0  0  0  0
   60.2127   34.5159   44.5542 H   0  0  0  0  0  0  0  0  0  0  0  0
   58.6604   35.4197   44.5542 H   0  0  0  0  0  0  0  0  0  0  0  0
   57.5805   31.8438   49.9424 H   0  0  0  0  0  0  0  0  0  0  0  0
   58.1278   31.3201   52.3172 H   0  0  0  0  0  0  0  0  0  0  0  0
   60.1311   32.3415   53.3964 H   0  0  0  0  0  0  0  0  0  0  0  0
   61.5958   33.8877   52.0999 H   0  0  0  0  0  0  0  0  0  0  0  0
   55.9884   33.3169   45.5848 H   0  0  0  0  0  0  0  0  0  0  0  0
   57.2628   33.7680   44.3929 H   0  0  0  0  0  0  0  0  0  0  0  0
   57.9800   31.1510   46.9230 H   0  0  0  0  0  0  0  0  0  0  0  0
   59.2520   28.9736   45.5886 H   0  0  0  0  0  0  0  0  0  0  0  0
   59.5654   30.5634   44.8129 H   0  0  0  0  0  0  0  0  0  0  0  0
   61.4801   31.9683   45.8941 H   0  0  0  0  0  0  0  0  0  0  0  0
   63.0145   32.3387   49.4963 H   0  0  0  0  0  0  0  0  0  0  0  0
   63.8789   31.8737   47.9918 H   0  0  0  0  0  0  0  0  0  0  0  0
   62.7747   33.2905   47.9918 H   0  0  0  0  0  0  0  0  0  0  0  0
   60.7859   30.7991   50.8807 H   0  0  0  0  0  0  0  0  0  0  0  0
   61.4850   29.1954   50.4729 H   0  0  0  0  0  0  0  0  0  0  0  0
   62.5296   30.6568   50.4729 H   0  0  0  0  0  0  0  0  0  0  0  0
   59.3022   28.9012   49.7854 H   0  0  0  0  0  0  0  0  0  0  0  0
   58.2555   29.0746   48.3360 H   0  0  0  0  0  0  0  0  0  0  0  0
   59.5991   27.8825   48.3360 H   0  0  0  0  0  0  0  0  0  0  0  0
  1  2  1  0
  2  3  1  0
  3  4  1  0
  4  5  1  0
  5  6  2  0
  6  7  1  0
  7  8  2  0
  8  9  1  0
  9 10  2  0
 10 11  1  0
  4 12  2  0
 12 13  1  0
 13 14  1  0
 14 15  1  0
 15 16  2  0
 15 17  2  0
 15 18  1  0
 18 19  1  0
 19 20  1  0
 20 21  1  0
 21 22  2  0
 22 23  1  0
 22 24  1  0
 24 25  1  0
 24 26  1  0
 26 27  1  0
 13  2  2  0
 26 20  2  0
 10  5  1  0
  1 28  1  0
  1 29  1  0
  1 30  1  0
  6 31  1  0
  7 32  1  0
  8 33  1  0
  9 34  1  0
 14 35  1  0
 14 36  1  0
 18 37  1  0
 19 38  1  0
 19 39  1  0
 21 40  1  0
 23 41  1  0
 23 42  1  0
 23 43  1  0
 25 44  1  0
 25 45  1  0
 25 46  1  0
 27 47  1  0
 27 48  1  0
 27 49  1  0
M  END
>  <UniqueID>  (12) 
9

>  <SMILES>  (12) 
Cc1oc(-c2ccccc2F)nc1CS(=O)(=O)NCc1cc(C)n(C)c1C

>  <Energy>  (12) 
95.40514026762203

>  <Genealogy>  (12) 
Cc1oc(-c2ccccc2F)nc1CS(=O)(=O)NCc1cc(C)n(C)c1C (3D coordinates assigned)
Cc1oc(-c2ccccc2F)nc1CS(=O)(=O)NCc1cc(C)n(C)c1C (optimized conformer: 95.40514026762203 kcal/mol)

>  <smiles>  (12) 
Cc1oc(-c2ccccc2F)nc1CS(=O)(=O)NCc1cc(C)n(C)c1C

>  <score_type>  (12) 
oracle

>  <origin>  (12) 
adg

>  <m_score__min__energy>  (12) 
-8.1500000000000004

>  <m_primary>  (12) 
energy

$$$$
12:0
     RDKit          3D

 45 48  0  0  0  0  0  0  0  0999 V2000
   55.9311   29.0031   42.2451 H   0  0  0  0  0  0  0  0  0  0  0  0
   56.4440   29.7740   42.8390 C   0  0  0  0  0  0  0  0  0  0  0  0
   56.8720   30.9170   42.2440 N   0  0  0  0  0  0  0  0  0  0  0  0
   57.5070   31.8950   42.9420 C   0  0  0  0  0  0  0  0  0  0  0  0
   57.8403   32.8066   42.4245 H   0  0  0  0  0  0  0  0  0  0  0  0
   57.7410   31.7500   44.3210 C   0  0  0  0  0  0  0  0  0  0  0  0
   58.4540   32.8170   45.0740 C   0  0  0  0  0  0  0  0  0  0  0  0
   58.9540   32.5370   46.3090 N   0  0  0  0  0  0  0  0  0  0  0  0
   59.5940   33.4800   47.0550 C   0  0  0  0  0  0  0  0  0  0  0  0
   60.0370   33.2030   48.2470 N   0  0  0  0  0  0  0  0  0  0  0  0
   60.8960   32.0650   48.5800 C   0  0  0  0  0  0  0  0  0  0  0  0
   60.9945   31.9964   49.6734 H   0  0  0  0  0  0  0  0  0  0  0  0
   61.8800   32.2203   48.1136 H   0  0  0  0  0  0  0  0  0  0  0  0
   60.3140   30.7780   48.0560 C   0  0  0  0  0  0  0  0  0  0  0  0
   59.3310   30.0930   48.7850 C   0  0  0  0  0  0  0  0  0  0  0  0
   58.9309   30.5339   49.7099 H   0  0  0  0  0  0  0  0  0  0  0  0
   58.8570   28.8570   48.3460 C   0  0  0  0  0  0  0  0  0  0  0  0
   58.0901   28.3273   48.9302 H   0  0  0  0  0  0  0  0  0  0  0  0
   59.3530   28.2830   47.1610 C   0  0  0  0  0  0  0  0  0  0  0  0
   58.8930   26.9440   46.7200 C   0  0  0  0  0  0  0  0  0  0  0  0
   59.6770   26.1810   46.0940 O   0  0  0  0  0  0  0  0  0  0  0  0
   57.5380   26.5190   46.9290 N   0  0  0  0  0  0  0  0  0  0  0  0
   56.9210   25.5080   46.3800 C   0  0  0  0  0  0  0  0  0  0  0  0
   57.5980   24.3300   46.2850 N   0  0  0  0  0  0  0  0  0  0  0  0
   57.0580   23.2190   45.7190 C   0  0  0  0  0  0  0  0  0  0  0  0
   57.6469   22.2919   45.6590 H   0  0  0  0  0  0  0  0  0  0  0  0
   55.7610   23.2520   45.2150 C   0  0  0  0  0  0  0  0  0  0  0  0
   55.3229   22.3580   44.7472 H   0  0  0  0  0  0  0  0  0  0  0  0
   55.0240   24.4310   45.3100 C   0  0  0  0  0  0  0  0  0  0  0  0
   53.9949   24.4668   44.9232 H   0  0  0  0  0  0  0  0  0  0  0  0
   55.5880   25.5680   45.8950 C   0  0  0  0  0  0  0  0  0  0  0  0
   54.8030   26.7110   46.0070 O   0  0  0  0  0  0  0  0  0  0  0  0
   60.3110   28.9890   46.4120 C   0  0  0  0  0  0  0  0  0  0  0  0
   60.6862   28.5663   45.4683 H   0  0  0  0  0  0  0  0  0  0  0  0
   60.7900   30.2240   46.8580 C   0  0  0  0  0  0  0  0  0  0  0  0
   61.5440   30.7644   46.2668 H   0  0  0  0  0  0  0  0  0  0  0  0
   59.7580   34.7320   46.5590 N   0  0  0  0  0  0  0  0  0  0  0  0
   59.2960   35.0600   45.3250 C   0  0  0  0  0  0  0  0  0  0  0  0
   59.4453   36.0778   44.9355 H   0  0  0  0  0  0  0  0  0  0  0  0
   58.6320   34.1080   44.5500 C   0  0  0  0  0  0  0  0  0  0  0  0
   58.2555   34.3637   43.5486 H   0  0  0  0  0  0  0  0  0  0  0  0
   57.3110   30.5640   44.9440 C   0  0  0  0  0  0  0  0  0  0  0  0
   57.4920   30.4126   46.0184 H   0  0  0  0  0  0  0  0  0  0  0  0
   56.6550   29.5780   44.2030 C   0  0  0  0  0  0  0  0  0  0  0  0
   56.3081   28.6554   44.6913 H   0  0  0  0  0  0  0  0  0  0  0  0
  1  2  1  0
  2  3  2  0
  3  4  1  0
  4  5  1  0
  4  6  2  0
  6  7  1  0
  7  8  2  0
  8  9  1  0
  9 10  2  3
 10 11  1  0
 11 12  1  0
 11 13  1  0
 11 14  1  0
 14 15  2  0
 15 16  1  0
 15 17  1  0
 17 18  1  0
 17 19  2  0
 19 20  1  0
 20 21  2  0
 20 22  1  0
 22 23  2  0
 23 24  1  0
 24 25  1  0
 25 26  1  0
 25 27  2  0
 27 28  1  0
 27 29  1  0
 29 30  1  0
 29 31  2  0
 31 32  1  0
 19 33  1  0
 33 34  1  0
 33 35  2  0
 35 36  1  0
  9 37  1  0
 37 38  1  0
 38 39  1  0
 38 40  2  0
 40 41  1  0
  6 42  1  0
 42 43  1  0
 42 44  2  0
 44 45  1  0
 44  2  1  0
 40  7  1  0
 35 14  1  0
 31 23  1  0
M  CHG  3  24  -1  32  -1  37  -1
M  END
>  <UniqueID>  (13) 
10

>  <SMILES>  (13) 
O=C(/N=c1/[n-]cccc1[O-])c1ccc(CN=c2nc(-c3cccnc3)cc[n-]2)cc1

>  <Energy>  (13) 
65.47074489956361

>  <Genealogy>  (13) 
O=C(N=c1[n-]cccc1[O-])c1ccc(CN=c2nc(-c3cccnc3)cc[n-]2)cc1 (protonated)
O=C(/N=c1/[n-]cccc1[O-])c1ccc(CN=c2nc(-c3cccnc3)cc[n-]2)cc1 (cis-trans isomerization)
O=C(/N=c1/[n-]cccc1[O-])c1ccc(CN=c2nc(-c3cccnc3)cc[n-]2)cc1 (3D coordinates assigned)
O=C(/N=c1/[n-]cccc1[O-])c1ccc(CN=c2nc(-c3cccnc3)cc[n-]2)cc1 (optimized conformer: 65.47074489956361 kcal/mol)

>  <smiles>  (13) 
O=C(N=c1[nH]cccc1O)c1ccc(CN=c2nc(-c3cccnc3)cc[nH]2)cc1

>  <score_type>  (13) 
oracle

>  <origin>  (13) 
adg

>  <m_score__min__energy>  (13) 
-15.56

>  <m_primary>  (13) 
energy

$$$$
13:0
     RDKit          3D

 37 39  0  0  0  0  0  0  0  0999 V2000
   57.7220   21.1540   44.2090 N   0  0  0  0  0  0  0  0  0  0  0  0
   56.7740   22.1360   43.7850 C   0  0  0  0  0  0  0  0  0  0  0  0
   55.9570   21.8370   42.8710 O   0  0  0  0  0  0  0  0  0  0  0  0
   56.7210   23.4830   44.4040 C   0  0  0  0  0  0  0  0  0  0  0  0
   55.9870   23.7170   45.5800 C   0  0  0  0  0  0  0  0  0  0  0  0
   55.9500   24.9910   46.1550 C   0  0  0  0  0  0  0  0  0  0  0  0
   56.6420   26.0590   45.5570 C   0  0  0  0  0  0  0  0  0  0  0  0
   56.6500   27.3760   46.1270 N   0  0  0  0  0  0  0  0  0  0  0  0
   57.5640   28.4370   45.8140 C   0  0  0  0  0  0  0  0  0  0  0  0
   58.7390   28.4160   46.2710 O   0  0  0  0  0  0  0  0  0  0  0  0
   57.1280   29.5410   44.9990 N   0  0  0  0  0  0  0  0  0  0  0  0
   56.0790   29.3380   43.9890 C   0  0  0  0  0  0  0  0  0  0  0  0
   56.5570   29.8360   42.6220 C   0  0  0  0  0  0  0  0  0  0  0  0
   57.0930   31.2350   42.7180 C   0  0  0  0  0  0  0  0  0  0  0  0
   57.0500   31.9820   41.7030 O   0  0  0  0  0  0  0  0  0  0  0  0
   57.7150   31.7080   43.9750 C   0  0  0  0  0  0  0  0  0  0  0  0
   58.2790   32.9920   44.0670 C   0  0  0  0  0  0  0  0  0  0  0  0
   58.8410   33.4300   45.2670 C   0  0  0  0  0  0  0  0  0  0  0  0
   58.8350   32.5980   46.3880 C   0  0  0  0  0  0  0  0  0  0  0  0
   58.2770   31.3200   46.3100 C   0  0  0  0  0  0  0  0  0  0  0  0
   57.7290   30.8540   45.0990 C   0  0  0  0  0  0  0  0  0  0  0  0
   57.4040   25.8210   44.4080 C   0  0  0  0  0  0  0  0  0  0  0  0
   57.4410   24.5480   43.8330 C   0  0  0  0  0  0  0  0  0  0  0  0
   58.3120   21.2900   45.0590 H   0  0  0  0  0  0  0  0  0  0  0  0
   57.7760   20.2350   43.7170 H   0  0  0  0  0  0  0  0  0  0  0  0
   55.4366   22.8900   46.0523 H   0  0  0  0  0  0  0  0  0  0  0  0
   55.3772   25.1584   47.0790 H   0  0  0  0  0  0  0  0  0  0  0  0
   55.8414   28.2660   43.9224 H   0  0  0  0  0  0  0  0  0  0  0  0
   55.1829   29.9038   44.2837 H   0  0  0  0  0  0  0  0  0  0  0  0
   57.3518   29.1704   42.2542 H   0  0  0  0  0  0  0  0  0  0  0  0
   55.7025   29.8342   41.9293 H   0  0  0  0  0  0  0  0  0  0  0  0
   58.2775   33.6548   43.1891 H   0  0  0  0  0  0  0  0  0  0  0  0
   59.2894   34.4325   45.3296 H   0  0  0  0  0  0  0  0  0  0  0  0
   59.2707   32.9497   47.3348 H   0  0  0  0  0  0  0  0  0  0  0  0
   58.2654   30.6734   47.1998 H   0  0  0  0  0  0  0  0  0  0  0  0
   57.9782   26.6421   43.9539 H   0  0  0  0  0  0  0  0  0  0  0  0
   58.0387   24.3771   42.9255 H   0  0  0  0  0  0  0  0  0  0  0  0
  1  2  1  0
  2  3  2  0
  2  4  1  0
  4  5  2  0
  5  6  1  0
  6  7  2  0
  7  8  1  0
  8  9  1  0
  9 10  2  0
  9 11  1  0
 11 12  1  0
 12 13  1  0
 13 14  1  0
 14 15  2  0
 14 16  1  0
 16 17  2  0
 17 18  1  0
 18 19  2  0
 19 20  1  0
 20 21  2  0
  7 22  1  0
 22 23  2  0
 23  4  1  0
 21 11  1  0
 21 16  1  0
  1 24  1  0
  1 25  1  0
  5 26  1  0
  6 27  1  0
 12 28  1  0
 12 29  1  0
 13 30  1  0
 13 31  1  0
 17 32  1  0
 18 33  1  0
 19 34  1  0
 20 35  1  0
 22 36  1  0
 23 37  1  0
M  CHG  1   8  -1
M  END
>  <UniqueID>  (14) 
11

>  <SMILES>  (14) 
NC(=O)c1ccc([N-]C(=O)N2CCC(=O)c3ccccc32)cc1

>  <Energy>  (14) 
50.10570098915067

>  <Genealogy>  (14) 
NC(=O)c1ccc([N-]C(=O)N2CCC(=O)c3ccccc32)cc1 (protonated)
NC(=O)c1ccc([N-]C(=O)N2CCC(=O)c3ccccc32)cc1 (3D coordinates assigned)
NC(=O)c1ccc([N-]C(=O)N2CCC(=O)c3ccccc32)cc1 (nonaromatic ring conformer: 50.10570098915067 kcal/mol)

>  <smiles>  (14) 
NC(=O)c1ccc(NC(=O)N2CCC(=O)c3ccccc32)cc1

>  <score_type>  (14) 
oracle

>  <origin>  (14) 
adg

>  <m_score__min__energy>  (14) 
-9.7200000000000006

>  <m_primary>  (14) 
energy

$$$$
14:0
     RDKit          3D

 50 52  0  0  0  0  0  0  0  0999 V2000
   59.0640   26.3580   45.6470 C   0  0  0  0  0  0  0  0  0  0  0  0
   57.7800   26.6860   44.8870 C   0  0  0  0  0  0  0  0  0  0  0  0
   56.6660   27.1540   45.8280 C   0  0  0  0  0  0  0  0  0  0  0  0
   55.9350   28.2810   45.2570 N   0  0  0  0  0  0  0  0  0  0  0  0
   56.5530   29.5080   44.8590 C   0  0  0  0  0  0  0  0  0  0  0  0
   55.8410   30.4980   44.5410 O   0  0  0  0  0  0  0  0  0  0  0  0
   57.9490   29.6060   44.9080 O   0  0  0  0  0  0  0  0  0  0  0  0
   58.7250   29.7700   46.0660 C   0  0  0  0  0  0  0  0  0  0  0  0
   59.9980   30.3350   45.9320 C   0  0  0  0  0  0  0  0  0  0  0  0
   60.8090   30.5310   47.0510 C   0  0  0  0  0  0  0  0  0  0  0  0
   60.3470   30.1830   48.3210 C   0  0  0  0  0  0  0  0  0  0  0  0
   59.0580   29.6490   48.4800 C   0  0  0  0  0  0  0  0  0  0  0  0
   58.5390   29.3370   49.7800 N   0  0  0  0  0  0  0  0  0  0  0  0
   58.2560   30.2980   50.8080 C   0  0  0  0  0  0  0  0  0  0  0  0
   57.0750   30.4160   51.2240 O   0  0  0  0  0  0  0  0  0  0  0  0
   59.2790   31.1320   51.3720 N   0  0  0  0  0  0  0  0  0  0  0  0
   59.9480   32.2110   50.7010 C   0  0  0  0  0  0  0  0  0  0  0  0
   61.3100   32.4230   50.9400 C   0  0  0  0  0  0  0  0  0  0  0  0
   61.9990   33.4220   50.2460 C   0  0  0  0  0  0  0  0  0  0  0  0
   61.3290   34.2190   49.3140 C   0  0  0  0  0  0  0  0  0  0  0  0
   59.9590   34.0460   49.0900 C   0  0  0  0  0  0  0  0  0  0  0  0
   59.3270   34.8300   48.1140 O   0  0  0  0  0  0  0  0  0  0  0  0
   58.8120   34.3400   46.9080 C   0  0  0  0  0  0  0  0  0  0  0  0
   57.6670   33.5240   46.8820 C   0  0  0  0  0  0  0  0  0  0  0  0
   57.1680   33.0540   45.6640 C   0  0  0  0  0  0  0  0  0  0  0  0
   57.8050   33.3960   44.4680 C   0  0  0  0  0  0  0  0  0  0  0  0
   58.9360   34.2180   44.4890 C   0  0  0  0  0  0  0  0  0  0  0  0
   59.4330   34.6980   45.7050 C   0  0  0  0  0  0  0  0  0  0  0  0
   59.2650   33.0540   49.8080 C   0  0  0  0  0  0  0  0  0  0  0  0
   58.2560   29.4300   47.3510 C   0  0  0  0  0  0  0  0  0  0  0  0
   58.8723   26.4070   46.7291 H   0  0  0  0  0  0  0  0  0  0  0  0
   59.3998   25.3452   45.3796 H   0  0  0  0  0  0  0  0  0  0  0  0
   59.8444   27.0856   45.3796 H   0  0  0  0  0  0  0  0  0  0  0  0
   57.9906   27.4841   44.1599 H   0  0  0  0  0  0  0  0  0  0  0  0
   57.4385   25.7707   44.3815 H   0  0  0  0  0  0  0  0  0  0  0  0
   55.9671   26.3220   45.9991 H   0  0  0  0  0  0  0  0  0  0  0  0
   57.1217   27.4771   46.7756 H   0  0  0  0  0  0  0  0  0  0  0  0
   60.3628   30.6272   44.9363 H   0  0  0  0  0  0  0  0  0  0  0  0
   61.8145   30.9607   46.9315 H   0  0  0  0  0  0  0  0  0  0  0  0
   60.9937   30.3272   49.1991 H   0  0  0  0  0  0  0  0  0  0  0  0
   61.8406   31.8016   51.6764 H   0  0  0  0  0  0  0  0  0  0  0  0
   63.0711   33.5811   50.4340 H   0  0  0  0  0  0  0  0  0  0  0  0
   61.8821   34.9869   48.7532 H   0  0  0  0  0  0  0  0  0  0  0  0
   57.1631   33.2551   47.8221 H   0  0  0  0  0  0  0  0  0  0  0  0
   56.2732   32.4144   45.6467 H   0  0  0  0  0  0  0  0  0  0  0  0
   57.4168   33.0187   43.5104 H   0  0  0  0  0  0  0  0  0  0  0  0
   59.4359   34.4877   43.5470 H   0  0  0  0  0  0  0  0  0  0  0  0
   60.3131   35.3578   45.7164 H   0  0  0  0  0  0  0  0  0  0  0  0
   58.1800   32.9378   49.6690 H   0  0  0  0  0  0  0  0  0  0  0  0
   57.2547   28.9902   47.4688 H   0  0  0  0  0  0  0  0  0  0  0  0
  1  2  1  0
  2  3  1  0
  3  4  1  0
  4  5  1  0
  5  6  2  0
  5  7  1  0
  7  8  1  0
  8  9  2  0
  9 10  1  0
 10 11  2  0
 11 12  1  0
 12 13  1  0
 13 14  1  0
 14 15  2  0
 14 16  1  0
 16 17  1  0
 17 18  2  0
 18 19  1  0
 19 20  2  0
 20 21  1  0
 21 22  1  0
 22 23  1  0
 23 24  2  0
 24 25  1  0
 25 26  2  0
 26 27  1  0
 27 28  2  0
 21 29  2  0
 12 30  2  0
 30  8  1  0
 29 17  1  0
 28 23  1  0
  1 31  1  0
  1 32  1  0
  1 33  1  0
  2 34  1  0
  2 35  1  0
  3 36  1  0
  3 37  1  0
  9 38  1  0
 10 39  1  0
 11 40  1  0
 18 41  1  0
 19 42  1  0
 20 43  1  0
 24 44  1  0
 25 45  1  0
 26 46  1  0
 27 47  1  0
 28 48  1  0
 29 49  1  0
 30 50  1  0
M  CHG  3   4  -1  13  -1  16  -1
M  END
>  <UniqueID>  (15) 
12

>  <SMILES>  (15) 
CCC[N-]C(=O)Oc1cccc([N-]C(=O)[N-]c2cccc(Oc3ccccc3)c2)c1

>  <Energy>  (15) 
61.71696531730075

>  <Genealogy>  (15) 
CCC[N-]C(=O)Oc1cccc([N-]C(=O)[N-]c2cccc(Oc3ccccc3)c2)c1 (protonated)
CCC[N-]C(=O)Oc1cccc([N-]C(=O)[N-]c2cccc(Oc3ccccc3)c2)c1 (3D coordinates assigned)
CCC[N-]C(=O)Oc1cccc([N-]C(=O)[N-]c2cccc(Oc3ccccc3)c2)c1 (optimized conformer: 61.71696531730075 kcal/mol)

>  <smiles>  (15) 
CCCNC(=O)Oc1cccc(NC(=O)Nc2cccc(Oc3ccccc3)c2)c1

>  <score_type>  (15) 
oracle

>  <origin>  (15) 
adg

>  <m_score__min__energy>  (15) 
-13.02

>  <m_primary>  (15) 
energy

$$$$
15:0
     RDKit          3D

 59 62  0  0  0  0  0  0  0  0999 V2000
   58.9480   32.3520   49.7590 N   0  0  0  0  0  0  0  0  0  0  0  0
   59.9300   33.7620   49.9550 S   0  0  0  0  0  0  0  0  0  0  0  0
   59.2860   34.9290   49.2610 O   0  0  0  0  0  0  0  0  0  0  0  0
   60.0340   34.0630   51.4240 O   0  0  0  0  0  0  0  0  0  0  0  0
   61.5450   33.4850   49.2800 C   0  0  0  0  0  0  0  0  0  0  0  0
   62.6650   33.7050   50.1000 C   0  0  0  0  0  0  0  0  0  0  0  0
   63.9550   33.4570   49.6270 C   0  0  0  0  0  0  0  0  0  0  0  0
   64.1440   32.9930   48.3250 C   0  0  0  0  0  0  0  0  0  0  0  0
   63.0450   32.7790   47.4930 C   0  0  0  0  0  0  0  0  0  0  0  0
   61.7400   33.0260   47.9530 C   0  0  0  0  0  0  0  0  0  0  0  0
   60.6100   32.7480   47.0410 C   0  0  0  0  0  0  0  0  0  0  0  0
   59.9140   33.7950   46.4200 C   0  0  0  0  0  0  0  0  0  0  0  0
   58.8350   33.5190   45.5750 C   0  0  0  0  0  0  0  0  0  0  0  0
   58.4520   32.1920   45.3220 C   0  0  0  0  0  0  0  0  0  0  0  0
   57.3060   31.8940   44.3920 C   0  0  0  0  0  0  0  0  0  0  0  0
   57.4780   30.5820   43.7760 N   0  0  0  0  0  0  0  0  0  0  0  0
   56.8700   29.4000   44.3160 C   0  0  0  0  0  0  0  0  0  0  0  0
   55.9040   29.4940   45.1200 O   0  0  0  0  0  0  0  0  0  0  0  0
   57.3910   28.0440   43.9420 C   0  0  0  0  0  0  0  0  0  0  0  0
   57.9160   27.3490   45.1350 N   0  0  0  0  0  0  0  0  0  0  0  0
   59.2350   27.4760   45.4990 C   0  0  0  0  0  0  0  0  0  0  0  0
   60.0320   28.1720   44.8140 O   0  0  0  0  0  0  0  0  0  0  0  0
   59.7030   26.8490   46.6090 N   0  0  0  0  0  0  0  0  0  0  0  0
   58.8950   26.0970   47.3930 C   0  0  0  0  0  0  0  0  0  0  0  0
   57.5430   25.9520   47.0650 C   0  0  0  0  0  0  0  0  0  0  0  0
   56.6460   25.2000   47.8410 O   0  0  0  0  0  0  0  0  0  0  0  0
   56.2200   23.5730   47.5310 S   0  0  0  0  0  0  0  0  0  0  0  0
   54.8080   23.3170   47.9800 O   0  0  0  0  0  0  0  0  0  0  0  0
   57.1590   22.6670   48.2780 O   0  0  0  0  0  0  0  0  0  0  0  0
   56.3440   23.2640   45.8040 C   0  0  0  0  0  0  0  0  0  0  0  0
   57.4830   22.6300   45.2880 C   0  0  0  0  0  0  0  0  0  0  0  0
   57.5890   22.3870   43.9160 C   0  0  0  0  0  0  0  0  0  0  0  0
   56.5610   22.7770   43.0530 C   0  0  0  0  0  0  0  0  0  0  0  0
   55.4250   23.4130   43.5630 C   0  0  0  0  0  0  0  0  0  0  0  0
   55.3170   23.6600   44.9350 C   0  0  0  0  0  0  0  0  0  0  0  0
   57.0730   26.5910   45.9110 C   0  0  0  0  0  0  0  0  0  0  0  0
   55.8560   26.4670   45.5960 O   0  0  0  0  0  0  0  0  0  0  0  0
   59.1630   31.1440   45.9290 C   0  0  0  0  0  0  0  0  0  0  0  0
   60.2360   31.4220   46.7790 C   0  0  0  0  0  0  0  0  0  0  0  0
   57.9520   32.6670   49.7820 H   0  0  0  0  0  0  0  0  0  0  0  0
   62.5237   34.0766   51.1256 H   0  0  0  0  0  0  0  0  0  0  0  0
   64.8227   33.6275   50.2812 H   0  0  0  0  0  0  0  0  0  0  0  0
   65.1606   32.7957   47.9541 H   0  0  0  0  0  0  0  0  0  0  0  0
   63.2011   32.4135   46.4673 H   0  0  0  0  0  0  0  0  0  0  0  0
   60.2180   34.8370   46.5983 H   0  0  0  0  0  0  0  0  0  0  0  0
   58.2827   34.3464   45.1055 H   0  0  0  0  0  0  0  0  0  0  0  0
   56.3648   31.9065   44.9612 H   0  0  0  0  0  0  0  0  0  0  0  0
   57.2802   32.6585   43.6015 H   0  0  0  0  0  0  0  0  0  0  0  0
   58.1490   30.4910   42.9800 H   0  0  0  0  0  0  0  0  0  0  0  0
   56.5748   27.4495   43.5056 H   0  0  0  0  0  0  0  0  0  0  0  0
   58.2040   28.1625   43.2105 H   0  0  0  0  0  0  0  0  0  0  0  0
   59.3012   25.6007   48.2867 H   0  0  0  0  0  0  0  0  0  0  0  0
   58.2946   22.3233   45.9643 H   0  0  0  0  0  0  0  0  0  0  0  0
   58.4832   21.8878   43.5144 H   0  0  0  0  0  0  0  0  0  0  0  0
   56.6456   22.5837   41.9734 H   0  0  0  0  0  0  0  0  0  0  0  0
   54.6155   23.7193   42.8842 H   0  0  0  0  0  0  0  0  0  0  0  0
   54.4251   24.1657   45.3334 H   0  0  0  0  0  0  0  0  0  0  0  0
   58.8739   30.1007   45.7344 H   0  0  0  0  0  0  0  0  0  0  0  0
   60.7914   30.5953   47.2460 H   0  0  0  0  0  0  0  0  0  0  0  0
  1  2  1  0
  2  3  2  0
  2  4  2  0
  2  5  1  0
  5  6  2  0
  6  7  1  0
  7  8  2  0
  8  9  1  0
  9 10  2  0
 10 11  1  0
 11 12  2  0
 12 13  1  0
 13 14  2  0
 14 15  1  0
 15 16  1  0
 16 17  1  0
 17 18  2  0
 17 19  1  0
 19 20  1  0
 20 21  1  0
 21 22  2  0
 21 23  1  0
 23 24  1  0
 24 25  2  0
 25 26  1  0
 26 27  1  0
 27 28  2  0
 27 29  2  0
 27 30  1  0
 30 31  2  0
 31 32  1  0
 32 33  2  0
 33 34  1  0
 34 35  2  0
 25 36  1  0
 36 37  2  0
 14 38  1  0
 38 39  2  0
 10  5  1  0
 39 11  1  0
 36 20  1  0
 35 30  1  0
  1 40  1  0
  6 41  1  0
  7 42  1  0
  8 43  1  0
  9 44  1  0
 12 45  1  0
 13 46  1  0
 15 47  1  0
 15 48  1  0
 16 49  1  0
 19 50  1  0
 19 51  1  0
 24 52  1  0
 31 53  1  0
 32 54  1  0
 33 55  1  0
 34 56  1  0
 35 57  1  0
 38 58  1  0
 39 59  1  0
M  CHG  2   1  -1  23  -1
M  END
>  <UniqueID>  (16) 
13

>  <SMILES>  (16) 
[NH-]S(=O)(=O)c1ccccc1-c1ccc(CNC(=O)Cn2c(=O)[n-]cc(OS(=O)(=O)c3ccccc3)c2=O)cc1

>  <Energy>  (16) 
68.53388451228784

>  <Genealogy>  (16) 
[NH-]S(=O)(=O)c1ccccc1-c1ccc(CNC(=O)Cn2c(=O)[n-]cc(OS(=O)(=O)c3ccccc3)c2=O)cc1 (protonated)
[NH-]S(=O)(=O)c1ccccc1-c1ccc(CNC(=O)Cn2c(=O)[n-]cc(OS(=O)(=O)c3ccccc3)c2=O)cc1 (3D coordinates assigned)
[NH-]S(=O)(=O)c1ccccc1-c1ccc(CNC(=O)Cn2c(=O)[n-]cc(OS(=O)(=O)c3ccccc3)c2=O)cc1 (optimized conformer: 68.53388451228784 kcal/mol)

>  <smiles>  (16) 
NS(=O)(=O)c1ccccc1-c1ccc(CNC(=O)Cn2c(=O)[nH]cc(OS(=O)(=O)c3ccccc3)c2=O)cc1

>  <score_type>  (16) 
oracle

>  <origin>  (16) 
adg

>  <m_score__min__energy>  (16) 
-12.880000000000001

>  <m_primary>  (16) 
energy

$$$$
16:0
     RDKit          3D

 53 54  0  0  0  0  0  0  0  0999 V2000
   59.3070   29.8600   48.5170 C   0  0  0  0  0  0  0  0  0  0  0  0
   60.5040   30.7240   48.9210 C   0  0  0  0  0  0  0  0  0  0  0  0
   61.4750   29.9400   49.8230 C   0  0  0  0  0  0  0  0  0  0  0  0
   62.2370   30.8450   50.8130 C   0  0  0  0  0  0  0  0  0  0  0  0
   63.7550   30.9510   50.5560 C   0  0  0  0  0  0  0  0  0  0  0  0
   64.1190   31.9010   49.3980 C   0  0  0  0  0  0  0  0  0  0  0  0
   62.9700   32.6990   48.9640 N   0  0  0  0  0  0  0  0  0  0  0  0
   62.5770   33.8920   49.6500 C   0  0  0  0  0  0  0  0  0  0  0  0
   63.2690   34.3290   50.6090 O   0  0  0  0  0  0  0  0  0  0  0  0
   61.3730   34.5570   49.2490 N   0  0  0  0  0  0  0  0  0  0  0  0
   60.5270   34.2460   48.1300 C   0  0  0  0  0  0  0  0  0  0  0  0
   59.2100   33.8400   48.3870 C   0  0  0  0  0  0  0  0  0  0  0  0
   58.3550   33.4900   47.3360 C   0  0  0  0  0  0  0  0  0  0  0  0
   58.8160   33.5240   46.0120 C   0  0  0  0  0  0  0  0  0  0  0  0
   57.7340   33.0400   44.7090 S   0  0  0  0  0  0  0  0  0  0  0  0
   56.6680   34.0870   44.5590 O   0  0  0  0  0  0  0  0  0  0  0  0
   58.4910   32.9050   43.4170 O   0  0  0  0  0  0  0  0  0  0  0  0
   57.0190   31.5180   45.1310 N   0  0  0  0  0  0  0  0  0  0  0  0
   57.7410   30.2780   45.2450 C   0  0  0  0  0  0  0  0  0  0  0  0
   59.1210   30.2810   45.0000 C   0  0  0  0  0  0  0  0  0  0  0  0
   59.8680   29.1080   45.1440 C   0  0  0  0  0  0  0  0  0  0  0  0
   59.2380   27.9140   45.5070 C   0  0  0  0  0  0  0  0  0  0  0  0
   57.8510   27.8910   45.7170 C   0  0  0  0  0  0  0  0  0  0  0  0
   57.0670   26.3630   46.1090 S   0  0  0  0  0  0  0  0  0  0  0  0
   55.3480   26.5630   46.0170 N   0  0  0  0  0  0  0  0  0  0  0  0
   57.5090   25.3060   45.1310 O   0  0  0  0  0  0  0  0  0  0  0  0
   57.4330   25.9320   47.5040 O   0  0  0  0  0  0  0  0  0  0  0  0
   57.1040   29.0730   45.5870 C   0  0  0  0  0  0  0  0  0  0  0  0
   60.1380   33.9090   45.7480 C   0  0  0  0  0  0  0  0  0  0  0  0
   60.9930   34.2640   46.8010 C   0  0  0  0  0  0  0  0  0  0  0  0
   58.7983   29.4928   49.4205 H   0  0  0  0  0  0  0  0  0  0  0  0
   58.6056   30.4614   47.9201 H   0  0  0  0  0  0  0  0  0  0  0  0
   59.6569   29.0049   47.9201 H   0  0  0  0  0  0  0  0  0  0  0  0
   61.0369   31.0460   48.0142 H   0  0  0  0  0  0  0  0  0  0  0  0
   60.1328   31.5947   49.4814 H   0  0  0  0  0  0  0  0  0  0  0  0
   60.9000   29.1982   50.3966 H   0  0  0  0  0  0  0  0  0  0  0  0
   62.2208   29.4634   49.1699 H   0  0  0  0  0  0  0  0  0  0  0  0
   61.8082   31.8561   50.7520 H   0  0  0  0  0  0  0  0  0  0  0  0
   62.1223   30.3841   51.8052 H   0  0  0  0  0  0  0  0  0  0  0  0
   64.2383   31.3191   51.4730 H   0  0  0  0  0  0  0  0  0  0  0  0
   64.1055   29.9475   50.2729 H   0  0  0  0  0  0  0  0  0  0  0  0
   64.9173   32.5798   49.7325 H   0  0  0  0  0  0  0  0  0  0  0  0
   64.4499   31.2887   48.5462 H   0  0  0  0  0  0  0  0  0  0  0  0
   62.4060   32.4070   48.1360 H   0  0  0  0  0  0  0  0  0  0  0  0
   58.8455   33.7962   49.4239 H   0  0  0  0  0  0  0  0  0  0  0  0
   57.3190   33.1875   47.5488 H   0  0  0  0  0  0  0  0  0  0  0  0
   59.6195   31.2121   44.6925 H   0  0  0  0  0  0  0  0  0  0  0  0
   60.9542   29.1247   44.9712 H   0  0  0  0  0  0  0  0  0  0  0  0
   59.8288   26.9940   45.6278 H   0  0  0  0  0  0  0  0  0  0  0  0
   55.1480   27.1050   45.1520 H   0  0  0  0  0  0  0  0  0  0  0  0
   56.0168   29.0556   45.7534 H   0  0  0  0  0  0  0  0  0  0  0  0
   60.5056   33.9326   44.7115 H   0  0  0  0  0  0  0  0  0  0  0  0
   62.0315   34.5576   46.5884 H   0  0  0  0  0  0  0  0  0  0  0  0
  1  2  1  0
  2  3  1  0
  3  4  1  0
  4  5  1  0
  5  6  1  0
  6  7  1  0
  7  8  1  0
  8  9  2  0
  8 10  1  0
 10 11  1  0
 11 12  2  0
 12 13  1  0
 13 14  2  0
 14 15  1  0
 15 16  2  0
 15 17  2  0
 15 18  1  0
 18 19  1  0
 19 20  2  0
 20 21  1  0
 21 22  2  0
 22 23  1  0
 23 24  1  0
 24 25  1  0
 24 26  2  0
 24 27  2  0
 23 28  2  0
 14 29  1  0
 29 30  2  0
 30 11  1  0
 28 19  1  0
  1 31  1  0
  1 32  1  0
  1 33  1  0
  2 34  1  0
  2 35  1  0
  3 36  1  0
  3 37  1  0
  4 38  1  0
  4 39  1  0
  5 40  1  0
  5 41  1  0
  6 42  1  0
  6 43  1  0
  7 44  1  0
 12 45  1  0
 13 46  1  0
 20 47  1  0
 21 48  1  0
 22 49  1  0
 25 50  1  0
 28 51  1  0
 29 52  1  0
 30 53  1  0
M  CHG  3  10  -1  18  -1  25  -1
M  END
>  <UniqueID>  (17) 
14

>  <SMILES>  (17) 
CCCCCCNC(=O)[N-]c1ccc(S(=O)(=O)[N-]c2cccc(S([NH-])(=O)=O)c2)cc1

>  <Energy>  (17) 
50.75536628811062

>  <Genealogy>  (17) 
CCCCCCNC(=O)[N-]c1ccc(S(=O)(=O)[N-]c2cccc(S([NH-])(=O)=O)c2)cc1 (protonated)
CCCCCCNC(=O)[N-]c1ccc(S(=O)(=O)[N-]c2cccc(S([NH-])(=O)=O)c2)cc1 (3D coordinates assigned)
CCCCCCNC(=O)[N-]c1ccc(S(=O)(=O)[N-]c2cccc(S([NH-])(=O)=O)c2)cc1 (optimized conformer: 50.75536628811062 kcal/mol)

>  <smiles>  (17) 
CCCCCCNC(=O)Nc1ccc(S(=O)(=O)Nc2cccc(S(N)(=O)=O)c2)cc1

>  <score_type>  (17) 
oracle

>  <origin>  (17) 
adg

>  <m_score__min__energy>  (17) 
-14.130000000000001

>  <m_primary>  (17) 
energy

$$$$
17:0
     RDKit          3D

 65 70  0  0  0  0  0  0  0  0999 V2000
   60.3748   36.3660   46.6777 H   0  0  0  0  0  0  0  0  0  0  0  0
   59.9270   35.4550   46.2540 C   0  0  0  0  0  0  0  0  0  0  0  0
   59.2540   35.5120   45.0320 C   0  0  0  0  0  0  0  0  0  0  0  0
   59.1777   36.4670   44.4915 H   0  0  0  0  0  0  0  0  0  0  0  0
   58.6770   34.3580   44.4940 C   0  0  0  0  0  0  0  0  0  0  0  0
   58.1536   34.4094   43.5279 H   0  0  0  0  0  0  0  0  0  0  0  0
   58.7600   33.1330   45.1770 C   0  0  0  0  0  0  0  0  0  0  0  0
   57.9530   31.7120   44.4860 S   0  0  0  0  0  0  0  0  0  0  0  0
   58.0600   31.7130   42.9860 O   0  0  0  0  0  0  0  0  0  0  0  0
   56.5010   31.7310   44.8750 O   0  0  0  0  0  0  0  0  0  0  0  0
   58.6700   30.2520   45.0890 N   0  0  0  0  0  0  0  0  0  0  0  0
   58.0220   29.1440   45.2800 C   0  0  0  0  0  0  0  0  0  0  0  0
   56.6770   29.1040   45.3840 N   0  0  0  0  0  0  0  0  0  0  0  0
   56.2050   27.8760   45.5990 N   0  0  0  0  0  0  0  0  0  0  0  0
   57.1760   26.9380   45.6670 C   0  0  0  0  0  0  0  0  0  0  0  0
   56.8540   25.2370   45.9430 S   0  0  0  0  0  0  0  0  0  0  0  0
   57.1630   24.4570   44.6970 O   0  0  0  0  0  0  0  0  0  0  0  0
   57.7330   24.7430   47.0580 O   0  0  0  0  0  0  0  0  0  0  0  0
   55.1910   25.0230   46.3660 N   0  0  0  0  0  0  0  0  0  0  0  0
   54.7570   25.9720   46.3980 H   0  0  0  0  0  0  0  0  0  0  0  0
   55.1690   24.6470   47.3400 H   0  0  0  0  0  0  0  0  0  0  0  0
   58.7080   27.6070   45.4550 S   0  0  0  0  0  0  0  0  0  0  0  0
   59.4640   33.0740   46.4070 C   0  0  0  0  0  0  0  0  0  0  0  0
   59.6250   31.8120   47.1530 C   0  0  0  0  0  0  0  0  0  0  0  0
   60.8720   31.1730   47.1960 C   0  0  0  0  0  0  0  0  0  0  0  0
   61.7237   31.5944   46.6419 H   0  0  0  0  0  0  0  0  0  0  0  0
   61.0360   30.0020   47.9410 C   0  0  0  0  0  0  0  0  0  0  0  0
   62.0205   29.5133   47.9838 H   0  0  0  0  0  0  0  0  0  0  0  0
   59.9490   29.4470   48.6350 C   0  0  0  0  0  0  0  0  0  0  0  0
   60.1480   28.2530   49.5270 C   0  0  0  0  0  0  0  0  0  0  0  0
   59.2068   27.6875   49.5934 H   0  0  0  0  0  0  0  0  0  0  0  0
   60.9385   27.6155   49.1044 H   0  0  0  0  0  0  0  0  0  0  0  0
   60.5500   28.6900   50.8750 N   0  0  0  0  0  0  0  0  0  0  0  0
   59.8360   29.7520   51.5510 C   0  0  0  0  0  0  0  0  0  0  0  0
   58.4300   29.6630   51.6260 C   0  0  0  0  0  0  0  0  0  0  0  0
   57.9236   28.7714   51.2277 H   0  0  0  0  0  0  0  0  0  0  0  0
   57.6710   30.6830   52.1950 C   0  0  0  0  0  0  0  0  0  0  0  0
   56.5748   30.5988   52.2304 H   0  0  0  0  0  0  0  0  0  0  0  0
   58.2990   31.8070   52.7180 C   0  0  0  0  0  0  0  0  0  0  0  0
   57.6988   32.6177   53.1568 H   0  0  0  0  0  0  0  0  0  0  0  0
   59.6900   31.9080   52.6870 C   0  0  0  0  0  0  0  0  0  0  0  0
   60.1761   32.7915   53.1265 H   0  0  0  0  0  0  0  0  0  0  0  0
   60.4850   30.9010   52.1040 C   0  0  0  0  0  0  0  0  0  0  0  0
   61.9880   31.1150   52.2080 C   0  0  0  0  0  0  0  0  0  0  0  0
   62.1865   32.1816   52.0266 H   0  0  0  0  0  0  0  0  0  0  0  0
   62.2621   30.7621   53.2131 H   0  0  0  0  0  0  0  0  0  0  0  0
   62.8610   30.3120   51.2480 C   0  0  0  0  0  0  0  0  0  0  0  0
   62.4600   30.4055   50.2280 H   0  0  0  0  0  0  0  0  0  0  0  0
   63.8884   30.7031   51.2857 H   0  0  0  0  0  0  0  0  0  0  0  0
   62.8740   28.8660   51.6440 C   0  0  0  0  0  0  0  0  0  0  0  0
   64.0130   28.2840   52.2260 C   0  0  0  0  0  0  0  0  0  0  0  0
   64.9159   28.8901   52.3916 H   0  0  0  0  0  0  0  0  0  0  0  0
   64.0000   26.9350   52.5950 C   0  0  0  0  0  0  0  0  0  0  0  0
   64.8936   26.4801   53.0474 H   0  0  0  0  0  0  0  0  0  0  0  0
   62.8510   26.1640   52.3890 C   0  0  0  0  0  0  0  0  0  0  0  0
   62.8451   25.1003   52.6692 H   0  0  0  0  0  0  0  0  0  0  0  0
   61.7100   26.7450   51.8270 C   0  0  0  0  0  0  0  0  0  0  0  0
   60.8073   26.1374   51.6661 H   0  0  0  0  0  0  0  0  0  0  0  0
   61.7140   28.1010   51.4680 C   0  0  0  0  0  0  0  0  0  0  0  0
   58.6940   30.0710   48.5610 C   0  0  0  0  0  0  0  0  0  0  0  0
   57.8335   29.6333   49.0882 H   0  0  0  0  0  0  0  0  0  0  0  0
   58.5320   31.2440   47.8220 C   0  0  0  0  0  0  0  0  0  0  0  0
   57.5439   31.7240   47.7645 H   0  0  0  0  0  0  0  0  0  0  0  0
   60.0320   34.2440   46.9380 C   0  0  0  0  0  0  0  0  0  0  0  0
   60.5635   34.2048   47.9003 H   0  0  0  0  0  0  0  0  0  0  0  0
  1  2  1  0
  2  3  2  0
  3  4  1  0
  3  5  1  0
  5  6  1  0
  5  7  2  0
  7  8  1  0
  8  9  2  0
  8 10  2  0
  8 11  1  0
 11 12  2  0
 12 13  1  0
 13 14  1  0
 14 15  2  0
 15 16  1  0
 16 17  2  0
 16 18  2  0
 16 19  1  0
 19 20  1  0
 19 21  1  0
 15 22  1  0
  7 23  1  0
 23 24  1  0
 24 25  2  0
 25 26  1  0
 25 27  1  0
 27 28  1  0
 27 29  2  0
 29 30  1  0
 30 31  1  0
 30 32  1  0
 30 33  1  0
 33 34  1  0
 34 35  2  0
 35 36  1  0
 35 37  1  0
 37 38  1  0
 37 39  2  0
 39 40  1  0
 39 41  1  0
 41 42  1  0
 41 43  2  0
 43 44  1  0
 44 45  1  0
 44 46  1  0
 44 47  1  0
 47 48  1  0
 47 49  1  0
 47 50  1  0
 50 51  2  0
 51 52  1  0
 51 53  1  0
 53 54  1  0
 53 55  2  0
 55 56  1  0
 55 57  1  0
 57 58  1  0
 57 59  2  0
 29 60  1  0
 60 61  1  0
 60 62  2  0
 62 63  1  0
 23 64  2  0
 64 65  1  0
 64  2  1  0
 22 12  1  0
 62 24  1  0
 59 33  1  0
 43 34  1  0
 59 50  1  0
M  CHG  1  13  -1
M  END
>  <UniqueID>  (18) 
15

>  <SMILES>  (18) 
NS(=O)(=O)c1n[n-]/c(=N/S(=O)(=O)c2ccccc2-c2ccc(CN3c4ccccc4CCc4ccccc43)cc2)s1

>  <Energy>  (18) 
132.13463412551275

>  <Genealogy>  (18) 
NS(=O)(=O)c1n[n-]c(=NS(=O)(=O)c2ccccc2-c2ccc(CN3c4ccccc4CCc4ccccc43)cc2)s1 (protonated)
NS(=O)(=O)c1n[n-]/c(=N/S(=O)(=O)c2ccccc2-c2ccc(CN3c4ccccc4CCc4ccccc43)cc2)s1 (cis-trans isomerization)
NS(=O)(=O)c1n[n-]/c(=N/S(=O)(=O)c2ccccc2-c2ccc(CN3c4ccccc4CCc4ccccc43)cc2)s1 (3D coordinates assigned)
NS(=O)(=O)c1n[n-]/c(=N/S(=O)(=O)c2ccccc2-c2ccc(CN3c4ccccc4CCc4ccccc43)cc2)s1 (nonaromatic ring conformer: 132.13463412551275 kcal/mol)

>  <smiles>  (18) 
NS(=O)(=O)c1n[nH]c(=NS(=O)(=O)c2ccccc2-c2ccc(CN3c4ccccc4CCc4ccccc43)cc2)s1

>  <score_type>  (18) 
oracle

>  <origin>  (18) 
adg

>  <m_score__min__energy>  (18) 
-12.23

>  <m_primary>  (18) 
energy

$$$$
18:0
     RDKit          3D

 37 38  0  0  1  0  0  0  0  0999 V2000
   58.6960   19.5430   48.1600 C   0  0  0  0  0  0  0  0  0  0  0  0
   58.4280   19.7730   46.7460 N   0  0  0  0  0  0  0  0  0  0  0  0
   57.5630   20.7870   46.2840 C   0  0  0  0  0  0  0  0  0  0  0  0
   57.0050   21.5100   47.1670 O   0  0  0  0  0  0  0  0  0  0  0  0
   57.3330   20.9860   44.8870 N   0  0  0  0  0  0  0  0  0  0  0  0
   56.3100   22.1860   44.2490 S   0  0  0  0  0  0  0  0  0  0  0  0
   56.1910   22.0740   42.7450 O   0  0  0  0  0  0  0  0  0  0  0  0
   54.9450   22.1880   44.8820 O   0  0  0  0  0  0  0  0  0  0  0  0
   57.1110   23.7510   44.6560 C   0  0  0  0  0  0  0  0  0  0  0  0
   58.0930   24.3100   44.6990 N   0  0  0  0  0  0  0  0  0  0  0  0
   58.4130   25.5230   45.0620 N   0  0  0  0  0  0  0  0  0  0  0  0
   57.4220   26.2190   45.4460 C   0  0  0  0  0  0  0  0  0  0  0  0
   57.2800   27.5200   45.9050 N   0  0  0  0  0  0  0  0  0  0  0  0
   58.2840   28.4390   45.4240 C   0  0  0  0  0  0  0  0  0  0  0  0
   59.3280   28.0410   44.8450 O   0  0  0  0  0  0  0  0  0  0  0  0
   58.1310   29.8830   45.5890 C   0  0  0  0  0  0  0  0  0  0  0  0
   58.6990   30.5700   46.6590 C   0  0  0  0  0  0  0  0  0  0  0  0
   58.5290   31.9380   46.7770 C   0  0  0  0  0  0  0  0  0  0  0  0
   59.0670   32.6820   47.8170 O   0  0  0  0  0  0  0  0  0  0  0  0
   59.4400   34.0290   47.7490 C   0  0  0  0  0  0  0  0  0  0  0  0
   57.7890   32.6520   45.8330 C   0  0  0  0  0  0  0  0  0  0  0  0
   57.2310   31.9650   44.7770 C   0  0  0  0  0  0  0  0  0  0  0  0
   57.4050   30.6000   44.6670 C   0  0  0  0  0  0  0  0  0  0  0  0
   56.6100   29.7040   43.1900 Br  0  0  0  0  0  0  0  0  0  0  0  0
   55.9340   25.1410   45.3030 S   0  0  0  0  0  0  0  0  0  0  0  0
   57.9999   20.1404   48.7670 H   0  0  0  0  0  0  0  0  0  0  0  0
   58.5603   18.4759   48.3901 H   0  0  0  0  0  0  0  0  0  0  0  0
   59.7301   19.8390   48.3901 H   0  0  0  0  0  0  0  0  0  0  0  0
   58.8950   19.1620   46.0140 H   0  0  0  0  0  0  0  0  0  0  0  0
   57.8300   20.3500   44.2340 H   0  0  0  0  0  0  0  0  0  0  0  0
   59.4260   25.8770   45.0330 H   0  0  0  0  0  0  0  0  0  0  0  0
   59.2847   30.0233   47.4127 H   0  0  0  0  0  0  0  0  0  0  0  0
   59.5512   34.4305   48.7670 H   0  0  0  0  0  0  0  0  0  0  0  0
   60.3966   34.1180   47.2132 H   0  0  0  0  0  0  0  0  0  0  0  0
   58.6654   34.5974   47.2132 H   0  0  0  0  0  0  0  0  0  0  0  0
   57.6543   33.7394   45.9300 H   0  0  0  0  0  0  0  0  0  0  0  0
   56.6451   32.5059   44.0193 H   0  0  0  0  0  0  0  0  0  0  0  0
  1  2  1  0
  2  3  1  0
  3  4  2  0
  3  5  1  0
  5  6  1  0
  6  7  2  0
  6  8  2  0
  6  9  1  0
  9 10  2  0
 10 11  1  0
 11 12  1  0
 12 13  2  0
 13 14  1  0
 14 15  2  0
 14 16  1  0
 16 17  2  0
 17 18  1  0
 18 19  1  0
 19 20  1  0
 18 21  2  0
 21 22  1  0
 22 23  2  0
 23 24  1  0
 12 25  1  0
 25  9  1  0
 23 16  1  0
  1 26  1  0
  1 27  1  0
  1 28  1  0
  2 29  1  0
  5 30  1  0
 11 31  1  0
 17 32  1  0
 20 33  1  0
 20 34  1  0
 20 35  1  0
 21 36  1  0
 22 37  1  0
M  END
>  <smiles>  (19) 
CNC(=O)NS(=O)(=O)c1n[nH]c(=NC(=O)c2cc(OC)ccc2Br)s1

>  <score_type>  (19) 
oracle

>  <origin>  (19) 
adg

>  <m_score__min__energy>  (19) 
-8.3200000000000003

>  <m_primary>  (19) 
energy

$$$$
19:0
     RDKit          3D

 15 15  0  0  0  0  0  0  0  0999 V2000
   50.8040   32.8820   51.9900 O   0  0  0  0  0  0  0  0  0  0  0  0
   51.4150   32.3390   51.0330 C   0  0  0  0  0  0  0  0  0  0  0  0
   50.8340   32.3080   49.7730 O   0  0  0  0  0  0  0  0  0  0  0  0
   52.7370   31.6810   51.2640 C   0  0  0  0  0  0  0  0  0  0  0  0
   52.5560   30.4610   52.0470 N   0  0  0  0  0  0  0  0  0  0  0  0
   51.3790   29.9060   52.3930 C   0  0  0  0  0  0  0  0  0  0  0  0
   51.6040   28.7250   53.0720 C   0  0  0  0  0  0  0  0  0  0  0  0
   52.9760   28.5580   53.1270 C   0  0  0  0  0  0  0  0  0  0  0  0
   53.5320   29.6410   52.4800 C   0  0  0  0  0  0  0  0  0  0  0  0
   53.1927   31.4282   50.2952 H   0  0  0  0  0  0  0  0  0  0  0  0
   53.3930   32.3707   51.8153 H   0  0  0  0  0  0  0  0  0  0  0  0
   50.3887   30.3292   52.1688 H   0  0  0  0  0  0  0  0  0  0  0  0
   50.8418   28.0495   53.4876 H   0  0  0  0  0  0  0  0  0  0  0  0
   53.5180   27.7234   53.5958 H   0  0  0  0  0  0  0  0  0  0  0  0
   54.6098   29.8096   52.3389 H   0  0  0  0  0  0  0  0  0  0  0  0
  1  2  2  0
  2  3  1  0
  2  4  1  0
  4  5  1  0
  5  6  1  0
  6  7  2  0
  7  8  1  0
  8  9  2  0
  9  5  1  0
  4 10  1  0
  4 11  1  0
  6 12  1  0
  7 13  1  0
  8 14  1  0
  9 15  1  0
M  CHG  1   3  -1
M  END
>  <UniqueID>  (20) 
16

>  <SMILES>  (20) 
O=C([O-])Cn1cccc1

>  <Energy>  (20) 
36.550933932862755

>  <Genealogy>  (20) 
O=C([O-])Cn1cccc1 (protonated)
O=C([O-])Cn1cccc1 (3D coordinates assigned)
O=C([O-])Cn1cccc1 (optimized conformer: 36.550933932862755 kcal/mol)

>  <smiles>  (20) 
O=C(O)Cn1cccc1

>  <score_type>  (20) 
oracle

>  <origin>  (20) 
adg

>  <m_score__min__energy>  (20) 
-7.5800000000000001

>  <m_primary>  (20) 
energy

$$$$
20:0
     RDKit          3D

 30 32  0  0  0  0  0  0  0  0999 V2000
   54.2970   28.4500   55.8330 O   0  0  0  0  0  0  0  0  0  0  0  0
   54.3020   28.3310   54.3350 S   0  0  0  0  0  0  0  0  0  0  0  0
   53.7910   26.9710   53.9500 O   0  0  0  0  0  0  0  0  0  0  0  0
   55.9290   28.5160   53.7570 N   0  0  0  0  0  0  0  0  0  0  0  0
   56.5190   29.7810   53.4070 C   0  0  0  0  0  0  0  0  0  0  0  0
   56.3370   30.3620   52.1360 C   0  0  0  0  0  0  0  0  0  0  0  0
   56.9340   31.5900   51.8290 C   0  0  0  0  0  0  0  0  0  0  0  0
   57.7100   32.2510   52.7850 C   0  0  0  0  0  0  0  0  0  0  0  0
   57.8890   31.6860   54.0490 C   0  0  0  0  0  0  0  0  0  0  0  0
   57.2960   30.4600   54.3600 C   0  0  0  0  0  0  0  0  0  0  0  0
   53.2610   29.5520   53.6100 C   0  0  0  0  0  0  0  0  0  0  0  0
   52.5190   30.4360   54.4310 C   0  0  0  0  0  0  0  0  0  0  0  0
   51.6970   31.4220   53.8590 C   0  0  0  0  0  0  0  0  0  0  0  0
   51.6350   31.4980   52.4700 C   0  0  0  0  0  0  0  0  0  0  0  0
   50.9110   32.3690   51.7430 N   0  0  0  0  0  0  0  0  0  0  0  0
   51.1930   32.0320   50.4620 C   0  0  0  0  0  0  0  0  0  0  0  0
   50.6460   32.6910   49.3690 O   0  0  0  0  0  0  0  0  0  0  0  0
   52.0780   30.9670   50.3690 C   0  0  0  0  0  0  0  0  0  0  0  0
   52.3480   30.6390   51.6750 C   0  0  0  0  0  0  0  0  0  0  0  0
   53.1710   29.6500   52.2070 C   0  0  0  0  0  0  0  0  0  0  0  0
   56.4730   27.6400   53.5920 H   0  0  0  0  0  0  0  0  0  0  0  0
   55.7230   29.8480   51.3819 H   0  0  0  0  0  0  0  0  0  0  0  0
   56.7922   32.0357   50.8334 H   0  0  0  0  0  0  0  0  0  0  0  0
   58.1794   33.2156   52.5417 H   0  0  0  0  0  0  0  0  0  0  0  0
   58.4984   32.2074   54.8018 H   0  0  0  0  0  0  0  0  0  0  0  0
   57.4387   30.0228   55.3593 H   0  0  0  0  0  0  0  0  0  0  0  0
   52.5867   30.3501   55.5255 H   0  0  0  0  0  0  0  0  0  0  0  0
   51.1195   32.1135   54.4901 H   0  0  0  0  0  0  0  0  0  0  0  0
   52.4728   30.4939   49.4578 H   0  0  0  0  0  0  0  0  0  0  0  0
   53.7330   28.9669   51.5531 H   0  0  0  0  0  0  0  0  0  0  0  0
  1  2  2  0
  2  3  2  0
  2  4  1  0
  4  5  1  0
  5  6  2  0
  6  7  1  0
  7  8  2  0
  8  9  1  0
  9 10  2  0
  2 11  1  0
 11 12  2  0
 12 13  1  0
 13 14  2  0
 14 15  1  0
 15 16  1  0
 16 17  1  0
 16 18  2  0
 18 19  1  0
 19 20  2  0
 10  5  1  0
 20 11  1  0
 19 14  1  0
  4 21  1  0
  6 22  1  0
  7 23  1  0
  8 24  1  0
  9 25  1  0
 10 26  1  0
 12 27  1  0
 13 28  1  0
 18 29  1  0
 20 30  1  0
M  CHG  2  15  -1  17  -1
M  END
>  <UniqueID>  (21) 
17

>  <SMILES>  (21) 
O=S(=O)(Nc1ccccc1)c1ccc2[n-]c([O-])cc2c1

>  <Energy>  (21) 
67.3557363950447

>  <Genealogy>  (21) 
O=S(=O)(Nc1ccccc1)c1ccc2[n-]c([O-])cc2c1 (protonated)
O=S(=O)(Nc1ccccc1)c1ccc2[n-]c([O-])cc2c1 (3D coordinates assigned)
O=S(=O)(Nc1ccccc1)c1ccc2[n-]c([O-])cc2c1 (optimized conformer: 67.3557363950447 kcal/mol)

>  <smiles>  (21) 
O=S(=O)(Nc1ccccc1)c1ccc2[nH]c(O)cc2c1

>  <score_type>  (21) 
oracle

>  <origin>  (21) 
adg

>  <m_score__min__energy>  (21) 
-12.84

>  <m_primary>  (21) 
energy

$$$$
21:0
     RDKit          3D

 45 47  0  0  0  0  0  0  0  0999 V2000
   57.0090   23.8480   48.2830 N   0  0  0  0  0  0  0  0  0  0  0  0
   56.9670   22.7260   47.3990 C   0  0  0  0  0  0  0  0  0  0  0  0
   57.1110   21.5670   47.8690 O   0  0  0  0  0  0  0  0  0  0  0  0
   56.7650   22.9140   45.9430 C   0  0  0  0  0  0  0  0  0  0  0  0
   57.2870   21.9560   45.0540 C   0  0  0  0  0  0  0  0  0  0  0  0
   57.0280   22.0420   43.6840 C   0  0  0  0  0  0  0  0  0  0  0  0
   56.2370   23.0770   43.1850 C   0  0  0  0  0  0  0  0  0  0  0  0
   55.7200   24.0410   44.0510 C   0  0  0  0  0  0  0  0  0  0  0  0
   55.9980   23.9890   45.4240 C   0  0  0  0  0  0  0  0  0  0  0  0
   55.4910   25.0420   46.2550 N   0  0  0  0  0  0  0  0  0  0  0  0
   56.0920   26.3360   46.3700 C   0  0  0  0  0  0  0  0  0  0  0  0
   57.0960   26.4810   47.1150 O   0  0  0  0  0  0  0  0  0  0  0  0
   55.5670   27.4430   45.6230 N   0  0  0  0  0  0  0  0  0  0  0  0
   56.2740   28.6300   45.2340 C   0  0  0  0  0  0  0  0  0  0  0  0
   55.5940   29.5940   44.4910 C   0  0  0  0  0  0  0  0  0  0  0  0
   56.2340   30.7720   44.1080 C   0  0  0  0  0  0  0  0  0  0  0  0
   57.5700   31.0170   44.4670 C   0  0  0  0  0  0  0  0  0  0  0  0
   58.1910   32.2800   44.0080 C   0  0  0  0  0  0  0  0  0  0  0  0
   58.6570   33.0940   44.8480 O   0  0  0  0  0  0  0  0  0  0  0  0
   58.2110   32.6170   42.6610 O   0  0  0  0  0  0  0  0  0  0  0  0
   58.2590   30.0600   45.2610 C   0  0  0  0  0  0  0  0  0  0  0  0
   59.6450   30.3090   45.8240 C   0  0  0  0  0  0  0  0  0  0  0  0
   59.9610   29.3380   46.9330 C   0  0  0  0  0  0  0  0  0  0  0  0
   59.8420   29.7250   48.2800 C   0  0  0  0  0  0  0  0  0  0  0  0
   60.1320   28.8170   49.3020 C   0  0  0  0  0  0  0  0  0  0  0  0
   60.5470   27.5180   48.9900 C   0  0  0  0  0  0  0  0  0  0  0  0
   60.6760   27.1280   47.6550 C   0  0  0  0  0  0  0  0  0  0  0  0
   60.3870   28.0340   46.6290 C   0  0  0  0  0  0  0  0  0  0  0  0
   57.5930   28.8780   45.6390 C   0  0  0  0  0  0  0  0  0  0  0  0
   57.1850   23.7060   49.3030 H   0  0  0  0  0  0  0  0  0  0  0  0
   56.8060   24.8130   47.9410 H   0  0  0  0  0  0  0  0  0  0  0  0
   57.9044   21.1322   45.4414 H   0  0  0  0  0  0  0  0  0  0  0  0
   57.4485   21.2923   42.9976 H   0  0  0  0  0  0  0  0  0  0  0  0
   56.0207   23.1332   42.1079 H   0  0  0  0  0  0  0  0  0  0  0  0
   55.0886   24.8490   43.6529 H   0  0  0  0  0  0  0  0  0  0  0  0
   54.5455   29.4241   44.2050 H   0  0  0  0  0  0  0  0  0  0  0  0
   55.6853   31.5198   43.5166 H   0  0  0  0  0  0  0  0  0  0  0  0
   60.3863   30.1903   45.0201 H   0  0  0  0  0  0  0  0  0  0  0  0
   59.6788   31.3299   46.2323 H   0  0  0  0  0  0  0  0  0  0  0  0
   59.5194   30.7465   48.5300 H   0  0  0  0  0  0  0  0  0  0  0  0
   60.0338   29.1243   50.3536 H   0  0  0  0  0  0  0  0  0  0  0  0
   60.7717   26.8038   49.7959 H   0  0  0  0  0  0  0  0  0  0  0  0
   61.0052   26.1074   47.4101 H   0  0  0  0  0  0  0  0  0  0  0  0
   60.4938   27.7240   45.5790 H   0  0  0  0  0  0  0  0  0  0  0  0
   58.1162   28.1376   46.2620 H   0  0  0  0  0  0  0  0  0  0  0  0
  1  2  1  0
  2  3  2  0
  2  4  1  0
  4  5  2  0
  5  6  1  0
  6  7  2  0
  7  8  1  0
  8  9  2  0
  9 10  1  0
 10 11  1  0
 11 12  2  0
 11 13  1  0
 13 14  1  0
 14 15  2  0
 15 16  1  0
 16 17  2  0
 17 18  1  0
 18 19  2  0
 18 20  1  0
 17 21  1  0
 21 22  1  0
 22 23  1  0
 23 24  2  0
 24 25  1  0
 25 26  2  0
 26 27  1  0
 27 28  2  0
 21 29  2  0
  9  4  1  0
 29 14  1  0
 28 23  1  0
  1 30  1  0
  1 31  1  0
  5 32  1  0
  6 33  1  0
  7 34  1  0
  8 35  1  0
 15 36  1  0
 16 37  1  0
 22 38  1  0
 22 39  1  0
 24 40  1  0
 25 41  1  0
 26 42  1  0
 27 43  1  0
 28 44  1  0
 29 45  1  0
M  CHG  3  10  -1  13  -1  20  -1
M  END
>  <UniqueID>  (22) 
18

>  <SMILES>  (22) 
NC(=O)c1ccccc1[N-]C(=O)[N-]c1ccc(C(=O)[O-])c(Cc2ccccc2)c1

>  <Energy>  (22) 
65.53359412243283

>  <Genealogy>  (22) 
NC(=O)c1ccccc1[N-]C(=O)[N-]c1ccc(C(=O)[O-])c(Cc2ccccc2)c1 (protonated)
NC(=O)c1ccccc1[N-]C(=O)[N-]c1ccc(C(=O)[O-])c(Cc2ccccc2)c1 (3D coordinates assigned)
NC(=O)c1ccccc1[N-]C(=O)[N-]c1ccc(C(=O)[O-])c(Cc2ccccc2)c1 (optimized conformer: 65.53359412243283 kcal/mol)

>  <smiles>  (22) 
NC(=O)c1ccccc1NC(=O)Nc1ccc(C(=O)O)c(Cc2ccccc2)c1

>  <score_type>  (22) 
oracle

>  <origin>  (22) 
adg

>  <m_score__min__energy>  (22) 
-13.58

>  <m_primary>  (22) 
energy

$$$$
22:0
     RDKit          3D

 38 40  0  0  0  0  0  0  0  0999 V2000
   58.1309   32.7700   52.1875 H   0  0  0  0  0  0  0  0  0  0  0  0
   57.6820   31.8590   51.7650 C   0  0  0  0  0  0  0  0  0  0  0  0
   57.9720   28.5320   46.1110 N   0  0  0  0  0  0  0  0  0  0  0  0
   55.8210   30.4000   51.7160 O   0  0  0  0  0  0  0  0  0  0  0  0
   54.4440   30.2690   51.9550 C   0  0  0  0  0  0  0  0  0  0  0  0
   53.9190   29.1890   52.6840 C   0  0  0  0  0  0  0  0  0  0  0  0
   54.5925   28.4120   53.0747 H   0  0  0  0  0  0  0  0  0  0  0  0
   52.5450   29.0990   52.9140 C   0  0  0  0  0  0  0  0  0  0  0  0
   52.1379   28.2457   53.4762 H   0  0  0  0  0  0  0  0  0  0  0  0
   51.6850   30.0900   52.4320 C   0  0  0  0  0  0  0  0  0  0  0  0
   50.6029   30.0101   52.6125 H   0  0  0  0  0  0  0  0  0  0  0  0
   52.1950   31.1880   51.7180 C   0  0  0  0  0  0  0  0  0  0  0  0
   51.2850   32.2400   51.2160 C   0  0  0  0  0  0  0  0  0  0  0  0
   50.7430   33.0530   52.0120 O   0  0  0  0  0  0  0  0  0  0  0  0
   51.0140   32.3470   49.8560 O   0  0  0  0  0  0  0  0  0  0  0  0
   53.5810   31.2690   51.4900 C   0  0  0  0  0  0  0  0  0  0  0  0
   53.9917   32.1284   50.9397 H   0  0  0  0  0  0  0  0  0  0  0  0
   58.2880   31.2380   50.5710 C   0  0  0  0  0  0  0  0  0  0  0  0
   58.5180   31.9750   49.3950 C   0  0  0  0  0  0  0  0  0  0  0  0
   58.2382   33.0380   49.3521 H   0  0  0  0  0  0  0  0  0  0  0  0
   59.1000   31.3640   48.2810 C   0  0  0  0  0  0  0  0  0  0  0  0
   59.2648   31.9454   47.3618 H   0  0  0  0  0  0  0  0  0  0  0  0
   59.4760   30.0100   48.3290 C   0  0  0  0  0  0  0  0  0  0  0  0
   60.0770   29.3510   47.2050 N   0  0  0  0  0  0  0  0  0  0  0  0
   59.4000   28.5270   46.2460 C   0  0  0  0  0  0  0  0  0  0  0  0
   60.0790   27.7660   45.5100 O   0  0  0  0  0  0  0  0  0  0  0  0
   56.6280   31.3480   52.3250 N   0  0  0  0  0  0  0  0  0  0  0  0
   57.2910   29.1980   45.2250 C   0  0  0  0  0  0  0  0  0  0  0  0
   55.9570   29.0540   45.0900 N   0  0  0  0  0  0  0  0  0  0  0  0
   55.4680   29.8220   44.0800 C   0  0  0  0  0  0  0  0  0  0  0  0
   54.3989   29.8451   43.8223 H   0  0  0  0  0  0  0  0  0  0  0  0
   56.4150   30.5760   43.3960 C   0  0  0  0  0  0  0  0  0  0  0  0
   56.2147   31.2558   42.5547 H   0  0  0  0  0  0  0  0  0  0  0  0
   57.9210   30.2670   44.0800 S   0  0  0  0  0  0  0  0  0  0  0  0
   59.2240   29.2710   49.4910 C   0  0  0  0  0  0  0  0  0  0  0  0
   59.4859   28.2032   49.5271 H   0  0  0  0  0  0  0  0  0  0  0  0
   58.6420   29.8810   50.6050 C   0  0  0  0  0  0  0  0  0  0  0  0
   58.4598   29.2924   51.5162 H   0  0  0  0  0  0  0  0  0  0  0  0
  1  2  1  0
  2  3  2  0
  3  4  1  0
  4  5  1  0
  5  6  2  0
  6  7  1  0
  6  8  1  0
  8  9  1  0
  8 10  2  0
 10 11  1  0
 10 12  1  0
 12 13  1  0
 13 14  2  0
 13 15  1  0
 12 16  2  0
 16 17  1  0
  2 18  1  0
 18 19  2  0
 19 20  1  0
 19 21  1  0
 21 22  1  0
 21 23  2  0
 23 24  1  0
 24 25  1  0
 25 26  2  0
 25 27  1  0
 27 28  2  0
 28 29  1  0
 29 30  1  0
 30 31  1  0
 30 32  2  0
 32 33  1  0
 32 34  1  0
 23 35  1  0
 35 36  1  0
 35 37  2  0
 37 38  1  0
 16  5  1  0
 37 18  1  0
 34 28  1  0
M  CHG  3  15  -1  24  -1  29  -1
M  END
>  <UniqueID>  (23) 
19

>  <SMILES>  (23) 
O=C(/N=c1/[n-]ccs1)[N-]c1ccc(/C=N/Oc2cccc(C(=O)[O-])c2)cc1

>  <Energy>  (23) 
87.7763284849942

>  <Genealogy>  (23) 
O=C(N=c1[n-]ccs1)[N-]c1ccc(C=NOc2cccc(C(=O)[O-])c2)cc1 (protonated)
O=C(/N=c1/[n-]ccs1)[N-]c1ccc(/C=N/Oc2cccc(C(=O)[O-])c2)cc1 (cis-trans isomerization)
O=C(/N=c1/[n-]ccs1)[N-]c1ccc(/C=N/Oc2cccc(C(=O)[O-])c2)cc1 (3D coordinates assigned)
O=C(/N=c1/[n-]ccs1)[N-]c1ccc(/C=N/Oc2cccc(C(=O)[O-])c2)cc1 (optimized conformer: 87.7763284849942 kcal/mol)

>  <smiles>  (23) 
O=C(N=c1[nH]ccs1)Nc1ccc(C=NOc2cccc(C(=O)O)c2)cc1

>  <score_type>  (23) 
oracle

>  <origin>  (23) 
adg

>  <m_score__min__energy>  (23) 
-14.4

>  <m_primary>  (23) 
energy

$$$$
23:0
     RDKit          3D

 39 43  0  0  0  0  0  0  0  0999 V2000
   56.3219   29.0132   43.4779 H   0  0  0  0  0  0  0  0  0  0  0  0
   56.7850   29.3330   44.4230 C   0  0  0  0  0  0  0  0  0  0  0  0
   56.7280   30.5320   44.9240 N   0  0  0  0  0  0  0  0  0  0  0  0
   57.4310   30.5050   46.1380 N   0  0  0  0  0  0  0  0  0  0  0  0
   58.2780   31.4390   46.6130 C   0  0  0  0  0  0  0  0  0  0  0  0
   58.1230   32.7240   46.4910 N   0  0  0  0  0  0  0  0  0  0  0  0
   57.5610   33.3730   45.3110 C   0  0  0  0  0  0  0  0  0  0  0  0
   56.5037   33.1379   45.5029 H   0  0  0  0  0  0  0  0  0  0  0  0
   58.4870   33.3090   44.1120 C   0  0  0  0  0  0  0  0  0  0  0  0
   59.4351   32.7552   44.1780 H   0  0  0  0  0  0  0  0  0  0  0  0
   58.3801   33.0002   43.0617 H   0  0  0  0  0  0  0  0  0  0  0  0
   58.3140   34.6150   44.8730 C   0  0  0  0  0  0  0  0  0  0  0  0
   59.1368   35.0058   45.4896 H   0  0  0  0  0  0  0  0  0  0  0  0
   58.0300   35.6425   44.6016 H   0  0  0  0  0  0  0  0  0  0  0  0
   59.3750   30.8840   47.1780 N   0  0  0  0  0  0  0  0  0  0  0  0
   59.1560   29.5610   46.9640 C   0  0  0  0  0  0  0  0  0  0  0  0
   60.0170   28.6210   47.2220 N   0  0  0  0  0  0  0  0  0  0  0  0
   60.4310   28.1580   48.5180 C   0  0  0  0  0  0  0  0  0  0  0  0
   60.4250   26.7930   48.8660 C   0  0  0  0  0  0  0  0  0  0  0  0
   60.1239   26.0390   48.1239 H   0  0  0  0  0  0  0  0  0  0  0  0
   60.8010   26.3940   50.1530 C   0  0  0  0  0  0  0  0  0  0  0  0
   60.8087   25.3260   50.4164 H   0  0  0  0  0  0  0  0  0  0  0  0
   61.1670   27.3500   51.1050 C   0  0  0  0  0  0  0  0  0  0  0  0
   61.4730   27.0334   52.1130 H   0  0  0  0  0  0  0  0  0  0  0  0
   61.1440   28.7070   50.7760 C   0  0  0  0  0  0  0  0  0  0  0  0
   61.4217   29.4597   51.5285 H   0  0  0  0  0  0  0  0  0  0  0  0
   60.7680   29.1100   49.4900 C   0  0  0  0  0  0  0  0  0  0  0  0
   60.7367   30.1808   49.2402 H   0  0  0  0  0  0  0  0  0  0  0  0
   57.9560   29.3330   46.3880 N   0  0  0  0  0  0  0  0  0  0  0  0
   57.5670   28.4750   45.3220 C   0  0  0  0  0  0  0  0  0  0  0  0
   57.8090   27.1680   45.1720 C   0  0  0  0  0  0  0  0  0  0  0  0
   58.4681   26.8585   44.3475 H   0  0  0  0  0  0  0  0  0  0  0  0
   57.2510   26.1170   46.0380 C   0  0  0  0  0  0  0  0  0  0  0  0
   57.9810   25.1060   46.5410 N   0  0  0  0  0  0  0  0  0  0  0  0
   57.0700   24.3540   47.1920 C   0  0  0  0  0  0  0  0  0  0  0  0
   57.3780   23.3050   47.8160 O   0  0  0  0  0  0  0  0  0  0  0  0
   55.8000   24.8070   47.1150 N   0  0  0  0  0  0  0  0  0  0  0  0
   55.9290   25.9170   46.3720 C   0  0  0  0  0  0  0  0  0  0  0  0
   54.8560   26.7100   45.9840 O   0  0  0  0  0  0  0  0  0  0  0  0
  1  2  1  0
  2  3  2  0
  3  4  1  0
  4  5  1  0
  5  6  2  0
  6  7  1  0
  7  8  1  0
  7  9  1  0
  9 10  1  0
  9 11  1  0
  9 12  1  0
 12 13  1  0
 12 14  1  0
  5 15  1  0
 15 16  1  0
 16 17  2  3
 17 18  1  0
 18 19  2  0
 19 20  1  0
 19 21  1  0
 21 22  1  0
 21 23  2  0
 23 24  1  0
 23 25  1  0
 25 26  1  0
 25 27  2  0
 27 28  1  0
 16 29  1  0
 29 30  1  0
 30 31  2  3
 31 32  1  0
 31 33  1  0
 33 34  1  0
 34 35  1  0
 35 36  2  0
 35 37  1  0
 37 38  1  0
 38 39  1  0
 30  2  1  0
 38 33  2  0
 29  4  1  0
 12  7  1  0
 27 18  1  0
M  CHG  4  15  -1  34  -1  37  -1  39  -1
M  END
>  <UniqueID>  (24) 
20

>  <SMILES>  (24) 
O=c1[n-]c([O-])c(C=C2C=Nn3/c(=N\C4CC4)[n-]c(=Nc4ccccc4)n32)[n-]1

>  <Energy>  (24) 
443.4303901749784

>  <Genealogy>  (24) 
O=c1[n-]c([O-])c(C=C2C=Nn3c(=NC4CC4)[n-]c(=Nc4ccccc4)n32)[n-]1 (protonated)
O=c1[n-]c([O-])c(C=C2C=Nn3/c(=N\C4CC4)[n-]c(=Nc4ccccc4)n32)[n-]1 (cis-trans isomerization)
O=c1[n-]c([O-])c(C=C2C=Nn3/c(=N\C4CC4)[n-]c(=Nc4ccccc4)n32)[n-]1 (3D coordinates assigned)
O=c1[n-]c([O-])c(C=C2C=Nn3/c(=N\C4CC4)[n-]c(=Nc4ccccc4)n32)[n-]1 (nonaromatic ring conformer: 443.4303901749784 kcal/mol)

>  <smiles>  (24) 
O=c1[nH]c(O)c(C=C2C=Nn3c(=NC4CC4)[nH]c(=Nc4ccccc4)n32)[nH]1

>  <score_type>  (24) 
oracle

>  <origin>  (24) 
adg

>  <m_score__min__energy>  (24) 
-16.68

>  <m_primary>  (24) 
energy

$$$$
24:0
     RDKit          3D

 43 46  0  0  0  0  0  0  0  0999 V2000
   56.1170   28.7440   45.2190 O   0  0  0  0  0  0  0  0  0  0  0  0
   57.4420   28.0530   45.3800 S   0  0  0  0  0  0  0  0  0  0  0  0
   58.2870   28.3380   44.1700 O   0  0  0  0  0  0  0  0  0  0  0  0
   58.2390   28.6620   46.8000 N   0  0  0  0  0  0  0  0  0  0  0  0
   59.4320   27.8580   47.0830 C   0  0  0  0  0  0  0  0  0  0  0  0
   59.8970   28.0850   48.5200 C   0  0  0  0  0  0  0  0  0  0  0  0
   58.8970   29.3810   49.3410 S   0  0  0  0  0  0  0  0  0  0  0  0
   59.9090   30.7530   48.7820 C   0  0  0  0  0  0  0  0  0  0  0  0
   61.2130   30.9450   49.2820 C   0  0  0  0  0  0  0  0  0  0  0  0
   62.0040   32.0240   48.8270 C   0  0  0  0  0  0  0  0  0  0  0  0
   61.5020   32.9270   47.8730 C   0  0  0  0  0  0  0  0  0  0  0  0
   60.2090   32.7130   47.4010 C   0  0  0  0  0  0  0  0  0  0  0  0
   59.4320   31.6620   47.8380 C   0  0  0  0  0  0  0  0  0  0  0  0
   58.2510   31.6650   47.2490 O   0  0  0  0  0  0  0  0  0  0  0  0
   58.2430   32.7010   46.4320 C   0  0  0  0  0  0  0  0  0  0  0  0
   57.2090   33.1120   45.5950 C   0  0  0  0  0  0  0  0  0  0  0  0
   57.4200   34.2560   44.8010 C   0  0  0  0  0  0  0  0  0  0  0  0
   58.6450   34.9570   44.8610 C   0  0  0  0  0  0  0  0  0  0  0  0
   59.6760   34.5230   45.7150 C   0  0  0  0  0  0  0  0  0  0  0  0
   59.4370   33.3890   46.4870 C   0  0  0  0  0  0  0  0  0  0  0  0
   57.1660   26.3180   45.5470 C   0  0  0  0  0  0  0  0  0  0  0  0
   58.2290   25.4150   45.3930 C   0  0  0  0  0  0  0  0  0  0  0  0
   58.0120   24.0410   45.5340 C   0  0  0  0  0  0  0  0  0  0  0  0
   56.7350   23.5610   45.8300 C   0  0  0  0  0  0  0  0  0  0  0  0
   55.6700   24.4520   45.9840 C   0  0  0  0  0  0  0  0  0  0  0  0
   55.8810   25.8290   45.8430 C   0  0  0  0  0  0  0  0  0  0  0  0
   54.8090   26.7020   46.0000 O   0  0  0  0  0  0  0  0  0  0  0  0
   58.5470   29.6340   46.5710 H   0  0  0  0  0  0  0  0  0  0  0  0
   59.1934   26.7934   46.9429 H   0  0  0  0  0  0  0  0  0  0  0  0
   60.2365   28.1581   46.3955 H   0  0  0  0  0  0  0  0  0  0  0  0
   59.7977   27.1448   49.0823 H   0  0  0  0  0  0  0  0  0  0  0  0
   60.9462   28.4147   48.4992 H   0  0  0  0  0  0  0  0  0  0  0  0
   61.6179   30.2496   50.0320 H   0  0  0  0  0  0  0  0  0  0  0  0
   63.0215   32.1588   49.2226 H   0  0  0  0  0  0  0  0  0  0  0  0
   62.1081   33.7713   47.5127 H   0  0  0  0  0  0  0  0  0  0  0  0
   56.2578   32.5609   45.5551 H   0  0  0  0  0  0  0  0  0  0  0  0
   56.6237   34.6068   44.1281 H   0  0  0  0  0  0  0  0  0  0  0  0
   58.7942   35.8492   44.2352 H   0  0  0  0  0  0  0  0  0  0  0  0
   60.6347   35.0595   45.7706 H   0  0  0  0  0  0  0  0  0  0  0  0
   59.2368   25.7895   45.1605 H   0  0  0  0  0  0  0  0  0  0  0  0
   58.8486   23.3373   45.4115 H   0  0  0  0  0  0  0  0  0  0  0  0
   56.5670   22.4797   45.9422 H   0  0  0  0  0  0  0  0  0  0  0  0
   54.6645   24.0713   46.2163 H   0  0  0  0  0  0  0  0  0  0  0  0
  1  2  2  0
  2  3  2  0
  2  4  1  0
  4  5  1  0
  5  6  1  0
  6  7  1  0
  7  8  1  0
  8  9  2  0
  9 10  1  0
 10 11  2  0
 11 12  1  0
 12 13  2  0
 13 14  1  0
 14 15  1  0
 15 16  2  0
 16 17  1  0
 17 18  2  0
 18 19  1  0
 19 20  2  0
  2 21  1  0
 21 22  2  0
 22 23  1  0
 23 24  2  0
 24 25  1  0
 25 26  2  0
 26 27  1  0
 13  8  1  0
 20 15  1  0
 26 21  1  0
 20 12  1  0
  4 28  1  0
  5 29  1  0
  5 30  1  0
  6 31  1  0
  6 32  1  0
  9 33  1  0
 10 34  1  0
 11 35  1  0
 16 36  1  0
 17 37  1  0
 18 38  1  0
 19 39  1  0
 22 40  1  0
 23 41  1  0
 24 42  1  0
 25 43  1  0
M  CHG  1  27  -1
M  END
>  <UniqueID>  (25) 
21

>  <SMILES>  (25) 
O=S(=O)(NCCSc1cccc2c1oc1ccccc12)c1ccccc1[O-]

>  <Energy>  (25) 
83.16745723191985

>  <Genealogy>  (25) 
O=S(=O)(NCCSc1cccc2c1oc1ccccc12)c1ccccc1[O-] (protonated)
O=S(=O)(NCCSc1cccc2c1oc1ccccc12)c1ccccc1[O-] (3D coordinates assigned)
O=S(=O)(NCCSc1cccc2c1oc1ccccc12)c1ccccc1[O-] (optimized conformer: 83.16745723191985 kcal/mol)

>  <smiles>  (25) 
O=S(=O)(NCCSc1cccc2c1oc1ccccc12)c1ccccc1O

>  <score_type>  (25) 
oracle

>  <origin>  (25) 
adg

>  <m_score__min__energy>  (25) 
-13.26

>  <m_primary>  (25) 
energy

$$$$
25:0
     RDKit          3D

 44 46  0  0  0  0  0  0  0  0999 V2000
   61.3850   26.4110   48.1050 O   0  0  0  0  0  0  0  0  0  0  0  0
   60.5390   27.1760   47.5680 C   0  0  0  0  0  0  0  0  0  0  0  0
   60.3150   27.1150   46.0910 C   0  0  0  0  0  0  0  0  0  0  0  0
   58.9590   27.5980   45.7620 N   0  0  0  0  0  0  0  0  0  0  0  0
   57.8600   26.9660   46.2860 C   0  0  0  0  0  0  0  0  0  0  0  0
   57.9880   25.9640   47.0400 O   0  0  0  0  0  0  0  0  0  0  0  0
   56.5830   27.4240   45.9880 C   0  0  0  0  0  0  0  0  0  0  0  0
   56.4360   28.5370   45.1730 C   0  0  0  0  0  0  0  0  0  0  0  0
   55.1510   28.9760   44.8640 O   0  0  0  0  0  0  0  0  0  0  0  0
   57.5370   29.1880   44.6880 N   0  0  0  0  0  0  0  0  0  0  0  0
   57.3650   30.3650   43.8150 C   0  0  0  0  0  0  0  0  0  0  0  0
   56.5810   31.4580   44.5450 C   0  0  0  0  0  0  0  0  0  0  0  0
   57.5010   32.5630   44.9920 C   0  0  0  0  0  0  0  0  0  0  0  0
   57.3830   33.1030   46.2840 C   0  0  0  0  0  0  0  0  0  0  0  0
   58.2160   34.1520   46.6870 C   0  0  0  0  0  0  0  0  0  0  0  0
   59.1620   34.6750   45.8020 C   0  0  0  0  0  0  0  0  0  0  0  0
   59.2740   34.1520   44.5100 C   0  0  0  0  0  0  0  0  0  0  0  0
   58.4440   33.1040   44.1030 C   0  0  0  0  0  0  0  0  0  0  0  0
   58.7950   28.7110   44.9730 C   0  0  0  0  0  0  0  0  0  0  0  0
   59.8090   29.3020   44.5040 O   0  0  0  0  0  0  0  0  0  0  0  0
   59.8660   28.1760   48.3420 N   0  0  0  0  0  0  0  0  0  0  0  0
   60.0840   29.5910   48.2540 C   0  0  0  0  0  0  0  0  0  0  0  0
   61.0010   30.0690   47.3080 C   0  0  0  0  0  0  0  0  0  0  0  0
   61.2340   31.4410   47.1800 C   0  0  0  0  0  0  0  0  0  0  0  0
   60.5400   32.3470   47.9840 C   0  0  0  0  0  0  0  0  0  0  0  0
   59.6000   31.8830   48.9080 C   0  0  0  0  0  0  0  0  0  0  0  0
   59.3630   30.5100   49.0420 C   0  0  0  0  0  0  0  0  0  0  0  0
   58.3910   30.0940   49.8920 F   0  0  0  0  0  0  0  0  0  0  0  0
   61.0591   27.7469   45.5840 H   0  0  0  0  0  0  0  0  0  0  0  0
   60.4169   26.0727   45.7546 H   0  0  0  0  0  0  0  0  0  0  0  0
   55.6988   26.9103   46.3934 H   0  0  0  0  0  0  0  0  0  0  0  0
   58.3540   30.7550   43.5327 H   0  0  0  0  0  0  0  0  0  0  0  0
   56.8074   30.0648   42.9156 H   0  0  0  0  0  0  0  0  0  0  0  0
   55.8215   31.8727   43.8659 H   0  0  0  0  0  0  0  0  0  0  0  0
   56.1002   31.0174   45.4308 H   0  0  0  0  0  0  0  0  0  0  0  0
   56.6333   32.6996   46.9805 H   0  0  0  0  0  0  0  0  0  0  0  0
   58.1260   34.5657   47.7023 H   0  0  0  0  0  0  0  0  0  0  0  0
   59.8185   35.4978   46.1214 H   0  0  0  0  0  0  0  0  0  0  0  0
   60.0169   34.5664   43.8126 H   0  0  0  0  0  0  0  0  0  0  0  0
   58.5296   32.7015   43.0829 H   0  0  0  0  0  0  0  0  0  0  0  0
   61.5404   29.3602   46.6626 H   0  0  0  0  0  0  0  0  0  0  0  0
   61.9653   31.8076   46.4446 H   0  0  0  0  0  0  0  0  0  0  0  0
   60.7331   33.4259   47.8902 H   0  0  0  0  0  0  0  0  0  0  0  0
   59.0447   32.5988   49.5319 H   0  0  0  0  0  0  0  0  0  0  0  0
  1  2  2  0
  2  3  1  0
  3  4  1  0
  4  5  1  0
  5  6  2  0
  5  7  1  0
  7  8  2  0
  8  9  1  0
  8 10  1  0
 10 11  1  0
 11 12  1  0
 12 13  1  0
 13 14  2  0
 14 15  1  0
 15 16  2  0
 16 17  1  0
 17 18  2  0
 10 19  1  0
 19 20  2  0
  2 21  1  0
 21 22  1  0
 22 23  2  0
 23 24  1  0
 24 25  2  0
 25 26  1  0
 26 27  2  0
 27 28  1  0
 19  4  1  0
 27 22  1  0
 18 13  1  0
  3 29  1  0
  3 30  1  0
  7 31  1  0
 11 32  1  0
 11 33  1  0
 12 34  1  0
 12 35  1  0
 14 36  1  0
 15 37  1  0
 16 38  1  0
 17 39  1  0
 18 40  1  0
 23 41  1  0
 24 42  1  0
 25 43  1  0
 26 44  1  0
M  CHG  2   9  -1  21  -1
M  END
>  <UniqueID>  (26) 
22

>  <SMILES>  (26) 
O=C(Cn1c(=O)cc([O-])n(CCc2ccccc2)c1=O)[N-]c1ccccc1F

>  <Energy>  (26) 
54.658393724186

>  <Genealogy>  (26) 
O=C(Cn1c(=O)cc([O-])n(CCc2ccccc2)c1=O)[N-]c1ccccc1F (protonated)
O=C(Cn1c(=O)cc([O-])n(CCc2ccccc2)c1=O)[N-]c1ccccc1F (3D coordinates assigned)
O=C(Cn1c(=O)cc([O-])n(CCc2ccccc2)c1=O)[N-]c1ccccc1F (optimized conformer: 54.658393724186 kcal/mol)

>  <smiles>  (26) 
O=C(Cn1c(=O)cc(O)n(CCc2ccccc2)c1=O)Nc1ccccc1F

>  <score_type>  (26) 
oracle

>  <origin>  (26) 
adg

>  <m_score__min__energy>  (26) 
-11.210000000000001

>  <m_primary>  (26) 
energy

$$$$
26:0
     RDKit          3D

 42 44  0  0  0  0  0  0  0  0999 V2000
   56.3110   30.8250   53.6710 O   0  0  0  0  0  0  0  0  0  0  0  0
   56.1190   29.8400   52.9100 C   0  0  0  0  0  0  0  0  0  0  0  0
   54.8340   29.0600   53.0210 C   0  0  0  0  0  0  0  0  0  0  0  0
   53.9270   29.3620   51.9100 N   0  0  0  0  0  0  0  0  0  0  0  0
   52.9120   30.3810   51.9860 C   0  0  0  0  0  0  0  0  0  0  0  0
   52.3830   30.7340   53.2390 C   0  0  0  0  0  0  0  0  0  0  0  0
   51.4090   31.7310   53.3440 C   0  0  0  0  0  0  0  0  0  0  0  0
   50.9520   32.3890   52.1990 C   0  0  0  0  0  0  0  0  0  0  0  0
   49.9860   33.3820   52.3120 O   0  0  0  0  0  0  0  0  0  0  0  0
   51.4670   32.0470   50.9450 C   0  0  0  0  0  0  0  0  0  0  0  0
   51.0160   32.6980   49.8030 O   0  0  0  0  0  0  0  0  0  0  0  0
   52.4390   31.0460   50.8360 C   0  0  0  0  0  0  0  0  0  0  0  0
   57.1210   29.5080   51.9390 N   0  0  0  0  0  0  0  0  0  0  0  0
   57.9090   30.4600   51.2140 C   0  0  0  0  0  0  0  0  0  0  0  0
   58.9440   30.0090   50.3880 C   0  0  0  0  0  0  0  0  0  0  0  0
   59.7810   30.9260   49.7440 C   0  0  0  0  0  0  0  0  0  0  0  0
   59.5690   32.3020   49.8980 C   0  0  0  0  0  0  0  0  0  0  0  0
   60.7220   33.4470   49.2200 S   0  0  0  0  0  0  0  0  0  0  0  0
   61.7080   32.7450   48.3280 O   0  0  0  0  0  0  0  0  0  0  0  0
   61.4740   34.1070   50.3420 O   0  0  0  0  0  0  0  0  0  0  0  0
   59.8740   34.6560   48.3080 N   0  0  0  0  0  0  0  0  0  0  0  0
   59.1810   34.4050   47.2380 C   0  0  0  0  0  0  0  0  0  0  0  0
   59.6260   34.8520   46.0340 N   0  0  0  0  0  0  0  0  0  0  0  0
   58.9180   34.6230   44.8970 C   0  0  0  0  0  0  0  0  0  0  0  0
   57.7150   33.9210   44.9540 C   0  0  0  0  0  0  0  0  0  0  0  0
   57.2730   33.4640   46.1940 C   0  0  0  0  0  0  0  0  0  0  0  0
   58.0100   33.7110   47.3070 N   0  0  0  0  0  0  0  0  0  0  0  0
   58.4900   32.7540   50.6710 C   0  0  0  0  0  0  0  0  0  0  0  0
   57.6600   31.8390   51.3210 C   0  0  0  0  0  0  0  0  0  0  0  0
   55.0661   27.9848   53.0113 H   0  0  0  0  0  0  0  0  0  0  0  0
   54.3370   29.3438   53.9604 H   0  0  0  0  0  0  0  0  0  0  0  0
   53.9840   28.7870   51.0380 H   0  0  0  0  0  0  0  0  0  0  0  0
   52.7384   30.2213   54.1450 H   0  0  0  0  0  0  0  0  0  0  0  0
   51.0013   31.9983   54.3301 H   0  0  0  0  0  0  0  0  0  0  0  0
   52.8367   30.7762   49.8465 H   0  0  0  0  0  0  0  0  0  0  0  0
   59.1001   28.9296   50.2445 H   0  0  0  0  0  0  0  0  0  0  0  0
   60.6081   30.5656   49.1148 H   0  0  0  0  0  0  0  0  0  0  0  0
   59.2943   34.9917   43.9313 H   0  0  0  0  0  0  0  0  0  0  0  0
   57.1290   33.7324   44.0424 H   0  0  0  0  0  0  0  0  0  0  0  0
   56.3291   32.9044   46.2708 H   0  0  0  0  0  0  0  0  0  0  0  0
   58.2970   33.8328   50.7655 H   0  0  0  0  0  0  0  0  0  0  0  0
   56.8090   32.1982   51.9184 H   0  0  0  0  0  0  0  0  0  0  0  0
  1  2  2  0
  2  3  1  0
  3  4  1  0
  4  5  1  0
  5  6  2  0
  6  7  1  0
  7  8  2  0
  8  9  1  0
  8 10  1  0
 10 11  1  0
 10 12  2  0
  2 13  1  0
 13 14  1  0
 14 15  2  0
 15 16  1  0
 16 17  2  0
 17 18  1  0
 18 19  2  0
 18 20  2  0
 18 21  1  0
 21 22  2  3
 22 23  1  0
 23 24  2  0
 24 25  1  0
 25 26  2  0
 26 27  1  0
 17 28  1  0
 28 29  2  0
 12  5  1  0
 29 14  1  0
 27 22  1  0
  3 30  1  0
  3 31  1  0
  4 32  1  0
  6 33  1  0
  7 34  1  0
 12 35  1  0
 15 36  1  0
 16 37  1  0
 24 38  1  0
 25 39  1  0
 26 40  1  0
 28 41  1  0
 29 42  1  0
M  CHG  4   9  -1  11  -1  13  -1  27  -1
M  END
>  <UniqueID>  (27) 
23

>  <SMILES>  (27) 
O=C(CNc1ccc([O-])c([O-])c1)[N-]c1ccc(S(=O)(=O)N=c2nccc[n-]2)cc1

>  <Energy>  (27) 
53.04351721635103

>  <Genealogy>  (27) 
O=C(CNc1ccc([O-])c([O-])c1)[N-]c1ccc(S(=O)(=O)N=c2nccc[n-]2)cc1 (protonated)
O=C(CNc1ccc([O-])c([O-])c1)[N-]c1ccc(S(=O)(=O)N=c2nccc[n-]2)cc1 (3D coordinates assigned)
O=C(CNc1ccc([O-])c([O-])c1)[N-]c1ccc(S(=O)(=O)N=c2nccc[n-]2)cc1 (optimized conformer: 53.04351721635103 kcal/mol)

>  <smiles>  (27) 
O=C(CNc1ccc(O)c(O)c1)Nc1ccc(S(=O)(=O)N=c2nccc[nH]2)cc1

>  <score_type>  (27) 
oracle

>  <origin>  (27) 
adg

>  <m_score__min__energy>  (27) 
-19.73

>  <m_primary>  (27) 
energy

$$$$
27:0
     RDKit          3D

 47 49  0  0  0  0  0  0  0  0999 V2000
   55.7040   29.3460   45.2440 O   0  0  0  0  0  0  0  0  0  0  0  0
   56.5340   30.0840   44.6480 C   0  0  0  0  0  0  0  0  0  0  0  0
   57.7270   29.4720   43.9840 C   0  0  0  0  0  0  0  0  0  0  0  0
   59.0120   29.8800   44.7080 C   0  0  0  0  0  0  0  0  0  0  0  0
   59.2420   29.0080   45.8650 N   0  0  0  0  0  0  0  0  0  0  0  0
   59.4030   29.5770   47.0650 N   0  0  0  0  0  0  0  0  0  0  0  0
   59.5930   28.8440   48.1910 C   0  0  0  0  0  0  0  0  0  0  0  0
   59.7430   29.4220   49.3000 O   0  0  0  0  0  0  0  0  0  0  0  0
   59.6190   27.4540   48.1100 C   0  0  0  0  0  0  0  0  0  0  0  0
   59.4420   26.8470   46.8710 C   0  0  0  0  0  0  0  0  0  0  0  0
   59.2480   27.6420   45.7390 C   0  0  0  0  0  0  0  0  0  0  0  0
   59.0810   27.0930   44.6160 O   0  0  0  0  0  0  0  0  0  0  0  0
   56.3600   31.5060   44.6130 N   0  0  0  0  0  0  0  0  0  0  0  0
   57.2470   32.4890   45.1640 C   0  0  0  0  0  0  0  0  0  0  0  0
   57.6370   33.6310   44.4410 C   0  0  0  0  0  0  0  0  0  0  0  0
   58.5320   34.5450   45.0020 C   0  0  0  0  0  0  0  0  0  0  0  0
   59.0540   34.3260   46.2800 C   0  0  0  0  0  0  0  0  0  0  0  0
   58.6860   33.1830   47.0010 C   0  0  0  0  0  0  0  0  0  0  0  0
   59.3590   32.8690   48.6000 S   0  0  0  0  0  0  0  0  0  0  0  0
   58.2920   32.2270   49.4440 O   0  0  0  0  0  0  0  0  0  0  0  0
   59.7620   34.1660   49.2430 O   0  0  0  0  0  0  0  0  0  0  0  0
   60.7370   31.7980   48.4520 N   0  0  0  0  0  0  0  0  0  0  0  0
   61.6860   31.9810   49.5670 C   0  0  0  0  0  0  0  0  0  0  0  0
   62.4950   33.2950   49.4400 C   0  0  0  0  0  0  0  0  0  0  0  0
   62.4870   33.8460   48.1340 O   0  0  0  0  0  0  0  0  0  0  0  0
   62.6470   32.8260   47.1740 C   0  0  0  0  0  0  0  0  0  0  0  0
   61.3960   31.9310   47.1270 C   0  0  0  0  0  0  0  0  0  0  0  0
   57.7910   32.2640   46.4350 C   0  0  0  0  0  0  0  0  0  0  0  0
   57.6313   28.3764   44.0063 H   0  0  0  0  0  0  0  0  0  0  0  0
   57.7765   29.8274   42.9442 H   0  0  0  0  0  0  0  0  0  0  0  0
   59.8619   29.7952   44.0148 H   0  0  0  0  0  0  0  0  0  0  0  0
   58.9127   30.9187   45.0563 H   0  0  0  0  0  0  0  0  0  0  0  0
   59.7772   26.8451   49.0124 H   0  0  0  0  0  0  0  0  0  0  0  0
   59.4547   25.7506   46.7834 H   0  0  0  0  0  0  0  0  0  0  0  0
   57.2362   33.8046   43.4314 H   0  0  0  0  0  0  0  0  0  0  0  0
   58.8272   35.4407   44.4358 H   0  0  0  0  0  0  0  0  0  0  0  0
   59.7541   35.0516   46.7197 H   0  0  0  0  0  0  0  0  0  0  0  0
   60.3560   30.8250   48.5250 H   0  0  0  0  0  0  0  0  0  0  0  0
   61.1224   32.0024   50.5114 H   0  0  0  0  0  0  0  0  0  0  0  0
   62.3986   31.1433   49.5435 H   0  0  0  0  0  0  0  0  0  0  0  0
   62.0660   34.0350   50.1316 H   0  0  0  0  0  0  0  0  0  0  0  0
   63.5408   33.0526   49.6799 H   0  0  0  0  0  0  0  0  0  0  0  0
   62.8043   33.2809   46.1849 H   0  0  0  0  0  0  0  0  0  0  0  0
   63.5156   32.2101   47.4499 H   0  0  0  0  0  0  0  0  0  0  0  0
   60.6769   32.3679   46.4184 H   0  0  0  0  0  0  0  0  0  0  0  0
   61.7170   30.9269   46.8129 H   0  0  0  0  0  0  0  0  0  0  0  0
   57.5136   31.3582   46.9941 H   0  0  0  0  0  0  0  0  0  0  0  0
  1  2  2  0
  2  3  1  0
  3  4  1  0
  4  5  1  0
  5  6  1  0
  6  7  1  0
  7  8  2  0
  7  9  1  0
  9 10  2  0
 10 11  1  0
 11 12  2  0
  2 13  1  0
 13 14  1  0
 14 15  2  0
 15 16  1  0
 16 17  2  0
 17 18  1  0
 18 19  1  0
 19 20  2  0
 19 21  2  0
 19 22  1  0
 22 23  1  0
 23 24  1  0
 24 25  1  0
 25 26  1  0
 26 27  1  0
 18 28  2  0
 11  5  1  0
 28 14  1  0
 27 22  1  0
  3 29  1  0
  3 30  1  0
  4 31  1  0
  4 32  1  0
  9 33  1  0
 10 34  1  0
 15 35  1  0
 16 36  1  0
 17 37  1  0
 22 38  1  0
 23 39  1  0
 23 40  1  0
 24 41  1  0
 24 42  1  0
 26 43  1  0
 26 44  1  0
 27 45  1  0
 27 46  1  0
 28 47  1  0
M  CHG  3   6  -1  13  -1  22   1
M  END
>  <UniqueID>  (28) 
24

>  <SMILES>  (28) 
O=C(CCn1[n-]c(=O)ccc1=O)[N-]c1cccc(S(=O)(=O)[NH+]2CCOCC2)c1

>  <Energy>  (28) 
60.665490472861485

>  <Genealogy>  (28) 
O=C(CCn1[n-]c(=O)ccc1=O)[N-]c1cccc(S(=O)(=O)[NH+]2CCOCC2)c1 (protonated)
O=C(CCn1[n-]c(=O)ccc1=O)[N-]c1cccc(S(=O)(=O)[NH+]2CCOCC2)c1 (3D coordinates assigned)
O=C(CCn1[n-]c(=O)ccc1=O)[N-]c1cccc(S(=O)(=O)[NH+]2CCOCC2)c1 (nonaromatic ring conformer: 60.665490472861485 kcal/mol)

>  <smiles>  (28) 
O=C(CCn1[nH]c(=O)ccc1=O)Nc1cccc(S(=O)(=O)N2CCOCC2)c1

>  <score_type>  (28) 
oracle

>  <origin>  (28) 
adg

>  <m_score__min__energy>  (28) 
-11.24

>  <m_primary>  (28) 
energy

$$$$
28:0
     RDKit          3D

 55 58  0  0  0  0  0  0  0  0999 V2000
   56.9540   29.0030   42.8490 N   0  0  0  0  0  0  0  0  0  0  0  0
   56.4760   29.4440   44.4510 S   0  0  0  0  0  0  0  0  0  0  0  0
   55.1530   30.1520   44.4000 O   0  0  0  0  0  0  0  0  0  0  0  0
   56.3440   28.1960   45.2790 O   0  0  0  0  0  0  0  0  0  0  0  0
   57.6810   30.5070   45.1720 C   0  0  0  0  0  0  0  0  0  0  0  0
   58.8350   29.9670   45.7500 C   0  0  0  0  0  0  0  0  0  0  0  0
   59.7940   30.8030   46.3280 C   0  0  0  0  0  0  0  0  0  0  0  0
   59.6050   32.1950   46.3440 C   0  0  0  0  0  0  0  0  0  0  0  0
   60.5670   33.0920   46.9160 N   0  0  0  0  0  0  0  0  0  0  0  0
   60.4480   33.8600   48.4670 S   0  0  0  0  0  0  0  0  0  0  0  0
   59.3350   34.8690   48.4240 O   0  0  0  0  0  0  0  0  0  0  0  0
   61.7240   34.5890   48.7870 O   0  0  0  0  0  0  0  0  0  0  0  0
   60.0780   32.6550   49.6980 C   0  0  0  0  0  0  0  0  0  0  0  0
   60.0560   33.0260   51.0490 C   0  0  0  0  0  0  0  0  0  0  0  0
   59.7280   32.0910   52.0340 C   0  0  0  0  0  0  0  0  0  0  0  0
   59.3900   30.7740   51.6780 C   0  0  0  0  0  0  0  0  0  0  0  0
   59.0190   29.7990   52.7260 C   0  0  0  0  0  0  0  0  0  0  0  0
   59.9950   29.1780   53.5230 C   0  0  0  0  0  0  0  0  0  0  0  0
   59.6040   28.2400   54.4790 C   0  0  0  0  0  0  0  0  0  0  0  0
   58.2540   27.9370   54.6480 C   0  0  0  0  0  0  0  0  0  0  0  0
   57.2960   28.5940   53.8590 C   0  0  0  0  0  0  0  0  0  0  0  0
   55.8500   28.3260   54.0130 C   0  0  0  0  0  0  0  0  0  0  0  0
   55.3730   28.1970   55.1720 O   0  0  0  0  0  0  0  0  0  0  0  0
   54.9610   28.2330   52.8900 N   0  0  0  0  0  0  0  0  0  0  0  0
   54.0170   29.2290   52.4670 C   0  0  0  0  0  0  0  0  0  0  0  0
   52.6310   29.0040   52.5230 C   0  0  0  0  0  0  0  0  0  0  0  0
   51.7390   29.9920   52.0980 C   0  0  0  0  0  0  0  0  0  0  0  0
   52.2160   31.2290   51.6290 C   0  0  0  0  0  0  0  0  0  0  0  0
   51.2770   32.2750   51.1690 C   0  0  0  0  0  0  0  0  0  0  0  0
   50.6880   33.0170   51.9990 O   0  0  0  0  0  0  0  0  0  0  0  0
   51.0300   32.4510   49.8140 O   0  0  0  0  0  0  0  0  0  0  0  0
   53.6020   31.4590   51.6060 C   0  0  0  0  0  0  0  0  0  0  0  0
   54.4920   30.4670   52.0280 C   0  0  0  0  0  0  0  0  0  0  0  0
   57.7070   29.4820   52.9130 N   0  0  0  0  0  0  0  0  0  0  0  0
   59.4240   30.4010   50.3220 C   0  0  0  0  0  0  0  0  0  0  0  0
   59.7740   31.3330   49.3400 C   0  0  0  0  0  0  0  0  0  0  0  0
   58.4490   32.7310   45.7620 C   0  0  0  0  0  0  0  0  0  0  0  0
   57.4900   31.8910   45.1880 C   0  0  0  0  0  0  0  0  0  0  0  0
   57.9580   29.2650   42.7460 H   0  0  0  0  0  0  0  0  0  0  0  0
   56.9060   27.9620   42.7910 H   0  0  0  0  0  0  0  0  0  0  0  0
   58.9883   28.8777   45.7494 H   0  0  0  0  0  0  0  0  0  0  0  0
   60.7016   30.3689   46.7728 H   0  0  0  0  0  0  0  0  0  0  0  0
   60.2985   34.0599   51.3359 H   0  0  0  0  0  0  0  0  0  0  0  0
   59.7343   32.3871   53.0934 H   0  0  0  0  0  0  0  0  0  0  0  0
   61.0582   29.4291   53.3945 H   0  0  0  0  0  0  0  0  0  0  0  0
   60.3616   27.7393   55.0997 H   0  0  0  0  0  0  0  0  0  0  0  0
   57.9419   27.1900   55.3927 H   0  0  0  0  0  0  0  0  0  0  0  0
   52.2466   28.0460   52.9030 H   0  0  0  0  0  0  0  0  0  0  0  0
   50.6562   29.8009   52.1305 H   0  0  0  0  0  0  0  0  0  0  0  0
   53.9894   32.4263   51.2535 H   0  0  0  0  0  0  0  0  0  0  0  0
   55.5743   30.6628   52.0142 H   0  0  0  0  0  0  0  0  0  0  0  0
   59.1737   29.3698   50.0324 H   0  0  0  0  0  0  0  0  0  0  0  0
   59.8111   31.0287   48.2836 H   0  0  0  0  0  0  0  0  0  0  0  0
   58.2947   33.8201   45.7566 H   0  0  0  0  0  0  0  0  0  0  0  0
   56.5796   32.3223   44.7463 H   0  0  0  0  0  0  0  0  0  0  0  0
  1  2  1  0
  2  3  2  0
  2  4  2  0
  2  5  1  0
  5  6  2  0
  6  7  1  0
  7  8  2  0
  8  9  1  0
  9 10  1  0
 10 11  2  0
 10 12  2  0
 10 13  1  0
 13 14  2  0
 14 15  1  0
 15 16  2  0
 16 17  1  0
 17 18  2  0
 18 19  1  0
 19 20  2  0
 20 21  1  0
 21 22  1  0
 22 23  2  0
 22 24  1  0
 24 25  1  0
 25 26  2  0
 26 27  1  0
 27 28  2  0
 28 29  1  0
 29 30  2  0
 29 31  1  0
 28 32  1  0
 32 33  2  0
 21 34  2  0
 16 35  1  0
 35 36  2  0
  8 37  1  0
 37 38  2  0
 38  5  1  0
 36 13  1  0
 34 17  1  0
 33 25  1  0
  1 39  1  0
  1 40  1  0
  6 41  1  0
  7 42  1  0
 14 43  1  0
 15 44  1  0
 18 45  1  0
 19 46  1  0
 20 47  1  0
 26 48  1  0
 27 49  1  0
 32 50  1  0
 33 51  1  0
 35 52  1  0
 36 53  1  0
 37 54  1  0
 38 55  1  0
M  CHG  3   9  -1  24  -1  31  -1
M  END
>  <UniqueID>  (29) 
25

>  <SMILES>  (29) 
NS(=O)(=O)c1ccc([N-]S(=O)(=O)c2ccc(-c3cccc(C(=O)[N-]c4ccc(C(=O)[O-])cc4)n3)cc2)cc1

>  <Energy>  (29) 
74.62340668647383

>  <Genealogy>  (29) 
NS(=O)(=O)c1ccc([N-]S(=O)(=O)c2ccc(-c3cccc(C(=O)[N-]c4ccc(C(=O)[O-])cc4)n3)cc2)cc1 (protonated)
NS(=O)(=O)c1ccc([N-]S(=O)(=O)c2ccc(-c3cccc(C(=O)[N-]c4ccc(C(=O)[O-])cc4)n3)cc2)cc1 (3D coordinates assigned)
NS(=O)(=O)c1ccc([N-]S(=O)(=O)c2ccc(-c3cccc(C(=O)[N-]c4ccc(C(=O)[O-])cc4)n3)cc2)cc1 (optimized conformer: 74.62340668647383 kcal/mol)

>  <smiles>  (29) 
NS(=O)(=O)c1ccc(NS(=O)(=O)c2ccc(-c3cccc(C(=O)Nc4ccc(C(=O)O)cc4)n3)cc2)cc1

>  <score_type>  (29) 
oracle

>  <origin>  (29) 
adg

>  <m_score__min__energy>  (29) 
-16.57

>  <m_primary>  (29) 
energy

$$$$
29:0
     RDKit          3D

 56 60  0  0  0  0  0  0  0  0999 V2000
   57.3949   33.2299   43.4490 H   0  0  0  0  0  0  0  0  0  0  0  0
   58.0220   33.4710   44.3200 C   0  0  0  0  0  0  0  0  0  0  0  0
   58.4930   34.7350   44.4960 N   0  0  0  0  0  0  0  0  0  0  0  0
   59.2710   35.0610   45.5620 C   0  0  0  0  0  0  0  0  0  0  0  0
   59.6425   36.0890   45.6849 H   0  0  0  0  0  0  0  0  0  0  0  0
   59.5940   34.0770   46.5000 C   0  0  0  0  0  0  0  0  0  0  0  0
   60.3220   34.3710   47.5370 N   0  0  0  0  0  0  0  0  0  0  0  0
   61.5380   33.6830   47.8830 C   0  0  0  0  0  0  0  0  0  0  0  0
   62.5050   33.5130   46.8850 C   0  0  0  0  0  0  0  0  0  0  0  0
   62.2846   33.8271   45.8541 H   0  0  0  0  0  0  0  0  0  0  0  0
   63.7460   32.9490   47.1850 C   0  0  0  0  0  0  0  0  0  0  0  0
   64.4969   32.8235   46.3910 H   0  0  0  0  0  0  0  0  0  0  0  0
   64.0380   32.5440   48.4870 C   0  0  0  0  0  0  0  0  0  0  0  0
   65.0273   32.1239   48.7210 H   0  0  0  0  0  0  0  0  0  0  0  0
   63.0760   32.6700   49.4990 C   0  0  0  0  0  0  0  0  0  0  0  0
   63.3680   32.2490   50.8070 C   0  0  0  0  0  0  0  0  0  0  0  0
   64.3605   31.8368   51.0415 H   0  0  0  0  0  0  0  0  0  0  0  0
   62.4030   32.3520   51.8100 C   0  0  0  0  0  0  0  0  0  0  0  0
   62.6408   32.0312   52.8350 H   0  0  0  0  0  0  0  0  0  0  0  0
   61.1370   32.8610   51.5160 C   0  0  0  0  0  0  0  0  0  0  0  0
   60.3760   32.9272   52.3075 H   0  0  0  0  0  0  0  0  0  0  0  0
   60.8320   33.2870   50.2200 C   0  0  0  0  0  0  0  0  0  0  0  0
   59.8276   33.6751   49.9952 H   0  0  0  0  0  0  0  0  0  0  0  0
   61.8020   33.2230   49.1990 C   0  0  0  0  0  0  0  0  0  0  0  0
   59.1180   32.8160   46.3170 N   0  0  0  0  0  0  0  0  0  0  0  0
   58.3420   32.4760   45.2580 C   0  0  0  0  0  0  0  0  0  0  0  0
   57.8940   31.0730   45.0870 C   0  0  0  0  0  0  0  0  0  0  0  0
   56.6560   30.8280   45.0540 O   0  0  0  0  0  0  0  0  0  0  0  0
   58.8340   29.9870   44.9250 N   0  0  0  0  0  0  0  0  0  0  0  0
   58.4690   28.8200   44.1180 C   0  0  0  0  0  0  0  0  0  0  0  0
   57.4769   28.9751   43.6690 H   0  0  0  0  0  0  0  0  0  0  0  0
   59.2043   28.6737   43.3130 H   0  0  0  0  0  0  0  0  0  0  0  0
   58.4370   27.5910   45.0280 C   0  0  0  0  0  0  0  0  0  0  0  0
   57.6399   27.7274   45.7736 H   0  0  0  0  0  0  0  0  0  0  0  0
   58.2561   26.7134   44.3900 H   0  0  0  0  0  0  0  0  0  0  0  0
   59.7250   27.3640   45.7450 N   0  0  0  0  0  0  0  0  0  0  0  0
   60.2160   26.5720   45.2680 H   0  0  0  0  0  0  0  0  0  0  0  0
   59.4760   26.9720   47.1210 C   0  0  0  0  0  0  0  0  0  0  0  0
   59.1020   25.7930   47.3770 O   0  0  0  0  0  0  0  0  0  0  0  0
   59.6940   27.9090   48.2560 C   0  0  0  0  0  0  0  0  0  0  0  0
   60.7770   27.7030   49.1310 C   0  0  0  0  0  0  0  0  0  0  0  0
   61.4450   26.8424   48.9788 H   0  0  0  0  0  0  0  0  0  0  0  0
   61.0110   28.5830   50.1920 C   0  0  0  0  0  0  0  0  0  0  0  0
   61.8577   28.4086   50.8722 H   0  0  0  0  0  0  0  0  0  0  0  0
   60.1740   29.6820   50.3910 C   0  0  0  0  0  0  0  0  0  0  0  0
   60.3601   30.3717   51.2275 H   0  0  0  0  0  0  0  0  0  0  0  0
   59.0990   29.9050   49.5260 C   0  0  0  0  0  0  0  0  0  0  0  0
   58.2930   30.9790   49.7140 F   0  0  0  0  0  0  0  0  0  0  0  0
   58.8600   29.0270   48.4620 C   0  0  0  0  0  0  0  0  0  0  0  0
   58.0153   29.2108   47.7817 H   0  0  0  0  0  0  0  0  0  0  0  0
   60.6880   28.5000   45.6810 C   0  0  0  0  0  0  0  0  0  0  0  0
   61.4058   28.3942   46.5078 H   0  0  0  0  0  0  0  0  0  0  0  0
   61.1746   28.4548   44.6955 H   0  0  0  0  0  0  0  0  0  0  0  0
   60.0190   29.8840   45.7910 C   0  0  0  0  0  0  0  0  0  0  0  0
   59.7132   30.0500   46.8345 H   0  0  0  0  0  0  0  0  0  0  0  0
   60.7467   30.6428   45.4675 H   0  0  0  0  0  0  0  0  0  0  0  0
  1  2  1  0
  2  3  1  0
  3  4  2  0
  4  5  1  0
  4  6  1  0
  6  7  2  0
  7  8  1  0
  8  9  2  0
  9 10  1  0
  9 11  1  0
 11 12  1  0
 11 13  2  0
 13 14  1  0
 13 15  1  0
 15 16  2  0
 16 17  1  0
 16 18  1  0
 18 19  1  0
 18 20  2  0
 20 21  1  0
 20 22  1  0
 22 23  1  0
 22 24  2  0
  6 25  1  0
 25 26  1  0
 26 27  1  0
 27 28  2  0
 27 29  1  0
 29 30  1  0
 30 31  1  0
 30 32  1  0
 30 33  1  0
 33 34  1  0
 33 35  1  0
 33 36  1  0
 36 37  1  0
 36 38  1  0
 38 39  2  0
 38 40  1  0
 40 41  2  0
 41 42  1  0
 41 43  1  0
 43 44  1  0
 43 45  2  0
 45 46  1  0
 45 47  1  0
 47 48  1  0
 47 49  2  0
 49 50  1  0
 36 51  1  0
 51 52  1  0
 51 53  1  0
 51 54  1  0
 54 55  1  0
 54 56  1  0
 26  2  2  0
 54 29  1  0
 24  8  1  0
 49 40  1  0
 24 15  1  0
M  CHG  2  25  -1  36   1
M  END
>  <UniqueID>  (30) 
26

>  <SMILES>  (30) 
O=C(c1cnc/c(=N/c2cccc3ccccc23)[n-]1)N1CC[NH+](C(=O)c2cccc(F)c2)CC1

>  <Energy>  (30) 
91.2997223191578

>  <Genealogy>  (30) 
O=C(c1cncc(=Nc2cccc3ccccc23)[n-]1)N1CC[NH+](C(=O)c2cccc(F)c2)CC1 (protonated)
O=C(c1cnc/c(=N/c2cccc3ccccc23)[n-]1)N1CC[NH+](C(=O)c2cccc(F)c2)CC1 (cis-trans isomerization)
O=C(c1cnc/c(=N/c2cccc3ccccc23)[n-]1)N1CC[NH+](C(=O)c2cccc(F)c2)CC1 (3D coordinates assigned)
O=C(c1cnc/c(=N/c2cccc3ccccc23)[n-]1)N1CC[NH+](C(=O)c2cccc(F)c2)CC1 (nonaromatic ring conformer: 91.2997223191578 kcal/mol)

>  <smiles>  (30) 
O=C(c1cccc(F)c1)N1CCN(C(=O)c2cncc(=Nc3cccc4ccccc34)[nH]2)CC1

>  <score_type>  (30) 
oracle

>  <origin>  (30) 
adg

>  <m_score__min__energy>  (30) 
-10.65

>  <m_primary>  (30) 
energy

$$$$
30:0
     RDKit          3D

 49 51  0  0  0  0  0  0  0  0999 V2000
   60.0630   34.0490   50.3900 O   0  0  0  0  0  0  0  0  0  0  0  0
   60.5720   34.2010   49.2460 C   0  0  0  0  0  0  0  0  0  0  0  0
   61.9430   34.6000   49.1250 N   0  0  0  0  0  0  0  0  0  0  0  0
   63.0250   34.0430   49.9300 C   0  0  0  0  0  0  0  0  0  0  0  0
   63.6420   32.8170   49.2480 C   0  0  0  0  0  0  0  0  0  0  0  0
   62.5840   31.8240   48.8410 C   0  0  0  0  0  0  0  0  0  0  0  0
   62.2530   31.6560   47.4870 C   0  0  0  0  0  0  0  0  0  0  0  0
   61.3010   30.7040   47.1060 C   0  0  0  0  0  0  0  0  0  0  0  0
   60.6800   29.9080   48.0740 C   0  0  0  0  0  0  0  0  0  0  0  0
   61.0130   30.0610   49.4230 C   0  0  0  0  0  0  0  0  0  0  0  0
   61.9620   31.0130   49.8080 C   0  0  0  0  0  0  0  0  0  0  0  0
   59.7550   33.9740   48.0320 C   0  0  0  0  0  0  0  0  0  0  0  0
   58.8810   32.8750   47.9540 C   0  0  0  0  0  0  0  0  0  0  0  0
   58.1190   32.6560   46.8030 C   0  0  0  0  0  0  0  0  0  0  0  0
   58.2060   33.5380   45.7160 C   0  0  0  0  0  0  0  0  0  0  0  0
   57.4130   33.2740   44.4690 C   0  0  0  0  0  0  0  0  0  0  0  0
   58.0290   32.1730   43.7240 N   0  0  0  0  0  0  0  0  0  0  0  0
   57.0830   30.7290   43.9120 S   0  0  0  0  0  0  0  0  0  0  0  0
   55.8370   31.0440   44.6940 O   0  0  0  0  0  0  0  0  0  0  0  0
   56.6960   30.2090   42.5560 O   0  0  0  0  0  0  0  0  0  0  0  0
   58.0260   29.4980   44.7470 C   0  0  0  0  0  0  0  0  0  0  0  0
   59.4030   29.3750   44.5110 C   0  0  0  0  0  0  0  0  0  0  0  0
   60.1440   28.3930   45.1760 C   0  0  0  0  0  0  0  0  0  0  0  0
   59.5140   27.5290   46.0790 C   0  0  0  0  0  0  0  0  0  0  0  0
   60.4450   26.2970   46.9110 Cl  0  0  0  0  0  0  0  0  0  0  0  0
   58.1420   27.6530   46.3210 C   0  0  0  0  0  0  0  0  0  0  0  0
   57.4000   28.6360   45.6600 C   0  0  0  0  0  0  0  0  0  0  0  0
   59.0880   34.6260   45.7820 C   0  0  0  0  0  0  0  0  0  0  0  0
   59.8530   34.8460   46.9320 C   0  0  0  0  0  0  0  0  0  0  0  0
   63.8031   34.8086   50.0660 H   0  0  0  0  0  0  0  0  0  0  0  0
   62.6147   33.7336   50.9026 H   0  0  0  0  0  0  0  0  0  0  0  0
   64.1899   33.1438   48.3519 H   0  0  0  0  0  0  0  0  0  0  0  0
   64.3198   32.3275   49.9629 H   0  0  0  0  0  0  0  0  0  0  0  0
   62.7443   32.2756   46.7223 H   0  0  0  0  0  0  0  0  0  0  0  0
   61.0407   30.5815   46.0443 H   0  0  0  0  0  0  0  0  0  0  0  0
   59.9297   29.1617   47.7738 H   0  0  0  0  0  0  0  0  0  0  0  0
   60.5275   29.4313   50.1831 H   0  0  0  0  0  0  0  0  0  0  0  0
   62.2231   31.1283   50.8703 H   0  0  0  0  0  0  0  0  0  0  0  0
   58.7965   32.1829   48.8048 H   0  0  0  0  0  0  0  0  0  0  0  0
   57.4471   31.7867   46.7493 H   0  0  0  0  0  0  0  0  0  0  0  0
   56.3823   33.0020   44.7403 H   0  0  0  0  0  0  0  0  0  0  0  0
   57.4002   34.1788   43.8435 H   0  0  0  0  0  0  0  0  0  0  0  0
   58.0140   32.4200   42.7070 H   0  0  0  0  0  0  0  0  0  0  0  0
   59.9011   30.0522   43.8015 H   0  0  0  0  0  0  0  0  0  0  0  0
   61.2240   28.2995   44.9890 H   0  0  0  0  0  0  0  0  0  0  0  0
   57.6463   26.9761   47.0324 H   0  0  0  0  0  0  0  0  0  0  0  0
   56.3221   28.7341   45.8562 H   0  0  0  0  0  0  0  0  0  0  0  0
   59.1787   35.3098   44.9252 H   0  0  0  0  0  0  0  0  0  0  0  0
   60.5362   35.7069   46.9769 H   0  0  0  0  0  0  0  0  0  0  0  0
  1  2  2  0
  2  3  1  0
  3  4  1  0
  4  5  1  0
  5  6  1  0
  6  7  2  0
  7  8  1  0
  8  9  2  0
  9 10  1  0
 10 11  2  0
  2 12  1  0
 12 13  2  0
 13 14  1  0
 14 15  2  0
 15 16  1  0
 16 17  1  0
 17 18  1  0
 18 19  2  0
 18 20  2  0
 18 21  1  0
 21 22  2  0
 22 23  1  0
 23 24  2  0
 24 25  1  0
 24 26  1  0
 26 27  2  0
 15 28  1  0
 28 29  2  0
 11  6  1  0
 29 12  1  0
 27 21  1  0
  4 30  1  0
  4 31  1  0
  5 32  1  0
  5 33  1  0
  7 34  1  0
  8 35  1  0
  9 36  1  0
 10 37  1  0
 11 38  1  0
 13 39  1  0
 14 40  1  0
 16 41  1  0
 16 42  1  0
 17 43  1  0
 22 44  1  0
 23 45  1  0
 26 46  1  0
 27 47  1  0
 28 48  1  0
 29 49  1  0
M  CHG  1   3  -1
M  END
>  <UniqueID>  (31) 
27

>  <SMILES>  (31) 
O=C([N-]CCc1ccccc1)c1ccc(CNS(=O)(=O)c2ccc(Cl)cc2)cc1

>  <Energy>  (31) 
44.072307821163825

>  <Genealogy>  (31) 
O=C([N-]CCc1ccccc1)c1ccc(CNS(=O)(=O)c2ccc(Cl)cc2)cc1 (protonated)
O=C([N-]CCc1ccccc1)c1ccc(CNS(=O)(=O)c2ccc(Cl)cc2)cc1 (3D coordinates assigned)
O=C([N-]CCc1ccccc1)c1ccc(CNS(=O)(=O)c2ccc(Cl)cc2)cc1 (optimized conformer: 44.072307821163825 kcal/mol)

>  <smiles>  (31) 
O=C(NCCc1ccccc1)c1ccc(CNS(=O)(=O)c2ccc(Cl)cc2)cc1

>  <score_type>  (31) 
oracle

>  <origin>  (31) 
adg

>  <m_score__min__energy>  (31) 
-11.09

>  <m_primary>  (31) 
energy

$$$$
31:0
     RDKit          3D

 61 63  0  0  0  0  0  0  0  0999 V2000
   60.4660   29.0990   48.2620 C   0  0  0  0  0  0  0  0  0  0  0  0
   61.0180   30.0370   46.7990 S   0  0  0  0  0  0  0  0  0  0  0  0
   60.0880   29.0440   45.5770 C   0  0  0  0  0  0  0  0  0  0  0  0
   58.6690   28.7610   46.0850 C   0  0  0  0  0  0  0  0  0  0  0  0
   57.5970   29.4210   45.1920 C   0  0  2  0  0  0  0  0  0  0  0  0
   57.4080   30.8330   45.5340 N   0  0  0  0  0  0  0  0  0  0  0  0
   58.1010   31.5670   46.5550 C   0  0  0  0  0  0  0  0  0  0  0  0
   58.3120   31.0360   47.6770 O   0  0  0  0  0  0  0  0  0  0  0  0
   58.5970   32.9400   46.2720 C   0  0  0  0  0  0  0  0  0  0  0  0
   58.4960   33.4410   44.9590 C   0  0  0  0  0  0  0  0  0  0  0  0
   59.0200   34.6940   44.6290 C   0  0  0  0  0  0  0  0  0  0  0  0
   59.6550   35.4650   45.6000 C   0  0  0  0  0  0  0  0  0  0  0  0
   59.7550   34.9930   46.9080 C   0  0  0  0  0  0  0  0  0  0  0  0
   59.2140   33.7500   47.2640 C   0  0  0  0  0  0  0  0  0  0  0  0
   59.3150   33.3340   48.6330 N   0  0  0  0  0  0  0  0  0  0  0  0
   60.5210   33.4870   49.3970 C   0  0  0  0  0  0  0  0  0  0  0  0
   61.5530   33.9770   48.8610 O   0  0  0  0  0  0  0  0  0  0  0  0
   60.5740   33.0040   50.8180 C   0  0  0  0  0  0  0  0  0  0  0  0
   59.2830   32.3390   51.2170 C   0  0  0  0  0  0  0  0  0  0  0  0
   59.0050   31.0310   50.7920 C   0  0  0  0  0  0  0  0  0  0  0  0
   57.7930   30.4220   51.1330 C   0  0  0  0  0  0  0  0  0  0  0  0
   56.8420   31.1120   51.9000 C   0  0  0  0  0  0  0  0  0  0  0  0
   55.5690   30.4540   52.2670 C   0  0  0  0  0  0  0  0  0  0  0  0
   54.3950   30.8790   51.6200 C   0  0  0  0  0  0  0  0  0  0  0  0
   53.1650   30.2840   51.9070 C   0  0  0  0  0  0  0  0  0  0  0  0
   51.7130   30.8240   51.0840 Cl  0  0  0  0  0  0  0  0  0  0  0  0
   53.0920   29.2550   52.8470 C   0  0  0  0  0  0  0  0  0  0  0  0
   54.2450   28.8280   53.5070 C   0  0  0  0  0  0  0  0  0  0  0  0
   55.4890   29.4230   53.2400 C   0  0  0  0  0  0  0  0  0  0  0  0
   56.8950   28.8650   54.1650 S   0  0  0  0  0  0  0  0  0  0  0  0
   57.6030   30.1650   55.0570 N   0  0  0  0  0  0  0  0  0  0  0  0
   56.4680   27.8070   55.1440 O   0  0  0  0  0  0  0  0  0  0  0  0
   57.9140   28.2790   53.2300 O   0  0  0  0  0  0  0  0  0  0  0  0
   57.1340   32.4100   52.3490 C   0  0  0  0  0  0  0  0  0  0  0  0
   58.3390   33.0250   51.9960 C   0  0  0  0  0  0  0  0  0  0  0  0
   56.2820   28.6930   45.2440 C   0  0  0  0  0  0  0  0  0  0  0  0
   56.2210   27.5060   45.6570 O   0  0  0  0  0  0  0  0  0  0  0  0
   55.1170   29.3380   44.8430 O   0  0  0  0  0  0  0  0  0  0  0  0
   60.7770   29.6275   49.1752 H   0  0  0  0  0  0  0  0  0  0  0  0
   59.3699   29.0073   48.2467 H   0  0  0  0  0  0  0  0  0  0  0  0
   60.9180   28.0963   48.2467 H   0  0  0  0  0  0  0  0  0  0  0  0
   60.0294   29.5986   44.6289 H   0  0  0  0  0  0  0  0  0  0  0  0
   60.6092   28.0874   45.4245 H   0  0  0  0  0  0  0  0  0  0  0  0
   58.5045   27.6734   46.0937 H   0  0  0  0  0  0  0  0  0  0  0  0
   58.5779   29.1834   47.0966 H   0  0  0  0  0  0  0  0  0  0  0  0
   57.9733   29.3575   44.1603 H   0  0  0  0  0  0  0  0  0  0  0  0
   57.9988   32.8388   44.1843 H   0  0  0  0  0  0  0  0  0  0  0  0
   58.9308   35.0723   43.5999 H   0  0  0  0  0  0  0  0  0  0  0  0
   60.0772   36.4455   45.3349 H   0  0  0  0  0  0  0  0  0  0  0  0
   60.2641   35.6028   47.6689 H   0  0  0  0  0  0  0  0  0  0  0  0
   58.5610   32.7180   49.0120 H   0  0  0  0  0  0  0  0  0  0  0  0
   61.3965   32.2808   50.9205 H   0  0  0  0  0  0  0  0  0  0  0  0
   60.7356   33.8717   51.4745 H   0  0  0  0  0  0  0  0  0  0  0  0
   59.7431   30.4825   50.1884 H   0  0  0  0  0  0  0  0  0  0  0  0
   57.5839   29.3954   50.7977 H   0  0  0  0  0  0  0  0  0  0  0  0
   54.4464   31.6901   50.8787 H   0  0  0  0  0  0  0  0  0  0  0  0
   52.1247   28.7801   53.0678 H   0  0  0  0  0  0  0  0  0  0  0  0
   54.1788   28.0154   54.2455 H   0  0  0  0  0  0  0  0  0  0  0  0
   56.8260   30.8040   55.3350 H   0  0  0  0  0  0  0  0  0  0  0  0
   56.4110   32.9457   52.9817 H   0  0  0  0  0  0  0  0  0  0  0  0
   58.5480   34.0518   52.3307 H   0  0  0  0  0  0  0  0  0  0  0  0
  1  2  1  0
  2  3  1  0
  3  4  1  0
  4  5  1  0
  5  6  1  0
  6  7  1  0
  7  8  2  0
  7  9  1  0
  9 10  2  0
 10 11  1  0
 11 12  2  0
 12 13  1  0
 13 14  2  0
 14 15  1  0
 15 16  1  0
 16 17  2  0
 16 18  1  0
 18 19  1  0
 19 20  2  0
 20 21  1  0
 21 22  2  0
 22 23  1  0
 23 24  2  0
 24 25  1  0
 25 26  1  0
 25 27  2  0
 27 28  1  0
 28 29  2  0
 29 30  1  0
 30 31  1  0
 30 32  2  0
 30 33  2  0
 22 34  1  0
 34 35  2  0
  5 36  1  0
 36 37  2  0
 36 38  1  0
 14  9  1  0
 35 19  1  0
 29 23  1  0
  1 39  1  0
  1 40  1  0
  1 41  1  0
  3 42  1  0
  3 43  1  0
  4 44  1  0
  4 45  1  0
  5 46  1  6
 10 47  1  0
 11 48  1  0
 12 49  1  0
 13 50  1  0
 15 51  1  0
 18 52  1  0
 18 53  1  0
 20 54  1  0
 21 55  1  0
 24 56  1  0
 27 57  1  0
 28 58  1  0
 31 59  1  0
 34 60  1  0
 35 61  1  0
M  CHG  3   6  -1  31  -1  38  -1
M  END
>  <UniqueID>  (32) 
28

>  <SMILES>  (32) 
CSCC[C@H]([N-]C(=O)c1ccccc1NC(=O)Cc1ccc(-c2cc(Cl)ccc2S([NH-])(=O)=O)cc1)C(=O)[O-]

>  <Energy>  (32) 
69.88950038921811

>  <Genealogy>  (32) 
CSCCC([N-]C(=O)c1ccccc1NC(=O)Cc1ccc(-c2cc(Cl)ccc2S([NH-])(=O)=O)cc1)C(=O)[O-] (protonated)
CSCC[C@H]([N-]C(=O)c1ccccc1NC(=O)Cc1ccc(-c2cc(Cl)ccc2S([NH-])(=O)=O)cc1)C(=O)[O-] (chirality)
CSCC[C@H]([N-]C(=O)c1ccccc1NC(=O)Cc1ccc(-c2cc(Cl)ccc2S([NH-])(=O)=O)cc1)C(=O)[O-] (3D coordinates assigned)
CSCC[C@H]([N-]C(=O)c1ccccc1NC(=O)Cc1ccc(-c2cc(Cl)ccc2S([NH-])(=O)=O)cc1)C(=O)[O-] (optimized conformer: 69.88950038921811 kcal/mol)

>  <smiles>  (32) 
CSCCC(NC(=O)c1ccccc1NC(=O)Cc1ccc(-c2cc(Cl)ccc2S(N)(=O)=O)cc1)C(=O)O

>  <score_type>  (32) 
oracle

>  <origin>  (32) 
adg

>  <m_score__min__energy>  (32) 
-14.57

>  <m_primary>  (32) 
energy

$$$$
32:0
     RDKit          3D

 40 42  0  0  0  0  0  0  0  0999 V2000
   55.2260   29.5800   44.7970 O   0  0  0  0  0  0  0  0  0  0  0  0
   56.4750   29.4300   44.8540 C   0  0  0  0  0  0  0  0  0  0  0  0
   57.0290   28.1450   44.5340 N   0  0  0  0  0  0  0  0  0  0  0  0
   57.9320   27.3910   45.3560 C   0  0  0  0  0  0  0  0  0  0  0  0
   59.3020   27.6590   45.2400 C   0  0  0  0  0  0  0  0  0  0  0  0
   60.2210   27.0350   46.0840 C   0  0  0  0  0  0  0  0  0  0  0  0
   59.7820   26.1300   47.0480 C   0  0  0  0  0  0  0  0  0  0  0  0
   58.4240   25.8230   47.1530 C   0  0  0  0  0  0  0  0  0  0  0  0
   57.4830   26.4250   46.2960 C   0  0  0  0  0  0  0  0  0  0  0  0
   56.0740   25.9760   46.3590 C   0  0  0  0  0  0  0  0  0  0  0  0
   55.1460   26.7430   45.9930 O   0  0  0  0  0  0  0  0  0  0  0  0
   55.7530   24.7220   46.8680 O   0  0  0  0  0  0  0  0  0  0  0  0
   57.3240   30.5810   45.2410 C   0  0  0  0  0  0  0  0  0  0  0  0
   57.3280   31.7660   44.4850 C   0  0  0  0  0  0  0  0  0  0  0  0
   58.1430   32.8380   44.8570 C   0  0  0  0  0  0  0  0  0  0  0  0
   58.9450   32.7580   45.9990 C   0  0  0  0  0  0  0  0  0  0  0  0
   59.7620   33.8500   46.3280 O   0  0  0  0  0  0  0  0  0  0  0  0
   60.8520   33.8150   47.2100 C   0  0  0  0  0  0  0  0  0  0  0  0
   60.7210   34.1530   48.5680 C   0  0  0  0  0  0  0  0  0  0  0  0
   61.8340   34.1220   49.4130 C   0  0  0  0  0  0  0  0  0  0  0  0
   63.1000   33.7640   48.9150 C   0  0  0  0  0  0  0  0  0  0  0  0
   64.2480   33.7300   49.7810 N   0  0  0  0  0  0  0  0  0  0  0  0
   64.2270   34.3050   50.8890 O   0  0  0  0  0  0  0  0  0  0  0  0
   65.3900   33.0610   49.4030 O   0  0  0  0  0  0  0  0  0  0  0  0
   63.2280   33.4470   47.5510 C   0  0  0  0  0  0  0  0  0  0  0  0
   62.1130   33.4790   46.7080 C   0  0  0  0  0  0  0  0  0  0  0  0
   58.9450   31.5740   46.7580 C   0  0  0  0  0  0  0  0  0  0  0  0
   58.1310   30.5000   46.3880 C   0  0  0  0  0  0  0  0  0  0  0  0
   59.6563   28.3676   44.4768 H   0  0  0  0  0  0  0  0  0  0  0  0
   61.2939   27.2579   45.9882 H   0  0  0  0  0  0  0  0  0  0  0  0
   60.5062   25.6567   47.7273 H   0  0  0  0  0  0  0  0  0  0  0  0
   58.0858   25.1034   47.9131 H   0  0  0  0  0  0  0  0  0  0  0  0
   56.6860   31.8497   43.5957 H   0  0  0  0  0  0  0  0  0  0  0  0
   58.1536   33.7527   44.2461 H   0  0  0  0  0  0  0  0  0  0  0  0
   59.7381   34.4432   48.9676 H   0  0  0  0  0  0  0  0  0  0  0  0
   61.7190   34.3797   50.4762 H   0  0  0  0  0  0  0  0  0  0  0  0
   64.2123   33.1719   47.1443 H   0  0  0  0  0  0  0  0  0  0  0  0
   62.2288   33.2378   45.6410 H   0  0  0  0  0  0  0  0  0  0  0  0
   59.5884   31.4930   47.6465 H   0  0  0  0  0  0  0  0  0  0  0  0
   58.1221   29.5853   46.9989 H   0  0  0  0  0  0  0  0  0  0  0  0
  1  2  2  0
  2  3  1  0
  3  4  1  0
  4  5  2  0
  5  6  1  0
  6  7  2  0
  7  8  1  0
  8  9  2  0
  9 10  1  0
 10 11  2  0
 10 12  1  0
  2 13  1  0
 13 14  2  0
 14 15  1  0
 15 16  2  0
 16 17  1  0
 17 18  1  0
 18 19  2  0
 19 20  1  0
 20 21  2  0
 21 22  1  0
 22 23  2  0
 22 24  1  0
 21 25  1  0
 25 26  2  0
 16 27  1  0
 27 28  2  0
  9  4  1  0
 28 13  1  0
 26 18  1  0
  5 29  1  0
  6 30  1  0
  7 31  1  0
  8 32  1  0
 14 33  1  0
 15 34  1  0
 19 35  1  0
 20 36  1  0
 25 37  1  0
 26 38  1  0
 27 39  1  0
 28 40  1  0
M  CHG  4   3  -1  12  -1  22   1  24  -1
M  END
>  <UniqueID>  (33) 
29

>  <SMILES>  (33) 
O=C([N-]c1ccccc1C(=O)[O-])c1ccc(Oc2ccc([N+](=O)[O-])cc2)cc1

>  <Energy>  (33) 
63.88541277011048

>  <Genealogy>  (33) 
O=C([N-]c1ccccc1C(=O)[O-])c1ccc(Oc2ccc([N+](=O)[O-])cc2)cc1 (protonated)
O=C([N-]c1ccccc1C(=O)[O-])c1ccc(Oc2ccc([N+](=O)[O-])cc2)cc1 (3D coordinates assigned)
O=C([N-]c1ccccc1C(=O)[O-])c1ccc(Oc2ccc([N+](=O)[O-])cc2)cc1 (optimized conformer: 63.88541277011048 kcal/mol)

>  <smiles>  (33) 
O=C(Nc1ccccc1C(=O)O)c1ccc(Oc2ccc([N+](=O)[O-])cc2)cc1

>  <score_type>  (33) 
oracle

>  <origin>  (33) 
adg

>  <m_score__min__energy>  (33) 
-13.24

>  <m_primary>  (33) 
energy

$$$$
33:0
     RDKit          3D

 44 47  0  0  0  0  0  0  0  0999 V2000
   57.4730   21.2610   45.0180 C   0  0  0  0  0  0  0  0  0  0  0  0
   57.2680   22.0860   46.2880 C   0  0  0  0  0  0  0  0  0  0  0  0
   57.6070   23.5500   46.1130 C   0  0  0  0  0  0  0  0  0  0  0  0
   58.8950   24.0740   46.0600 C   0  0  0  0  0  0  0  0  0  0  0  0
   58.7320   25.4170   45.8220 C   0  0  0  0  0  0  0  0  0  0  0  0
   59.7000   26.3930   45.6310 C   0  0  0  0  0  0  0  0  0  0  0  0
   59.2760   27.6960   45.3450 C   0  0  0  0  0  0  0  0  0  0  0  0
   57.8980   28.0160   45.2850 C   0  0  0  0  0  0  0  0  0  0  0  0
   57.5110   29.4190   45.0000 C   0  0  0  0  0  0  0  0  0  0  0  0
   56.2460   29.8620   44.8600 N   0  0  0  0  0  0  0  0  0  0  0  0
   56.3240   31.1600   44.6140 N   0  0  0  0  0  0  0  0  0  0  0  0
   57.6360   31.4610   44.6070 C   0  0  0  0  0  0  0  0  0  0  0  0
   58.1820   32.8350   44.3990 C   0  0  0  0  0  0  0  0  0  0  0  0
   58.7050   33.3800   45.6990 C   0  0  0  0  0  0  0  0  0  0  0  0
   59.2360   34.6790   45.7600 C   0  0  0  0  0  0  0  0  0  0  0  0
   59.6880   35.1980   46.9770 C   0  0  0  0  0  0  0  0  0  0  0  0
   59.6060   34.4290   48.1420 C   0  0  0  0  0  0  0  0  0  0  0  0
   60.0440   34.9340   49.3210 F   0  0  0  0  0  0  0  0  0  0  0  0
   59.0660   33.1400   48.0900 C   0  0  0  0  0  0  0  0  0  0  0  0
   58.6120   32.6170   46.8740 C   0  0  0  0  0  0  0  0  0  0  0  0
   58.3690   30.4010   44.8460 O   0  0  0  0  0  0  0  0  0  0  0  0
   56.9270   27.0050   45.5250 C   0  0  0  0  0  0  0  0  0  0  0  0
   55.5770   27.3560   45.5870 O   0  0  0  0  0  0  0  0  0  0  0  0
   57.3850   25.6840   45.7460 C   0  0  0  0  0  0  0  0  0  0  0  0
   56.6860   24.5260   45.8770 N   0  0  0  0  0  0  0  0  0  0  0  0
   55.2490   24.3140   45.6830 C   0  0  0  0  0  0  0  0  0  0  0  0
   57.7300   20.2267   45.2902 H   0  0  0  0  0  0  0  0  0  0  0  0
   56.5466   21.2647   44.4249 H   0  0  0  0  0  0  0  0  0  0  0  0
   58.2899   21.6978   44.4249 H   0  0  0  0  0  0  0  0  0  0  0  0
   56.2133   22.0057   46.5898 H   0  0  0  0  0  0  0  0  0  0  0  0
   57.9499   21.6831   47.0513 H   0  0  0  0  0  0  0  0  0  0  0  0
   59.8424   23.5286   46.1826 H   0  0  0  0  0  0  0  0  0  0  0  0
   60.7703   26.1495   45.7024 H   0  0  0  0  0  0  0  0  0  0  0  0
   60.0237   28.4823   45.1644 H   0  0  0  0  0  0  0  0  0  0  0  0
   59.0001   32.7951   43.6648 H   0  0  0  0  0  0  0  0  0  0  0  0
   57.3807   33.4907   44.0276 H   0  0  0  0  0  0  0  0  0  0  0  0
   59.2964   35.2899   44.8473 H   0  0  0  0  0  0  0  0  0  0  0  0
   60.1090   36.2134   47.0181 H   0  0  0  0  0  0  0  0  0  0  0  0
   58.9980   32.5360   49.0068 H   0  0  0  0  0  0  0  0  0  0  0  0
   58.1811   31.6055   46.8386 H   0  0  0  0  0  0  0  0  0  0  0  0
   55.1420   28.0190   44.9640 H   0  0  0  0  0  0  0  0  0  0  0  0
   54.7536   24.2409   46.6624 H   0  0  0  0  0  0  0  0  0  0  0  0
   54.8263   25.1595   45.1205 H   0  0  0  0  0  0  0  0  0  0  0  0
   55.0884   23.3824   45.1205 H   0  0  0  0  0  0  0  0  0  0  0  0
  1  2  1  0
  2  3  1  0
  3  4  2  0
  4  5  1  0
  5  6  2  0
  6  7  1  0
  7  8  2  0
  8  9  1  0
  9 10  2  0
 10 11  1  0
 11 12  2  0
 12 13  1  0
 13 14  1  0
 14 15  2  0
 15 16  1  0
 16 17  2  0
 17 18  1  0
 17 19  1  0
 19 20  2  0
 12 21  1  0
  8 22  1  0
 22 23  1  0
 22 24  2  0
 24 25  1  0
 25 26  1  0
 25  3  1  0
 24  5  1  0
 21  9  1  0
 20 14  1  0
  1 27  1  0
  1 28  1  0
  1 29  1  0
  2 30  1  0
  2 31  1  0
  4 32  1  0
  6 33  1  0
  7 34  1  0
 13 35  1  0
 13 36  1  0
 15 37  1  0
 16 38  1  0
 19 39  1  0
 20 40  1  0
 23 41  1  0
 26 42  1  0
 26 43  1  0
 26 44  1  0
M  END
>  <UniqueID>  (34) 
30

>  <SMILES>  (34) 
CCc1cc2ccc(-c3nnc(Cc4ccc(F)cc4)o3)c(O)c2n1C

>  <Energy>  (34) 
120.05005349223052

>  <Genealogy>  (34) 
CCc1cc2ccc(-c3nnc(Cc4ccc(F)cc4)o3)c(O)c2n1C (3D coordinates assigned)
CCc1cc2ccc(-c3nnc(Cc4ccc(F)cc4)o3)c(O)c2n1C (optimized conformer: 120.05005349223052 kcal/mol)

>  <smiles>  (34) 
CCc1cc2ccc(-c3nnc(Cc4ccc(F)cc4)o3)c(O)c2n1C

>  <score_type>  (34) 
oracle

>  <origin>  (34) 
adg

>  <m_score__min__energy>  (34) 
-9.4199999999999999

>  <m_primary>  (34) 
energy

$$$$
34:0
     RDKit          3D

 47 50  0  0  0  0  0  0  0  0999 V2000
   63.7100   34.2100   47.7800 O   0  0  0  0  0  0  0  0  0  0  0  0
   62.8600   32.9820   47.9440 S   0  0  0  0  0  0  0  0  0  0  0  0
   63.0710   32.0950   46.7510 O   0  0  0  0  0  0  0  0  0  0  0  0
   63.3350   32.0610   49.3880 C   0  0  0  0  0  0  0  0  0  0  0  0
   64.4080   32.4980   50.1930 C   0  0  0  0  0  0  0  0  0  0  0  0
   65.1130   33.6150   49.8820 F   0  0  0  0  0  0  0  0  0  0  0  0
   64.7590   31.7920   51.3470 C   0  0  0  0  0  0  0  0  0  0  0  0
   64.0560   30.6450   51.7100 C   0  0  0  0  0  0  0  0  0  0  0  0
   63.0000   30.1950   50.9190 C   0  0  0  0  0  0  0  0  0  0  0  0
   62.6350   30.8890   49.7600 C   0  0  0  0  0  0  0  0  0  0  0  0
   61.1820   30.1810   48.7290 Br  0  0  0  0  0  0  0  0  0  0  0  0
   61.1910   33.4770   48.0420 N   0  0  0  0  0  0  0  0  0  0  0  0
   60.5850   34.1930   46.9120 C   0  0  0  0  0  0  0  0  0  0  0  0
   59.4680   33.3970   46.2900 C   0  0  0  0  0  0  0  0  0  0  0  0
   59.4890   31.9940   46.3310 C   0  0  0  0  0  0  0  0  0  0  0  0
   58.4660   31.2520   45.7330 C   0  0  0  0  0  0  0  0  0  0  0  0
   57.3970   31.9040   45.0910 C   0  0  0  0  0  0  0  0  0  0  0  0
   56.3460   31.2100   44.4690 O   0  0  0  0  0  0  0  0  0  0  0  0
   56.4190   29.8720   43.9820 C   0  0  0  0  0  0  0  0  0  0  0  0
   55.6830   29.0500   44.8140 F   0  0  0  0  0  0  0  0  0  0  0  0
   57.7340   29.4380   43.9790 F   0  0  0  0  0  0  0  0  0  0  0  0
   55.8950   29.7990   42.7040 F   0  0  0  0  0  0  0  0  0  0  0  0
   57.3710   33.3040   45.0660 C   0  0  0  0  0  0  0  0  0  0  0  0
   58.3940   34.0460   45.6630 C   0  0  0  0  0  0  0  0  0  0  0  0
   60.4830   33.3730   49.2920 C   0  0  0  0  0  0  0  0  0  0  0  0
   60.9980   33.7700   50.4830 N   0  0  0  0  0  0  0  0  0  0  0  0
   60.1440   33.5180   51.5070 C   0  0  0  0  0  0  0  0  0  0  0  0
   60.4040   33.8040   52.8500 C   0  0  0  0  0  0  0  0  0  0  0  0
   59.4290   33.4800   53.8090 C   0  0  0  0  0  0  0  0  0  0  0  0
   58.2160   32.8800   53.4200 C   0  0  0  0  0  0  0  0  0  0  0  0
   57.9630   32.6030   52.0660 C   0  0  0  0  0  0  0  0  0  0  0  0
   56.7980   32.0250   51.6810 F   0  0  0  0  0  0  0  0  0  0  0  0
   58.9430   32.9320   51.1340 C   0  0  0  0  0  0  0  0  0  0  0  0
   58.9300   32.7130   49.4680 S   0  0  0  0  0  0  0  0  0  0  0  0
   65.5938   32.1433   51.9713 H   0  0  0  0  0  0  0  0  0  0  0  0
   64.3343   30.0946   52.6208 H   0  0  0  0  0  0  0  0  0  0  0  0
   62.4495   29.2876   51.2081 H   0  0  0  0  0  0  0  0  0  0  0  0
   60.1837   35.1524   47.2704 H   0  0  0  0  0  0  0  0  0  0  0  0
   61.3609   34.3539   46.1490 H   0  0  0  0  0  0  0  0  0  0  0  0
   60.3161   31.4747   46.8372 H   0  0  0  0  0  0  0  0  0  0  0  0
   58.4970   30.1529   45.7645 H   0  0  0  0  0  0  0  0  0  0  0  0
   56.5375   33.8246   44.5718 H   0  0  0  0  0  0  0  0  0  0  0  0
   58.3567   35.1452   45.6411 H   0  0  0  0  0  0  0  0  0  0  0  0
   61.9250   34.2350   50.6030 H   0  0  0  0  0  0  0  0  0  0  0  0
   61.3525   34.2732   53.1504 H   0  0  0  0  0  0  0  0  0  0  0  0
   59.6149   33.6967   54.8713 H   0  0  0  0  0  0  0  0  0  0  0  0
   57.4624   32.6268   54.1803 H   0  0  0  0  0  0  0  0  0  0  0  0
  1  2  2  0
  2  3  2  0
  2  4  1  0
  4  5  2  0
  5  6  1  0
  5  7  1  0
  7  8  2  0
  8  9  1  0
  9 10  2  0
 10 11  1  0
  2 12  1  0
 12 13  1  0
 13 14  1  0
 14 15  2  0
 15 16  1  0
 16 17  2  0
 17 18  1  0
 18 19  1  0
 19 20  1  0
 19 21  1  0
 19 22  1  0
 17 23  1  0
 23 24  2  0
 12 25  1  0
 25 26  2  0
 26 27  1  0
 27 28  2  0
 28 29  1  0
 29 30  2  0
 30 31  1  0
 31 32  1  0
 31 33  2  0
 33 34  1  0
 10  4  1  0
 24 14  1  0
 34 25  1  0
 33 27  1  0
  7 35  1  0
  8 36  1  0
  9 37  1  0
 13 38  1  0
 13 39  1  0
 15 40  1  0
 16 41  1  0
 23 42  1  0
 24 43  1  0
 26 44  1  0
 28 45  1  0
 29 46  1  0
 30 47  1  0
M  CHG  1  26   1
M  END
>  <UniqueID>  (35) 
31

>  <SMILES>  (35) 
O=S(=O)(c1c(F)cccc1Br)N(Cc1ccc(OC(F)(F)F)cc1)c1[nH+]c2cccc(F)c2s1

>  <Energy>  (35) 
91.00715003074933

>  <Genealogy>  (35) 
O=S(=O)(c1c(F)cccc1Br)N(Cc1ccc(OC(F)(F)F)cc1)c1[nH+]c2cccc(F)c2s1 (protonated)
O=S(=O)(c1c(F)cccc1Br)N(Cc1ccc(OC(F)(F)F)cc1)c1[nH+]c2cccc(F)c2s1 (3D coordinates assigned)
O=S(=O)(c1c(F)cccc1Br)N(Cc1ccc(OC(F)(F)F)cc1)c1[nH+]c2cccc(F)c2s1 (optimized conformer: 91.00715003074933 kcal/mol)

>  <smiles>  (35) 
O=S(=O)(c1c(F)cccc1Br)N(Cc1ccc(OC(F)(F)F)cc1)c1nc2cccc(F)c2s1

>  <score_type>  (35) 
oracle

>  <origin>  (35) 
adg

>  <m_score__min__energy>  (35) 
-7.0999999999999996

>  <m_primary>  (35) 
energy

$$$$
35:0
     RDKit          3D

 50 53  0  0  0  0  0  0  0  0999 V2000
   64.4350   31.2890   51.0790 C   0  0  0  0  0  0  0  0  0  0  0  0
   63.2870   31.0430   50.3050 O   0  0  0  0  0  0  0  0  0  0  0  0
   63.1070   31.7300   49.1180 C   0  0  0  0  0  0  0  0  0  0  0  0
   63.9290   32.7140   48.6480 C   0  0  0  0  0  0  0  0  0  0  0  0
   63.7600   33.3920   47.4850 C   0  0  0  0  0  0  0  0  0  0  0  0
   62.6600   33.0630   46.7010 C   0  0  0  0  0  0  0  0  0  0  0  0
   61.8070   32.0680   47.1540 C   0  0  0  0  0  0  0  0  0  0  0  0
   61.9940   31.3900   48.3360 C   0  0  0  0  0  0  0  0  0  0  0  0
   61.1170   30.3080   48.8330 C   0  0  0  0  0  0  0  0  0  0  0  0
   60.0640   29.9770   47.8810 C   0  0  0  0  0  0  0  0  0  0  0  0
   60.2180   28.8140   47.1780 N   0  0  0  0  0  0  0  0  0  0  0  0
   59.3360   28.3610   46.2870 C   0  0  0  0  0  0  0  0  0  0  0  0
   59.4800   27.2210   45.5910 N   0  0  0  0  0  0  0  0  0  0  0  0
   58.5580   26.7970   44.6910 C   0  0  0  0  0  0  0  0  0  0  0  0
   57.4380   27.5400   44.4710 N   0  0  0  0  0  0  0  0  0  0  0  0
   57.2280   28.6890   45.1310 C   0  0  0  0  0  0  0  0  0  0  0  0
   56.1430   29.3820   44.9000 N   0  0  0  0  0  0  0  0  0  0  0  0
   58.1830   29.0940   46.0390 C   0  0  0  0  0  0  0  0  0  0  0  0
   58.0280   30.2230   46.7180 N   0  0  0  0  0  0  0  0  0  0  0  0
   58.9270   30.6990   47.6340 C   0  0  0  0  0  0  0  0  0  0  0  0
   58.6770   31.9700   48.3080 C   0  0  0  0  0  0  0  0  0  0  0  0
   58.9130   33.1420   47.3850 C   0  0  0  0  0  0  0  0  0  0  0  0
   58.5890   33.0540   46.0390 C   0  0  0  0  0  0  0  0  0  0  0  0
   58.7800   34.0890   45.1480 C   0  0  0  0  0  0  0  0  0  0  0  0
   59.3210   35.2530   45.6580 C   0  0  0  0  0  0  0  0  0  0  0  0
   59.6490   35.3470   47.0120 C   0  0  0  0  0  0  0  0  0  0  0  0
   59.4570   34.3150   47.8940 C   0  0  0  0  0  0  0  0  0  0  0  0
   59.7490   34.3280   49.2310 O   0  0  0  0  0  0  0  0  0  0  0  0
   61.0440   34.1970   49.7420 C   0  0  0  0  0  0  0  0  0  0  0  0
   64.1762   31.2335   52.1467 H   0  0  0  0  0  0  0  0  0  0  0  0
   65.2016   30.5347   50.8479 H   0  0  0  0  0  0  0  0  0  0  0  0
   64.8252   32.2912   50.8479 H   0  0  0  0  0  0  0  0  0  0  0  0
   64.8011   32.9791   49.2638 H   0  0  0  0  0  0  0  0  0  0  0  0
   64.4680   34.1741   47.1735 H   0  0  0  0  0  0  0  0  0  0  0  0
   62.4715   33.5779   45.7474 H   0  0  0  0  0  0  0  0  0  0  0  0
   60.9353   31.8073   46.5358 H   0  0  0  0  0  0  0  0  0  0  0  0
   61.7274   29.4109   49.0133 H   0  0  0  0  0  0  0  0  0  0  0  0
   60.6390   30.6573   49.7601 H   0  0  0  0  0  0  0  0  0  0  0  0
   58.7142   25.8571   44.1412 H   0  0  0  0  0  0  0  0  0  0  0  0
   56.7460   27.1870   43.7710 H   0  0  0  0  0  0  0  0  0  0  0  0
   55.9100   30.0930   45.6370 H   0  0  0  0  0  0  0  0  0  0  0  0
   57.6330   31.9919   48.6537 H   0  0  0  0  0  0  0  0  0  0  0  0
   59.3723   32.0534   49.1563 H   0  0  0  0  0  0  0  0  0  0  0  0
   58.1590   32.1133   45.6644 H   0  0  0  0  0  0  0  0  0  0  0  0
   58.5149   33.9925   44.0848 H   0  0  0  0  0  0  0  0  0  0  0  0
   59.4947   36.1118   44.9930 H   0  0  0  0  0  0  0  0  0  0  0  0
   60.0791   36.2877   47.3864 H   0  0  0  0  0  0  0  0  0  0  0  0
   61.0065   34.2008   50.8414 H   0  0  0  0  0  0  0  0  0  0  0  0
   61.4817   33.2500   49.3933 H   0  0  0  0  0  0  0  0  0  0  0  0
   61.6625   35.0372   49.3933 H   0  0  0  0  0  0  0  0  0  0  0  0
  1  2  1  0
  2  3  1  0
  3  4  2  0
  4  5  1  0
  5  6  2  0
  6  7  1  0
  7  8  2  0
  8  9  1  0
  9 10  1  0
 10 11  2  0
 11 12  1  0
 12 13  1  0
 13 14  2  0
 14 15  1  0
 15 16  1  0
 16 17  2  3
 16 18  1  0
 18 19  1  0
 19 20  2  0
 20 21  1  0
 21 22  1  0
 22 23  2  0
 23 24  1  0
 24 25  2  0
 25 26  1  0
 26 27  2  0
 27 28  1  0
 28 29  1  0
  8  3  1  0
 20 10  1  0
 27 22  1  0
 18 12  2  0
  1 30  1  0
  1 31  1  0
  1 32  1  0
  4 33  1  0
  5 34  1  0
  6 35  1  0
  7 36  1  0
  9 37  1  0
  9 38  1  0
 14 39  1  0
 15 40  1  0
 17 41  1  0
 21 42  1  0
 21 43  1  0
 23 44  1  0
 24 45  1  0
 25 46  1  0
 26 47  1  0
 29 48  1  0
 29 49  1  0
 29 50  1  0
M  END
>  <smiles>  (36) 
COc1ccccc1Cc1nc2nc[nH]c(=N)c2nc1Cc1ccccc1OC

>  <score_type>  (36) 
oracle

>  <origin>  (36) 
adg

>  <m_score__min__energy>  (36) 
-8.4299999999999997

>  <m_primary>  (36) 
energy

$$$$
36:0
     RDKit          3D

 44 45  0  0  0  0  0  0  0  0999 V2000
   56.9940   20.7280   42.8490 C   0  0  0  0  0  0  0  0  0  0  0  0
   55.9230   21.6530   42.9950 O   0  0  0  0  0  0  0  0  0  0  0  0
   56.0020   22.8450   43.7290 C   0  0  0  0  0  0  0  0  0  0  0  0
   55.0980   23.1590   44.7610 C   0  0  0  0  0  0  0  0  0  0  0  0
   55.2400   24.3450   45.4860 C   0  0  0  0  0  0  0  0  0  0  0  0
   56.3100   25.2160   45.2230 C   0  0  0  0  0  0  0  0  0  0  0  0
   56.4930   26.4630   45.9980 C   0  0  0  0  0  0  0  0  0  0  0  0
   55.8950   27.5050   45.6210 O   0  0  0  0  0  0  0  0  0  0  0  0
   57.3220   26.5400   47.1690 N   0  0  0  0  0  0  0  0  0  0  0  0
   58.7130   26.1090   47.2960 C   0  0  0  0  0  0  0  0  0  0  0  0
   59.6450   27.3000   47.5450 C   0  0  0  0  0  0  0  0  0  0  0  0
   59.8400   28.0830   46.3670 O   0  0  0  0  0  0  0  0  0  0  0  0
   59.2630   29.3390   46.1100 C   0  0  0  0  0  0  0  0  0  0  0  0
   58.0120   29.3690   45.4840 C   0  0  0  0  0  0  0  0  0  0  0  0
   57.4060   30.5810   45.1420 C   0  0  0  0  0  0  0  0  0  0  0  0
   56.1700   30.5430   44.4790 O   0  0  0  0  0  0  0  0  0  0  0  0
   55.8970   29.7460   43.3320 C   0  0  0  0  0  0  0  0  0  0  0  0
   58.0560   31.7880   45.4560 C   0  0  0  0  0  0  0  0  0  0  0  0
   59.2950   31.7810   46.1050 C   0  0  0  0  0  0  0  0  0  0  0  0
   59.9010   33.0150   46.3880 O   0  0  0  0  0  0  0  0  0  0  0  0
   59.2650   34.2790   46.2330 C   0  0  0  0  0  0  0  0  0  0  0  0
   59.8920   30.5530   46.4440 C   0  0  0  0  0  0  0  0  0  0  0  0
   57.1800   24.9250   44.1590 C   0  0  0  0  0  0  0  0  0  0  0  0
   57.0240   23.7490   43.4200 C   0  0  0  0  0  0  0  0  0  0  0  0
   57.3506   20.4200   43.8430 H   0  0  0  0  0  0  0  0  0  0  0  0
   56.6427   19.8447   42.2956 H   0  0  0  0  0  0  0  0  0  0  0  0
   57.8168   21.2041   42.2956 H   0  0  0  0  0  0  0  0  0  0  0  0
   54.2759   22.4676   44.9979 H   0  0  0  0  0  0  0  0  0  0  0  0
   54.5089   24.5982   46.2679 H   0  0  0  0  0  0  0  0  0  0  0  0
   58.7951   25.4075   48.1393 H   0  0  0  0  0  0  0  0  0  0  0  0
   59.0133   25.6241   46.3554 H   0  0  0  0  0  0  0  0  0  0  0  0
   59.2054   27.9375   48.3262 H   0  0  0  0  0  0  0  0  0  0  0  0
   60.6236   26.9059   47.8564 H   0  0  0  0  0  0  0  0  0  0  0  0
   57.4973   28.4236   45.2575 H   0  0  0  0  0  0  0  0  0  0  0  0
   55.5558   28.7499   43.6504 H   0  0  0  0  0  0  0  0  0  0  0  0
   55.1124   30.2271   42.7295 H   0  0  0  0  0  0  0  0  0  0  0  0
   56.8118   29.6450   42.7295 H   0  0  0  0  0  0  0  0  0  0  0  0
   57.5859   32.7459   45.1889 H   0  0  0  0  0  0  0  0  0  0  0  0
   59.0504   34.7055   47.2240 H   0  0  0  0  0  0  0  0  0  0  0  0
   59.9289   34.9578   45.6776 H   0  0  0  0  0  0  0  0  0  0  0  0
   58.3242   34.1505   45.6776 H   0  0  0  0  0  0  0  0  0  0  0  0
   60.8562   30.5416   46.9733 H   0  0  0  0  0  0  0  0  0  0  0  0
   57.9885   25.6267   43.9061 H   0  0  0  0  0  0  0  0  0  0  0  0
   57.7106   23.5324   42.5884 H   0  0  0  0  0  0  0  0  0  0  0  0
  1  2  1  0
  2  3  1  0
  3  4  2  0
  4  5  1  0
  5  6  2  0
  6  7  1  0
  7  8  2  0
  7  9  1  0
  9 10  1  0
 10 11  1  0
 11 12  1  0
 12 13  1  0
 13 14  2  0
 14 15  1  0
 15 16  1  0
 16 17  1  0
 15 18  2  0
 18 19  1  0
 19 20  1  0
 20 21  1  0
 19 22  2  0
  6 23  1  0
 23 24  2  0
 24  3  1  0
 22 13  1  0
  1 25  1  0
  1 26  1  0
  1 27  1  0
  4 28  1  0
  5 29  1  0
 10 30  1  0
 10 31  1  0
 11 32  1  0
 11 33  1  0
 14 34  1  0
 17 35  1  0
 17 36  1  0
 17 37  1  0
 18 38  1  0
 21 39  1  0
 21 40  1  0
 21 41  1  0
 22 42  1  0
 23 43  1  0
 24 44  1  0
M  CHG  1   9  -1
M  END
>  <UniqueID>  (37) 
32

>  <SMILES>  (37) 
COc1ccc(C(=O)[N-]CCOc2cc(OC)cc(OC)c2)cc1

>  <Energy>  (37) 
39.79710881282813

>  <Genealogy>  (37) 
COc1ccc(C(=O)[N-]CCOc2cc(OC)cc(OC)c2)cc1 (protonated)
COc1ccc(C(=O)[N-]CCOc2cc(OC)cc(OC)c2)cc1 (3D coordinates assigned)
COc1ccc(C(=O)[N-]CCOc2cc(OC)cc(OC)c2)cc1 (optimized conformer: 39.79710881282813 kcal/mol)

>  <smiles>  (37) 
COc1ccc(C(=O)NCCOc2cc(OC)cc(OC)c2)cc1

>  <score_type>  (37) 
oracle

>  <origin>  (37) 
adg

>  <m_score__min__energy>  (37) 
-8.3900000000000006

>  <m_primary>  (37) 
energy

$$$$
37:0
     RDKit          3D

 61 64  0  0  0  0  0  0  0  0999 V2000
   58.0480   29.4170   44.2280 O   0  0  0  0  0  0  0  0  0  0  0  0
   56.8680   29.6440   44.6140 C   0  0  0  0  0  0  0  0  0  0  0  0
   56.2960   31.0190   44.4630 C   0  0  0  0  0  0  0  0  0  0  0  0
   57.3590   32.0340   44.7810 C   0  0  0  0  0  0  0  0  0  0  0  0
   57.7710   32.9540   43.8060 C   0  0  0  0  0  0  0  0  0  0  0  0
   58.7030   33.9450   44.1240 C   0  0  0  0  0  0  0  0  0  0  0  0
   59.2150   34.0410   45.4210 C   0  0  0  0  0  0  0  0  0  0  0  0
   60.1010   35.0290   45.7090 F   0  0  0  0  0  0  0  0  0  0  0  0
   58.7890   33.1440   46.4170 C   0  0  0  0  0  0  0  0  0  0  0  0
   59.3160   33.2370   47.7970 C   0  0  0  0  0  0  0  0  0  0  0  0
   58.6150   32.8080   48.7540 O   0  0  0  0  0  0  0  0  0  0  0  0
   60.6110   33.8070   48.0670 N   0  0  0  0  0  0  0  0  0  0  0  0
   61.7510   33.5150   47.1840 C   0  0  0  0  0  0  0  0  0  0  0  0
   63.0750   33.7750   47.9090 C   0  0  0  0  0  0  0  0  0  0  0  0
   62.9830   33.2540   49.2770 N   0  0  0  0  0  0  0  0  0  0  0  0
   62.0210   34.0140   50.0990 C   0  0  0  0  0  0  0  0  0  0  0  0
   60.8380   34.5880   49.2890 C   0  0  0  0  0  0  0  0  0  0  0  0
   57.8710   32.1340   46.0830 C   0  0  0  0  0  0  0  0  0  0  0  0
   56.1000   28.6070   45.2360 N   0  0  0  0  0  0  0  0  0  0  0  0
   56.7040   27.5230   45.9590 C   0  0  0  0  0  0  0  0  0  0  0  0
   58.0520   27.5940   46.3570 C   0  0  0  0  0  0  0  0  0  0  0  0
   58.6350   26.5510   47.0860 C   0  0  0  0  0  0  0  0  0  0  0  0
   60.3220   26.6560   47.5810 S   0  0  0  0  0  0  0  0  0  0  0  0
   61.1710   25.9170   46.5830 O   0  0  0  0  0  0  0  0  0  0  0  0
   60.4940   26.0030   48.9260 O   0  0  0  0  0  0  0  0  0  0  0  0
   60.8200   28.3280   47.6510 N   0  0  0  0  0  0  0  0  0  0  0  0
   60.6880   28.9550   46.3210 C   0  0  0  0  0  0  0  0  0  0  0  0
   60.7560   30.4910   46.4220 C   0  0  0  0  0  0  0  0  0  0  0  0
   61.3250   30.8840   47.6540 O   0  0  0  0  0  0  0  0  0  0  0  0
   60.4610   30.5240   48.7190 C   0  0  0  0  0  0  0  0  0  0  0  0
   60.0070   29.0500   48.6400 C   0  0  0  0  0  0  0  0  0  0  0  0
   57.8680   25.4250   47.4170 C   0  0  0  0  0  0  0  0  0  0  0  0
   56.5240   25.3560   47.0430 C   0  0  0  0  0  0  0  0  0  0  0  0
   55.9380   26.4030   46.3250 C   0  0  0  0  0  0  0  0  0  0  0  0
   54.5980   26.3200   45.9640 O   0  0  0  0  0  0  0  0  0  0  0  0
   55.9486   31.1615   43.4291 H   0  0  0  0  0  0  0  0  0  0  0  0
   55.4475   31.1441   45.1517 H   0  0  0  0  0  0  0  0  0  0  0  0
   57.3591   32.8952   42.7877 H   0  0  0  0  0  0  0  0  0  0  0  0
   59.0353   34.6528   43.3503 H   0  0  0  0  0  0  0  0  0  0  0  0
   61.7087   32.4599   46.8760 H   0  0  0  0  0  0  0  0  0  0  0  0
   61.6943   34.1712   46.3030 H   0  0  0  0  0  0  0  0  0  0  0  0
   63.8927   33.2680   47.3759 H   0  0  0  0  0  0  0  0  0  0  0  0
   63.2764   34.8560   47.9367 H   0  0  0  0  0  0  0  0  0  0  0  0
   63.9290   33.3320   49.7210 H   0  0  0  0  0  0  0  0  0  0  0  0
   61.6200   33.3444   50.8742 H   0  0  0  0  0  0  0  0  0  0  0  0
   62.5652   34.8687   50.5272 H   0  0  0  0  0  0  0  0  0  0  0  0
   59.9296   34.5590   49.9087 H   0  0  0  0  0  0  0  0  0  0  0  0
   61.0767   35.6235   49.0047 H   0  0  0  0  0  0  0  0  0  0  0  0
   57.5505   31.4142   46.8506 H   0  0  0  0  0  0  0  0  0  0  0  0
   55.0590   28.6390   45.1560 H   0  0  0  0  0  0  0  0  0  0  0  0
   58.6527   28.4768   46.0929 H   0  0  0  0  0  0  0  0  0  0  0  0
   61.5045   28.6011   45.6745 H   0  0  0  0  0  0  0  0  0  0  0  0
   59.7114   28.6758   45.8988 H   0  0  0  0  0  0  0  0  0  0  0  0
   61.3726   30.8804   45.5985 H   0  0  0  0  0  0  0  0  0  0  0  0
   59.7353   30.8960   46.3578 H   0  0  0  0  0  0  0  0  0  0  0  0
   60.9904   30.6795   49.6706 H   0  0  0  0  0  0  0  0  0  0  0  0
   59.5625   31.1546   48.6481 H   0  0  0  0  0  0  0  0  0  0  0  0
   60.1280   28.5778   49.6261 H   0  0  0  0  0  0  0  0  0  0  0  0
   58.9503   29.0125   48.3367 H   0  0  0  0  0  0  0  0  0  0  0  0
   58.3260   24.5935   47.9728 H   0  0  0  0  0  0  0  0  0  0  0  0
   55.9243   24.4747   47.3143 H   0  0  0  0  0  0  0  0  0  0  0  0
  1  2  2  0
  2  3  1  0
  3  4  1  0
  4  5  2  0
  5  6  1  0
  6  7  2  0
  7  8  1  0
  7  9  1  0
  9 10  1  0
 10 11  2  0
 10 12  1  0
 12 13  1  0
 13 14  1  0
 14 15  1  0
 15 16  1  0
 16 17  1  0
  9 18  2  0
  2 19  1  0
 19 20  1  0
 20 21  2  0
 21 22  1  0
 22 23  1  0
 23 24  2  0
 23 25  2  0
 23 26  1  0
 26 27  1  0
 27 28  1  0
 28 29  1  0
 29 30  1  0
 30 31  1  0
 22 32  2  0
 32 33  1  0
 33 34  2  0
 34 35  1  0
 18  4  1  0
 34 20  1  0
 17 12  1  0
 31 26  1  0
  3 36  1  0
  3 37  1  0
  5 38  1  0
  6 39  1  0
 13 40  1  0
 13 41  1  0
 14 42  1  0
 14 43  1  0
 15 44  1  0
 16 45  1  0
 16 46  1  0
 17 47  1  0
 17 48  1  0
 18 49  1  0
 19 50  1  0
 21 51  1  0
 27 52  1  0
 27 53  1  0
 28 54  1  0
 28 55  1  0
 30 56  1  0
 30 57  1  0
 31 58  1  0
 31 59  1  0
 32 60  1  0
 33 61  1  0
M  CHG  1  35  -1
M  END
>  <UniqueID>  (38) 
33

>  <SMILES>  (38) 
O=C(Cc1ccc(F)c(C(=O)N2CCNCC2)c1)Nc1cc(S(=O)(=O)N2CCOCC2)ccc1[O-]

>  <Energy>  (38) 
80.3362703870201

>  <Genealogy>  (38) 
O=C(Cc1ccc(F)c(C(=O)N2CCNCC2)c1)Nc1cc(S(=O)(=O)N2CCOCC2)ccc1[O-] (protonated)
O=C(Cc1ccc(F)c(C(=O)N2CCNCC2)c1)Nc1cc(S(=O)(=O)N2CCOCC2)ccc1[O-] (3D coordinates assigned)
O=C(Cc1ccc(F)c(C(=O)N2CCNCC2)c1)Nc1cc(S(=O)(=O)N2CCOCC2)ccc1[O-] (nonaromatic ring conformer: 80.3362703870201 kcal/mol)

>  <smiles>  (38) 
O=C(Cc1ccc(F)c(C(=O)N2CCNCC2)c1)Nc1cc(S(=O)(=O)N2CCOCC2)ccc1O

>  <score_type>  (38) 
oracle

>  <origin>  (38) 
adg

>  <m_score__min__energy>  (38) 
-12.640000000000001

>  <m_primary>  (38) 
energy

$$$$
38:0
     RDKit          3D

 49 51  0  0  0  0  0  0  0  0999 V2000
   55.2480   28.2970   44.7280 H   0  0  0  0  0  0  0  0  0  0  0  0
   55.1550   29.3360   44.7760 N   0  0  0  0  0  0  0  0  0  0  0  0
   55.9380   30.1790   43.9370 C   0  0  0  0  0  0  0  0  0  0  0  0
   55.9490   29.9850   42.6910 O   0  0  0  0  0  0  0  0  0  0  0  0
   56.7990   31.1540   44.5280 N   0  0  0  0  0  0  0  0  0  0  0  0
   57.6070   31.0420   45.5470 C   0  0  0  0  0  0  0  0  0  0  0  0
   58.0790   29.8200   45.9820 C   0  0  0  0  0  0  0  0  0  0  0  0
   57.8197   28.8219   45.5993 H   0  0  0  0  0  0  0  0  0  0  0  0
   58.9510   30.1340   47.0070 C   0  0  0  0  0  0  0  0  0  0  0  0
   59.7470   29.1710   47.8490 C   0  0  1  0  0  0  0  0  0  0  0  0
   60.6439   28.8819   47.2815 H   0  0  0  0  0  0  0  0  0  0  0  0
   60.1390   29.7750   49.0550 O   0  0  0  0  0  0  0  0  0  0  0  0
   60.6770   30.5740   48.8140 H   0  0  0  0  0  0  0  0  0  0  0  0
   58.9470   27.9790   48.1470 N   0  0  0  0  0  0  0  0  0  0  0  0
   58.2960   28.0050   48.9660 H   0  0  0  0  0  0  0  0  0  0  0  0
   58.9930   26.7690   47.3670 C   0  0  0  0  0  0  0  0  0  0  0  0
   60.1850   26.3120   46.7760 C   0  0  0  0  0  0  0  0  0  0  0  0
   61.1145   26.8860   46.9050 H   0  0  0  0  0  0  0  0  0  0  0  0
   60.1950   25.1330   46.0260 C   0  0  0  0  0  0  0  0  0  0  0  0
   61.1331   24.7810   45.5720 H   0  0  0  0  0  0  0  0  0  0  0  0
   59.0190   24.3990   45.8500 C   0  0  0  0  0  0  0  0  0  0  0  0
   59.0640   22.9200   44.9000 Cl  0  0  0  0  0  0  0  0  0  0  0  0
   57.8190   24.8380   46.4260 C   0  0  0  0  0  0  0  0  0  0  0  0
   56.6550   24.0740   46.2190 O   0  0  0  0  0  0  0  0  0  0  0  0
   55.6890   24.2990   45.1920 C   0  0  0  0  0  0  0  0  0  0  0  0
   56.2021   24.6460   44.2830 H   0  0  0  0  0  0  0  0  0  0  0  0
   55.1574   23.3568   44.9932 H   0  0  0  0  0  0  0  0  0  0  0  0
   54.6950   25.3320   45.6200 C   0  0  0  0  0  0  0  0  0  0  0  0
   53.4640   25.0600   45.6290 O   0  0  0  0  0  0  0  0  0  0  0  0
   55.1220   26.6070   45.9700 O   0  0  0  0  0  0  0  0  0  0  0  0
   57.8160   26.0240   47.1890 C   0  0  0  0  0  0  0  0  0  0  0  0
   56.8795   26.3700   47.6507 H   0  0  0  0  0  0  0  0  0  0  0  0
   58.9530   31.4680   47.1890 N   0  0  0  0  0  0  0  0  0  0  0  0
   59.5000   31.9700   47.9240 H   0  0  0  0  0  0  0  0  0  0  0  0
   58.1220   32.0380   46.3250 N   0  0  0  0  0  0  0  0  0  0  0  0
   57.7870   33.4770   46.3610 C   0  0  0  0  0  0  0  0  0  0  0  0
   56.7868   33.5382   46.8147 H   0  0  0  0  0  0  0  0  0  0  0  0
   58.8080   34.2870   47.1730 C   0  0  0  0  0  0  0  0  0  0  0  0
   58.2889   35.0282   47.7984 H   0  0  0  0  0  0  0  0  0  0  0  0
   59.3890   33.6289   47.8359 H   0  0  0  0  0  0  0  0  0  0  0  0
   59.7230   34.9940   46.1750 C   0  0  0  0  0  0  0  0  0  0  0  0
   59.6785   36.0824   46.3281 H   0  0  0  0  0  0  0  0  0  0  0  0
   60.7673   34.6750   46.3082 H   0  0  0  0  0  0  0  0  0  0  0  0
   59.2230   34.6420   44.7790 C   0  0  0  0  0  0  0  0  0  0  0  0
   59.1893   35.5426   44.1483 H   0  0  0  0  0  0  0  0  0  0  0  0
   59.8897   33.9191   44.2862 H   0  0  0  0  0  0  0  0  0  0  0  0
   57.8260   34.0720   44.9570 C   0  0  0  0  0  0  0  0  0  0  0  0
   57.0735   34.8683   44.8589 H   0  0  0  0  0  0  0  0  0  0  0  0
   57.6014   33.3133   44.1929 H   0  0  0  0  0  0  0  0  0  0  0  0
  1  2  1  0
  2  3  1  0
  3  4  2  0
  3  5  1  0
  5  6  2  0
  6  7  1  0
  7  8  1  0
  7  9  2  0
  9 10  1  0
 10 11  1  6
 10 12  1  0
 12 13  1  0
 10 14  1  0
 14 15  1  0
 14 16  1  0
 16 17  2  0
 17 18  1  0
 17 19  1  0
 19 20  1  0
 19 21  2  0
 21 22  1  0
 21 23  1  0
 23 24  1  0
 24 25  1  0
 25 26  1  0
 25 27  1  0
 25 28  1  0
 28 29  2  0
 28 30  1  0
 23 31  2  0
 31 32  1  0
  9 33  1  0
 33 34  1  0
 33 35  1  0
 35 36  1  0
 36 37  1  0
 36 38  1  0
 38 39  1  0
 38 40  1  0
 38 41  1  0
 41 42  1  0
 41 43  1  0
 41 44  1  0
 44 45  1  0
 44 46  1  0
 44 47  1  0
 47 48  1  0
 47 49  1  0
 35  6  1  0
 47 36  1  0
 31 16  1  0
M  CHG  2   2  -1  30  -1
M  END
>  <UniqueID>  (39) 
34

>  <SMILES>  (39) 
[NH-]C(=O)/N=c1/cc([C@@H](O)Nc2ccc(Cl)c(OCC(=O)[O-])c2)[nH]n1C1CCCC1

>  <Energy>  (39) 
95.77689676629413

>  <Genealogy>  (39) 
[NH-]C(=O)N=c1cc(C(O)Nc2ccc(Cl)c(OCC(=O)[O-])c2)[nH]n1C1CCCC1 (protonated)
[NH-]C(=O)N=c1cc([C@@H](O)Nc2ccc(Cl)c(OCC(=O)[O-])c2)[nH]n1C1CCCC1 (chirality)
[NH-]C(=O)/N=c1/cc([C@@H](O)Nc2ccc(Cl)c(OCC(=O)[O-])c2)[nH]n1C1CCCC1 (cis-trans isomerization)
[NH-]C(=O)/N=c1/cc([C@@H](O)Nc2ccc(Cl)c(OCC(=O)[O-])c2)[nH]n1C1CCCC1 (3D coordinates assigned)
[NH-]C(=O)/N=c1/cc([C@@H](O)Nc2ccc(Cl)c(OCC(=O)[O-])c2)[nH]n1C1CCCC1 (nonaromatic ring conformer: 95.77689676629413 kcal/mol)

>  <smiles>  (39) 
NC(=O)N=c1cc(C(O)Nc2ccc(Cl)c(OCC(=O)O)c2)[nH]n1C1CCCC1

>  <score_type>  (39) 
oracle

>  <origin>  (39) 
adg

>  <m_score__min__energy>  (39) 
-12.77

>  <m_primary>  (39) 
energy

$$$$
39:0
     RDKit          3D

 58 61  0  0  0  0  0  0  0  0999 V2000
   59.3284   27.7210   48.0394 H   0  0  0  0  0  0  0  0  0  0  0  0
   59.3990   28.6980   47.5390 C   0  0  0  0  0  0  0  0  0  0  0  0
   58.5050   28.9770   46.5610 C   0  0  0  0  0  0  0  0  0  0  0  0
   57.9130   27.8660   45.7700 C   0  0  0  0  0  0  0  0  0  0  0  0
   56.7540   27.4370   46.0380 O   0  0  0  0  0  0  0  0  0  0  0  0
   58.6410   27.2880   44.7250 O   0  0  0  0  0  0  0  0  0  0  0  0
   58.1520   27.2160   43.3920 C   0  0  0  0  0  0  0  0  0  0  0  0
   57.0639   27.0558   43.4088 H   0  0  0  0  0  0  0  0  0  0  0  0
   58.3761   28.1568   42.8679 H   0  0  0  0  0  0  0  0  0  0  0  0
   58.6377   26.3797   42.8679 H   0  0  0  0  0  0  0  0  0  0  0  0
   58.0080   30.3920   46.3250 C   0  0  0  0  0  0  0  0  0  0  0  0
   57.1971   30.6136   47.0344 H   0  0  0  0  0  0  0  0  0  0  0  0
   58.8441   31.0913   46.4731 H   0  0  0  0  0  0  0  0  0  0  0  0
   57.5060   30.5390   44.9600 N   0  0  0  0  0  0  0  0  0  0  0  0
   58.1330   31.1340   43.9250 C   0  0  0  0  0  0  0  0  0  0  0  0
   59.1301   31.5931   43.9958 H   0  0  0  0  0  0  0  0  0  0  0  0
   57.4000   31.1030   42.7930 N   0  0  0  0  0  0  0  0  0  0  0  0
   56.2720   30.4520   43.1430 C   0  0  0  0  0  0  0  0  0  0  0  0
   55.4304   30.2350   42.4687 H   0  0  0  0  0  0  0  0  0  0  0  0
   56.3340   30.1000   44.4740 C   0  0  0  0  0  0  0  0  0  0  0  0
   55.5613   29.5565   45.0375 H   0  0  0  0  0  0  0  0  0  0  0  0
   60.4600   29.6220   47.9740 C   0  0  0  0  0  0  0  0  0  0  0  0
   61.0440   30.4900   47.0410 C   0  0  0  0  0  0  0  0  0  0  0  0
   60.7019   30.4814   45.9956 H   0  0  0  0  0  0  0  0  0  0  0  0
   62.0590   31.3660   47.4340 C   0  0  0  0  0  0  0  0  0  0  0  0
   62.5193   32.0357   46.6926 H   0  0  0  0  0  0  0  0  0  0  0  0
   62.4950   31.3980   48.7650 C   0  0  0  0  0  0  0  0  0  0  0  0
   63.5280   32.2840   49.1030 O   0  0  0  0  0  0  0  0  0  0  0  0
   63.6460   32.9430   50.3600 C   0  0  0  0  0  0  0  0  0  0  0  0
   63.2692   32.2823   51.1547 H   0  0  0  0  0  0  0  0  0  0  0  0
   64.7036   33.1824   50.5448 H   0  0  0  0  0  0  0  0  0  0  0  0
   62.8330   34.2360   50.3490 C   0  0  0  0  0  0  0  0  0  0  0  0
   62.7423   34.6112   51.3791 H   0  0  0  0  0  0  0  0  0  0  0  0
   63.3526   34.9678   49.7130 H   0  0  0  0  0  0  0  0  0  0  0  0
   61.4600   34.0110   49.7880 C   0  0  0  0  0  0  0  0  0  0  0  0
   61.1580   34.1900   48.4870 N   0  0  0  0  0  0  0  0  0  0  0  0
   59.8250   33.9650   48.4370 C   0  0  0  0  0  0  0  0  0  0  0  0
   59.0270   34.0440   47.1970 C   0  0  0  0  0  0  0  0  0  0  0  0
   57.7220   33.5230   47.1610 C   0  0  0  0  0  0  0  0  0  0  0  0
   57.2999   33.0427   48.0561 H   0  0  0  0  0  0  0  0  0  0  0  0
   56.9570   33.6120   45.9930 C   0  0  0  0  0  0  0  0  0  0  0  0
   55.9344   33.2070   45.9736 H   0  0  0  0  0  0  0  0  0  0  0  0
   57.4910   34.2150   44.8510 C   0  0  0  0  0  0  0  0  0  0  0  0
   56.8880   34.2878   43.9339 H   0  0  0  0  0  0  0  0  0  0  0  0
   58.7930   34.7260   44.8750 C   0  0  0  0  0  0  0  0  0  0  0  0
   59.2166   35.1911   43.9727 H   0  0  0  0  0  0  0  0  0  0  0  0
   59.5570   34.6470   46.0430 C   0  0  0  0  0  0  0  0  0  0  0  0
   60.5771   35.0584   46.0592 H   0  0  0  0  0  0  0  0  0  0  0  0
   59.3180   33.6740   49.6160 O   0  0  0  0  0  0  0  0  0  0  0  0
   60.3050   33.6930   50.4770 C   0  0  0  0  0  0  0  0  0  0  0  0
   60.1390   33.4630   51.9440 C   0  0  0  0  0  0  0  0  0  0  0  0
   60.6942   34.2322   52.5009 H   0  0  0  0  0  0  0  0  0  0  0  0
   59.0720   33.5194   52.2056 H   0  0  0  0  0  0  0  0  0  0  0  0
   60.5286   32.4681   52.2056 H   0  0  0  0  0  0  0  0  0  0  0  0
   61.8870   30.5490   49.7080 C   0  0  0  0  0  0  0  0  0  0  0  0
   62.2142   30.5733   50.7579 H   0  0  0  0  0  0  0  0  0  0  0  0
   60.8680   29.6740   49.3160 C   0  0  0  0  0  0  0  0  0  0  0  0
   60.3853   29.0251   50.0616 H   0  0  0  0  0  0  0  0  0  0  0  0
  1  2  1  0
  2  3  2  0
  3  4  1  0
  4  5  2  0
  4  6  1  0
  6  7  1  0
  7  8  1  0
  7  9  1  0
  7 10  1  0
  3 11  1  0
 11 12  1  0
 11 13  1  0
 11 14  1  0
 14 15  1  0
 15 16  1  0
 15 17  2  0
 17 18  1  0
 18 19  1  0
 18 20  2  0
 20 21  1  0
  2 22  1  0
 22 23  2  0
 23 24  1  0
 23 25  1  0
 25 26  1  0
 25 27  2  0
 27 28  1  0
 28 29  1  0
 29 30  1  0
 29 31  1  0
 29 32  1  0
 32 33  1  0
 32 34  1  0
 32 35  1  0
 35 36  1  0
 36 37  2  0
 37 38  1  0
 38 39  2  0
 39 40  1  0
 39 41  1  0
 41 42  1  0
 41 43  2  0
 43 44  1  0
 43 45  1  0
 45 46  1  0
 45 47  2  0
 47 48  1  0
 37 49  1  0
 49 50  1  0
 50 51  1  0
 51 52  1  0
 51 53  1  0
 51 54  1  0
 27 55  1  0
 55 56  1  0
 55 57  2  0
 57 58  1  0
 20 14  1  0
 57 22  1  0
 50 35  2  0
 47 38  1  0
M  END
>  <UniqueID>  (40) 
35

>  <SMILES>  (40) 
COC(=O)/C(=C/c1ccc(OCCc2nc(-c3ccccc3)oc2C)cc1)Cn1ccnc1

>  <Energy>  (40) 
119.31973199659748

>  <Genealogy>  (40) 
COC(=O)/C(=C/c1ccc(OCCc2nc(-c3ccccc3)oc2C)cc1)Cn1ccnc1 (cis-trans isomerization)
COC(=O)/C(=C/c1ccc(OCCc2nc(-c3ccccc3)oc2C)cc1)Cn1ccnc1 (3D coordinates assigned)
COC(=O)/C(=C/c1ccc(OCCc2nc(-c3ccccc3)oc2C)cc1)Cn1ccnc1 (optimized conformer: 119.31973199659748 kcal/mol)

>  <smiles>  (40) 
COC(=O)C(=Cc1ccc(OCCc2nc(-c3ccccc3)oc2C)cc1)Cn1ccnc1

>  <score_type>  (40) 
oracle

>  <origin>  (40) 
adg

>  <m_score__min__energy>  (40) 
-8.5399999999999991

>  <m_primary>  (40) 
energy

$$$$
40:0
     RDKit          3D

 68 72  0  0  0  0  0  0  0  0999 V2000
   56.2870   22.1100   49.2350 C   0  0  0  0  0  0  0  0  0  0  0  0
   57.1810   21.4340   48.3550 O   0  0  0  0  0  0  0  0  0  0  0  0
   57.0280   21.3610   46.9610 C   0  0  0  0  0  0  0  0  0  0  0  0
   56.6110   20.1760   46.3220 C   0  0  0  0  0  0  0  0  0  0  0  0
   56.4190   20.1500   44.9390 C   0  0  0  0  0  0  0  0  0  0  0  0
   56.6350   21.3000   44.1790 C   0  0  0  0  0  0  0  0  0  0  0  0
   57.0570   22.4790   44.8000 C   0  0  0  0  0  0  0  0  0  0  0  0
   57.2780   22.5130   46.1820 C   0  0  0  0  0  0  0  0  0  0  0  0
   57.7100   23.7180   46.7570 O   0  0  0  0  0  0  0  0  0  0  0  0
   57.5940   24.9790   46.1560 C   0  0  0  0  0  0  0  0  0  0  0  0
   56.4720   25.7990   46.3710 C   0  0  0  0  0  0  0  0  0  0  0  0
   56.3740   27.0390   45.7340 C   0  0  0  0  0  0  0  0  0  0  0  0
   57.3830   27.4680   44.8650 C   0  0  0  0  0  0  0  0  0  0  0  0
   57.2440   28.7360   44.2120 N   0  0  0  0  0  0  0  0  0  0  0  0
   56.3230   29.7790   44.5640 C   0  0  0  0  0  0  0  0  0  0  0  0
   55.1420   29.4640   44.8680 O   0  0  0  0  0  0  0  0  0  0  0  0
   56.6880   31.2390   44.4930 C   0  0  0  0  0  0  0  0  0  0  0  0
   57.5510   31.6150   45.6380 N   0  0  0  0  0  0  0  0  0  0  0  0
   58.7390   30.7320   45.7500 C   0  0  0  0  0  0  0  0  0  0  0  0
   58.5850   29.8030   46.9580 C   0  0  0  0  0  0  0  0  0  0  0  0
   59.4640   30.2380   48.1030 C   0  0  0  0  0  0  0  0  0  0  0  0
   58.8980   30.5280   49.3560 C   0  0  0  0  0  0  0  0  0  0  0  0
   59.7160   30.8800   50.4340 C   0  0  0  0  0  0  0  0  0  0  0  0
   61.1030   30.9400   50.2710 C   0  0  0  0  0  0  0  0  0  0  0  0
   61.6750   30.6470   49.0290 C   0  0  0  0  0  0  0  0  0  0  0  0
   60.8600   30.2920   47.9490 C   0  0  0  0  0  0  0  0  0  0  0  0
   57.9540   33.0420   45.5940 C   0  0  0  0  0  0  0  0  0  0  0  0
   59.0310   33.3390   46.5900 C   0  0  0  0  0  0  0  0  0  0  0  0
   58.7030   33.6960   47.8600 N   0  0  0  0  0  0  0  0  0  0  0  0
   59.6580   33.9890   48.7810 C   0  0  0  0  0  0  0  0  0  0  0  0
   59.3120   34.3170   49.9470 O   0  0  0  0  0  0  0  0  0  0  0  0
   61.0150   33.9240   48.4210 C   0  0  0  0  0  0  0  0  0  0  0  0
   62.0530   34.2000   49.3300 C   0  0  0  0  0  0  0  0  0  0  0  0
   63.3850   34.1210   48.9120 C   0  0  0  0  0  0  0  0  0  0  0  0
   63.6920   33.7720   47.5930 C   0  0  0  0  0  0  0  0  0  0  0  0
   62.6680   33.4960   46.6840 C   0  0  0  0  0  0  0  0  0  0  0  0
   61.3310   33.5690   47.0920 C   0  0  0  0  0  0  0  0  0  0  0  0
   60.3360   33.2940   46.2110 N   0  0  0  0  0  0  0  0  0  0  0  0
   58.5370   26.6820   44.7060 C   0  0  0  0  0  0  0  0  0  0  0  0
   58.6370   25.4440   45.3480 C   0  0  0  0  0  0  0  0  0  0  0  0
   56.5678   21.8977   50.2771 H   0  0  0  0  0  0  0  0  0  0  0  0
   56.3432   23.1935   49.0536 H   0  0  0  0  0  0  0  0  0  0  0  0
   55.2598   21.7607   49.0536 H   0  0  0  0  0  0  0  0  0  0  0  0
   56.4358   19.2668   46.9158 H   0  0  0  0  0  0  0  0  0  0  0  0
   56.0966   19.2203   44.4474 H   0  0  0  0  0  0  0  0  0  0  0  0
   56.4732   21.2788   43.0912 H   0  0  0  0  0  0  0  0  0  0  0  0
   57.2165   23.3862   44.1988 H   0  0  0  0  0  0  0  0  0  0  0  0
   55.6685   25.4632   47.0430 H   0  0  0  0  0  0  0  0  0  0  0  0
   55.4995   27.6807   45.9167 H   0  0  0  0  0  0  0  0  0  0  0  0
   57.2279   31.4319   43.5542 H   0  0  0  0  0  0  0  0  0  0  0  0
   55.7663   31.8382   44.5306 H   0  0  0  0  0  0  0  0  0  0  0  0
   58.8326   30.1285   44.8351 H   0  0  0  0  0  0  0  0  0  0  0  0
   59.6393   31.3504   45.8807 H   0  0  0  0  0  0  0  0  0  0  0  0
   57.5356   29.8158   47.2877 H   0  0  0  0  0  0  0  0  0  0  0  0
   58.8872   28.7895   46.6556 H   0  0  0  0  0  0  0  0  0  0  0  0
   57.8073   30.4779   49.4893 H   0  0  0  0  0  0  0  0  0  0  0  0
   59.2674   31.1100   51.4117 H   0  0  0  0  0  0  0  0  0  0  0  0
   61.7448   31.2178   51.1201 H   0  0  0  0  0  0  0  0  0  0  0  0
   62.7665   30.6957   48.9013 H   0  0  0  0  0  0  0  0  0  0  0  0
   61.3134   30.0542   46.9754 H   0  0  0  0  0  0  0  0  0  0  0  0
   58.3249   33.2777   44.5856 H   0  0  0  0  0  0  0  0  0  0  0  0
   57.0758   33.6563   45.8419 H   0  0  0  0  0  0  0  0  0  0  0  0
   61.8170   34.4775   50.3679 H   0  0  0  0  0  0  0  0  0  0  0  0
   64.1956   34.3345   49.6243 H   0  0  0  0  0  0  0  0  0  0  0  0
   64.7422   33.7147   47.2707 H   0  0  0  0  0  0  0  0  0  0  0  0
   62.9123   33.2212   45.6473 H   0  0  0  0  0  0  0  0  0  0  0  0
   59.3633   27.0415   44.0752 H   0  0  0  0  0  0  0  0  0  0  0  0
   59.5415   24.8318   45.2169 H   0  0  0  0  0  0  0  0  0  0  0  0
  1  2  1  0
  2  3  1  0
  3  4  2  0
  4  5  1  0
  5  6  2  0
  6  7  1  0
  7  8  2  0
  8  9  1  0
  9 10  1  0
 10 11  2  0
 11 12  1  0
 12 13  2  0
 13 14  1  0
 14 15  1  0
 15 16  2  0
 15 17  1  0
 17 18  1  0
 18 19  1  0
 19 20  1  0
 20 21  1  0
 21 22  2  0
 22 23  1  0
 23 24  2  0
 24 25  1  0
 25 26  2  0
 18 27  1  0
 27 28  1  0
 28 29  2  0
 29 30  1  0
 30 31  2  0
 30 32  1  0
 32 33  2  0
 33 34  1  0
 34 35  2  0
 35 36  1  0
 36 37  2  0
 37 38  1  0
 13 39  1  0
 39 40  2  0
  8  3  1  0
 40 10  1  0
 26 21  1  0
 38 28  1  0
 37 32  1  0
  1 41  1  0
  1 42  1  0
  1 43  1  0
  4 44  1  0
  5 45  1  0
  6 46  1  0
  7 47  1  0
 11 48  1  0
 12 49  1  0
 17 50  1  0
 17 51  1  0
 19 52  1  0
 19 53  1  0
 20 54  1  0
 20 55  1  0
 22 56  1  0
 23 57  1  0
 24 58  1  0
 25 59  1  0
 26 60  1  0
 27 61  1  0
 27 62  1  0
 33 63  1  0
 34 64  1  0
 35 65  1  0
 36 66  1  0
 39 67  1  0
 40 68  1  0
M  CHG  2  14  -1  38  -1
M  END
>  <UniqueID>  (41) 
36

>  <SMILES>  (41) 
COc1ccccc1Oc1ccc([N-]C(=O)CN(CCc2ccccc2)Cc2nc(=O)c3ccccc3[n-]2)cc1

>  <Energy>  (41) 
87.9117790719509

>  <Genealogy>  (41) 
COc1ccccc1Oc1ccc([N-]C(=O)CN(CCc2ccccc2)Cc2nc(=O)c3ccccc3[n-]2)cc1 (protonated)
COc1ccccc1Oc1ccc([N-]C(=O)CN(CCc2ccccc2)Cc2nc(=O)c3ccccc3[n-]2)cc1 (3D coordinates assigned)
COc1ccccc1Oc1ccc([N-]C(=O)CN(CCc2ccccc2)Cc2nc(=O)c3ccccc3[n-]2)cc1 (optimized conformer: 87.9117790719509 kcal/mol)

>  <smiles>  (41) 
COc1ccccc1Oc1ccc(NC(=O)CN(CCc2ccccc2)Cc2nc(=O)c3ccccc3[nH]2)cc1

>  <score_type>  (41) 
oracle

>  <origin>  (41) 
adg

>  <m_score__min__energy>  (41) 
-14.15

>  <m_primary>  (41) 
energy

$$$$
41:0
     RDKit          3D

 45 47  0  0  0  0  0  0  0  0999 V2000
   61.4300   34.2150   48.6720 N   0  0  0  0  0  0  0  0  0  0  0  0
   61.5640   33.3180   47.2010 S   0  0  0  0  0  0  0  0  0  0  0  0
   62.6630   33.9150   46.3670 O   0  0  0  0  0  0  0  0  0  0  0  0
   61.8980   31.8860   47.5100 O   0  0  0  0  0  0  0  0  0  0  0  0
   60.0370   33.3870   46.3310 C   0  0  0  0  0  0  0  0  0  0  0  0
   59.6470   34.5720   45.6920 C   0  0  0  0  0  0  0  0  0  0  0  0
   58.4320   34.6310   45.0020 C   0  0  0  0  0  0  0  0  0  0  0  0
   57.5920   33.5140   44.9640 C   0  0  0  0  0  0  0  0  0  0  0  0
   57.9550   32.3390   45.6320 C   0  0  0  0  0  0  0  0  0  0  0  0
   57.0880   31.2020   45.5820 N   0  0  0  0  0  0  0  0  0  0  0  0
   57.1650   30.1590   44.6030 C   0  0  0  0  0  0  0  0  0  0  0  0
   57.9920   30.2690   43.6590 O   0  0  0  0  0  0  0  0  0  0  0  0
   56.2210   28.9850   44.6210 C   0  0  0  0  0  0  0  0  0  0  0  0
   56.8020   27.8330   45.3170 N   0  0  0  0  0  0  0  0  0  0  0  0
   56.1590   26.8310   45.9380 C   0  0  0  0  0  0  0  0  0  0  0  0
   54.7770   26.6880   45.9960 O   0  0  0  0  0  0  0  0  0  0  0  0
   57.0860   25.9930   46.5180 C   0  0  0  0  0  0  0  0  0  0  0  0
   56.7960   24.7890   47.3620 C   0  0  0  0  0  0  0  0  0  0  0  0
   55.7200   23.8980   46.7260 C   0  0  0  0  0  0  0  0  0  0  0  0
   56.1850   23.3090   45.4190 C   0  0  0  0  0  0  0  0  0  0  0  0
   55.5300   23.6350   44.2190 C   0  0  0  0  0  0  0  0  0  0  0  0
   55.9370   23.0540   43.0140 C   0  0  0  0  0  0  0  0  0  0  0  0
   56.9950   22.1420   42.9980 C   0  0  0  0  0  0  0  0  0  0  0  0
   57.6460   21.8050   44.1890 C   0  0  0  0  0  0  0  0  0  0  0  0
   57.2410   22.3830   45.3970 C   0  0  0  0  0  0  0  0  0  0  0  0
   58.3270   26.4820   46.3050 N   0  0  0  0  0  0  0  0  0  0  0  0
   58.1080   27.5990   45.5760 C   0  0  0  0  0  0  0  0  0  0  0  0
   59.0410   28.3490   45.1840 O   0  0  0  0  0  0  0  0  0  0  0  0
   59.1940   32.2680   46.2850 C   0  0  0  0  0  0  0  0  0  0  0  0
   62.3430   34.1200   49.1720 H   0  0  0  0  0  0  0  0  0  0  0  0
   60.2981   35.4576   45.7333 H   0  0  0  0  0  0  0  0  0  0  0  0
   58.1367   35.5578   44.4883 H   0  0  0  0  0  0  0  0  0  0  0  0
   56.6439   33.5588   44.4080 H   0  0  0  0  0  0  0  0  0  0  0  0
   55.2938   29.2809   45.1337 H   0  0  0  0  0  0  0  0  0  0  0  0
   56.0193   28.6911   43.5804 H   0  0  0  0  0  0  0  0  0  0  0  0
   57.7203   24.2041   47.4789 H   0  0  0  0  0  0  0  0  0  0  0  0
   56.4234   25.1347   48.3375 H   0  0  0  0  0  0  0  0  0  0  0  0
   55.4790   23.0795   47.4202 H   0  0  0  0  0  0  0  0  0  0  0  0
   54.8344   24.5192   46.5264 H   0  0  0  0  0  0  0  0  0  0  0  0
   54.6940   24.3499   44.2278 H   0  0  0  0  0  0  0  0  0  0  0  0
   55.4232   23.3155   42.0772 H   0  0  0  0  0  0  0  0  0  0  0  0
   57.3161   21.6889   42.0485 H   0  0  0  0  0  0  0  0  0  0  0  0
   58.4773   21.0848   44.1760 H   0  0  0  0  0  0  0  0  0  0  0  0
   57.7513   22.1113   46.3328 H   0  0  0  0  0  0  0  0  0  0  0  0
   59.5063   31.3284   46.7641 H   0  0  0  0  0  0  0  0  0  0  0  0
  1  2  1  0
  2  3  2  0
  2  4  2  0
  2  5  1  0
  5  6  2  0
  6  7  1  0
  7  8  2  0
  8  9  1  0
  9 10  1  0
 10 11  1  0
 11 12  2  0
 11 13  1  0
 13 14  1  0
 14 15  1  0
 15 16  1  0
 15 17  2  0
 17 18  1  0
 18 19  1  0
 19 20  1  0
 20 21  2  0
 21 22  1  0
 22 23  2  0
 23 24  1  0
 24 25  2  0
 17 26  1  0
 26 27  1  0
 27 28  2  0
  9 29  2  0
 29  5  1  0
 27 14  1  0
 25 20  1  0
  1 30  1  0
  6 31  1  0
  7 32  1  0
  8 33  1  0
 13 34  1  0
 13 35  1  0
 18 36  1  0
 18 37  1  0
 19 38  1  0
 19 39  1  0
 21 40  1  0
 22 41  1  0
 23 42  1  0
 24 43  1  0
 25 44  1  0
 29 45  1  0
M  CHG  4   1  -1  10  -1  16  -1  26  -1
M  END
>  <UniqueID>  (42) 
37

>  <SMILES>  (42) 
[NH-]S(=O)(=O)c1cccc([N-]C(=O)Cn2c([O-])c(CCc3ccccc3)[n-]c2=O)c1

>  <Energy>  (42) 
78.67900681067901

>  <Genealogy>  (42) 
[NH-]S(=O)(=O)c1cccc([N-]C(=O)Cn2c([O-])c(CCc3ccccc3)[n-]c2=O)c1 (protonated)
[NH-]S(=O)(=O)c1cccc([N-]C(=O)Cn2c([O-])c(CCc3ccccc3)[n-]c2=O)c1 (3D coordinates assigned)
[NH-]S(=O)(=O)c1cccc([N-]C(=O)Cn2c([O-])c(CCc3ccccc3)[n-]c2=O)c1 (optimized conformer: 78.67900681067901 kcal/mol)

>  <smiles>  (42) 
NS(=O)(=O)c1cccc(NC(=O)Cn2c(O)c(CCc3ccccc3)[nH]c2=O)c1

>  <score_type>  (42) 
oracle

>  <origin>  (42) 
adg

>  <m_score__min__energy>  (42) 
-16.260000000000002

>  <m_primary>  (42) 
energy

$$$$
42:0
     RDKit          3D

 61 65  0  0  0  0  0  0  0  0999 V2000
   57.9250   21.0810   43.1430 N   0  0  0  0  0  0  0  0  0  0  0  0
   56.6110   22.0180   43.7650 S   0  0  0  0  0  0  0  0  0  0  0  0
   55.6630   21.1250   44.5150 O   0  0  0  0  0  0  0  0  0  0  0  0
   55.8810   22.6490   42.6120 O   0  0  0  0  0  0  0  0  0  0  0  0
   57.2230   23.2640   44.8520 C   0  0  0  0  0  0  0  0  0  0  0  0
   58.6000   23.3730   45.0800 C   0  0  0  0  0  0  0  0  0  0  0  0
   59.0980   24.3560   45.9410 C   0  0  0  0  0  0  0  0  0  0  0  0
   58.2180   25.2550   46.5740 C   0  0  0  0  0  0  0  0  0  0  0  0
   58.6870   26.2610   47.4870 N   0  0  0  0  0  0  0  0  0  0  0  0
   58.6450   27.5490   47.3150 C   0  0  0  0  0  0  0  0  0  0  0  0
   58.0480   28.0970   46.2240 N   0  0  0  0  0  0  0  0  0  0  0  0
   57.9930   29.4400   46.0490 C   0  0  0  0  0  0  0  0  0  0  0  0
   57.3960   29.9620   44.8960 C   0  0  0  0  0  0  0  0  0  0  0  0
   57.3690   31.3400   44.6830 C   0  0  0  0  0  0  0  0  0  0  0  0
   57.9550   32.2040   45.6120 C   0  0  0  0  0  0  0  0  0  0  0  0
   57.9490   34.0870   45.2960 Br  0  0  0  0  0  0  0  0  0  0  0  0
   58.5540   31.6930   46.7680 C   0  0  0  0  0  0  0  0  0  0  0  0
   58.5500   30.3050   47.0190 C   0  0  0  0  0  0  0  0  0  0  0  0
   59.1050   29.7160   48.1820 C   0  0  0  0  0  0  0  0  0  0  0  0
   59.6210   30.4830   49.2830 N   0  0  0  0  0  0  0  0  0  0  0  0
   58.8430   30.9900   50.3810 C   0  0  0  0  0  0  0  0  0  0  0  0
   57.7840   30.1980   50.8520 C   0  0  0  0  0  0  0  0  0  0  0  0
   57.0260   30.6000   51.9520 C   0  0  0  0  0  0  0  0  0  0  0  0
   57.3090   31.8080   52.5880 C   0  0  0  0  0  0  0  0  0  0  0  0
   58.3300   32.6290   52.1070 C   0  0  0  0  0  0  0  0  0  0  0  0
   59.0920   32.2490   50.9890 C   0  0  0  0  0  0  0  0  0  0  0  0
   60.2440   33.4220   50.3300 S   0  0  0  0  0  0  0  0  0  0  0  0
   60.8590   34.1970   51.4590 O   0  0  0  0  0  0  0  0  0  0  0  0
   59.5210   34.3890   49.4310 O   0  0  0  0  0  0  0  0  0  0  0  0
   61.5030   32.6090   49.4410 N   0  0  0  0  0  0  0  0  0  0  0  0
   61.4150   32.8350   47.9930 C   0  0  0  0  0  0  0  0  0  0  0  0
   61.8540   31.6030   47.2100 C   0  0  0  0  0  0  0  0  0  0  0  0
   63.3700   31.6950   47.1060 C   0  0  0  0  0  0  0  0  0  0  0  0
   63.7340   33.1610   47.3240 C   0  0  0  0  0  0  0  0  0  0  0  0
   62.4280   33.9000   47.5980 C   0  0  0  0  0  0  0  0  0  0  0  0
   59.1590   28.3600   48.2730 N   0  0  0  0  0  0  0  0  0  0  0  0
   56.8400   25.1160   46.3730 C   0  0  0  0  0  0  0  0  0  0  0  0
   56.3430   24.1340   45.5110 C   0  0  0  0  0  0  0  0  0  0  0  0
   57.5190   20.2110   42.7300 H   0  0  0  0  0  0  0  0  0  0  0  0
   58.5080   20.7870   43.9580 H   0  0  0  0  0  0  0  0  0  0  0  0
   59.2939   22.6818   44.5792 H   0  0  0  0  0  0  0  0  0  0  0  0
   60.1803   24.4272   46.1244 H   0  0  0  0  0  0  0  0  0  0  0  0
   56.9468   29.2836   44.1557 H   0  0  0  0  0  0  0  0  0  0  0  0
   56.8858   31.7473   43.7826 H   0  0  0  0  0  0  0  0  0  0  0  0
   59.0308   32.3772   47.4853 H   0  0  0  0  0  0  0  0  0  0  0  0
   60.6500   30.6620   49.2970 H   0  0  0  0  0  0  0  0  0  0  0  0
   57.5490   29.2491   50.3477 H   0  0  0  0  0  0  0  0  0  0  0  0
   56.2058   29.9645   52.3172 H   0  0  0  0  0  0  0  0  0  0  0  0
   56.7270   32.1143   53.4697 H   0  0  0  0  0  0  0  0  0  0  0  0
   58.5408   33.5848   52.6089 H   0  0  0  0  0  0  0  0  0  0  0  0
   60.3715   33.1052   47.7736 H   0  0  0  0  0  0  0  0  0  0  0  0
   61.5617   30.6863   47.7431 H   0  0  0  0  0  0  0  0  0  0  0  0
   61.3820   31.5653   46.2171 H   0  0  0  0  0  0  0  0  0  0  0  0
   63.8420   31.0681   47.8768 H   0  0  0  0  0  0  0  0  0  0  0  0
   63.7226   31.3402   46.1263 H   0  0  0  0  0  0  0  0  0  0  0  0
   64.4130   33.2594   48.1838 H   0  0  0  0  0  0  0  0  0  0  0  0
   64.2472   33.5767   46.4443 H   0  0  0  0  0  0  0  0  0  0  0  0
   62.5624   34.6216   48.4173 H   0  0  0  0  0  0  0  0  0  0  0  0
   62.0934   34.4652   46.7156 H   0  0  0  0  0  0  0  0  0  0  0  0
   56.1421   25.7851   46.8977 H   0  0  0  0  0  0  0  0  0  0  0  0
   55.2587   24.0437   45.3494 H   0  0  0  0  0  0  0  0  0  0  0  0
  1  2  1  0
  2  3  2  0
  2  4  2  0
  2  5  1  0
  5  6  2  0
  6  7  1  0
  7  8  2  0
  8  9  1  0
  9 10  2  3
 10 11  1  0
 11 12  2  0
 12 13  1  0
 13 14  2  0
 14 15  1  0
 15 16  1  0
 15 17  2  0
 17 18  1  0
 18 19  2  0
 19 20  1  0
 20 21  1  0
 21 22  2  0
 22 23  1  0
 23 24  2  0
 24 25  1  0
 25 26  2  0
 26 27  1  0
 27 28  2  0
 27 29  2  0
 27 30  1  0
 30 31  1  0
 31 32  1  0
 32 33  1  0
 33 34  1  0
 34 35  1  0
 19 36  1  0
  8 37  1  0
 37 38  2  0
 38  5  1  0
 36 10  1  0
 18 12  1  0
 26 21  1  0
 35 31  1  0
  1 39  1  0
  1 40  1  0
  6 41  1  0
  7 42  1  0
 13 43  1  0
 14 44  1  0
 17 45  1  0
 20 46  1  0
 22 47  1  0
 23 48  1  0
 24 49  1  0
 25 50  1  0
 31 51  1  0
 32 52  1  0
 32 53  1  0
 33 54  1  0
 33 55  1  0
 34 56  1  0
 34 57  1  0
 35 58  1  0
 35 59  1  0
 37 60  1  0
 38 61  1  0
M  CHG  2  30  -1  36  -1
M  END
>  <UniqueID>  (43) 
38

>  <SMILES>  (43) 
NS(=O)(=O)c1ccc(N=c2nc3ccc(Br)cc3c(Nc3ccccc3S(=O)(=O)[N-]C3CCCC3)[n-]2)cc1

>  <Energy>  (43) 
86.09807522021386

>  <Genealogy>  (43) 
NS(=O)(=O)c1ccc(N=c2nc3ccc(Br)cc3c(Nc3ccccc3S(=O)(=O)[N-]C3CCCC3)[n-]2)cc1 (protonated)
NS(=O)(=O)c1ccc(N=c2nc3ccc(Br)cc3c(Nc3ccccc3S(=O)(=O)[N-]C3CCCC3)[n-]2)cc1 (3D coordinates assigned)
NS(=O)(=O)c1ccc(N=c2nc3ccc(Br)cc3c(Nc3ccccc3S(=O)(=O)[N-]C3CCCC3)[n-]2)cc1 (nonaromatic ring conformer: 86.09807522021386 kcal/mol)

>  <smiles>  (43) 
NS(=O)(=O)c1ccc(N=c2nc3ccc(Br)cc3c(Nc3ccccc3S(=O)(=O)NC3CCCC3)[nH]2)cc1

>  <score_type>  (43) 
oracle

>  <origin>  (43) 
adg

>  <m_score__min__energy>  (43) 
-13.81

>  <m_primary>  (43) 
energy

$$$$
43:0
     RDKit          3D

 54 56  0  0  0  0  0  0  0  0999 V2000
   64.9320   32.7740   49.5810 C   0  0  0  0  0  0  0  0  0  0  0  0
   63.6530   33.3410   49.8490 O   0  0  0  0  0  0  0  0  0  0  0  0
   62.6940   33.6270   48.8660 C   0  0  0  0  0  0  0  0  0  0  0  0
   63.0730   33.5440   47.5210 C   0  0  0  0  0  0  0  0  0  0  0  0
   62.1580   33.8310   46.5040 C   0  0  0  0  0  0  0  0  0  0  0  0
   60.8460   34.2180   46.8230 C   0  0  0  0  0  0  0  0  0  0  0  0
   59.8430   34.4890   45.7340 C   0  0  0  0  0  0  0  0  0  0  0  0
   58.9380   33.3520   45.5770 N   0  0  0  0  0  0  0  0  0  0  0  0
   57.5980   33.5230   45.0970 C   0  0  0  0  0  0  0  0  0  0  0  0
   57.1530   34.6780   44.8570 O   0  0  0  0  0  0  0  0  0  0  0  0
   56.7090   32.3320   44.8900 C   0  0  0  0  0  0  0  0  0  0  0  0
   57.4010   31.2700   44.0350 C   0  0  0  0  0  0  0  0  0  0  0  0
   56.8850   29.6290   44.5290 S   0  0  0  0  0  0  0  0  0  0  0  0
   57.0860   28.6590   43.3990 O   0  0  0  0  0  0  0  0  0  0  0  0
   55.4120   29.6910   44.8310 O   0  0  0  0  0  0  0  0  0  0  0  0
   57.7740   29.0860   45.9690 C   0  0  0  0  0  0  0  0  0  0  0  0
   58.6660   29.9910   46.5710 C   0  0  0  0  0  0  0  0  0  0  0  0
   59.4720   29.6040   47.6480 C   0  0  0  0  0  0  0  0  0  0  0  0
   60.3620   30.5140   48.2370 C   0  0  0  0  0  0  0  0  0  0  0  0
   61.1620   30.1190   49.3120 C   0  0  0  0  0  0  0  0  0  0  0  0
   61.0980   28.8120   49.8070 C   0  0  0  0  0  0  0  0  0  0  0  0
   61.9290   28.4700   50.8840 O   0  0  0  0  0  0  0  0  0  0  0  0
   61.7030   27.3690   51.7590 C   0  0  0  0  0  0  0  0  0  0  0  0
   60.2120   27.8910   49.2140 C   0  0  0  0  0  0  0  0  0  0  0  0
   59.3980   28.2830   48.1380 C   0  0  0  0  0  0  0  0  0  0  0  0
   58.5090   27.3770   47.5500 C   0  0  0  0  0  0  0  0  0  0  0  0
   57.6810   27.7630   46.4800 C   0  0  0  0  0  0  0  0  0  0  0  0
   56.7410   26.7500   45.9430 C   0  0  0  0  0  0  0  0  0  0  0  0
   55.4980   26.9490   45.9970 O   0  0  0  0  0  0  0  0  0  0  0  0
   57.2100   25.6030   45.3160 O   0  0  0  0  0  0  0  0  0  0  0  0
   60.4560   34.2830   48.1690 C   0  0  0  0  0  0  0  0  0  0  0  0
   61.3720   33.9940   49.1850 C   0  0  0  0  0  0  0  0  0  0  0  0
   65.4396   32.5490   50.5306 H   0  0  0  0  0  0  0  0  0  0  0  0
   64.8080   31.8465   49.0027 H   0  0  0  0  0  0  0  0  0  0  0  0
   65.5360   33.4887   49.0027 H   0  0  0  0  0  0  0  0  0  0  0  0
   64.1009   33.2501   47.2619 H   0  0  0  0  0  0  0  0  0  0  0  0
   62.4663   33.7536   45.4509 H   0  0  0  0  0  0  0  0  0  0  0  0
   59.2585   35.3836   45.9947 H   0  0  0  0  0  0  0  0  0  0  0  0
   60.3801   34.6495   44.7876 H   0  0  0  0  0  0  0  0  0  0  0  0
   59.2710   32.3880   45.8130 H   0  0  0  0  0  0  0  0  0  0  0  0
   56.4573   31.8973   45.8686 H   0  0  0  0  0  0  0  0  0  0  0  0
   55.7989   32.6622   44.3678 H   0  0  0  0  0  0  0  0  0  0  0  0
   57.1384   31.4289   42.9787 H   0  0  0  0  0  0  0  0  0  0  0  0
   58.4888   31.3565   44.1739 H   0  0  0  0  0  0  0  0  0  0  0  0
   58.7315   31.0205   46.1891 H   0  0  0  0  0  0  0  0  0  0  0  0
   60.4303   31.5419   47.8513 H   0  0  0  0  0  0  0  0  0  0  0  0
   61.8493   30.8430   49.7740 H   0  0  0  0  0  0  0  0  0  0  0  0
   61.7729   27.7097   52.8026 H   0  0  0  0  0  0  0  0  0  0  0  0
   60.7010   26.9541   51.5751 H   0  0  0  0  0  0  0  0  0  0  0  0
   62.4606   26.5929   51.5751 H   0  0  0  0  0  0  0  0  0  0  0  0
   60.1573   26.8606   49.5951 H   0  0  0  0  0  0  0  0  0  0  0  0
   58.4565   26.3462   47.9303 H   0  0  0  0  0  0  0  0  0  0  0  0
   59.4238   34.5629   48.4265 H   0  0  0  0  0  0  0  0  0  0  0  0
   61.0590   34.0535   50.2378 H   0  0  0  0  0  0  0  0  0  0  0  0
  1  2  1  0
  2  3  1  0
  3  4  2  0
  4  5  1  0
  5  6  2  0
  6  7  1  0
  7  8  1  0
  8  9  1  0
  9 10  2  0
  9 11  1  0
 11 12  1  0
 12 13  1  0
 13 14  2  0
 13 15  2  0
 13 16  1  0
 16 17  2  0
 17 18  1  0
 18 19  2  0
 19 20  1  0
 20 21  2  0
 21 22  1  0
 22 23  1  0
 21 24  1  0
 24 25  2  0
 25 26  1  0
 26 27  2  0
 27 28  1  0
 28 29  2  0
 28 30  1  0
  6 31  1  0
 31 32  2  0
 32  3  1  0
 27 16  1  0
 25 18  1  0
  1 33  1  0
  1 34  1  0
  1 35  1  0
  4 36  1  0
  5 37  1  0
  7 38  1  0
  7 39  1  0
  8 40  1  0
 11 41  1  0
 11 42  1  0
 12 43  1  0
 12 44  1  0
 17 45  1  0
 19 46  1  0
 20 47  1  0
 23 48  1  0
 23 49  1  0
 23 50  1  0
 24 51  1  0
 26 52  1  0
 31 53  1  0
 32 54  1  0
M  CHG  1  30  -1
M  END
>  <UniqueID>  (44) 
39

>  <SMILES>  (44) 
COc1ccc(CNC(=O)CCS(=O)(=O)c2cc3ccc(OC)cc3cc2C(=O)[O-])cc1

>  <Energy>  (44) 
57.376872758956694

>  <Genealogy>  (44) 
COc1ccc(CNC(=O)CCS(=O)(=O)c2cc3ccc(OC)cc3cc2C(=O)[O-])cc1 (protonated)
COc1ccc(CNC(=O)CCS(=O)(=O)c2cc3ccc(OC)cc3cc2C(=O)[O-])cc1 (3D coordinates assigned)
COc1ccc(CNC(=O)CCS(=O)(=O)c2cc3ccc(OC)cc3cc2C(=O)[O-])cc1 (optimized conformer: 57.376872758956694 kcal/mol)

>  <smiles>  (44) 
COc1ccc(CNC(=O)CCS(=O)(=O)c2cc3ccc(OC)cc3cc2C(=O)O)cc1

>  <score_type>  (44) 
oracle

>  <origin>  (44) 
adg

>  <m_score__min__energy>  (44) 
-10.960000000000001

>  <m_primary>  (44) 
energy

$$$$
44:0
     RDKit          3D

 35 36  0  0  0  0  0  0  0  0999 V2000
   55.1420   27.9100   44.8910 H   0  0  0  0  0  0  0  0  0  0  0  0
   55.6000   27.3570   45.6020 O   0  0  0  0  0  0  0  0  0  0  0  0
   56.9860   27.3460   45.7940 C   0  0  0  0  0  0  0  0  0  0  0  0
   57.7740   28.5040   45.5840 C   0  0  0  0  0  0  0  0  0  0  0  0
   57.1980   29.7530   45.0390 C   0  0  0  0  0  0  0  0  0  0  0  0
   55.9450   29.8950   45.0080 O   0  0  0  0  0  0  0  0  0  0  0  0
   58.0810   30.8130   44.5060 C   0  0  0  0  0  0  0  0  0  0  0  0
   58.8848   30.5348   43.8085 H   0  0  0  0  0  0  0  0  0  0  0  0
   57.9340   32.1020   44.8450 C   0  0  0  0  0  0  0  0  0  0  0  0
   57.1988   32.7026   44.2893 H   0  0  0  0  0  0  0  0  0  0  0  0
   58.7040   32.7660   45.9250 C   0  0  0  0  0  0  0  0  0  0  0  0
   58.4700   32.3760   47.2540 C   0  0  0  0  0  0  0  0  0  0  0  0
   57.7203   31.6006   47.4702 H   0  0  0  0  0  0  0  0  0  0  0  0
   59.1810   32.9640   48.3050 C   0  0  0  0  0  0  0  0  0  0  0  0
   58.9878   32.6475   49.3406 H   0  0  0  0  0  0  0  0  0  0  0  0
   60.1380   33.9540   48.0460 C   0  0  0  0  0  0  0  0  0  0  0  0
   60.9330   34.5520   49.1670 C   0  0  0  0  0  0  0  0  0  0  0  0
   60.5076   34.2320   50.1296 H   0  0  0  0  0  0  0  0  0  0  0  0
   61.9773   34.2137   49.0971 H   0  0  0  0  0  0  0  0  0  0  0  0
   60.8975   35.6492   49.0971 H   0  0  0  0  0  0  0  0  0  0  0  0
   60.4010   34.3250   46.7200 C   0  0  0  0  0  0  0  0  0  0  0  0
   61.1704   35.0815   46.5061 H   0  0  0  0  0  0  0  0  0  0  0  0
   59.6910   33.7390   45.6680 C   0  0  0  0  0  0  0  0  0  0  0  0
   59.9042   34.0395   44.6316 H   0  0  0  0  0  0  0  0  0  0  0  0
   59.1510   28.4580   45.8650 C   0  0  0  0  0  0  0  0  0  0  0  0
   59.7675   29.3571   45.7182 H   0  0  0  0  0  0  0  0  0  0  0  0
   59.7420   27.2830   46.3280 C   0  0  0  0  0  0  0  0  0  0  0  0
   60.8190   27.2616   46.5509 H   0  0  0  0  0  0  0  0  0  0  0  0
   58.9720   26.1360   46.5090 C   0  0  0  0  0  0  0  0  0  0  0  0
   59.4452   25.2115   46.8713 H   0  0  0  0  0  0  0  0  0  0  0  0
   57.5970   26.1530   46.2320 C   0  0  0  0  0  0  0  0  0  0  0  0
   56.7740   24.9180   46.4730 C   0  0  0  0  0  0  0  0  0  0  0  0
   56.6655   24.7552   47.5555 H   0  0  0  0  0  0  0  0  0  0  0  0
   55.7798   25.0457   46.0199 H   0  0  0  0  0  0  0  0  0  0  0  0
   57.2746   24.0496   46.0199 H   0  0  0  0  0  0  0  0  0  0  0  0
  1  2  1  0
  2  3  1  0
  3  4  2  0
  4  5  1  0
  5  6  2  0
  5  7  1  0
  7  8  1  0
  7  9  2  0
  9 10  1  0
  9 11  1  0
 11 12  2  0
 12 13  1  0
 12 14  1  0
 14 15  1  0
 14 16  2  0
 16 17  1  0
 17 18  1  0
 17 19  1  0
 17 20  1  0
 16 21  1  0
 21 22  1  0
 21 23  2  0
 23 24  1  0
  4 25  1  0
 25 26  1  0
 25 27  2  0
 27 28  1  0
 27 29  1  0
 29 30  1  0
 29 31  2  0
 31 32  1  0
 32 33  1  0
 32 34  1  0
 32 35  1  0
 31  3  1  0
 23 11  1  0
M  END
>  <UniqueID>  (45) 
40

>  <SMILES>  (45) 
Cc1ccc(/C=C/C(=O)c2cccc(C)c2O)cc1

>  <Energy>  (45) 
42.61453888740917

>  <Genealogy>  (45) 
Cc1ccc(/C=C/C(=O)c2cccc(C)c2O)cc1 (cis-trans isomerization)
Cc1ccc(/C=C/C(=O)c2cccc(C)c2O)cc1 (3D coordinates assigned)
Cc1ccc(/C=C/C(=O)c2cccc(C)c2O)cc1 (optimized conformer: 42.61453888740917 kcal/mol)

>  <smiles>  (45) 
Cc1ccc(C=CC(=O)c2cccc(C)c2O)cc1

>  <score_type>  (45) 
oracle

>  <origin>  (45) 
adg

>  <m_score__min__energy>  (45) 
-9.3300000000000001

>  <m_primary>  (45) 
energy

$$$$
45:0
     RDKit          3D

 35 36  0  0  0  0  0  0  0  0999 V2000
   55.1580   29.3720   44.5160 N   0  0  0  0  0  0  0  0  0  0  0  0
   56.6220   29.8680   43.7440 S   0  0  0  0  0  0  0  0  0  0  0  0
   56.3040   30.5300   42.4330 O   0  0  0  0  0  0  0  0  0  0  0  0
   57.4740   28.6550   43.4910 O   0  0  0  0  0  0  0  0  0  0  0  0
   57.4720   31.0070   44.7830 C   0  0  0  0  0  0  0  0  0  0  0  0
   57.0460   32.3400   44.8380 C   0  0  0  0  0  0  0  0  0  0  0  0
   57.6960   33.2510   45.6750 C   0  0  0  0  0  0  0  0  0  0  0  0
   58.7830   32.8380   46.4490 C   0  0  0  0  0  0  0  0  0  0  0  0
   59.2410   31.5170   46.3760 C   0  0  0  0  0  0  0  0  0  0  0  0
   60.3540   31.1220   47.1880 N   0  0  0  0  0  0  0  0  0  0  0  0
   60.3170   30.2050   48.2920 C   0  0  0  0  0  0  0  0  0  0  0  0
   61.4050   29.8300   48.8020 O   0  0  0  0  0  0  0  0  0  0  0  0
   59.0290   29.6440   48.8340 C   0  0  0  0  0  0  0  0  0  0  0  0
   58.2430   29.0050   47.7760 N   0  0  0  0  0  0  0  0  0  0  0  0
   58.6510   27.7680   47.1670 C   0  0  0  0  0  0  0  0  0  0  0  0
   59.9380   27.2730   47.4330 C   0  0  0  0  0  0  0  0  0  0  0  0
   60.3710   26.0750   46.8570 C   0  0  0  0  0  0  0  0  0  0  0  0
   59.5270   25.3670   46.0010 C   0  0  0  0  0  0  0  0  0  0  0  0
   58.2540   25.8610   45.7080 C   0  0  0  0  0  0  0  0  0  0  0  0
   57.8120   27.0660   46.2760 C   0  0  0  0  0  0  0  0  0  0  0  0
   56.5600   27.5690   45.9320 O   0  0  0  0  0  0  0  0  0  0  0  0
   58.5660   30.5950   45.5580 C   0  0  0  0  0  0  0  0  0  0  0  0
   55.1420   28.3280   44.4990 H   0  0  0  0  0  0  0  0  0  0  0  0
   56.1976   32.6707   44.2208 H   0  0  0  0  0  0  0  0  0  0  0  0
   57.3513   34.2944   45.7244 H   0  0  0  0  0  0  0  0  0  0  0  0
   59.2815   33.5540   47.1190 H   0  0  0  0  0  0  0  0  0  0  0  0
   59.2603   28.8986   49.6091 H   0  0  0  0  0  0  0  0  0  0  0  0
   58.4387   30.4711   49.2553 H   0  0  0  0  0  0  0  0  0  0  0  0
   57.6090   29.6170   47.2140 H   0  0  0  0  0  0  0  0  0  0  0  0
   60.6107   27.8323   48.0998 H   0  0  0  0  0  0  0  0  0  0  0  0
   61.3775   25.6905   47.0788 H   0  0  0  0  0  0  0  0  0  0  0  0
   59.8644   24.4190   45.5566 H   0  0  0  0  0  0  0  0  0  0  0  0
   57.5939   25.3025   45.0281 H   0  0  0  0  0  0  0  0  0  0  0  0
   56.3050   27.7460   44.9680 H   0  0  0  0  0  0  0  0  0  0  0  0
   58.8968   29.5464   45.5254 H   0  0  0  0  0  0  0  0  0  0  0  0
  1  2  1  0
  2  3  2  0
  2  4  2  0
  2  5  1  0
  5  6  2  0
  6  7  1  0
  7  8  2  0
  8  9  1  0
  9 10  1  0
 10 11  1  0
 11 12  2  0
 11 13  1  0
 13 14  1  0
 14 15  1  0
 15 16  2  0
 16 17  1  0
 17 18  2  0
 18 19  1  0
 19 20  2  0
 20 21  1  0
  9 22  2  0
 22  5  1  0
 20 15  1  0
  1 23  1  0
  6 24  1  0
  7 25  1  0
  8 26  1  0
 13 27  1  0
 13 28  1  0
 14 29  1  0
 16 30  1  0
 17 31  1  0
 18 32  1  0
 19 33  1  0
 21 34  1  0
 22 35  1  0
M  CHG  2   1  -1  10  -1
M  END
>  <UniqueID>  (46) 
41

>  <SMILES>  (46) 
[NH-]S(=O)(=O)c1cccc([N-]C(=O)CNc2ccccc2O)c1

>  <Energy>  (46) 
42.13257777597933

>  <Genealogy>  (46) 
[NH-]S(=O)(=O)c1cccc([N-]C(=O)CNc2ccccc2O)c1 (protonated)
[NH-]S(=O)(=O)c1cccc([N-]C(=O)CNc2ccccc2O)c1 (3D coordinates assigned)
[NH-]S(=O)(=O)c1cccc([N-]C(=O)CNc2ccccc2O)c1 (optimized conformer: 42.13257777597933 kcal/mol)

>  <smiles>  (46) 
NS(=O)(=O)c1cccc(NC(=O)CNc2ccccc2O)c1

>  <score_type>  (46) 
oracle

>  <origin>  (46) 
adg

>  <m_score__min__energy>  (46) 
-11.06

>  <m_primary>  (46) 
energy

$$$$
46:0
     RDKit          3D

 40 42  0  0  0  0  0  0  0  0999 V2000
   58.9340   31.4000   47.4500 N   0  0  0  0  0  0  0  0  0  0  0  0
   58.3720   32.6430   46.3860 S   0  0  0  0  0  0  0  0  0  0  0  0
   57.2400   33.3820   47.0370 O   0  0  0  0  0  0  0  0  0  0  0  0
   59.4830   33.6210   46.1190 O   0  0  0  0  0  0  0  0  0  0  0  0
   57.8180   31.9170   44.8670 C   0  0  0  0  0  0  0  0  0  0  0  0
   57.7920   32.7030   43.7040 C   0  0  0  0  0  0  0  0  0  0  0  0
   57.3940   32.1530   42.4830 C   0  0  0  0  0  0  0  0  0  0  0  0
   57.0030   30.8180   42.4140 C   0  0  0  0  0  0  0  0  0  0  0  0
   57.0080   30.0250   43.5660 C   0  0  0  0  0  0  0  0  0  0  0  0
   57.4160   30.5650   44.8030 C   0  0  0  0  0  0  0  0  0  0  0  0
   57.4400   29.7630   45.9950 N   0  0  0  0  0  0  0  0  0  0  0  0
   58.7260   28.7000   46.4650 S   0  0  0  0  0  0  0  0  0  0  0  0
   59.9600   29.0380   45.6770 O   0  0  0  0  0  0  0  0  0  0  0  0
   59.0210   28.8990   47.9220 O   0  0  0  0  0  0  0  0  0  0  0  0
   58.2480   27.0230   46.2000 C   0  0  0  0  0  0  0  0  0  0  0  0
   59.2070   26.0000   46.1930 C   0  0  0  0  0  0  0  0  0  0  0  0
   58.8160   24.6730   45.9940 C   0  0  0  0  0  0  0  0  0  0  0  0
   57.4660   24.3580   45.8080 C   0  0  0  0  0  0  0  0  0  0  0  0
   56.4890   25.3730   45.8140 C   0  0  0  0  0  0  0  0  0  0  0  0
   55.0570   25.0360   45.6390 C   0  0  0  0  0  0  0  0  0  0  0  0
   54.1920   25.9510   45.7040 O   0  0  0  0  0  0  0  0  0  0  0  0
   54.6700   23.6710   45.4060 N   0  0  0  0  0  0  0  0  0  0  0  0
   53.7010   23.0130   45.9720 C   0  0  0  0  0  0  0  0  0  0  0  0
   52.6010   22.6370   45.2860 N   0  0  0  0  0  0  0  0  0  0  0  0
   51.7170   21.9700   46.0740 C   0  0  0  0  0  0  0  0  0  0  0  0
   52.1060   21.8140   47.3990 C   0  0  0  0  0  0  0  0  0  0  0  0
   53.6120   22.5380   47.5880 S   0  0  0  0  0  0  0  0  0  0  0  0
   56.8970   26.7090   46.0070 C   0  0  0  0  0  0  0  0  0  0  0  0
   59.5190   30.7450   46.8770 H   0  0  0  0  0  0  0  0  0  0  0  0
   58.0960   30.8600   47.7590 H   0  0  0  0  0  0  0  0  0  0  0  0
   58.0876   33.7613   43.7546 H   0  0  0  0  0  0  0  0  0  0  0  0
   57.3894   32.7747   41.5755 H   0  0  0  0  0  0  0  0  0  0  0  0
   56.6897   30.3866   41.4518 H   0  0  0  0  0  0  0  0  0  0  0  0
   56.6916   28.9732   43.5067 H   0  0  0  0  0  0  0  0  0  0  0  0
   60.2692   26.2424   46.3444 H   0  0  0  0  0  0  0  0  0  0  0  0
   59.5721   23.8741   45.9836 H   0  0  0  0  0  0  0  0  0  0  0  0
   57.1652   23.3109   45.6560 H   0  0  0  0  0  0  0  0  0  0  0  0
   50.7620   21.5815   45.6904 H   0  0  0  0  0  0  0  0  0  0  0  0
   51.5297   21.3059   48.1863 H   0  0  0  0  0  0  0  0  0  0  0  0
   56.1462   27.5129   46.0059 H   0  0  0  0  0  0  0  0  0  0  0  0
  1  2  1  0
  2  3  2  0
  2  4  2  0
  2  5  1  0
  5  6  2  0
  6  7  1  0
  7  8  2  0
  8  9  1  0
  9 10  2  0
 10 11  1  0
 11 12  1  0
 12 13  2  0
 12 14  2  0
 12 15  1  0
 15 16  2  0
 16 17  1  0
 17 18  2  0
 18 19  1  0
 19 20  1  0
 20 21  2  0
 20 22  1  0
 22 23  2  3
 23 24  1  0
 24 25  1  0
 25 26  2  0
 26 27  1  0
 19 28  2  0
 10  5  1  0
 28 15  1  0
 27 23  1  0
  1 29  1  0
  1 30  1  0
  6 31  1  0
  7 32  1  0
  8 33  1  0
  9 34  1  0
 16 35  1  0
 17 36  1  0
 18 37  1  0
 25 38  1  0
 26 39  1  0
 28 40  1  0
M  CHG  2  11  -1  24  -1
M  END
>  <UniqueID>  (47) 
42

>  <SMILES>  (47) 
NS(=O)(=O)c1ccccc1[N-]S(=O)(=O)c1cccc(C(=O)N=c2[n-]ccs2)c1

>  <Energy>  (47) 
80.37253318791403

>  <Genealogy>  (47) 
NS(=O)(=O)c1ccccc1[N-]S(=O)(=O)c1cccc(C(=O)N=c2[n-]ccs2)c1 (protonated)
NS(=O)(=O)c1ccccc1[N-]S(=O)(=O)c1cccc(C(=O)N=c2[n-]ccs2)c1 (3D coordinates assigned)
NS(=O)(=O)c1ccccc1[N-]S(=O)(=O)c1cccc(C(=O)N=c2[n-]ccs2)c1 (optimized conformer: 80.37253318791403 kcal/mol)

>  <smiles>  (47) 
NS(=O)(=O)c1ccccc1NS(=O)(=O)c1cccc(C(=O)N=c2[nH]ccs2)c1

>  <score_type>  (47) 
oracle

>  <origin>  (47) 
adg

>  <m_score__min__energy>  (47) 
-12.01

>  <m_primary>  (47) 
energy

$$$$
47:0
     RDKit          3D

 53 56  0  0  0  0  0  0  0  0999 V2000
   54.7690   29.0260   44.8590 H   0  0  0  0  0  0  0  0  0  0  0  0
   55.6830   29.3610   45.2390 N   0  0  0  0  0  0  0  0  0  0  0  0
   56.8970   28.6770   44.9340 C   0  0  0  0  0  0  0  0  0  0  0  0
   57.6740   29.1680   44.0710 O   0  0  0  0  0  0  0  0  0  0  0  0
   57.2770   27.4360   45.6530 C   0  0  0  0  0  0  0  0  0  0  0  0
   56.2540   26.5420   46.0180 C   0  0  0  0  0  0  0  0  0  0  0  0
   55.2054   26.8029   45.8123 H   0  0  0  0  0  0  0  0  0  0  0  0
   56.5540   25.3260   46.6390 C   0  0  0  0  0  0  0  0  0  0  0  0
   55.7434   24.6356   46.9151 H   0  0  0  0  0  0  0  0  0  0  0  0
   57.8800   24.9870   46.9090 C   0  0  0  0  0  0  0  0  0  0  0  0
   58.1152   24.0254   47.3886 H   0  0  0  0  0  0  0  0  0  0  0  0
   58.9070   25.8670   46.5710 C   0  0  0  0  0  0  0  0  0  0  0  0
   59.9508   25.5908   46.7810 H   0  0  0  0  0  0  0  0  0  0  0  0
   58.6240   27.1030   45.9650 C   0  0  0  0  0  0  0  0  0  0  0  0
   60.0050   28.2180   45.6320 S   0  0  0  0  0  0  0  0  0  0  0  0
   59.6400   29.3040   47.0280 C   0  0  0  0  0  0  0  0  0  0  0  0
   59.0990   30.5740   46.7990 C   0  0  0  0  0  0  0  0  0  0  0  0
   58.9280   31.0140   45.4850 O   0  0  0  0  0  0  0  0  0  0  0  0
   58.4530   30.4720   44.7760 H   0  0  0  0  0  0  0  0  0  0  0  0
   58.7690   31.3950   47.8990 C   0  0  0  0  0  0  0  0  0  0  0  0
   58.1120   32.6570   47.6960 N   0  0  0  0  0  0  0  0  0  0  0  0
   58.7590   33.7650   47.5030 C   0  0  0  0  0  0  0  0  0  0  0  0
   58.4215   34.6901   47.9931 H   0  0  0  0  0  0  0  0  0  0  0  0
   59.9620   33.7870   46.6160 C   0  0  0  0  0  0  0  0  0  0  0  0
   59.8351   33.0507   45.8087 H   0  0  0  0  0  0  0  0  0  0  0  0
   60.0785   34.7915   46.1832 H   0  0  0  0  0  0  0  0  0  0  0  0
   61.1860   33.4440   47.4180 C   0  0  0  0  0  0  0  0  0  0  0  0
   61.5620   34.2410   48.5130 C   0  0  0  0  0  0  0  0  0  0  0  0
   60.9831   35.1438   48.7574 H   0  0  0  0  0  0  0  0  0  0  0  0
   62.6700   33.8910   49.2940 C   0  0  0  0  0  0  0  0  0  0  0  0
   62.9643   34.5232   50.1447 H   0  0  0  0  0  0  0  0  0  0  0  0
   63.4020   32.7400   48.9940 C   0  0  0  0  0  0  0  0  0  0  0  0
   64.2739   32.4675   49.6068 H   0  0  0  0  0  0  0  0  0  0  0  0
   63.0270   31.9350   47.9160 C   0  0  0  0  0  0  0  0  0  0  0  0
   63.6019   31.0265   47.6833 H   0  0  0  0  0  0  0  0  0  0  0  0
   61.9210   32.2820   47.1310 C   0  0  0  0  0  0  0  0  0  0  0  0
   61.6264   31.6421   46.2861 H   0  0  0  0  0  0  0  0  0  0  0  0
   59.0730   30.9900   49.1750 N   0  0  0  0  0  0  0  0  0  0  0  0
   58.7720   31.8550   50.2890 C   0  0  0  0  0  0  0  0  0  0  0  0
   57.6430   31.6180   51.0890 C   0  0  0  0  0  0  0  0  0  0  0  0
   56.9805   30.7693   50.8636 H   0  0  0  0  0  0  0  0  0  0  0  0
   57.3570   32.4560   52.1710 C   0  0  0  0  0  0  0  0  0  0  0  0
   56.4725   32.2634   52.7960 H   0  0  0  0  0  0  0  0  0  0  0  0
   58.1940   33.5390   52.4600 C   0  0  0  0  0  0  0  0  0  0  0  0
   57.9674   34.1981   53.3111 H   0  0  0  0  0  0  0  0  0  0  0  0
   59.3190   33.7830   51.6660 C   0  0  0  0  0  0  0  0  0  0  0  0
   59.9768   34.6350   51.8925 H   0  0  0  0  0  0  0  0  0  0  0  0
   59.6090   32.9450   50.5840 C   0  0  0  0  0  0  0  0  0  0  0  0
   60.4951   33.1398   49.9620 H   0  0  0  0  0  0  0  0  0  0  0  0
   59.6500   29.7690   49.4040 C   0  0  0  0  0  0  0  0  0  0  0  0
   59.9400   29.4140   50.5810 O   0  0  0  0  0  0  0  0  0  0  0  0
   59.9370   28.9050   48.3380 C   0  0  0  0  0  0  0  0  0  0  0  0
   60.7300   27.3620   48.6640 Cl  0  0  0  0  0  0  0  0  0  0  0  0
  1  2  1  0
  2  3  1  0
  3  4  2  0
  3  5  1  0
  5  6  2  0
  6  7  1  0
  6  8  1  0
  8  9  1  0
  8 10  2  0
 10 11  1  0
 10 12  1  0
 12 13  1  0
 12 14  2  0
 14 15  1  0
 15 16  1  0
 16 17  1  0
 17 18  1  0
 18 19  1  0
 17 20  2  0
 20 21  1  0
 21 22  2  0
 22 23  1  0
 22 24  1  0
 24 25  1  0
 24 26  1  0
 24 27  1  0
 27 28  2  0
 28 29  1  0
 28 30  1  0
 30 31  1  0
 30 32  2  0
 32 33  1  0
 32 34  1  0
 34 35  1  0
 34 36  2  0
 36 37  1  0
 20 38  1  0
 38 39  1  0
 39 40  2  0
 40 41  1  0
 40 42  1  0
 42 43  1  0
 42 44  2  0
 44 45  1  0
 44 46  1  0
 46 47  1  0
 46 48  2  0
 48 49  1  0
 38 50  1  0
 50 51  2  0
 50 52  1  0
 52 53  1  0
 14  5  1  0
 52 16  2  0
 36 27  1  0
 48 39  1  0
M  CHG  1   2  -1
M  END
>  <UniqueID>  (48) 
43

>  <SMILES>  (48) 
[NH-]C(=O)c1ccccc1Sc1c(O)c(/N=C/Cc2ccccc2)n(-c2ccccc2)c(=O)c1Cl

>  <Energy>  (48) 
75.02047508752094

>  <Genealogy>  (48) 
[NH-]C(=O)c1ccccc1Sc1c(O)c(N=CCc2ccccc2)n(-c2ccccc2)c(=O)c1Cl (protonated)
[NH-]C(=O)c1ccccc1Sc1c(O)c(/N=C/Cc2ccccc2)n(-c2ccccc2)c(=O)c1Cl (cis-trans isomerization)
[NH-]C(=O)c1ccccc1Sc1c(O)c(/N=C/Cc2ccccc2)n(-c2ccccc2)c(=O)c1Cl (3D coordinates assigned)
[NH-]C(=O)c1ccccc1Sc1c(O)c(/N=C/Cc2ccccc2)n(-c2ccccc2)c(=O)c1Cl (optimized conformer: 75.02047508752094 kcal/mol)

>  <smiles>  (48) 
NC(=O)c1ccccc1Sc1c(O)c(N=CCc2ccccc2)n(-c2ccccc2)c(=O)c1Cl

>  <score_type>  (48) 
oracle

>  <origin>  (48) 
adg

>  <m_score__min__energy>  (48) 
-11.710000000000001

>  <m_primary>  (48) 
energy

$$$$
48:0
     RDKit          3D

 39 41  0  0  0  0  0  0  0  0999 V2000
   64.7590   32.4460   48.0500 H   0  0  0  0  0  0  0  0  0  0  0  0
   61.2530   29.9290   46.0240 N   0  0  0  0  0  0  0  0  0  0  0  0
   61.4220   30.7100   47.0510 C   0  0  0  0  0  0  0  0  0  0  0  0
   61.7390   32.2880   49.2440 N   0  0  0  0  0  0  0  0  0  0  0  0
   60.5160   31.7800   48.9460 C   0  0  0  0  0  0  0  0  0  0  0  0
   59.3410   32.0910   49.8200 C   0  0  0  0  0  0  0  0  0  0  0  0
   58.9661   31.1590   50.2681 H   0  0  0  0  0  0  0  0  0  0  0  0
   59.6583   32.7893   50.6085 H   0  0  0  0  0  0  0  0  0  0  0  0
   58.2730   32.7130   49.0380 N   0  0  0  0  0  0  0  0  0  0  0  0
   57.3090   32.6800   49.4410 H   0  0  0  0  0  0  0  0  0  0  0  0
   58.4580   33.3300   47.7480 C   0  0  0  0  0  0  0  0  0  0  0  0
   57.7660   32.8870   46.6040 C   0  0  0  0  0  0  0  0  0  0  0  0
   57.0636   32.0441   46.6820 H   0  0  0  0  0  0  0  0  0  0  0  0
   57.9670   33.5130   45.3690 C   0  0  0  0  0  0  0  0  0  0  0  0
   57.4190   33.1648   44.4811 H   0  0  0  0  0  0  0  0  0  0  0  0
   58.8630   34.5800   45.2620 C   0  0  0  0  0  0  0  0  0  0  0  0
   59.0207   35.0707   44.2902 H   0  0  0  0  0  0  0  0  0  0  0  0
   59.5580   35.0230   46.3890 C   0  0  0  0  0  0  0  0  0  0  0  0
   60.2633   35.8628   46.3042 H   0  0  0  0  0  0  0  0  0  0  0  0
   59.3590   34.4010   47.6250 C   0  0  0  0  0  0  0  0  0  0  0  0
   59.9122   34.7529   48.5083 H   0  0  0  0  0  0  0  0  0  0  0  0
   60.3620   30.9920   47.8490 N   0  0  0  0  0  0  0  0  0  0  0  0
   62.8070   32.0020   48.4560 C   0  0  0  0  0  0  0  0  0  0  0  0
   63.9750   32.4780   48.7400 N   0  0  0  0  0  0  0  0  0  0  0  0
   60.0540   29.2190   45.6690 C   0  0  0  0  0  0  0  0  0  0  0  0
   60.0790   27.8200   45.6710 C   0  0  0  0  0  0  0  0  0  0  0  0
   61.0109   27.2902   45.9177 H   0  0  0  0  0  0  0  0  0  0  0  0
   58.9290   27.0930   45.3620 C   0  0  0  0  0  0  0  0  0  0  0  0
   58.9624   25.9936   45.3506 H   0  0  0  0  0  0  0  0  0  0  0  0
   57.7350   27.7560   45.0670 C   0  0  0  0  0  0  0  0  0  0  0  0
   56.8359   27.1758   44.8122 H   0  0  0  0  0  0  0  0  0  0  0  0
   57.6760   29.1610   45.0940 C   0  0  0  0  0  0  0  0  0  0  0  0
   56.4060   29.8680   44.8050 C   0  0  0  0  0  0  0  0  0  0  0  0
   56.4110   31.0950   44.5160 O   0  0  0  0  0  0  0  0  0  0  0  0
   55.1620   29.1710   44.8510 N   0  0  0  0  0  0  0  0  0  0  0  0
   54.4760   29.3470   45.6190 H   0  0  0  0  0  0  0  0  0  0  0  0
   58.8420   29.8860   45.4070 C   0  0  0  0  0  0  0  0  0  0  0  0
   58.8055   30.9847   45.4472 H   0  0  0  0  0  0  0  0  0  0  0  0
   62.6490   31.2100   47.3660 N   0  0  0  0  0  0  0  0  0  0  0  0
  1  2  1  0
  2  3  2  0
  3  4  1  0
  4  5  1  0
  5  6  1  0
  6  7  1  0
  6  8  1  0
  6  9  1  0
  9 10  1  0
  9 11  1  0
 11 12  2  0
 12 13  1  0
 12 14  1  0
 14 15  1  0
 14 16  2  0
 16 17  1  0
 16 18  1  0
 18 19  1  0
 18 20  2  0
 20 21  1  0
  5 22  2  0
 22 23  1  0
 23 24  2  0
 24 25  1  0
 25 26  2  0
 26 27  1  0
 26 28  1  0
 28 29  1  0
 28 30  2  0
 30 31  1  0
 30 32  1  0
 32 33  1  0
 33 34  2  0
 33 35  1  0
 35 36  1  0
 32 37  2  0
 37 38  1  0
 23 39  1  0
 39  3  1  0
 20 11  1  0
 37 25  1  0
M  CHG  3   4  -1  35  -1  39  -1
M  END
>  <UniqueID>  (49) 
44

>  <SMILES>  (49) 
[H]/N=c1\[n-]c(CNc2ccccc2)n/c(=N/c2cccc(C([NH-])=O)c2)[n-]1

>  <Energy>  (49) 
47.22983068086024

>  <Genealogy>  (49) 
N=c1[n-]c(CNc2ccccc2)nc(=Nc2cccc(C([NH-])=O)c2)[n-]1 (protonated)
[H]/N=c1\[n-]c(CNc2ccccc2)n/c(=N/c2cccc(C([NH-])=O)c2)[n-]1 (cis-trans isomerization)
[H]/N=c1\[n-]c(CNc2ccccc2)n/c(=N/c2cccc(C([NH-])=O)c2)[n-]1 (3D coordinates assigned)
[H]/N=c1\[n-]c(CNc2ccccc2)n/c(=N/c2cccc(C([NH-])=O)c2)[n-]1 (optimized conformer: 47.22983068086024 kcal/mol)

>  <smiles>  (49) 
N=c1[nH]c(CNc2ccccc2)nc(=Nc2cccc(C(N)=O)c2)[nH]1

>  <score_type>  (49) 
oracle

>  <origin>  (49) 
adg

>  <m_score__min__energy>  (49) 
-13.58

>  <m_primary>  (49) 
energy

$$$$
49:0
     RDKit          3D

 55 58  0  0  0  0  0  0  0  0999 V2000
   59.8810   36.2300   45.8670 O   0  0  0  0  0  0  0  0  0  0  0  0
   59.7950   35.0920   46.4010 C   0  0  0  0  0  0  0  0  0  0  0  0
   60.5180   34.8480   47.6150 N   0  0  0  0  0  0  0  0  0  0  0  0
   61.5150   33.8360   47.8220 C   0  0  0  0  0  0  0  0  0  0  0  0
   62.7010   33.8310   47.0650 C   0  0  0  0  0  0  0  0  0  0  0  0
   63.6520   32.8250   47.2500 C   0  0  0  0  0  0  0  0  0  0  0  0
   63.4230   31.8060   48.1740 C   0  0  0  0  0  0  0  0  0  0  0  0
   62.2390   31.7860   48.9120 C   0  0  0  0  0  0  0  0  0  0  0  0
   61.2770   32.7940   48.7440 C   0  0  0  0  0  0  0  0  0  0  0  0
   60.0750   32.7560   49.5340 N   0  0  0  0  0  0  0  0  0  0  0  0
   59.7460   33.8400   50.4610 C   0  0  0  0  0  0  0  0  0  0  0  0
   59.0280   33.2640   51.6860 C   0  0  0  0  0  0  0  0  0  0  0  0
   57.9270   32.4650   51.2920 O   0  0  0  0  0  0  0  0  0  0  0  0
   58.3860   31.3300   50.5820 C   0  0  0  0  0  0  0  0  0  0  0  0
   59.0520   31.7430   49.2650 C   0  0  0  0  0  0  0  0  0  0  0  0
   58.9960   34.0360   45.7330 C   0  0  0  0  0  0  0  0  0  0  0  0
   59.0640   33.8480   44.3410 C   0  0  0  0  0  0  0  0  0  0  0  0
   58.3240   32.8350   43.7250 C   0  0  0  0  0  0  0  0  0  0  0  0
   57.4790   32.0120   44.4850 C   0  0  0  0  0  0  0  0  0  0  0  0
   56.7080   30.9010   43.8320 C   0  0  0  0  0  0  0  0  0  0  0  0
   56.1280   30.0480   44.8640 N   0  0  0  0  0  0  0  0  0  0  0  0
   57.0410   28.5770   45.0030 S   0  0  0  0  0  0  0  0  0  0  0  0
   57.4700   28.1000   43.6430 O   0  0  0  0  0  0  0  0  0  0  0  0
   56.1690   27.5190   45.6180 O   0  0  0  0  0  0  0  0  0  0  0  0
   58.4470   28.8370   46.0390 C   0  0  0  0  0  0  0  0  0  0  0  0
   59.4240   29.7690   45.6540 C   0  0  0  0  0  0  0  0  0  0  0  0
   60.5590   29.9680   46.4440 C   0  0  0  0  0  0  0  0  0  0  0  0
   60.7290   29.2320   47.6210 C   0  0  0  0  0  0  0  0  0  0  0  0
   59.7630   28.2990   48.0100 C   0  0  0  0  0  0  0  0  0  0  0  0
   58.6240   28.0990   47.2230 C   0  0  0  0  0  0  0  0  0  0  0  0
   57.7070   27.1770   47.6170 F   0  0  0  0  0  0  0  0  0  0  0  0
   57.3950   32.2080   45.8710 C   0  0  0  0  0  0  0  0  0  0  0  0
   58.1420   33.2150   46.4900 C   0  0  0  0  0  0  0  0  0  0  0  0
   62.8802   34.6236   46.3236 H   0  0  0  0  0  0  0  0  0  0  0  0
   64.5838   32.8365   46.6655 H   0  0  0  0  0  0  0  0  0  0  0  0
   64.1760   31.0177   48.3211 H   0  0  0  0  0  0  0  0  0  0  0  0
   62.0581   30.9736   49.6313 H   0  0  0  0  0  0  0  0  0  0  0  0
   60.6708   34.3425   50.7807 H   0  0  0  0  0  0  0  0  0  0  0  0
   59.0894   34.5656   49.9586 H   0  0  0  0  0  0  0  0  0  0  0  0
   59.7341   32.6472   52.2613 H   0  0  0  0  0  0  0  0  0  0  0  0
   58.6578   34.0965   52.3024 H   0  0  0  0  0  0  0  0  0  0  0  0
   59.1166   30.7888   51.2011 H   0  0  0  0  0  0  0  0  0  0  0  0
   57.5244   30.6854   50.3538 H   0  0  0  0  0  0  0  0  0  0  0  0
   59.5201   30.8635   48.7988 H   0  0  0  0  0  0  0  0  0  0  0  0
   58.2941   32.1579   48.5842 H   0  0  0  0  0  0  0  0  0  0  0  0
   59.7045   34.5032   43.7324 H   0  0  0  0  0  0  0  0  0  0  0  0
   58.4044   32.6821   42.6387 H   0  0  0  0  0  0  0  0  0  0  0  0
   55.9050   31.3257   43.2116 H   0  0  0  0  0  0  0  0  0  0  0  0
   57.3820   30.3069   43.1974 H   0  0  0  0  0  0  0  0  0  0  0  0
   59.2952   30.3453   44.7259 H   0  0  0  0  0  0  0  0  0  0  0  0
   61.3187   30.7033   46.1404 H   0  0  0  0  0  0  0  0  0  0  0  0
   61.6239   29.3873   48.2415 H   0  0  0  0  0  0  0  0  0  0  0  0
   59.8989   27.7214   48.9362 H   0  0  0  0  0  0  0  0  0  0  0  0
   56.7374   31.5656   46.4750 H   0  0  0  0  0  0  0  0  0  0  0  0
   58.0609   33.3658   47.5766 H   0  0  0  0  0  0  0  0  0  0  0  0
  1  2  2  0
  2  3  1  0
  3  4  1  0
  4  5  2  0
  5  6  1  0
  6  7  2  0
  7  8  1  0
  8  9  2  0
  9 10  1  0
 10 11  1  0
 11 12  1  0
 12 13  1  0
 13 14  1  0
 14 15  1  0
  2 16  1  0
 16 17  2  0
 17 18  1  0
 18 19  2  0
 19 20  1  0
 20 21  1  0
 21 22  1  0
 22 23  2  0
 22 24  2  0
 22 25  1  0
 25 26  2  0
 26 27  1  0
 27 28  2  0
 28 29  1  0
 29 30  2  0
 30 31  1  0
 19 32  1  0
 32 33  2  0
  9  4  1  0
 15 10  1  0
 33 16  1  0
 30 25  1  0
  5 34  1  0
  6 35  1  0
  7 36  1  0
  8 37  1  0
 11 38  1  0
 11 39  1  0
 12 40  1  0
 12 41  1  0
 14 42  1  0
 14 43  1  0
 15 44  1  0
 15 45  1  0
 17 46  1  0
 18 47  1  0
 20 48  1  0
 20 49  1  0
 26 50  1  0
 27 51  1  0
 28 52  1  0
 29 53  1  0
 32 54  1  0
 33 55  1  0
M  CHG  2   3  -1  21  -1
M  END
>  <UniqueID>  (50) 
45

>  <SMILES>  (50) 
O=C([N-]c1ccccc1N1CCOCC1)c1ccc(C[N-]S(=O)(=O)c2ccccc2F)cc1

>  <Energy>  (50) 
70.27942396561737

>  <Genealogy>  (50) 
O=C([N-]c1ccccc1N1CCOCC1)c1ccc(C[N-]S(=O)(=O)c2ccccc2F)cc1 (protonated)
O=C([N-]c1ccccc1N1CCOCC1)c1ccc(C[N-]S(=O)(=O)c2ccccc2F)cc1 (3D coordinates assigned)
O=C([N-]c1ccccc1N1CCOCC1)c1ccc(C[N-]S(=O)(=O)c2ccccc2F)cc1 (nonaromatic ring conformer: 70.27942396561737 kcal/mol)

>  <smiles>  (50) 
O=C(Nc1ccccc1N1CCOCC1)c1ccc(CNS(=O)(=O)c2ccccc2F)cc1

>  <score_type>  (50) 
oracle

>  <origin>  (50) 
adg

>  <m_score__min__energy>  (50) 
-12.17

>  <m_primary>  (50) 
energy

$$$$
50:0
     RDKit          3D

 60 62  0  0  0  0  0  0  0  0999 V2000
   55.1520   26.2240   46.0070 N   0  0  0  0  0  0  0  0  0  0  0  0
   56.8670   26.4250   45.9380 S   0  0  0  0  0  0  0  0  0  0  0  0
   57.5290   25.0790   46.0200 O   0  0  0  0  0  0  0  0  0  0  0  0
   57.3250   27.2710   47.0940 O   0  0  0  0  0  0  0  0  0  0  0  0
   57.3070   27.1760   44.4650 O   0  0  0  0  0  0  0  0  0  0  0  0
   57.5410   28.5500   44.3100 C   0  0  0  0  0  0  0  0  0  0  0  0
   56.5550   29.3230   43.6840 C   0  0  0  0  0  0  0  0  0  0  0  0
   56.7380   30.6960   43.5000 C   0  0  0  0  0  0  0  0  0  0  0  0
   57.9140   31.3200   43.9430 C   0  0  0  0  0  0  0  0  0  0  0  0
   58.1120   32.8000   43.7440 C   0  0  0  0  0  0  0  0  0  0  0  0
   57.6910   33.5760   44.9610 C   0  0  0  0  0  0  0  0  0  0  0  0
   56.6870   34.3310   44.8730 O   0  0  0  0  0  0  0  0  0  0  0  0
   58.3960   33.4740   46.2180 N   0  0  0  0  0  0  0  0  0  0  0  0
   59.8670   33.5360   46.2270 C   0  0  0  0  0  0  0  0  0  0  0  0
   60.3780   34.5360   47.2760 C   0  0  0  0  0  0  0  0  0  0  0  0
   61.7070   34.1160   47.8500 C   0  0  0  0  0  0  0  0  0  0  0  0
   61.9650   34.2700   49.2200 C   0  0  0  0  0  0  0  0  0  0  0  0
   63.1770   33.8300   49.7630 C   0  0  0  0  0  0  0  0  0  0  0  0
   64.1380   33.2280   48.9440 C   0  0  0  0  0  0  0  0  0  0  0  0
   65.3380   32.7900   49.4980 O   0  0  0  0  0  0  0  0  0  0  0  0
   63.8840   33.0730   47.5750 C   0  0  0  0  0  0  0  0  0  0  0  0
   62.6740   33.5120   47.0300 C   0  0  0  0  0  0  0  0  0  0  0  0
   57.6790   33.3690   47.4980 C   0  0  0  0  0  0  0  0  0  0  0  0
   58.3980   32.4640   48.4630 C   0  0  0  0  0  0  0  0  0  0  0  0
   58.8560   32.9330   49.5380 O   0  0  0  0  0  0  0  0  0  0  0  0
   58.5280   31.0580   48.2170 N   0  0  0  0  0  0  0  0  0  0  0  0
   59.7530   30.3730   47.8140 C   0  0  0  0  0  0  0  0  0  0  0  0
   60.5830   29.9960   49.0100 C   0  0  0  0  0  0  0  0  0  0  0  0
   61.5710   30.8700   49.4890 C   0  0  0  0  0  0  0  0  0  0  0  0
   62.3490   30.5150   50.5950 C   0  0  0  0  0  0  0  0  0  0  0  0
   62.1500   29.2840   51.2280 C   0  0  0  0  0  0  0  0  0  0  0  0
   61.1700   28.4060   50.7550 C   0  0  0  0  0  0  0  0  0  0  0  0
   60.3890   28.7590   49.6500 C   0  0  0  0  0  0  0  0  0  0  0  0
   58.8930   30.5530   44.5910 C   0  0  0  0  0  0  0  0  0  0  0  0
   58.7180   29.1780   44.7620 C   0  0  0  0  0  0  0  0  0  0  0  0
   54.7620   27.0900   46.4380 H   0  0  0  0  0  0  0  0  0  0  0  0
   55.6282   28.8449   43.3340 H   0  0  0  0  0  0  0  0  0  0  0  0
   55.9560   31.2907   43.0053 H   0  0  0  0  0  0  0  0  0  0  0  0
   59.1760   32.9956   43.5447 H   0  0  0  0  0  0  0  0  0  0  0  0
   57.4913   33.1222   42.8949 H   0  0  0  0  0  0  0  0  0  0  0  0
   60.2662   32.5377   46.4595 H   0  0  0  0  0  0  0  0  0  0  0  0
   60.2062   33.8699   45.2353 H   0  0  0  0  0  0  0  0  0  0  0  0
   60.4906   35.5224   46.8023 H   0  0  0  0  0  0  0  0  0  0  0  0
   59.6473   34.5726   48.0974 H   0  0  0  0  0  0  0  0  0  0  0  0
   61.2115   34.7386   49.8701 H   0  0  0  0  0  0  0  0  0  0  0  0
   63.3749   33.9579   50.8375 H   0  0  0  0  0  0  0  0  0  0  0  0
   66.1570   32.6330   48.9270 H   0  0  0  0  0  0  0  0  0  0  0  0
   64.6392   32.6043   46.9269 H   0  0  0  0  0  0  0  0  0  0  0  0
   62.4785   33.3839   45.9551 H   0  0  0  0  0  0  0  0  0  0  0  0
   57.5950   34.3713   47.9434 H   0  0  0  0  0  0  0  0  0  0  0  0
   56.6845   32.9420   47.3015 H   0  0  0  0  0  0  0  0  0  0  0  0
   59.4883   29.4610   47.2589 H   0  0  0  0  0  0  0  0  0  0  0  0
   60.3416   31.0542   47.1819 H   0  0  0  0  0  0  0  0  0  0  0  0
   61.7339   31.8379   48.9924 H   0  0  0  0  0  0  0  0  0  0  0  0
   63.1195   31.2056   50.9682 H   0  0  0  0  0  0  0  0  0  0  0  0
   62.7641   29.0066   52.0975 H   0  0  0  0  0  0  0  0  0  0  0  0
   61.0133   27.4374   51.2522 H   0  0  0  0  0  0  0  0  0  0  0  0
   59.6193   28.0658   49.2797 H   0  0  0  0  0  0  0  0  0  0  0  0
   59.8057   31.0380   44.9675 H   0  0  0  0  0  0  0  0  0  0  0  0
   59.5028   28.5828   45.2518 H   0  0  0  0  0  0  0  0  0  0  0  0
  1  2  1  0
  2  3  2  0
  2  4  2  0
  2  5  1  0
  5  6  1  0
  6  7  2  0
  7  8  1  0
  8  9  2  0
  9 10  1  0
 10 11  1  0
 11 12  2  0
 11 13  1  0
 13 14  1  0
 14 15  1  0
 15 16  1  0
 16 17  2  0
 17 18  1  0
 18 19  2  0
 19 20  1  0
 19 21  1  0
 21 22  2  0
 13 23  1  0
 23 24  1  0
 24 25  2  0
 24 26  1  0
 26 27  1  0
 27 28  1  0
 28 29  2  0
 29 30  1  0
 30 31  2  0
 31 32  1  0
 32 33  2  0
  9 34  1  0
 34 35  2  0
 35  6  1  0
 22 16  1  0
 33 28  1  0
  1 36  1  0
  7 37  1  0
  8 38  1  0
 10 39  1  0
 10 40  1  0
 14 41  1  0
 14 42  1  0
 15 43  1  0
 15 44  1  0
 17 45  1  0
 18 46  1  0
 20 47  1  0
 21 48  1  0
 22 49  1  0
 23 50  1  0
 23 51  1  0
 27 52  1  0
 27 53  1  0
 29 54  1  0
 30 55  1  0
 31 56  1  0
 32 57  1  0
 33 58  1  0
 34 59  1  0
 35 60  1  0
M  CHG  2   1  -1  26  -1
M  END
>  <UniqueID>  (51) 
46

>  <SMILES>  (51) 
[NH-]S(=O)(=O)Oc1ccc(CC(=O)N(CCc2ccc(O)cc2)CC(=O)[N-]Cc2ccccc2)cc1

>  <Energy>  (51) 
50.011992967198005

>  <Genealogy>  (51) 
[NH-]S(=O)(=O)Oc1ccc(CC(=O)N(CCc2ccc(O)cc2)CC(=O)[N-]Cc2ccccc2)cc1 (protonated)
[NH-]S(=O)(=O)Oc1ccc(CC(=O)N(CCc2ccc(O)cc2)CC(=O)[N-]Cc2ccccc2)cc1 (3D coordinates assigned)
[NH-]S(=O)(=O)Oc1ccc(CC(=O)N(CCc2ccc(O)cc2)CC(=O)[N-]Cc2ccccc2)cc1 (optimized conformer: 50.011992967198005 kcal/mol)

>  <smiles>  (51) 
NS(=O)(=O)Oc1ccc(CC(=O)N(CCc2ccc(O)cc2)CC(=O)NCc2ccccc2)cc1

>  <score_type>  (51) 
oracle

>  <origin>  (51) 
adg

>  <m_score__min__energy>  (51) 
-12.74

>  <m_primary>  (51) 
energy

$$$$
51:0
     RDKit          3D

 41 43  0  0  0  0  0  0  0  0999 V2000
   55.3060   28.0310   44.8900 H   0  0  0  0  0  0  0  0  0  0  0  0
   55.8940   27.5690   45.6200 N   0  0  0  0  0  0  0  0  0  0  0  0
   57.1730   27.7650   45.6870 C   0  0  0  0  0  0  0  0  0  0  0  0
   57.9290   26.9940   46.5150 N   0  0  0  0  0  0  0  0  0  0  0  0
   59.2750   27.1560   46.6220 C   0  0  0  0  0  0  0  0  0  0  0  0
   59.8537   26.5165   47.3047 H   0  0  0  0  0  0  0  0  0  0  0  0
   59.9210   28.1330   45.8660 C   0  0  0  0  0  0  0  0  0  0  0  0
   61.0099   28.2666   45.9459 H   0  0  0  0  0  0  0  0  0  0  0  0
   59.1740   28.9400   45.0070 C   0  0  0  0  0  0  0  0  0  0  0  0
   59.6750   29.7125   44.4050 H   0  0  0  0  0  0  0  0  0  0  0  0
   57.7870   28.7680   44.9100 C   0  0  0  0  0  0  0  0  0  0  0  0
   56.8420   29.8100   43.8380 S   0  0  0  0  0  0  0  0  0  0  0  0
   55.5480   30.1550   44.5210 O   0  0  0  0  0  0  0  0  0  0  0  0
   56.5350   29.1100   42.5440 O   0  0  0  0  0  0  0  0  0  0  0  0
   57.7170   31.2690   43.4990 N   0  0  0  0  0  0  0  0  0  0  0  0
   57.9450   31.4620   42.4990 H   0  0  0  0  0  0  0  0  0  0  0  0
   58.0160   32.2710   44.4880 C   0  0  0  0  0  0  0  0  0  0  0  0
   58.5270   33.5320   44.1340 C   0  0  0  0  0  0  0  0  0  0  0  0
   58.7066   33.7719   43.0756 H   0  0  0  0  0  0  0  0  0  0  0  0
   58.8080   34.4820   45.1190 C   0  0  0  0  0  0  0  0  0  0  0  0
   59.2149   35.4637   44.8350 H   0  0  0  0  0  0  0  0  0  0  0  0
   58.5730   34.1870   46.4640 C   0  0  0  0  0  0  0  0  0  0  0  0
   58.7987   34.9379   47.2355 H   0  0  0  0  0  0  0  0  0  0  0  0
   58.0530   32.9440   46.8360 C   0  0  0  0  0  0  0  0  0  0  0  0
   57.8130   32.6900   48.2280 N   0  0  0  0  0  0  0  0  0  0  0  0
   59.0250   32.2480   49.3860 S   0  0  0  0  0  0  0  0  0  0  0  0
   58.8600   30.7990   49.7450 O   0  0  0  0  0  0  0  0  0  0  0  0
   58.8500   33.0820   50.6240 O   0  0  0  0  0  0  0  0  0  0  0  0
   60.6270   32.4850   48.6930 C   0  0  0  0  0  0  0  0  0  0  0  0
   61.3820   33.6240   49.0130 C   0  0  0  0  0  0  0  0  0  0  0  0
   60.9808   34.3696   49.7152 H   0  0  0  0  0  0  0  0  0  0  0  0
   62.6440   33.8120   48.4400 C   0  0  0  0  0  0  0  0  0  0  0  0
   63.2323   34.7074   48.6893 H   0  0  0  0  0  0  0  0  0  0  0  0
   63.1590   32.8640   47.5510 C   0  0  0  0  0  0  0  0  0  0  0  0
   64.1516   33.0135   47.1011 H   0  0  0  0  0  0  0  0  0  0  0  0
   62.4110   31.7250   47.2340 C   0  0  0  0  0  0  0  0  0  0  0  0
   62.8169   30.9781   46.5359 H   0  0  0  0  0  0  0  0  0  0  0  0
   61.1490   31.5350   47.8030 C   0  0  0  0  0  0  0  0  0  0  0  0
   60.5635   30.6382   47.5523 H   0  0  0  0  0  0  0  0  0  0  0  0
   57.7770   31.9870   45.8420 C   0  0  0  0  0  0  0  0  0  0  0  0
   57.3698   31.0062   46.1288 H   0  0  0  0  0  0  0  0  0  0  0  0
  1  2  1  0
  2  3  2  0
  3  4  1  0
  4  5  1  0
  5  6  1  0
  5  7  2  0
  7  8  1  0
  7  9  1  0
  9 10  1  0
  9 11  2  0
 11 12  1  0
 12 13  2  0
 12 14  2  0
 12 15  1  0
 15 16  1  0
 15 17  1  0
 17 18  2  0
 18 19  1  0
 18 20  1  0
 20 21  1  0
 20 22  2  0
 22 23  1  0
 22 24  1  0
 24 25  1  0
 25 26  1  0
 26 27  2  0
 26 28  2  0
 26 29  1  0
 29 30  2  0
 30 31  1  0
 30 32  1  0
 32 33  1  0
 32 34  2  0
 34 35  1  0
 34 36  1  0
 36 37  1  0
 36 38  2  0
 38 39  1  0
 24 40  2  0
 40 41  1  0
 11  3  1  0
 40 17  1  0
 38 29  1  0
M  CHG  2   4  -1  25  -1
M  END
>  <UniqueID>  (52) 
47

>  <SMILES>  (52) 
[H]/N=c1\[n-]cccc1S(=O)(=O)Nc1cccc([N-]S(=O)(=O)c2ccccc2)c1

>  <Energy>  (52) 
51.05555978162063

>  <Genealogy>  (52) 
N=c1[n-]cccc1S(=O)(=O)Nc1cccc([N-]S(=O)(=O)c2ccccc2)c1 (protonated)
[H]/N=c1\[n-]cccc1S(=O)(=O)Nc1cccc([N-]S(=O)(=O)c2ccccc2)c1 (cis-trans isomerization)
[H]/N=c1\[n-]cccc1S(=O)(=O)Nc1cccc([N-]S(=O)(=O)c2ccccc2)c1 (3D coordinates assigned)
[H]/N=c1\[n-]cccc1S(=O)(=O)Nc1cccc([N-]S(=O)(=O)c2ccccc2)c1 (optimized conformer: 51.05555978162063 kcal/mol)

>  <smiles>  (52) 
N=c1[nH]cccc1S(=O)(=O)Nc1cccc(NS(=O)(=O)c2ccccc2)c1

>  <score_type>  (52) 
oracle

>  <origin>  (52) 
adg

>  <m_score__min__energy>  (52) 
-12.42

>  <m_primary>  (52) 
energy

$$$$
52:0
     RDKit          3D

 43 44  0  0  0  0  0  0  0  0999 V2000
   59.5600   35.3210   47.0910 C   0  0  0  0  0  0  0  0  0  0  0  0
   58.9750   34.1860   46.3050 C   0  0  0  0  0  0  0  0  0  0  0  0
   58.6400   34.3560   44.9530 C   0  0  0  0  0  0  0  0  0  0  0  0
   58.0810   33.3000   44.2260 C   0  0  0  0  0  0  0  0  0  0  0  0
   57.8190   32.0740   44.8530 C   0  0  0  0  0  0  0  0  0  0  0  0
   57.1100   30.7450   43.9380 S   0  0  0  0  0  0  0  0  0  0  0  0
   56.9300   31.1710   42.5070 O   0  0  0  0  0  0  0  0  0  0  0  0
   55.7590   30.4020   44.5040 O   0  0  0  0  0  0  0  0  0  0  0  0
   58.1590   29.3610   43.9930 N   0  0  0  0  0  0  0  0  0  0  0  0
   57.3650   28.1380   44.1400 C   0  0  0  0  0  0  0  0  0  0  0  0
   57.0740   27.8660   45.6150 C   0  0  0  0  0  0  0  0  0  0  0  0
   55.7990   27.1640   45.7710 N   0  0  0  0  0  0  0  0  0  0  0  0
   56.0400   25.4530   45.9780 S   0  0  0  0  0  0  0  0  0  0  0  0
   56.2820   25.1260   47.4250 O   0  0  0  0  0  0  0  0  0  0  0  0
   54.8270   24.7080   45.4940 O   0  0  0  0  0  0  0  0  0  0  0  0
   57.4510   24.9460   45.0150 C   0  0  0  0  0  0  0  0  0  0  0  0
   57.2130   23.5900   44.4090 C   0  0  0  0  0  0  0  0  0  0  0  0
   57.6780   22.4330   45.0550 C   0  0  0  0  0  0  0  0  0  0  0  0
   57.4610   21.1740   44.4870 C   0  0  0  0  0  0  0  0  0  0  0  0
   56.7940   21.0640   43.2630 C   0  0  0  0  0  0  0  0  0  0  0  0
   56.3510   22.2120   42.6030 C   0  0  0  0  0  0  0  0  0  0  0  0
   56.5590   23.4730   43.1720 C   0  0  0  0  0  0  0  0  0  0  0  0
   58.1290   31.9110   46.2110 C   0  0  0  0  0  0  0  0  0  0  0  0
   58.7040   32.9610   46.9330 C   0  0  0  0  0  0  0  0  0  0  0  0
   59.4540   35.1153   48.1664 H   0  0  0  0  0  0  0  0  0  0  0  0
   60.6259   35.4287   46.8416 H   0  0  0  0  0  0  0  0  0  0  0  0
   59.0293   36.2517   46.8416 H   0  0  0  0  0  0  0  0  0  0  0  0
   58.8179   35.3244   44.4626 H   0  0  0  0  0  0  0  0  0  0  0  0
   57.8464   33.4319   43.1594 H   0  0  0  0  0  0  0  0  0  0  0  0
   58.6530   29.3180   43.0710 H   0  0  0  0  0  0  0  0  0  0  0  0
   56.4146   28.2556   43.5988 H   0  0  0  0  0  0  0  0  0  0  0  0
   57.9333   27.2918   43.7265 H   0  0  0  0  0  0  0  0  0  0  0  0
   57.8807   27.2464   46.0337 H   0  0  0  0  0  0  0  0  0  0  0  0
   57.0153   28.8273   46.1465 H   0  0  0  0  0  0  0  0  0  0  0  0
   57.6227   25.6770   44.2112 H   0  0  0  0  0  0  0  0  0  0  0  0
   58.3312   24.8932   45.6726 H   0  0  0  0  0  0  0  0  0  0  0  0
   58.2149   22.5176   46.0113 H   0  0  0  0  0  0  0  0  0  0  0  0
   57.8152   20.2696   45.0033 H   0  0  0  0  0  0  0  0  0  0  0  0
   56.6182   20.0727   42.8198 H   0  0  0  0  0  0  0  0  0  0  0  0
   55.8376   22.1247   41.6341 H   0  0  0  0  0  0  0  0  0  0  0  0
   56.2093   24.3753   42.6489 H   0  0  0  0  0  0  0  0  0  0  0  0
   57.9189   30.9534   46.7099 H   0  0  0  0  0  0  0  0  0  0  0  0
   58.9449   32.8262   47.9978 H   0  0  0  0  0  0  0  0  0  0  0  0
  1  2  1  0
  2  3  2  0
  3  4  1  0
  4  5  2  0
  5  6  1  0
  6  7  2  0
  6  8  2  0
  6  9  1  0
  9 10  1  0
 10 11  1  0
 11 12  1  0
 12 13  1  0
 13 14  2  0
 13 15  2  0
 13 16  1  0
 16 17  1  0
 17 18  2  0
 18 19  1  0
 19 20  2  0
 20 21  1  0
 21 22  2  0
  5 23  1  0
 23 24  2  0
 24  2  1  0
 22 17  1  0
  1 25  1  0
  1 26  1  0
  1 27  1  0
  3 28  1  0
  4 29  1  0
  9 30  1  0
 10 31  1  0
 10 32  1  0
 11 33  1  0
 11 34  1  0
 16 35  1  0
 16 36  1  0
 18 37  1  0
 19 38  1  0
 20 39  1  0
 21 40  1  0
 22 41  1  0
 23 42  1  0
 24 43  1  0
M  CHG  1  12  -1
M  END
>  <UniqueID>  (53) 
48

>  <SMILES>  (53) 
Cc1ccc(S(=O)(=O)NCC[N-]S(=O)(=O)Cc2ccccc2)cc1

>  <Energy>  (53) 
28.19322819272877

>  <Genealogy>  (53) 
Cc1ccc(S(=O)(=O)NCC[N-]S(=O)(=O)Cc2ccccc2)cc1 (protonated)
Cc1ccc(S(=O)(=O)NCC[N-]S(=O)(=O)Cc2ccccc2)cc1 (3D coordinates assigned)
Cc1ccc(S(=O)(=O)NCC[N-]S(=O)(=O)Cc2ccccc2)cc1 (optimized conformer: 28.19322819272877 kcal/mol)

>  <smiles>  (53) 
Cc1ccc(S(=O)(=O)NCCNS(=O)(=O)Cc2ccccc2)cc1

>  <score_type>  (53) 
oracle

>  <origin>  (53) 
adg

>  <m_score__min__energy>  (53) 
-11.279999999999999

>  <m_primary>  (53) 
energy

$$$$
53:0
     RDKit          3D

 35 37  0  0  0  0  0  0  0  0999 V2000
   64.1900   33.0910   46.9940 N   0  0  0  0  0  0  0  0  0  0  0  0
   62.9720   32.8600   48.1970 S   0  0  0  0  0  0  0  0  0  0  0  0
   62.6010   34.1870   48.7980 O   0  0  0  0  0  0  0  0  0  0  0  0
   63.5050   31.9720   49.2860 O   0  0  0  0  0  0  0  0  0  0  0  0
   61.5500   32.1200   47.4660 C   0  0  0  0  0  0  0  0  0  0  0  0
   61.6010   30.8030   47.0090 C   0  0  0  0  0  0  0  0  0  0  0  0
   60.4740   30.2180   46.4300 C   0  0  0  0  0  0  0  0  0  0  0  0
   59.2730   30.9420   46.2840 C   0  0  0  0  0  0  0  0  0  0  0  0
   59.2460   32.3000   46.6950 C   0  0  0  0  0  0  0  0  0  0  0  0
   60.3770   32.8620   47.3040 C   0  0  0  0  0  0  0  0  0  0  0  0
   58.1070   33.1530   46.5230 N   0  0  0  0  0  0  0  0  0  0  0  0
   57.2620   33.2320   45.3750 C   0  0  0  0  0  0  0  0  0  0  0  0
   56.6910   34.3230   45.1160 O   0  0  0  0  0  0  0  0  0  0  0  0
   57.0480   32.0590   44.4640 C   0  0  1  0  0  0  0  0  0  0  0  0
   57.9620   32.0210   43.3950 O   0  0  0  0  0  0  0  0  0  0  0  0
   57.0580   30.8140   45.2250 N   0  0  0  0  0  0  0  0  0  0  0  0
   58.0740   30.2110   45.7710 C   0  0  0  0  0  0  0  0  0  0  0  0
   58.0340   28.7280   45.8310 C   0  0  0  0  0  0  0  0  0  0  0  0
   58.1870   28.0720   47.0660 C   0  0  0  0  0  0  0  0  0  0  0  0
   58.1500   26.6760   47.1360 C   0  0  0  0  0  0  0  0  0  0  0  0
   57.9690   25.9210   45.9770 C   0  0  0  0  0  0  0  0  0  0  0  0
   57.8310   26.5590   44.7430 C   0  0  0  0  0  0  0  0  0  0  0  0
   57.8660   27.9550   44.6620 C   0  0  0  0  0  0  0  0  0  0  0  0
   57.7680   28.5460   43.4440 F   0  0  0  0  0  0  0  0  0  0  0  0
   65.0370   33.4570   47.4830 H   0  0  0  0  0  0  0  0  0  0  0  0
   64.4410   32.1440   46.6280 H   0  0  0  0  0  0  0  0  0  0  0  0
   62.5315   30.2243   47.1052 H   0  0  0  0  0  0  0  0  0  0  0  0
   60.5235   29.1757   46.0821 H   0  0  0  0  0  0  0  0  0  0  0  0
   60.3404   33.9023   47.6595 H   0  0  0  0  0  0  0  0  0  0  0  0
   56.0555   32.1813   44.0059 H   0  0  0  0  0  0  0  0  0  0  0  0
   58.5160   32.8400   43.4180 H   0  0  0  0  0  0  0  0  0  0  0  0
   58.3367   28.6612   47.9827 H   0  0  0  0  0  0  0  0  0  0  0  0
   58.2639   26.1720   48.1071 H   0  0  0  0  0  0  0  0  0  0  0  0
   57.9350   24.8231   46.0354 H   0  0  0  0  0  0  0  0  0  0  0  0
   57.6941   25.9610   43.8299 H   0  0  0  0  0  0  0  0  0  0  0  0
  1  2  1  0
  2  3  2  0
  2  4  2  0
  2  5  1  0
  5  6  2  0
  6  7  1  0
  7  8  2  0
  8  9  1  0
  9 10  2  0
  9 11  1  0
 11 12  1  0
 12 13  2  0
 12 14  1  0
 14 15  1  0
 14 16  1  0
 16 17  2  0
 17 18  1  0
 18 19  2  0
 19 20  1  0
 20 21  2  0
 21 22  1  0
 22 23  2  0
 23 24  1  0
 10  5  1  0
 23 18  1  0
 17  8  1  0
  1 25  1  0
  1 26  1  0
  6 27  1  0
  7 28  1  0
 10 29  1  0
 14 30  1  6
 15 31  1  0
 19 32  1  0
 20 33  1  0
 21 34  1  0
 22 35  1  0
M  CHG  1  11  -1
M  END
>  <UniqueID>  (54) 
49

>  <SMILES>  (54) 
NS(=O)(=O)c1ccc2c(c1)[N-]C(=O)[C@@H](O)N=C2c1ccccc1F

>  <Energy>  (54) 
55.08532273245472

>  <Genealogy>  (54) 
NS(=O)(=O)c1ccc2c(c1)[N-]C(=O)C(O)N=C2c1ccccc1F (protonated)
NS(=O)(=O)c1ccc2c(c1)[N-]C(=O)[C@@H](O)N=C2c1ccccc1F (chirality)
NS(=O)(=O)c1ccc2c(c1)[N-]C(=O)[C@@H](O)N=C2c1ccccc1F (3D coordinates assigned)
NS(=O)(=O)c1ccc2c(c1)[N-]C(=O)[C@@H](O)N=C2c1ccccc1F (nonaromatic ring conformer: 55.08532273245472 kcal/mol)

>  <smiles>  (54) 
NS(=O)(=O)c1ccc2c(c1)NC(=O)C(O)N=C2c1ccccc1F

>  <score_type>  (54) 
oracle

>  <origin>  (54) 
adg

>  <m_score__min__energy>  (54) 
-7.4299999999999997

>  <m_primary>  (54) 
energy

$$$$
54:0
     RDKit          3D

 35 37  0  0  1  0  0  0  0  0999 V2000
   64.9640   33.1220   49.0140 O   0  0  0  0  0  0  0  0  0  0  0  0
   63.6030   33.3700   48.8540 C   0  0  0  0  0  0  0  0  0  0  0  0
   62.9980   33.0750   47.6260 C   0  0  0  0  0  0  0  0  0  0  0  0
   56.6200   30.2230   43.6310 C   0  0  0  0  0  0  0  0  0  0  0  0
   57.2540   30.7730   44.7400 C   0  0  0  0  0  0  0  0  0  0  0  0
   56.8060   32.0570   45.1570 N   0  0  0  0  0  0  0  0  0  0  0  0
   57.6450   32.9880   45.4780 C   0  0  0  0  0  0  0  0  0  0  0  0
   59.3930   34.9300   46.1410 N   0  0  0  0  0  0  0  0  0  0  0  0
   58.9290   34.9240   44.8760 C   0  0  0  0  0  0  0  0  0  0  0  0
   58.0290   33.9220   44.5380 C   0  0  0  0  0  0  0  0  0  0  0  0
   58.9960   33.9950   47.0470 C   0  0  0  0  0  0  0  0  0  0  0  0
   59.4880   34.0730   48.2330 N   0  0  0  0  0  0  0  0  0  0  0  0
   60.8690   33.8560   48.4970 C   0  0  0  0  0  0  0  0  0  0  0  0
   61.6490   33.3290   47.4880 C   0  0  0  0  0  0  0  0  0  0  0  0
   57.0240   28.9790   43.1930 C   0  0  0  0  0  0  0  0  0  0  0  0
   58.0310   28.2700   43.8200 C   0  0  0  0  0  0  0  0  0  0  0  0
   58.6520   28.8420   44.9320 C   0  0  0  0  0  0  0  0  0  0  0  0
   60.0450   27.8450   45.7870 Br  0  0  0  0  0  0  0  0  0  0  0  0
   61.4650   34.1460   49.7040 C   0  0  0  0  0  0  0  0  0  0  0  0
   58.1230   33.0190   46.7290 N   0  0  0  0  0  0  0  0  0  0  0  0
   58.2750   30.0930   45.4040 C   0  0  0  0  0  0  0  0  0  0  0  0
   62.8140   33.8980   49.8550 C   0  0  0  0  0  0  0  0  0  0  0  0
   65.4550   32.7540   48.2100 H   0  0  0  0  0  0  0  0  0  0  0  0
   63.5819   32.6527   46.7949 H   0  0  0  0  0  0  0  0  0  0  0  0
   55.8152   30.7673   43.1152 H   0  0  0  0  0  0  0  0  0  0  0  0
   60.0810   35.6720   46.4470 H   0  0  0  0  0  0  0  0  0  0  0  0
   59.2490   35.6795   44.1434 H   0  0  0  0  0  0  0  0  0  0  0  0
   57.6210   33.8728   43.5177 H   0  0  0  0  0  0  0  0  0  0  0  0
   61.1707   33.0997   46.5243 H   0  0  0  0  0  0  0  0  0  0  0  0
   56.5285   28.5369   42.3161 H   0  0  0  0  0  0  0  0  0  0  0  0
   58.3358   27.2792   43.4520 H   0  0  0  0  0  0  0  0  0  0  0  0
   60.8767   34.5675   50.5324 H   0  0  0  0  0  0  0  0  0  0  0  0
   57.8540   32.3260   47.4660 H   0  0  0  0  0  0  0  0  0  0  0  0
   58.7698   30.5367   46.2805 H   0  0  0  0  0  0  0  0  0  0  0  0
   63.2836   34.1330   50.8216 H   0  0  0  0  0  0  0  0  0  0  0  0
  1  2  1  0
  2  3  2  0
  3  4  1  0
  4  5  2  0
  5  6  1  0
  6  7  2  0
  7  8  1  0
  8  9  1  0
  9 10  2  0
 10 11  1  0
 11 12  2  0
 12 13  1  0
 13 14  2  0
 14 15  1  0
 15 16  2  0
 16 17  1  0
 17 18  1  0
 17 19  2  0
 11 20  1  0
  5 21  1  0
 21 22  2  0
 22  2  1  0
 20  7  1  0
 19 13  1  0
  1 23  1  0
  3 24  1  0
  4 25  1  0
  8 26  1  0
  9 27  1  0
 10 28  1  0
 14 29  1  0
 15 30  1  0
 16 31  1  0
 19 32  1  0
 20 33  1  0
 21 34  1  0
 22 35  1  0
M  END
>  <smiles>  (55) 
Oc1ccc(N=c2[nH]ccc(=Nc3cccc(Br)c3)[nH]2)cc1

>  <score_type>  (55) 
oracle

>  <origin>  (55) 
adg

>  <m_score__min__energy>  (55) 
-9.1500000000000004

>  <m_primary>  (55) 
energy

$$$$
55:0
     RDKit          3D

 43 45  0  0  0  0  0  0  0  0999 V2000
   57.7700   26.5530   43.2500 C   0  0  0  0  0  0  0  0  0  0  0  0
   57.4120   26.0400   44.6240 C   0  0  0  0  0  0  0  0  0  0  0  0
   57.0290   24.6910   44.8070 C   0  0  0  0  0  0  0  0  0  0  0  0
   56.9020   23.4470   43.3490 Br  0  0  0  0  0  0  0  0  0  0  0  0
   56.7100   24.2190   46.0840 C   0  0  0  0  0  0  0  0  0  0  0  0
   56.7410   25.0770   47.1810 C   0  0  0  0  0  0  0  0  0  0  0  0
   57.0820   26.4170   47.0110 C   0  0  0  0  0  0  0  0  0  0  0  0
   57.4170   26.9160   45.7400 C   0  0  0  0  0  0  0  0  0  0  0  0
   57.6950   28.3170   45.5750 N   0  0  0  0  0  0  0  0  0  0  0  0
   56.7260   29.2650   45.1090 C   0  0  0  0  0  0  0  0  0  0  0  0
   55.5120   28.9370   45.0090 O   0  0  0  0  0  0  0  0  0  0  0  0
   57.1390   30.6100   44.8390 N   0  0  0  0  0  0  0  0  0  0  0  0
   58.2040   31.3230   45.4850 C   0  0  0  0  0  0  0  0  0  0  0  0
   59.3030   30.6610   46.0600 C   0  0  0  0  0  0  0  0  0  0  0  0
   60.3090   31.3920   46.7000 C   0  0  0  0  0  0  0  0  0  0  0  0
   60.2290   32.7910   46.7850 C   0  0  0  0  0  0  0  0  0  0  0  0
   61.2640   33.5370   47.4560 N   0  0  0  0  0  0  0  0  0  0  0  0
   62.5260   33.8420   46.7670 C   0  0  0  0  0  0  0  0  0  0  0  0
   63.7230   33.8060   47.7480 C   0  0  0  0  0  0  0  0  0  0  0  0
   63.3440   33.6780   49.1080 O   0  0  0  0  0  0  0  0  0  0  0  0
   62.3140   34.5940   49.4140 C   0  0  0  0  0  0  0  0  0  0  0  0
   61.0070   34.1180   48.7790 C   0  0  0  0  0  0  0  0  0  0  0  0
   59.1140   33.4460   46.2380 C   0  0  0  0  0  0  0  0  0  0  0  0
   58.1090   32.7140   45.5980 C   0  0  0  0  0  0  0  0  0  0  0  0
   58.3971   27.4516   43.3460 H   0  0  0  0  0  0  0  0  0  0  0  0
   58.3234   25.7766   42.7014 H   0  0  0  0  0  0  0  0  0  0  0  0
   56.8503   26.8046   42.7014 H   0  0  0  0  0  0  0  0  0  0  0  0
   56.4329   23.1636   46.2232 H   0  0  0  0  0  0  0  0  0  0  0  0
   56.4958   24.6958   48.1833 H   0  0  0  0  0  0  0  0  0  0  0  0
   57.0892   27.0914   47.8800 H   0  0  0  0  0  0  0  0  0  0  0  0
   58.6420   28.6770   45.8300 H   0  0  0  0  0  0  0  0  0  0  0  0
   59.3718   29.5645   46.0063 H   0  0  0  0  0  0  0  0  0  0  0  0
   61.1695   30.8668   47.1401 H   0  0  0  0  0  0  0  0  0  0  0  0
   62.6902   33.0983   45.9733 H   0  0  0  0  0  0  0  0  0  0  0  0
   62.4547   34.8540   46.3419 H   0  0  0  0  0  0  0  0  0  0  0  0
   64.3622   32.9506   47.4840 H   0  0  0  0  0  0  0  0  0  0  0  0
   64.2465   34.7685   47.6503 H   0  0  0  0  0  0  0  0  0  0  0  0
   62.1906   34.6566   50.5053 H   0  0  0  0  0  0  0  0  0  0  0  0
   62.5750   35.5866   49.0183 H   0  0  0  0  0  0  0  0  0  0  0  0
   60.5456   33.3572   49.4258 H   0  0  0  0  0  0  0  0  0  0  0  0
   60.3306   34.9781   48.6662 H   0  0  0  0  0  0  0  0  0  0  0  0
   59.0306   34.5402   46.3133 H   0  0  0  0  0  0  0  0  0  0  0  0
   57.2361   33.2366   45.1798 H   0  0  0  0  0  0  0  0  0  0  0  0
  1  2  1  0
  2  3  2  0
  3  4  1  0
  3  5  1  0
  5  6  2  0
  6  7  1  0
  7  8  2  0
  8  9  1  0
  9 10  1  0
 10 11  2  0
 10 12  1  0
 12 13  1  0
 13 14  2  0
 14 15  1  0
 15 16  2  0
 16 17  1  0
 17 18  1  0
 18 19  1  0
 19 20  1  0
 20 21  1  0
 21 22  1  0
 16 23  1  0
 23 24  2  0
  8  2  1  0
 24 13  1  0
 22 17  1  0
  1 25  1  0
  1 26  1  0
  1 27  1  0
  5 28  1  0
  6 29  1  0
  7 30  1  0
  9 31  1  0
 14 32  1  0
 15 33  1  0
 18 34  1  0
 18 35  1  0
 19 36  1  0
 19 37  1  0
 21 38  1  0
 21 39  1  0
 22 40  1  0
 22 41  1  0
 23 42  1  0
 24 43  1  0
M  CHG  1  12  -1
M  END
>  <UniqueID>  (56) 
50

>  <SMILES>  (56) 
Cc1c(Br)cccc1NC(=O)[N-]c1ccc(N2CCOCC2)cc1

>  <Energy>  (56) 
64.69547624460249

>  <Genealogy>  (56) 
Cc1c(Br)cccc1NC(=O)[N-]c1ccc(N2CCOCC2)cc1 (protonated)
Cc1c(Br)cccc1NC(=O)[N-]c1ccc(N2CCOCC2)cc1 (3D coordinates assigned)
Cc1c(Br)cccc1NC(=O)[N-]c1ccc(N2CCOCC2)cc1 (nonaromatic ring conformer: 64.69547624460249 kcal/mol)

>  <smiles>  (56) 
Cc1c(Br)cccc1NC(=O)Nc1ccc(N2CCOCC2)cc1

>  <score_type>  (56) 
oracle

>  <origin>  (56) 
adg

>  <m_score__min__energy>  (56) 
-9.3100000000000005

>  <m_primary>  (56) 
energy

$$$$
56:0
     RDKit          3D

 55 58  0  0  1  0  0  0  0  0999 V2000
   56.9670   34.1000   45.5970 O   0  0  0  0  0  0  0  0  0  0  0  0
   58.2250   34.1740   45.4130 C   0  0  0  0  0  0  0  0  0  0  0  0
   58.8920   33.5290   44.3450 N   0  0  0  0  0  0  0  0  0  0  0  0
   58.1440   32.7280   43.4040 C   0  0  0  0  0  0  0  0  0  0  0  0
   57.7560   31.4550   44.0070 C   0  0  0  0  0  0  0  0  0  0  0  0
   56.7640   30.6190   43.6380 C   0  0  0  0  0  0  0  0  0  0  0  0
   56.5630   29.3920   44.2830 C   0  0  0  0  0  0  0  0  0  0  0  0
   57.3690   28.9800   45.3280 C   0  0  0  0  0  0  0  0  0  0  0  0
   57.2250   27.7010   46.0050 C   0  0  0  0  0  0  0  0  0  0  0  0
   56.2550   26.7300   45.8550 C   0  0  0  0  0  0  0  0  0  0  0  0
   56.5490   25.6590   46.6780 C   0  0  0  0  0  0  0  0  0  0  0  0
   55.9000   24.5510   46.8460 N   0  0  0  0  0  0  0  0  0  0  0  0
   55.5350   23.8470   45.6550 C   0  0  0  0  0  0  0  0  0  0  0  0
   54.3850   23.8910   45.1540 O   0  0  0  0  0  0  0  0  0  0  0  0
   56.6150   23.0640   45.0560 C   0  0  0  0  0  0  0  0  0  0  0  0
   56.3030   22.3510   43.9120 C   0  0  0  0  0  0  0  0  0  0  0  0
   57.2500   21.5820   43.2560 C   0  0  0  0  0  0  0  0  0  0  0  0
   58.5250   21.5330   43.7600 C   0  0  0  0  0  0  0  0  0  0  0  0
   58.8690   22.2340   44.9050 C   0  0  0  0  0  0  0  0  0  0  0  0
   60.1530   22.1910   45.4250 O   0  0  0  0  0  0  0  0  0  0  0  0
   57.8930   23.0080   45.5540 C   0  0  0  0  0  0  0  0  0  0  0  0
   57.7000   26.0120   47.3140 N   0  0  0  0  0  0  0  0  0  0  0  0
   58.0980   27.2010   46.9260 N   0  0  0  0  0  0  0  0  0  0  0  0
   58.3830   29.8320   45.7120 C   0  0  0  0  0  0  0  0  0  0  0  0
   58.5750   31.0280   45.0790 C   0  0  0  0  0  0  0  0  0  0  0  0
   58.8850   34.9680   46.3690 O   0  0  0  0  0  0  0  0  0  0  0  0
   59.2950   34.3380   47.6060 C   0  0  0  0  0  0  0  0  0  0  0  0
   60.7320   34.0700   47.6520 C   0  0  0  0  0  0  0  0  0  0  0  0
   61.4790   33.8430   46.5240 C   0  0  0  0  0  0  0  0  0  0  0  0
   62.8430   33.6050   46.5470 C   0  0  0  0  0  0  0  0  0  0  0  0
   63.4620   33.6000   47.7770 C   0  0  0  0  0  0  0  0  0  0  0  0
   62.7540   33.8270   48.9620 C   0  0  0  0  0  0  0  0  0  0  0  0
   61.3940   34.0590   48.8840 C   0  0  0  0  0  0  0  0  0  0  0  0
   59.9250   33.6500   44.2600 H   0  0  0  0  0  0  0  0  0  0  0  0
   57.2391   33.2757   43.1020 H   0  0  0  0  0  0  0  0  0  0  0  0
   58.7772   32.5269   42.5273 H   0  0  0  0  0  0  0  0  0  0  0  0
   56.0976   30.9073   42.8117 H   0  0  0  0  0  0  0  0  0  0  0  0
   55.7427   28.7394   43.9495 H   0  0  0  0  0  0  0  0  0  0  0  0
   55.3848   26.7980   45.1856 H   0  0  0  0  0  0  0  0  0  0  0  0
   55.2785   22.3959   43.5140 H   0  0  0  0  0  0  0  0  0  0  0  0
   56.9847   21.0210   42.3478 H   0  0  0  0  0  0  0  0  0  0  0  0
   59.2867   20.9275   43.2470 H   0  0  0  0  0  0  0  0  0  0  0  0
   60.9420   21.8970   44.8290 H   0  0  0  0  0  0  0  0  0  0  0  0
   58.1532   23.5703   46.4629 H   0  0  0  0  0  0  0  0  0  0  0  0
   58.1950   25.4180   48.0210 H   0  0  0  0  0  0  0  0  0  0  0  0
   58.9610   27.6570   47.2970 H   0  0  0  0  0  0  0  0  0  0  0  0
   59.0474   29.5447   46.5403 H   0  0  0  0  0  0  0  0  0  0  0  0
   59.3942   31.6810   45.4144 H   0  0  0  0  0  0  0  0  0  0  0  0
   59.0336   35.0022   48.4430 H   0  0  0  0  0  0  0  0  0  0  0  0
   58.7738   33.3719   47.6763 H   0  0  0  0  0  0  0  0  0  0  0  0
   60.9677   33.8504   45.5501 H   0  0  0  0  0  0  0  0  0  0  0  0
   63.4088   33.4272   45.6206 H   0  0  0  0  0  0  0  0  0  0  0  0
   64.5446   33.4121   47.8293 H   0  0  0  0  0  0  0  0  0  0  0  0
   63.2685   33.8209   49.9343 H   0  0  0  0  0  0  0  0  0  0  0  0
   60.8223   34.2381   49.8066 H   0  0  0  0  0  0  0  0  0  0  0  0
  1  2  2  0
  2  3  1  0
  3  4  1  0
  4  5  1  0
  5  6  2  0
  6  7  1  0
  7  8  2  0
  8  9  1  0
  9 10  2  0
 10 11  1  0
 11 12  2  0
 12 13  1  0
 13 14  2  0
 13 15  1  0
 15 16  2  0
 16 17  1  0
 17 18  2  0
 18 19  1  0
 19 20  1  0
 19 21  2  0
 11 22  1  0
 22 23  1  0
  8 24  1  0
 24 25  2  0
  2 26  1  0
 26 27  1  0
 27 28  1  0
 28 29  2  0
 29 30  1  0
 30 31  2  0
 31 32  1  0
 32 33  2  0
 25  5  1  0
 33 28  1  0
 23  9  1  0
 21 15  1  0
  3 34  1  0
  4 35  1  0
  4 36  1  0
  6 37  1  0
  7 38  1  0
 10 39  1  0
 16 40  1  0
 17 41  1  0
 18 42  1  0
 20 43  1  0
 21 44  1  0
 22 45  1  0
 23 46  1  0
 24 47  1  0
 25 48  1  0
 27 49  1  0
 27 50  1  0
 29 51  1  0
 30 52  1  0
 31 53  1  0
 32 54  1  0
 33 55  1  0
M  END
>  <smiles>  (57) 
O=C(NCc1ccc(-c2cc(=NC(=O)c3cccc(O)c3)[nH][nH]2)cc1)OCc1ccccc1

>  <score_type>  (57) 
oracle

>  <origin>  (57) 
adg

>  <m_score__min__energy>  (57) 
-10.08

>  <m_primary>  (57) 
energy

$$$$
57:0
     RDKit          3D

 38 40  0  0  0  0  0  0  0  0999 V2000
   56.1582   32.4590   44.9117 H   0  0  0  0  0  0  0  0  0  0  0  0
   57.0550   33.0460   45.1590 C   0  0  0  0  0  0  0  0  0  0  0  0
   57.3390   33.4440   46.4280 N   0  0  0  0  0  0  0  0  0  0  0  0
   58.4870   34.1500   46.4830 C   0  0  0  0  0  0  0  0  0  0  0  0
   58.9520   34.6310   47.5950 N   0  0  0  0  0  0  0  0  0  0  0  0
   59.9560   33.7460   48.6970 S   0  0  0  0  0  0  0  0  0  0  0  0
   61.3200   34.3750   48.7660 O   0  0  0  0  0  0  0  0  0  0  0  0
   59.3390   33.7480   50.0670 O   0  0  0  0  0  0  0  0  0  0  0  0
   60.1050   32.0880   48.1230 C   0  0  0  0  0  0  0  0  0  0  0  0
   59.1790   31.1170   48.5250 C   0  0  0  0  0  0  0  0  0  0  0  0
   58.3626   31.3885   49.2104 H   0  0  0  0  0  0  0  0  0  0  0  0
   59.2890   29.8040   48.0580 C   0  0  0  0  0  0  0  0  0  0  0  0
   58.5511   29.0497   48.3687 H   0  0  0  0  0  0  0  0  0  0  0  0
   60.3330   29.4430   47.1970 C   0  0  0  0  0  0  0  0  0  0  0  0
   60.4000   28.0950   46.7140 N   0  0  0  0  0  0  0  0  0  0  0  0
   59.6850   26.9660   47.2340 C   0  0  0  0  0  0  0  0  0  0  0  0
   59.8590   26.6470   48.4390 O   0  0  0  0  0  0  0  0  0  0  0  0
   58.7720   26.1390   46.3640 C   0  0  0  0  0  0  0  0  0  0  0  0
   58.8883   26.4572   45.3175 H   0  0  0  0  0  0  0  0  0  0  0  0
   59.0455   25.0799   46.4800 H   0  0  0  0  0  0  0  0  0  0  0  0
   57.3760   26.3020   46.7590 N   0  0  0  0  0  0  0  0  0  0  0  0
   56.3240   26.9200   46.0010 C   0  0  0  0  0  0  0  0  0  0  0  0
   55.1930   26.3650   45.9920 O   0  0  0  0  0  0  0  0  0  0  0  0
   56.5100   28.1660   45.2270 C   0  0  0  0  0  0  0  0  0  0  0  0
   55.5490   28.9900   44.8780 O   0  0  0  0  0  0  0  0  0  0  0  0
   56.0700   29.9880   44.2020 C   0  0  0  0  0  0  0  0  0  0  0  0
   55.5041   30.8329   43.7825 H   0  0  0  0  0  0  0  0  0  0  0  0
   57.4340   29.8160   44.0980 C   0  0  0  0  0  0  0  0  0  0  0  0
   58.1483   30.4810   43.5905 H   0  0  0  0  0  0  0  0  0  0  0  0
   57.7200   28.6420   44.7590 C   0  0  0  0  0  0  0  0  0  0  0  0
   58.7091   28.1782   44.8880 H   0  0  0  0  0  0  0  0  0  0  0  0
   61.2370   30.4270   46.7630 C   0  0  0  0  0  0  0  0  0  0  0  0
   62.0346   30.1632   46.0529 H   0  0  0  0  0  0  0  0  0  0  0  0
   61.1270   31.7400   47.2300 C   0  0  0  0  0  0  0  0  0  0  0  0
   61.8454   32.5027   46.8952 H   0  0  0  0  0  0  0  0  0  0  0  0
   59.1980   34.3090   44.9620 S   0  0  0  0  0  0  0  0  0  0  0  0
   57.9810   33.4350   44.1960 C   0  0  0  0  0  0  0  0  0  0  0  0
   57.9269   33.2102   43.1206 H   0  0  0  0  0  0  0  0  0  0  0  0
  1  2  1  0
  2  3  1  0
  3  4  1  0
  4  5  2  0
  5  6  1  0
  6  7  2  0
  6  8  2  0
  6  9  1  0
  9 10  2  0
 10 11  1  0
 10 12  1  0
 12 13  1  0
 12 14  2  0
 14 15  1  0
 15 16  1  0
 16 17  2  0
 16 18  1  0
 18 19  1  0
 18 20  1  0
 18 21  1  0
 21 22  1  0
 22 23  2  0
 22 24  1  0
 24 25  1  0
 25 26  1  0
 26 27  1  0
 26 28  2  0
 28 29  1  0
 28 30  1  0
 30 31  1  0
 14 32  1  0
 32 33  1  0
 32 34  2  0
 34 35  1  0
  4 36  1  0
 36 37  1  0
 37 38  1  0
 37  2  2  0
 34  9  1  0
 30 24  2  0
M  CHG  3   3  -1  15  -1  21  -1
M  END
>  <UniqueID>  (58) 
51

>  <SMILES>  (58) 
O=C(C[N-]C(=O)c1ccco1)[N-]c1ccc(S(=O)(=O)/N=c2/[n-]ccs2)cc1

>  <Energy>  (58) 
105.2028909858254

>  <Genealogy>  (58) 
O=C(C[N-]C(=O)c1ccco1)[N-]c1ccc(S(=O)(=O)N=c2[n-]ccs2)cc1 (protonated)
O=C(C[N-]C(=O)c1ccco1)[N-]c1ccc(S(=O)(=O)/N=c2/[n-]ccs2)cc1 (cis-trans isomerization)
O=C(C[N-]C(=O)c1ccco1)[N-]c1ccc(S(=O)(=O)/N=c2/[n-]ccs2)cc1 (3D coordinates assigned)
O=C(C[N-]C(=O)c1ccco1)[N-]c1ccc(S(=O)(=O)/N=c2/[n-]ccs2)cc1 (optimized conformer: 105.2028909858254 kcal/mol)

>  <smiles>  (58) 
O=C(CNC(=O)c1ccco1)Nc1ccc(S(=O)(=O)N=c2[nH]ccs2)cc1

>  <score_type>  (58) 
oracle

>  <origin>  (58) 
adg

>  <m_score__min__energy>  (58) 
-12.56

>  <m_primary>  (58) 
energy

$$$$
58:0
     RDKit          3D

 36 37  0  0  0  0  0  0  0  0999 V2000
   55.1450   29.3080   44.8680 N   0  0  0  0  0  0  0  0  0  0  0  0
   56.5210   29.5690   45.1440 C   0  0  0  0  0  0  0  0  0  0  0  0
   56.9930   30.7060   44.8790 O   0  0  0  0  0  0  0  0  0  0  0  0
   57.3690   28.5200   45.7650 C   0  0  0  0  0  0  0  0  0  0  0  0
   56.9550   27.1770   45.6900 C   0  0  0  0  0  0  0  0  0  0  0  0
   57.6940   26.1640   46.3060 C   0  0  0  0  0  0  0  0  0  0  0  0
   57.1530   24.4980   46.2070 Cl  0  0  0  0  0  0  0  0  0  0  0  0
   58.8620   26.4770   47.0000 C   0  0  0  0  0  0  0  0  0  0  0  0
   59.2970   27.8000   47.0770 C   0  0  0  0  0  0  0  0  0  0  0  0
   58.5620   28.8330   46.4680 C   0  0  0  0  0  0  0  0  0  0  0  0
   59.0830   30.1740   46.4850 N   0  0  0  0  0  0  0  0  0  0  0  0
   60.0190   30.6410   47.4660 C   0  0  0  0  0  0  0  0  0  0  0  0
   60.3270   29.9180   48.4520 O   0  0  0  0  0  0  0  0  0  0  0  0
   60.5840   31.9480   47.3270 N   0  0  0  0  0  0  0  0  0  0  0  0
   60.8780   32.8240   48.4550 C   0  0  0  0  0  0  0  0  0  0  0  0
   59.9150   34.0140   48.4740 C   0  0  0  0  0  0  0  0  0  0  0  0
   59.0940   34.0510   47.2130 C   0  0  0  0  0  0  0  0  0  0  0  0
   57.8200   33.4580   47.1770 C   0  0  0  0  0  0  0  0  0  0  0  0
   57.0730   33.4650   45.9950 C   0  0  0  0  0  0  0  0  0  0  0  0
   57.5940   34.0560   44.8400 C   0  0  0  0  0  0  0  0  0  0  0  0
   58.8660   34.6350   44.8640 C   0  0  0  0  0  0  0  0  0  0  0  0
   59.6170   34.6300   46.0440 C   0  0  0  0  0  0  0  0  0  0  0  0
   54.4290   29.3490   45.6270 H   0  0  0  0  0  0  0  0  0  0  0  0
   56.0377   26.9216   45.1392 H   0  0  0  0  0  0  0  0  0  0  0  0
   59.4414   25.6792   47.4877 H   0  0  0  0  0  0  0  0  0  0  0  0
   60.2240   28.0378   47.6193 H   0  0  0  0  0  0  0  0  0  0  0  0
   58.7510   30.8510   45.7630 H   0  0  0  0  0  0  0  0  0  0  0  0
   60.7713   32.2568   49.3914 H   0  0  0  0  0  0  0  0  0  0  0  0
   61.9069   33.2001   48.3551 H   0  0  0  0  0  0  0  0  0  0  0  0
   59.2433   33.9217   49.3402 H   0  0  0  0  0  0  0  0  0  0  0  0
   60.5002   34.9428   48.5437 H   0  0  0  0  0  0  0  0  0  0  0  0
   57.4092   32.9867   48.0820 H   0  0  0  0  0  0  0  0  0  0  0  0
   56.0741   33.0049   45.9738 H   0  0  0  0  0  0  0  0  0  0  0  0
   57.0029   34.0653   43.9124 H   0  0  0  0  0  0  0  0  0  0  0  0
   59.2771   35.0953   43.9534 H   0  0  0  0  0  0  0  0  0  0  0  0
   60.6203   35.0808   46.0571 H   0  0  0  0  0  0  0  0  0  0  0  0
  1  2  1  0
  2  3  2  0
  2  4  1  0
  4  5  2  0
  5  6  1  0
  6  7  1  0
  6  8  2  0
  8  9  1  0
  9 10  2  0
 10 11  1  0
 11 12  1  0
 12 13  2  0
 12 14  1  0
 14 15  1  0
 15 16  1  0
 16 17  1  0
 17 18  2  0
 18 19  1  0
 19 20  2  0
 20 21  1  0
 21 22  2  0
 10  4  1  0
 22 17  1  0
  1 23  1  0
  5 24  1  0
  8 25  1  0
  9 26  1  0
 11 27  1  0
 15 28  1  0
 15 29  1  0
 16 30  1  0
 16 31  1  0
 18 32  1  0
 19 33  1  0
 20 34  1  0
 21 35  1  0
 22 36  1  0
M  CHG  2   1  -1  14  -1
M  END
>  <UniqueID>  (59) 
52

>  <SMILES>  (59) 
[NH-]C(=O)c1cc(Cl)ccc1NC(=O)[N-]CCc1ccccc1

>  <Energy>  (59) 
39.036392512307174

>  <Genealogy>  (59) 
[NH-]C(=O)c1cc(Cl)ccc1NC(=O)[N-]CCc1ccccc1 (protonated)
[NH-]C(=O)c1cc(Cl)ccc1NC(=O)[N-]CCc1ccccc1 (3D coordinates assigned)
[NH-]C(=O)c1cc(Cl)ccc1NC(=O)[N-]CCc1ccccc1 (optimized conformer: 39.036392512307174 kcal/mol)

>  <smiles>  (59) 
NC(=O)c1cc(Cl)ccc1NC(=O)NCCc1ccccc1

>  <score_type>  (59) 
oracle

>  <origin>  (59) 
adg

>  <m_score__min__energy>  (59) 
-12.52

>  <m_primary>  (59) 
energy

$$$$
59:0
     RDKit          3D

 40 42  0  0  0  0  0  0  0  0999 V2000
   55.5230   30.6150   44.4090 O   0  0  0  0  0  0  0  0  0  0  0  0
   56.7710   30.5220   44.5620 C   0  0  0  0  0  0  0  0  0  0  0  0
   57.4270   29.2610   44.3650 N   0  0  0  0  0  0  0  0  0  0  0  0
   57.7810   28.3110   45.3810 C   0  0  0  0  0  0  0  0  0  0  0  0
   58.9480   28.4450   46.1530 C   0  0  0  0  0  0  0  0  0  0  0  0
   59.2330   27.5220   47.1610 C   0  0  0  0  0  0  0  0  0  0  0  0
   58.3560   26.4640   47.4120 C   0  0  0  0  0  0  0  0  0  0  0  0
   57.1910   26.3140   46.6510 C   0  0  0  0  0  0  0  0  0  0  0  0
   56.3020   25.2310   46.9640 N   0  0  0  0  0  0  0  0  0  0  0  0
   55.5430   24.4510   46.0280 C   0  0  0  0  0  0  0  0  0  0  0  0
   54.2870   24.5540   45.9920 O   0  0  0  0  0  0  0  0  0  0  0  0
   56.2400   23.5660   45.0640 C   0  0  0  0  0  0  0  0  0  0  0  0
   55.5570   23.0410   43.9530 C   0  0  0  0  0  0  0  0  0  0  0  0
   56.2160   22.2100   43.0460 C   0  0  0  0  0  0  0  0  0  0  0  0
   57.5620   21.8930   43.2320 C   0  0  0  0  0  0  0  0  0  0  0  0
   58.2690   22.4050   44.3340 C   0  0  0  0  0  0  0  0  0  0  0  0
   59.6580   22.0790   44.5290 N   0  0  0  0  0  0  0  0  0  0  0  0
   60.2250   22.3280   45.6130 O   0  0  0  0  0  0  0  0  0  0  0  0
   60.3850   21.4860   43.5220 O   0  0  0  0  0  0  0  0  0  0  0  0
   57.5990   23.2420   45.2450 C   0  0  0  0  0  0  0  0  0  0  0  0
   56.8950   27.2600   45.6530 C   0  0  0  0  0  0  0  0  0  0  0  0
   57.5510   31.7040   45.0000 C   0  0  0  0  0  0  0  0  0  0  0  0
   57.7700   32.7810   44.1210 C   0  0  0  0  0  0  0  0  0  0  0  0
   58.5070   33.8950   44.5340 C   0  0  0  0  0  0  0  0  0  0  0  0
   59.0350   33.9470   45.8270 C   0  0  0  0  0  0  0  0  0  0  0  0
   59.9600   35.3450   46.3430 Cl  0  0  0  0  0  0  0  0  0  0  0  0
   58.8260   32.8830   46.7080 C   0  0  0  0  0  0  0  0  0  0  0  0
   58.0880   31.7660   46.3000 C   0  0  0  0  0  0  0  0  0  0  0  0
   59.6388   29.2796   45.9624 H   0  0  0  0  0  0  0  0  0  0  0  0
   60.1502   27.6281   47.7589 H   0  0  0  0  0  0  0  0  0  0  0  0
   58.5824   25.7444   48.2126 H   0  0  0  0  0  0  0  0  0  0  0  0
   54.4961   23.2869   43.7976 H   0  0  0  0  0  0  0  0  0  0  0  0
   55.6720   21.8032   42.1808 H   0  0  0  0  0  0  0  0  0  0  0  0
   58.0735   21.2379   42.5114 H   0  0  0  0  0  0  0  0  0  0  0  0
   58.1434   23.6488   46.1099 H   0  0  0  0  0  0  0  0  0  0  0  0
   55.9595   27.1740   45.0808 H   0  0  0  0  0  0  0  0  0  0  0  0
   57.3583   32.7461   43.1015 H   0  0  0  0  0  0  0  0  0  0  0  0
   58.6716   34.7323   43.8398 H   0  0  0  0  0  0  0  0  0  0  0  0
   59.2427   32.9233   47.7252 H   0  0  0  0  0  0  0  0  0  0  0  0
   57.9266   30.9320   46.9988 H   0  0  0  0  0  0  0  0  0  0  0  0
  1  2  2  0
  2  3  1  0
  3  4  1  0
  4  5  2  0
  5  6  1  0
  6  7  2  0
  7  8  1  0
  8  9  1  0
  9 10  1  0
 10 11  2  0
 10 12  1  0
 12 13  2  0
 13 14  1  0
 14 15  2  0
 15 16  1  0
 16 17  1  0
 17 18  2  0
 17 19  1  0
 16 20  2  0
  8 21  2  0
  2 22  1  0
 22 23  2  0
 23 24  1  0
 24 25  2  0
 25 26  1  0
 25 27  1  0
 27 28  2  0
 21  4  1  0
 28 22  1  0
 20 12  1  0
  5 29  1  0
  6 30  1  0
  7 31  1  0
 13 32  1  0
 14 33  1  0
 15 34  1  0
 20 35  1  0
 21 36  1  0
 23 37  1  0
 24 38  1  0
 27 39  1  0
 28 40  1  0
M  CHG  4   3  -1   9  -1  17   1  19  -1
M  END
>  <UniqueID>  (60) 
53

>  <SMILES>  (60) 
O=C([N-]c1cccc([N-]C(=O)c2cccc([N+](=O)[O-])c2)c1)c1ccc(Cl)cc1

>  <Energy>  (60) 
53.10147053303823

>  <Genealogy>  (60) 
O=C([N-]c1cccc([N-]C(=O)c2cccc([N+](=O)[O-])c2)c1)c1ccc(Cl)cc1 (protonated)
O=C([N-]c1cccc([N-]C(=O)c2cccc([N+](=O)[O-])c2)c1)c1ccc(Cl)cc1 (3D coordinates assigned)
O=C([N-]c1cccc([N-]C(=O)c2cccc([N+](=O)[O-])c2)c1)c1ccc(Cl)cc1 (optimized conformer: 53.10147053303823 kcal/mol)

>  <smiles>  (60) 
O=C(Nc1cccc(NC(=O)c2cccc([N+](=O)[O-])c2)c1)c1ccc(Cl)cc1

>  <score_type>  (60) 
oracle

>  <origin>  (60) 
adg

>  <m_score__min__energy>  (60) 
-12.59

>  <m_primary>  (60) 
energy

$$$$
60:0
     RDKit          3D

 53 56  0  0  0  0  0  0  0  0999 V2000
   55.9460   25.9570   46.4230 O   0  0  0  0  0  0  0  0  0  0  0  0
   56.5880   26.8570   45.8180 C   0  0  0  0  0  0  0  0  0  0  0  0
   58.0100   26.7380   45.7100 N   0  0  0  0  0  0  0  0  0  0  0  0
   58.9750   27.7160   46.1230 C   0  0  0  0  0  0  0  0  0  0  0  0
   59.7830   28.3180   45.1510 C   0  0  0  0  0  0  0  0  0  0  0  0
   60.7000   29.3090   45.5060 C   0  0  0  0  0  0  0  0  0  0  0  0
   60.8190   29.7190   46.8430 C   0  0  0  0  0  0  0  0  0  0  0  0
   61.7560   30.8390   47.2190 C   0  0  0  0  0  0  0  0  0  0  0  0
   60.9830   32.1330   47.4830 C   0  0  0  0  0  0  0  0  0  0  0  0
   61.6210   33.2520   46.7690 N   0  0  0  0  0  0  0  0  0  0  0  0
   63.0770   33.2720   46.9540 C   0  0  0  0  0  0  0  0  0  0  0  0
   63.4080   33.4090   48.4180 C   0  0  0  0  0  0  0  0  0  0  0  0
   64.4730   32.6770   48.9680 C   0  0  0  0  0  0  0  0  0  0  0  0
   64.8130   32.8320   50.3150 C   0  0  0  0  0  0  0  0  0  0  0  0
   64.1010   33.7240   51.1200 C   0  0  0  0  0  0  0  0  0  0  0  0
   64.4410   33.8830   52.4220 F   0  0  0  0  0  0  0  0  0  0  0  0
   63.0430   34.4600   50.5800 C   0  0  0  0  0  0  0  0  0  0  0  0
   62.6960   34.3050   49.2330 C   0  0  0  0  0  0  0  0  0  0  0  0
   59.9900   29.1370   47.8150 C   0  0  0  0  0  0  0  0  0  0  0  0
   59.0700   28.1470   47.4580 C   0  0  0  0  0  0  0  0  0  0  0  0
   55.9060   27.9850   45.2520 N   0  0  0  0  0  0  0  0  0  0  0  0
   56.5010   29.1680   44.7000 C   0  0  0  0  0  0  0  0  0  0  0  0
   56.4540   29.4570   43.3230 C   0  0  0  0  0  0  0  0  0  0  0  0
   57.0220   30.6340   42.8270 C   0  0  0  0  0  0  0  0  0  0  0  0
   57.6300   31.5470   43.6990 C   0  0  0  0  0  0  0  0  0  0  0  0
   58.2000   32.7340   43.2110 C   0  0  0  0  0  0  0  0  0  0  0  0
   58.7940   33.6410   44.0930 C   0  0  0  0  0  0  0  0  0  0  0  0
   58.8230   33.3730   45.4640 C   0  0  0  0  0  0  0  0  0  0  0  0
   58.2590   32.1950   45.9630 C   0  0  0  0  0  0  0  0  0  0  0  0
   57.6590   31.2750   45.0870 C   0  0  0  0  0  0  0  0  0  0  0  0
   57.0880   30.0910   45.5760 C   0  0  0  0  0  0  0  0  0  0  0  0
   59.6946   28.0077   44.0994 H   0  0  0  0  0  0  0  0  0  0  0  0
   61.3326   29.7710   44.7337 H   0  0  0  0  0  0  0  0  0  0  0  0
   62.3075   30.5572   48.1281 H   0  0  0  0  0  0  0  0  0  0  0  0
   62.4520   31.0097   46.3845 H   0  0  0  0  0  0  0  0  0  0  0  0
   59.9476   32.0179   47.1299 H   0  0  0  0  0  0  0  0  0  0  0  0
   60.9863   32.3432   48.5627 H   0  0  0  0  0  0  0  0  0  0  0  0
   61.4210   33.1470   45.7460 H   0  0  0  0  0  0  0  0  0  0  0  0
   63.5061   32.3350   46.5695 H   0  0  0  0  0  0  0  0  0  0  0  0
   63.4992   34.1275   46.4064 H   0  0  0  0  0  0  0  0  0  0  0  0
   65.0418   31.9789   48.3363 H   0  0  0  0  0  0  0  0  0  0  0  0
   65.6432   32.2501   50.7419 H   0  0  0  0  0  0  0  0  0  0  0  0
   62.4821   35.1621   51.2144 H   0  0  0  0  0  0  0  0  0  0  0  0
   61.8631   34.8866   48.8110 H   0  0  0  0  0  0  0  0  0  0  0  0
   60.0648   29.4618   48.8633 H   0  0  0  0  0  0  0  0  0  0  0  0
   58.4177   27.7033   48.2246 H   0  0  0  0  0  0  0  0  0  0  0  0
   55.9672   28.7521   42.6330 H   0  0  0  0  0  0  0  0  0  0  0  0
   56.9916   30.8444   41.7477 H   0  0  0  0  0  0  0  0  0  0  0  0
   58.1790   32.9503   42.1327 H   0  0  0  0  0  0  0  0  0  0  0  0
   59.2403   34.5691   43.7065 H   0  0  0  0  0  0  0  0  0  0  0  0
   59.2912   34.0913   46.1531 H   0  0  0  0  0  0  0  0  0  0  0  0
   58.2851   31.9882   47.0431 H   0  0  0  0  0  0  0  0  0  0  0  0
   57.1010   29.8851   46.6565 H   0  0  0  0  0  0  0  0  0  0  0  0
  1  2  2  0
  2  3  1  0
  3  4  1  0
  4  5  2  0
  5  6  1  0
  6  7  2  0
  7  8  1  0
  8  9  1  0
  9 10  1  0
 10 11  1  0
 11 12  1  0
 12 13  2  0
 13 14  1  0
 14 15  2  0
 15 16  1  0
 15 17  1  0
 17 18  2  0
  7 19  1  0
 19 20  2  0
  2 21  1  0
 21 22  1  0
 22 23  2  0
 23 24  1  0
 24 25  2  0
 25 26  1  0
 26 27  2  0
 27 28  1  0
 28 29  2  0
 29 30  1  0
 30 31  2  0
 20  4  1  0
 31 22  1  0
 18 12  1  0
 30 25  1  0
  5 32  1  0
  6 33  1  0
  8 34  1  0
  8 35  1  0
  9 36  1  0
  9 37  1  0
 10 38  1  0
 11 39  1  0
 11 40  1  0
 13 41  1  0
 14 42  1  0
 17 43  1  0
 18 44  1  0
 19 45  1  0
 20 46  1  0
 23 47  1  0
 24 48  1  0
 26 49  1  0
 27 50  1  0
 28 51  1  0
 29 52  1  0
 31 53  1  0
M  CHG  2   3  -1  21  -1
M  END
>  <UniqueID>  (61) 
54

>  <SMILES>  (61) 
O=C([N-]c1ccc(CCNCc2ccc(F)cc2)cc1)[N-]c1ccc2ccccc2c1

>  <Energy>  (61) 
60.08290923252924

>  <Genealogy>  (61) 
O=C([N-]c1ccc(CCNCc2ccc(F)cc2)cc1)[N-]c1ccc2ccccc2c1 (protonated)
O=C([N-]c1ccc(CCNCc2ccc(F)cc2)cc1)[N-]c1ccc2ccccc2c1 (3D coordinates assigned)
O=C([N-]c1ccc(CCNCc2ccc(F)cc2)cc1)[N-]c1ccc2ccccc2c1 (optimized conformer: 60.08290923252924 kcal/mol)

>  <smiles>  (61) 
O=C(Nc1ccc(CCNCc2ccc(F)cc2)cc1)Nc1ccc2ccccc2c1

>  <score_type>  (61) 
oracle

>  <origin>  (61) 
adg

>  <m_score__min__energy>  (61) 
-12.35

>  <m_primary>  (61) 
energy

$$$$
61:0
     RDKit          3D

 38 39  0  0  0  0  0  0  0  0999 V2000
   56.4690   30.2020   43.7800 C   0  0  0  0  0  0  0  0  0  0  0  0
   56.3220   31.4390   44.4680 O   0  0  0  0  0  0  0  0  0  0  0  0
   57.3860   32.1970   44.9810 C   0  0  0  0  0  0  0  0  0  0  0  0
   57.7090   33.4660   44.4690 C   0  0  0  0  0  0  0  0  0  0  0  0
   58.7700   34.1920   45.0060 C   0  0  0  0  0  0  0  0  0  0  0  0
   59.5190   33.6640   46.0550 C   0  0  0  0  0  0  0  0  0  0  0  0
   59.2250   32.3970   46.5850 C   0  0  0  0  0  0  0  0  0  0  0  0
   60.0800   31.9070   47.7330 C   0  0  0  0  0  0  0  0  0  0  0  0
   59.2710   31.1680   48.6980 N   0  0  0  0  0  0  0  0  0  0  0  0
   59.4050   29.7680   48.9540 C   0  0  0  0  0  0  0  0  0  0  0  0
   58.9210   29.2900   50.0130 O   0  0  0  0  0  0  0  0  0  0  0  0
   60.0330   28.9160   47.9880 N   0  0  0  0  0  0  0  0  0  0  0  0
   59.4090   28.2620   46.8740 C   0  0  0  0  0  0  0  0  0  0  0  0
   59.9070   28.5100   45.5890 C   0  0  0  0  0  0  0  0  0  0  0  0
   59.3450   27.8760   44.4790 C   0  0  0  0  0  0  0  0  0  0  0  0
   58.2870   26.9780   44.6450 C   0  0  0  0  0  0  0  0  0  0  0  0
   57.7910   26.7060   45.9260 C   0  0  0  0  0  0  0  0  0  0  0  0
   56.4850   25.5440   46.1390 S   0  0  0  0  0  0  0  0  0  0  0  0
   54.9660   26.3410   45.9420 N   0  0  0  0  0  0  0  0  0  0  0  0
   56.5600   24.9390   47.5130 O   0  0  0  0  0  0  0  0  0  0  0  0
   56.6100   24.4460   45.1220 O   0  0  0  0  0  0  0  0  0  0  0  0
   58.3610   27.3370   47.0410 C   0  0  0  0  0  0  0  0  0  0  0  0
   58.1390   31.6580   46.0390 C   0  0  0  0  0  0  0  0  0  0  0  0
   57.7670   30.3950   46.5110 O   0  0  0  0  0  0  0  0  0  0  0  0
   56.5660   29.3854   44.5106 H   0  0  0  0  0  0  0  0  0  0  0  0
   55.5854   30.0262   43.1488 H   0  0  0  0  0  0  0  0  0  0  0  0
   57.3692   30.2382   43.1488 H   0  0  0  0  0  0  0  0  0  0  0  0
   57.1211   33.8877   43.6404 H   0  0  0  0  0  0  0  0  0  0  0  0
   59.0167   35.1844   44.6007 H   0  0  0  0  0  0  0  0  0  0  0  0
   60.3522   34.2473   46.4740 H   0  0  0  0  0  0  0  0  0  0  0  0
   60.8676   31.2468   47.3409 H   0  0  0  0  0  0  0  0  0  0  0  0
   60.5277   32.7759   48.2375 H   0  0  0  0  0  0  0  0  0  0  0  0
   60.7459   29.2084   45.4531 H   0  0  0  0  0  0  0  0  0  0  0  0
   59.7358   28.0838   43.4720 H   0  0  0  0  0  0  0  0  0  0  0  0
   57.8432   26.4841   43.7680 H   0  0  0  0  0  0  0  0  0  0  0  0
   55.1490   27.3680   46.0060 H   0  0  0  0  0  0  0  0  0  0  0  0
   57.9878   27.1083   48.0502 H   0  0  0  0  0  0  0  0  0  0  0  0
   58.1980   29.9220   47.2920 H   0  0  0  0  0  0  0  0  0  0  0  0
  1  2  1  0
  2  3  1  0
  3  4  2  0
  4  5  1  0
  5  6  2  0
  6  7  1  0
  7  8  1  0
  8  9  1  0
  9 10  1  0
 10 11  2  0
 10 12  1  0
 12 13  1  0
 13 14  2  0
 14 15  1  0
 15 16  2  0
 16 17  1  0
 17 18  1  0
 18 19  1  0
 18 20  2  0
 18 21  2  0
 17 22  2  0
  7 23  2  0
 23 24  1  0
 23  3  1  0
 22 13  1  0
  1 25  1  0
  1 26  1  0
  1 27  1  0
  4 28  1  0
  5 29  1  0
  6 30  1  0
  8 31  1  0
  8 32  1  0
 14 33  1  0
 15 34  1  0
 16 35  1  0
 19 36  1  0
 22 37  1  0
 24 38  1  0
M  CHG  3   9  -1  12  -1  19  -1
M  END
>  <UniqueID>  (62) 
55

>  <SMILES>  (62) 
COc1cccc(C[N-]C(=O)[N-]c2cccc(S([NH-])(=O)=O)c2)c1O

>  <Energy>  (62) 
41.28766594338534

>  <Genealogy>  (62) 
COc1cccc(C[N-]C(=O)[N-]c2cccc(S([NH-])(=O)=O)c2)c1O (protonated)
COc1cccc(C[N-]C(=O)[N-]c2cccc(S([NH-])(=O)=O)c2)c1O (3D coordinates assigned)
COc1cccc(C[N-]C(=O)[N-]c2cccc(S([NH-])(=O)=O)c2)c1O (optimized conformer: 41.28766594338534 kcal/mol)

>  <smiles>  (62) 
COc1cccc(CNC(=O)Nc2cccc(S(N)(=O)=O)c2)c1O

>  <score_type>  (62) 
oracle

>  <origin>  (62) 
adg

>  <m_score__min__energy>  (62) 
-12.300000000000001

>  <m_primary>  (62) 
energy

$$$$
62:0
     RDKit          3D

 29 30  0  0  0  0  0  0  0  0999 V2000
   54.9994   31.1782   43.9043 H   0  0  0  0  0  0  0  0  0  0  0  0
   55.7800   30.4570   44.1880 C   0  0  0  0  0  0  0  0  0  0  0  0
   55.5110   29.3110   44.8680 N   0  0  0  0  0  0  0  0  0  0  0  0
   56.6360   28.5940   45.0950 C   0  0  0  0  0  0  0  0  0  0  0  0
   56.6660   27.4570   45.7260 N   0  0  0  0  0  0  0  0  0  0  0  0
   57.6830   27.0210   46.6390 C   0  0  0  0  0  0  0  0  0  0  0  0
   57.8090   25.8010   46.9360 O   0  0  0  0  0  0  0  0  0  0  0  0
   58.5630   27.9920   47.2150 N   0  0  0  0  0  0  0  0  0  0  0  0
   58.4460   28.9980   46.9580 H   0  0  0  0  0  0  0  0  0  0  0  0
   59.6180   27.6180   48.1500 C   0  0  0  0  0  0  0  0  0  0  0  0
   59.2566   27.7461   49.1810 H   0  0  0  0  0  0  0  0  0  0  0  0
   59.8965   26.5664   47.9871 H   0  0  0  0  0  0  0  0  0  0  0  0
   60.4967   28.2594   47.9871 H   0  0  0  0  0  0  0  0  0  0  0  0
   58.0070   29.3400   44.4710 S   0  0  0  0  0  0  0  0  0  0  0  0
   57.1220   30.6420   43.8810 C   0  0  0  0  0  0  0  0  0  0  0  0
   57.8100   32.0420   43.0080 S   0  0  0  0  0  0  0  0  0  0  0  0
   58.3120   32.8520   44.5250 C   0  0  0  0  0  0  0  0  0  0  0  0
   58.7760   34.1710   44.4940 C   0  0  0  0  0  0  0  0  0  0  0  0
   58.8369   34.7100   43.5370 H   0  0  0  0  0  0  0  0  0  0  0  0
   59.1620   34.8040   45.6770 C   0  0  0  0  0  0  0  0  0  0  0  0
   59.5269   35.8414   45.6501 H   0  0  0  0  0  0  0  0  0  0  0  0
   59.0860   34.1230   46.8960 C   0  0  0  0  0  0  0  0  0  0  0  0
   59.3893   34.6288   47.8246 H   0  0  0  0  0  0  0  0  0  0  0  0
   58.6240   32.7950   46.9420 C   0  0  0  0  0  0  0  0  0  0  0  0
   58.5460   32.0950   48.1980 N   0  0  0  0  0  0  0  0  0  0  0  0
   58.4580   32.7250   49.2730 O   0  0  0  0  0  0  0  0  0  0  0  0
   58.5690   30.7200   48.2350 O   0  0  0  0  0  0  0  0  0  0  0  0
   58.2390   32.1650   45.7440 C   0  0  0  0  0  0  0  0  0  0  0  0
   57.8783   31.1260   45.7647 H   0  0  0  0  0  0  0  0  0  0  0  0
  1  2  1  0
  2  3  1  0
  3  4  1  0
  4  5  2  0
  5  6  1  0
  6  7  2  0
  6  8  1  0
  8  9  1  0
  8 10  1  0
 10 11  1  0
 10 12  1  0
 10 13  1  0
  4 14  1  0
 14 15  1  0
 15 16  1  0
 16 17  1  0
 17 18  2  0
 18 19  1  0
 18 20  1  0
 20 21  1  0
 20 22  2  0
 22 23  1  0
 22 24  1  0
 24 25  1  0
 25 26  2  0
 25 27  1  0
 24 28  2  0
 28 29  1  0
 15  2  2  0
 28 17  1  0
M  CHG  3   3  -1  25   1  27  -1
M  END
>  <UniqueID>  (63) 
56

>  <SMILES>  (63) 
CNC(=O)/N=c1\[n-]cc(Sc2cccc([N+](=O)[O-])c2)s1

>  <Energy>  (63) 
55.13833114392541

>  <Genealogy>  (63) 
CNC(=O)N=c1[n-]cc(Sc2cccc([N+](=O)[O-])c2)s1 (protonated)
CNC(=O)/N=c1\[n-]cc(Sc2cccc([N+](=O)[O-])c2)s1 (cis-trans isomerization)
CNC(=O)/N=c1\[n-]cc(Sc2cccc([N+](=O)[O-])c2)s1 (3D coordinates assigned)
CNC(=O)/N=c1\[n-]cc(Sc2cccc([N+](=O)[O-])c2)s1 (optimized conformer: 55.13833114392541 kcal/mol)

>  <smiles>  (63) 
CNC(=O)N=c1[nH]cc(Sc2cccc([N+](=O)[O-])c2)s1

>  <score_type>  (63) 
oracle

>  <origin>  (63) 
adg

>  <m_score__min__energy>  (63) 
-9.0500000000000007

>  <m_primary>  (63) 
energy

$$$$
63:0
     RDKit          3D

 62 65  0  0  0  0  0  0  0  0999 V2000
   60.4530   21.0910   44.8180 H   0  0  0  0  0  0  0  0  0  0  0  0
   60.1470   21.8430   45.4250 O   0  0  0  0  0  0  0  0  0  0  0  0
   58.9680   22.5430   45.1770 C   0  0  0  0  0  0  0  0  0  0  0  0
   58.1260   22.1700   44.1190 C   0  0  0  0  0  0  0  0  0  0  0  0
   58.3853   21.3074   43.4876 H   0  0  0  0  0  0  0  0  0  0  0  0
   56.9580   22.8940   43.8670 C   0  0  0  0  0  0  0  0  0  0  0  0
   56.3055   22.6087   43.0286 H   0  0  0  0  0  0  0  0  0  0  0  0
   56.6170   23.9800   44.6780 C   0  0  0  0  0  0  0  0  0  0  0  0
   55.7030   24.5544   44.4665 H   0  0  0  0  0  0  0  0  0  0  0  0
   57.4330   24.3420   45.7600 C   0  0  0  0  0  0  0  0  0  0  0  0
   57.0480   25.4680   46.5630 N   0  0  0  0  0  0  0  0  0  0  0  0
   56.4040   26.6660   46.1070 C   0  0  0  0  0  0  0  0  0  0  0  0
   55.1500   26.7000   45.9790 O   0  0  0  0  0  0  0  0  0  0  0  0
   57.2090   27.8500   45.7280 C   0  0  0  0  0  0  0  0  0  0  0  0
   56.5240   28.9840   45.1430 C   0  0  0  0  0  0  0  0  0  0  0  0
   55.9770   29.8900   44.6750 N   0  0  0  0  0  0  0  0  0  0  0  0
   58.5340   27.8910   45.9660 C   0  0  0  0  0  0  0  0  0  0  0  0
   59.1970   27.3280   45.2926 H   0  0  0  0  0  0  0  0  0  0  0  0
   59.1530   28.6470   47.0780 C   0  0  0  0  0  0  0  0  0  0  0  0
   59.4670   27.9640   48.2600 C   0  0  0  0  0  0  0  0  0  0  0  0
   59.2492   26.8888   48.3412 H   0  0  0  0  0  0  0  0  0  0  0  0
   60.0570   28.6370   49.3430 C   0  0  0  0  0  0  0  0  0  0  0  0
   60.3700   27.9860   50.5480 O   0  0  0  0  0  0  0  0  0  0  0  0
   61.6490   28.0100   51.1720 C   0  0  0  0  0  0  0  0  0  0  0  0
   61.5239   28.0077   52.2649 H   0  0  0  0  0  0  0  0  0  0  0  0
   62.2226   27.1225   50.8667 H   0  0  0  0  0  0  0  0  0  0  0  0
   62.1889   28.9184   50.8667 H   0  0  0  0  0  0  0  0  0  0  0  0
   60.3510   30.0010   49.2330 C   0  0  0  0  0  0  0  0  0  0  0  0
   60.9410   30.6380   50.3340 O   0  0  0  0  0  0  0  0  0  0  0  0
   60.2520   31.4640   51.2680 C   0  0  0  0  0  0  0  0  0  0  0  0
   59.7566   30.8336   52.0210 H   0  0  0  0  0  0  0  0  0  0  0  0
   60.9680   32.1329   51.7679 H   0  0  0  0  0  0  0  0  0  0  0  0
   59.2230   32.2800   50.5410 C   0  0  0  0  0  0  0  0  0  0  0  0
   58.0570   31.8220   50.4050 O   0  0  0  0  0  0  0  0  0  0  0  0
   59.5220   33.5860   50.0260 N   0  0  0  0  0  0  0  0  0  0  0  0
   59.8730   33.8670   48.6620 C   0  0  0  0  0  0  0  0  0  0  0  0
   58.9020   34.3550   47.7740 C   0  0  0  0  0  0  0  0  0  0  0  0
   57.8776   34.5352   48.1321 H   0  0  0  0  0  0  0  0  0  0  0  0
   59.2240   34.6140   46.4400 C   0  0  0  0  0  0  0  0  0  0  0  0
   58.4508   34.9877   45.7525 H   0  0  0  0  0  0  0  0  0  0  0  0
   60.5210   34.4010   45.9760 C   0  0  0  0  0  0  0  0  0  0  0  0
   60.7658   34.5980   44.9218 H   0  0  0  0  0  0  0  0  0  0  0  0
   61.5150   33.9360   46.8500 C   0  0  0  0  0  0  0  0  0  0  0  0
   62.8230   33.7260   46.3850 C   0  0  0  0  0  0  0  0  0  0  0  0
   63.0704   33.9307   45.3329 H   0  0  0  0  0  0  0  0  0  0  0  0
   63.8110   33.2580   47.2540 C   0  0  0  0  0  0  0  0  0  0  0  0
   64.8348   33.0977   46.8850 H   0  0  0  0  0  0  0  0  0  0  0  0
   63.5030   32.9930   48.5900 C   0  0  0  0  0  0  0  0  0  0  0  0
   64.2853   32.6236   49.2694 H   0  0  0  0  0  0  0  0  0  0  0  0
   62.2050   33.1950   49.0680 C   0  0  0  0  0  0  0  0  0  0  0  0
   61.9699   32.9798   50.1208 H   0  0  0  0  0  0  0  0  0  0  0  0
   61.1960   33.6730   48.2080 C   0  0  0  0  0  0  0  0  0  0  0  0
   60.0630   30.6840   48.0380 C   0  0  0  0  0  0  0  0  0  0  0  0
   60.2959   31.7558   47.9542 H   0  0  0  0  0  0  0  0  0  0  0  0
   59.4800   30.0110   46.9480 C   0  0  0  0  0  0  0  0  0  0  0  0
   59.2330   30.6580   45.7270 O   0  0  0  0  0  0  0  0  0  0  0  0
   58.3090   31.7270   45.5470 C   0  0  0  0  0  0  0  0  0  0  0  0
   57.9854   32.1013   46.5294 H   0  0  0  0  0  0  0  0  0  0  0  0
   58.7935   32.5399   44.9863 H   0  0  0  0  0  0  0  0  0  0  0  0
   57.4345   31.3653   44.9863 H   0  0  0  0  0  0  0  0  0  0  0  0
   58.6260   23.6310   45.9880 C   0  0  0  0  0  0  0  0  0  0  0  0
   59.2937   23.9323   46.8086 H   0  0  0  0  0  0  0  0  0  0  0  0
  1  2  1  0
  2  3  1  0
  3  4  2  0
  4  5  1  0
  4  6  1  0
  6  7  1  0
  6  8  2  0
  8  9  1  0
  8 10  1  0
 10 11  1  0
 11 12  1  0
 12 13  2  0
 12 14  1  0
 14 15  1  0
 15 16  3  0
 14 17  2  0
 17 18  1  0
 17 19  1  0
 19 20  2  0
 20 21  1  0
 20 22  1  0
 22 23  1  0
 23 24  1  0
 24 25  1  0
 24 26  1  0
 24 27  1  0
 22 28  2  0
 28 29  1  0
 29 30  1  0
 30 31  1  0
 30 32  1  0
 30 33  1  0
 33 34  2  0
 33 35  1  0
 35 36  1  0
 36 37  2  0
 37 38  1  0
 37 39  1  0
 39 40  1  0
 39 41  2  0
 41 42  1  0
 41 43  1  0
 43 44  2  0
 44 45  1  0
 44 46  1  0
 46 47  1  0
 46 48  2  0
 48 49  1  0
 48 50  1  0
 50 51  1  0
 50 52  2  0
 28 53  1  0
 53 54  1  0
 53 55  2  0
 55 56  1  0
 56 57  1  0
 57 58  1  0
 57 59  1  0
 57 60  1  0
 10 61  2  0
 61 62  1  0
 61  3  1  0
 55 19  1  0
 52 36  1  0
 52 43  1  0
M  CHG  2  11  -1  35  -1
M  END
>  <UniqueID>  (64) 
57

>  <SMILES>  (64) 
COc1cc(OCC(=O)[N-]c2cccc3ccccc23)c(OC)cc1/C=C(\C#N)C(=O)[N-]c1cccc(O)c1

>  <Energy>  (64) 
80.50123218127749

>  <Genealogy>  (64) 
COc1cc(OCC(=O)[N-]c2cccc3ccccc23)c(OC)cc1C=C(C#N)C(=O)[N-]c1cccc(O)c1 (protonated)
COc1cc(OCC(=O)[N-]c2cccc3ccccc23)c(OC)cc1/C=C(\C#N)C(=O)[N-]c1cccc(O)c1 (cis-trans isomerization)
COc1cc(OCC(=O)[N-]c2cccc3ccccc23)c(OC)cc1/C=C(\C#N)C(=O)[N-]c1cccc(O)c1 (3D coordinates assigned)
COc1cc(OCC(=O)[N-]c2cccc3ccccc23)c(OC)cc1/C=C(\C#N)C(=O)[N-]c1cccc(O)c1 (optimized conformer: 80.50123218127749 kcal/mol)

>  <smiles>  (64) 
COc1cc(OCC(=O)Nc2cccc3ccccc23)c(OC)cc1C=C(C#N)C(=O)Nc1cccc(O)c1

>  <score_type>  (64) 
oracle

>  <origin>  (64) 
adg

>  <m_score__min__energy>  (64) 
-12.91

>  <m_primary>  (64) 
energy

$$$$
64:0
     RDKit          3D

 57 59  0  0  0  0  0  0  0  0999 V2000
   63.2060   31.8440   47.2530 C   0  0  0  0  0  0  0  0  0  0  0  0
   63.7100   33.2000   46.7870 C   0  0  0  0  0  0  0  0  0  0  0  0
   63.2470   34.2090   47.6790 O   0  0  0  0  0  0  0  0  0  0  0  0
   62.6040   33.9590   48.9020 C   0  0  0  0  0  0  0  0  0  0  0  0
   63.3170   33.5700   50.0530 C   0  0  0  0  0  0  0  0  0  0  0  0
   62.6440   33.3170   51.2510 C   0  0  0  0  0  0  0  0  0  0  0  0
   61.2580   33.4480   51.3150 C   0  0  0  0  0  0  0  0  0  0  0  0
   60.5370   33.8330   50.1830 C   0  0  0  0  0  0  0  0  0  0  0  0
   61.2010   34.0960   48.9720 C   0  0  0  0  0  0  0  0  0  0  0  0
   60.4090   34.5110   47.7550 C   0  0  0  0  0  0  0  0  0  0  0  0
   59.8580   33.3340   47.0490 N   0  0  0  0  0  0  0  0  0  0  0  0
   60.0420   33.4480   45.5800 C   0  0  0  0  0  0  0  0  0  0  0  0
   58.7670   33.9330   44.8680 C   0  0  0  0  0  0  0  0  0  0  0  0
   57.6140   33.0250   45.0960 N   0  0  0  0  0  0  0  0  0  0  0  0
   57.4090   32.1170   43.9470 C   0  0  0  0  0  0  0  0  0  0  0  0
   57.3550   30.6860   44.3960 C   0  0  0  0  0  0  0  0  0  0  0  0
   56.2790   30.2290   44.8710 O   0  0  0  0  0  0  0  0  0  0  0  0
   58.5080   29.8410   44.2580 N   0  0  0  0  0  0  0  0  0  0  0  0
   58.6650   28.5850   44.9390 C   0  0  0  0  0  0  0  0  0  0  0  0
   59.9170   28.1750   45.4330 C   0  0  0  0  0  0  0  0  0  0  0  0
   60.0530   26.9310   46.0560 C   0  0  0  0  0  0  0  0  0  0  0  0
   58.9480   26.0860   46.1870 C   0  0  0  0  0  0  0  0  0  0  0  0
   57.6970   26.4790   45.6930 C   0  0  0  0  0  0  0  0  0  0  0  0
   56.3060   25.4100   45.8380 S   0  0  0  0  0  0  0  0  0  0  0  0
   54.8660   26.3530   45.9790 N   0  0  0  0  0  0  0  0  0  0  0  0
   56.4610   24.5410   47.0540 O   0  0  0  0  0  0  0  0  0  0  0  0
   56.2090   24.5280   44.6260 O   0  0  0  0  0  0  0  0  0  0  0  0
   57.5640   27.7220   45.0570 C   0  0  0  0  0  0  0  0  0  0  0  0
   57.7070   32.2720   46.3720 C   0  0  0  0  0  0  0  0  0  0  0  0
   58.4510   33.0770   47.4440 C   0  0  0  0  0  0  0  0  0  0  0  0
   63.1952   31.8149   48.3526 H   0  0  0  0  0  0  0  0  0  0  0  0
   62.1871   31.6807   46.8719 H   0  0  0  0  0  0  0  0  0  0  0  0
   63.8709   31.0549   46.8719 H   0  0  0  0  0  0  0  0  0  0  0  0
   64.8099   33.1981   46.7742 H   0  0  0  0  0  0  0  0  0  0  0  0
   63.3327   33.4039   45.7741 H   0  0  0  0  0  0  0  0  0  0  0  0
   64.4110   33.4647   50.0083 H   0  0  0  0  0  0  0  0  0  0  0  0
   63.2089   33.0140   52.1449 H   0  0  0  0  0  0  0  0  0  0  0  0
   60.7309   33.2476   52.2595 H   0  0  0  0  0  0  0  0  0  0  0  0
   59.4428   33.9311   50.2390 H   0  0  0  0  0  0  0  0  0  0  0  0
   59.5795   35.1607   48.0710 H   0  0  0  0  0  0  0  0  0  0  0  0
   61.0808   35.0465   47.0680 H   0  0  0  0  0  0  0  0  0  0  0  0
   60.8531   34.1635   45.3795 H   0  0  0  0  0  0  0  0  0  0  0  0
   60.2842   32.4474   45.1924 H   0  0  0  0  0  0  0  0  0  0  0  0
   58.5096   34.9334   45.2460 H   0  0  0  0  0  0  0  0  0  0  0  0
   58.9716   33.9522   43.7874 H   0  0  0  0  0  0  0  0  0  0  0  0
   56.4621   32.3741   43.4497 H   0  0  0  0  0  0  0  0  0  0  0  0
   58.2534   32.2348   43.2519 H   0  0  0  0  0  0  0  0  0  0  0  0
   59.2460   30.1250   43.5750 H   0  0  0  0  0  0  0  0  0  0  0  0
   60.7909   28.8349   45.3287 H   0  0  0  0  0  0  0  0  0  0  0  0
   61.0329   26.6164   46.4443 H   0  0  0  0  0  0  0  0  0  0  0  0
   59.0605   25.1089   46.6796 H   0  0  0  0  0  0  0  0  0  0  0  0
   55.1630   27.3520   46.0450 H   0  0  0  0  0  0  0  0  0  0  0  0
   56.5887   28.0232   44.6472 H   0  0  0  0  0  0  0  0  0  0  0  0
   56.6913   32.0504   46.7316 H   0  0  0  0  0  0  0  0  0  0  0  0
   58.2666   31.3435   46.1859 H   0  0  0  0  0  0  0  0  0  0  0  0
   57.9384   34.0395   47.5888 H   0  0  0  0  0  0  0  0  0  0  0  0
   58.4543   32.4924   48.3758 H   0  0  0  0  0  0  0  0  0  0  0  0
  1  2  1  0
  2  3  1  0
  3  4  1  0
  4  5  2  0
  5  6  1  0
  6  7  2  0
  7  8  1  0
  8  9  2  0
  9 10  1  0
 10 11  1  0
 11 12  1  0
 12 13  1  0
 13 14  1  0
 14 15  1  0
 15 16  1  0
 16 17  2  0
 16 18  1  0
 18 19  1  0
 19 20  2  0
 20 21  1  0
 21 22  2  0
 22 23  1  0
 23 24  1  0
 24 25  1  0
 24 26  2  0
 24 27  2  0
 23 28  2  0
 14 29  1  0
 29 30  1  0
  9  4  1  0
 30 11  1  0
 28 19  1  0
  1 31  1  0
  1 32  1  0
  1 33  1  0
  2 34  1  0
  2 35  1  0
  5 36  1  0
  6 37  1  0
  7 38  1  0
  8 39  1  0
 10 40  1  0
 10 41  1  0
 12 42  1  0
 12 43  1  0
 13 44  1  0
 13 45  1  0
 15 46  1  0
 15 47  1  0
 18 48  1  0
 20 49  1  0
 21 50  1  0
 22 51  1  0
 25 52  1  0
 28 53  1  0
 29 54  1  0
 29 55  1  0
 30 56  1  0
 30 57  1  0
M  CHG  1  25  -1
M  END
>  <UniqueID>  (65) 
58

>  <SMILES>  (65) 
CCOc1ccccc1CN1CCN(CC(=O)Nc2cccc(S([NH-])(=O)=O)c2)CC1

>  <Energy>  (65) 
69.94987306886719

>  <Genealogy>  (65) 
CCOc1ccccc1CN1CCN(CC(=O)Nc2cccc(S([NH-])(=O)=O)c2)CC1 (protonated)
CCOc1ccccc1CN1CCN(CC(=O)Nc2cccc(S([NH-])(=O)=O)c2)CC1 (3D coordinates assigned)
CCOc1ccccc1CN1CCN(CC(=O)Nc2cccc(S([NH-])(=O)=O)c2)CC1 (nonaromatic ring conformer: 69.94987306886719 kcal/mol)

>  <smiles>  (65) 
CCOc1ccccc1CN1CCN(CC(=O)Nc2cccc(S(N)(=O)=O)c2)CC1

>  <score_type>  (65) 
oracle

>  <origin>  (65) 
adg

>  <m_score__min__energy>  (65) 
-13.140000000000001

>  <m_primary>  (65) 
energy

$$$$
65:0
     RDKit          3D

 30 32  0  0  0  0  0  0  0  0999 V2000
   55.5290   30.4950   44.5410 O   0  0  0  0  0  0  0  0  0  0  0  0
   56.7930   30.4000   43.7040 S   0  0  0  0  0  0  0  0  0  0  0  0
   56.3330   29.8840   42.3670 O   0  0  0  0  0  0  0  0  0  0  0  0
   57.3970   31.9950   43.5920 N   0  0  0  0  0  0  0  0  0  0  0  0
   57.9800   32.7540   44.6120 C   0  0  0  0  0  0  0  0  0  0  0  0
   58.5590   33.9880   44.4940 C   0  0  0  0  0  0  0  0  0  0  0  0
   59.1040   34.6800   45.5620 C   0  0  0  0  0  0  0  0  0  0  0  0
   59.0770   34.1240   46.8170 C   0  0  0  0  0  0  0  0  0  0  0  0
   59.5040   34.5180   48.0300 N   0  0  0  0  0  0  0  0  0  0  0  0
   59.2340   33.6020   48.9460 N   0  0  0  0  0  0  0  0  0  0  0  0
   58.6130   32.5770   48.3250 C   0  0  0  0  0  0  0  0  0  0  0  0
   58.4980   32.8770   46.9820 C   0  0  0  0  0  0  0  0  0  0  0  0
   57.9610   32.2060   45.9010 C   0  0  0  0  0  0  0  0  0  0  0  0
   57.8930   29.3340   44.4880 C   0  0  0  0  0  0  0  0  0  0  0  0
   57.3820   28.2570   45.1930 C   0  0  0  0  0  0  0  0  0  0  0  0
   58.1690   27.3580   45.8690 C   0  0  0  0  0  0  0  0  0  0  0  0
   59.5510   27.5010   45.8680 C   0  0  0  0  0  0  0  0  0  0  0  0
   60.5460   26.3540   46.7280 Cl  0  0  0  0  0  0  0  0  0  0  0  0
   60.0560   28.5690   45.1690 C   0  0  0  0  0  0  0  0  0  0  0  0
   59.2670   29.4690   44.4920 C   0  0  0  0  0  0  0  0  0  0  0  0
   57.3190   32.4640   42.6380 H   0  0  0  0  0  0  0  0  0  0  0  0
   58.5933   34.4547   43.4985 H   0  0  0  0  0  0  0  0  0  0  0  0
   59.5564   35.6704   45.4059 H   0  0  0  0  0  0  0  0  0  0  0  0
   59.9870   35.4440   48.1870 H   0  0  0  0  0  0  0  0  0  0  0  0
   58.2574   31.6553   48.8087 H   0  0  0  0  0  0  0  0  0  0  0  0
   57.5069   31.2162   46.0561 H   0  0  0  0  0  0  0  0  0  0  0  0
   56.2914   28.1149   45.2122 H   0  0  0  0  0  0  0  0  0  0  0  0
   57.7043   26.5223   46.4128 H   0  0  0  0  0  0  0  0  0  0  0  0
   61.1465   28.7121   45.1494 H   0  0  0  0  0  0  0  0  0  0  0  0
   59.7345   30.3036   43.9490 H   0  0  0  0  0  0  0  0  0  0  0  0
  1  2  2  0
  2  3  2  0
  2  4  1  0
  4  5  1  0
  5  6  2  0
  6  7  1  0
  7  8  2  0
  8  9  1  0
  9 10  1  0
 10 11  2  0
 11 12  1  0
 12 13  2  0
  2 14  1  0
 14 15  2  0
 15 16  1  0
 16 17  2  0
 17 18  1  0
 17 19  1  0
 19 20  2  0
 13  5  1  0
 20 14  1  0
 12  8  1  0
  4 21  1  0
  6 22  1  0
  7 23  1  0
  9 24  1  0
 11 25  1  0
 13 26  1  0
 15 27  1  0
 16 28  1  0
 19 29  1  0
 20 30  1  0
M  END
>  <smiles>  (66) 
O=S(=O)(Nc1ccc2[nH]ncc2c1)c1ccc(Cl)cc1

>  <score_type>  (66) 
oracle

>  <origin>  (66) 
adg

>  <m_score__min__energy>  (66) 
-7.96

>  <m_primary>  (66) 
energy

$$$$
66:0
     RDKit          3D

 65 69  0  0  1  0  0  0  0  0999 V2000
   58.2070   24.5670   45.2560 C   0  0  0  0  0  0  0  0  0  0  0  0
   57.8750   25.9810   44.9730 C   0  0  0  0  0  0  0  0  0  0  0  0
   56.9600   26.5960   45.8030 C   0  0  0  0  0  0  0  0  0  0  0  0
   56.6290   27.9210   45.5650 C   0  0  0  0  0  0  0  0  0  0  0  0
   57.1960   28.6390   44.5110 C   0  0  0  0  0  0  0  0  0  0  0  0
   56.6940   30.2910   44.3250 S   0  0  0  0  0  0  0  0  0  0  0  0
   57.0360   30.7850   42.9500 O   0  0  0  0  0  0  0  0  0  0  0  0
   55.2010   30.3480   44.5170 O   0  0  0  0  0  0  0  0  0  0  0  0
   57.3930   31.3410   45.4990 N   0  0  0  0  0  0  0  0  0  0  0  0
   58.8370   31.3770   45.4000 C   0  0  0  0  0  0  0  0  0  0  0  0
   59.3560   30.5060   46.4850 C   0  0  0  0  0  0  0  0  0  0  0  0
   58.4340   29.7360   47.1630 C   0  0  0  0  0  0  0  0  0  0  0  0
   58.8460   28.9210   48.1630 C   0  0  0  0  0  0  0  0  0  0  0  0
   60.1810   28.8020   48.5690 C   0  0  0  0  0  0  0  0  0  0  0  0
   60.5800   27.8880   49.6780 C   0  0  0  0  0  0  0  0  0  0  0  0
   60.2070   28.5140   50.8910 N   0  0  0  0  0  0  0  0  0  0  0  0
   59.7090   29.6890   50.9150 C   0  0  0  0  0  0  0  0  0  0  0  0
   58.3450   29.8030   51.2090 C   0  0  0  0  0  0  0  0  0  0  0  0
   57.7240   31.0360   51.2600 C   0  0  0  0  0  0  0  0  0  0  0  0
   58.4990   32.1100   51.0140 N   0  0  0  0  0  0  0  0  0  0  0  0
   59.8100   32.0250   50.7290 C   0  0  0  0  0  0  0  0  0  0  0  0
   60.4340   33.1330   50.5160 N   0  0  0  0  0  0  0  0  0  0  0  0
   59.6690   34.2530   49.9950 C   0  0  0  0  0  0  0  0  0  0  0  0
   59.9420   34.2010   48.5090 C   0  0  0  0  0  0  0  0  0  0  0  0
   58.9420   34.4360   47.5870 C   0  0  0  0  0  0  0  0  0  0  0  0
   59.2810   34.3690   46.2310 C   0  0  0  0  0  0  0  0  0  0  0  0
   60.5810   34.0760   45.8420 C   0  0  0  0  0  0  0  0  0  0  0  0
   61.5760   33.8430   46.7600 C   0  0  0  0  0  0  0  0  0  0  0  0
   62.9260   33.5350   46.7130 C   0  0  0  0  0  0  0  0  0  0  0  0
   63.3950   33.4180   48.0090 C   0  0  0  0  0  0  0  0  0  0  0  0
   62.3590   33.6480   48.8480 N   0  0  0  0  0  0  0  0  0  0  0  0
   61.2490   33.9070   48.1020 C   0  0  0  0  0  0  0  0  0  0  0  0
   60.3920   30.8170   50.6840 N   0  0  0  0  0  0  0  0  0  0  0  0
   61.0810   29.5830   47.8760 C   0  0  0  0  0  0  0  0  0  0  0  0
   60.6820   30.4320   46.8400 C   0  0  0  0  0  0  0  0  0  0  0  0
   58.1080   28.0110   43.6910 C   0  0  0  0  0  0  0  0  0  0  0  0
   58.4520   26.6790   43.9180 C   0  0  0  0  0  0  0  0  0  0  0  0
   58.2439   24.4097   46.3441 H   0  0  0  0  0  0  0  0  0  0  0  0
   57.4376   23.9148   44.8172 H   0  0  0  0  0  0  0  0  0  0  0  0
   59.1863   24.3254   44.8172 H   0  0  0  0  0  0  0  0  0  0  0  0
   56.5019   26.0452   46.6377 H   0  0  0  0  0  0  0  0  0  0  0  0
   55.9015   28.4187   46.2231 H   0  0  0  0  0  0  0  0  0  0  0  0
   57.0460   32.3150   45.3560 H   0  0  0  0  0  0  0  0  0  0  0  0
   59.1603   30.9965   44.4198 H   0  0  0  0  0  0  0  0  0  0  0  0
   59.2169   32.4046   45.4988 H   0  0  0  0  0  0  0  0  0  0  0  0
   57.3688   29.7837   46.8926 H   0  0  0  0  0  0  0  0  0  0  0  0
   58.0890   28.3182   48.6861 H   0  0  0  0  0  0  0  0  0  0  0  0
   60.0610   26.9234   49.5766 H   0  0  0  0  0  0  0  0  0  0  0  0
   61.6628   27.6955   49.6548 H   0  0  0  0  0  0  0  0  0  0  0  0
   57.7568   28.8939   51.4030 H   0  0  0  0  0  0  0  0  0  0  0  0
   56.6528   31.1355   51.4895 H   0  0  0  0  0  0  0  0  0  0  0  0
   58.0170   33.0500   51.0540 H   0  0  0  0  0  0  0  0  0  0  0  0
   58.5961   34.1278   50.2029 H   0  0  0  0  0  0  0  0  0  0  0  0
   59.9496   35.2142   50.4503 H   0  0  0  0  0  0  0  0  0  0  0  0
   57.9153   34.6677   47.9068 H   0  0  0  0  0  0  0  0  0  0  0  0
   58.5108   34.5500   45.4668 H   0  0  0  0  0  0  0  0  0  0  0  0
   60.8209   34.0291   44.7695 H   0  0  0  0  0  0  0  0  0  0  0  0
   63.5241   33.4053   45.7990 H   0  0  0  0  0  0  0  0  0  0  0  0
   64.4274   33.1801   48.3050 H   0  0  0  0  0  0  0  0  0  0  0  0
   62.4280   33.6240   49.9030 H   0  0  0  0  0  0  0  0  0  0  0  0
   61.4030   30.7820   50.4600 H   0  0  0  0  0  0  0  0  0  0  0  0
   62.1461   29.5366   48.1468 H   0  0  0  0  0  0  0  0  0  0  0  0
   61.4286   31.0407   46.3089 H   0  0  0  0  0  0  0  0  0  0  0  0
   58.5655   28.5615   42.8558 H   0  0  0  0  0  0  0  0  0  0  0  0
   59.1804   26.1800   43.2619 H   0  0  0  0  0  0  0  0  0  0  0  0
  1  2  1  0
  2  3  2  0
  3  4  1  0
  4  5  2  0
  5  6  1  0
  6  7  2  0
  6  8  2  0
  6  9  1  0
  9 10  1  0
 10 11  1  0
 11 12  2  0
 12 13  1  0
 13 14  2  0
 14 15  1  0
 15 16  1  0
 16 17  2  0
 17 18  1  0
 18 19  2  0
 19 20  1  0
 20 21  1  0
 21 22  2  0
 22 23  1  0
 23 24  1  0
 24 25  2  0
 25 26  1  0
 26 27  2  0
 27 28  1  0
 28 29  1  0
 29 30  2  0
 30 31  1  0
 31 32  1  0
 21 33  1  0
 14 34  1  0
 34 35  2  0
  5 36  1  0
 36 37  2  0
 37  2  1  0
 35 11  1  0
 33 17  1  0
 32 24  1  0
 32 28  2  0
  1 38  1  0
  1 39  1  0
  1 40  1  0
  3 41  1  0
  4 42  1  0
  9 43  1  0
 10 44  1  0
 10 45  1  0
 12 46  1  0
 13 47  1  0
 15 48  1  0
 15 49  1  0
 18 50  1  0
 19 51  1  0
 20 52  1  0
 23 53  1  0
 23 54  1  0
 25 55  1  0
 26 56  1  0
 27 57  1  0
 29 58  1  0
 30 59  1  0
 31 60  1  0
 33 61  1  0
 34 62  1  0
 35 63  1  0
 36 64  1  0
 37 65  1  0
M  END
>  <smiles>  (67) 
Cc1ccc(S(=O)(=O)NCc2ccc(CN=c3cc[nH]c(=NCc4cccc5cc[nH]c45)[nH]3)cc2)cc1

>  <score_type>  (67) 
oracle

>  <origin>  (67) 
adg

>  <m_score__min__energy>  (67) 
-10.57

>  <m_primary>  (67) 
energy

$$$$
67:0
     RDKit          3D

 54 56  0  0  0  0  0  0  0  0999 V2000
   56.8640   28.7750   43.4090 O   0  0  0  0  0  0  0  0  0  0  0  0
   56.1670   29.7020   43.8930 C   0  0  0  0  0  0  0  0  0  0  0  0
   55.1500   29.4020   44.7880 O   0  0  0  0  0  0  0  0  0  0  0  0
   56.4780   31.1290   43.5590 C   0  0  0  0  0  0  0  0  0  0  0  0
   57.9710   31.4460   43.7650 C   0  0  0  0  0  0  0  0  0  0  0  0
   58.4520   31.0030   45.1340 C   0  0  0  0  0  0  0  0  0  0  0  0
   58.3120   31.8540   46.2480 C   0  0  0  0  0  0  0  0  0  0  0  0
   57.6710   33.0840   46.1180 O   0  0  0  0  0  0  0  0  0  0  0  0
   58.8310   31.4800   47.4930 C   0  0  0  0  0  0  0  0  0  0  0  0
   58.6730   32.3500   48.6150 N   0  0  0  0  0  0  0  0  0  0  0  0
   59.6400   33.7730   48.8080 S   0  0  0  0  0  0  0  0  0  0  0  0
   59.7230   34.1370   50.2620 O   0  0  0  0  0  0  0  0  0  0  0  0
   59.0060   34.9090   48.0560 O   0  0  0  0  0  0  0  0  0  0  0  0
   61.2390   33.4670   48.1420 C   0  0  0  0  0  0  0  0  0  0  0  0
   62.1770   32.7020   48.8550 C   0  0  0  0  0  0  0  0  0  0  0  0
   63.4380   32.4460   48.3040 C   0  0  0  0  0  0  0  0  0  0  0  0
   63.7740   32.9660   47.0490 C   0  0  0  0  0  0  0  0  0  0  0  0
   62.8480   33.7440   46.3440 C   0  0  0  0  0  0  0  0  0  0  0  0
   61.5840   33.9930   46.8890 C   0  0  0  0  0  0  0  0  0  0  0  0
   59.4720   30.2460   47.6410 C   0  0  0  0  0  0  0  0  0  0  0  0
   59.6180   29.3790   46.5460 C   0  0  0  0  0  0  0  0  0  0  0  0
   60.2250   28.0420   46.7460 C   0  0  0  0  0  0  0  0  0  0  0  0
   59.6260   27.0160   47.3670 C   0  0  0  0  0  0  0  0  0  0  0  0
   58.5100   26.2230   46.8070 C   0  0  0  0  0  0  0  0  0  0  0  0
   58.7200   24.9480   46.2560 C   0  0  0  0  0  0  0  0  0  0  0  0
   57.6560   24.2430   45.6860 C   0  0  0  0  0  0  0  0  0  0  0  0
   56.3680   24.7910   45.6700 C   0  0  0  0  0  0  0  0  0  0  0  0
   55.3080   24.0390   45.0650 N   0  0  0  0  0  0  0  0  0  0  0  0
   55.4460   22.7270   44.5090 C   0  0  0  0  0  0  0  0  0  0  0  0
   55.0580   21.7150   45.1530 O   0  0  0  0  0  0  0  0  0  0  0  0
   56.0890   22.5490   43.2030 C   0  0  0  0  0  0  0  0  0  0  0  0
   56.6170   23.5310   42.6190 O   0  0  0  0  0  0  0  0  0  0  0  0
   56.1090   21.2970   42.5980 O   0  0  0  0  0  0  0  0  0  0  0  0
   56.1630   26.0890   46.1800 C   0  0  0  0  0  0  0  0  0  0  0  0
   54.9150   26.6990   46.1010 O   0  0  0  0  0  0  0  0  0  0  0  0
   57.2310   26.7950   46.7440 C   0  0  0  0  0  0  0  0  0  0  0  0
   59.1050   29.7580   45.2850 C   0  0  0  0  0  0  0  0  0  0  0  0
   59.2430   28.9280   44.1680 O   0  0  0  0  0  0  0  0  0  0  0  0
   56.2152   31.3151   42.5072 H   0  0  0  0  0  0  0  0  0  0  0  0
   55.8929   31.7752   44.2298 H   0  0  0  0  0  0  0  0  0  0  0  0
   58.5566   30.9232   42.9944 H   0  0  0  0  0  0  0  0  0  0  0  0
   58.1053   32.5351   43.6888 H   0  0  0  0  0  0  0  0  0  0  0  0
   61.9202   32.3036   49.8476 H   0  0  0  0  0  0  0  0  0  0  0  0
   64.1659   31.8352   48.8582 H   0  0  0  0  0  0  0  0  0  0  0  0
   64.7651   32.7636   46.6168 H   0  0  0  0  0  0  0  0  0  0  0  0
   63.1145   34.1597   45.3611 H   0  0  0  0  0  0  0  0  0  0  0  0
   60.8580   34.6038   46.3324 H   0  0  0  0  0  0  0  0  0  0  0  0
   59.8658   29.9515   48.6250 H   0  0  0  0  0  0  0  0  0  0  0  0
   61.2409   27.8796   46.3566 H   0  0  0  0  0  0  0  0  0  0  0  0
   59.9918   26.7434   48.3679 H   0  0  0  0  0  0  0  0  0  0  0  0
   59.7257   24.5026   46.2731 H   0  0  0  0  0  0  0  0  0  0  0  0
   57.8322   23.2500   45.2467 H   0  0  0  0  0  0  0  0  0  0  0  0
   57.0662   27.8074   47.1414 H   0  0  0  0  0  0  0  0  0  0  0  0
   58.6040   28.9470   43.3820 H   0  0  0  0  0  0  0  0  0  0  0  0
  1  2  2  0
  2  3  1  0
  2  4  1  0
  4  5  1  0
  5  6  1  0
  6  7  2  0
  7  8  1  0
  7  9  1  0
  9 10  1  0
 10 11  1  0
 11 12  2  0
 11 13  2  0
 11 14  1  0
 14 15  2  0
 15 16  1  0
 16 17  2  0
 17 18  1  0
 18 19  2  0
  9 20  2  0
 20 21  1  0
 21 22  1  0
 22 23  2  3
 23 24  1  0
 24 25  2  0
 25 26  1  0
 26 27  2  0
 27 28  1  0
 28 29  1  0
 29 30  2  0
 29 31  1  0
 31 32  2  0
 31 33  1  0
 27 34  1  0
 34 35  1  0
 34 36  2  0
 21 37  2  0
 37 38  1  0
 37  6  1  0
 19 14  1  0
 36 24  1  0
  4 39  1  0
  4 40  1  0
  5 41  1  0
  5 42  1  0
 15 43  1  0
 16 44  1  0
 17 45  1  0
 18 46  1  0
 19 47  1  0
 20 48  1  0
 22 49  1  0
 23 50  1  0
 25 51  1  0
 26 52  1  0
 36 53  1  0
 38 54  1  0
M  CHG  6   3  -1   8  -1  10  -1  28  -1  33  -1  35  -1
M  END
>  <UniqueID>  (68) 
59

>  <SMILES>  (68) 
O=C([O-])CCc1c([O-])c([N-]S(=O)(=O)c2ccccc2)cc(C=Cc2ccc([N-]C(=O)C(=O)[O-])c([O-])c2)c1O

>  <Energy>  (68) 
73.14576707809177

>  <Genealogy>  (68) 
O=C([O-])CCc1c([O-])c([N-]S(=O)(=O)c2ccccc2)cc(C=Cc2ccc([N-]C(=O)C(=O)[O-])c([O-])c2)c1O (protonated)
O=C([O-])CCc1c([O-])c([N-]S(=O)(=O)c2ccccc2)cc(C=Cc2ccc([N-]C(=O)C(=O)[O-])c([O-])c2)c1O (3D coordinates assigned)
O=C([O-])CCc1c([O-])c([N-]S(=O)(=O)c2ccccc2)cc(C=Cc2ccc([N-]C(=O)C(=O)[O-])c([O-])c2)c1O (optimized conformer: 73.14576707809177 kcal/mol)

>  <smiles>  (68) 
O=C(O)CCc1c(O)c(C=Cc2ccc(NC(=O)C(=O)O)c(O)c2)cc(NS(=O)(=O)c2ccccc2)c1O

>  <score_type>  (68) 
oracle

>  <origin>  (68) 
adg

>  <m_score__min__energy>  (68) 
-20.52

>  <m_primary>  (68) 
energy

$$$$
68:0
     RDKit          3D

 59 63  0  0  1  0  0  0  0  0999 V2000
   64.9820   34.9590   52.0110 C   0  0  0  0  0  0  0  0  0  0  0  0
   65.8710   33.8110   51.7210 C   0  0  0  0  0  0  0  0  0  0  0  0
   67.0420   33.6690   52.4730 C   0  0  0  0  0  0  0  0  0  0  0  0
   67.8500   32.5710   52.1640 C   0  0  0  0  0  0  0  0  0  0  0  0
   67.5160   31.6700   51.1750 C   0  0  0  0  0  0  0  0  0  0  0  0
   66.3610   31.8350   50.4550 C   0  0  0  0  0  0  0  0  0  0  0  0
   65.5330   32.9140   50.7320 C   0  0  0  0  0  0  0  0  0  0  0  0
   64.3250   33.0230   49.9230 C   0  0  0  0  0  0  0  0  0  0  0  0
   64.3050   33.3380   48.5970 C   0  0  0  0  0  0  0  0  0  0  0  0
   63.0860   33.4170   47.9150 C   0  0  0  0  0  0  0  0  0  0  0  0
   63.0910   33.7630   46.4670 C   0  0  0  0  0  0  0  0  0  0  0  0
   61.8830   33.1840   48.5530 C   0  0  0  0  0  0  0  0  0  0  0  0
   60.6910   33.2510   47.9280 N   0  0  0  0  0  0  0  0  0  0  0  0
   59.5970   33.0030   48.6560 C   0  0  0  0  0  0  0  0  0  0  0  0
   58.4490   33.0630   48.0720 N   0  0  0  0  0  0  0  0  0  0  0  0
   58.3050   33.1100   46.6470 C   0  0  0  0  0  0  0  0  0  0  0  0
   58.6930   34.2260   45.9130 C   0  0  0  0  0  0  0  0  0  0  0  0
   58.5400   34.2380   44.5200 C   0  0  0  0  0  0  0  0  0  0  0  0
   57.9930   33.1130   43.8950 C   0  0  0  0  0  0  0  0  0  0  0  0
   57.6020   31.9980   44.6040 C   0  0  0  0  0  0  0  0  0  0  0  0
   56.9160   30.5750   43.8630 S   0  0  0  0  0  0  0  0  0  0  0  0
   56.6520   30.9630   42.4110 O   0  0  0  0  0  0  0  0  0  0  0  0
   55.6110   30.1960   44.5170 O   0  0  0  0  0  0  0  0  0  0  0  0
   57.9660   29.2270   43.8610 N   0  0  0  0  0  0  0  0  0  0  0  0
   58.6140   28.6780   44.9910 C   0  0  0  0  0  0  0  0  0  0  0  0
   58.3060   27.5190   45.6210 C   0  0  0  0  0  0  0  0  0  0  0  0
   58.9910   27.0580   46.7370 C   0  0  0  0  0  0  0  0  0  0  0  0
   60.0520   27.7990   47.2590 C   0  0  0  0  0  0  0  0  0  0  0  0
   60.3600   28.9710   46.6180 C   0  0  0  0  0  0  0  0  0  0  0  0
   59.6760   29.4230   45.5110 C   0  0  0  0  0  0  0  0  0  0  0  0
   57.7720   32.0330   45.9720 C   0  0  0  0  0  0  0  0  0  0  0  0
   59.6040   32.6930   49.9580 N   0  0  0  0  0  0  0  0  0  0  0  0
   60.7680   32.6130   50.6300 C   0  0  0  0  0  0  0  0  0  0  0  0
   61.9190   32.8620   49.9140 C   0  0  0  0  0  0  0  0  0  0  0  0
   63.1200   32.7820   50.5920 C   0  0  0  0  0  0  0  0  0  0  0  0
   64.8862   35.0827   53.0998 H   0  0  0  0  0  0  0  0  0  0  0  0
   65.4098   35.8735   51.5743 H   0  0  0  0  0  0  0  0  0  0  0  0
   63.9895   34.7737   51.5743 H   0  0  0  0  0  0  0  0  0  0  0  0
   67.3124   34.3830   53.2649 H   0  0  0  0  0  0  0  0  0  0  0  0
   68.7824   32.4208   52.7280 H   0  0  0  0  0  0  0  0  0  0  0  0
   68.1776   30.8171   50.9633 H   0  0  0  0  0  0  0  0  0  0  0  0
   66.0928   31.1185   49.6646 H   0  0  0  0  0  0  0  0  0  0  0  0
   65.2474   33.5301   48.0631 H   0  0  0  0  0  0  0  0  0  0  0  0
   63.1068   34.8568   46.3514 H   0  0  0  0  0  0  0  0  0  0  0  0
   63.9830   33.3309   45.9898 H   0  0  0  0  0  0  0  0  0  0  0  0
   62.1869   33.3569   45.9898 H   0  0  0  0  0  0  0  0  0  0  0  0
   59.1203   35.1000   46.4264 H   0  0  0  0  0  0  0  0  0  0  0  0
   58.8442   35.1151   43.9299 H   0  0  0  0  0  0  0  0  0  0  0  0
   57.8709   33.1183   42.8018 H   0  0  0  0  0  0  0  0  0  0  0  0
   58.1670   28.7420   42.9460 H   0  0  0  0  0  0  0  0  0  0  0  0
   57.4741   26.9148   45.2299 H   0  0  0  0  0  0  0  0  0  0  0  0
   58.6975   26.1090   47.2096 H   0  0  0  0  0  0  0  0  0  0  0  0
   60.6137   27.4593   48.1416 H   0  0  0  0  0  0  0  0  0  0  0  0
   61.1914   29.5783   47.0054 H   0  0  0  0  0  0  0  0  0  0  0  0
   59.9661   30.3716   45.0356 H   0  0  0  0  0  0  0  0  0  0  0  0
   57.4654   31.1531   46.5566 H   0  0  0  0  0  0  0  0  0  0  0  0
   58.7090   32.5120   50.4630 H   0  0  0  0  0  0  0  0  0  0  0  0
   60.7989   32.3607   51.7002 H   0  0  0  0  0  0  0  0  0  0  0  0
   63.1290   32.5278   51.6622 H   0  0  0  0  0  0  0  0  0  0  0  0
  1  2  1  0
  2  3  2  0
  3  4  1  0
  4  5  2  0
  5  6  1  0
  6  7  2  0
  7  8  1  0
  8  9  1  0
  9 10  2  0
 10 11  1  0
 10 12  1  0
 12 13  2  0
 13 14  1  0
 14 15  2  0
 15 16  1  0
 16 17  2  0
 17 18  1  0
 18 19  2  0
 19 20  1  0
 20 21  1  0
 21 22  2  0
 21 23  2  0
 21 24  1  0
 24 25  1  0
 25 26  2  0
 26 27  1  0
 27 28  2  0
 28 29  1  0
 29 30  2  0
 20 31  2  0
 14 32  1  0
 32 33  1  0
 33 34  2  0
 34 35  1  0
  7  2  1  0
 35  8  2  0
 34 12  1  0
 31 16  1  0
 30 25  1  0
  1 36  1  0
  1 37  1  0
  1 38  1  0
  3 39  1  0
  4 40  1  0
  5 41  1  0
  6 42  1  0
  9 43  1  0
 11 44  1  0
 11 45  1  0
 11 46  1  0
 17 47  1  0
 18 48  1  0
 19 49  1  0
 24 50  1  0
 26 51  1  0
 27 52  1  0
 28 53  1  0
 29 54  1  0
 30 55  1  0
 31 56  1  0
 32 57  1  0
 33 58  1  0
 35 59  1  0
M  END
>  <smiles>  (69) 
Cc1ccccc1-c1cc(C)c2nc(=Nc3cccc(S(=O)(=O)Nc4ccccc4)c3)[nH]cc2c1

>  <score_type>  (69) 
oracle

>  <origin>  (69) 
adg

>  <m_score__min__energy>  (69) 
-10.949999999999999

>  <m_primary>  (69) 
energy

$$$$
69:0
     RDKit          3D

 40 42  0  0  0  0  0  0  0  0999 V2000
   61.1340   30.1840   46.8840 C   0  0  0  0  0  0  0  0  0  0  0  0
   59.8800   29.4730   46.6080 N   0  0  0  0  0  0  0  0  0  0  0  0
   58.9470   30.0370   45.7860 C   0  0  0  0  0  0  0  0  0  0  0  0
   57.7470   29.3760   45.5090 C   0  0  0  0  0  0  0  0  0  0  0  0
   56.5390   30.1250   44.4590 S   0  0  0  0  0  0  0  0  0  0  0  0
   55.1520   29.7170   44.8720 O   0  0  0  0  0  0  0  0  0  0  0  0
   56.7830   29.6800   43.0450 O   0  0  0  0  0  0  0  0  0  0  0  0
   56.6590   31.8540   44.5310 N   0  0  0  0  0  0  0  0  0  0  0  0
   57.6150   32.5850   45.3100 C   0  0  0  0  0  0  0  0  0  0  0  0
   58.7360   33.2070   44.7320 C   0  0  0  0  0  0  0  0  0  0  0  0
   59.6350   33.9220   45.5290 C   0  0  0  0  0  0  0  0  0  0  0  0
   59.4260   34.0360   46.9070 C   0  0  0  0  0  0  0  0  0  0  0  0
   60.3570   34.7510   47.6730 O   0  0  0  0  0  0  0  0  0  0  0  0
   61.5580   34.2350   48.1850 C   0  0  0  0  0  0  0  0  0  0  0  0
   62.5440   33.6790   47.3490 C   0  0  0  0  0  0  0  0  0  0  0  0
   63.7200   33.1600   47.8990 C   0  0  0  0  0  0  0  0  0  0  0  0
   63.9160   33.1810   49.2840 C   0  0  0  0  0  0  0  0  0  0  0  0
   65.3910   32.5280   49.9720 Cl  0  0  0  0  0  0  0  0  0  0  0  0
   62.9300   33.7140   50.1200 C   0  0  0  0  0  0  0  0  0  0  0  0
   61.7520   34.2330   49.5710 C   0  0  0  0  0  0  0  0  0  0  0  0
   58.3200   33.3940   47.4900 C   0  0  0  0  0  0  0  0  0  0  0  0
   57.4190   32.6800   46.6930 C   0  0  0  0  0  0  0  0  0  0  0  0
   57.5460   28.1100   46.0730 C   0  0  0  0  0  0  0  0  0  0  0  0
   56.4890   27.4650   45.8360 O   0  0  0  0  0  0  0  0  0  0  0  0
   58.4980   27.5690   46.8760 N   0  0  0  0  0  0  0  0  0  0  0  0
   59.6550   28.2340   47.1470 C   0  0  0  0  0  0  0  0  0  0  0  0
   60.5170   27.6950   47.8940 O   0  0  0  0  0  0  0  0  0  0  0  0
   61.2776   30.2654   47.9715 H   0  0  0  0  0  0  0  0  0  0  0  0
   61.9751   29.6284   46.4437 H   0  0  0  0  0  0  0  0  0  0  0  0
   61.0891   31.1910   46.4437 H   0  0  0  0  0  0  0  0  0  0  0  0
   59.1418   31.0221   45.3370 H   0  0  0  0  0  0  0  0  0  0  0  0
   58.9063   33.1306   43.6479 H   0  0  0  0  0  0  0  0  0  0  0  0
   60.5132   34.3984   45.0687 H   0  0  0  0  0  0  0  0  0  0  0  0
   62.3892   33.6526   46.2603 H   0  0  0  0  0  0  0  0  0  0  0  0
   64.4924   32.7344   47.2416 H   0  0  0  0  0  0  0  0  0  0  0  0
   63.0803   33.7254   51.2096 H   0  0  0  0  0  0  0  0  0  0  0  0
   60.9741   34.6417   50.2326 H   0  0  0  0  0  0  0  0  0  0  0  0
   58.1623   33.4532   48.5770 H   0  0  0  0  0  0  0  0  0  0  0  0
   56.5502   32.1896   47.1563 H   0  0  0  0  0  0  0  0  0  0  0  0
   58.3410   26.6230   47.2930 H   0  0  0  0  0  0  0  0  0  0  0  0
  1  2  1  0
  2  3  1  0
  3  4  2  0
  4  5  1  0
  5  6  2  0
  5  7  2  0
  5  8  1  0
  8  9  1  0
  9 10  2  0
 10 11  1  0
 11 12  2  0
 12 13  1  0
 13 14  1  0
 14 15  2  0
 15 16  1  0
 16 17  2  0
 17 18  1  0
 17 19  1  0
 19 20  2  0
 12 21  1  0
 21 22  2  0
  4 23  1  0
 23 24  2  0
 23 25  1  0
 25 26  1  0
 26 27  2  0
 26  2  1  0
 22  9  1  0
 20 14  1  0
  1 28  1  0
  1 29  1  0
  1 30  1  0
  3 31  1  0
 10 32  1  0
 11 33  1  0
 15 34  1  0
 16 35  1  0
 19 36  1  0
 20 37  1  0
 21 38  1  0
 22 39  1  0
 25 40  1  0
M  CHG  1   8  -1
M  END
>  <UniqueID>  (70) 
60

>  <SMILES>  (70) 
Cn1cc(S(=O)(=O)[N-]c2ccc(Oc3ccc(Cl)cc3)cc2)c(=O)[nH]c1=O

>  <Energy>  (70) 
55.12853972608386

>  <Genealogy>  (70) 
Cn1cc(S(=O)(=O)[N-]c2ccc(Oc3ccc(Cl)cc3)cc2)c(=O)[nH]c1=O (protonated)
Cn1cc(S(=O)(=O)[N-]c2ccc(Oc3ccc(Cl)cc3)cc2)c(=O)[nH]c1=O (3D coordinates assigned)
Cn1cc(S(=O)(=O)[N-]c2ccc(Oc3ccc(Cl)cc3)cc2)c(=O)[nH]c1=O (optimized conformer: 55.12853972608386 kcal/mol)

>  <smiles>  (70) 
Cn1cc(S(=O)(=O)Nc2ccc(Oc3ccc(Cl)cc3)cc2)c(=O)[nH]c1=O

>  <score_type>  (70) 
oracle

>  <origin>  (70) 
adg

>  <m_score__min__energy>  (70) 
-10.609999999999999

>  <m_primary>  (70) 
energy

$$$$
70:0
     RDKit          3D

 56 59  0  0  0  0  0  0  0  0999 V2000
   54.0180   25.6790   45.6190 N   0  0  0  0  0  0  0  0  0  0  0  0
   53.4370   24.0620   45.4210 S   0  0  0  0  0  0  0  0  0  0  0  0
   53.4140   23.7250   43.9590 O   0  0  0  0  0  0  0  0  0  0  0  0
   52.0400   23.9590   45.9720 O   0  0  0  0  0  0  0  0  0  0  0  0
   54.4850   22.9410   46.2890 C   0  0  0  0  0  0  0  0  0  0  0  0
   53.9590   22.0560   47.2390 C   0  0  0  0  0  0  0  0  0  0  0  0
   54.8080   21.1980   47.9430 C   0  0  0  0  0  0  0  0  0  0  0  0
   56.1870   21.2220   47.7100 C   0  0  0  0  0  0  0  0  0  0  0  0
   56.7250   22.0950   46.7560 C   0  0  0  0  0  0  0  0  0  0  0  0
   58.1390   22.0680   46.5220 N   0  0  0  0  0  0  0  0  0  0  0  0
   58.9680   23.0030   45.3180 S   0  0  0  0  0  0  0  0  0  0  0  0
   60.4080   22.5710   45.2490 O   0  0  0  0  0  0  0  0  0  0  0  0
   58.3170   22.7560   43.9840 O   0  0  0  0  0  0  0  0  0  0  0  0
   58.8500   24.7210   45.6930 C   0  0  0  0  0  0  0  0  0  0  0  0
   57.6060   25.3630   45.6640 C   0  0  0  0  0  0  0  0  0  0  0  0
   57.5020   26.7150   46.0130 C   0  0  0  0  0  0  0  0  0  0  0  0
   58.6420   27.4380   46.4010 C   0  0  0  0  0  0  0  0  0  0  0  0
   58.5430   28.8580   46.8040 C   0  0  0  0  0  0  0  0  0  0  0  0
   59.3730   29.3310   47.6280 O   0  0  0  0  0  0  0  0  0  0  0  0
   57.4790   29.6810   46.3020 N   0  0  0  0  0  0  0  0  0  0  0  0
   57.3770   30.2060   44.9680 C   0  0  0  0  0  0  0  0  0  0  0  0
   56.7420   29.4730   43.9480 C   0  0  0  0  0  0  0  0  0  0  0  0
   56.6180   30.0090   42.6650 C   0  0  0  0  0  0  0  0  0  0  0  0
   57.1110   31.2830   42.3870 C   0  0  0  0  0  0  0  0  0  0  0  0
   57.7150   32.0330   43.3960 C   0  0  0  0  0  0  0  0  0  0  0  0
   57.8440   31.5110   44.6930 C   0  0  0  0  0  0  0  0  0  0  0  0
   58.4570   32.3160   45.7160 N   0  0  0  0  0  0  0  0  0  0  0  0
   57.7720   33.5020   46.2380 C   0  0  0  0  0  0  0  0  0  0  0  0
   58.8000   34.6130   46.4710 C   0  0  0  0  0  0  0  0  0  0  0  0
   59.8620   34.1470   47.2860 O   0  0  0  0  0  0  0  0  0  0  0  0
   60.5800   33.1300   46.6100 C   0  0  0  0  0  0  0  0  0  0  0  0
   59.6980   31.9020   46.3710 C   0  0  0  0  0  0  0  0  0  0  0  0
   59.8880   26.7880   46.4220 C   0  0  0  0  0  0  0  0  0  0  0  0
   59.9900   25.4400   46.0740 C   0  0  0  0  0  0  0  0  0  0  0  0
   55.8650   22.9470   46.0390 C   0  0  0  0  0  0  0  0  0  0  0  0
   53.2470   26.3200   45.3120 H   0  0  0  0  0  0  0  0  0  0  0  0
   52.8761   22.0365   47.4311 H   0  0  0  0  0  0  0  0  0  0  0  0
   54.3900   20.5005   48.6838 H   0  0  0  0  0  0  0  0  0  0  0  0
   56.8508   20.5533   48.2776 H   0  0  0  0  0  0  0  0  0  0  0  0
   56.7072   24.8032   45.3660 H   0  0  0  0  0  0  0  0  0  0  0  0
   56.5220   27.2137   45.9831 H   0  0  0  0  0  0  0  0  0  0  0  0
   56.3409   28.4716   44.1631 H   0  0  0  0  0  0  0  0  0  0  0  0
   56.1299   29.4245   41.8712 H   0  0  0  0  0  0  0  0  0  0  0  0
   57.0236   31.6969   41.3716 H   0  0  0  0  0  0  0  0  0  0  0  0
   58.0934   33.0417   43.1738 H   0  0  0  0  0  0  0  0  0  0  0  0
   57.0199   33.8427   45.5111 H   0  0  0  0  0  0  0  0  0  0  0  0
   57.2731   33.2541   47.1865 H   0  0  0  0  0  0  0  0  0  0  0  0
   59.2047   34.9401   45.5019 H   0  0  0  0  0  0  0  0  0  0  0  0
   58.3049   35.4533   46.9797 H   0  0  0  0  0  0  0  0  0  0  0  0
   60.9267   33.5180   45.6408 H   0  0  0  0  0  0  0  0  0  0  0  0
   61.4353   32.8311   47.2338 H   0  0  0  0  0  0  0  0  0  0  0  0
   60.2314   31.1864   45.7281 H   0  0  0  0  0  0  0  0  0  0  0  0
   59.4640   31.4243   47.3338 H   0  0  0  0  0  0  0  0  0  0  0  0
   60.7897   27.3458   46.7149 H   0  0  0  0  0  0  0  0  0  0  0  0
   60.9697   24.9404   46.0991 H   0  0  0  0  0  0  0  0  0  0  0  0
   56.2783   23.6233   45.2762 H   0  0  0  0  0  0  0  0  0  0  0  0
  1  2  1  0
  2  3  2  0
  2  4  2  0
  2  5  1  0
  5  6  2  0
  6  7  1  0
  7  8  2  0
  8  9  1  0
  9 10  1  0
 10 11  1  0
 11 12  2  0
 11 13  2  0
 11 14  1  0
 14 15  2  0
 15 16  1  0
 16 17  2  0
 17 18  1  0
 18 19  2  0
 18 20  1  0
 20 21  1  0
 21 22  2  0
 22 23  1  0
 23 24  2  0
 24 25  1  0
 25 26  2  0
 26 27  1  0
 27 28  1  0
 28 29  1  0
 29 30  1  0
 30 31  1  0
 31 32  1  0
 17 33  1  0
 33 34  2  0
  9 35  2  0
 35  5  1  0
 34 14  1  0
 26 21  1  0
 32 27  1  0
  1 36  1  0
  6 37  1  0
  7 38  1  0
  8 39  1  0
 15 40  1  0
 16 41  1  0
 22 42  1  0
 23 43  1  0
 24 44  1  0
 25 45  1  0
 28 46  1  0
 28 47  1  0
 29 48  1  0
 29 49  1  0
 31 50  1  0
 31 51  1  0
 32 52  1  0
 32 53  1  0
 33 54  1  0
 34 55  1  0
 35 56  1  0
M  CHG  3   1  -1  10  -1  20  -1
M  END
>  <UniqueID>  (71) 
61

>  <SMILES>  (71) 
[NH-]S(=O)(=O)c1cccc([N-]S(=O)(=O)c2ccc(C(=O)[N-]c3ccccc3N3CCOCC3)cc2)c1

>  <Energy>  (71) 
73.59090718858049

>  <Genealogy>  (71) 
[NH-]S(=O)(=O)c1cccc([N-]S(=O)(=O)c2ccc(C(=O)[N-]c3ccccc3N3CCOCC3)cc2)c1 (protonated)
[NH-]S(=O)(=O)c1cccc([N-]S(=O)(=O)c2ccc(C(=O)[N-]c3ccccc3N3CCOCC3)cc2)c1 (3D coordinates assigned)
[NH-]S(=O)(=O)c1cccc([N-]S(=O)(=O)c2ccc(C(=O)[N-]c3ccccc3N3CCOCC3)cc2)c1 (nonaromatic ring conformer: 73.59090718858049 kcal/mol)

>  <smiles>  (71) 
NS(=O)(=O)c1cccc(NS(=O)(=O)c2ccc(C(=O)Nc3ccccc3N3CCOCC3)cc2)c1

>  <score_type>  (71) 
oracle

>  <origin>  (71) 
adg

>  <m_score__min__energy>  (71) 
-15.550000000000001

>  <m_primary>  (71) 
energy

$$$$
71:0
     RDKit          3D

 55 56  0  0  0  0  0  0  0  0999 V2000
   60.0700   33.7620   49.9480 C   0  0  0  0  0  0  0  0  0  0  0  0
   60.0960   33.1760   48.5400 C   0  0  0  0  0  0  0  0  0  0  0  0
   59.7970   34.2140   47.5250 N   0  0  0  0  0  0  0  0  0  0  0  0
   60.7580   34.0980   46.4000 C   0  0  0  0  0  0  0  0  0  0  0  0
   62.1550   33.7000   46.8790 C   0  0  0  0  0  0  0  0  0  0  0  0
   58.3870   34.1240   47.0590 C   0  0  0  0  0  0  0  0  0  0  0  0
   58.2820   33.2150   45.8270 C   0  0  0  0  0  0  0  0  0  0  0  0
   58.0130   31.8250   46.2030 N   0  0  0  0  0  0  0  0  0  0  0  0
   58.8760   30.7050   45.8860 C   0  0  0  0  0  0  0  0  0  0  0  0
   60.2030   30.6640   46.3700 C   0  0  0  0  0  0  0  0  0  0  0  0
   61.0660   29.6270   46.0130 C   0  0  0  0  0  0  0  0  0  0  0  0
   60.6370   28.6300   45.1450 C   0  0  0  0  0  0  0  0  0  0  0  0
   59.3330   28.6470   44.6550 C   0  0  0  0  0  0  0  0  0  0  0  0
   58.4260   29.6450   45.0490 C   0  0  0  0  0  0  0  0  0  0  0  0
   56.7590   29.5390   44.4500 S   0  0  0  0  0  0  0  0  0  0  0  0
   56.7980   29.2420   42.9770 O   0  0  0  0  0  0  0  0  0  0  0  0
   56.0400   30.8410   44.6690 O   0  0  0  0  0  0  0  0  0  0  0  0
   55.8950   28.2490   45.2500 N   0  0  0  0  0  0  0  0  0  0  0  0
   56.7760   27.4240   46.0840 C   0  0  0  0  0  0  0  0  0  0  0  0
   56.8360   26.0090   45.5730 C   0  0  0  0  0  0  0  0  0  0  0  0
   56.1610   24.9830   46.2540 C   0  0  0  0  0  0  0  0  0  0  0  0
   56.1300   23.6890   45.7280 C   0  0  0  0  0  0  0  0  0  0  0  0
   56.7800   23.4030   44.5200 C   0  0  0  0  0  0  0  0  0  0  0  0
   56.6940   21.7900   43.8220 S   0  0  0  0  0  0  0  0  0  0  0  0
   55.8930   21.8670   42.2930 N   0  0  0  0  0  0  0  0  0  0  0  0
   55.9360   20.8720   44.7400 O   0  0  0  0  0  0  0  0  0  0  0  0
   58.0820   21.2460   43.6330 O   0  0  0  0  0  0  0  0  0  0  0  0
   57.4700   24.4200   43.8480 C   0  0  0  0  0  0  0  0  0  0  0  0
   57.5030   25.7130   44.3740 C   0  0  0  0  0  0  0  0  0  0  0  0
   60.1062   32.9465   50.6853 H   0  0  0  0  0  0  0  0  0  0  0  0
   60.9398   34.4209   50.0871 H   0  0  0  0  0  0  0  0  0  0  0  0
   59.1453   34.3413   50.0871 H   0  0  0  0  0  0  0  0  0  0  0  0
   61.0942   32.7579   48.3432 H   0  0  0  0  0  0  0  0  0  0  0  0
   59.3284   32.3909   48.4738 H   0  0  0  0  0  0  0  0  0  0  0  0
   60.3923   33.3344   45.6978 H   0  0  0  0  0  0  0  0  0  0  0  0
   60.8328   35.0820   45.9140 H   0  0  0  0  0  0  0  0  0  0  0  0
   62.1775   33.6936   47.9788 H   0  0  0  0  0  0  0  0  0  0  0  0
   62.4000   32.6963   46.5014 H   0  0  0  0  0  0  0  0  0  0  0  0
   62.8922   34.4239   46.5014 H   0  0  0  0  0  0  0  0  0  0  0  0
   57.7650   33.7112   47.8669 H   0  0  0  0  0  0  0  0  0  0  0  0
   58.0385   35.1313   46.7871 H   0  0  0  0  0  0  0  0  0  0  0  0
   57.4642   33.5759   45.1859 H   0  0  0  0  0  0  0  0  0  0  0  0
   59.2433   33.2469   45.2933 H   0  0  0  0  0  0  0  0  0  0  0  0
   57.0530   31.6470   46.5660 H   0  0  0  0  0  0  0  0  0  0  0  0
   60.5610   31.4612   47.0380 H   0  0  0  0  0  0  0  0  0  0  0  0
   62.0878   29.5987   46.4194 H   0  0  0  0  0  0  0  0  0  0  0  0
   61.3270   27.8276   44.8449 H   0  0  0  0  0  0  0  0  0  0  0  0
   59.0088   27.8678   43.9495 H   0  0  0  0  0  0  0  0  0  0  0  0
   57.7885   27.8538   46.0718 H   0  0  0  0  0  0  0  0  0  0  0  0
   56.3750   27.4093   47.1082 H   0  0  0  0  0  0  0  0  0  0  0  0
   55.6543   25.1991   47.2061 H   0  0  0  0  0  0  0  0  0  0  0  0
   55.5936   22.8921   46.2639 H   0  0  0  0  0  0  0  0  0  0  0  0
   56.3830   22.5960   41.7280 H   0  0  0  0  0  0  0  0  0  0  0  0
   57.9876   24.1993   42.9028 H   0  0  0  0  0  0  0  0  0  0  0  0
   58.0550   26.5043   43.8456 H   0  0  0  0  0  0  0  0  0  0  0  0
  1  2  1  0
  2  3  1  0
  3  4  1  0
  4  5  1  0
  3  6  1  0
  6  7  1  0
  7  8  1  0
  8  9  1  0
  9 10  2  0
 10 11  1  0
 11 12  2  0
 12 13  1  0
 13 14  2  0
 14 15  1  0
 15 16  2  0
 15 17  2  0
 15 18  1  0
 18 19  1  0
 19 20  1  0
 20 21  2  0
 21 22  1  0
 22 23  2  0
 23 24  1  0
 24 25  1  0
 24 26  2  0
 24 27  2  0
 23 28  1  0
 28 29  2  0
 14  9  1  0
 29 20  1  0
  1 30  1  0
  1 31  1  0
  1 32  1  0
  2 33  1  0
  2 34  1  0
  4 35  1  0
  4 36  1  0
  5 37  1  0
  5 38  1  0
  5 39  1  0
  6 40  1  0
  6 41  1  0
  7 42  1  0
  7 43  1  0
  8 44  1  0
 10 45  1  0
 11 46  1  0
 12 47  1  0
 13 48  1  0
 19 49  1  0
 19 50  1  0
 21 51  1  0
 22 52  1  0
 25 53  1  0
 28 54  1  0
 29 55  1  0
M  CHG  2  18  -1  25  -1
M  END
>  <UniqueID>  (72) 
62

>  <SMILES>  (72) 
CCN(CC)CCNc1ccccc1S(=O)(=O)[N-]Cc1ccc(S([NH-])(=O)=O)cc1

>  <Energy>  (72) 
50.56358814349688

>  <Genealogy>  (72) 
CCN(CC)CCNc1ccccc1S(=O)(=O)[N-]Cc1ccc(S([NH-])(=O)=O)cc1 (protonated)
CCN(CC)CCNc1ccccc1S(=O)(=O)[N-]Cc1ccc(S([NH-])(=O)=O)cc1 (3D coordinates assigned)
CCN(CC)CCNc1ccccc1S(=O)(=O)[N-]Cc1ccc(S([NH-])(=O)=O)cc1 (optimized conformer: 50.56358814349688 kcal/mol)

>  <smiles>  (72) 
CCN(CC)CCNc1ccccc1S(=O)(=O)NCc1ccc(S(N)(=O)=O)cc1

>  <score_type>  (72) 
oracle

>  <origin>  (72) 
adg

>  <m_score__min__energy>  (72) 
-11.57

>  <m_primary>  (72) 
energy

$$$$
72:0
     RDKit          3D

 42 44  0  0  0  0  0  0  0  0999 V2000
   57.4200   31.4880   51.6340 C   0  0  0  0  0  0  0  0  0  0  0  0
   57.7440   30.4130   50.7590 O   0  0  0  0  0  0  0  0  0  0  0  0
   58.7410   30.4670   49.7750 C   0  0  0  0  0  0  0  0  0  0  0  0
   59.3870   29.3130   49.2910 C   0  0  0  0  0  0  0  0  0  0  0  0
   60.3990   29.4260   48.3330 C   0  0  0  0  0  0  0  0  0  0  0  0
   60.7680   30.6800   47.8440 C   0  0  0  0  0  0  0  0  0  0  0  0
   60.1180   31.8390   48.3050 C   0  0  0  0  0  0  0  0  0  0  0  0
   60.4630   33.1460   47.8280 N   0  0  0  0  0  0  0  0  0  0  0  0
   59.5140   34.0950   46.7310 S   0  0  0  0  0  0  0  0  0  0  0  0
   58.5120   34.8960   47.5140 O   0  0  0  0  0  0  0  0  0  0  0  0
   60.4130   35.0440   45.9890 O   0  0  0  0  0  0  0  0  0  0  0  0
   58.6520   33.0390   45.6160 C   0  0  0  0  0  0  0  0  0  0  0  0
   58.5120   33.3840   44.2640 C   0  0  0  0  0  0  0  0  0  0  0  0
   57.8620   32.5170   43.3840 C   0  0  0  0  0  0  0  0  0  0  0  0
   57.3360   31.3090   43.8490 C   0  0  0  0  0  0  0  0  0  0  0  0
   57.4370   30.9670   45.2050 C   0  0  0  0  0  0  0  0  0  0  0  0
   56.8880   29.7240   45.6640 N   0  0  0  0  0  0  0  0  0  0  0  0
   57.6770   28.5380   45.8640 C   0  0  0  0  0  0  0  0  0  0  0  0
   58.9380   28.6150   45.8710 O   0  0  0  0  0  0  0  0  0  0  0  0
   57.0200   27.2350   46.1000 C   0  0  0  0  0  0  0  0  0  0  0  0
   57.7250   26.1590   46.6620 C   0  0  0  0  0  0  0  0  0  0  0  0
   57.0520   24.9510   46.8590 C   0  0  0  0  0  0  0  0  0  0  0  0
   57.6540   23.9660   47.3630 O   0  0  0  0  0  0  0  0  0  0  0  0
   55.7470   24.8340   46.5040 N   0  0  0  0  0  0  0  0  0  0  0  0
   55.0770   25.8830   45.9590 C   0  0  0  0  0  0  0  0  0  0  0  0
   53.8670   25.7560   45.6360 O   0  0  0  0  0  0  0  0  0  0  0  0
   55.7130   27.0670   45.7620 N   0  0  0  0  0  0  0  0  0  0  0  0
   58.1150   31.8320   46.0830 C   0  0  0  0  0  0  0  0  0  0  0  0
   59.1120   31.7200   49.2720 C   0  0  0  0  0  0  0  0  0  0  0  0
   57.5205   31.1545   52.6774 H   0  0  0  0  0  0  0  0  0  0  0  0
   58.1045   32.3293   51.4504 H   0  0  0  0  0  0  0  0  0  0  0  0
   56.3846   31.8109   51.4504 H   0  0  0  0  0  0  0  0  0  0  0  0
   59.0950   28.3214   49.6672 H   0  0  0  0  0  0  0  0  0  0  0  0
   60.9065   28.5228   47.9632 H   0  0  0  0  0  0  0  0  0  0  0  0
   61.5699   30.7622   47.0955 H   0  0  0  0  0  0  0  0  0  0  0  0
   58.9150   34.3392   43.8964 H   0  0  0  0  0  0  0  0  0  0  0  0
   57.7637   32.7855   42.3218 H   0  0  0  0  0  0  0  0  0  0  0  0
   56.8398   30.6224   43.1473 H   0  0  0  0  0  0  0  0  0  0  0  0
   55.8950   29.7200   45.9910 H   0  0  0  0  0  0  0  0  0  0  0  0
   58.7838   26.2648   46.9410 H   0  0  0  0  0  0  0  0  0  0  0  0
   58.2243   31.5591   47.1430 H   0  0  0  0  0  0  0  0  0  0  0  0
   58.6059   32.6240   49.6418 H   0  0  0  0  0  0  0  0  0  0  0  0
  1  2  1  0
  2  3  1  0
  3  4  2  0
  4  5  1  0
  5  6  2  0
  6  7  1  0
  7  8  1  0
  8  9  1  0
  9 10  2  0
  9 11  2  0
  9 12  1  0
 12 13  2  0
 13 14  1  0
 14 15  2  0
 15 16  1  0
 16 17  1  0
 17 18  1  0
 18 19  2  0
 18 20  1  0
 20 21  2  0
 21 22  1  0
 22 23  2  0
 22 24  1  0
 24 25  1  0
 25 26  2  0
 25 27  1  0
 16 28  2  0
  7 29  2  0
 29  3  1  0
 28 12  1  0
 27 20  1  0
  1 30  1  0
  1 31  1  0
  1 32  1  0
  4 33  1  0
  5 34  1  0
  6 35  1  0
 13 36  1  0
 14 37  1  0
 15 38  1  0
 17 39  1  0
 21 40  1  0
 28 41  1  0
 29 42  1  0
M  CHG  3   8  -1  24  -1  27  -1
M  END
>  <UniqueID>  (73) 
63

>  <SMILES>  (73) 
COc1cccc([N-]S(=O)(=O)c2cccc(NC(=O)c3cc(=O)[n-]c(=O)[n-]3)c2)c1

>  <Energy>  (73) 
52.47065014713843

>  <Genealogy>  (73) 
COc1cccc([N-]S(=O)(=O)c2cccc(NC(=O)c3cc(=O)[n-]c(=O)[n-]3)c2)c1 (protonated)
COc1cccc([N-]S(=O)(=O)c2cccc(NC(=O)c3cc(=O)[n-]c(=O)[n-]3)c2)c1 (3D coordinates assigned)
COc1cccc([N-]S(=O)(=O)c2cccc(NC(=O)c3cc(=O)[n-]c(=O)[n-]3)c2)c1 (optimized conformer: 52.47065014713843 kcal/mol)

>  <smiles>  (73) 
COc1cccc(NS(=O)(=O)c2cccc(NC(=O)c3cc(=O)[nH]c(=O)[nH]3)c2)c1

>  <score_type>  (73) 
oracle

>  <origin>  (73) 
adg

>  <m_score__min__energy>  (73) 
-14.210000000000001

>  <m_primary>  (73) 
energy

$$$$
73:0
     RDKit          3D

 75 79  0  0  0  0  0  0  0  0999 V2000
   54.8219   29.2288   43.9588 H   0  0  0  0  0  0  0  0  0  0  0  0
   55.7840   29.7540   44.0510 C   0  0  0  0  0  0  0  0  0  0  0  0
   56.4840   29.6910   45.2150 N   0  0  0  0  0  0  0  0  0  0  0  0
   57.6730   30.3290   45.3880 C   0  0  0  0  0  0  0  0  0  0  0  0
   58.2580   30.2410   46.5520 N   0  0  0  0  0  0  0  0  0  0  0  0
   59.6620   30.0890   46.8370 C   0  0  0  0  0  0  0  0  0  0  0  0
   60.4980   30.5340   46.0040 O   0  0  0  0  0  0  0  0  0  0  0  0
   60.1370   29.2900   47.9940 C   0  0  0  0  0  0  0  0  0  0  0  0
   60.4510   29.9700   49.1850 C   0  0  0  0  0  0  0  0  0  0  0  0
   60.3242   31.0615   49.2355 H   0  0  0  0  0  0  0  0  0  0  0  0
   60.9230   29.2770   50.3080 C   0  0  0  0  0  0  0  0  0  0  0  0
   61.2650   30.0190   51.5750 C   0  0  0  0  0  0  0  0  0  0  0  0
   61.0816   31.0927   51.4217 H   0  0  0  0  0  0  0  0  0  0  0  0
   60.6343   29.6275   52.3867 H   0  0  0  0  0  0  0  0  0  0  0  0
   62.7360   29.8140   51.9640 C   0  0  0  0  0  0  0  0  0  0  0  0
   62.9693   30.4368   52.8402 H   0  0  0  0  0  0  0  0  0  0  0  0
   62.8976   28.7521   52.2010 H   0  0  0  0  0  0  0  0  0  0  0  0
   63.6170   30.1930   50.8530 N   0  0  0  0  0  0  0  0  0  0  0  0
   64.5880   29.8750   51.0800 H   0  0  0  0  0  0  0  0  0  0  0  0
   63.6800   31.9250   50.7100 S   0  0  0  0  0  0  0  0  0  0  0  0
   65.0440   32.3350   50.2220 O   0  0  0  0  0  0  0  0  0  0  0  0
   63.4430   32.5560   52.0590 O   0  0  0  0  0  0  0  0  0  0  0  0
   62.4670   32.4660   49.5460 C   0  0  0  0  0  0  0  0  0  0  0  0
   61.2330   32.9510   50.0060 C   0  0  0  0  0  0  0  0  0  0  0  0
   61.0372   33.0117   51.0867 H   0  0  0  0  0  0  0  0  0  0  0  0
   60.2500   33.3580   49.0960 C   0  0  0  0  0  0  0  0  0  0  0  0
   59.2849   33.7355   49.4647 H   0  0  0  0  0  0  0  0  0  0  0  0
   60.4920   33.2860   47.7090 C   0  0  0  0  0  0  0  0  0  0  0  0
   59.4400   33.6880   46.7400 C   0  0  0  0  0  0  0  0  0  0  0  0
   58.0870   33.3600   46.9670 C   0  0  0  0  0  0  0  0  0  0  0  0
   57.8037   32.8055   47.8738 H   0  0  0  0  0  0  0  0  0  0  0  0
   57.1020   33.7360   46.0450 C   0  0  0  0  0  0  0  0  0  0  0  0
   56.0494   33.4771   46.2322 H   0  0  0  0  0  0  0  0  0  0  0  0
   57.4510   34.4400   44.8860 C   0  0  0  0  0  0  0  0  0  0  0  0
   56.6754   34.7313   44.1625 H   0  0  0  0  0  0  0  0  0  0  0  0
   58.7880   34.7710   44.6520 C   0  0  0  0  0  0  0  0  0  0  0  0
   59.0645   35.3243   43.7424 H   0  0  0  0  0  0  0  0  0  0  0  0
   59.7770   34.4010   45.5710 C   0  0  0  0  0  0  0  0  0  0  0  0
   60.8266   34.6689   45.3795 H   0  0  0  0  0  0  0  0  0  0  0  0
   61.7430   32.8140   47.2530 C   0  0  0  0  0  0  0  0  0  0  0  0
   61.9486   32.7658   46.1735 H   0  0  0  0  0  0  0  0  0  0  0  0
   62.7230   32.4070   48.1670 C   0  0  0  0  0  0  0  0  0  0  0  0
   63.6945   32.0406   47.8039 H   0  0  0  0  0  0  0  0  0  0  0  0
   61.0320   27.8810   50.2570 C   0  0  0  0  0  0  0  0  0  0  0  0
   61.3565   27.3250   51.1489 H   0  0  0  0  0  0  0  0  0  0  0  0
   60.7310   27.1910   49.0800 C   0  0  0  0  0  0  0  0  0  0  0  0
   60.8310   26.0960   49.0504 H   0  0  0  0  0  0  0  0  0  0  0  0
   60.3020   27.8810   47.9340 C   0  0  0  0  0  0  0  0  0  0  0  0
   60.0390   26.9710   46.4380 S   0  0  0  0  0  0  0  0  0  0  0  0
   60.4530   27.8220   45.2630 O   0  0  0  0  0  0  0  0  0  0  0  0
   60.8770   25.7170   46.4390 O   0  0  0  0  0  0  0  0  0  0  0  0
   58.3840   26.5370   46.3440 O   0  0  0  0  0  0  0  0  0  0  0  0
   57.8650   25.5500   45.4930 C   0  0  0  0  0  0  0  0  0  0  0  0
   57.4880   24.2720   45.9740 C   0  0  0  0  0  0  0  0  0  0  0  0
   57.5794   24.0439   47.0462 H   0  0  0  0  0  0  0  0  0  0  0  0
   56.9990   23.2950   45.0940 C   0  0  0  0  0  0  0  0  0  0  0  0
   56.6820   21.9070   45.5940 C   0  0  0  0  0  0  0  0  0  0  0  0
   56.6815   21.9047   46.6940 H   0  0  0  0  0  0  0  0  0  0  0  0
   55.6911   21.6022   45.2262 H   0  0  0  0  0  0  0  0  0  0  0  0
   57.4423   21.2022   45.2262 H   0  0  0  0  0  0  0  0  0  0  0  0
   56.8970   23.5920   43.7230 C   0  0  0  0  0  0  0  0  0  0  0  0
   56.5208   22.8284   43.0263 H   0  0  0  0  0  0  0  0  0  0  0  0
   57.2710   24.8540   43.2360 C   0  0  0  0  0  0  0  0  0  0  0  0
   57.1822   25.0738   42.1618 H   0  0  0  0  0  0  0  0  0  0  0  0
   57.7580   25.8380   44.1120 C   0  0  0  0  0  0  0  0  0  0  0  0
   58.1430   27.1970   43.5880 C   0  0  0  0  0  0  0  0  0  0  0  0
   58.3350   27.8748   44.4328 H   0  0  0  0  0  0  0  0  0  0  0  0
   59.0517   27.1094   42.9743 H   0  0  0  0  0  0  0  0  0  0  0  0
   57.3234   27.5990   42.9743 H   0  0  0  0  0  0  0  0  0  0  0  0
   58.2260   31.0430   44.3030 C   0  0  0  0  0  0  0  0  0  0  0  0
   59.2036   31.5368   44.4054 H   0  0  0  0  0  0  0  0  0  0  0  0
   57.5220   31.1180   43.0970 C   0  0  0  0  0  0  0  0  0  0  0  0
   57.9429   31.6757   42.2474 H   0  0  0  0  0  0  0  0  0  0  0  0
   56.2860   30.4850   42.9730 C   0  0  0  0  0  0  0  0  0  0  0  0
   55.7133   30.5607   42.0369 H   0  0  0  0  0  0  0  0  0  0  0  0
  1  2  1  0
  2  3  1  0
  3  4  1  0
  4  5  2  0
  5  6  1  0
  6  7  2  0
  6  8  1  0
  8  9  2  0
  9 10  1  0
  9 11  1  0
 11 12  1  0
 12 13  1  0
 12 14  1  0
 12 15  1  0
 15 16  1  0
 15 17  1  0
 15 18  1  0
 18 19  1  0
 18 20  1  0
 20 21  2  0
 20 22  2  0
 20 23  1  0
 23 24  2  0
 24 25  1  0
 24 26  1  0
 26 27  1  0
 26 28  2  0
 28 29  1  0
 29 30  2  0
 30 31  1  0
 30 32  1  0
 32 33  1  0
 32 34  2  0
 34 35  1  0
 34 36  1  0
 36 37  1  0
 36 38  2  0
 38 39  1  0
 28 40  1  0
 40 41  1  0
 40 42  2  0
 42 43  1  0
 11 44  2  0
 44 45  1  0
 44 46  1  0
 46 47  1  0
 46 48  2  0
 48 49  1  0
 49 50  2  0
 49 51  2  0
 49 52  1  0
 52 53  1  0
 53 54  2  0
 54 55  1  0
 54 56  1  0
 56 57  1  0
 57 58  1  0
 57 59  1  0
 57 60  1  0
 56 61  2  0
 61 62  1  0
 61 63  1  0
 63 64  1  0
 63 65  2  0
 65 66  1  0
 66 67  1  0
 66 68  1  0
 66 69  1  0
  4 70  1  0
 70 71  1  0
 70 72  2  0
 72 73  1  0
 72 74  1  0
 74 75  1  0
 74  2  2  0
 48  8  1  0
 65 53  1  0
 42 23  1  0
 38 29  1  0
M  CHG  1   3  -1
M  END
>  <UniqueID>  (74) 
64

>  <SMILES>  (74) 
Cc1ccc(C)c(OS(=O)(=O)c2ccc(CCNS(=O)(=O)c3ccc(-c4ccccc4)cc3)cc2C(=O)/N=c2\cccc[n-]2)c1

>  <Energy>  (74) 
97.2760694781471

>  <Genealogy>  (74) 
Cc1ccc(C)c(OS(=O)(=O)c2ccc(CCNS(=O)(=O)c3ccc(-c4ccccc4)cc3)cc2C(=O)N=c2cccc[n-]2)c1 (protonated)
Cc1ccc(C)c(OS(=O)(=O)c2ccc(CCNS(=O)(=O)c3ccc(-c4ccccc4)cc3)cc2C(=O)/N=c2\cccc[n-]2)c1 (cis-trans isomerization)
Cc1ccc(C)c(OS(=O)(=O)c2ccc(CCNS(=O)(=O)c3ccc(-c4ccccc4)cc3)cc2C(=O)/N=c2\cccc[n-]2)c1 (3D coordinates assigned)
Cc1ccc(C)c(OS(=O)(=O)c2ccc(CCNS(=O)(=O)c3ccc(-c4ccccc4)cc3)cc2C(=O)/N=c2\cccc[n-]2)c1 (optimized conformer: 97.2760694781471 kcal/mol)

>  <smiles>  (74) 
Cc1ccc(C)c(OS(=O)(=O)c2ccc(CCNS(=O)(=O)c3ccc(-c4ccccc4)cc3)cc2C(=O)N=c2cccc[nH]2)c1

>  <score_type>  (74) 
oracle

>  <origin>  (74) 
adg

>  <m_score__min__energy>  (74) 
-13.23

>  <m_primary>  (74) 
energy

$$$$
74:0
     RDKit          3D

 45 46  0  0  0  0  0  0  0  0999 V2000
   65.8900   32.9680   50.1080 C   0  0  0  0  0  0  0  0  0  0  0  0
   64.3190   33.7930   50.5130 S   0  0  0  0  0  0  0  0  0  0  0  0
   63.3540   32.7660   49.4040 C   0  0  0  0  0  0  0  0  0  0  0  0
   63.5840   32.8150   48.0240 C   0  0  0  0  0  0  0  0  0  0  0  0
   62.8360   32.0130   47.1580 C   0  0  0  0  0  0  0  0  0  0  0  0
   61.8590   31.1370   47.6650 C   0  0  0  0  0  0  0  0  0  0  0  0
   61.0440   30.2550   46.7360 C   0  0  0  0  0  0  0  0  0  0  0  0
   59.6690   30.7540   46.4760 N   0  0  0  0  0  0  0  0  0  0  0  0
   59.5440   32.2190   46.6370 C   0  0  0  0  0  0  0  0  0  0  0  0
   58.0930   32.6660   46.4200 C   0  0  0  0  0  0  0  0  0  0  0  0
   57.9530   33.8020   45.0460 S   0  0  0  0  0  0  0  0  0  0  0  0
   59.2700   34.9940   45.1370 C   0  0  0  0  0  0  0  0  0  0  0  0
   58.0470   33.0620   43.7410 O   0  0  0  0  0  0  0  0  0  0  0  0
   56.6330   34.5170   45.1150 O   0  0  0  0  0  0  0  0  0  0  0  0
   59.0990   30.2830   45.1920 C   0  0  0  0  0  0  0  0  0  0  0  0
   58.1040   29.1680   45.4120 C   0  0  0  0  0  0  0  0  0  0  0  0
   58.5190   27.9350   45.9330 C   0  0  0  0  0  0  0  0  0  0  0  0
   57.6220   26.9330   46.1220 N   0  0  0  0  0  0  0  0  0  0  0  0
   56.3130   27.0990   45.7930 C   0  0  0  0  0  0  0  0  0  0  0  0
   55.4900   26.1640   45.9740 O   0  0  0  0  0  0  0  0  0  0  0  0
   55.8910   28.2750   45.2610 N   0  0  0  0  0  0  0  0  0  0  0  0
   56.7520   29.3050   45.0570 C   0  0  0  0  0  0  0  0  0  0  0  0
   56.3260   30.3730   44.5420 O   0  0  0  0  0  0  0  0  0  0  0  0
   61.6200   31.1120   49.0500 C   0  0  0  0  0  0  0  0  0  0  0  0
   62.3690   31.9160   49.9140 C   0  0  0  0  0  0  0  0  0  0  0  0
   66.4108   32.6945   51.0375 H   0  0  0  0  0  0  0  0  0  0  0  0
   65.6868   32.0603   49.5209 H   0  0  0  0  0  0  0  0  0  0  0  0
   66.5219   33.6506   49.5209 H   0  0  0  0  0  0  0  0  0  0  0  0
   64.3558   33.4868   47.6202 H   0  0  0  0  0  0  0  0  0  0  0  0
   63.0122   32.0670   46.0735 H   0  0  0  0  0  0  0  0  0  0  0  0
   61.5733   30.1844   45.7743 H   0  0  0  0  0  0  0  0  0  0  0  0
   60.9383   29.2808   47.2358 H   0  0  0  0  0  0  0  0  0  0  0  0
   59.8601   32.4990   47.6527 H   0  0  0  0  0  0  0  0  0  0  0  0
   60.1819   32.7128   45.8892 H   0  0  0  0  0  0  0  0  0  0  0  0
   57.4734   31.7804   46.2156 H   0  0  0  0  0  0  0  0  0  0  0  0
   57.7522   33.1823   47.3296 H   0  0  0  0  0  0  0  0  0  0  0  0
   59.5022   35.2041   46.1915 H   0  0  0  0  0  0  0  0  0  0  0  0
   60.1639   34.5916   44.6379 H   0  0  0  0  0  0  0  0  0  0  0  0
   58.9585   35.9234   44.6379 H   0  0  0  0  0  0  0  0  0  0  0  0
   58.5922   31.1232   44.6948 H   0  0  0  0  0  0  0  0  0  0  0  0
   59.9189   29.8997   44.5669 H   0  0  0  0  0  0  0  0  0  0  0  0
   59.5769   27.7780   46.1902 H   0  0  0  0  0  0  0  0  0  0  0  0
   57.9480   26.0230   46.5190 H   0  0  0  0  0  0  0  0  0  0  0  0
   60.8375   30.4547   49.4570 H   0  0  0  0  0  0  0  0  0  0  0  0
   62.1827   31.8795   50.9975 H   0  0  0  0  0  0  0  0  0  0  0  0
  1  2  1  0
  2  3  1  0
  3  4  2  0
  4  5  1  0
  5  6  2  0
  6  7  1  0
  7  8  1  0
  8  9  1  0
  9 10  1  0
 10 11  1  0
 11 12  1  0
 11 13  2  0
 11 14  2  0
  8 15  1  0
 15 16  1  0
 16 17  2  0
 17 18  1  0
 18 19  1  0
 19 20  2  0
 19 21  1  0
 21 22  1  0
 22 23  2  0
  6 24  1  0
 24 25  2  0
 25  3  1  0
 22 16  1  0
  1 26  1  0
  1 27  1  0
  1 28  1  0
  4 29  1  0
  5 30  1  0
  7 31  1  0
  7 32  1  0
  9 33  1  0
  9 34  1  0
 10 35  1  0
 10 36  1  0
 12 37  1  0
 12 38  1  0
 12 39  1  0
 15 40  1  0
 15 41  1  0
 17 42  1  0
 18 43  1  0
 24 44  1  0
 25 45  1  0
M  CHG  1  21  -1
M  END
>  <UniqueID>  (75) 
65

>  <SMILES>  (75) 
CSc1ccc(CN(CCS(C)(=O)=O)Cc2c[nH]c(=O)[n-]c2=O)cc1

>  <Energy>  (75) 
37.82814452311941

>  <Genealogy>  (75) 
CSc1ccc(CN(CCS(C)(=O)=O)Cc2c[nH]c(=O)[n-]c2=O)cc1 (protonated)
CSc1ccc(CN(CCS(C)(=O)=O)Cc2c[nH]c(=O)[n-]c2=O)cc1 (3D coordinates assigned)
CSc1ccc(CN(CCS(C)(=O)=O)Cc2c[nH]c(=O)[n-]c2=O)cc1 (optimized conformer: 37.82814452311941 kcal/mol)

>  <smiles>  (75) 
CSc1ccc(CN(CCS(C)(=O)=O)Cc2c[nH]c(=O)[nH]c2=O)cc1

>  <score_type>  (75) 
oracle

>  <origin>  (75) 
adg

>  <m_score__min__energy>  (75) 
-10.08

>  <m_primary>  (75) 
energy

$$$$
75:0
     RDKit          3D

 33 34  0  0  0  0  0  0  0  0999 V2000
   63.2570   33.0940   47.5320 N   0  0  0  0  0  0  0  0  0  0  0  0
   62.4160   32.2990   47.5760 C   0  0  0  0  0  0  0  0  0  0  0  0
   61.3710   31.3110   47.6320 C   0  0  0  0  0  0  0  0  0  0  0  0
   60.6250   31.1480   48.8020 C   0  0  0  0  0  0  0  0  0  0  0  0
   59.6070   30.1950   48.8540 C   0  0  0  0  0  0  0  0  0  0  0  0
   59.3180   29.3950   47.7420 C   0  0  0  0  0  0  0  0  0  0  0  0
   58.2360   28.5170   47.8370 O   0  0  0  0  0  0  0  0  0  0  0  0
   60.0990   29.5240   46.5640 C   0  0  0  0  0  0  0  0  0  0  0  0
   59.9190   28.6510   45.3850 C   0  0  0  0  0  0  0  0  0  0  0  0
   60.4890   28.9250   44.2940 O   0  0  0  0  0  0  0  0  0  0  0  0
   59.0590   27.5500   45.4690 O   0  0  0  0  0  0  0  0  0  0  0  0
   57.9260   27.3910   44.6210 C   0  0  0  0  0  0  0  0  0  0  0  0
   56.7190   27.9960   45.2750 C   0  0  0  0  0  0  0  0  0  0  0  0
   55.7660   27.2450   45.6160 O   0  0  0  0  0  0  0  0  0  0  0  0
   56.6290   29.3990   45.5590 N   0  0  0  0  0  0  0  0  0  0  0  0
   57.1440   30.4680   44.7540 C   0  0  0  0  0  0  0  0  0  0  0  0
   57.0060   30.4700   43.3540 C   0  0  0  0  0  0  0  0  0  0  0  0
   57.4920   31.5440   42.6020 C   0  0  0  0  0  0  0  0  0  0  0  0
   58.1030   32.6280   43.2390 C   0  0  0  0  0  0  0  0  0  0  0  0
   58.2170   32.6450   44.6330 C   0  0  0  0  0  0  0  0  0  0  0  0
   59.0340   34.1340   45.5060 Br  0  0  0  0  0  0  0  0  0  0  0  0
   57.7300   31.5710   45.3870 C   0  0  0  0  0  0  0  0  0  0  0  0
   61.1090   30.5030   46.5200 C   0  0  0  0  0  0  0  0  0  0  0  0
   60.8402   31.7712   49.6825 H   0  0  0  0  0  0  0  0  0  0  0  0
   59.0250   30.0709   49.7791 H   0  0  0  0  0  0  0  0  0  0  0  0
   57.7000   28.2030   47.0400 H   0  0  0  0  0  0  0  0  0  0  0  0
   58.1135   27.8948   43.6613 H   0  0  0  0  0  0  0  0  0  0  0  0
   57.7482   26.3197   44.4460 H   0  0  0  0  0  0  0  0  0  0  0  0
   56.5147   29.6248   42.8498 H   0  0  0  0  0  0  0  0  0  0  0  0
   57.3933   31.5359   41.5065 H   0  0  0  0  0  0  0  0  0  0  0  0
   58.4938   33.4669   42.6445 H   0  0  0  0  0  0  0  0  0  0  0  0
   57.8081   31.5936   46.4840 H   0  0  0  0  0  0  0  0  0  0  0  0
   61.6992   30.6345   45.6011 H   0  0  0  0  0  0  0  0  0  0  0  0
  1  2  3  0
  2  3  1  0
  3  4  2  0
  4  5  1  0
  5  6  2  0
  6  7  1  0
  6  8  1  0
  8  9  1  0
  9 10  2  0
  9 11  1  0
 11 12  1  0
 12 13  1  0
 13 14  2  0
 13 15  1  0
 15 16  1  0
 16 17  2  0
 17 18  1  0
 18 19  2  0
 19 20  1  0
 20 21  1  0
 20 22  2  0
  8 23  2  0
 23  3  1  0
 22 16  1  0
  4 24  1  0
  5 25  1  0
  7 26  1  0
 12 27  1  0
 12 28  1  0
 17 29  1  0
 18 30  1  0
 19 31  1  0
 22 32  1  0
 23 33  1  0
M  CHG  1  15  -1
M  END
>  <UniqueID>  (76) 
66

>  <SMILES>  (76) 
N#Cc1ccc(O)c(C(=O)OCC(=O)[N-]c2cccc(Br)c2)c1

>  <Energy>  (76) 
40.22336612614972

>  <Genealogy>  (76) 
N#Cc1ccc(O)c(C(=O)OCC(=O)[N-]c2cccc(Br)c2)c1 (protonated)
N#Cc1ccc(O)c(C(=O)OCC(=O)[N-]c2cccc(Br)c2)c1 (3D coordinates assigned)
N#Cc1ccc(O)c(C(=O)OCC(=O)[N-]c2cccc(Br)c2)c1 (optimized conformer: 40.22336612614972 kcal/mol)

>  <smiles>  (76) 
N#Cc1ccc(O)c(C(=O)OCC(=O)Nc2cccc(Br)c2)c1

>  <score_type>  (76) 
oracle

>  <origin>  (76) 
adg

>  <m_score__min__energy>  (76) 
-10.56

>  <m_primary>  (76) 
energy

$$$$
76:0
     RDKit          3D

 48 51  0  0  0  0  0  0  0  0999 V2000
   59.8360   30.7470   47.9320 O   0  0  0  0  0  0  0  0  0  0  0  0
   60.5790   30.6090   46.9200 C   0  0  0  0  0  0  0  0  0  0  0  0
   61.8110   31.3330   46.8270 N   0  0  0  0  0  0  0  0  0  0  0  0
   62.3600   32.1730   47.8510 C   0  0  0  0  0  0  0  0  0  0  0  0
   63.1420   31.5810   48.8520 C   0  0  0  0  0  0  0  0  0  0  0  0
   63.7020   32.3590   49.8680 C   0  0  0  0  0  0  0  0  0  0  0  0
   63.4930   33.7390   49.8850 C   0  0  0  0  0  0  0  0  0  0  0  0
   62.7450   34.3460   48.8750 C   0  0  0  0  0  0  0  0  0  0  0  0
   62.2000   33.5760   47.8300 C   0  0  0  0  0  0  0  0  0  0  0  0
   61.4850   34.1780   46.7830 O   0  0  0  0  0  0  0  0  0  0  0  0
   60.1160   34.0190   46.5280 C   0  0  0  0  0  0  0  0  0  0  0  0
   59.2130   33.6050   47.5250 C   0  0  0  0  0  0  0  0  0  0  0  0
   57.8510   33.4780   47.2330 C   0  0  0  0  0  0  0  0  0  0  0  0
   57.3800   33.7720   45.9500 C   0  0  0  0  0  0  0  0  0  0  0  0
   58.2690   34.2020   44.9620 C   0  0  0  0  0  0  0  0  0  0  0  0
   59.6310   34.3310   45.2510 C   0  0  0  0  0  0  0  0  0  0  0  0
   60.2080   29.7150   45.8650 N   0  0  0  0  0  0  0  0  0  0  0  0
   58.9800   28.9730   45.8810 C   0  0  0  0  0  0  0  0  0  0  0  0
   58.8650   27.8680   46.7350 C   0  0  0  0  0  0  0  0  0  0  0  0
   57.6880   27.1150   46.7640 C   0  0  0  0  0  0  0  0  0  0  0  0
   56.6120   27.4550   45.9380 C   0  0  0  0  0  0  0  0  0  0  0  0
   55.4110   26.6730   46.0040 N   0  0  0  0  0  0  0  0  0  0  0  0
   55.3100   25.2620   45.7660 C   0  0  0  0  0  0  0  0  0  0  0  0
   54.2130   24.6860   45.9850 O   0  0  0  0  0  0  0  0  0  0  0  0
   56.4750   24.4640   45.3420 C   0  0  0  0  0  0  0  0  0  0  0  0
   56.6600   23.9080   44.0910 C   0  0  0  0  0  0  0  0  0  0  0  0
   57.8690   23.2470   44.1530 C   0  0  0  0  0  0  0  0  0  0  0  0
   58.3440   23.4370   45.4350 C   0  0  0  0  0  0  0  0  0  0  0  0
   57.4910   24.1630   46.1200 O   0  0  0  0  0  0  0  0  0  0  0  0
   56.7010   28.5970   45.1240 C   0  0  0  0  0  0  0  0  0  0  0  0
   57.8790   29.3540   45.0900 C   0  0  0  0  0  0  0  0  0  0  0  0
   57.9090   30.8160   44.1120 Cl  0  0  0  0  0  0  0  0  0  0  0  0
   63.3162   30.4950   48.8375 H   0  0  0  0  0  0  0  0  0  0  0  0
   64.3074   31.8844   50.6543 H   0  0  0  0  0  0  0  0  0  0  0  0
   63.9184   34.3490   50.6955 H   0  0  0  0  0  0  0  0  0  0  0  0
   62.5802   35.4334   48.8957 H   0  0  0  0  0  0  0  0  0  0  0  0
   59.5797   33.3805   48.5375 H   0  0  0  0  0  0  0  0  0  0  0  0
   57.1501   33.1466   48.0133 H   0  0  0  0  0  0  0  0  0  0  0  0
   56.3100   33.6648   45.7186 H   0  0  0  0  0  0  0  0  0  0  0  0
   57.8968   34.4396   43.9545 H   0  0  0  0  0  0  0  0  0  0  0  0
   60.3252   34.6792   44.4719 H   0  0  0  0  0  0  0  0  0  0  0  0
   60.7370   29.7750   44.9670 H   0  0  0  0  0  0  0  0  0  0  0  0
   59.7067   27.5914   47.3869 H   0  0  0  0  0  0  0  0  0  0  0  0
   57.6076   26.2508   47.4398 H   0  0  0  0  0  0  0  0  0  0  0  0
   55.9842   23.9779   43.2259 H   0  0  0  0  0  0  0  0  0  0  0  0
   58.3562   22.6825   43.3443 H   0  0  0  0  0  0  0  0  0  0  0  0
   59.2934   23.0403   45.8239 H   0  0  0  0  0  0  0  0  0  0  0  0
   55.8399   28.8984   44.5095 H   0  0  0  0  0  0  0  0  0  0  0  0
  1  2  2  0
  2  3  1  0
  3  4  1  0
  4  5  2  0
  5  6  1  0
  6  7  2  0
  7  8  1  0
  8  9  2  0
  9 10  1  0
 10 11  1  0
 11 12  2  0
 12 13  1  0
 13 14  2  0
 14 15  1  0
 15 16  2  0
  2 17  1  0
 17 18  1  0
 18 19  2  0
 19 20  1  0
 20 21  2  0
 21 22  1  0
 22 23  1  0
 23 24  2  0
 23 25  1  0
 25 26  2  0
 26 27  1  0
 27 28  2  0
 28 29  1  0
 21 30  1  0
 30 31  2  0
 31 32  1  0
  9  4  1  0
 16 11  1  0
 31 18  1  0
 29 25  1  0
  5 33  1  0
  6 34  1  0
  7 35  1  0
  8 36  1  0
 12 37  1  0
 13 38  1  0
 14 39  1  0
 15 40  1  0
 16 41  1  0
 17 42  1  0
 19 43  1  0
 20 44  1  0
 26 45  1  0
 27 46  1  0
 28 47  1  0
 30 48  1  0
M  CHG  2   3  -1  22  -1
M  END
>  <UniqueID>  (77) 
67

>  <SMILES>  (77) 
O=C([N-]c1ccccc1Oc1ccccc1)Nc1ccc([N-]C(=O)c2ccco2)cc1Cl

>  <Energy>  (77) 
100.19034739589446

>  <Genealogy>  (77) 
O=C([N-]c1ccccc1Oc1ccccc1)Nc1ccc([N-]C(=O)c2ccco2)cc1Cl (protonated)
O=C([N-]c1ccccc1Oc1ccccc1)Nc1ccc([N-]C(=O)c2ccco2)cc1Cl (3D coordinates assigned)
O=C([N-]c1ccccc1Oc1ccccc1)Nc1ccc([N-]C(=O)c2ccco2)cc1Cl (optimized conformer: 100.19034739589446 kcal/mol)

>  <smiles>  (77) 
O=C(Nc1ccc(NC(=O)c2ccco2)cc1Cl)Nc1ccccc1Oc1ccccc1

>  <score_type>  (77) 
oracle

>  <origin>  (77) 
adg

>  <m_score__min__energy>  (77) 
-12.16

>  <m_primary>  (77) 
energy

$$$$
77:0
     RDKit          3D

 42 43  0  0  0  0  0  0  0  0999 V2000
   55.3300   29.4150   45.0420 O   0  0  0  0  0  0  0  0  0  0  0  0
   56.5850   29.3420   44.9990 C   0  0  0  0  0  0  0  0  0  0  0  0
   57.1960   28.0570   44.8130 N   0  0  0  0  0  0  0  0  0  0  0  0
   58.0860   27.3860   45.7570 C   0  0  0  0  0  0  0  0  0  0  0  0
   57.3990   26.1630   46.3770 C   0  0  0  0  0  0  0  0  0  0  0  0
   56.1040   25.8020   45.6440 C   0  0  0  0  0  0  0  0  0  0  0  0
   55.0710   26.6830   46.0000 O   0  0  0  0  0  0  0  0  0  0  0  0
   57.3800   30.5750   45.1630 C   0  0  0  0  0  0  0  0  0  0  0  0
   56.9870   31.7510   44.5040 C   0  0  0  0  0  0  0  0  0  0  0  0
   57.7360   32.9230   44.6490 C   0  0  0  0  0  0  0  0  0  0  0  0
   58.8860   32.9260   45.4430 C   0  0  0  0  0  0  0  0  0  0  0  0
   59.2970   31.7550   46.0900 C   0  0  0  0  0  0  0  0  0  0  0  0
   60.7700   31.7590   47.0580 S   0  0  0  0  0  0  0  0  0  0  0  0
   61.6840   32.8540   46.5840 O   0  0  0  0  0  0  0  0  0  0  0  0
   61.4710   30.4430   46.8560 O   0  0  0  0  0  0  0  0  0  0  0  0
   60.3900   31.9570   48.7590 N   0  0  0  0  0  0  0  0  0  0  0  0
   61.5860   32.3530   49.5420 C   0  0  0  0  0  0  0  0  0  0  0  0
   61.6520   33.8700   49.7990 C   0  0  0  0  0  0  0  0  0  0  0  0
   61.0650   34.5790   48.7310 O   0  0  0  0  0  0  0  0  0  0  0  0
   59.6650   34.3600   48.7070 C   0  0  0  0  0  0  0  0  0  0  0  0
   59.2620   32.8880   48.9640 C   0  0  0  0  0  0  0  0  0  0  0  0
   58.5510   30.5780   45.9370 C   0  0  0  0  0  0  0  0  0  0  0  0
   58.9937   27.0603   45.2279 H   0  0  0  0  0  0  0  0  0  0  0  0
   58.3440   28.0911   46.5609 H   0  0  0  0  0  0  0  0  0  0  0  0
   58.0865   25.3058   46.3272 H   0  0  0  0  0  0  0  0  0  0  0  0
   57.1440   26.4072   47.4188 H   0  0  0  0  0  0  0  0  0  0  0  0
   56.2738   25.8641   44.5590 H   0  0  0  0  0  0  0  0  0  0  0  0
   55.8106   24.7801   45.9262 H   0  0  0  0  0  0  0  0  0  0  0  0
   55.1410   27.4680   45.3970 H   0  0  0  0  0  0  0  0  0  0  0  0
   56.0870   31.7504   43.8716 H   0  0  0  0  0  0  0  0  0  0  0  0
   57.4195   33.8439   44.1373 H   0  0  0  0  0  0  0  0  0  0  0  0
   59.4696   33.8511   45.5598 H   0  0  0  0  0  0  0  0  0  0  0  0
   60.0820   31.0140   49.0950 H   0  0  0  0  0  0  0  0  0  0  0  0
   61.5606   31.8326   50.5108 H   0  0  0  0  0  0  0  0  0  0  0  0
   62.4742   32.0763   48.9550 H   0  0  0  0  0  0  0  0  0  0  0  0
   61.1118   34.1033   50.7284 H   0  0  0  0  0  0  0  0  0  0  0  0
   62.7067   34.1698   49.8872 H   0  0  0  0  0  0  0  0  0  0  0  0
   59.2018   34.9875   49.4827 H   0  0  0  0  0  0  0  0  0  0  0  0
   59.3162   34.6174   47.6960 H   0  0  0  0  0  0  0  0  0  0  0  0
   58.9086   32.7934   50.0014 H   0  0  0  0  0  0  0  0  0  0  0  0
   58.4714   32.6240   48.2462 H   0  0  0  0  0  0  0  0  0  0  0  0
   58.8853   29.6513   46.4264 H   0  0  0  0  0  0  0  0  0  0  0  0
  1  2  2  0
  2  3  1  0
  3  4  1  0
  4  5  1  0
  5  6  1  0
  6  7  1  0
  2  8  1  0
  8  9  2  0
  9 10  1  0
 10 11  2  0
 11 12  1  0
 12 13  1  0
 13 14  2  0
 13 15  2  0
 13 16  1  0
 16 17  1  0
 17 18  1  0
 18 19  1  0
 19 20  1  0
 20 21  1  0
 12 22  2  0
 22  8  1  0
 21 16  1  0
  4 23  1  0
  4 24  1  0
  5 25  1  0
  5 26  1  0
  6 27  1  0
  6 28  1  0
  7 29  1  0
  9 30  1  0
 10 31  1  0
 11 32  1  0
 16 33  1  0
 17 34  1  0
 17 35  1  0
 18 36  1  0
 18 37  1  0
 20 38  1  0
 20 39  1  0
 21 40  1  0
 21 41  1  0
 22 42  1  0
M  CHG  2   3  -1  16   1
M  END
>  <UniqueID>  (78) 
68

>  <SMILES>  (78) 
O=C([N-]CCCO)c1cccc(S(=O)(=O)[NH+]2CCOCC2)c1

>  <Energy>  (78) 
50.668530806589295

>  <Genealogy>  (78) 
O=C([N-]CCCO)c1cccc(S(=O)(=O)[NH+]2CCOCC2)c1 (protonated)
O=C([N-]CCCO)c1cccc(S(=O)(=O)[NH+]2CCOCC2)c1 (3D coordinates assigned)
O=C([N-]CCCO)c1cccc(S(=O)(=O)[NH+]2CCOCC2)c1 (nonaromatic ring conformer: 50.668530806589295 kcal/mol)

>  <smiles>  (78) 
O=C(NCCCO)c1cccc(S(=O)(=O)N2CCOCC2)c1

>  <score_type>  (78) 
oracle

>  <origin>  (78) 
adg

>  <m_score__min__energy>  (78) 
-8.9000000000000004

>  <m_primary>  (78) 
energy

$$$$
78:0
     RDKit          3D

 62 65  0  0  1  0  0  0  0  0999 V2000
   58.2870   27.5420   44.1380 C   0  0  0  0  0  0  0  0  0  0  0  0
   59.0120   28.0470   45.3340 C   0  0  0  0  0  0  0  0  0  0  0  0
   60.0660   28.9230   45.1810 C   0  0  0  0  0  0  0  0  0  0  0  0
   60.7500   29.4030   46.2900 C   0  0  0  0  0  0  0  0  0  0  0  0
   60.3390   28.9750   47.5320 C   0  0  0  0  0  0  0  0  0  0  0  0
   61.0070   29.4410   48.6960 N   0  0  0  0  0  0  0  0  0  0  0  0
   61.3670   30.8020   48.8930 C   0  0  0  0  0  0  0  0  0  0  0  0
   60.4620   31.7510   48.4600 C   0  0  0  0  0  0  0  0  0  0  0  0
   60.7710   33.0820   48.6340 C   0  0  0  0  0  0  0  0  0  0  0  0
   59.9360   33.9830   48.2360 N   0  0  0  0  0  0  0  0  0  0  0  0
   59.3360   33.9630   46.9480 C   0  0  0  0  0  0  0  0  0  0  0  0
   59.5360   35.0370   46.1020 C   0  0  0  0  0  0  0  0  0  0  0  0
   58.9330   34.9690   44.8670 C   0  0  0  0  0  0  0  0  0  0  0  0
   58.1660   33.8550   44.5220 C   0  0  0  0  0  0  0  0  0  0  0  0
   57.9740   32.7930   45.3730 C   0  0  0  0  0  0  0  0  0  0  0  0
   57.2080   31.6430   45.0750 N   0  0  0  0  0  0  0  0  0  0  0  0
   57.0540   31.0450   43.8200 C   0  0  0  0  0  0  0  0  0  0  0  0
   57.5880   31.4600   42.7690 O   0  0  0  0  0  0  0  0  0  0  0  0
   56.1960   29.8120   43.6690 C   0  0  0  0  0  0  0  0  0  0  0  0
   55.5370   29.6480   44.8870 O   0  0  0  0  0  0  0  0  0  0  0  0
   58.5780   32.8650   46.6040 C   0  0  0  0  0  0  0  0  0  0  0  0
   61.9420   33.3920   49.2190 N   0  0  0  0  0  0  0  0  0  0  0  0
   62.8410   32.4940   49.6510 C   0  0  0  0  0  0  0  0  0  0  0  0
   64.0790   32.8810   50.2700 N   0  0  0  0  0  0  0  0  0  0  0  0
   65.3150   32.3260   49.7790 C   0  0  0  0  0  0  0  0  0  0  0  0
   66.3850   32.5810   50.8400 C   0  0  0  0  0  0  0  0  0  0  0  0
   66.4200   34.0360   50.9940 N   0  0  0  0  0  0  0  0  0  0  0  0
   67.6120   34.3210   51.7700 C   0  0  0  0  0  0  0  0  0  0  0  0
   65.2790   34.4590   51.7510 C   0  0  0  0  0  0  0  0  0  0  0  0
   63.9900   33.8230   51.3650 C   0  0  0  0  0  0  0  0  0  0  0  0
   62.5170   31.1910   49.4690 N   0  0  0  0  0  0  0  0  0  0  0  0
   59.2880   28.1020   47.6760 C   0  0  0  0  0  0  0  0  0  0  0  0
   58.5910   27.6110   46.5870 C   0  0  0  0  0  0  0  0  0  0  0  0
   57.4238   26.9407   44.4593 H   0  0  0  0  0  0  0  0  0  0  0  0
   57.9371   28.3928   43.5350 H   0  0  0  0  0  0  0  0  0  0  0  0
   58.9638   26.9189   43.5350 H   0  0  0  0  0  0  0  0  0  0  0  0
   60.3672   29.2439   44.1729 H   0  0  0  0  0  0  0  0  0  0  0  0
   61.5922   30.1020   46.1797 H   0  0  0  0  0  0  0  0  0  0  0  0
   61.2660   28.7820   49.4720 H   0  0  0  0  0  0  0  0  0  0  0  0
   59.5155   31.4507   47.9867 H   0  0  0  0  0  0  0  0  0  0  0  0
   60.1461   35.9022   46.4005 H   0  0  0  0  0  0  0  0  0  0  0  0
   59.0557   35.7943   44.1501 H   0  0  0  0  0  0  0  0  0  0  0  0
   57.6958   33.8259   43.5280 H   0  0  0  0  0  0  0  0  0  0  0  0
   56.6890   31.1720   45.8790 H   0  0  0  0  0  0  0  0  0  0  0  0
   55.4676   29.9509   42.8565 H   0  0  0  0  0  0  0  0  0  0  0  0
   56.8020   28.9290   43.4178 H   0  0  0  0  0  0  0  0  0  0  0  0
   55.1760   30.4950   45.2480 H   0  0  0  0  0  0  0  0  0  0  0  0
   58.4558   32.0398   47.3210 H   0  0  0  0  0  0  0  0  0  0  0  0
   65.2014   31.2447   49.6122 H   0  0  0  0  0  0  0  0  0  0  0  0
   65.5972   32.7923   48.8235 H   0  0  0  0  0  0  0  0  0  0  0  0
   66.1121   32.0974   51.7895 H   0  0  0  0  0  0  0  0  0  0  0  0
   67.3635   32.1707   50.5498 H   0  0  0  0  0  0  0  0  0  0  0  0
   67.3737   34.2640   52.8424 H   0  0  0  0  0  0  0  0  0  0  0  0
   68.3919   33.5840   51.5280 H   0  0  0  0  0  0  0  0  0  0  0  0
   67.9742   35.3311   51.5280 H   0  0  0  0  0  0  0  0  0  0  0  0
   65.4686   34.2281   52.8097 H   0  0  0  0  0  0  0  0  0  0  0  0
   65.1609   35.5339   51.5494 H   0  0  0  0  0  0  0  0  0  0  0  0
   63.5955   33.2902   52.2428 H   0  0  0  0  0  0  0  0  0  0  0  0
   63.3358   34.6369   51.0192 H   0  0  0  0  0  0  0  0  0  0  0  0
   63.1620   30.4310   49.7740 H   0  0  0  0  0  0  0  0  0  0  0  0
   58.9923   27.7843   48.6868 H   0  0  0  0  0  0  0  0  0  0  0  0
   57.7489   26.9132   46.7048 H   0  0  0  0  0  0  0  0  0  0  0  0
  1  2  1  0
  2  3  2  0
  3  4  1  0
  4  5  2  0
  5  6  1  0
  6  7  1  0
  7  8  2  0
  8  9  1  0
  9 10  2  0
 10 11  1  0
 11 12  2  0
 12 13  1  0
 13 14  2  0
 14 15  1  0
 15 16  1  0
 16 17  1  0
 17 18  2  0
 17 19  1  0
 19 20  1  0
 15 21  2  0
  9 22  1  0
 22 23  2  0
 23 24  1  0
 24 25  1  0
 25 26  1  0
 26 27  1  0
 27 28  1  0
 27 29  1  0
 29 30  1  0
 23 31  1  0
  5 32  1  0
 32 33  2  0
 33  2  1  0
 31  7  1  0
 21 11  1  0
 30 24  1  0
  1 34  1  0
  1 35  1  0
  1 36  1  0
  3 37  1  0
  4 38  1  0
  6 39  1  0
  8 40  1  0
 12 41  1  0
 13 42  1  0
 14 43  1  0
 16 44  1  0
 19 45  1  0
 19 46  1  0
 20 47  1  0
 21 48  1  0
 25 49  1  0
 25 50  1  0
 26 51  1  0
 26 52  1  0
 28 53  1  0
 28 54  1  0
 28 55  1  0
 29 56  1  0
 29 57  1  0
 30 58  1  0
 30 59  1  0
 31 60  1  0
 32 61  1  0
 33 62  1  0
M  END
>  <smiles>  (79) 
Cc1ccc(Nc2cc(=Nc3cccc(NC(=O)CO)c3)nc(N3CCN(C)CC3)[nH]2)cc1

>  <score_type>  (79) 
oracle

>  <origin>  (79) 
adg

>  <m_score__min__energy>  (79) 
-9.0800000000000001

>  <m_primary>  (79) 
energy

$$$$
79:0
     RDKit          3D

 60 64  0  0  1  0  0  0  0  0999 V2000
   60.7300   30.0440   50.4130 C   0  0  0  0  0  0  0  0  0  0  0  0
   59.4130   30.3790   50.0200 O   0  0  0  0  0  0  0  0  0  0  0  0
   58.5830   30.9740   50.9410 C   0  0  0  0  0  0  0  0  0  0  0  0
   57.7110   30.2170   51.7270 C   0  0  0  0  0  0  0  0  0  0  0  0
   56.8720   30.8130   52.6600 C   0  0  0  0  0  0  0  0  0  0  0  0
   55.9950   30.0150   53.4380 N   0  0  0  0  0  0  0  0  0  0  0  0
   54.5540   30.0380   53.3240 C   0  0  0  0  0  0  0  0  0  0  0  0
   54.1270   28.6400   52.8720 C   0  0  0  0  0  0  0  0  0  0  0  0
   54.9500   27.6590   53.3620 O   0  0  0  0  0  0  0  0  0  0  0  0
   55.5200   27.9840   54.5920 C   0  0  0  0  0  0  0  0  0  0  0  0
   56.5470   29.0920   54.4310 C   0  0  0  0  0  0  0  0  0  0  0  0
   56.9520   32.1840   52.7610 C   0  0  0  0  0  0  0  0  0  0  0  0
   57.8150   32.9480   51.9850 C   0  0  0  0  0  0  0  0  0  0  0  0
   58.6450   32.3470   51.0620 C   0  0  0  0  0  0  0  0  0  0  0  0
   59.5460   33.0860   50.2450 N   0  0  0  0  0  0  0  0  0  0  0  0
   59.2670   33.1980   48.9910 C   0  0  0  0  0  0  0  0  0  0  0  0
   58.6370   32.2480   48.2780 N   0  0  0  0  0  0  0  0  0  0  0  0
   58.3850   32.4540   46.9680 C   0  0  0  0  0  0  0  0  0  0  0  0
   57.7890   31.5920   46.2180 N   0  0  0  0  0  0  0  0  0  0  0  0
   58.5570   30.4910   45.7560 C   0  0  0  0  0  0  0  0  0  0  0  0
   59.8490   30.3610   46.2690 C   0  0  0  0  0  0  0  0  0  0  0  0
   60.6510   29.3080   45.8570 C   0  0  0  0  0  0  0  0  0  0  0  0
   60.1540   28.4010   44.9410 C   0  0  0  0  0  0  0  0  0  0  0  0
   58.8740   28.5300   44.4320 C   0  0  0  0  0  0  0  0  0  0  0  0
   58.0720   29.5800   44.8420 C   0  0  0  0  0  0  0  0  0  0  0  0
   56.4600   29.7350   44.2000 S   0  0  0  0  0  0  0  0  0  0  0  0
   56.4080   29.3360   42.5190 N   0  0  0  0  0  0  0  0  0  0  0  0
   55.9080   31.1050   44.4710 O   0  0  0  0  0  0  0  0  0  0  0  0
   55.5220   28.7620   44.8810 O   0  0  0  0  0  0  0  0  0  0  0  0
   58.7740   33.6350   46.3700 C   0  0  0  0  0  0  0  0  0  0  0  0
   58.6590   34.1280   45.0740 C   0  0  0  0  0  0  0  0  0  0  0  0
   59.2490   35.3880   45.0990 C   0  0  0  0  0  0  0  0  0  0  0  0
   59.7040   35.6760   46.3120 N   0  0  0  0  0  0  0  0  0  0  0  0
   59.4280   34.6240   47.1050 C   0  0  0  0  0  0  0  0  0  0  0  0
   59.6540   34.3690   48.4080 N   0  0  0  0  0  0  0  0  0  0  0  0
   60.7921   30.0282   51.5111 H   0  0  0  0  0  0  0  0  0  0  0  0
   60.9896   29.0512   50.0167 H   0  0  0  0  0  0  0  0  0  0  0  0
   61.4324   30.7921   50.0167 H   0  0  0  0  0  0  0  0  0  0  0  0
   57.6882   29.1241   51.6044 H   0  0  0  0  0  0  0  0  0  0  0  0
   54.1004   30.2769   54.2972 H   0  0  0  0  0  0  0  0  0  0  0  0
   54.2258   30.8038   52.6058 H   0  0  0  0  0  0  0  0  0  0  0  0
   53.1028   28.4515   53.2261 H   0  0  0  0  0  0  0  0  0  0  0  0
   54.1853   28.6097   51.7740 H   0  0  0  0  0  0  0  0  0  0  0  0
   54.7295   28.3211   55.2787 H   0  0  0  0  0  0  0  0  0  0  0  0
   56.0216   27.0924   54.9964 H   0  0  0  0  0  0  0  0  0  0  0  0
   56.7032   29.6101   55.3887 H   0  0  0  0  0  0  0  0  0  0  0  0
   57.5215   28.6938   54.1120 H   0  0  0  0  0  0  0  0  0  0  0  0
   56.3045   32.6966   53.4876 H   0  0  0  0  0  0  0  0  0  0  0  0
   57.8364   34.0409   52.1078 H   0  0  0  0  0  0  0  0  0  0  0  0
   58.3500   31.3720   48.7250 H   0  0  0  0  0  0  0  0  0  0  0  0
   60.2293   31.0919   46.9978 H   0  0  0  0  0  0  0  0  0  0  0  0
   61.6705   29.1960   46.2545 H   0  0  0  0  0  0  0  0  0  0  0  0
   60.7859   27.5632   44.6112 H   0  0  0  0  0  0  0  0  0  0  0  0
   58.4947   27.7991   43.7027 H   0  0  0  0  0  0  0  0  0  0  0  0
   55.5360   29.6850   42.0680 H   0  0  0  0  0  0  0  0  0  0  0  0
   57.2830   29.5570   42.0110 H   0  0  0  0  0  0  0  0  0  0  0  0
   58.1981   33.6266   44.2102 H   0  0  0  0  0  0  0  0  0  0  0  0
   59.3278   36.0565   44.2290 H   0  0  0  0  0  0  0  0  0  0  0  0
   60.1880   36.5490   46.6080 H   0  0  0  0  0  0  0  0  0  0  0  0
   60.1450   35.1160   48.9540 H   0  0  0  0  0  0  0  0  0  0  0  0
  1  2  1  0
  2  3  1  0
  3  4  2  0
  4  5  1  0
  5  6  1  0
  6  7  1  0
  7  8  1  0
  8  9  1  0
  9 10  1  0
 10 11  1  0
  5 12  2  0
 12 13  1  0
 13 14  2  0
 14 15  1  0
 15 16  2  0
 16 17  1  0
 17 18  1  0
 18 19  2  0
 19 20  1  0
 20 21  2  0
 21 22  1  0
 22 23  2  0
 23 24  1  0
 24 25  2  0
 25 26  1  0
 26 27  1  0
 26 28  2  0
 26 29  2  0
 18 30  1  0
 30 31  1  0
 31 32  2  0
 32 33  1  0
 33 34  1  0
 34 35  1  0
 14  3  1  0
 35 16  1  0
 11  6  1  0
 25 20  1  0
 34 30  2  0
  1 36  1  0
  1 37  1  0
  1 38  1  0
  4 39  1  0
  7 40  1  0
  7 41  1  0
  8 42  1  0
  8 43  1  0
 10 44  1  0
 10 45  1  0
 11 46  1  0
 11 47  1  0
 12 48  1  0
 13 49  1  0
 17 50  1  0
 21 51  1  0
 22 52  1  0
 23 53  1  0
 24 54  1  0
 27 55  1  0
 27 56  1  0
 31 57  1  0
 32 58  1  0
 33 59  1  0
 35 60  1  0
M  END
>  <smiles>  (80) 
COc1cc(N2CCOCC2)ccc1N=c1[nH]c(=Nc2ccccc2S(N)(=O)=O)c2cc[nH]c2[nH]1

>  <score_type>  (80) 
oracle

>  <origin>  (80) 
adg

>  <m_score__min__energy>  (80) 
-9.5800000000000001

>  <m_primary>  (80) 
energy

$$$$
80:0
     RDKit          3D

 53 56  0  0  0  0  0  0  0  0999 V2000
   56.2720   26.9500   46.5360 O   0  0  0  0  0  0  0  0  0  0  0  0
   57.0970   27.7600   45.5730 S   0  0  0  0  0  0  0  0  0  0  0  0
   57.6180   26.8400   44.5060 O   0  0  0  0  0  0  0  0  0  0  0  0
   56.0780   28.9970   44.9000 N   0  0  0  0  0  0  0  0  0  0  0  0
   56.5480   30.1500   44.1910 C   0  0  0  0  0  0  0  0  0  0  0  0
   56.5940   30.1100   42.7920 C   0  0  0  0  0  0  0  0  0  0  0  0
   57.0270   31.2240   42.0660 C   0  0  0  0  0  0  0  0  0  0  0  0
   57.4480   32.3740   42.7370 C   0  0  0  0  0  0  0  0  0  0  0  0
   57.4450   32.4130   44.1410 C   0  0  0  0  0  0  0  0  0  0  0  0
   58.0260   33.8350   45.0030 S   0  0  0  0  0  0  0  0  0  0  0  0
   59.3270   34.3200   44.4230 O   0  0  0  0  0  0  0  0  0  0  0  0
   57.0070   34.9310   44.8750 O   0  0  0  0  0  0  0  0  0  0  0  0
   58.2490   33.4610   46.6830 N   0  0  0  0  0  0  0  0  0  0  0  0
   59.5080   33.4520   47.3710 C   0  0  0  0  0  0  0  0  0  0  0  0
   59.5060   33.5060   48.7690 C   0  0  0  0  0  0  0  0  0  0  0  0
   60.7090   33.5180   49.4830 C   0  0  0  0  0  0  0  0  0  0  0  0
   61.9350   33.4780   48.8050 C   0  0  0  0  0  0  0  0  0  0  0  0
   63.1780   33.5000   49.5300 N   0  0  0  0  0  0  0  0  0  0  0  0
   63.3830   34.4590   50.6190 C   0  0  0  0  0  0  0  0  0  0  0  0
   64.3970   33.8870   51.6150 C   0  0  0  0  0  0  0  0  0  0  0  0
   65.5920   33.5200   50.9470 O   0  0  0  0  0  0  0  0  0  0  0  0
   65.3320   32.4420   50.0680 C   0  0  0  0  0  0  0  0  0  0  0  0
   64.3610   32.8530   48.9540 C   0  0  0  0  0  0  0  0  0  0  0  0
   61.9400   33.4210   47.4040 C   0  0  0  0  0  0  0  0  0  0  0  0
   60.7370   33.4180   46.6890 C   0  0  0  0  0  0  0  0  0  0  0  0
   56.9860   31.3030   44.8630 C   0  0  0  0  0  0  0  0  0  0  0  0
   58.4400   28.5160   46.4280 C   0  0  0  0  0  0  0  0  0  0  0  0
   59.4110   29.2340   45.7100 C   0  0  0  0  0  0  0  0  0  0  0  0
   60.4710   29.8520   46.3810 C   0  0  0  0  0  0  0  0  0  0  0  0
   60.5720   29.7520   47.7710 C   0  0  0  0  0  0  0  0  0  0  0  0
   59.6140   29.0290   48.4910 C   0  0  0  0  0  0  0  0  0  0  0  0
   58.5490   28.4130   47.8230 C   0  0  0  0  0  0  0  0  0  0  0  0
   56.2877   29.1967   42.2609 H   0  0  0  0  0  0  0  0  0  0  0  0
   57.0360   31.1944   40.9664 H   0  0  0  0  0  0  0  0  0  0  0  0
   57.7828   33.2516   42.1645 H   0  0  0  0  0  0  0  0  0  0  0  0
   58.5498   33.5393   49.3117 H   0  0  0  0  0  0  0  0  0  0  0  0
   60.6926   33.5590   50.5821 H   0  0  0  0  0  0  0  0  0  0  0  0
   63.7654   35.4050   50.2081 H   0  0  0  0  0  0  0  0  0  0  0  0
   62.4274   34.6433   51.1317 H   0  0  0  0  0  0  0  0  0  0  0  0
   64.6260   34.6474   52.3762 H   0  0  0  0  0  0  0  0  0  0  0  0
   63.9654   32.9941   52.0909 H   0  0  0  0  0  0  0  0  0  0  0  0
   66.2787   32.1129   49.6148 H   0  0  0  0  0  0  0  0  0  0  0  0
   64.8727   31.6262   50.6455 H   0  0  0  0  0  0  0  0  0  0  0  0
   64.8645   33.5552   48.2733 H   0  0  0  0  0  0  0  0  0  0  0  0
   64.0470   31.9555   48.4009 H   0  0  0  0  0  0  0  0  0  0  0  0
   62.8967   33.3783   46.8628 H   0  0  0  0  0  0  0  0  0  0  0  0
   60.7530   33.3889   45.5895 H   0  0  0  0  0  0  0  0  0  0  0  0
   56.9687   31.3349   45.9624 H   0  0  0  0  0  0  0  0  0  0  0  0
   59.3371   29.3104   44.6151 H   0  0  0  0  0  0  0  0  0  0  0  0
   61.2256   30.4171   45.8142 H   0  0  0  0  0  0  0  0  0  0  0  0
   61.4038   30.2411   48.2990 H   0  0  0  0  0  0  0  0  0  0  0  0
   59.6981   28.9446   49.5845 H   0  0  0  0  0  0  0  0  0  0  0  0
   57.7967   27.8475   48.3925 H   0  0  0  0  0  0  0  0  0  0  0  0
  1  2  2  0
  2  3  2  0
  2  4  1  0
  4  5  1  0
  5  6  2  0
  6  7  1  0
  7  8  2  0
  8  9  1  0
  9 10  1  0
 10 11  2  0
 10 12  2  0
 10 13  1  0
 13 14  1  0
 14 15  2  0
 15 16  1  0
 16 17  2  0
 17 18  1  0
 18 19  1  0
 19 20  1  0
 20 21  1  0
 21 22  1  0
 22 23  1  0
 17 24  1  0
 24 25  2  0
  9 26  2  0
  2 27  1  0
 27 28  2  0
 28 29  1  0
 29 30  2  0
 30 31  1  0
 31 32  2  0
 26  5  1  0
 32 27  1  0
 25 14  1  0
 23 18  1  0
  6 33  1  0
  7 34  1  0
  8 35  1  0
 15 36  1  0
 16 37  1  0
 19 38  1  0
 19 39  1  0
 20 40  1  0
 20 41  1  0
 22 42  1  0
 22 43  1  0
 23 44  1  0
 23 45  1  0
 24 46  1  0
 25 47  1  0
 26 48  1  0
 28 49  1  0
 29 50  1  0
 30 51  1  0
 31 52  1  0
 32 53  1  0
M  CHG  2   4  -1  13  -1
M  END
>  <UniqueID>  (81) 
69

>  <SMILES>  (81) 
O=S(=O)([N-]c1cccc(S(=O)(=O)[N-]c2ccc(N3CCOCC3)cc2)c1)c1ccccc1

>  <Energy>  (81) 
72.42722688505883

>  <Genealogy>  (81) 
O=S(=O)([N-]c1cccc(S(=O)(=O)[N-]c2ccc(N3CCOCC3)cc2)c1)c1ccccc1 (protonated)
O=S(=O)([N-]c1cccc(S(=O)(=O)[N-]c2ccc(N3CCOCC3)cc2)c1)c1ccccc1 (3D coordinates assigned)
O=S(=O)([N-]c1cccc(S(=O)(=O)[N-]c2ccc(N3CCOCC3)cc2)c1)c1ccccc1 (nonaromatic ring conformer: 72.42722688505883 kcal/mol)

>  <smiles>  (81) 
O=S(=O)(Nc1cccc(S(=O)(=O)Nc2ccc(N3CCOCC3)cc2)c1)c1ccccc1

>  <score_type>  (81) 
oracle

>  <origin>  (81) 
adg

>  <m_score__min__energy>  (81) 
-13.890000000000001

>  <m_primary>  (81) 
energy

$$$$
81:0
     RDKit          3D

 28 30  0  0  0  0  0  0  0  0999 V2000
   58.0148   33.1107   43.4789 H   0  0  0  0  0  0  0  0  0  0  0  0
   58.1780   32.6690   44.4730 C   0  0  0  0  0  0  0  0  0  0  0  0
   57.9520   31.3430   44.6040 C   0  0  0  0  0  0  0  0  0  0  0  0
   58.8960   30.5170   45.4010 C   0  0  0  0  0  0  0  0  0  0  0  0
   60.0000   31.0030   45.7770 O   0  0  0  0  0  0  0  0  0  0  0  0
   58.5520   29.1230   45.7620 C   0  0  0  0  0  0  0  0  0  0  0  0
   59.4570   28.3290   46.4910 C   0  0  0  0  0  0  0  0  0  0  0  0
   60.4407   28.7363   46.7676 H   0  0  0  0  0  0  0  0  0  0  0  0
   59.1150   27.0270   46.8660 C   0  0  0  0  0  0  0  0  0  0  0  0
   59.8306   26.4119   47.4313 H   0  0  0  0  0  0  0  0  0  0  0  0
   57.8670   26.5070   46.5240 C   0  0  0  0  0  0  0  0  0  0  0  0
   57.5981   25.4832   46.8232 H   0  0  0  0  0  0  0  0  0  0  0  0
   56.9590   27.2830   45.8030 C   0  0  0  0  0  0  0  0  0  0  0  0
   55.9747   26.8687   45.5393 H   0  0  0  0  0  0  0  0  0  0  0  0
   57.2940   28.5920   45.4110 C   0  0  0  0  0  0  0  0  0  0  0  0
   56.3370   29.4110   44.6350 C   0  0  0  0  0  0  0  0  0  0  0  0
   55.1440   29.0270   44.4980 O   0  0  0  0  0  0  0  0  0  0  0  0
   56.7790   30.6610   43.9290 C   0  0  0  0  0  0  0  0  0  0  0  0
   57.0711   30.3979   42.9016 H   0  0  0  0  0  0  0  0  0  0  0  0
   55.9342   31.3652   43.9500 H   0  0  0  0  0  0  0  0  0  0  0  0
   58.6250   33.5760   45.5490 C   0  0  0  0  0  0  0  0  0  0  0  0
   58.4250   33.2540   47.1860 S   0  0  0  0  0  0  0  0  0  0  0  0
   59.2620   34.5960   47.7510 C   0  0  0  0  0  0  0  0  0  0  0  0
   59.4086   34.8672   48.8069 H   0  0  0  0  0  0  0  0  0  0  0  0
   59.7370   35.3040   46.6550 C   0  0  0  0  0  0  0  0  0  0  0  0
   60.3266   36.2282   46.7453 H   0  0  0  0  0  0  0  0  0  0  0  0
   59.3950   34.7310   45.4240 C   0  0  0  0  0  0  0  0  0  0  0  0
   59.7033   35.1505   44.4550 H   0  0  0  0  0  0  0  0  0  0  0  0
  1  2  1  0
  2  3  2  0
  3  4  1  0
  4  5  2  0
  4  6  1  0
  6  7  2  0
  7  8  1  0
  7  9  1  0
  9 10  1  0
  9 11  2  0
 11 12  1  0
 11 13  1  0
 13 14  1  0
 13 15  2  0
 15 16  1  0
 16 17  2  0
 16 18  1  0
 18 19  1  0
 18 20  1  0
  2 21  1  0
 21 22  1  0
 22 23  1  0
 23 24  1  0
 23 25  2  0
 25 26  1  0
 25 27  1  0
 27 28  1  0
 18  3  1  0
 27 21  2  0
 15  6  1  0
M  END
>  <UniqueID>  (82) 
70

>  <SMILES>  (82) 
O=C1C/C(=C\c2cccs2)C(=O)c2ccccc21

>  <Energy>  (82) 
66.0308917399393

>  <Genealogy>  (82) 
O=C1C/C(=C\c2cccs2)C(=O)c2ccccc21 (cis-trans isomerization)
O=C1C/C(=C\c2cccs2)C(=O)c2ccccc21 (3D coordinates assigned)
O=C1C/C(=C\c2cccs2)C(=O)c2ccccc21 (nonaromatic ring conformer: 66.0308917399393 kcal/mol)

>  <smiles>  (82) 
O=C1CC(=Cc2cccs2)C(=O)c2ccccc21

>  <score_type>  (82) 
oracle

>  <origin>  (82) 
adg

>  <m_score__min__energy>  (82) 
-7.6100000000000003

>  <m_primary>  (82) 
energy

$$$$
82:0
     RDKit          3D

 58 60  0  0  0  0  0  0  0  0999 V2000
   57.9940   27.5050   43.3200 C   0  0  0  0  0  0  0  0  0  0  0  0
   58.5110   28.2200   44.5380 C   0  0  0  0  0  0  0  0  0  0  0  0
   59.6860   27.7560   45.1510 C   0  0  0  0  0  0  0  0  0  0  0  0
   60.1920   28.3850   46.2860 C   0  0  0  0  0  0  0  0  0  0  0  0
   59.5320   29.4910   46.8380 C   0  0  0  0  0  0  0  0  0  0  0  0
   60.0600   30.1350   48.0950 C   0  0  0  0  0  0  0  0  0  0  0  0
   59.1020   31.2040   48.6520 C   0  0  0  0  0  0  0  0  0  0  0  0
   58.8880   31.1030   50.1740 C   0  0  0  0  0  0  0  0  0  0  0  0
   58.1590   32.2760   50.7130 N   0  0  0  0  0  0  0  0  0  0  0  0
   59.1130   33.2670   51.2380 C   0  0  0  0  0  0  0  0  0  0  0  0
   57.2150   31.8840   51.7730 C   0  0  0  0  0  0  0  0  0  0  0  0
   58.3620   29.9670   46.2280 C   0  0  0  0  0  0  0  0  0  0  0  0
   57.8450   29.3470   45.0790 C   0  0  0  0  0  0  0  0  0  0  0  0
   56.3720   30.0030   44.3430 S   0  0  0  0  0  0  0  0  0  0  0  0
   56.4100   29.7550   42.8630 O   0  0  0  0  0  0  0  0  0  0  0  0
   55.1470   29.3370   44.9030 O   0  0  0  0  0  0  0  0  0  0  0  0
   56.2650   31.7090   44.6370 N   0  0  0  0  0  0  0  0  0  0  0  0
   57.3030   32.5100   45.2190 C   0  0  0  0  0  0  0  0  0  0  0  0
   58.5130   32.7630   44.5530 C   0  0  0  0  0  0  0  0  0  0  0  0
   59.4960   33.5560   45.1520 C   0  0  0  0  0  0  0  0  0  0  0  0
   59.2760   34.1260   46.4150 C   0  0  0  0  0  0  0  0  0  0  0  0
   60.3420   34.9620   47.0700 C   0  0  0  0  0  0  0  0  0  0  0  0
   61.4800   34.0960   47.5390 C   0  0  0  0  0  0  0  0  0  0  0  0
   61.4890   33.5780   48.8410 C   0  0  0  0  0  0  0  0  0  0  0  0
   62.5700   32.8030   49.2690 C   0  0  0  0  0  0  0  0  0  0  0  0
   63.6070   32.5590   48.4270 N   0  0  0  0  0  0  0  0  0  0  0  0
   63.6290   33.0550   47.1620 C   0  0  0  0  0  0  0  0  0  0  0  0
   62.5700   33.8360   46.6950 C   0  0  0  0  0  0  0  0  0  0  0  0
   58.0630   33.8810   47.0730 C   0  0  0  0  0  0  0  0  0  0  0  0
   57.0890   33.0710   46.4850 C   0  0  0  0  0  0  0  0  0  0  0  0
   57.3758   26.6501   43.6315 H   0  0  0  0  0  0  0  0  0  0  0  0
   57.3862   28.1972   42.7189 H   0  0  0  0  0  0  0  0  0  0  0  0
   58.8418   27.1447   42.7189 H   0  0  0  0  0  0  0  0  0  0  0  0
   60.2124   26.8865   44.7304 H   0  0  0  0  0  0  0  0  0  0  0  0
   61.1156   28.0112   46.7520 H   0  0  0  0  0  0  0  0  0  0  0  0
   60.2027   29.3559   48.8583 H   0  0  0  0  0  0  0  0  0  0  0  0
   61.0090   30.6318   47.8449 H   0  0  0  0  0  0  0  0  0  0  0  0
   59.5172   32.1967   48.4238 H   0  0  0  0  0  0  0  0  0  0  0  0
   58.1237   31.0419   48.1759 H   0  0  0  0  0  0  0  0  0  0  0  0
   58.3077   30.1941   50.3912 H   0  0  0  0  0  0  0  0  0  0  0  0
   59.8772   31.0687   50.6539 H   0  0  0  0  0  0  0  0  0  0  0  0
   59.0941   33.2474   52.3377 H   0  0  0  0  0  0  0  0  0  0  0  0
   60.1259   33.0241   50.8843 H   0  0  0  0  0  0  0  0  0  0  0  0
   58.8318   34.2699   50.8843 H   0  0  0  0  0  0  0  0  0  0  0  0
   57.6694   32.0727   52.7568 H   0  0  0  0  0  0  0  0  0  0  0  0
   56.2908   32.4727   51.6770 H   0  0  0  0  0  0  0  0  0  0  0  0
   56.9797   30.8138   51.6770 H   0  0  0  0  0  0  0  0  0  0  0  0
   57.8426   30.8374   46.6553 H   0  0  0  0  0  0  0  0  0  0  0  0
   58.6882   32.3350   43.5549 H   0  0  0  0  0  0  0  0  0  0  0  0
   60.4477   33.7342   44.6300 H   0  0  0  0  0  0  0  0  0  0  0  0
   60.7218   35.6968   46.3448 H   0  0  0  0  0  0  0  0  0  0  0  0
   59.9057   35.4760   47.9391 H   0  0  0  0  0  0  0  0  0  0  0  0
   60.6496   33.7804   49.5225 H   0  0  0  0  0  0  0  0  0  0  0  0
   62.5810   32.3903   50.2886 H   0  0  0  0  0  0  0  0  0  0  0  0
   64.4839   32.8405   46.5038 H   0  0  0  0  0  0  0  0  0  0  0  0
   62.5902   34.2441   45.6737 H   0  0  0  0  0  0  0  0  0  0  0  0
   57.8768   34.3300   48.0598 H   0  0  0  0  0  0  0  0  0  0  0  0
   56.1481   32.8722   47.0190 H   0  0  0  0  0  0  0  0  0  0  0  0
  1  2  1  0
  2  3  2  0
  3  4  1  0
  4  5  2  0
  5  6  1  0
  6  7  1  0
  7  8  1  0
  8  9  1  0
  9 10  1  0
  9 11  1  0
  5 12  1  0
 12 13  2  0
 13 14  1  0
 14 15  2  0
 14 16  2  0
 14 17  1  0
 17 18  1  0
 18 19  2  0
 19 20  1  0
 20 21  2  0
 21 22  1  0
 22 23  1  0
 23 24  2  0
 24 25  1  0
 25 26  2  0
 26 27  1  0
 27 28  2  0
 21 29  1  0
 29 30  2  0
 13  2  1  0
 30 18  1  0
 28 23  1  0
  1 31  1  0
  1 32  1  0
  1 33  1  0
  3 34  1  0
  4 35  1  0
  6 36  1  0
  6 37  1  0
  7 38  1  0
  7 39  1  0
  8 40  1  0
  8 41  1  0
 10 42  1  0
 10 43  1  0
 10 44  1  0
 11 45  1  0
 11 46  1  0
 11 47  1  0
 12 48  1  0
 19 49  1  0
 20 50  1  0
 22 51  1  0
 22 52  1  0
 24 53  1  0
 25 54  1  0
 27 55  1  0
 28 56  1  0
 29 57  1  0
 30 58  1  0
M  CHG  1  17  -1
M  END
>  <UniqueID>  (83) 
71

>  <SMILES>  (83) 
Cc1ccc(CCCN(C)C)cc1S(=O)(=O)[N-]c1ccc(Cc2ccncc2)cc1

>  <Energy>  (83) 
59.44712082160082

>  <Genealogy>  (83) 
Cc1ccc(CCCN(C)C)cc1S(=O)(=O)[N-]c1ccc(Cc2ccncc2)cc1 (protonated)
Cc1ccc(CCCN(C)C)cc1S(=O)(=O)[N-]c1ccc(Cc2ccncc2)cc1 (3D coordinates assigned)
Cc1ccc(CCCN(C)C)cc1S(=O)(=O)[N-]c1ccc(Cc2ccncc2)cc1 (optimized conformer: 59.44712082160082 kcal/mol)

>  <smiles>  (83) 
Cc1ccc(CCCN(C)C)cc1S(=O)(=O)Nc1ccc(Cc2ccncc2)cc1

>  <score_type>  (83) 
oracle

>  <origin>  (83) 
adg

>  <m_score__min__energy>  (83) 
-11.390000000000001

>  <m_primary>  (83) 
energy

$$$$
83:0
     RDKit          3D

 43 45  0  0  0  0  0  0  0  0999 V2000
   54.2700   25.1190   45.6210 C   0  0  0  0  0  0  0  0  0  0  0  0
   54.9660   26.3350   46.0120 N   0  0  0  0  0  0  0  0  0  0  0  0
   56.3790   26.3830   46.2440 C   0  0  0  0  0  0  0  0  0  0  0  0
   56.9380   25.4670   46.9070 O   0  0  0  0  0  0  0  0  0  0  0  0
   57.1890   27.4900   45.7020 C   0  0  0  0  0  0  0  0  0  0  0  0
   56.6660   28.7890   45.5970 C   0  0  0  0  0  0  0  0  0  0  0  0
   57.4510   29.8120   45.0350 C   0  0  0  0  0  0  0  0  0  0  0  0
   56.9740   31.1250   44.8940 O   0  0  0  0  0  0  0  0  0  0  0  0
   57.6530   32.2810   45.3100 C   0  0  0  0  0  0  0  0  0  0  0  0
   57.9640   33.2580   44.3600 C   0  0  0  0  0  0  0  0  0  0  0  0
   58.6680   34.4050   44.7340 C   0  0  0  0  0  0  0  0  0  0  0  0
   59.0520   34.5920   46.0640 C   0  0  0  0  0  0  0  0  0  0  0  0
   58.7030   33.6430   47.0440 C   0  0  0  0  0  0  0  0  0  0  0  0
   59.1160   33.7800   48.4150 N   0  0  0  0  0  0  0  0  0  0  0  0
   59.0400   32.7380   49.4000 C   0  0  0  0  0  0  0  0  0  0  0  0
   59.1330   31.5310   49.0550 O   0  0  0  0  0  0  0  0  0  0  0  0
   58.9660   33.0580   50.7950 N   0  0  0  0  0  0  0  0  0  0  0  0
   58.2940   32.2810   51.7980 C   0  0  0  0  0  0  0  0  0  0  0  0
   58.8990   31.9840   53.0330 C   0  0  0  0  0  0  0  0  0  0  0  0
   58.2100   31.2350   53.9920 C   0  0  0  0  0  0  0  0  0  0  0  0
   56.9090   30.7970   53.7350 C   0  0  0  0  0  0  0  0  0  0  0  0
   56.2900   31.1130   52.5220 C   0  0  0  0  0  0  0  0  0  0  0  0
   54.5060   30.5260   52.1790 Br  0  0  0  0  0  0  0  0  0  0  0  0
   56.9790   31.8610   51.5600 C   0  0  0  0  0  0  0  0  0  0  0  0
   57.9990   32.4930   46.6570 C   0  0  0  0  0  0  0  0  0  0  0  0
   58.7600   29.5240   44.6390 C   0  0  0  0  0  0  0  0  0  0  0  0
   59.2530   28.2260   44.7720 C   0  0  0  0  0  0  0  0  0  0  0  0
   58.4630   27.2470   45.2890 N   0  0  0  0  0  0  0  0  0  0  0  0
   53.9561   24.5705   46.5214 H   0  0  0  0  0  0  0  0  0  0  0  0
   53.3843   25.3796   45.0230 H   0  0  0  0  0  0  0  0  0  0  0  0
   54.9433   24.4873   45.0230 H   0  0  0  0  0  0  0  0  0  0  0  0
   55.6477   29.0054   45.9524 H   0  0  0  0  0  0  0  0  0  0  0  0
   57.6531   33.1230   43.3135 H   0  0  0  0  0  0  0  0  0  0  0  0
   58.9209   35.1636   43.9786 H   0  0  0  0  0  0  0  0  0  0  0  0
   59.6295   35.4844   46.3470 H   0  0  0  0  0  0  0  0  0  0  0  0
   59.5160   34.6970   48.7180 H   0  0  0  0  0  0  0  0  0  0  0  0
   59.9173   32.3421   53.2449 H   0  0  0  0  0  0  0  0  0  0  0  0
   58.6931   30.9906   54.9495 H   0  0  0  0  0  0  0  0  0  0  0  0
   56.3707   30.2026   54.4880 H   0  0  0  0  0  0  0  0  0  0  0  0
   56.4851   32.1204   50.6120 H   0  0  0  0  0  0  0  0  0  0  0  0
   57.7143   31.7487   47.4153 H   0  0  0  0  0  0  0  0  0  0  0  0
   59.3988   30.3176   44.2242 H   0  0  0  0  0  0  0  0  0  0  0  0
   60.2815   27.9940   44.4585 H   0  0  0  0  0  0  0  0  0  0  0  0
  1  2  1  0
  2  3  1  0
  3  4  2  0
  3  5  1  0
  5  6  2  0
  6  7  1  0
  7  8  1  0
  8  9  1  0
  9 10  2  0
 10 11  1  0
 11 12  2  0
 12 13  1  0
 13 14  1  0
 14 15  1  0
 15 16  2  0
 15 17  1  0
 17 18  1  0
 18 19  2  0
 19 20  1  0
 20 21  2  0
 21 22  1  0
 22 23  1  0
 22 24  2  0
 13 25  2  0
  7 26  2  0
 26 27  1  0
 27 28  2  0
 28  5  1  0
 25  9  1  0
 24 18  1  0
  1 29  1  0
  1 30  1  0
  1 31  1  0
  6 32  1  0
 10 33  1  0
 11 34  1  0
 12 35  1  0
 14 36  1  0
 19 37  1  0
 20 38  1  0
 21 39  1  0
 24 40  1  0
 25 41  1  0
 26 42  1  0
 27 43  1  0
M  CHG  2   2  -1  17  -1
M  END
>  <UniqueID>  (84) 
72

>  <SMILES>  (84) 
C[N-]C(=O)c1cc(Oc2cccc(NC(=O)[N-]c3cccc(Br)c3)c2)ccn1

>  <Energy>  (84) 
56.007808560035436

>  <Genealogy>  (84) 
C[N-]C(=O)c1cc(Oc2cccc(NC(=O)[N-]c3cccc(Br)c3)c2)ccn1 (protonated)
C[N-]C(=O)c1cc(Oc2cccc(NC(=O)[N-]c3cccc(Br)c3)c2)ccn1 (3D coordinates assigned)
C[N-]C(=O)c1cc(Oc2cccc(NC(=O)[N-]c3cccc(Br)c3)c2)ccn1 (optimized conformer: 56.007808560035436 kcal/mol)

>  <smiles>  (84) 
CNC(=O)c1cc(Oc2cccc(NC(=O)Nc3cccc(Br)c3)c2)ccn1

>  <score_type>  (84) 
oracle

>  <origin>  (84) 
adg

>  <m_score__min__energy>  (84) 
-13.15

>  <m_primary>  (84) 
energy

$$$$
84:0
     RDKit          3D

 51 53  0  0  0  0  0  0  0  0999 V2000
   55.1310   26.4090   45.9780 N   0  0  0  0  0  0  0  0  0  0  0  0
   56.7690   25.8780   46.1360 S   0  0  0  0  0  0  0  0  0  0  0  0
   56.8270   24.7460   47.1230 O   0  0  0  0  0  0  0  0  0  0  0  0
   57.2580   25.4050   44.7950 O   0  0  0  0  0  0  0  0  0  0  0  0
   57.7950   27.1940   46.6980 C   0  0  0  0  0  0  0  0  0  0  0  0
   58.7320   26.9870   47.7200 C   0  0  0  0  0  0  0  0  0  0  0  0
   59.5290   28.0440   48.1680 C   0  0  0  0  0  0  0  0  0  0  0  0
   59.4200   29.3150   47.5850 C   0  0  0  0  0  0  0  0  0  0  0  0
   60.2120   30.3980   48.1050 N   0  0  0  0  0  0  0  0  0  0  0  0
   61.2800   31.0320   47.3870 C   0  0  0  0  0  0  0  0  0  0  0  0
   61.7940   30.4670   46.3840 O   0  0  0  0  0  0  0  0  0  0  0  0
   61.8730   32.3230   47.8950 C   0  0  0  0  0  0  0  0  0  0  0  0
   61.3620   32.7430   49.2150 N   0  0  0  0  0  0  0  0  0  0  0  0
   62.2800   33.6220   49.9640 C   0  0  0  0  0  0  0  0  0  0  0  0
   63.5740   32.9100   50.2610 C   0  0  0  0  0  0  0  0  0  0  0  0
   63.5830   31.7140   50.9990 C   0  0  0  0  0  0  0  0  0  0  0  0
   64.7900   31.0620   51.2660 C   0  0  0  0  0  0  0  0  0  0  0  0
   65.9960   31.6020   50.8120 C   0  0  0  0  0  0  0  0  0  0  0  0
   65.9970   32.7980   50.0900 C   0  0  0  0  0  0  0  0  0  0  0  0
   64.7920   33.4540   49.8170 C   0  0  0  0  0  0  0  0  0  0  0  0
   59.7120   33.3370   49.1620 S   0  0  0  0  0  0  0  0  0  0  0  0
   58.8110   32.3070   49.7870 O   0  0  0  0  0  0  0  0  0  0  0  0
   59.6040   34.5880   49.9890 O   0  0  0  0  0  0  0  0  0  0  0  0
   59.1230   33.7020   47.5360 C   0  0  0  0  0  0  0  0  0  0  0  0
   58.0980   32.9310   46.9650 C   0  0  0  0  0  0  0  0  0  0  0  0
   57.6700   33.1820   45.6580 C   0  0  0  0  0  0  0  0  0  0  0  0
   58.2780   34.1880   44.9020 C   0  0  0  0  0  0  0  0  0  0  0  0
   59.3190   34.9420   45.4530 C   0  0  0  0  0  0  0  0  0  0  0  0
   59.7450   34.6970   46.7630 C   0  0  0  0  0  0  0  0  0  0  0  0
   58.4740   29.5190   46.5620 C   0  0  0  0  0  0  0  0  0  0  0  0
   57.6700   28.4640   46.1220 C   0  0  0  0  0  0  0  0  0  0  0  0
   55.1410   27.4510   46.0220 H   0  0  0  0  0  0  0  0  0  0  0  0
   58.8403   25.9894   48.1707 H   0  0  0  0  0  0  0  0  0  0  0  0
   60.2474   27.8778   48.9842 H   0  0  0  0  0  0  0  0  0  0  0  0
   60.0280   30.7100   49.0830 H   0  0  0  0  0  0  0  0  0  0  0  0
   62.9630   32.1961   47.9710 H   0  0  0  0  0  0  0  0  0  0  0  0
   61.5854   33.1073   47.1794 H   0  0  0  0  0  0  0  0  0  0  0  0
   62.4910   34.5194   49.3638 H   0  0  0  0  0  0  0  0  0  0  0  0
   61.8040   33.9027   50.9151 H   0  0  0  0  0  0  0  0  0  0  0  0
   62.6373   31.2899   51.3675 H   0  0  0  0  0  0  0  0  0  0  0  0
   64.7905   30.1208   51.8353 H   0  0  0  0  0  0  0  0  0  0  0  0
   66.9441   31.0857   51.0229 H   0  0  0  0  0  0  0  0  0  0  0  0
   66.9469   33.2246   49.7356 H   0  0  0  0  0  0  0  0  0  0  0  0
   64.7975   34.3985   49.2531 H   0  0  0  0  0  0  0  0  0  0  0  0
   57.6293   32.1253   47.5490 H   0  0  0  0  0  0  0  0  0  0  0  0
   56.8532   32.5866   45.2239 H   0  0  0  0  0  0  0  0  0  0  0  0
   57.9381   34.3865   43.8748 H   0  0  0  0  0  0  0  0  0  0  0  0
   59.8034   35.7286   44.8558 H   0  0  0  0  0  0  0  0  0  0  0  0
   60.5704   35.2858   47.1896 H   0  0  0  0  0  0  0  0  0  0  0  0
   58.3673   30.5146   46.1066 H   0  0  0  0  0  0  0  0  0  0  0  0
   56.9361   28.6320   45.3200 H   0  0  0  0  0  0  0  0  0  0  0  0
  1  2  1  0
  2  3  2  0
  2  4  2  0
  2  5  1  0
  5  6  2  0
  6  7  1  0
  7  8  2  0
  8  9  1  0
  9 10  1  0
 10 11  2  0
 10 12  1  0
 12 13  1  0
 13 14  1  0
 14 15  1  0
 15 16  2  0
 16 17  1  0
 17 18  2  0
 18 19  1  0
 19 20  2  0
 13 21  1  0
 21 22  2  0
 21 23  2  0
 21 24  1  0
 24 25  2  0
 25 26  1  0
 26 27  2  0
 27 28  1  0
 28 29  2  0
  8 30  1  0
 30 31  2  0
 31  5  1  0
 20 15  1  0
 29 24  1  0
  1 32  1  0
  6 33  1  0
  7 34  1  0
  9 35  1  0
 12 36  1  0
 12 37  1  0
 14 38  1  0
 14 39  1  0
 16 40  1  0
 17 41  1  0
 18 42  1  0
 19 43  1  0
 20 44  1  0
 25 45  1  0
 26 46  1  0
 27 47  1  0
 28 48  1  0
 29 49  1  0
 30 50  1  0
 31 51  1  0
M  CHG  1   1  -1
M  END
>  <UniqueID>  (85) 
73

>  <SMILES>  (85) 
[NH-]S(=O)(=O)c1ccc(NC(=O)CN(Cc2ccccc2)S(=O)(=O)c2ccccc2)cc1

>  <Energy>  (85) 
56.5125362781899

>  <Genealogy>  (85) 
[NH-]S(=O)(=O)c1ccc(NC(=O)CN(Cc2ccccc2)S(=O)(=O)c2ccccc2)cc1 (protonated)
[NH-]S(=O)(=O)c1ccc(NC(=O)CN(Cc2ccccc2)S(=O)(=O)c2ccccc2)cc1 (3D coordinates assigned)
[NH-]S(=O)(=O)c1ccc(NC(=O)CN(Cc2ccccc2)S(=O)(=O)c2ccccc2)cc1 (optimized conformer: 56.5125362781899 kcal/mol)

>  <smiles>  (85) 
NS(=O)(=O)c1ccc(NC(=O)CN(Cc2ccccc2)S(=O)(=O)c2ccccc2)cc1

>  <score_type>  (85) 
oracle

>  <origin>  (85) 
adg

>  <m_score__min__energy>  (85) 
-12.6

>  <m_primary>  (85) 
energy

$$$$
85:0
     RDKit          3D

 55 59  0  0  0  0  0  0  0  0999 V2000
   55.4950   28.9750   44.8690 N   0  0  0  0  0  0  0  0  0  0  0  0
   56.7630   30.0930   44.5100 S   0  0  0  0  0  0  0  0  0  0  0  0
   57.1280   29.9910   43.0550 O   0  0  0  0  0  0  0  0  0  0  0  0
   56.2890   31.4920   44.7900 O   0  0  0  0  0  0  0  0  0  0  0  0
   58.1690   29.7270   45.5040 C   0  0  0  0  0  0  0  0  0  0  0  0
   59.4560   29.7760   44.9520 C   0  0  0  0  0  0  0  0  0  0  0  0
   60.5710   29.5030   45.7480 C   0  0  0  0  0  0  0  0  0  0  0  0
   60.4090   29.1820   47.0970 C   0  0  0  0  0  0  0  0  0  0  0  0
   59.1220   29.1220   47.6640 C   0  0  0  0  0  0  0  0  0  0  0  0
   58.9300   28.8180   49.0570 N   0  0  0  0  0  0  0  0  0  0  0  0
   59.8110   29.2650   50.1020 C   0  0  0  0  0  0  0  0  0  0  0  0
   61.2010   29.1690   49.9170 C   0  0  0  0  0  0  0  0  0  0  0  0
   62.0800   29.5140   50.9430 C   0  0  0  0  0  0  0  0  0  0  0  0
   61.5840   29.9430   52.1720 C   0  0  0  0  0  0  0  0  0  0  0  0
   60.2060   30.0360   52.3770 C   0  0  0  0  0  0  0  0  0  0  0  0
   59.3010   29.7080   51.3500 C   0  0  0  0  0  0  0  0  0  0  0  0
   57.8480   29.8730   51.6030 C   0  0  0  0  0  0  0  0  0  0  0  0
   57.1980   28.9880   52.2230 O   0  0  0  0  0  0  0  0  0  0  0  0
   57.1900   31.0060   51.1140 O   0  0  0  0  0  0  0  0  0  0  0  0
   57.3700   32.3060   51.6730 C   0  0  0  0  0  0  0  0  0  0  0  0
   58.8160   32.7580   51.6070 C   0  0  0  0  0  0  0  0  0  0  0  0
   59.5080   33.1140   52.7790 C   0  0  0  0  0  0  0  0  0  0  0  0
   60.8370   33.5270   52.6960 C   0  0  0  0  0  0  0  0  0  0  0  0
   61.4610   33.8470   53.7410 O   0  0  0  0  0  0  0  0  0  0  0  0
   61.4510   33.5860   51.5220 O   0  0  0  0  0  0  0  0  0  0  0  0
   60.8580   33.2640   50.3750 C   0  0  0  0  0  0  0  0  0  0  0  0
   59.5060   32.8340   50.3720 C   0  0  0  0  0  0  0  0  0  0  0  0
   58.8970   32.4980   49.1460 C   0  0  0  0  0  0  0  0  0  0  0  0
   59.6090   32.5850   47.9490 C   0  0  0  0  0  0  0  0  0  0  0  0
   60.9430   33.0080   47.9460 C   0  0  0  0  0  0  0  0  0  0  0  0
   61.6550   33.0940   46.7390 C   0  0  0  0  0  0  0  0  0  0  0  0
   62.9860   33.5160   46.7360 C   0  0  0  0  0  0  0  0  0  0  0  0
   63.6160   33.8570   47.9340 C   0  0  0  0  0  0  0  0  0  0  0  0
   62.9200   33.7760   49.1440 C   0  0  0  0  0  0  0  0  0  0  0  0
   61.5780   33.3510   49.1660 C   0  0  0  0  0  0  0  0  0  0  0  0
   58.0090   29.4130   46.8610 C   0  0  0  0  0  0  0  0  0  0  0  0
   54.7230   29.5220   45.3110 H   0  0  0  0  0  0  0  0  0  0  0  0
   59.5886   30.0299   43.8899 H   0  0  0  0  0  0  0  0  0  0  0  0
   61.5796   29.5411   45.3106 H   0  0  0  0  0  0  0  0  0  0  0  0
   61.2916   28.9749   47.7200 H   0  0  0  0  0  0  0  0  0  0  0  0
   58.1380   28.1890   49.3240 H   0  0  0  0  0  0  0  0  0  0  0  0
   61.5993   28.8183   48.9535 H   0  0  0  0  0  0  0  0  0  0  0  0
   63.1661   29.4473   50.7818 H   0  0  0  0  0  0  0  0  0  0  0  0
   62.2789   30.2089   52.9822 H   0  0  0  0  0  0  0  0  0  0  0  0
   59.8230   30.3696   53.3527 H   0  0  0  0  0  0  0  0  0  0  0  0
   56.7485   33.0217   51.1149 H   0  0  0  0  0  0  0  0  0  0  0  0
   57.0753   32.2641   52.7320 H   0  0  0  0  0  0  0  0  0  0  0  0
   59.0034   33.0668   53.7553 H   0  0  0  0  0  0  0  0  0  0  0  0
   57.8491   32.1636   49.1327 H   0  0  0  0  0  0  0  0  0  0  0  0
   59.1182   32.3192   47.0011 H   0  0  0  0  0  0  0  0  0  0  0  0
   61.1624   32.8279   45.7921 H   0  0  0  0  0  0  0  0  0  0  0  0
   63.5393   33.5799   45.7874 H   0  0  0  0  0  0  0  0  0  0  0  0
   64.6641   34.1907   47.9261 H   0  0  0  0  0  0  0  0  0  0  0  0
   63.4238   34.0458   50.0839 H   0  0  0  0  0  0  0  0  0  0  0  0
   57.0008   29.3946   47.3005 H   0  0  0  0  0  0  0  0  0  0  0  0
  1  2  1  0
  2  3  2  0
  2  4  2  0
  2  5  1  0
  5  6  2  0
  6  7  1  0
  7  8  2  0
  8  9  1  0
  9 10  1  0
 10 11  1  0
 11 12  2  0
 12 13  1  0
 13 14  2  0
 14 15  1  0
 15 16  2  0
 16 17  1  0
 17 18  2  0
 17 19  1  0
 19 20  1  0
 20 21  1  0
 21 22  2  0
 22 23  1  0
 23 24  2  0
 23 25  1  0
 25 26  1  0
 26 27  2  0
 27 28  1  0
 28 29  2  0
 29 30  1  0
 30 31  2  0
 31 32  1  0
 32 33  2  0
 33 34  1  0
 34 35  2  0
  9 36  2  0
 36  5  1  0
 16 11  1  0
 27 21  1  0
 35 30  1  0
 35 26  1  0
  1 37  1  0
  6 38  1  0
  7 39  1  0
  8 40  1  0
 10 41  1  0
 12 42  1  0
 13 43  1  0
 14 44  1  0
 15 45  1  0
 20 46  1  0
 20 47  1  0
 22 48  1  0
 28 49  1  0
 29 50  1  0
 31 51  1  0
 32 52  1  0
 33 53  1  0
 34 54  1  0
 36 55  1  0
M  CHG  1   1  -1
M  END
>  <UniqueID>  (86) 
74

>  <SMILES>  (86) 
[NH-]S(=O)(=O)c1cccc(Nc2ccccc2C(=O)OCc2cc(=O)oc3c2ccc2ccccc23)c1

>  <Energy>  (86) 
80.37138380973316

>  <Genealogy>  (86) 
[NH-]S(=O)(=O)c1cccc(Nc2ccccc2C(=O)OCc2cc(=O)oc3c2ccc2ccccc23)c1 (protonated)
[NH-]S(=O)(=O)c1cccc(Nc2ccccc2C(=O)OCc2cc(=O)oc3c2ccc2ccccc23)c1 (3D coordinates assigned)
[NH-]S(=O)(=O)c1cccc(Nc2ccccc2C(=O)OCc2cc(=O)oc3c2ccc2ccccc23)c1 (optimized conformer: 80.37138380973316 kcal/mol)

>  <smiles>  (86) 
NS(=O)(=O)c1cccc(Nc2ccccc2C(=O)OCc2cc(=O)oc3c2ccc2ccccc23)c1

>  <score_type>  (86) 
oracle

>  <origin>  (86) 
adg

>  <m_score__min__energy>  (86) 
-13.289999999999999

>  <m_primary>  (86) 
energy

$$$$
86:0
     RDKit          3D

 57 61  0  0  0  0  0  0  0  0999 V2000
   61.4068   34.9885   48.7331 H   0  0  0  0  0  0  0  0  0  0  0  0
   62.1980   34.2370   48.8720 C   0  0  0  0  0  0  0  0  0  0  0  0
   62.8040   33.6810   47.7890 N   0  0  0  0  0  0  0  0  0  0  0  0
   63.7860   32.7500   47.9220 C   0  0  0  0  0  0  0  0  0  0  0  0
   64.2571   32.3179   47.0268 H   0  0  0  0  0  0  0  0  0  0  0  0
   64.1980   32.3410   49.1920 C   0  0  0  0  0  0  0  0  0  0  0  0
   64.9946   31.5903   49.3012 H   0  0  0  0  0  0  0  0  0  0  0  0
   63.5880   32.8950   50.3280 C   0  0  0  0  0  0  0  0  0  0  0  0
   64.0580   32.5080   51.7070 C   0  0  0  0  0  0  0  0  0  0  0  0
   64.9698   33.0761   51.9434 H   0  0  0  0  0  0  0  0  0  0  0  0
   64.2511   31.4251   51.7076 H   0  0  0  0  0  0  0  0  0  0  0  0
   63.0010   32.8000   52.7800 C   0  0  0  0  0  0  0  0  0  0  0  0
   62.2285   33.4567   52.3534 H   0  0  0  0  0  0  0  0  0  0  0  0
   63.4958   33.2870   53.6332 H   0  0  0  0  0  0  0  0  0  0  0  0
   62.3710   31.5650   53.2520 N   0  0  0  0  0  0  0  0  0  0  0  0
   61.9690   30.5880   52.4920 C   0  0  0  0  0  0  0  0  0  0  0  0
   61.9990   29.2990   52.9320 N   0  0  0  0  0  0  0  0  0  0  0  0
   61.5640   28.2680   52.1630 C   0  0  0  0  0  0  0  0  0  0  0  0
   61.6013   27.2398   52.5521 H   0  0  0  0  0  0  0  0  0  0  0  0
   61.0700   28.5090   50.8810 C   0  0  0  0  0  0  0  0  0  0  0  0
   60.7134   27.6739   50.2601 H   0  0  0  0  0  0  0  0  0  0  0  0
   61.0300   29.8250   50.3860 C   0  0  0  0  0  0  0  0  0  0  0  0
   60.5080   30.1230   49.0310 C   0  0  0  0  0  0  0  0  0  0  0  0
   60.0850   31.3470   48.6470 N   0  0  0  0  0  0  0  0  0  0  0  0
   59.6890   31.2730   47.3850 N   0  0  0  0  0  0  0  0  0  0  0  0
   59.1850   32.4040   46.6520 C   0  0  0  0  0  0  0  0  0  0  0  0
   57.8410   32.4630   46.2340 C   0  0  0  0  0  0  0  0  0  0  0  0
   57.1612   31.6275   46.4572 H   0  0  0  0  0  0  0  0  0  0  0  0
   57.3670   33.5780   45.5370 C   0  0  0  0  0  0  0  0  0  0  0  0
   56.3179   33.6143   45.2082 H   0  0  0  0  0  0  0  0  0  0  0  0
   58.2220   34.6460   45.2570 C   0  0  0  0  0  0  0  0  0  0  0  0
   57.8478   35.5191   44.7023 H   0  0  0  0  0  0  0  0  0  0  0  0
   59.5520   34.6060   45.6810 C   0  0  0  0  0  0  0  0  0  0  0  0
   60.2233   35.4502   45.4652 H   0  0  0  0  0  0  0  0  0  0  0  0
   60.0310   33.4930   46.3800 C   0  0  0  0  0  0  0  0  0  0  0  0
   61.0771   33.4699   46.7192 H   0  0  0  0  0  0  0  0  0  0  0  0
   59.8610   30.0060   46.9480 C   0  0  0  0  0  0  0  0  0  0  0  0
   59.6450   29.6280   45.7190 N   0  0  0  0  0  0  0  0  0  0  0  0
   58.3990   29.1650   45.1780 C   0  0  0  0  0  0  0  0  0  0  0  0
   57.8020   29.8880   44.3370 O   0  0  0  0  0  0  0  0  0  0  0  0
   57.7680   27.8970   45.6160 C   0  0  0  0  0  0  0  0  0  0  0  0
   58.5790   26.8470   46.0820 C   0  0  0  0  0  0  0  0  0  0  0  0
   59.6721   26.9686   46.1004 H   0  0  0  0  0  0  0  0  0  0  0  0
   58.0070   25.6500   46.5220 C   0  0  0  0  0  0  0  0  0  0  0  0
   58.6494   24.8379   46.8931 H   0  0  0  0  0  0  0  0  0  0  0  0
   56.6210   25.4840   46.4910 C   0  0  0  0  0  0  0  0  0  0  0  0
   56.1724   24.5441   46.8450 H   0  0  0  0  0  0  0  0  0  0  0  0
   55.8030   26.5100   46.0110 C   0  0  0  0  0  0  0  0  0  0  0  0
   54.4250   26.3300   45.9710 O   0  0  0  0  0  0  0  0  0  0  0  0
   56.3690   27.7120   45.5640 C   0  0  0  0  0  0  0  0  0  0  0  0
   55.5380   28.7050   45.0550 O   0  0  0  0  0  0  0  0  0  0  0  0
   60.3870   29.2360   47.9710 C   0  0  0  0  0  0  0  0  0  0  0  0
   60.6486   28.1678   47.9487 H   0  0  0  0  0  0  0  0  0  0  0  0
   61.4890   30.8680   51.2080 C   0  0  0  0  0  0  0  0  0  0  0  0
   61.4709   31.9051   50.8419 H   0  0  0  0  0  0  0  0  0  0  0  0
   62.5790   33.8550   50.1610 C   0  0  0  0  0  0  0  0  0  0  0  0
   62.0910   34.3040   51.0387 H   0  0  0  0  0  0  0  0  0  0  0  0
  1  2  1  0
  2  3  2  0
  3  4  1  0
  4  5  1  0
  4  6  2  0
  6  7  1  0
  6  8  1  0
  8  9  1  0
  9 10  1  0
  9 11  1  0
  9 12  1  0
 12 13  1  0
 12 14  1  0
 12 15  1  0
 15 16  2  3
 16 17  1  0
 17 18  1  0
 18 19  1  0
 18 20  2  0
 20 21  1  0
 20 22  1  0
 22 23  1  0
 23 24  1  0
 24 25  1  0
 25 26  1  0
 26 27  2  0
 27 28  1  0
 27 29  1  0
 29 30  1  0
 29 31  2  0
 31 32  1  0
 31 33  1  0
 33 34  1  0
 33 35  2  0
 35 36  1  0
 25 37  1  0
 37 38  2  0
 38 39  1  0
 39 40  2  0
 39 41  1  0
 41 42  2  0
 42 43  1  0
 42 44  1  0
 44 45  1  0
 44 46  2  0
 46 47  1  0
 46 48  1  0
 48 49  1  0
 48 50  2  0
 50 51  1  0
 37 52  1  0
 52 53  1  0
 22 54  2  0
 54 55  1  0
  8 56  2  0
 56 57  1  0
 56  2  1  0
 54 16  1  0
 52 23  2  0
 35 26  1  0
 50 41  1  0
M  CHG  4  17  -1  24  -1  49  -1  51  -1
M  END
>  <UniqueID>  (87) 
75

>  <SMILES>  (87) 
O=C(/N=c1\cc(-c2cc[n-]c(=NCCc3ccncc3)c2)[n-]n1-c1ccccc1)c1cccc([O-])c1[O-]

>  <Energy>  (87) 
109.4859914078305

>  <Genealogy>  (87) 
O=C(N=c1cc(-c2cc[n-]c(=NCCc3ccncc3)c2)[n-]n1-c1ccccc1)c1cccc([O-])c1[O-] (protonated)
O=C(/N=c1\cc(-c2cc[n-]c(=NCCc3ccncc3)c2)[n-]n1-c1ccccc1)c1cccc([O-])c1[O-] (cis-trans isomerization)
O=C(/N=c1\cc(-c2cc[n-]c(=NCCc3ccncc3)c2)[n-]n1-c1ccccc1)c1cccc([O-])c1[O-] (3D coordinates assigned)
O=C(/N=c1\cc(-c2cc[n-]c(=NCCc3ccncc3)c2)[n-]n1-c1ccccc1)c1cccc([O-])c1[O-] (optimized conformer: 109.4859914078305 kcal/mol)

>  <smiles>  (87) 
O=C(N=c1cc(-c2cc[nH]c(=NCCc3ccncc3)c2)[nH]n1-c1ccccc1)c1cccc(O)c1O

>  <score_type>  (87) 
oracle

>  <origin>  (87) 
adg

>  <m_score__min__energy>  (87) 
-18.77

>  <m_primary>  (87) 
energy

$$$$
87:0
     RDKit          3D

 51 54  0  0  0  0  0  0  0  0999 V2000
   63.7367   33.0654   46.0160 H   0  0  0  0  0  0  0  0  0  0  0  0
   63.3810   32.7440   47.0060 C   0  0  0  0  0  0  0  0  0  0  0  0
   62.4320   31.7760   47.1050 N   0  0  0  0  0  0  0  0  0  0  0  0
   61.9640   31.3550   48.3120 C   0  0  0  0  0  0  0  0  0  0  0  0
   61.1974   30.5675   48.3580 H   0  0  0  0  0  0  0  0  0  0  0  0
   62.4560   31.9220   49.4980 C   0  0  0  0  0  0  0  0  0  0  0  0
   61.8890   31.5110   50.8310 C   0  0  0  0  0  0  0  0  0  0  0  0
   62.7054   31.1622   51.4805 H   0  0  0  0  0  0  0  0  0  0  0  0
   61.1593   30.7027   50.6752 H   0  0  0  0  0  0  0  0  0  0  0  0
   61.2170   32.6410   51.4670 N   0  0  0  0  0  0  0  0  0  0  0  0
   60.2050   33.4250   50.8290 C   0  0  0  0  0  0  0  0  0  0  0  0
   59.0420   33.4420   51.3100 O   0  0  0  0  0  0  0  0  0  0  0  0
   60.5000   34.1740   49.6450 N   0  0  0  0  0  0  0  0  0  0  0  0
   61.3660   34.7580   49.6470 H   0  0  0  0  0  0  0  0  0  0  0  0
   59.7770   34.0260   48.4100 C   0  0  0  0  0  0  0  0  0  0  0  0
   58.7330   33.0920   48.3350 C   0  0  0  0  0  0  0  0  0  0  0  0
   58.5200   32.4429   49.1972 H   0  0  0  0  0  0  0  0  0  0  0  0
   57.9610   32.9780   47.1760 C   0  0  0  0  0  0  0  0  0  0  0  0
   57.1551   32.2310   47.1266 H   0  0  0  0  0  0  0  0  0  0  0  0
   58.2090   33.8130   46.0730 C   0  0  0  0  0  0  0  0  0  0  0  0
   57.3740   33.7220   44.8520 C   0  0  0  0  0  0  0  0  0  0  0  0
   56.6490   34.6980   44.5250 O   0  0  0  0  0  0  0  0  0  0  0  0
   57.4020   32.5710   43.9950 N   0  0  0  0  0  0  0  0  0  0  0  0
   57.4280   31.3310   44.3890 C   0  0  0  0  0  0  0  0  0  0  0  0
   56.3050   30.5920   44.5050 N   0  0  0  0  0  0  0  0  0  0  0  0
   56.5680   29.3420   44.9700 C   0  0  0  0  0  0  0  0  0  0  0  0
   55.7796   28.5924   45.1328 H   0  0  0  0  0  0  0  0  0  0  0  0
   57.9110   29.0840   45.2240 C   0  0  0  0  0  0  0  0  0  0  0  0
   58.4720   27.8160   45.7850 C   0  0  0  0  0  0  0  0  0  0  0  0
   57.6659   27.0740   45.8825 H   0  0  0  0  0  0  0  0  0  0  0  0
   59.2511   27.4375   45.1069 H   0  0  0  0  0  0  0  0  0  0  0  0
   59.0800   28.0700   47.1380 C   0  0  0  0  0  0  0  0  0  0  0  0
   60.1000   27.2370   47.6270 C   0  0  0  0  0  0  0  0  0  0  0  0
   60.4359   26.3754   47.0314 H   0  0  0  0  0  0  0  0  0  0  0  0
   60.6900   27.4980   48.8670 C   0  0  0  0  0  0  0  0  0  0  0  0
   61.4869   26.8411   49.2457 H   0  0  0  0  0  0  0  0  0  0  0  0
   60.2680   28.5930   49.6260 C   0  0  0  0  0  0  0  0  0  0  0  0
   60.7321   28.7967   50.6023 H   0  0  0  0  0  0  0  0  0  0  0  0
   59.2560   29.4300   49.1450 C   0  0  0  0  0  0  0  0  0  0  0  0
   58.8520   30.4940   49.8800 F   0  0  0  0  0  0  0  0  0  0  0  0
   58.6650   29.1710   47.9030 C   0  0  0  0  0  0  0  0  0  0  0  0
   57.8721   29.8331   47.5250 H   0  0  0  0  0  0  0  0  0  0  0  0
   58.7980   30.4730   44.8820 S   0  0  0  0  0  0  0  0  0  0  0  0
   59.2650   34.7360   46.1390 C   0  0  0  0  0  0  0  0  0  0  0  0
   59.4870   35.3747   45.2714 H   0  0  0  0  0  0  0  0  0  0  0  0
   60.0360   34.8490   47.2990 C   0  0  0  0  0  0  0  0  0  0  0  0
   60.8509   35.5865   47.3436 H   0  0  0  0  0  0  0  0  0  0  0  0
   63.4430   32.9160   49.4100 C   0  0  0  0  0  0  0  0  0  0  0  0
   63.8522   33.3677   50.3257 H   0  0  0  0  0  0  0  0  0  0  0  0
   63.9050   33.3310   48.1600 C   0  0  0  0  0  0  0  0  0  0  0  0
   64.6747   34.1132   48.0844 H   0  0  0  0  0  0  0  0  0  0  0  0
  1  2  1  0
  2  3  2  0
  3  4  1  0
  4  5  1  0
  4  6  2  0
  6  7  1  0
  7  8  1  0
  7  9  1  0
  7 10  1  0
 10 11  1  0
 11 12  2  0
 11 13  1  0
 13 14  1  0
 13 15  1  0
 15 16  2  0
 16 17  1  0
 16 18  1  0
 18 19  1  0
 18 20  2  0
 20 21  1  0
 21 22  2  0
 21 23  1  0
 23 24  2  0
 24 25  1  0
 25 26  1  0
 26 27  1  0
 26 28  2  0
 28 29  1  0
 29 30  1  0
 29 31  1  0
 29 32  1  0
 32 33  2  0
 33 34  1  0
 33 35  1  0
 35 36  1  0
 35 37  2  0
 37 38  1  0
 37 39  1  0
 39 40  1  0
 39 41  2  0
 41 42  1  0
 28 43  1  0
 20 44  1  0
 44 45  1  0
 44 46  2  0
 46 47  1  0
  6 48  1  0
 48 49  1  0
 48 50  2  0
 50 51  1  0
 50  2  1  0
 46 15  1  0
 43 24  1  0
 41 32  1  0
M  CHG  2  10  -1  25  -1
M  END
>  <UniqueID>  (88) 
76

>  <SMILES>  (88) 
O=C([N-]Cc1cccnc1)Nc1ccc(C(=O)/N=c2/[n-]cc(Cc3cccc(F)c3)s2)cc1

>  <Energy>  (88) 
92.29398568374704

>  <Genealogy>  (88) 
O=C([N-]Cc1cccnc1)Nc1ccc(C(=O)N=c2[n-]cc(Cc3cccc(F)c3)s2)cc1 (protonated)
O=C([N-]Cc1cccnc1)Nc1ccc(C(=O)/N=c2/[n-]cc(Cc3cccc(F)c3)s2)cc1 (cis-trans isomerization)
O=C([N-]Cc1cccnc1)Nc1ccc(C(=O)/N=c2/[n-]cc(Cc3cccc(F)c3)s2)cc1 (3D coordinates assigned)
O=C([N-]Cc1cccnc1)Nc1ccc(C(=O)/N=c2/[n-]cc(Cc3cccc(F)c3)s2)cc1 (optimized conformer: 92.29398568374704 kcal/mol)

>  <smiles>  (88) 
O=C(NCc1cccnc1)Nc1ccc(C(=O)N=c2[nH]cc(Cc3cccc(F)c3)s2)cc1

>  <score_type>  (88) 
oracle

>  <origin>  (88) 
adg

>  <m_score__min__energy>  (88) 
-13.529999999999999

>  <m_primary>  (88) 
energy

$$$$
88:0
     RDKit          3D

 47 49  0  0  0  0  0  0  0  0999 V2000
   64.2970   33.4740   48.4290 C   0  0  0  0  0  0  0  0  0  0  0  0
   62.8290   33.3680   48.5060 N   0  0  0  0  0  0  0  0  0  0  0  0
   62.0810   33.4310   47.3620 C   0  0  0  0  0  0  0  0  0  0  0  0
   62.6480   33.5770   46.2420 O   0  0  0  0  0  0  0  0  0  0  0  0
   60.6850   33.3330   47.4260 C   0  0  0  0  0  0  0  0  0  0  0  0
   59.8990   33.3500   46.2570 C   0  0  0  0  0  0  0  0  0  0  0  0
   58.5110   33.2030   46.3290 C   0  0  0  0  0  0  0  0  0  0  0  0
   57.5470   33.1520   44.8530 S   0  0  0  0  0  0  0  0  0  0  0  0
   56.7100   34.3960   44.7670 O   0  0  0  0  0  0  0  0  0  0  0  0
   58.4520   33.1110   43.6530 O   0  0  0  0  0  0  0  0  0  0  0  0
   56.4950   31.7670   44.8560 N   0  0  0  0  0  0  0  0  0  0  0  0
   57.2080   30.5480   44.4660 C   0  0  0  0  0  0  0  0  0  0  0  0
   56.3910   29.3510   44.8230 C   0  0  0  0  0  0  0  0  0  0  0  0
   55.1350   29.4480   44.8740 O   0  0  0  0  0  0  0  0  0  0  0  0
   57.0380   28.1050   45.1060 N   0  0  0  0  0  0  0  0  0  0  0  0
   57.5070   27.7130   46.4310 C   0  0  0  0  0  0  0  0  0  0  0  0
   58.7170   28.5160   46.8280 C   0  0  0  0  0  0  0  0  0  0  0  0
   59.6410   28.9430   45.8590 C   0  0  0  0  0  0  0  0  0  0  0  0
   60.7360   29.7310   46.2250 C   0  0  0  0  0  0  0  0  0  0  0  0
   60.9120   30.1090   47.5580 C   0  0  0  0  0  0  0  0  0  0  0  0
   60.0000   29.6890   48.5290 C   0  0  0  0  0  0  0  0  0  0  0  0
   58.9090   28.8930   48.1700 C   0  0  0  0  0  0  0  0  0  0  0  0
   57.8980   33.0680   47.5750 C   0  0  0  0  0  0  0  0  0  0  0  0
   58.6610   33.0780   48.7430 C   0  0  0  0  0  0  0  0  0  0  0  0
   60.0710   33.2040   48.6920 C   0  0  0  0  0  0  0  0  0  0  0  0
   60.8460   33.2030   49.8320 N   0  0  0  0  0  0  0  0  0  0  0  0
   60.2120   33.1170   51.1650 C   0  0  0  0  0  0  0  0  0  0  0  0
   62.2160   33.2840   49.7300 C   0  0  0  0  0  0  0  0  0  0  0  0
   62.9250   33.2870   50.7770 O   0  0  0  0  0  0  0  0  0  0  0  0
   64.7162   33.5043   49.4455 H   0  0  0  0  0  0  0  0  0  0  0  0
   64.6999   32.6026   47.8920 H   0  0  0  0  0  0  0  0  0  0  0  0
   64.5705   34.3942   47.8920 H   0  0  0  0  0  0  0  0  0  0  0  0
   60.3826   33.4803   45.2776 H   0  0  0  0  0  0  0  0  0  0  0  0
   57.3849   30.5594   43.3804 H   0  0  0  0  0  0  0  0  0  0  0  0
   58.1705   30.5035   44.9967 H   0  0  0  0  0  0  0  0  0  0  0  0
   56.7042   27.8843   47.1632 H   0  0  0  0  0  0  0  0  0  0  0  0
   57.7822   26.6482   46.4073 H   0  0  0  0  0  0  0  0  0  0  0  0
   59.5017   28.6554   44.8064 H   0  0  0  0  0  0  0  0  0  0  0  0
   61.4599   30.0538   45.4623 H   0  0  0  0  0  0  0  0  0  0  0  0
   61.7687   30.7373   47.8431 H   0  0  0  0  0  0  0  0  0  0  0  0
   60.1409   29.9855   49.5789 H   0  0  0  0  0  0  0  0  0  0  0  0
   58.1973   28.5597   48.9397 H   0  0  0  0  0  0  0  0  0  0  0  0
   56.8058   32.9529   47.6369 H   0  0  0  0  0  0  0  0  0  0  0  0
   58.1602   32.9867   49.7181 H   0  0  0  0  0  0  0  0  0  0  0  0
   60.9813   33.2213   51.9443 H   0  0  0  0  0  0  0  0  0  0  0  0
   59.4708   33.9228   51.2712 H   0  0  0  0  0  0  0  0  0  0  0  0
   59.7123   32.1428   51.2712 H   0  0  0  0  0  0  0  0  0  0  0  0
  1  2  1  0
  2  3  1  0
  3  4  2  0
  3  5  1  0
  5  6  2  0
  6  7  1  0
  7  8  1  0
  8  9  2  0
  8 10  2  0
  8 11  1  0
 11 12  1  0
 12 13  1  0
 13 14  2  0
 13 15  1  0
 15 16  1  0
 16 17  1  0
 17 18  2  0
 18 19  1  0
 19 20  2  0
 20 21  1  0
 21 22  2  0
  7 23  2  0
 23 24  1  0
 24 25  2  0
 25 26  1  0
 26 27  1  0
 26 28  1  0
 28 29  2  0
 28  2  1  0
 25  5  1  0
 22 17  1  0
  1 30  1  0
  1 31  1  0
  1 32  1  0
  6 33  1  0
 12 34  1  0
 12 35  1  0
 16 36  1  0
 16 37  1  0
 18 38  1  0
 19 39  1  0
 20 40  1  0
 21 41  1  0
 22 42  1  0
 23 43  1  0
 24 44  1  0
 27 45  1  0
 27 46  1  0
 27 47  1  0
M  CHG  2  11  -1  15  -1
M  END
>  <UniqueID>  (89) 
77

>  <SMILES>  (89) 
Cn1c(=O)c2cc(S(=O)(=O)[N-]CC(=O)[N-]Cc3ccccc3)ccc2n(C)c1=O

>  <Energy>  (89) 
54.451339029901874

>  <Genealogy>  (89) 
Cn1c(=O)c2cc(S(=O)(=O)[N-]CC(=O)[N-]Cc3ccccc3)ccc2n(C)c1=O (protonated)
Cn1c(=O)c2cc(S(=O)(=O)[N-]CC(=O)[N-]Cc3ccccc3)ccc2n(C)c1=O (3D coordinates assigned)
Cn1c(=O)c2cc(S(=O)(=O)[N-]CC(=O)[N-]Cc3ccccc3)ccc2n(C)c1=O (optimized conformer: 54.451339029901874 kcal/mol)

>  <smiles>  (89) 
Cn1c(=O)c2cc(S(=O)(=O)NCC(=O)NCc3ccccc3)ccc2n(C)c1=O

>  <score_type>  (89) 
oracle

>  <origin>  (89) 
adg

>  <m_score__min__energy>  (89) 
-13.050000000000001

>  <m_primary>  (89) 
energy

$$$$
89:0
     RDKit          3D

 62 65  0  0  0  0  0  0  0  0999 V2000
   54.2800   25.9570   45.9640 O   0  0  0  0  0  0  0  0  0  0  0  0
   54.4580   24.7600   45.6180 C   0  0  0  0  0  0  0  0  0  0  0  0
   55.3820   24.4770   44.5540 N   0  0  0  0  0  0  0  0  0  0  0  0
   56.4090   23.4340   44.4770 C   0  0  2  0  0  0  0  0  0  0  0  0
   57.7890   24.0320   44.1320 C   0  0  0  0  0  0  0  0  0  0  0  0
   57.8770   25.4990   44.4870 C   0  0  0  0  0  0  0  0  0  0  0  0
   57.8000   25.8970   45.8330 C   0  0  0  0  0  0  0  0  0  0  0  0
   57.8930   27.2460   46.1810 C   0  0  0  0  0  0  0  0  0  0  0  0
   58.0650   28.2230   45.1900 C   0  0  0  0  0  0  0  0  0  0  0  0
   58.1620   29.6610   45.5600 C   0  0  0  0  0  0  0  0  0  0  0  0
   59.0780   29.9560   46.5760 C   0  0  0  0  0  0  0  0  0  0  0  0
   59.4170   31.1750   47.1510 C   0  0  0  0  0  0  0  0  0  0  0  0
   58.9420   32.4520   46.8670 C   0  0  0  0  0  0  0  0  0  0  0  0
   59.6320   33.7980   47.8000 S   0  0  0  0  0  0  0  0  0  0  0  0
   59.1590   33.7220   49.2260 O   0  0  0  0  0  0  0  0  0  0  0  0
   59.1460   35.1020   47.2280 O   0  0  0  0  0  0  0  0  0  0  0  0
   61.3790   33.7770   47.7700 N   0  0  0  0  0  0  0  0  0  0  0  0
   61.8950   32.6520   48.5710 C   0  0  0  0  0  0  0  0  0  0  0  0
   63.4050   32.4300   48.3340 C   0  0  0  0  0  0  0  0  0  0  0  0
   64.0260   33.5840   47.6730 N   0  0  0  0  0  0  0  0  0  0  0  0
   63.4060   33.8480   46.3620 C   0  0  0  0  0  0  0  0  0  0  0  0
   61.8720   33.6940   46.3880 C   0  0  0  0  0  0  0  0  0  0  0  0
   57.9810   32.7800   45.9130 C   0  0  0  0  0  0  0  0  0  0  0  0
   57.2800   31.9550   45.0430 C   0  0  0  0  0  0  0  0  0  0  0  0
   57.3360   30.5720   44.8700 C   0  0  0  0  0  0  0  0  0  0  0  0
   56.5490   30.1030   44.0010 O   0  0  0  0  0  0  0  0  0  0  0  0
   58.1290   27.8330   43.8430 C   0  0  0  0  0  0  0  0  0  0  0  0
   58.0360   26.4830   43.4910 C   0  0  0  0  0  0  0  0  0  0  0  0
   58.0910   26.1420   42.1790 F   0  0  0  0  0  0  0  0  0  0  0  0
   55.9840   22.3220   43.5550 C   0  0  0  0  0  0  0  0  0  0  0  0
   56.0490   21.1280   43.9490 O   0  0  0  0  0  0  0  0  0  0  0  0
   55.4950   22.5910   42.2820 O   0  0  0  0  0  0  0  0  0  0  0  0
   53.7180   23.7040   46.3340 C   0  0  0  0  0  0  0  0  0  0  0  0
   52.4270   23.3270   45.9060 C   0  0  0  0  0  0  0  0  0  0  0  0
   51.6580   24.0910   44.5180 Cl  0  0  0  0  0  0  0  0  0  0  0  0
   51.7390   22.3100   46.5750 C   0  0  0  0  0  0  0  0  0  0  0  0
   52.3340   21.6460   47.6490 C   0  0  0  0  0  0  0  0  0  0  0  0
   53.6290   21.9800   48.0470 C   0  0  0  0  0  0  0  0  0  0  0  0
   54.3310   22.9940   47.3860 C   0  0  0  0  0  0  0  0  0  0  0  0
   55.9820   23.3440   47.8940 Cl  0  0  0  0  0  0  0  0  0  0  0  0
   56.5214   22.9764   45.4710 H   0  0  0  0  0  0  0  0  0  0  0  0
   58.5626   23.4847   44.6906 H   0  0  0  0  0  0  0  0  0  0  0  0
   57.9383   23.9363   43.0464 H   0  0  0  0  0  0  0  0  0  0  0  0
   57.6653   25.1392   46.6189 H   0  0  0  0  0  0  0  0  0  0  0  0
   57.8310   27.5439   47.2381 H   0  0  0  0  0  0  0  0  0  0  0  0
   59.6140   29.0862   46.9836 H   0  0  0  0  0  0  0  0  0  0  0  0
   60.1726   31.1228   47.9487 H   0  0  0  0  0  0  0  0  0  0  0  0
   61.7289   32.8671   49.6369 H   0  0  0  0  0  0  0  0  0  0  0  0
   61.3614   31.7397   48.2662 H   0  0  0  0  0  0  0  0  0  0  0  0
   63.8979   32.2668   49.3038 H   0  0  0  0  0  0  0  0  0  0  0  0
   63.5243   31.5544   47.6790 H   0  0  0  0  0  0  0  0  0  0  0  0
   63.9020   34.4270   48.2830 H   0  0  0  0  0  0  0  0  0  0  0  0
   63.6515   34.8760   46.0571 H   0  0  0  0  0  0  0  0  0  0  0  0
   63.8025   33.1077   45.6516 H   0  0  0  0  0  0  0  0  0  0  0  0
   61.4157   34.4967   45.7902 H   0  0  0  0  0  0  0  0  0  0  0  0
   61.6016   32.7141   45.9677 H   0  0  0  0  0  0  0  0  0  0  0  0
   57.7421   33.8511   45.8377 H   0  0  0  0  0  0  0  0  0  0  0  0
   56.5673   32.4749   44.3859 H   0  0  0  0  0  0  0  0  0  0  0  0
   58.2532   28.5946   43.0591 H   0  0  0  0  0  0  0  0  0  0  0  0
   50.7244   22.0320   46.2535 H   0  0  0  0  0  0  0  0  0  0  0  0
   51.7813   20.8585   48.1823 H   0  0  0  0  0  0  0  0  0  0  0  0
   54.1001   21.4438   48.8840 H   0  0  0  0  0  0  0  0  0  0  0  0
  1  2  2  0
  2  3  1  0
  3  4  1  0
  4  5  1  0
  5  6  1  0
  6  7  2  0
  7  8  1  0
  8  9  2  0
  9 10  1  0
 10 11  2  0
 11 12  1  0
 12 13  2  0
 13 14  1  0
 14 15  2  0
 14 16  2  0
 14 17  1  0
 17 18  1  0
 18 19  1  0
 19 20  1  0
 20 21  1  0
 21 22  1  0
 13 23  1  0
 23 24  2  0
 24 25  1  0
 25 26  2  0
  9 27  1  0
 27 28  2  0
 28 29  1  0
  4 30  1  0
 30 31  2  0
 30 32  1  0
  2 33  1  0
 33 34  2  0
 34 35  1  0
 34 36  1  0
 36 37  2  0
 37 38  1  0
 38 39  2  0
 39 40  1  0
 28  6  1  0
 39 33  1  0
 25 10  1  0
 22 17  1  0
  4 41  1  1
  5 42  1  0
  5 43  1  0
  7 44  1  0
  8 45  1  0
 11 46  1  0
 12 47  1  0
 18 48  1  0
 18 49  1  0
 19 50  1  0
 19 51  1  0
 20 52  1  0
 21 53  1  0
 21 54  1  0
 22 55  1  0
 22 56  1  0
 23 57  1  0
 24 58  1  0
 27 59  1  0
 36 60  1  0
 37 61  1  0
 38 62  1  0
M  CHG  2   3  -1  32  -1
M  END
>  <UniqueID>  (90) 
78

>  <SMILES>  (90) 
O=C([N-][C@H](Cc1ccc(-c2ccc(S(=O)(=O)N3CCNCC3)ccc2=O)cc1F)C(=O)[O-])c1c(Cl)cccc1Cl

>  <Energy>  (90) 
107.99665373457185

>  <Genealogy>  (90) 
O=C([N-]C(Cc1ccc(-c2ccc(S(=O)(=O)N3CCNCC3)ccc2=O)cc1F)C(=O)[O-])c1c(Cl)cccc1Cl (protonated)
O=C([N-][C@H](Cc1ccc(-c2ccc(S(=O)(=O)N3CCNCC3)ccc2=O)cc1F)C(=O)[O-])c1c(Cl)cccc1Cl (chirality)
O=C([N-][C@H](Cc1ccc(-c2ccc(S(=O)(=O)N3CCNCC3)ccc2=O)cc1F)C(=O)[O-])c1c(Cl)cccc1Cl (3D coordinates assigned)
O=C([N-][C@H](Cc1ccc(-c2ccc(S(=O)(=O)N3CCNCC3)ccc2=O)cc1F)C(=O)[O-])c1c(Cl)cccc1Cl (nonaromatic ring conformer: 107.99665373457185 kcal/mol)

>  <smiles>  (90) 
O=C(NC(Cc1ccc(-c2ccc(S(=O)(=O)N3CCNCC3)ccc2=O)cc1F)C(=O)O)c1c(Cl)cccc1Cl

>  <score_type>  (90) 
oracle

>  <origin>  (90) 
adg

>  <m_score__min__energy>  (90) 
-14.039999999999999

>  <m_primary>  (90) 
energy

$$$$
90:0
     RDKit          3D

 53 56  0  0  0  0  0  0  0  0999 V2000
   63.9010   33.4870   49.7420 C   0  0  0  0  0  0  0  0  0  0  0  0
   62.9760   32.4930   49.0890 C   0  0  0  0  0  0  0  0  0  0  0  0
   62.2140   31.6310   49.8910 C   0  0  0  0  0  0  0  0  0  0  0  0
   61.3600   30.6910   49.3160 C   0  0  0  0  0  0  0  0  0  0  0  0
   61.2510   30.5890   47.9210 C   0  0  0  0  0  0  0  0  0  0  0  0
   60.3880   29.5660   47.2900 C   0  0  0  0  0  0  0  0  0  0  0  0
   60.1470   29.4670   45.9660 N   0  0  0  0  0  0  0  0  0  0  0  0
   59.2940   28.4330   45.8580 C   0  0  0  0  0  0  0  0  0  0  0  0
   58.6640   27.9760   44.5790 C   0  0  0  0  0  0  0  0  0  0  0  0
   57.1970   28.0760   44.6730 N   0  0  0  0  0  0  0  0  0  0  0  0
   56.7550   29.3260   45.3100 C   0  0  0  0  0  0  0  0  0  0  0  0
   57.0830   30.5240   44.4580 C   0  0  0  0  0  0  0  0  0  0  0  0
   57.0640   30.4290   43.0570 C   0  0  0  0  0  0  0  0  0  0  0  0
   57.4000   31.5340   42.2720 C   0  0  0  0  0  0  0  0  0  0  0  0
   57.7430   32.7460   42.8750 C   0  0  0  0  0  0  0  0  0  0  0  0
   57.7320   32.8670   44.2730 C   0  0  0  0  0  0  0  0  0  0  0  0
   58.0940   34.1720   44.9220 C   0  0  0  0  0  0  0  0  0  0  0  0
   58.6920   33.9360   46.2330 N   0  0  0  0  0  0  0  0  0  0  0  0
   58.0750   33.4830   47.3340 C   0  0  0  0  0  0  0  0  0  0  0  0
   59.0080   33.4220   48.3440 C   0  0  0  0  0  0  0  0  0  0  0  0
   60.2010   33.8520   47.8860 N   0  0  0  0  0  0  0  0  0  0  0  0
   59.9700   34.1610   46.5930 C   0  0  0  0  0  0  0  0  0  0  0  0
   57.4170   31.7470   45.0610 C   0  0  0  0  0  0  0  0  0  0  0  0
   59.0480   27.9290   47.1160 C   0  0  0  0  0  0  0  0  0  0  0  0
   59.7410   28.6440   47.9730 O   0  0  0  0  0  0  0  0  0  0  0  0
   62.0060   31.4520   47.1140 C   0  0  0  0  0  0  0  0  0  0  0  0
   62.8750   32.3990   47.6820 C   0  0  0  0  0  0  0  0  0  0  0  0
   63.6810   33.2950   46.7780 C   0  0  0  0  0  0  0  0  0  0  0  0
   63.8199   33.3999   50.8355 H   0  0  0  0  0  0  0  0  0  0  0  0
   64.9367   33.2816   49.4336 H   0  0  0  0  0  0  0  0  0  0  0  0
   63.6217   34.5053   49.4336 H   0  0  0  0  0  0  0  0  0  0  0  0
   62.2911   31.6974   50.9863 H   0  0  0  0  0  0  0  0  0  0  0  0
   60.7676   30.0248   49.9604 H   0  0  0  0  0  0  0  0  0  0  0  0
   60.5250   30.0500   45.1880 H   0  0  0  0  0  0  0  0  0  0  0  0
   59.0195   28.6083   43.7521 H   0  0  0  0  0  0  0  0  0  0  0  0
   58.9423   26.9278   44.3951 H   0  0  0  0  0  0  0  0  0  0  0  0
   56.8190   28.0800   43.6960 H   0  0  0  0  0  0  0  0  0  0  0  0
   55.6666   29.2837   45.4639 H   0  0  0  0  0  0  0  0  0  0  0  0
   57.2817   29.4299   46.2701 H   0  0  0  0  0  0  0  0  0  0  0  0
   56.7833   29.4804   42.5760 H   0  0  0  0  0  0  0  0  0  0  0  0
   57.3945   31.4495   41.1753 H   0  0  0  0  0  0  0  0  0  0  0  0
   58.0227   33.6085   42.2522 H   0  0  0  0  0  0  0  0  0  0  0  0
   58.8143   34.7067   44.2853 H   0  0  0  0  0  0  0  0  0  0  0  0
   57.1825   34.7749   45.0472 H   0  0  0  0  0  0  0  0  0  0  0  0
   57.0128   33.2090   47.4154 H   0  0  0  0  0  0  0  0  0  0  0  0
   58.8104   33.0752   49.3690 H   0  0  0  0  0  0  0  0  0  0  0  0
   60.7386   34.5524   45.9103 H   0  0  0  0  0  0  0  0  0  0  0  0
   57.4322   31.8291   46.1578 H   0  0  0  0  0  0  0  0  0  0  0  0
   58.3904   27.0814   47.3591 H   0  0  0  0  0  0  0  0  0  0  0  0
   61.9167   31.3867   46.0196 H   0  0  0  0  0  0  0  0  0  0  0  0
   64.2934   33.9757   47.3876 H   0  0  0  0  0  0  0  0  0  0  0  0
   64.3368   32.6811   46.1432 H   0  0  0  0  0  0  0  0  0  0  0  0
   63.0013   33.8824   46.1432 H   0  0  0  0  0  0  0  0  0  0  0  0
  1  2  1  0
  2  3  2  0
  3  4  1  0
  4  5  2  0
  5  6  1  0
  6  7  2  0
  7  8  1  0
  8  9  1  0
  9 10  1  0
 10 11  1  0
 11 12  1  0
 12 13  2  0
 13 14  1  0
 14 15  2  0
 15 16  1  0
 16 17  1  0
 17 18  1  0
 18 19  1  0
 19 20  2  0
 20 21  1  0
 21 22  2  0
 16 23  2  0
  8 24  2  0
 24 25  1  0
  5 26  1  0
 26 27  2  0
 27 28  1  0
 27  2  1  0
 25  6  1  0
 23 12  1  0
 22 18  1  0
  1 29  1  0
  1 30  1  0
  1 31  1  0
  3 32  1  0
  4 33  1  0
  7 34  1  0
  9 35  1  0
  9 36  1  0
 10 37  1  0
 11 38  1  0
 11 39  1  0
 13 40  1  0
 14 41  1  0
 15 42  1  0
 17 43  1  0
 17 44  1  0
 19 45  1  0
 20 46  1  0
 22 47  1  0
 23 48  1  0
 24 49  1  0
 26 50  1  0
 28 51  1  0
 28 52  1  0
 28 53  1  0
M  CHG  1   7   1
M  END
>  <UniqueID>  (91) 
79

>  <SMILES>  (91) 
Cc1ccc(-c2[nH+]c(CNCc3cccc(Cn4ccnc4)c3)co2)cc1C

>  <Energy>  (91) 
107.21792705701199

>  <Genealogy>  (91) 
Cc1ccc(-c2[nH+]c(CNCc3cccc(Cn4ccnc4)c3)co2)cc1C (protonated)
Cc1ccc(-c2[nH+]c(CNCc3cccc(Cn4ccnc4)c3)co2)cc1C (3D coordinates assigned)
Cc1ccc(-c2[nH+]c(CNCc3cccc(Cn4ccnc4)c3)co2)cc1C (optimized conformer: 107.21792705701199 kcal/mol)

>  <smiles>  (91) 
Cc1ccc(-c2nc(CNCc3cccc(Cn4ccnc4)c3)co2)cc1C

>  <score_type>  (91) 
oracle

>  <origin>  (91) 
adg

>  <m_score__min__energy>  (91) 
-7.1600000000000001

>  <m_primary>  (91) 
energy

$$$$
91:0
     RDKit          3D

 38 40  0  0  0  0  0  0  0  0999 V2000
   58.2326   33.6322   42.9500 H   0  0  0  0  0  0  0  0  0  0  0  0
   57.7780   32.7210   43.3660 C   0  0  0  0  0  0  0  0  0  0  0  0
   57.3990   32.6700   44.7140 C   0  0  0  0  0  0  0  0  0  0  0  0
   57.6090   33.8510   45.6070 C   0  0  0  0  0  0  0  0  0  0  0  0
   57.5521   33.5308   46.6578 H   0  0  0  0  0  0  0  0  0  0  0  0
   58.5990   34.2882   45.4100 H   0  0  0  0  0  0  0  0  0  0  0  0
   56.8304   34.6027   45.4100 H   0  0  0  0  0  0  0  0  0  0  0  0
   56.8470   31.5320   45.2160 N   0  0  0  0  0  0  0  0  0  0  0  0
   56.6320   30.4280   44.4450 C   0  0  0  0  0  0  0  0  0  0  0  0
   56.0840   29.3630   44.9460 N   0  0  0  0  0  0  0  0  0  0  0  0
   56.9630   27.9180   45.3340 S   0  0  0  0  0  0  0  0  0  0  0  0
   56.0370   26.9360   45.9920 O   0  0  0  0  0  0  0  0  0  0  0  0
   57.4980   27.3160   44.0640 O   0  0  0  0  0  0  0  0  0  0  0  0
   58.2820   28.2890   46.4430 C   0  0  0  0  0  0  0  0  0  0  0  0
   58.7000   27.3460   47.3900 C   0  0  0  0  0  0  0  0  0  0  0  0
   58.1866   26.3759   47.4625 H   0  0  0  0  0  0  0  0  0  0  0  0
   59.7670   27.6350   48.2420 C   0  0  0  0  0  0  0  0  0  0  0  0
   60.0918   26.8920   48.9853 H   0  0  0  0  0  0  0  0  0  0  0  0
   60.4240   28.8650   48.1540 C   0  0  0  0  0  0  0  0  0  0  0  0
   61.2675   29.0837   48.8253 H   0  0  0  0  0  0  0  0  0  0  0  0
   60.0130   29.8250   47.2120 C   0  0  0  0  0  0  0  0  0  0  0  0
   60.7100   31.1320   47.1090 C   0  0  0  0  0  0  0  0  0  0  0  0
   62.0120   31.2880   47.6140 C   0  0  0  0  0  0  0  0  0  0  0  0
   62.5216   30.4425   48.0992 H   0  0  0  0  0  0  0  0  0  0  0  0
   62.6550   32.5200   47.4970 C   0  0  0  0  0  0  0  0  0  0  0  0
   63.6744   32.6490   47.8897 H   0  0  0  0  0  0  0  0  0  0  0  0
   62.0040   33.5870   46.8820 C   0  0  0  0  0  0  0  0  0  0  0  0
   62.5036   34.5622   46.7857 H   0  0  0  0  0  0  0  0  0  0  0  0
   60.7100   33.4050   46.3890 C   0  0  0  0  0  0  0  0  0  0  0  0
   60.1866   34.2409   45.9019 H   0  0  0  0  0  0  0  0  0  0  0  0
   60.0940   32.1970   46.5090 N   0  0  0  0  0  0  0  0  0  0  0  0
   59.1200   32.1050   46.1460 H   0  0  0  0  0  0  0  0  0  0  0  0
   58.9340   29.5280   46.3620 C   0  0  0  0  0  0  0  0  0  0  0  0
   58.5979   30.2739   45.6267 H   0  0  0  0  0  0  0  0  0  0  0  0
   56.9960   30.4490   43.0930 C   0  0  0  0  0  0  0  0  0  0  0  0
   56.8296   29.5653   42.4594 H   0  0  0  0  0  0  0  0  0  0  0  0
   57.5720   31.6020   42.5570 C   0  0  0  0  0  0  0  0  0  0  0  0
   57.8637   31.6289   41.4967 H   0  0  0  0  0  0  0  0  0  0  0  0
  1  2  1  0
  2  3  2  0
  3  4  1  0
  4  5  1  0
  4  6  1  0
  4  7  1  0
  3  8  1  0
  8  9  1  0
  9 10  2  0
 10 11  1  0
 11 12  2  0
 11 13  2  0
 11 14  1  0
 14 15  2  0
 15 16  1  0
 15 17  1  0
 17 18  1  0
 17 19  2  0
 19 20  1  0
 19 21  1  0
 21 22  1  0
 22 23  2  0
 23 24  1  0
 23 25  1  0
 25 26  1  0
 25 27  2  0
 27 28  1  0
 27 29  1  0
 29 30  1  0
 29 31  2  0
 31 32  1  0
 21 33  2  0
 33 34  1  0
  9 35  1  0
 35 36  1  0
 35 37  2  0
 37 38  1  0
 37  2  1  0
 33 14  1  0
 31 22  1  0
M  CHG  2   8  -1  31   1
M  END
>  <UniqueID>  (92) 
80

>  <SMILES>  (92) 
Cc1ccc/c(=N/S(=O)(=O)c2cccc(-c3cccc[nH+]3)c2)[n-]1

>  <Energy>  (92) 
47.17228246473505

>  <Genealogy>  (92) 
Cc1cccc(=NS(=O)(=O)c2cccc(-c3cccc[nH+]3)c2)[n-]1 (protonated)
Cc1ccc/c(=N/S(=O)(=O)c2cccc(-c3cccc[nH+]3)c2)[n-]1 (cis-trans isomerization)
Cc1ccc/c(=N/S(=O)(=O)c2cccc(-c3cccc[nH+]3)c2)[n-]1 (3D coordinates assigned)
Cc1ccc/c(=N/S(=O)(=O)c2cccc(-c3cccc[nH+]3)c2)[n-]1 (optimized conformer: 47.17228246473505 kcal/mol)

>  <smiles>  (92) 
Cc1cccc(=NS(=O)(=O)c2cccc(-c3ccccn3)c2)[nH]1

>  <score_type>  (92) 
oracle

>  <origin>  (92) 
adg

>  <m_score__min__energy>  (92) 
-8.4299999999999997

>  <m_primary>  (92) 
energy

$$$$
92:0
     RDKit          3D

 45 48  0  0  0  0  0  0  0  0999 V2000
   63.3390   33.7980   49.1760 C   0  0  0  0  0  0  0  0  0  0  0  0
   62.3620   32.8040   48.7130 N   0  0  0  0  0  0  0  0  0  0  0  0
   62.4790   31.4080   49.1660 C   0  0  0  0  0  0  0  0  0  0  0  0
   61.5520   31.1210   50.3600 C   0  0  0  0  0  0  0  0  0  0  0  0
   60.8870   29.8630   50.2170 O   0  0  0  0  0  0  0  0  0  0  0  0
   60.2290   29.4010   49.0650 C   0  0  0  0  0  0  0  0  0  0  0  0
   59.1250   30.0650   48.4960 C   0  0  0  0  0  0  0  0  0  0  0  0
   58.5680   29.6040   47.2990 C   0  0  0  0  0  0  0  0  0  0  0  0
   59.0920   28.4720   46.6600 C   0  0  0  0  0  0  0  0  0  0  0  0
   58.4940   27.9850   45.3700 C   0  0  0  0  0  0  0  0  0  0  0  0
   57.3530   27.0570   45.6500 C   0  0  0  0  0  0  0  0  0  0  0  0
   57.5030   25.4600   46.1730 S   0  0  0  0  0  0  0  0  0  0  0  0
   55.8390   25.2690   46.3280 C   0  0  0  0  0  0  0  0  0  0  0  0
   55.2790   24.2110   46.7160 O   0  0  0  0  0  0  0  0  0  0  0  0
   55.1540   26.3840   46.0010 N   0  0  0  0  0  0  0  0  0  0  0  0
   55.9980   27.3830   45.6290 C   0  0  0  0  0  0  0  0  0  0  0  0
   55.5260   28.6380   45.2620 O   0  0  0  0  0  0  0  0  0  0  0  0
   60.1520   27.7750   47.2610 C   0  0  0  0  0  0  0  0  0  0  0  0
   60.7110   28.2370   48.4550 C   0  0  0  0  0  0  0  0  0  0  0  0
   61.2610   33.2410   47.8910 C   0  0  0  0  0  0  0  0  0  0  0  0
   59.9710   32.9330   48.1740 N   0  0  0  0  0  0  0  0  0  0  0  0
   59.1390   33.3540   47.1890 C   0  0  0  0  0  0  0  0  0  0  0  0
   57.7610   33.1320   47.1740 C   0  0  0  0  0  0  0  0  0  0  0  0
   57.0160   33.5820   46.0720 C   0  0  0  0  0  0  0  0  0  0  0  0
   57.6520   34.2460   45.0050 C   0  0  0  0  0  0  0  0  0  0  0  0
   59.0420   34.4590   45.0260 C   0  0  0  0  0  0  0  0  0  0  0  0
   59.7540   34.0040   46.1320 C   0  0  0  0  0  0  0  0  0  0  0  0
   61.4080   34.0640   46.4090 S   0  0  0  0  0  0  0  0  0  0  0  0
   63.3537   33.8130   50.2758 H   0  0  0  0  0  0  0  0  0  0  0  0
   64.3381   33.5332   48.7995 H   0  0  0  0  0  0  0  0  0  0  0  0
   63.0570   34.7923   48.7995 H   0  0  0  0  0  0  0  0  0  0  0  0
   62.2089   30.7393   48.3354 H   0  0  0  0  0  0  0  0  0  0  0  0
   63.5170   31.2360   49.4869 H   0  0  0  0  0  0  0  0  0  0  0  0
   62.1514   31.1056   51.2822 H   0  0  0  0  0  0  0  0  0  0  0  0
   60.7887   31.9119   50.4021 H   0  0  0  0  0  0  0  0  0  0  0  0
   58.6997   30.9486   48.9945 H   0  0  0  0  0  0  0  0  0  0  0  0
   57.7121   30.1339   46.8556 H   0  0  0  0  0  0  0  0  0  0  0  0
   58.1291   28.8457   44.7903 H   0  0  0  0  0  0  0  0  0  0  0  0
   59.2635   27.4469   44.7969 H   0  0  0  0  0  0  0  0  0  0  0  0
   60.5440   26.8615   46.7899 H   0  0  0  0  0  0  0  0  0  0  0  0
   61.5380   27.6806   48.9203 H   0  0  0  0  0  0  0  0  0  0  0  0
   57.2678   32.6142   48.0099 H   0  0  0  0  0  0  0  0  0  0  0  0
   55.9292   33.4149   46.0419 H   0  0  0  0  0  0  0  0  0  0  0  0
   57.0577   34.6002   44.1498 H   0  0  0  0  0  0  0  0  0  0  0  0
   59.5504   34.9691   44.1946 H   0  0  0  0  0  0  0  0  0  0  0  0
  1  2  1  0
  2  3  1  0
  3  4  1  0
  4  5  1  0
  5  6  1  0
  6  7  2  0
  7  8  1  0
  8  9  2  0
  9 10  1  0
 10 11  1  0
 11 12  1  0
 12 13  1  0
 13 14  2  0
 13 15  1  0
 15 16  1  0
 16 17  1  0
  9 18  1  0
 18 19  2  0
  2 20  1  0
 20 21  2  0
 21 22  1  0
 22 23  2  0
 23 24  1  0
 24 25  2  0
 25 26  1  0
 26 27  2  0
 27 28  1  0
 19  6  1  0
 28 20  1  0
 16 11  2  0
 27 22  1  0
  1 29  1  0
  1 30  1  0
  1 31  1  0
  3 32  1  0
  3 33  1  0
  4 34  1  0
  4 35  1  0
  7 36  1  0
  8 37  1  0
 10 38  1  0
 10 39  1  0
 18 40  1  0
 19 41  1  0
 23 42  1  0
 24 43  1  0
 25 44  1  0
 26 45  1  0
M  CHG  2  15  -1  17  -1
M  END
>  <UniqueID>  (93) 
81

>  <SMILES>  (93) 
CN(CCOc1ccc(Cc2sc(=O)[n-]c2[O-])cc1)c1nc2ccccc2s1

>  <Energy>  (93) 
107.11512656086991

>  <Genealogy>  (93) 
CN(CCOc1ccc(Cc2sc(=O)[n-]c2[O-])cc1)c1nc2ccccc2s1 (protonated)
CN(CCOc1ccc(Cc2sc(=O)[n-]c2[O-])cc1)c1nc2ccccc2s1 (3D coordinates assigned)
CN(CCOc1ccc(Cc2sc(=O)[n-]c2[O-])cc1)c1nc2ccccc2s1 (optimized conformer: 107.11512656086991 kcal/mol)

>  <smiles>  (93) 
CN(CCOc1ccc(Cc2sc(=O)[nH]c2O)cc1)c1nc2ccccc2s1

>  <score_type>  (93) 
oracle

>  <origin>  (93) 
adg

>  <m_score__min__energy>  (93) 
-15.56

>  <m_primary>  (93) 
energy

$$$$
93:0
     RDKit          3D

 52 54  0  0  0  0  0  0  0  0999 V2000
   59.6570   34.5880   48.5410 C   0  0  0  0  0  0  0  0  0  0  0  0
   59.5690   34.7440   47.1280 O   0  0  0  0  0  0  0  0  0  0  0  0
   58.9790   33.8120   46.2600 C   0  0  0  0  0  0  0  0  0  0  0  0
   57.9650   34.1740   45.3520 C   0  0  0  0  0  0  0  0  0  0  0  0
   57.4020   33.2200   44.5040 C   0  0  0  0  0  0  0  0  0  0  0  0
   57.8320   31.8870   44.5520 C   0  0  0  0  0  0  0  0  0  0  0  0
   57.2410   30.8690   43.6130 C   0  0  0  0  0  0  0  0  0  0  0  0
   56.2850   29.9680   44.3480 C   0  0  0  0  0  0  0  0  0  0  0  0
   55.1480   29.7440   43.8540 O   0  0  0  0  0  0  0  0  0  0  0  0
   56.6090   29.4010   45.6230 N   0  0  0  0  0  0  0  0  0  0  0  0
   57.5090   28.3110   45.8620 C   0  0  0  0  0  0  0  0  0  0  0  0
   58.8610   28.5300   46.1820 C   0  0  0  0  0  0  0  0  0  0  0  0
   59.7210   27.4460   46.3740 C   0  0  0  0  0  0  0  0  0  0  0  0
   59.2460   26.1380   46.2330 C   0  0  0  0  0  0  0  0  0  0  0  0
   57.9070   25.9110   45.8900 C   0  0  0  0  0  0  0  0  0  0  0  0
   57.2940   24.2730   45.6800 S   0  0  0  0  0  0  0  0  0  0  0  0
   57.7610   23.4010   46.8130 O   0  0  0  0  0  0  0  0  0  0  0  0
   55.7910   24.3230   45.6960 O   0  0  0  0  0  0  0  0  0  0  0  0
   57.8630   23.6440   44.1470 N   0  0  0  0  0  0  0  0  0  0  0  0
   58.0920   22.1820   44.2030 C   0  0  0  0  0  0  0  0  0  0  0  0
   56.9330   21.3730   43.5930 C   0  0  0  0  0  0  0  0  0  0  0  0
   55.7080   22.0390   43.8050 O   0  0  0  0  0  0  0  0  0  0  0  0
   55.6560   23.2250   43.0290 C   0  0  0  0  0  0  0  0  0  0  0  0
   56.9760   24.0310   43.0370 C   0  0  0  0  0  0  0  0  0  0  0  0
   57.0460   26.9990   45.6950 C   0  0  0  0  0  0  0  0  0  0  0  0
   58.8510   31.5240   45.4460 C   0  0  0  0  0  0  0  0  0  0  0  0
   59.4250   32.4810   46.3050 C   0  0  0  0  0  0  0  0  0  0  0  0
   60.4430   32.1510   47.2150 O   0  0  0  0  0  0  0  0  0  0  0  0
   61.2620   30.9900   47.1230 C   0  0  0  0  0  0  0  0  0  0  0  0
   59.1741   35.4440   49.0352 H   0  0  0  0  0  0  0  0  0  0  0  0
   59.1502   33.6585   48.8396 H   0  0  0  0  0  0  0  0  0  0  0  0
   60.7147   34.5411   48.8396 H   0  0  0  0  0  0  0  0  0  0  0  0
   57.6146   35.2159   45.3112 H   0  0  0  0  0  0  0  0  0  0  0  0
   56.6160   33.5158   43.7936 H   0  0  0  0  0  0  0  0  0  0  0  0
   56.7018   31.3892   42.8076 H   0  0  0  0  0  0  0  0  0  0  0  0
   58.0535   30.2586   43.1920 H   0  0  0  0  0  0  0  0  0  0  0  0
   59.2420   29.5571   46.2813 H   0  0  0  0  0  0  0  0  0  0  0  0
   60.7746   27.6216   46.6368 H   0  0  0  0  0  0  0  0  0  0  0  0
   59.9245   25.2869   46.3916 H   0  0  0  0  0  0  0  0  0  0  0  0
   59.0132   21.9490   43.6488 H   0  0  0  0  0  0  0  0  0  0  0  0
   58.1712   21.8995   45.2631 H   0  0  0  0  0  0  0  0  0  0  0  0
   57.1008   21.2567   42.5121 H   0  0  0  0  0  0  0  0  0  0  0  0
   56.8922   20.3854   44.0758 H   0  0  0  0  0  0  0  0  0  0  0  0
   55.4231   22.9501   41.9897 H   0  0  0  0  0  0  0  0  0  0  0  0
   54.8836   23.8682   43.4759 H   0  0  0  0  0  0  0  0  0  0  0  0
   57.5022   23.8566   42.0869 H   0  0  0  0  0  0  0  0  0  0  0  0
   56.7199   25.0929   43.1667 H   0  0  0  0  0  0  0  0  0  0  0  0
   55.9988   26.8220   45.4087 H   0  0  0  0  0  0  0  0  0  0  0  0
   59.2045   30.4828   45.4761 H   0  0  0  0  0  0  0  0  0  0  0  0
   61.5115   30.6363   48.1342 H   0  0  0  0  0  0  0  0  0  0  0  0
   60.7197   30.2007   46.5818 H   0  0  0  0  0  0  0  0  0  0  0  0
   62.1875   31.2361   46.5818 H   0  0  0  0  0  0  0  0  0  0  0  0
  1  2  1  0
  2  3  1  0
  3  4  2  0
  4  5  1  0
  5  6  2  0
  6  7  1  0
  7  8  1  0
  8  9  2  0
  8 10  1  0
 10 11  1  0
 11 12  2  0
 12 13  1  0
 13 14  2  0
 14 15  1  0
 15 16  1  0
 16 17  2  0
 16 18  2  0
 16 19  1  0
 19 20  1  0
 20 21  1  0
 21 22  1  0
 22 23  1  0
 23 24  1  0
 15 25  2  0
  6 26  1  0
 26 27  2  0
 27 28  1  0
 28 29  1  0
 27  3  1  0
 25 11  1  0
 24 19  1  0
  1 30  1  0
  1 31  1  0
  1 32  1  0
  4 33  1  0
  5 34  1  0
  7 35  1  0
  7 36  1  0
 12 37  1  0
 13 38  1  0
 14 39  1  0
 20 40  1  0
 20 41  1  0
 21 42  1  0
 21 43  1  0
 23 44  1  0
 23 45  1  0
 24 46  1  0
 24 47  1  0
 25 48  1  0
 26 49  1  0
 29 50  1  0
 29 51  1  0
 29 52  1  0
M  CHG  1  10  -1
M  END
>  <UniqueID>  (94) 
82

>  <SMILES>  (94) 
COc1ccc(CC(=O)[N-]c2cccc(S(=O)(=O)N3CCOCC3)c2)cc1OC

>  <Energy>  (94) 
66.73584988846815

>  <Genealogy>  (94) 
COc1ccc(CC(=O)[N-]c2cccc(S(=O)(=O)N3CCOCC3)c2)cc1OC (protonated)
COc1ccc(CC(=O)[N-]c2cccc(S(=O)(=O)N3CCOCC3)c2)cc1OC (3D coordinates assigned)
COc1ccc(CC(=O)[N-]c2cccc(S(=O)(=O)N3CCOCC3)c2)cc1OC (nonaromatic ring conformer: 66.73584988846815 kcal/mol)

>  <smiles>  (94) 
COc1ccc(CC(=O)Nc2cccc(S(=O)(=O)N3CCOCC3)c2)cc1OC

>  <score_type>  (94) 
oracle

>  <origin>  (94) 
adg

>  <m_score__min__energy>  (94) 
-10.32

>  <m_primary>  (94) 
energy

$$$$
