0:0
     RDKit          3D

 38 39  0  0  0  0  0  0  0  0999 V2000
   59.2020   34.5780   44.8880 C   0  0  0  0  0  0  0  0  0  0  0  0
   58.6210   33.1950   44.8680 C   0  0  0  0  0  0  0  0  0  0  0  0
   58.6880   32.3830   46.0110 C   0  0  0  0  0  0  0  0  0  0  0  0
   58.1160   31.1080   46.0040 C   0  0  0  0  0  0  0  0  0  0  0  0
   57.4560   30.6370   44.8600 C   0  0  0  0  0  0  0  0  0  0  0  0
   56.7510   29.0220   44.8280 S   0  0  0  0  0  0  0  0  0  0  0  0
   57.4000   28.2350   43.7260 O   0  0  0  0  0  0  0  0  0  0  0  0
   55.2760   29.1020   44.5470 O   0  0  0  0  0  0  0  0  0  0  0  0
   57.0150   28.2040   46.3370 N   0  0  0  0  0  0  0  0  0  0  0  0
   58.1940   26.9450   46.1330 S   0  0  0  0  0  0  0  0  0  0  0  0
   59.2290   27.3870   45.1370 O   0  0  0  0  0  0  0  0  0  0  0  0
   58.8690   26.6280   47.4390 O   0  0  0  0  0  0  0  0  0  0  0  0
   57.3740   25.4940   45.5480 C   0  0  0  0  0  0  0  0  0  0  0  0
   58.1070   24.4160   45.0570 C   0  0  0  0  0  0  0  0  0  0  0  0
   57.4750   23.2920   44.6150 N   0  0  0  0  0  0  0  0  0  0  0  0
   58.2710   22.1570   44.1310 C   0  0  0  0  0  0  0  0  0  0  0  0
   56.1070   23.2080   44.6570 C   0  0  0  0  0  0  0  0  0  0  0  0
   55.5370   22.1440   44.2830 O   0  0  0  0  0  0  0  0  0  0  0  0
   55.3580   24.2660   45.1070 N   0  0  0  0  0  0  0  0  0  0  0  0
   53.8890   24.1570   45.1650 C   0  0  0  0  0  0  0  0  0  0  0  0
   55.9790   25.3960   45.5750 C   0  0  0  0  0  0  0  0  0  0  0  0
   55.2990   26.3530   46.0380 O   0  0  0  0  0  0  0  0  0  0  0  0
   57.3740   31.4520   43.7240 C   0  0  0  0  0  0  0  0  0  0  0  0
   57.9470   32.7280   43.7290 C   0  0  0  0  0  0  0  0  0  0  0  0
   59.3386   34.9033   45.9299 H   0  0  0  0  0  0  0  0  0  0  0  0
   60.1747   34.5745   44.3744 H   0  0  0  0  0  0  0  0  0  0  0  0
   58.5186   35.2703   44.3744 H   0  0  0  0  0  0  0  0  0  0  0  0
   59.1929   32.7518   46.9160 H   0  0  0  0  0  0  0  0  0  0  0  0
   58.1837   30.4718   46.8988 H   0  0  0  0  0  0  0  0  0  0  0  0
   59.2051   24.4722   45.0257 H   0  0  0  0  0  0  0  0  0  0  0  0
   58.6661   21.5937   44.9893 H   0  0  0  0  0  0  0  0  0  0  0  0
   57.6363   21.4978   43.5206 H   0  0  0  0  0  0  0  0  0  0  0  0
   59.1070   22.5292   43.5206 H   0  0  0  0  0  0  0  0  0  0  0  0
   53.5643   24.1329   46.2157 H   0  0  0  0  0  0  0  0  0  0  0  0
   53.4368   25.0241   44.6613 H   0  0  0  0  0  0  0  0  0  0  0  0
   53.5697   23.2327   44.6613 H   0  0  0  0  0  0  0  0  0  0  0  0
   56.8569   31.0872   42.8242 H   0  0  0  0  0  0  0  0  0  0  0  0
   57.8691   33.3675   42.8374 H   0  0  0  0  0  0  0  0  0  0  0  0
  1  2  1  0
  2  3  2  0
  3  4  1  0
  4  5  2  0
  5  6  1  0
  6  7  2  0
  6  8  2  0
  6  9  1  0
  9 10  1  0
 10 11  2  0
 10 12  2  0
 10 13  1  0
 13 14  2  0
 14 15  1  0
 15 16  1  0
 15 17  1  0
 17 18  2  0
 17 19  1  0
 19 20  1  0
 19 21  1  0
 21 22  2  0
  5 23  1  0
 23 24  2  0
 24  2  1  0
 21 13  1  0
  1 25  1  0
  1 26  1  0
  1 27  1  0
  3 28  1  0
  4 29  1  0
 14 30  1  0
 16 31  1  0
 16 32  1  0
 16 33  1  0
 20 34  1  0
 20 35  1  0
 20 36  1  0
 23 37  1  0
 24 38  1  0
M  CHG  1   9  -1
M  END
>  <UniqueID>  (1) 
1

>  <SMILES>  (1) 
Cc1ccc(S(=O)(=O)[N-]S(=O)(=O)c2cn(C)c(=O)n(C)c2=O)cc1

>  <Energy>  (1) 
42.91448953183147

>  <Genealogy>  (1) 
Cc1ccc(S(=O)(=O)[N-]S(=O)(=O)c2cn(C)c(=O)n(C)c2=O)cc1 (protonated)
Cc1ccc(S(=O)(=O)[N-]S(=O)(=O)c2cn(C)c(=O)n(C)c2=O)cc1 (3D coordinates assigned)
Cc1ccc(S(=O)(=O)[N-]S(=O)(=O)c2cn(C)c(=O)n(C)c2=O)cc1 (optimized conformer: 42.91448953183147 kcal/mol)

>  <smiles>  (1) 
Cc1ccc(S(=O)(=O)NS(=O)(=O)c2cn(C)c(=O)n(C)c2=O)cc1

>  <score_type>  (1) 
oracle

>  <origin>  (1) 
adg

>  <m_score__min__energy>  (1) 
-9.6699999999999999

>  <m_primary>  (1) 
energy

$$$$
1:0
     RDKit          3D

 39 42  0  0  0  0  0  0  0  0999 V2000
   57.7640   31.9020   41.4350 O   0  0  0  0  0  0  0  0  0  0  0  0
   57.4150   31.7580   42.6360 C   0  0  0  0  0  0  0  0  0  0  0  0
   57.7980   32.6970   43.5950 C   0  0  0  0  0  0  0  0  0  0  0  0
   57.3890   32.5040   44.9210 C   0  0  0  0  0  0  0  0  0  0  0  0
   57.8030   33.4620   45.9990 C   0  0  0  0  0  0  0  0  0  0  0  0
   59.2310   33.2080   46.3920 C   0  0  0  0  0  0  0  0  0  0  0  0
   60.2370   34.0350   46.0050 N   0  0  0  0  0  0  0  0  0  0  0  0
   61.3340   33.4360   46.5000 C   0  0  0  0  0  0  0  0  0  0  0  0
   62.6540   33.8600   46.3790 C   0  0  0  0  0  0  0  0  0  0  0  0
   63.6560   33.0620   46.9620 C   0  0  0  0  0  0  0  0  0  0  0  0
   63.3150   31.8710   47.6400 C   0  0  0  0  0  0  0  0  0  0  0  0
   61.9700   31.4690   47.7430 C   0  0  0  0  0  0  0  0  0  0  0  0
   61.0000   32.2880   47.1580 C   0  0  0  0  0  0  0  0  0  0  0  0
   59.6630   32.1280   47.1050 N   0  0  0  0  0  0  0  0  0  0  0  0
   58.8660   31.0300   47.6640 C   0  0  0  0  0  0  0  0  0  0  0  0
   58.9780   29.7950   46.8100 C   0  0  0  0  0  0  0  0  0  0  0  0
   59.5120   29.8760   45.5110 C   0  0  0  0  0  0  0  0  0  0  0  0
   59.5960   28.7320   44.7110 C   0  0  0  0  0  0  0  0  0  0  0  0
   59.1430   27.5020   45.1970 C   0  0  0  0  0  0  0  0  0  0  0  0
   58.6020   27.4150   46.4820 C   0  0  0  0  0  0  0  0  0  0  0  0
   58.5130   28.5570   47.2840 C   0  0  0  0  0  0  0  0  0  0  0  0
   56.6490   31.4080   45.2390 N   0  0  0  0  0  0  0  0  0  0  0  0
   56.2870   30.5050   44.2920 C   0  0  0  0  0  0  0  0  0  0  0  0
   55.5970   29.5020   44.6090 O   0  0  0  0  0  0  0  0  0  0  0  0
   56.6700   30.6830   43.0000 N   0  0  0  0  0  0  0  0  0  0  0  0
   58.4074   33.5692   43.3159 H   0  0  0  0  0  0  0  0  0  0  0  0
   57.7053   34.4927   45.6275 H   0  0  0  0  0  0  0  0  0  0  0  0
   57.1560   33.3189   46.8770 H   0  0  0  0  0  0  0  0  0  0  0  0
   62.9059   34.7883   45.8453 H   0  0  0  0  0  0  0  0  0  0  0  0
   64.7102   33.3675   46.8892 H   0  0  0  0  0  0  0  0  0  0  0  0
   64.1058   31.2533   48.0906 H   0  0  0  0  0  0  0  0  0  0  0  0
   61.6918   30.5421   48.2659 H   0  0  0  0  0  0  0  0  0  0  0  0
   59.2287   30.8013   48.6770 H   0  0  0  0  0  0  0  0  0  0  0  0
   57.8115   31.3416   47.6943 H   0  0  0  0  0  0  0  0  0  0  0  0
   59.8649   30.8429   45.1230 H   0  0  0  0  0  0  0  0  0  0  0  0
   60.0191   28.8001   43.6979 H   0  0  0  0  0  0  0  0  0  0  0  0
   59.2126   26.6026   44.5675 H   0  0  0  0  0  0  0  0  0  0  0  0
   58.2455   26.4468   46.8635 H   0  0  0  0  0  0  0  0  0  0  0  0
   58.0766   28.4856   48.2912 H   0  0  0  0  0  0  0  0  0  0  0  0
  1  2  2  0
  2  3  1  0
  3  4  2  0
  4  5  1  0
  5  6  1  0
  6  7  2  0
  7  8  1  0
  8  9  2  0
  9 10  1  0
 10 11  2  0
 11 12  1  0
 12 13  2  0
 13 14  1  0
 14 15  1  0
 15 16  1  0
 16 17  2  0
 17 18  1  0
 18 19  2  0
 19 20  1  0
 20 21  2  0
  4 22  1  0
 22 23  1  0
 23 24  2  0
 23 25  1  0
 25  2  1  0
 14  6  1  0
 21 16  1  0
 13  8  1  0
  3 26  1  0
  5 27  1  0
  5 28  1  0
  9 29  1  0
 10 30  1  0
 11 31  1  0
 12 32  1  0
 15 33  1  0
 15 34  1  0
 17 35  1  0
 18 36  1  0
 19 37  1  0
 20 38  1  0
 21 39  1  0
M  CHG  2  22  -1  25  -1
M  END
>  <UniqueID>  (2) 
2

>  <SMILES>  (2) 
O=c1cc(Cc2nc3ccccc3n2Cc2ccccc2)[n-]c(=O)[n-]1

>  <Energy>  (2) 
78.1863053976333

>  <Genealogy>  (2) 
O=c1cc(Cc2nc3ccccc3n2Cc2ccccc2)[n-]c(=O)[n-]1 (protonated)
O=c1cc(Cc2nc3ccccc3n2Cc2ccccc2)[n-]c(=O)[n-]1 (3D coordinates assigned)
O=c1cc(Cc2nc3ccccc3n2Cc2ccccc2)[n-]c(=O)[n-]1 (optimized conformer: 78.1863053976333 kcal/mol)

>  <smiles>  (2) 
O=c1cc(Cc2nc3ccccc3n2Cc2ccccc2)[nH]c(=O)[nH]1

>  <score_type>  (2) 
oracle

>  <origin>  (2) 
adg

>  <m_score__min__energy>  (2) 
-11.68

>  <m_primary>  (2) 
energy

$$$$
2:0
     RDKit          3D

 55 57  0  0  0  0  0  0  0  0999 V2000
   60.7660   32.8130   52.6000 C   0  0  0  0  0  0  0  0  0  0  0  0
   60.3710   33.8410   51.7000 O   0  0  0  0  0  0  0  0  0  0  0  0
   60.6650   33.8680   50.3290 C   0  0  0  0  0  0  0  0  0  0  0  0
   59.6450   33.9890   49.3620 C   0  0  0  0  0  0  0  0  0  0  0  0
   59.9620   34.0880   47.9970 C   0  0  0  0  0  0  0  0  0  0  0  0
   58.8750   34.2240   46.9550 C   0  0  0  0  0  0  0  0  0  0  0  0
   58.3140   32.9160   46.5620 N   0  0  0  0  0  0  0  0  0  0  0  0
   58.9240   32.3620   45.3470 C   0  0  0  0  0  0  0  0  0  0  0  0
   57.9940   31.4230   44.6150 C   0  0  0  0  0  0  0  0  0  0  0  0
   57.6890   31.6410   43.2590 C   0  0  0  0  0  0  0  0  0  0  0  0
   56.8090   30.7860   42.5910 C   0  0  0  0  0  0  0  0  0  0  0  0
   56.2290   29.7080   43.2670 C   0  0  0  0  0  0  0  0  0  0  0  0
   56.5270   29.4700   44.6150 C   0  0  0  0  0  0  0  0  0  0  0  0
   55.9210   28.3420   45.2660 N   0  0  0  0  0  0  0  0  0  0  0  0
   56.7820   26.9550   45.8510 S   0  0  0  0  0  0  0  0  0  0  0  0
   57.9750   27.4890   47.0570 C   0  0  0  0  0  0  0  0  0  0  0  0
   57.4900   26.2720   44.7150 O   0  0  0  0  0  0  0  0  0  0  0  0
   55.8250   25.9930   46.5050 O   0  0  0  0  0  0  0  0  0  0  0  0
   57.4090   30.3340   45.2880 C   0  0  0  0  0  0  0  0  0  0  0  0
   61.3050   34.0830   47.6010 C   0  0  0  0  0  0  0  0  0  0  0  0
   62.3170   33.9520   48.5490 C   0  0  0  0  0  0  0  0  0  0  0  0
   62.0140   33.8130   49.9080 C   0  0  0  0  0  0  0  0  0  0  0  0
   63.0960   33.6380   50.7890 O   0  0  0  0  0  0  0  0  0  0  0  0
   64.1020   32.6260   50.6990 C   0  0  0  0  0  0  0  0  0  0  0  0
   65.4840   33.1990   50.9220 C   0  0  0  0  0  0  0  0  0  0  0  0
   66.5600   32.7420   50.1400 C   0  0  0  0  0  0  0  0  0  0  0  0
   67.8530   33.2260   50.3670 C   0  0  0  0  0  0  0  0  0  0  0  0
   68.0810   34.1790   51.3630 C   0  0  0  0  0  0  0  0  0  0  0  0
   67.0200   34.6440   52.1430 C   0  0  0  0  0  0  0  0  0  0  0  0
   65.7240   34.1570   51.9350 C   0  0  0  0  0  0  0  0  0  0  0  0
   64.4360   34.7420   52.9830 Cl  0  0  0  0  0  0  0  0  0  0  0  0
   60.6324   33.1606   53.6351 H   0  0  0  0  0  0  0  0  0  0  0  0
   60.1471   31.9195   52.4305 H   0  0  0  0  0  0  0  0  0  0  0  0
   61.8239   32.5638   52.4305 H   0  0  0  0  0  0  0  0  0  0  0  0
   58.5920   34.0060   49.6797 H   0  0  0  0  0  0  0  0  0  0  0  0
   58.0669   34.8475   47.3651 H   0  0  0  0  0  0  0  0  0  0  0  0
   59.3198   34.6839   46.0602 H   0  0  0  0  0  0  0  0  0  0  0  0
   57.2710   32.9460   46.4630 H   0  0  0  0  0  0  0  0  0  0  0  0
   59.1900   33.1913   44.6751 H   0  0  0  0  0  0  0  0  0  0  0  0
   59.8126   31.7880   45.6485 H   0  0  0  0  0  0  0  0  0  0  0  0
   58.1446   32.4869   42.7234 H   0  0  0  0  0  0  0  0  0  0  0  0
   56.5719   30.9611   41.5312 H   0  0  0  0  0  0  0  0  0  0  0  0
   55.5333   29.0416   42.7361 H   0  0  0  0  0  0  0  0  0  0  0  0
   57.5791   27.3118   48.0679 H   0  0  0  0  0  0  0  0  0  0  0  0
   58.9089   26.9230   46.9245 H   0  0  0  0  0  0  0  0  0  0  0  0
   58.1750   28.5625   46.9245 H   0  0  0  0  0  0  0  0  0  0  0  0
   57.6435   30.1575   46.3481 H   0  0  0  0  0  0  0  0  0  0  0  0
   61.5621   34.1830   46.5361 H   0  0  0  0  0  0  0  0  0  0  0  0
   63.3682   33.9579   48.2251 H   0  0  0  0  0  0  0  0  0  0  0  0
   63.9059   31.8578   51.4616 H   0  0  0  0  0  0  0  0  0  0  0  0
   64.0665   32.1919   49.6889 H   0  0  0  0  0  0  0  0  0  0  0  0
   66.3842   32.0008   49.3464 H   0  0  0  0  0  0  0  0  0  0  0  0
   68.6921   32.8553   49.7599 H   0  0  0  0  0  0  0  0  0  0  0  0
   69.0975   34.5635   51.5330 H   0  0  0  0  0  0  0  0  0  0  0  0
   67.2034   35.3963   52.9243 H   0  0  0  0  0  0  0  0  0  0  0  0
  1  2  1  0
  2  3  1  0
  3  4  2  0
  4  5  1  0
  5  6  1  0
  6  7  1  0
  7  8  1  0
  8  9  1  0
  9 10  2  0
 10 11  1  0
 11 12  2  0
 12 13  1  0
 13 14  1  0
 14 15  1  0
 15 16  1  0
 15 17  2  0
 15 18  2  0
 13 19  2  0
  5 20  2  0
 20 21  1  0
 21 22  2  0
 22 23  1  0
 23 24  1  0
 24 25  1  0
 25 26  2  0
 26 27  1  0
 27 28  2  0
 28 29  1  0
 29 30  2  0
 30 31  1  0
 22  3  1  0
 30 25  1  0
 19  9  1  0
  1 32  1  0
  1 33  1  0
  1 34  1  0
  4 35  1  0
  6 36  1  0
  6 37  1  0
  7 38  1  0
  8 39  1  0
  8 40  1  0
 10 41  1  0
 11 42  1  0
 12 43  1  0
 16 44  1  0
 16 45  1  0
 16 46  1  0
 19 47  1  0
 20 48  1  0
 21 49  1  0
 24 50  1  0
 24 51  1  0
 26 52  1  0
 27 53  1  0
 28 54  1  0
 29 55  1  0
M  CHG  1  14  -1
M  END
>  <UniqueID>  (3) 
3

>  <SMILES>  (3) 
COc1cc(CNCc2cccc([N-]S(C)(=O)=O)c2)ccc1OCc1ccccc1Cl

>  <Energy>  (3) 
55.309008877057956

>  <Genealogy>  (3) 
COc1cc(CNCc2cccc([N-]S(C)(=O)=O)c2)ccc1OCc1ccccc1Cl (protonated)
COc1cc(CNCc2cccc([N-]S(C)(=O)=O)c2)ccc1OCc1ccccc1Cl (3D coordinates assigned)
COc1cc(CNCc2cccc([N-]S(C)(=O)=O)c2)ccc1OCc1ccccc1Cl (optimized conformer: 55.309008877057956 kcal/mol)

>  <smiles>  (3) 
COc1cc(CNCc2cccc(NS(C)(=O)=O)c2)ccc1OCc1ccccc1Cl

>  <score_type>  (3) 
oracle

>  <origin>  (3) 
adg

>  <m_score__min__energy>  (3) 
-11.02

>  <m_primary>  (3) 
energy

$$$$
3:0
     RDKit          3D

 38 39  0  0  0  0  0  0  0  0999 V2000
   59.1900   33.1340   46.3190 C   0  0  0  0  0  0  0  0  0  0  0  0
   57.8060   32.9400   45.8670 N   0  0  0  0  0  0  0  0  0  0  0  0
   57.3790   34.0810   45.0470 C   0  0  0  0  0  0  0  0  0  0  0  0
   57.7030   31.4630   44.9410 S   0  0  0  0  0  0  0  0  0  0  0  0
   58.2590   31.6990   43.5640 O   0  0  0  0  0  0  0  0  0  0  0  0
   56.2490   31.0990   44.8010 O   0  0  0  0  0  0  0  0  0  0  0  0
   58.5810   30.1770   45.7570 N   0  0  0  0  0  0  0  0  0  0  0  0
   59.7190   29.6500   44.9620 C   0  0  0  0  0  0  0  0  0  0  0  0
   59.5030   28.2240   44.4180 C   0  0  0  0  0  0  0  0  0  0  0  0
   58.0520   28.0120   43.9880 C   0  0  0  0  0  0  0  0  0  0  0  0
   57.0650   28.2690   45.1530 C   0  0  1  0  0  0  0  0  0  0  0  0
   56.5470   26.9760   45.7260 C   0  0  0  0  0  0  0  0  0  0  0  0
   57.3170   25.8910   46.0930 C   0  0  0  0  0  0  0  0  0  0  0  0
   56.3890   24.9520   46.5010 C   0  0  0  0  0  0  0  0  0  0  0  0
   56.6640   23.5940   47.0020 C   0  0  0  0  0  0  0  0  0  0  0  0
   55.6960   22.8690   47.7640 N   0  0  0  0  0  0  0  0  0  0  0  0
   57.7780   23.0600   46.7530 O   0  0  0  0  0  0  0  0  0  0  0  0
   55.1460   25.4560   46.3690 N   0  0  0  0  0  0  0  0  0  0  0  0
   55.2420   26.6870   45.8920 N   0  0  0  0  0  0  0  0  0  0  0  0
   57.6900   29.1270   46.2800 C   0  0  0  0  0  0  0  0  0  0  0  0
   59.2194   33.1381   47.4186 H   0  0  0  0  0  0  0  0  0  0  0  0
   59.8182   32.3151   45.9385 H   0  0  0  0  0  0  0  0  0  0  0  0
   59.5688   34.0940   45.9385 H   0  0  0  0  0  0  0  0  0  0  0  0
   57.0694   34.9082   45.7026 H   0  0  0  0  0  0  0  0  0  0  0  0
   58.2150   34.4095   44.4121 H   0  0  0  0  0  0  0  0  0  0  0  0
   56.5327   33.7799   44.4121 H   0  0  0  0  0  0  0  0  0  0  0  0
   59.8846   30.3235   44.1082 H   0  0  0  0  0  0  0  0  0  0  0  0
   60.5833   29.6019   45.6407 H   0  0  0  0  0  0  0  0  0  0  0  0
   60.1611   28.0671   43.5507 H   0  0  0  0  0  0  0  0  0  0  0  0
   59.7384   27.5062   45.2175 H   0  0  0  0  0  0  0  0  0  0  0  0
   57.8196   28.7038   43.1650 H   0  0  0  0  0  0  0  0  0  0  0  0
   57.9390   26.9657   43.6680 H   0  0  0  0  0  0  0  0  0  0  0  0
   56.2252   28.8354   44.7242 H   0  0  0  0  0  0  0  0  0  0  0  0
   58.4126   25.7960   46.0668 H   0  0  0  0  0  0  0  0  0  0  0  0
   55.9160   21.9100   48.1080 H   0  0  0  0  0  0  0  0  0  0  0  0
   54.7610   23.2740   47.9900 H   0  0  0  0  0  0  0  0  0  0  0  0
   56.8801   29.6034   46.8519 H   0  0  0  0  0  0  0  0  0  0  0  0
   58.2928   28.4605   46.9143 H   0  0  0  0  0  0  0  0  0  0  0  0
  1  2  1  0
  2  3  1  0
  2  4  1  0
  4  5  2  0
  4  6  2  0
  4  7  1  0
  7  8  1  0
  8  9  1  0
  9 10  1  0
 10 11  1  0
 11 12  1  0
 12 13  2  0
 13 14  1  0
 14 15  1  0
 15 16  1  0
 15 17  2  0
 14 18  2  0
 18 19  1  0
 11 20  1  0
 20  7  1  0
 19 12  1  0
  1 21  1  0
  1 22  1  0
  1 23  1  0
  3 24  1  0
  3 25  1  0
  3 26  1  0
  8 27  1  0
  8 28  1  0
  9 29  1  0
  9 30  1  0
 10 31  1  0
 10 32  1  0
 11 33  1  6
 13 34  1  0
 16 35  1  0
 16 36  1  0
 20 37  1  0
 20 38  1  0
M  CHG  1  19  -1
M  END
>  <UniqueID>  (4) 
4

>  <SMILES>  (4) 
CN(C)S(=O)(=O)N1CCC[C@@H](c2cc(C(N)=O)n[n-]2)C1

>  <Energy>  (4) 
68.95868177047767

>  <Genealogy>  (4) 
CN(C)S(=O)(=O)N1CCCC(c2cc(C(N)=O)n[n-]2)C1 (protonated)
CN(C)S(=O)(=O)N1CCC[C@@H](c2cc(C(N)=O)n[n-]2)C1 (chirality)
CN(C)S(=O)(=O)N1CCC[C@@H](c2cc(C(N)=O)n[n-]2)C1 (3D coordinates assigned)
CN(C)S(=O)(=O)N1CCC[C@@H](c2cc(C(N)=O)n[n-]2)C1 (nonaromatic ring conformer: 68.95868177047767 kcal/mol)

>  <smiles>  (4) 
CN(C)S(=O)(=O)N1CCCC(c2cc(C(N)=O)n[nH]2)C1

>  <score_type>  (4) 
oracle

>  <origin>  (4) 
adg

>  <m_score__min__energy>  (4) 
-10.09

>  <m_primary>  (4) 
energy

$$$$
4:0
     RDKit          3D

 54 57  0  0  0  0  0  0  0  0999 V2000
   54.4970   25.1300   45.6190 C   0  0  0  0  0  0  0  0  0  0  0  0
   55.1380   26.3740   46.0280 N   0  0  0  0  0  0  0  0  0  0  0  0
   56.8410   26.1060   46.2500 S   0  0  0  0  0  0  0  0  0  0  0  0
   57.0660   25.3170   47.5100 O   0  0  0  0  0  0  0  0  0  0  0  0
   57.4060   25.3440   45.0840 O   0  0  0  0  0  0  0  0  0  0  0  0
   57.6440   27.6370   46.3760 N   0  0  0  0  0  0  0  0  0  0  0  0
   58.4270   28.0410   47.3990 C   0  0  0  0  0  0  0  0  0  0  0  0
   58.9030   29.3280   47.1630 C   0  0  0  0  0  0  0  0  0  0  0  0
   59.8020   30.0830   48.0560 C   0  0  0  0  0  0  0  0  0  0  0  0
   60.9280   29.6030   48.3520 O   0  0  0  0  0  0  0  0  0  0  0  0
   59.4100   31.3580   48.5730 N   0  0  0  0  0  0  0  0  0  0  0  0
   60.3310   32.4730   48.8010 C   0  0  1  0  0  0  0  0  0  0  0  0
   59.5590   33.7990   48.7030 C   0  0  0  0  0  0  0  0  0  0  0  0
   58.9120   33.9580   47.3510 C   0  0  0  0  0  0  0  0  0  0  0  0
   59.6370   34.5130   46.2820 C   0  0  0  0  0  0  0  0  0  0  0  0
   59.0510   34.6260   45.0180 C   0  0  0  0  0  0  0  0  0  0  0  0
   57.7420   34.1830   44.8090 C   0  0  0  0  0  0  0  0  0  0  0  0
   57.0170   33.6250   45.8650 C   0  0  0  0  0  0  0  0  0  0  0  0
   57.5980   33.5100   47.1310 C   0  0  0  0  0  0  0  0  0  0  0  0
   60.9740   32.3620   50.1640 C   0  0  0  0  0  0  0  0  0  0  0  0
   62.2100   32.1370   50.2600 O   0  0  0  0  0  0  0  0  0  0  0  0
   60.1660   32.3020   51.3490 N   0  0  0  0  0  0  0  0  0  0  0  0
   59.1330   31.5380   51.5630 C   0  0  0  0  0  0  0  0  0  0  0  0
   57.8570   32.1180   51.5470 C   0  0  0  0  0  0  0  0  0  0  0  0
   56.7290   31.3230   51.7680 C   0  0  0  0  0  0  0  0  0  0  0  0
   56.8670   29.9890   51.9810 N   0  0  0  0  0  0  0  0  0  0  0  0
   58.0870   29.3910   51.9830 C   0  0  0  0  0  0  0  0  0  0  0  0
   59.2410   30.1490   51.7680 C   0  0  0  0  0  0  0  0  0  0  0  0
   58.3690   29.7070   45.9370 C   0  0  0  0  0  0  0  0  0  0  0  0
   58.4780   30.8870   45.1930 C   0  0  0  0  0  0  0  0  0  0  0  0
   57.7990   30.9610   43.9650 C   0  0  0  0  0  0  0  0  0  0  0  0
   57.0270   29.8730   43.5070 C   0  0  0  0  0  0  0  0  0  0  0  0
   56.9250   28.7000   44.2740 C   0  0  0  0  0  0  0  0  0  0  0  0
   57.6100   28.6510   45.4900 C   0  0  0  0  0  0  0  0  0  0  0  0
   54.2025   24.5585   46.5116 H   0  0  0  0  0  0  0  0  0  0  0  0
   53.6040   25.3578   45.0184 H   0  0  0  0  0  0  0  0  0  0  0  0
   55.2008   24.5351   45.0184 H   0  0  0  0  0  0  0  0  0  0  0  0
   58.6561   27.4396   48.2911 H   0  0  0  0  0  0  0  0  0  0  0  0
   61.1214   32.4423   48.0366 H   0  0  0  0  0  0  0  0  0  0  0  0
   58.7786   33.8173   49.4780 H   0  0  0  0  0  0  0  0  0  0  0  0
   60.2700   34.6259   48.8468 H   0  0  0  0  0  0  0  0  0  0  0  0
   60.6689   34.8595   46.4408 H   0  0  0  0  0  0  0  0  0  0  0  0
   59.6214   35.0646   44.1859 H   0  0  0  0  0  0  0  0  0  0  0  0
   57.2828   34.2736   43.8136 H   0  0  0  0  0  0  0  0  0  0  0  0
   55.9871   33.2756   45.6997 H   0  0  0  0  0  0  0  0  0  0  0  0
   57.0246   33.0671   47.9586 H   0  0  0  0  0  0  0  0  0  0  0  0
   57.7438   33.1962   51.3610 H   0  0  0  0  0  0  0  0  0  0  0  0
   55.7278   31.7786   51.7694 H   0  0  0  0  0  0  0  0  0  0  0  0
   58.1665   28.3073   52.1543 H   0  0  0  0  0  0  0  0  0  0  0  0
   60.2280   29.6635   51.7589 H   0  0  0  0  0  0  0  0  0  0  0  0
   59.0783   31.7329   45.5591 H   0  0  0  0  0  0  0  0  0  0  0  0
   57.8701   31.8744   43.3562 H   0  0  0  0  0  0  0  0  0  0  0  0
   56.5014   29.9432   42.5432 H   0  0  0  0  0  0  0  0  0  0  0  0
   56.3240   27.8465   43.9272 H   0  0  0  0  0  0  0  0  0  0  0  0
  1  2  1  0
  2  3  1  0
  3  4  2  0
  3  5  2  0
  3  6  1  0
  6  7  1  0
  7  8  2  0
  8  9  1  0
  9 10  2  0
  9 11  1  0
 11 12  1  0
 12 13  1  0
 13 14  1  0
 14 15  2  0
 15 16  1  0
 16 17  2  0
 17 18  1  0
 18 19  2  0
 12 20  1  0
 20 21  2  0
 20 22  1  0
 22 23  2  3
 23 24  1  0
 24 25  2  0
 25 26  1  0
 26 27  1  0
 27 28  2  0
  8 29  1  0
 29 30  2  0
 30 31  1  0
 31 32  2  0
 32 33  1  0
 33 34  2  0
 34  6  1  0
 19 14  1  0
 28 23  1  0
 34 29  1  0
  1 35  1  0
  1 36  1  0
  1 37  1  0
  7 38  1  0
 12 39  1  6
 13 40  1  0
 13 41  1  0
 15 42  1  0
 16 43  1  0
 17 44  1  0
 18 45  1  0
 19 46  1  0
 24 47  1  0
 25 48  1  0
 27 49  1  0
 28 50  1  0
 30 51  1  0
 31 52  1  0
 32 53  1  0
 33 54  1  0
M  CHG  3   2  -1  11  -1  26  -1
M  END
>  <UniqueID>  (5) 
5

>  <SMILES>  (5) 
C[N-]S(=O)(=O)n1cc(C(=O)[N-][C@@H](Cc2ccccc2)C(=O)N=c2cc[n-]cc2)c2ccccc21

>  <Energy>  (5) 
97.19858551097096

>  <Genealogy>  (5) 
C[N-]S(=O)(=O)n1cc(C(=O)[N-]C(Cc2ccccc2)C(=O)N=c2cc[n-]cc2)c2ccccc21 (protonated)
C[N-]S(=O)(=O)n1cc(C(=O)[N-][C@@H](Cc2ccccc2)C(=O)N=c2cc[n-]cc2)c2ccccc21 (chirality)
C[N-]S(=O)(=O)n1cc(C(=O)[N-][C@@H](Cc2ccccc2)C(=O)N=c2cc[n-]cc2)c2ccccc21 (3D coordinates assigned)
C[N-]S(=O)(=O)n1cc(C(=O)[N-][C@@H](Cc2ccccc2)C(=O)N=c2cc[n-]cc2)c2ccccc21 (optimized conformer: 97.19858551097096 kcal/mol)

>  <smiles>  (5) 
CNS(=O)(=O)n1cc(C(=O)NC(Cc2ccccc2)C(=O)N=c2cc[nH]cc2)c2ccccc21

>  <score_type>  (5) 
oracle

>  <origin>  (5) 
adg

>  <m_score__min__energy>  (5) 
-13.890000000000001

>  <m_primary>  (5) 
energy

$$$$
5:0
     RDKit          3D

 33 34  0  0  0  0  0  0  0  0999 V2000
   58.5125   27.6590   44.8184 H   0  0  0  0  0  0  0  0  0  0  0  0
   57.8880   26.8270   45.1760 C   0  0  0  0  0  0  0  0  0  0  0  0
   56.5050   27.1450   45.5970 C   0  0  0  0  0  0  0  0  0  0  0  0
   55.7990   26.2710   46.1660 O   0  0  0  0  0  0  0  0  0  0  0  0
   55.9020   28.3990   45.2560 N   0  0  0  0  0  0  0  0  0  0  0  0
   56.5010   29.4430   44.4720 C   0  0  0  0  0  0  0  0  0  0  0  0
   56.0320   29.7480   43.1810 C   0  0  0  0  0  0  0  0  0  0  0  0
   55.1767   29.1955   42.7648 H   0  0  0  0  0  0  0  0  0  0  0  0
   56.6470   30.7490   42.4250 C   0  0  0  0  0  0  0  0  0  0  0  0
   56.2660   30.9924   41.4222 H   0  0  0  0  0  0  0  0  0  0  0  0
   57.7450   31.4410   42.9410 C   0  0  0  0  0  0  0  0  0  0  0  0
   58.2239   32.2338   42.3477 H   0  0  0  0  0  0  0  0  0  0  0  0
   58.2350   31.1260   44.2110 C   0  0  0  0  0  0  0  0  0  0  0  0
   59.1048   31.6666   44.6125 H   0  0  0  0  0  0  0  0  0  0  0  0
   57.6230   30.1250   44.9740 C   0  0  0  0  0  0  0  0  0  0  0  0
   58.3280   29.7200   46.7080 Br  0  0  0  0  0  0  0  0  0  0  0  0
   58.4400   25.6050   45.1960 C   0  0  0  0  0  0  0  0  0  0  0  0
   59.4676   25.5203   45.5793 H   0  0  0  0  0  0  0  0  0  0  0  0
   57.7780   24.3620   44.7440 C   0  0  0  0  0  0  0  0  0  0  0  0
   58.0700   23.1210   45.3350 C   0  0  0  0  0  0  0  0  0  0  0  0
   58.7779   23.0678   46.1753 H   0  0  0  0  0  0  0  0  0  0  0  0
   57.4650   21.9540   44.8600 C   0  0  0  0  0  0  0  0  0  0  0  0
   57.6864   20.9902   45.3417 H   0  0  0  0  0  0  0  0  0  0  0  0
   56.5800   22.0010   43.7770 C   0  0  0  0  0  0  0  0  0  0  0  0
   55.9970   20.8030   43.3400 O   0  0  0  0  0  0  0  0  0  0  0  0
   55.8990   19.6210   44.1290 C   0  0  0  0  0  0  0  0  0  0  0  0
   55.9212   19.8892   45.1956 H   0  0  0  0  0  0  0  0  0  0  0  0
   54.9550   19.1047   43.9003 H   0  0  0  0  0  0  0  0  0  0  0  0
   56.7451   18.9563   43.9003 H   0  0  0  0  0  0  0  0  0  0  0  0
   56.3110   23.2400   43.1640 C   0  0  0  0  0  0  0  0  0  0  0  0
   55.6229   23.2892   42.3072 H   0  0  0  0  0  0  0  0  0  0  0  0
   56.9150   24.4080   43.6400 C   0  0  0  0  0  0  0  0  0  0  0  0
   56.7117   25.3691   43.1450 H   0  0  0  0  0  0  0  0  0  0  0  0
  1  2  1  0
  2  3  1  0
  3  4  2  0
  3  5  1  0
  5  6  1  0
  6  7  2  0
  7  8  1  0
  7  9  1  0
  9 10  1  0
  9 11  2  0
 11 12  1  0
 11 13  1  0
 13 14  1  0
 13 15  2  0
 15 16  1  0
  2 17  2  0
 17 18  1  0
 17 19  1  0
 19 20  2  0
 20 21  1  0
 20 22  1  0
 22 23  1  0
 22 24  2  0
 24 25  1  0
 25 26  1  0
 26 27  1  0
 26 28  1  0
 26 29  1  0
 24 30  1  0
 30 31  1  0
 30 32  2  0
 32 33  1  0
 15  6  1  0
 32 19  1  0
M  CHG  1   5  -1
M  END
>  <UniqueID>  (6) 
6

>  <SMILES>  (6) 
COc1ccc(/C=C\C(=O)[N-]c2ccccc2Br)cc1

>  <Energy>  (6) 
45.08704473922291

>  <Genealogy>  (6) 
COc1ccc(C=CC(=O)[N-]c2ccccc2Br)cc1 (protonated)
COc1ccc(/C=C\C(=O)[N-]c2ccccc2Br)cc1 (cis-trans isomerization)
COc1ccc(/C=C\C(=O)[N-]c2ccccc2Br)cc1 (3D coordinates assigned)
COc1ccc(/C=C\C(=O)[N-]c2ccccc2Br)cc1 (optimized conformer: 45.08704473922291 kcal/mol)

>  <smiles>  (6) 
COc1ccc(C=CC(=O)Nc2ccccc2Br)cc1

>  <score_type>  (6) 
oracle

>  <origin>  (6) 
adg

>  <m_score__min__energy>  (6) 
-9.1400000000000006

>  <m_primary>  (6) 
energy

$$$$
6:0
     RDKit          3D

 60 63  0  0  0  0  0  0  0  0999 V2000
   58.5900   31.3690   47.0000 N   0  0  0  0  0  0  0  0  0  0  0  0
   58.4870   32.4060   46.2240 C   0  0  0  0  0  0  0  0  0  0  0  0
   59.0580   33.6790   46.5130 N   0  0  0  0  0  0  0  0  0  0  0  0
   60.3220   33.8740   47.2470 C   0  0  0  0  0  0  0  0  0  0  0  0
   61.5350   33.4720   46.3770 C   0  0  0  0  0  0  0  0  0  0  0  0
   62.8080   33.4080   47.2290 C   0  0  0  0  0  0  0  0  0  0  0  0
   62.6980   32.3770   48.3780 C   0  0  0  0  0  0  0  0  0  0  0  0
   61.2540   31.9530   48.6940 C   0  0  0  0  0  0  0  0  0  0  0  0
   60.2850   33.1400   48.6190 C   0  0  0  0  0  0  0  0  0  0  0  0
   58.5800   34.6000   45.4750 C   0  0  0  0  0  0  0  0  0  0  0  0
   57.7300   33.7630   44.4910 C   0  0  0  0  0  0  0  0  0  0  0  0
   57.7100   32.4170   45.0380 N   0  0  0  0  0  0  0  0  0  0  0  0
   57.1070   31.0300   44.1860 S   0  0  0  0  0  0  0  0  0  0  0  0
   57.2770   31.2350   42.7060 O   0  0  0  0  0  0  0  0  0  0  0  0
   55.6480   30.8340   44.4930 O   0  0  0  0  0  0  0  0  0  0  0  0
   57.9840   29.5930   44.7030 C   0  0  0  0  0  0  0  0  0  0  0  0
   57.3020   28.5650   45.3670 C   0  0  0  0  0  0  0  0  0  0  0  0
   57.9950   27.4470   45.8350 C   0  0  0  0  0  0  0  0  0  0  0  0
   59.3820   27.3420   45.6450 C   0  0  0  0  0  0  0  0  0  0  0  0
   60.1280   26.1300   46.1400 C   0  0  0  0  0  0  0  0  0  0  0  0
   60.7650   26.3760   47.5130 C   0  0  0  0  0  0  0  0  0  0  0  0
   59.7790   26.8860   48.4710 N   0  0  0  0  0  0  0  0  0  0  0  0
   59.8050   28.6260   48.5570 S   0  0  0  0  0  0  0  0  0  0  0  0
   58.4470   29.1750   48.2110 O   0  0  0  0  0  0  0  0  0  0  0  0
   60.8020   29.1530   47.5610 O   0  0  0  0  0  0  0  0  0  0  0  0
   60.2700   29.1660   50.1590 C   0  0  0  0  0  0  0  0  0  0  0  0
   61.4750   28.8840   50.7890 C   0  0  0  0  0  0  0  0  0  0  0  0
   61.5420   29.3960   52.0900 C   0  0  0  0  0  0  0  0  0  0  0  0
   60.3870   30.0660   52.4830 C   0  0  0  0  0  0  0  0  0  0  0  0
   59.2850   30.0320   51.2100 S   0  0  0  0  0  0  0  0  0  0  0  0
   60.0620   28.3660   44.9650 C   0  0  0  0  0  0  0  0  0  0  0  0
   59.3680   29.4900   44.5060 C   0  0  0  0  0  0  0  0  0  0  0  0
   59.3580   30.6710   46.8880 H   0  0  0  0  0  0  0  0  0  0  0  0
   57.9230   31.2200   47.7920 H   0  0  0  0  0  0  0  0  0  0  0  0
   60.4414   34.9448   47.4689 H   0  0  0  0  0  0  0  0  0  0  0  0
   61.3485   32.4845   45.9298 H   0  0  0  0  0  0  0  0  0  0  0  0
   61.6724   34.2255   45.5875 H   0  0  0  0  0  0  0  0  0  0  0  0
   63.6522   33.1272   46.5821 H   0  0  0  0  0  0  0  0  0  0  0  0
   62.9589   34.3993   47.6813 H   0  0  0  0  0  0  0  0  0  0  0  0
   63.2690   31.4803   48.0954 H   0  0  0  0  0  0  0  0  0  0  0  0
   63.0954   32.8609   49.2824 H   0  0  0  0  0  0  0  0  0  0  0  0
   60.9395   31.1895   47.9672 H   0  0  0  0  0  0  0  0  0  0  0  0
   61.2300   31.5549   49.7191 H   0  0  0  0  0  0  0  0  0  0  0  0
   59.2636   32.7692   48.7900 H   0  0  0  0  0  0  0  0  0  0  0  0
   60.5946   33.8646   49.3866 H   0  0  0  0  0  0  0  0  0  0  0  0
   57.9655   35.3929   45.9263 H   0  0  0  0  0  0  0  0  0  0  0  0
   59.4223   35.0821   44.9572 H   0  0  0  0  0  0  0  0  0  0  0  0
   56.7087   34.1665   44.4268 H   0  0  0  0  0  0  0  0  0  0  0  0
   58.1484   33.7825   43.4739 H   0  0  0  0  0  0  0  0  0  0  0  0
   56.2153   28.6391   45.5204 H   0  0  0  0  0  0  0  0  0  0  0  0
   57.4516   26.6444   46.3552 H   0  0  0  0  0  0  0  0  0  0  0  0
   59.4257   25.2871   46.2190 H   0  0  0  0  0  0  0  0  0  0  0  0
   60.9330   25.9075   45.4241 H   0  0  0  0  0  0  0  0  0  0  0  0
   61.1773   25.4293   47.8921 H   0  0  0  0  0  0  0  0  0  0  0  0
   61.5604   27.1271   47.3985 H   0  0  0  0  0  0  0  0  0  0  0  0
   62.2908   28.3180   50.3156 H   0  0  0  0  0  0  0  0  0  0  0  0
   62.4224   29.2801   52.7392 H   0  0  0  0  0  0  0  0  0  0  0  0
   60.2215   30.5390   53.4622 H   0  0  0  0  0  0  0  0  0  0  0  0
   61.1453   28.2833   44.7928 H   0  0  0  0  0  0  0  0  0  0  0  0
   59.9098   30.2956   43.9889 H   0  0  0  0  0  0  0  0  0  0  0  0
  1  2  2  0
  2  3  1  0
  3  4  1  0
  4  5  1  0
  5  6  1  0
  6  7  1  0
  7  8  1  0
  8  9  1  0
  3 10  1  0
 10 11  1  0
 11 12  1  0
 12 13  1  0
 13 14  2  0
 13 15  2  0
 13 16  1  0
 16 17  2  0
 17 18  1  0
 18 19  2  0
 19 20  1  0
 20 21  1  0
 21 22  1  0
 22 23  1  0
 23 24  2  0
 23 25  2  0
 23 26  1  0
 26 27  2  0
 27 28  1  0
 28 29  2  0
 29 30  1  0
 19 31  1  0
 31 32  2  0
 12  2  1  0
 32 16  1  0
  9  4  1  0
 30 26  1  0
  1 33  1  0
  1 34  1  0
  4 35  1  0
  5 36  1  0
  5 37  1  0
  6 38  1  0
  6 39  1  0
  7 40  1  0
  7 41  1  0
  8 42  1  0
  8 43  1  0
  9 44  1  0
  9 45  1  0
 10 46  1  0
 10 47  1  0
 11 48  1  0
 11 49  1  0
 17 50  1  0
 18 51  1  0
 20 52  1  0
 20 53  1  0
 21 54  1  0
 21 55  1  0
 27 56  1  0
 28 57  1  0
 29 58  1  0
 31 59  1  0
 32 60  1  0
M  CHG  2   1   1  22  -1
M  END
>  <UniqueID>  (7) 
7

>  <SMILES>  (7) 
[NH2+]=C1N(C2CCCCC2)CCN1S(=O)(=O)c1ccc(CC[N-]S(=O)(=O)c2cccs2)cc1

>  <Energy>  (7) 
102.69941300922865

>  <Genealogy>  (7) 
[NH2+]=C1N(C2CCCCC2)CCN1S(=O)(=O)c1ccc(CC[N-]S(=O)(=O)c2cccs2)cc1 (protonated)
[NH2+]=C1N(C2CCCCC2)CCN1S(=O)(=O)c1ccc(CC[N-]S(=O)(=O)c2cccs2)cc1 (3D coordinates assigned)
[NH2+]=C1N(C2CCCCC2)CCN1S(=O)(=O)c1ccc(CC[N-]S(=O)(=O)c2cccs2)cc1 (nonaromatic ring conformer: 102.69941300922865 kcal/mol)

>  <smiles>  (7) 
N=C1N(C2CCCCC2)CCN1S(=O)(=O)c1ccc(CCNS(=O)(=O)c2cccs2)cc1

>  <score_type>  (7) 
oracle

>  <origin>  (7) 
adg

>  <m_score__min__energy>  (7) 
-10.67

>  <m_primary>  (7) 
energy

$$$$
7:0
     RDKit          3D

 33 34  0  0  0  0  0  0  0  0999 V2000
   57.4040   27.3100   44.5750 N   0  0  0  0  0  0  0  0  0  0  0  0
   58.3990   27.1400   45.5870 C   0  0  0  0  0  0  0  0  0  0  0  0
   58.8420   25.9840   45.8190 O   0  0  0  0  0  0  0  0  0  0  0  0
   58.9070   28.3010   46.3580 C   0  0  0  0  0  0  0  0  0  0  0  0
   59.1980   28.1480   47.7270 C   0  0  0  0  0  0  0  0  0  0  0  0
   59.6680   29.2260   48.4800 C   0  0  0  0  0  0  0  0  0  0  0  0
   60.0610   28.9990   50.3350 Br  0  0  0  0  0  0  0  0  0  0  0  0
   59.8570   30.4690   47.8750 C   0  0  0  0  0  0  0  0  0  0  0  0
   59.5750   30.6400   46.5210 C   0  0  0  0  0  0  0  0  0  0  0  0
   59.0940   29.5650   45.7490 C   0  0  0  0  0  0  0  0  0  0  0  0
   58.7530   29.7410   44.3650 N   0  0  0  0  0  0  0  0  0  0  0  0
   57.2080   30.2500   43.7630 S   0  0  0  0  0  0  0  0  0  0  0  0
   56.7810   29.3660   42.6260 O   0  0  0  0  0  0  0  0  0  0  0  0
   56.2000   30.1330   44.8700 O   0  0  0  0  0  0  0  0  0  0  0  0
   57.2810   31.9560   43.2310 C   0  0  0  0  0  0  0  0  0  0  0  0
   57.7460   32.8350   44.3590 C   0  0  0  0  0  0  0  0  0  0  0  0
   58.8660   33.6690   44.1980 C   0  0  0  0  0  0  0  0  0  0  0  0
   59.3300   34.4400   45.2680 C   0  0  0  0  0  0  0  0  0  0  0  0
   58.6790   34.3870   46.5040 C   0  0  0  0  0  0  0  0  0  0  0  0
   57.5630   33.5630   46.6720 C   0  0  0  0  0  0  0  0  0  0  0  0
   57.0980   32.7870   45.6060 C   0  0  0  0  0  0  0  0  0  0  0  0
   57.0230   26.4780   44.0710 H   0  0  0  0  0  0  0  0  0  0  0  0
   57.0930   28.2590   44.2710 H   0  0  0  0  0  0  0  0  0  0  0  0
   59.0537   27.1695   48.2083 H   0  0  0  0  0  0  0  0  0  0  0  0
   60.2298   31.3167   48.4687 H   0  0  0  0  0  0  0  0  0  0  0  0
   59.7294   31.6227   46.0515 H   0  0  0  0  0  0  0  0  0  0  0  0
   57.9836   32.0438   42.3892 H   0  0  0  0  0  0  0  0  0  0  0  0
   56.2763   32.2766   42.9183 H   0  0  0  0  0  0  0  0  0  0  0  0
   59.3794   33.7152   43.2263 H   0  0  0  0  0  0  0  0  0  0  0  0
   60.2084   35.0891   45.1372 H   0  0  0  0  0  0  0  0  0  0  0  0
   59.0455   34.9943   47.3448 H   0  0  0  0  0  0  0  0  0  0  0  0
   57.0497   33.5248   47.6441 H   0  0  0  0  0  0  0  0  0  0  0  0
   56.2218   32.1363   45.7434 H   0  0  0  0  0  0  0  0  0  0  0  0
  1  2  1  0
  2  3  2  0
  2  4  1  0
  4  5  2  0
  5  6  1  0
  6  7  1  0
  6  8  2  0
  8  9  1  0
  9 10  2  0
 10 11  1  0
 11 12  1  0
 12 13  2  0
 12 14  2  0
 12 15  1  0
 15 16  1  0
 16 17  2  0
 17 18  1  0
 18 19  2  0
 19 20  1  0
 20 21  2  0
 10  4  1  0
 21 16  1  0
  1 22  1  0
  1 23  1  0
  5 24  1  0
  8 25  1  0
  9 26  1  0
 15 27  1  0
 15 28  1  0
 17 29  1  0
 18 30  1  0
 19 31  1  0
 20 32  1  0
 21 33  1  0
M  CHG  1  11  -1
M  END
>  <UniqueID>  (8) 
8

>  <SMILES>  (8) 
NC(=O)c1cc(Br)ccc1[N-]S(=O)(=O)Cc1ccccc1

>  <Energy>  (8) 
33.521926149641494

>  <Genealogy>  (8) 
NC(=O)c1cc(Br)ccc1[N-]S(=O)(=O)Cc1ccccc1 (protonated)
NC(=O)c1cc(Br)ccc1[N-]S(=O)(=O)Cc1ccccc1 (3D coordinates assigned)
NC(=O)c1cc(Br)ccc1[N-]S(=O)(=O)Cc1ccccc1 (optimized conformer: 33.521926149641494 kcal/mol)

>  <smiles>  (8) 
NC(=O)c1cc(Br)ccc1NS(=O)(=O)Cc1ccccc1

>  <score_type>  (8) 
oracle

>  <origin>  (8) 
adg

>  <m_score__min__energy>  (8) 
-9.8100000000000005

>  <m_primary>  (8) 
energy

$$$$
8:0
     RDKit          3D

 49 52  0  0  0  0  0  0  0  0999 V2000
   60.7690   26.9220   46.7770 C   0  0  0  0  0  0  0  0  0  0  0  0
   59.7560   27.8590   46.1910 C   0  0  0  0  0  0  0  0  0  0  0  0
   60.1430   28.8060   45.2280 C   0  0  0  0  0  0  0  0  0  0  0  0
   59.1930   29.6540   44.6530 C   0  0  0  0  0  0  0  0  0  0  0  0
   57.8450   29.5600   45.0250 C   0  0  0  0  0  0  0  0  0  0  0  0
   56.6540   30.6190   44.2740 S   0  0  0  0  0  0  0  0  0  0  0  0
   55.2940   29.9930   44.4030 O   0  0  0  0  0  0  0  0  0  0  0  0
   56.9610   30.7960   42.8130 O   0  0  0  0  0  0  0  0  0  0  0  0
   56.6470   32.1650   45.0650 N   0  0  0  0  0  0  0  0  0  0  0  0
   57.8620   32.8990   44.7210 C   0  0  0  0  0  0  0  0  0  0  0  0
   58.8530   32.7470   45.8260 C   0  0  0  0  0  0  0  0  0  0  0  0
   58.5070   32.0830   46.9610 N   0  0  0  0  0  0  0  0  0  0  0  0
   59.3730   31.9500   48.0000 C   0  0  0  0  0  0  0  0  0  0  0  0
   58.9430   31.2400   49.1680 N   0  0  0  0  0  0  0  0  0  0  0  0
   58.1410   31.9230   50.1820 C   0  0  0  0  0  0  0  0  0  0  0  0
   58.4250   31.3100   51.5580 C   0  0  0  0  0  0  0  0  0  0  0  0
   58.2870   29.9020   51.5180 O   0  0  0  0  0  0  0  0  0  0  0  0
   59.2790   29.3450   50.6770 C   0  0  0  0  0  0  0  0  0  0  0  0
   59.0720   29.7830   49.2250 C   0  0  0  0  0  0  0  0  0  0  0  0
   60.6590   32.5170   47.9090 C   0  0  0  0  0  0  0  0  0  0  0  0
   61.6120   32.4170   48.9390 C   0  0  0  0  0  0  0  0  0  0  0  0
   62.8710   33.0060   48.7900 C   0  0  0  0  0  0  0  0  0  0  0  0
   63.1910   33.6980   47.6190 C   0  0  0  0  0  0  0  0  0  0  0  0
   62.2530   33.8030   46.5870 C   0  0  0  0  0  0  0  0  0  0  0  0
   60.9910   33.2140   46.7260 C   0  0  0  0  0  0  0  0  0  0  0  0
   60.0830   33.3160   45.7210 N   0  0  0  0  0  0  0  0  0  0  0  0
   57.4530   28.6000   45.9690 C   0  0  0  0  0  0  0  0  0  0  0  0
   58.4020   27.7500   46.5430 C   0  0  0  0  0  0  0  0  0  0  0  0
   60.7192   26.9681   47.8749 H   0  0  0  0  0  0  0  0  0  0  0  0
   60.5557   25.8959   46.4430 H   0  0  0  0  0  0  0  0  0  0  0  0
   61.7754   27.2145   46.4430 H   0  0  0  0  0  0  0  0  0  0  0  0
   61.1980   28.8801   44.9255 H   0  0  0  0  0  0  0  0  0  0  0  0
   59.5043   30.3984   43.9053 H   0  0  0  0  0  0  0  0  0  0  0  0
   58.2847   32.4957   43.7890 H   0  0  0  0  0  0  0  0  0  0  0  0
   57.6245   33.9637   44.5798 H   0  0  0  0  0  0  0  0  0  0  0  0
   58.4010   32.9917   50.1962 H   0  0  0  0  0  0  0  0  0  0  0  0
   57.0734   31.8079   49.9431 H   0  0  0  0  0  0  0  0  0  0  0  0
   59.4516   31.5635   51.8610 H   0  0  0  0  0  0  0  0  0  0  0  0
   57.7018   31.7152   52.2811 H   0  0  0  0  0  0  0  0  0  0  0  0
   60.2697   29.6811   51.0169 H   0  0  0  0  0  0  0  0  0  0  0  0
   59.2075   28.2485   50.7272 H   0  0  0  0  0  0  0  0  0  0  0  0
   59.9350   29.4675   48.6203 H   0  0  0  0  0  0  0  0  0  0  0  0
   58.1570   29.3183   48.8290 H   0  0  0  0  0  0  0  0  0  0  0  0
   61.3660   31.8742   49.8636 H   0  0  0  0  0  0  0  0  0  0  0  0
   63.6129   32.9244   49.5980 H   0  0  0  0  0  0  0  0  0  0  0  0
   64.1827   34.1611   47.5087 H   0  0  0  0  0  0  0  0  0  0  0  0
   62.5070   34.3484   45.6662 H   0  0  0  0  0  0  0  0  0  0  0  0
   56.3951   28.5158   46.2586 H   0  0  0  0  0  0  0  0  0  0  0  0
   58.0861   26.9916   47.2745 H   0  0  0  0  0  0  0  0  0  0  0  0
  1  2  1  0
  2  3  2  0
  3  4  1  0
  4  5  2  0
  5  6  1  0
  6  7  2  0
  6  8  2  0
  6  9  1  0
  9 10  1  0
 10 11  1  0
 11 12  2  0
 12 13  1  0
 13 14  1  0
 14 15  1  0
 15 16  1  0
 16 17  1  0
 17 18  1  0
 18 19  1  0
 13 20  2  0
 20 21  1  0
 21 22  2  0
 22 23  1  0
 23 24  2  0
 24 25  1  0
 25 26  2  0
  5 27  1  0
 27 28  2  0
 28  2  1  0
 26 11  1  0
 19 14  1  0
 25 20  1  0
  1 29  1  0
  1 30  1  0
  1 31  1  0
  3 32  1  0
  4 33  1  0
 10 34  1  0
 10 35  1  0
 15 36  1  0
 15 37  1  0
 16 38  1  0
 16 39  1  0
 18 40  1  0
 18 41  1  0
 19 42  1  0
 19 43  1  0
 21 44  1  0
 22 45  1  0
 23 46  1  0
 24 47  1  0
 27 48  1  0
 28 49  1  0
M  CHG  1   9  -1
M  END
>  <UniqueID>  (9) 
9

>  <SMILES>  (9) 
Cc1ccc(S(=O)(=O)[N-]Cc2nc(N3CCOCC3)c3ccccc3n2)cc1

>  <Energy>  (9) 
59.74425997629816

>  <Genealogy>  (9) 
Cc1ccc(S(=O)(=O)[N-]Cc2nc(N3CCOCC3)c3ccccc3n2)cc1 (protonated)
Cc1ccc(S(=O)(=O)[N-]Cc2nc(N3CCOCC3)c3ccccc3n2)cc1 (3D coordinates assigned)
Cc1ccc(S(=O)(=O)[N-]Cc2nc(N3CCOCC3)c3ccccc3n2)cc1 (nonaromatic ring conformer: 59.74425997629816 kcal/mol)

>  <smiles>  (9) 
Cc1ccc(S(=O)(=O)NCc2nc(N3CCOCC3)c3ccccc3n2)cc1

>  <score_type>  (9) 
oracle

>  <origin>  (9) 
adg

>  <m_score__min__energy>  (9) 
-9.8499999999999996

>  <m_primary>  (9) 
energy

$$$$
9:0
     RDKit          3D

 39 41  0  0  0  0  0  0  0  0999 V2000
   63.2420   31.8490   48.9930 C   0  0  0  0  0  0  0  0  0  0  0  0
   62.6370   33.2480   48.8060 C   0  0  0  0  0  0  0  0  0  0  0  0
   63.2340   34.2160   49.8390 C   0  0  0  0  0  0  0  0  0  0  0  0
   62.9870   33.7480   47.4140 C   0  0  0  0  0  0  0  0  0  0  0  0
   62.0890   33.8700   46.4340 C   0  0  0  0  0  0  0  0  0  0  0  0
   60.6660   33.5860   46.6610 C   0  0  0  0  0  0  0  0  0  0  0  0
   59.7410   33.6720   45.6100 C   0  0  0  0  0  0  0  0  0  0  0  0
   58.3790   33.4240   45.8420 C   0  0  0  0  0  0  0  0  0  0  0  0
   57.3900   33.5140   44.7090 C   0  0  0  0  0  0  0  0  0  0  0  0
   57.4430   32.3090   43.8790 N   0  0  0  0  0  0  0  0  0  0  0  0
   57.1020   30.9870   44.3410 C   0  0  0  0  0  0  0  0  0  0  0  0
   58.1170   30.1320   44.7930 C   0  0  0  0  0  0  0  0  0  0  0  0
   57.8080   28.8470   45.2420 C   0  0  0  0  0  0  0  0  0  0  0  0
   56.4770   28.4250   45.2410 C   0  0  0  0  0  0  0  0  0  0  0  0
   56.1790   27.2690   45.6410 O   0  0  0  0  0  0  0  0  0  0  0  0
   55.5000   29.2640   44.8080 N   0  0  0  0  0  0  0  0  0  0  0  0
   55.7750   30.5190   44.3650 C   0  0  0  0  0  0  0  0  0  0  0  0
   57.9540   33.0700   47.1320 C   0  0  0  0  0  0  0  0  0  0  0  0
   58.8740   32.9860   48.1800 C   0  0  0  0  0  0  0  0  0  0  0  0
   60.2320   33.2420   47.9480 C   0  0  0  0  0  0  0  0  0  0  0  0
   61.1820   33.1670   49.0190 N   0  0  0  0  0  0  0  0  0  0  0  0
   63.3363   31.6309   50.0670 H   0  0  0  0  0  0  0  0  0  0  0  0
   62.5872   31.1005   48.5230 H   0  0  0  0  0  0  0  0  0  0  0  0
   64.2359   31.8135   48.5230 H   0  0  0  0  0  0  0  0  0  0  0  0
   63.0104   33.8535   50.8532 H   0  0  0  0  0  0  0  0  0  0  0  0
   64.3239   34.2723   49.7017 H   0  0  0  0  0  0  0  0  0  0  0  0
   62.7950   35.2152   49.7017 H   0  0  0  0  0  0  0  0  0  0  0  0
   64.0312   34.0227   47.2040 H   0  0  0  0  0  0  0  0  0  0  0  0
   62.4217   34.1899   45.4355 H   0  0  0  0  0  0  0  0  0  0  0  0
   60.0847   33.9352   44.5988 H   0  0  0  0  0  0  0  0  0  0  0  0
   56.3765   33.6236   45.1222 H   0  0  0  0  0  0  0  0  0  0  0  0
   57.6442   34.3841   44.0859 H   0  0  0  0  0  0  0  0  0  0  0  0
   57.7060   32.4330   42.8750 H   0  0  0  0  0  0  0  0  0  0  0  0
   59.1620   30.4755   44.7938 H   0  0  0  0  0  0  0  0  0  0  0  0
   58.6044   28.1741   45.5928 H   0  0  0  0  0  0  0  0  0  0  0  0
   54.9575   31.1713   44.0240 H   0  0  0  0  0  0  0  0  0  0  0  0
   56.8910   32.8576   47.3188 H   0  0  0  0  0  0  0  0  0  0  0  0
   58.5313   32.7181   49.1903 H   0  0  0  0  0  0  0  0  0  0  0  0
   60.8360   32.9300   49.9770 H   0  0  0  0  0  0  0  0  0  0  0  0
  1  2  1  0
  2  3  1  0
  2  4  1  0
  4  5  2  0
  5  6  1  0
  6  7  2  0
  7  8  1  0
  8  9  1  0
  9 10  1  0
 10 11  1  0
 11 12  1  0
 12 13  2  0
 13 14  1  0
 14 15  2  0
 14 16  1  0
 16 17  1  0
  8 18  2  0
 18 19  1  0
 19 20  2  0
 20 21  1  0
 21  2  1  0
 20  6  1  0
 17 11  2  0
  1 22  1  0
  1 23  1  0
  1 24  1  0
  3 25  1  0
  3 26  1  0
  3 27  1  0
  4 28  1  0
  5 29  1  0
  7 30  1  0
  9 31  1  0
  9 32  1  0
 10 33  1  0
 12 34  1  0
 13 35  1  0
 17 36  1  0
 18 37  1  0
 19 38  1  0
 21 39  1  0
M  CHG  1  16  -1
M  END
>  <UniqueID>  (10) 
10

>  <SMILES>  (10) 
CC1(C)C=Cc2cc(CNc3ccc(=O)[n-]c3)ccc2N1

>  <Energy>  (10) 
38.45435093623048

>  <Genealogy>  (10) 
CC1(C)C=Cc2cc(CNc3ccc(=O)[n-]c3)ccc2N1 (protonated)
CC1(C)C=Cc2cc(CNc3ccc(=O)[n-]c3)ccc2N1 (3D coordinates assigned)
CC1(C)C=Cc2cc(CNc3ccc(=O)[n-]c3)ccc2N1 (nonaromatic ring conformer: 38.45435093623048 kcal/mol)

>  <smiles>  (10) 
CC1(C)C=Cc2cc(CNc3ccc(=O)[nH]c3)ccc2N1

>  <score_type>  (10) 
oracle

>  <origin>  (10) 
adg

>  <m_score__min__energy>  (10) 
-10.1

>  <m_primary>  (10) 
energy

$$$$
10:0
     RDKit          3D

 61 64  0  0  0  0  0  0  0  0999 V2000
   56.3950   22.6370   41.4990 H   0  0  0  0  0  0  0  0  0  0  0  0
   55.8010   22.2050   42.2440 N   0  0  0  0  0  0  0  0  0  0  0  0
   56.2690   21.8770   43.4050 C   0  0  0  0  0  0  0  0  0  0  0  0
   55.5300   21.0860   44.2200 N   0  0  0  0  0  0  0  0  0  0  0  0
   55.9580   20.6910   45.4500 C   0  0  0  0  0  0  0  0  0  0  0  0
   55.0350   19.8270   46.2620 C   0  0  0  0  0  0  0  0  0  0  0  0
   55.2189   19.9992   47.3328 H   0  0  0  0  0  0  0  0  0  0  0  0
   53.9914   20.0804   46.0238 H   0  0  0  0  0  0  0  0  0  0  0  0
   55.2190   18.7690   46.0238 H   0  0  0  0  0  0  0  0  0  0  0  0
   57.2320   21.1050   45.9200 C   0  0  0  0  0  0  0  0  0  0  0  0
   57.7590   20.6560   47.2750 C   0  0  0  0  0  0  0  0  0  0  0  0
   57.4119   19.6316   47.4752 H   0  0  0  0  0  0  0  0  0  0  0  0
   58.8582   20.6915   47.2545 H   0  0  0  0  0  0  0  0  0  0  0  0
   57.2830   21.5380   48.3360 N   0  0  0  0  0  0  0  0  0  0  0  0
   56.2510   22.5170   48.1610 C   0  0  0  0  0  0  0  0  0  0  0  0
   55.1240   22.3430   48.6990 O   0  0  0  0  0  0  0  0  0  0  0  0
   56.5080   23.7310   47.3530 C   0  0  0  0  0  0  0  0  0  0  0  0
   55.6650   24.0660   46.2780 C   0  0  0  0  0  0  0  0  0  0  0  0
   54.8076   23.4211   46.0349 H   0  0  0  0  0  0  0  0  0  0  0  0
   55.9090   25.2130   45.5160 C   0  0  0  0  0  0  0  0  0  0  0  0
   55.2446   25.4627   44.6756 H   0  0  0  0  0  0  0  0  0  0  0  0
   56.9960   26.0470   45.8170 C   0  0  0  0  0  0  0  0  0  0  0  0
   57.2670   27.2590   44.9760 C   0  0  0  0  0  0  0  0  0  0  0  0
   58.2551   27.6695   45.2313 H   0  0  0  0  0  0  0  0  0  0  0  0
   57.2510   26.9793   43.9123 H   0  0  0  0  0  0  0  0  0  0  0  0
   56.2420   28.2640   45.2310 N   0  0  0  0  0  0  0  0  0  0  0  0
   56.4380   29.6770   45.1010 C   0  0  0  0  0  0  0  0  0  0  0  0
   55.5090   30.3780   44.6210 O   0  0  0  0  0  0  0  0  0  0  0  0
   57.6780   30.3400   45.5470 C   0  0  0  0  0  0  0  0  0  0  0  0
   58.5870   29.6490   46.3610 C   0  0  0  0  0  0  0  0  0  0  0  0
   58.3721   28.6139   46.6651 H   0  0  0  0  0  0  0  0  0  0  0  0
   59.7650   30.2690   46.7880 C   0  0  0  0  0  0  0  0  0  0  0  0
   60.4821   29.7104   47.4075 H   0  0  0  0  0  0  0  0  0  0  0  0
   60.0400   31.6000   46.4320 C   0  0  0  0  0  0  0  0  0  0  0  0
   61.2620   32.2300   46.8630 N   0  0  0  0  0  0  0  0  0  0  0  0
   61.5740   33.6100   46.7740 C   0  0  0  0  0  0  0  0  0  0  0  0
   60.7490   34.4850   46.3970 O   0  0  0  0  0  0  0  0  0  0  0  0
   62.9370   33.9270   47.2430 C   0  0  0  0  0  0  0  0  0  0  0  0
   62.9075   34.5433   48.1536 H   0  0  0  0  0  0  0  0  0  0  0  0
   63.5207   34.5068   46.5128 H   0  0  0  0  0  0  0  0  0  0  0  0
   63.5380   32.5450   47.5330 C   0  0  0  0  0  0  0  0  0  0  0  0
   63.9977   32.5355   48.5323 H   0  0  0  0  0  0  0  0  0  0  0  0
   64.3184   32.2953   46.7991 H   0  0  0  0  0  0  0  0  0  0  0  0
   62.3830   31.5280   47.4730 C   0  0  0  0  0  0  0  0  0  0  0  0
   62.1175   31.1908   48.4858 H   0  0  0  0  0  0  0  0  0  0  0  0
   62.6620   30.6347   46.8949 H   0  0  0  0  0  0  0  0  0  0  0  0
   59.1200   32.2940   45.6280 C   0  0  0  0  0  0  0  0  0  0  0  0
   59.3254   33.3348   45.3370 H   0  0  0  0  0  0  0  0  0  0  0  0
   57.9450   31.6710   45.1950 C   0  0  0  0  0  0  0  0  0  0  0  0
   57.2267   32.2278   44.5753 H   0  0  0  0  0  0  0  0  0  0  0  0
   57.8500   25.7070   46.8760 C   0  0  0  0  0  0  0  0  0  0  0  0
   58.7176   26.3431   47.1054 H   0  0  0  0  0  0  0  0  0  0  0  0
   57.6040   24.5630   47.6420 C   0  0  0  0  0  0  0  0  0  0  0  0
   58.2737   24.3120   48.4777 H   0  0  0  0  0  0  0  0  0  0  0  0
   58.0070   21.9640   45.0930 C   0  0  0  0  0  0  0  0  0  0  0  0
   59.3710   22.4590   45.5050 C   0  0  0  0  0  0  0  0  0  0  0  0
   59.4363   22.4827   46.6028 H   0  0  0  0  0  0  0  0  0  0  0  0
   60.1421   21.7834   45.1063 H   0  0  0  0  0  0  0  0  0  0  0  0
   59.5293   23.4719   45.1063 H   0  0  0  0  0  0  0  0  0  0  0  0
   57.5220   22.3270   43.8290 C   0  0  0  0  0  0  0  0  0  0  0  0
   58.1282   22.9665   43.1705 H   0  0  0  0  0  0  0  0  0  0  0  0
  1  2  1  0
  2  3  2  0
  3  4  1  0
  4  5  1  0
  5  6  1  0
  6  7  1  0
  6  8  1  0
  6  9  1  0
  5 10  2  0
 10 11  1  0
 11 12  1  0
 11 13  1  0
 11 14  1  0
 14 15  1  0
 15 16  2  0
 15 17  1  0
 17 18  2  0
 18 19  1  0
 18 20  1  0
 20 21  1  0
 20 22  2  0
 22 23  1  0
 23 24  1  0
 23 25  1  0
 23 26  1  0
 26 27  1  0
 27 28  2  0
 27 29  1  0
 29 30  2  0
 30 31  1  0
 30 32  1  0
 32 33  1  0
 32 34  2  0
 34 35  1  0
 35 36  1  0
 36 37  2  0
 36 38  1  0
 38 39  1  0
 38 40  1  0
 38 41  1  0
 41 42  1  0
 41 43  1  0
 41 44  1  0
 44 45  1  0
 44 46  1  0
 34 47  1  0
 47 48  1  0
 47 49  2  0
 49 50  1  0
 22 51  1  0
 51 52  1  0
 51 53  2  0
 53 54  1  0
 10 55  1  0
 55 56  1  0
 56 57  1  0
 56 58  1  0
 56 59  1  0
 55 60  2  0
 60 61  1  0
 60  3  1  0
 53 17  1  0
 49 29  1  0
 44 35  1  0
M  CHG  3   4  -1  14  -1  26  -1
M  END
>  <UniqueID>  (11) 
11

>  <SMILES>  (11) 
[H]/N=c1\cc(C)c(C[N-]C(=O)c2ccc(C[N-]C(=O)c3ccc(N4CCCC4=O)cc3)cc2)c(C)[n-]1

>  <Energy>  (11) 
80.15091599563539

>  <Genealogy>  (11) 
Cc1cc(=N)[n-]c(C)c1C[N-]C(=O)c1ccc(C[N-]C(=O)c2ccc(N3CCCC3=O)cc2)cc1 (protonated)
[H]/N=c1\cc(C)c(C[N-]C(=O)c2ccc(C[N-]C(=O)c3ccc(N4CCCC4=O)cc3)cc2)c(C)[n-]1 (cis-trans isomerization)
[H]/N=c1\cc(C)c(C[N-]C(=O)c2ccc(C[N-]C(=O)c3ccc(N4CCCC4=O)cc3)cc2)c(C)[n-]1 (3D coordinates assigned)
[H]/N=c1\cc(C)c(C[N-]C(=O)c2ccc(C[N-]C(=O)c3ccc(N4CCCC4=O)cc3)cc2)c(C)[n-]1 (nonaromatic ring conformer: 80.15091599563539 kcal/mol)

>  <smiles>  (11) 
Cc1cc(=N)[nH]c(C)c1CNC(=O)c1ccc(CNC(=O)c2ccc(N3CCCC3=O)cc2)cc1

>  <score_type>  (11) 
oracle

>  <origin>  (11) 
adg

>  <m_score__min__energy>  (11) 
-14.52

>  <m_primary>  (11) 
energy

$$$$
11:0
     RDKit          3D

 48 51  0  0  0  0  0  0  0  0999 V2000
   58.2460   21.6000   45.1310 C   0  0  0  0  0  0  0  0  0  0  0  0
   57.2550   21.5000   46.6030 S   0  0  0  0  0  0  0  0  0  0  0  0
   57.7850   20.4010   47.4800 O   0  0  0  0  0  0  0  0  0  0  0  0
   55.8330   21.2070   46.2170 O   0  0  0  0  0  0  0  0  0  0  0  0
   57.3350   23.0150   47.4420 N   0  0  0  0  0  0  0  0  0  0  0  0
   56.9530   24.2820   46.8920 C   0  0  0  0  0  0  0  0  0  0  0  0
   55.7020   24.4870   46.2820 C   0  0  0  0  0  0  0  0  0  0  0  0
   55.3740   25.7390   45.7520 C   0  0  0  0  0  0  0  0  0  0  0  0
   56.2760   26.8060   45.8370 C   0  0  0  0  0  0  0  0  0  0  0  0
   55.9000   28.0640   45.2590 N   0  0  0  0  0  0  0  0  0  0  0  0
   56.7050   28.9240   44.4420 C   0  0  0  0  0  0  0  0  0  0  0  0
   57.0730   28.5580   43.2940 O   0  0  0  0  0  0  0  0  0  0  0  0
   57.1390   30.2380   44.9460 C   0  0  0  0  0  0  0  0  0  0  0  0
   56.5810   31.3680   44.5780 O   0  0  0  0  0  0  0  0  0  0  0  0
   57.1030   32.3840   45.2030 N   0  0  0  0  0  0  0  0  0  0  0  0
   58.0610   31.9040   46.0220 C   0  0  0  0  0  0  0  0  0  0  0  0
   58.8870   32.7700   46.8940 C   0  0  0  0  0  0  0  0  0  0  0  0
   58.6910   32.7420   48.2860 C   0  0  0  0  0  0  0  0  0  0  0  0
   59.4560   33.5580   49.1250 C   0  0  0  0  0  0  0  0  0  0  0  0
   60.4120   34.4210   48.5810 C   0  0  0  0  0  0  0  0  0  0  0  0
   60.5990   34.4730   47.1980 C   0  0  0  0  0  0  0  0  0  0  0  0
   59.8380   33.6560   46.3550 C   0  0  0  0  0  0  0  0  0  0  0  0
   58.1240   30.5230   45.8820 C   0  0  0  0  0  0  0  0  0  0  0  0
   58.9620   29.5760   46.6410 C   0  0  0  0  0  0  0  0  0  0  0  0
   58.9100   29.5530   48.0440 C   0  0  0  0  0  0  0  0  0  0  0  0
   59.7190   28.6690   48.7640 C   0  0  0  0  0  0  0  0  0  0  0  0
   60.5880   27.8070   48.0890 C   0  0  0  0  0  0  0  0  0  0  0  0
   60.6520   27.8310   46.6930 C   0  0  0  0  0  0  0  0  0  0  0  0
   59.8460   28.7170   45.9690 C   0  0  0  0  0  0  0  0  0  0  0  0
   57.5350   26.5960   46.4270 C   0  0  0  0  0  0  0  0  0  0  0  0
   57.8620   25.3440   46.9570 C   0  0  0  0  0  0  0  0  0  0  0  0
   59.3050   21.7069   45.4085 H   0  0  0  0  0  0  0  0  0  0  0  0
   58.1133   20.6839   44.5367 H   0  0  0  0  0  0  0  0  0  0  0  0
   57.9330   22.4711   44.5367 H   0  0  0  0  0  0  0  0  0  0  0  0
   54.9794   23.6598   46.2217 H   0  0  0  0  0  0  0  0  0  0  0  0
   54.3991   25.8864   45.2643 H   0  0  0  0  0  0  0  0  0  0  0  0
   57.9311   32.0740   48.7177 H   0  0  0  0  0  0  0  0  0  0  0  0
   59.3055   33.5209   50.2140 H   0  0  0  0  0  0  0  0  0  0  0  0
   61.0168   35.0590   49.2422 H   0  0  0  0  0  0  0  0  0  0  0  0
   61.3462   35.1578   46.7706 H   0  0  0  0  0  0  0  0  0  0  0  0
   59.9838   33.7065   45.2659 H   0  0  0  0  0  0  0  0  0  0  0  0
   58.2303   30.2330   48.5785 H   0  0  0  0  0  0  0  0  0  0  0  0
   59.6717   28.6518   49.8628 H   0  0  0  0  0  0  0  0  0  0  0  0
   61.2216   27.1096   48.6566 H   0  0  0  0  0  0  0  0  0  0  0  0
   61.3367   27.1527   46.1627 H   0  0  0  0  0  0  0  0  0  0  0  0
   59.9053   28.7404   44.8708 H   0  0  0  0  0  0  0  0  0  0  0  0
   58.2642   27.4184   46.4717 H   0  0  0  0  0  0  0  0  0  0  0  0
   58.8436   25.1924   47.4298 H   0  0  0  0  0  0  0  0  0  0  0  0
  1  2  1  0
  2  3  2  0
  2  4  2  0
  2  5  1  0
  5  6  1  0
  6  7  2  0
  7  8  1  0
  8  9  2  0
  9 10  1  0
 10 11  1  0
 11 12  2  0
 11 13  1  0
 13 14  1  0
 14 15  1  0
 15 16  2  0
 16 17  1  0
 17 18  2  0
 18 19  1  0
 19 20  2  0
 20 21  1  0
 21 22  2  0
 16 23  1  0
 23 24  1  0
 24 25  2  0
 25 26  1  0
 26 27  2  0
 27 28  1  0
 28 29  2  0
  9 30  1  0
 30 31  2  0
 31  6  1  0
 23 13  2  0
 29 24  1  0
 22 17  1  0
  1 32  1  0
  1 33  1  0
  1 34  1  0
  7 35  1  0
  8 36  1  0
 18 37  1  0
 19 38  1  0
 20 39  1  0
 21 40  1  0
 22 41  1  0
 25 42  1  0
 26 43  1  0
 27 44  1  0
 28 45  1  0
 29 46  1  0
 30 47  1  0
 31 48  1  0
M  CHG  2   5  -1  10  -1
M  END
>  <UniqueID>  (12) 
12

>  <SMILES>  (12) 
CS(=O)(=O)[N-]c1ccc([N-]C(=O)c2onc(-c3ccccc3)c2-c2ccccc2)cc1

>  <Energy>  (12) 
94.5551152992168

>  <Genealogy>  (12) 
CS(=O)(=O)[N-]c1ccc([N-]C(=O)c2onc(-c3ccccc3)c2-c2ccccc2)cc1 (protonated)
CS(=O)(=O)[N-]c1ccc([N-]C(=O)c2onc(-c3ccccc3)c2-c2ccccc2)cc1 (3D coordinates assigned)
CS(=O)(=O)[N-]c1ccc([N-]C(=O)c2onc(-c3ccccc3)c2-c2ccccc2)cc1 (optimized conformer: 94.5551152992168 kcal/mol)

>  <smiles>  (12) 
CS(=O)(=O)Nc1ccc(NC(=O)c2onc(-c3ccccc3)c2-c2ccccc2)cc1

>  <score_type>  (12) 
oracle

>  <origin>  (12) 
adg

>  <m_score__min__energy>  (12) 
-12.34

>  <m_primary>  (12) 
energy

$$$$
12:0
     RDKit          3D

 41 43  0  0  0  0  0  0  0  0999 V2000
   55.4940   29.7500   43.8620 C   0  0  0  0  0  0  0  0  0  0  0  0
   57.0130   29.6520   43.7410 C   0  0  0  0  0  0  0  0  0  0  0  0
   57.6930   30.4920   44.7930 C   0  0  0  0  0  0  0  0  0  0  0  0
   57.9170   29.9110   46.0000 N   0  0  0  0  0  0  0  0  0  0  0  0
   58.5200   30.5580   47.0240 C   0  0  0  0  0  0  0  0  0  0  0  0
   58.9710   31.8720   46.8640 C   0  0  0  0  0  0  0  0  0  0  0  0
   58.7770   32.5160   45.6220 C   0  0  0  0  0  0  0  0  0  0  0  0
   58.0720   31.8450   44.5840 C   0  0  0  0  0  0  0  0  0  0  0  0
   57.7430   32.5530   43.2870 C   0  0  0  0  0  0  0  0  0  0  0  0
   59.3490   33.8820   45.4570 C   0  0  0  0  0  0  0  0  0  0  0  0
   59.7150   34.3030   44.3280 O   0  0  0  0  0  0  0  0  0  0  0  0
   59.5310   34.7620   46.6570 C   0  0  0  0  0  0  0  0  0  0  0  0
   60.0990   33.9810   47.8050 C   0  0  0  0  0  0  0  0  0  0  0  0
   60.8960   34.5990   48.6340 N   0  0  0  0  0  0  0  0  0  0  0  0
   62.0580   34.0460   49.2640 C   0  0  0  0  0  0  0  0  0  0  0  0
   62.2080   34.1940   50.6500 C   0  0  0  0  0  0  0  0  0  0  0  0
   63.3170   33.6540   51.3020 C   0  0  0  0  0  0  0  0  0  0  0  0
   64.2880   32.9650   50.5730 C   0  0  0  0  0  0  0  0  0  0  0  0
   64.1600   32.8280   49.1890 C   0  0  0  0  0  0  0  0  0  0  0  0
   63.0590   33.3870   48.5100 C   0  0  0  0  0  0  0  0  0  0  0  0
   62.9310   33.2290   47.0090 C   0  0  0  0  0  0  0  0  0  0  0  0
   62.0430   32.2090   46.7260 F   0  0  0  0  0  0  0  0  0  0  0  0
   64.1510   32.9280   46.4280 F   0  0  0  0  0  0  0  0  0  0  0  0
   62.4690   34.4030   46.4410 F   0  0  0  0  0  0  0  0  0  0  0  0
   59.6700   32.5650   47.9760 C   0  0  0  0  0  0  0  0  0  0  0  0
   59.8800   31.9540   49.0590 O   0  0  0  0  0  0  0  0  0  0  0  0
   55.2113   29.7682   44.9249 H   0  0  0  0  0  0  0  0  0  0  0  0
   55.1461   30.6725   43.3741 H   0  0  0  0  0  0  0  0  0  0  0  0
   55.0304   28.8799   43.3741 H   0  0  0  0  0  0  0  0  0  0  0  0
   57.3171   28.6024   43.8665 H   0  0  0  0  0  0  0  0  0  0  0  0
   57.3108   30.0229   42.7491 H   0  0  0  0  0  0  0  0  0  0  0  0
   58.6563   30.0471   47.9886 H   0  0  0  0  0  0  0  0  0  0  0  0
   57.2889   33.5303   43.5077 H   0  0  0  0  0  0  0  0  0  0  0  0
   58.6650   32.7001   42.7054 H   0  0  0  0  0  0  0  0  0  0  0  0
   57.0360   31.9431   42.7054 H   0  0  0  0  0  0  0  0  0  0  0  0
   60.2186   35.5821   46.4026 H   0  0  0  0  0  0  0  0  0  0  0  0
   58.5509   35.1642   46.9530 H   0  0  0  0  0  0  0  0  0  0  0  0
   61.4466   34.7393   51.2270 H   0  0  0  0  0  0  0  0  0  0  0  0
   63.4263   33.7711   52.3903 H   0  0  0  0  0  0  0  0  0  0  0  0
   65.1557   32.5291   51.0897 H   0  0  0  0  0  0  0  0  0  0  0  0
   64.9265   32.2781   48.6232 H   0  0  0  0  0  0  0  0  0  0  0  0
  1  2  1  0
  2  3  1  0
  3  4  2  0
  4  5  1  0
  5  6  2  0
  6  7  1  0
  7  8  2  0
  8  9  1  0
  7 10  1  0
 10 11  2  0
 10 12  1  0
 12 13  1  0
 13 14  2  3
 14 15  1  0
 15 16  2  0
 16 17  1  0
 17 18  2  0
 18 19  1  0
 19 20  2  0
 20 21  1  0
 21 22  1  0
 21 23  1  0
 21 24  1  0
 13 25  1  0
 25 26  2  0
  8  3  1  0
 20 15  1  0
 25  6  1  0
  1 27  1  0
  1 28  1  0
  1 29  1  0
  2 30  1  0
  2 31  1  0
  5 32  1  0
  9 33  1  0
  9 34  1  0
  9 35  1  0
 12 36  1  0
 12 37  1  0
 16 38  1  0
 17 39  1  0
 18 40  1  0
 19 41  1  0
M  END
>  <UniqueID>  (13) 
13

>  <SMILES>  (13) 
CCc1ncc2c(c1C)C(=O)CC(=Nc1ccccc1C(F)(F)F)C2=O

>  <Energy>  (13) 
62.855088100903686

>  <Genealogy>  (13) 
CCc1ncc2c(c1C)C(=O)CC(=Nc1ccccc1C(F)(F)F)C2=O (3D coordinates assigned)
CCc1ncc2c(c1C)C(=O)CC(=Nc1ccccc1C(F)(F)F)C2=O (nonaromatic ring conformer: 62.855088100903686 kcal/mol)

>  <smiles>  (13) 
CCc1ncc2c(c1C)C(=O)CC(=Nc1ccccc1C(F)(F)F)C2=O

>  <score_type>  (13) 
oracle

>  <origin>  (13) 
adg

>  <m_score__min__energy>  (13) 
-7.5

>  <m_primary>  (13) 
energy

$$$$
13:0
     RDKit          3D

 42 44  0  0  0  0  0  0  0  0999 V2000
   65.3930   32.7450   49.8080 C   0  0  0  0  0  0  0  0  0  0  0  0
   63.9440   33.1210   49.7060 C   0  0  0  0  0  0  0  0  0  0  0  0
   63.2110   33.4280   50.8610 C   0  0  0  0  0  0  0  0  0  0  0  0
   61.8730   33.8140   50.7630 C   0  0  0  0  0  0  0  0  0  0  0  0
   61.2600   33.9100   49.5110 C   0  0  0  0  0  0  0  0  0  0  0  0
   61.9830   33.6240   48.3390 C   0  0  0  0  0  0  0  0  0  0  0  0
   61.3370   33.7410   47.0090 C   0  0  0  0  0  0  0  0  0  0  0  0
   62.0470   33.8470   45.9720 O   0  0  0  0  0  0  0  0  0  0  0  0
   59.9060   33.7820   46.9070 N   0  0  0  0  0  0  0  0  0  0  0  0
   59.0630   32.7970   46.2940 C   0  0  0  0  0  0  0  0  0  0  0  0
   58.8190   31.5480   46.8900 C   0  0  0  0  0  0  0  0  0  0  0  0
   57.9690   30.6250   46.2740 C   0  0  0  0  0  0  0  0  0  0  0  0
   57.3370   30.9360   45.0570 C   0  0  0  0  0  0  0  0  0  0  0  0
   56.4330   29.9610   44.4040 C   0  0  0  0  0  0  0  0  0  0  0  0
   56.0430   30.1590   43.2210 O   0  0  0  0  0  0  0  0  0  0  0  0
   56.0440   28.7670   45.0980 N   0  0  0  0  0  0  0  0  0  0  0  0
   56.9010   27.6810   45.4840 C   0  0  0  0  0  0  0  0  0  0  0  0
   58.3020   27.7680   45.3770 C   0  0  0  0  0  0  0  0  0  0  0  0
   59.1050   26.6830   45.7370 C   0  0  0  0  0  0  0  0  0  0  0  0
   58.5210   25.4980   46.1920 C   0  0  0  0  0  0  0  0  0  0  0  0
   57.1310   25.3950   46.2780 C   0  0  0  0  0  0  0  0  0  0  0  0
   56.3180   26.4790   45.9180 C   0  0  0  0  0  0  0  0  0  0  0  0
   54.9300   26.3720   45.9980 O   0  0  0  0  0  0  0  0  0  0  0  0
   57.5680   32.1970   44.4760 C   0  0  0  0  0  0  0  0  0  0  0  0
   58.4170   33.1180   45.0960 C   0  0  0  0  0  0  0  0  0  0  0  0
   63.3320   33.2350   48.4470 C   0  0  0  0  0  0  0  0  0  0  0  0
   65.6788   32.6708   50.8676 H   0  0  0  0  0  0  0  0  0  0  0  0
   65.5556   31.7749   49.3156 H   0  0  0  0  0  0  0  0  0  0  0  0
   66.0068   33.5136   49.3156 H   0  0  0  0  0  0  0  0  0  0  0  0
   63.6920   33.3645   51.8482 H   0  0  0  0  0  0  0  0  0  0  0  0
   61.2999   34.0431   51.6735 H   0  0  0  0  0  0  0  0  0  0  0  0
   60.2044   34.2114   49.4415 H   0  0  0  0  0  0  0  0  0  0  0  0
   59.2996   31.2953   47.8466 H   0  0  0  0  0  0  0  0  0  0  0  0
   57.7930   29.6468   46.7454 H   0  0  0  0  0  0  0  0  0  0  0  0
   58.7665   28.6944   45.0083 H   0  0  0  0  0  0  0  0  0  0  0  0
   60.1996   26.7618   45.6621 H   0  0  0  0  0  0  0  0  0  0  0  0
   59.1553   24.6474   46.4821 H   0  0  0  0  0  0  0  0  0  0  0  0
   56.6720   24.4593   46.6297 H   0  0  0  0  0  0  0  0  0  0  0  0
   54.3280   26.7140   45.2580 H   0  0  0  0  0  0  0  0  0  0  0  0
   57.0769   32.4595   43.5274 H   0  0  0  0  0  0  0  0  0  0  0  0
   58.5786   34.1047   44.6373 H   0  0  0  0  0  0  0  0  0  0  0  0
   63.9115   33.0185   47.5374 H   0  0  0  0  0  0  0  0  0  0  0  0
  1  2  1  0
  2  3  2  0
  3  4  1  0
  4  5  2  0
  5  6  1  0
  6  7  1  0
  7  8  2  0
  7  9  1  0
  9 10  1  0
 10 11  2  0
 11 12  1  0
 12 13  2  0
 13 14  1  0
 14 15  2  0
 14 16  1  0
 16 17  1  0
 17 18  2  0
 18 19  1  0
 19 20  2  0
 20 21  1  0
 21 22  2  0
 22 23  1  0
 13 24  1  0
 24 25  2  0
  6 26  2  0
 26  2  1  0
 25 10  1  0
 22 17  1  0
  1 27  1  0
  1 28  1  0
  1 29  1  0
  3 30  1  0
  4 31  1  0
  5 32  1  0
 11 33  1  0
 12 34  1  0
 18 35  1  0
 19 36  1  0
 20 37  1  0
 21 38  1  0
 23 39  1  0
 24 40  1  0
 25 41  1  0
 26 42  1  0
M  CHG  2   9  -1  16  -1
M  END
>  <UniqueID>  (14) 
14

>  <SMILES>  (14) 
Cc1cccc(C(=O)[N-]c2ccc(C(=O)[N-]c3ccccc3O)cc2)c1

>  <Energy>  (14) 
52.7854754077484

>  <Genealogy>  (14) 
Cc1cccc(C(=O)[N-]c2ccc(C(=O)[N-]c3ccccc3O)cc2)c1 (protonated)
Cc1cccc(C(=O)[N-]c2ccc(C(=O)[N-]c3ccccc3O)cc2)c1 (3D coordinates assigned)
Cc1cccc(C(=O)[N-]c2ccc(C(=O)[N-]c3ccccc3O)cc2)c1 (optimized conformer: 52.7854754077484 kcal/mol)

>  <smiles>  (14) 
Cc1cccc(C(=O)Nc2ccc(C(=O)Nc3ccccc3O)cc2)c1

>  <score_type>  (14) 
oracle

>  <origin>  (14) 
adg

>  <m_score__min__energy>  (14) 
-12.91

>  <m_primary>  (14) 
energy

$$$$
14:0
     RDKit          3D

 59 62  0  0  0  0  0  0  0  0999 V2000
   57.2730   32.9740   52.3930 C   0  0  0  0  0  0  0  0  0  0  0  0
   57.3480   31.9830   51.2340 C   0  0  0  0  0  0  0  0  0  0  0  0
   58.6070   31.1350   51.3210 C   0  0  0  0  0  0  0  0  0  0  0  0
   59.9120   31.6540   51.0800 C   0  0  0  0  0  0  0  0  0  0  0  0
   60.0730   33.1260   50.7040 C   0  0  0  0  0  0  0  0  0  0  0  0
   59.6280   33.4120   49.2860 C   0  0  0  0  0  0  0  0  0  0  0  0
   58.7910   32.5220   48.5830 C   0  0  0  0  0  0  0  0  0  0  0  0
   58.4100   32.7980   47.2680 C   0  0  0  0  0  0  0  0  0  0  0  0
   58.8620   33.9590   46.6360 C   0  0  0  0  0  0  0  0  0  0  0  0
   59.7040   34.8400   47.3170 C   0  0  0  0  0  0  0  0  0  0  0  0
   60.0930   34.5660   48.6310 C   0  0  0  0  0  0  0  0  0  0  0  0
   61.0080   30.8100   51.1810 N   0  0  0  0  0  0  0  0  0  0  0  0
   62.3950   31.2580   50.9050 C   0  0  0  0  0  0  0  0  0  0  0  0
   62.5300   31.8620   49.5170 C   0  0  0  0  0  0  0  0  0  0  0  0
   63.1650   33.1100   49.3490 C   0  0  0  0  0  0  0  0  0  0  0  0
   63.3090   33.6730   48.0810 C   0  0  0  0  0  0  0  0  0  0  0  0
   62.8140   33.0090   46.9590 C   0  0  0  0  0  0  0  0  0  0  0  0
   62.1550   31.7880   47.1070 C   0  0  0  0  0  0  0  0  0  0  0  0
   61.9830   31.2210   48.3760 C   0  0  0  0  0  0  0  0  0  0  0  0
   61.0520   29.6810   48.4940 S   0  0  0  0  0  0  0  0  0  0  0  0
   60.1610   29.8990   46.9120 C   0  0  0  0  0  0  0  0  0  0  0  0
   59.0770   28.8720   46.7420 C   0  0  0  0  0  0  0  0  0  0  0  0
   58.9700   27.7960   47.6380 C   0  0  0  0  0  0  0  0  0  0  0  0
   57.9590   26.8440   47.4820 C   0  0  0  0  0  0  0  0  0  0  0  0
   57.0330   26.9540   46.4310 C   0  0  0  0  0  0  0  0  0  0  0  0
   55.9370   25.9720   46.2980 C   0  0  0  0  0  0  0  0  0  0  0  0
   54.7740   26.3480   45.9910 O   0  0  0  0  0  0  0  0  0  0  0  0
   56.1710   24.6200   46.5200 O   0  0  0  0  0  0  0  0  0  0  0  0
   57.1560   28.0200   45.5230 C   0  0  0  0  0  0  0  0  0  0  0  0
   58.1720   28.9680   45.6750 C   0  0  0  0  0  0  0  0  0  0  0  0
   60.8300   29.5060   51.5760 C   0  0  0  0  0  0  0  0  0  0  0  0
   61.8160   28.7300   51.7120 O   0  0  0  0  0  0  0  0  0  0  0  0
   59.5930   29.0240   51.8300 N   0  0  0  0  0  0  0  0  0  0  0  0
   58.4910   29.7920   51.7120 C   0  0  0  0  0  0  0  0  0  0  0  0
   57.3640   29.2860   51.9640 O   0  0  0  0  0  0  0  0  0  0  0  0
   57.3144   32.4270   53.3464 H   0  0  0  0  0  0  0  0  0  0  0  0
   58.1209   33.6723   52.3338 H   0  0  0  0  0  0  0  0  0  0  0  0
   56.3297   33.5367   52.3338 H   0  0  0  0  0  0  0  0  0  0  0  0
   56.4678   31.3241   51.2669 H   0  0  0  0  0  0  0  0  0  0  0  0
   57.3717   32.5487   50.2909 H   0  0  0  0  0  0  0  0  0  0  0  0
   59.4691   33.7346   51.3932 H   0  0  0  0  0  0  0  0  0  0  0  0
   61.1419   33.3754   50.7765 H   0  0  0  0  0  0  0  0  0  0  0  0
   58.4355   31.6038   49.0734 H   0  0  0  0  0  0  0  0  0  0  0  0
   57.7528   32.0999   46.7289 H   0  0  0  0  0  0  0  0  0  0  0  0
   58.5548   34.1787   45.6029 H   0  0  0  0  0  0  0  0  0  0  0  0
   60.0623   35.7524   46.8179 H   0  0  0  0  0  0  0  0  0  0  0  0
   60.7676   35.2579   49.1565 H   0  0  0  0  0  0  0  0  0  0  0  0
   62.6795   32.0145   51.6512 H   0  0  0  0  0  0  0  0  0  0  0  0
   63.0543   30.3792   50.9599 H   0  0  0  0  0  0  0  0  0  0  0  0
   63.5514   33.6459   50.2285 H   0  0  0  0  0  0  0  0  0  0  0  0
   63.8143   34.6432   47.9657 H   0  0  0  0  0  0  0  0  0  0  0  0
   62.9429   33.4473   45.9584 H   0  0  0  0  0  0  0  0  0  0  0  0
   61.7673   31.2664   46.2195 H   0  0  0  0  0  0  0  0  0  0  0  0
   59.7092   30.9017   46.8919 H   0  0  0  0  0  0  0  0  0  0  0  0
   60.8826   29.7770   46.0908 H   0  0  0  0  0  0  0  0  0  0  0  0
   59.6862   27.7020   48.4675 H   0  0  0  0  0  0  0  0  0  0  0  0
   57.8876   26.0026   48.1870 H   0  0  0  0  0  0  0  0  0  0  0  0
   56.4473   28.1089   44.6864 H   0  0  0  0  0  0  0  0  0  0  0  0
   58.2621   29.7937   44.9538 H   0  0  0  0  0  0  0  0  0  0  0  0
  1  2  1  0
  2  3  1  0
  3  4  2  0
  4  5  1  0
  5  6  1  0
  6  7  2  0
  7  8  1  0
  8  9  2  0
  9 10  1  0
 10 11  2  0
  4 12  1  0
 12 13  1  0
 13 14  1  0
 14 15  2  0
 15 16  1  0
 16 17  2  0
 17 18  1  0
 18 19  2  0
 19 20  1  0
 20 21  1  0
 21 22  1  0
 22 23  2  0
 23 24  1  0
 24 25  2  0
 25 26  1  0
 26 27  2  0
 26 28  1  0
 25 29  1  0
 29 30  2  0
 12 31  1  0
 31 32  2  0
 31 33  1  0
 33 34  1  0
 34 35  2  0
 34  3  1  0
 11  6  1  0
 19 14  1  0
 30 22  1  0
  1 36  1  0
  1 37  1  0
  1 38  1  0
  2 39  1  0
  2 40  1  0
  5 41  1  0
  5 42  1  0
  7 43  1  0
  8 44  1  0
  9 45  1  0
 10 46  1  0
 11 47  1  0
 13 48  1  0
 13 49  1  0
 15 50  1  0
 16 51  1  0
 17 52  1  0
 18 53  1  0
 21 54  1  0
 21 55  1  0
 23 56  1  0
 24 57  1  0
 29 58  1  0
 30 59  1  0
M  CHG  2  28  -1  33  -1
M  END
>  <UniqueID>  (15) 
15

>  <SMILES>  (15) 
CCc1c(Cc2ccccc2)n(Cc2ccccc2SCc2ccc(C(=O)[O-])cc2)c(=O)[n-]c1=O

>  <Energy>  (15) 
63.6398063318829

>  <Genealogy>  (15) 
CCc1c(Cc2ccccc2)n(Cc2ccccc2SCc2ccc(C(=O)[O-])cc2)c(=O)[n-]c1=O (protonated)
CCc1c(Cc2ccccc2)n(Cc2ccccc2SCc2ccc(C(=O)[O-])cc2)c(=O)[n-]c1=O (3D coordinates assigned)
CCc1c(Cc2ccccc2)n(Cc2ccccc2SCc2ccc(C(=O)[O-])cc2)c(=O)[n-]c1=O (optimized conformer: 63.6398063318829 kcal/mol)

>  <smiles>  (15) 
CCc1c(Cc2ccccc2)n(Cc2ccccc2SCc2ccc(C(=O)O)cc2)c(=O)[nH]c1=O

>  <score_type>  (15) 
oracle

>  <origin>  (15) 
adg

>  <m_score__min__energy>  (15) 
-14.460000000000001

>  <m_primary>  (15) 
energy

$$$$
15:0
     RDKit          3D

 54 56  0  0  0  0  0  0  0  0999 V2000
   55.8780   29.8130   43.3350 C   0  0  0  0  0  0  0  0  0  0  0  0
   55.8800   29.5640   44.7330 O   0  0  0  0  0  0  0  0  0  0  0  0
   57.0210   29.2360   45.4840 C   0  0  0  0  0  0  0  0  0  0  0  0
   58.0890   30.1380   45.6460 C   0  0  0  0  0  0  0  0  0  0  0  0
   59.2020   29.7890   46.4110 C   0  0  0  0  0  0  0  0  0  0  0  0
   59.2600   28.5390   47.0440 C   0  0  0  0  0  0  0  0  0  0  0  0
   60.4540   28.1770   47.8900 C   0  0  0  0  0  0  0  0  0  0  0  0
   60.3590   28.7920   49.2890 C   0  0  0  0  0  0  0  0  0  0  0  0
   59.8110   30.1440   49.2300 N   0  0  0  0  0  0  0  0  0  0  0  0
   58.6870   30.5550   50.0230 C   0  0  0  0  0  0  0  0  0  0  0  0
   58.1570   29.7600   50.8470 O   0  0  0  0  0  0  0  0  0  0  0  0
   58.1490   31.9420   49.8810 C   0  0  0  0  0  0  0  0  0  0  0  0
   59.4080   33.1280   50.4490 S   0  0  0  0  0  0  0  0  0  0  0  0
   60.0810   33.3980   48.8070 C   0  0  0  0  0  0  0  0  0  0  0  0
   61.4250   33.5010   48.4530 C   0  0  0  0  0  0  0  0  0  0  0  0
   62.5830   33.3330   49.3890 C   0  0  0  0  0  0  0  0  0  0  0  0
   61.5410   33.6830   47.1100 N   0  0  0  0  0  0  0  0  0  0  0  0
   62.7850   33.8390   46.3560 C   0  0  0  0  0  0  0  0  0  0  0  0
   60.2800   33.7470   46.6320 C   0  0  0  0  0  0  0  0  0  0  0  0
   59.8640   33.9770   45.3150 C   0  0  0  0  0  0  0  0  0  0  0  0
   58.4820   34.0040   45.0560 C   0  0  0  0  0  0  0  0  0  0  0  0
   57.5520   33.8070   46.0980 C   0  0  0  0  0  0  0  0  0  0  0  0
   57.9930   33.5820   47.4130 C   0  0  0  0  0  0  0  0  0  0  0  0
   59.3670   33.5630   47.6440 C   0  0  0  0  0  0  0  0  0  0  0  0
   58.2080   27.6230   46.8630 C   0  0  0  0  0  0  0  0  0  0  0  0
   57.0870   27.9670   46.0820 C   0  0  0  0  0  0  0  0  0  0  0  0
   56.0160   27.0830   45.8790 O   0  0  0  0  0  0  0  0  0  0  0  0
   56.1420   25.6670   45.7840 C   0  0  0  0  0  0  0  0  0  0  0  0
   55.8693   30.8983   43.1559 H   0  0  0  0  0  0  0  0  0  0  0  0
   56.7797   29.3740   42.8831 H   0  0  0  0  0  0  0  0  0  0  0  0
   54.9835   29.3596   42.8831 H   0  0  0  0  0  0  0  0  0  0  0  0
   58.0457   31.1265   45.1654 H   0  0  0  0  0  0  0  0  0  0  0  0
   60.0372   30.4968   46.5181 H   0  0  0  0  0  0  0  0  0  0  0  0
   60.5066   27.0823   47.9838 H   0  0  0  0  0  0  0  0  0  0  0  0
   61.3561   28.5724   47.4002 H   0  0  0  0  0  0  0  0  0  0  0  0
   59.7051   28.1657   49.9136 H   0  0  0  0  0  0  0  0  0  0  0  0
   61.3701   28.8421   49.7192 H   0  0  0  0  0  0  0  0  0  0  0  0
   60.2150   30.8150   48.5370 H   0  0  0  0  0  0  0  0  0  0  0  0
   57.9077   32.1376   48.8258 H   0  0  0  0  0  0  0  0  0  0  0  0
   57.2369   32.0503   50.4863 H   0  0  0  0  0  0  0  0  0  0  0  0
   62.2252   33.3849   50.4279 H   0  0  0  0  0  0  0  0  0  0  0  0
   63.0580   32.3565   49.2131 H   0  0  0  0  0  0  0  0  0  0  0  0
   63.3159   34.1342   49.2131 H   0  0  0  0  0  0  0  0  0  0  0  0
   63.6271   33.9446   47.0558 H   0  0  0  0  0  0  0  0  0  0  0  0
   62.9434   32.9537   45.7227 H   0  0  0  0  0  0  0  0  0  0  0  0
   62.7199   34.7360   45.7227 H   0  0  0  0  0  0  0  0  0  0  0  0
   60.5954   34.1318   44.5081 H   0  0  0  0  0  0  0  0  0  0  0  0
   58.1230   34.1804   44.0313 H   0  0  0  0  0  0  0  0  0  0  0  0
   56.4741   33.8297   45.8797 H   0  0  0  0  0  0  0  0  0  0  0  0
   57.2769   33.4260   48.2333 H   0  0  0  0  0  0  0  0  0  0  0  0
   58.2609   26.6307   47.3347 H   0  0  0  0  0  0  0  0  0  0  0  0
   56.1806   25.2337   46.7943 H   0  0  0  0  0  0  0  0  0  0  0  0
   55.2767   25.2574   45.2422 H   0  0  0  0  0  0  0  0  0  0  0  0
   57.0660   25.4166   45.2422 H   0  0  0  0  0  0  0  0  0  0  0  0
  1  2  1  0
  2  3  1  0
  3  4  2  0
  4  5  1  0
  5  6  2  0
  6  7  1  0
  7  8  1  0
  8  9  1  0
  9 10  1  0
 10 11  2  0
 10 12  1  0
 12 13  1  0
 13 14  1  0
 14 15  2  0
 15 16  1  0
 15 17  1  0
 17 18  1  0
 17 19  1  0
 19 20  2  0
 20 21  1  0
 21 22  2  0
 22 23  1  0
 23 24  2  0
  6 25  1  0
 25 26  2  0
 26 27  1  0
 27 28  1  0
 26  3  1  0
 24 14  1  0
 24 19  1  0
  1 29  1  0
  1 30  1  0
  1 31  1  0
  4 32  1  0
  5 33  1  0
  7 34  1  0
  7 35  1  0
  8 36  1  0
  8 37  1  0
  9 38  1  0
 12 39  1  0
 12 40  1  0
 16 41  1  0
 16 42  1  0
 16 43  1  0
 18 44  1  0
 18 45  1  0
 18 46  1  0
 20 47  1  0
 21 48  1  0
 22 49  1  0
 23 50  1  0
 25 51  1  0
 28 52  1  0
 28 53  1  0
 28 54  1  0
M  END
>  <UniqueID>  (16) 
16

>  <SMILES>  (16) 
COc1ccc(CCNC(=O)CSc2c(C)n(C)c3ccccc23)cc1OC

>  <Energy>  (16) 
76.61920306060063

>  <Genealogy>  (16) 
COc1ccc(CCNC(=O)CSc2c(C)n(C)c3ccccc23)cc1OC (3D coordinates assigned)
COc1ccc(CCNC(=O)CSc2c(C)n(C)c3ccccc23)cc1OC (optimized conformer: 76.61920306060063 kcal/mol)

>  <smiles>  (16) 
COc1ccc(CCNC(=O)CSc2c(C)n(C)c3ccccc23)cc1OC

>  <score_type>  (16) 
oracle

>  <origin>  (16) 
adg

>  <m_score__min__energy>  (16) 
-8.6300000000000008

>  <m_primary>  (16) 
energy

$$$$
16:0
     RDKit          3D

 53 54  0  0  0  0  0  0  0  0999 V2000
   59.2810   29.5570   45.8440 C   0  0  0  0  0  0  0  0  0  0  0  0
   58.0950   28.6300   45.5910 C   0  0  0  0  0  0  0  0  0  0  0  0
   57.4460   28.9200   44.2320 C   0  0  0  0  0  0  0  0  0  0  0  0
   57.1530   30.3830   44.0960 C   0  0  0  0  0  0  0  0  0  0  0  0
   56.0470   30.8340   44.5020 O   0  0  0  0  0  0  0  0  0  0  0  0
   58.1050   31.2560   43.4700 N   0  0  0  0  0  0  0  0  0  0  0  0
   57.8350   32.6730   43.2380 C   0  0  0  0  0  0  0  0  0  0  0  0
   57.2390   33.3150   44.4950 C   0  0  0  0  0  0  0  0  0  0  0  0
   58.2860   33.4600   45.5660 C   0  0  0  0  0  0  0  0  0  0  0  0
   59.4560   34.1940   45.3190 C   0  0  0  0  0  0  0  0  0  0  0  0
   60.4190   34.3420   46.3210 C   0  0  0  0  0  0  0  0  0  0  0  0
   60.2220   33.7810   47.5870 C   0  0  0  0  0  0  0  0  0  0  0  0
   61.2300   33.9590   48.5510 O   0  0  0  0  0  0  0  0  0  0  0  0
   62.0230   32.9210   49.1430 C   0  0  2  0  0  0  0  0  0  0  0  0
   62.4600   33.3350   50.5660 C   0  0  0  0  0  0  0  0  0  0  0  0
   63.7400   34.1780   50.5260 C   0  0  0  0  0  0  0  0  0  0  0  0
   64.8850   33.4790   49.8830 N   0  0  0  0  0  0  0  0  0  0  0  0
   65.9080   33.1050   50.8730 C   0  0  0  0  0  0  0  0  0  0  0  0
   64.5050   32.2990   49.0700 C   0  0  0  0  0  0  0  0  0  0  0  0
   63.2390   32.5650   48.2290 C   0  0  2  0  0  0  0  0  0  0  0  0
   63.5260   33.6150   47.1380 C   0  0  0  0  0  0  0  0  0  0  0  0
   59.0380   33.0630   47.8420 C   0  0  0  0  0  0  0  0  0  0  0  0
   58.0790   32.9040   46.8380 C   0  0  0  0  0  0  0  0  0  0  0  0
   59.4305   29.6738   46.9275 H   0  0  0  0  0  0  0  0  0  0  0  0
   60.1867   29.1250   45.3934 H   0  0  0  0  0  0  0  0  0  0  0  0
   59.0805   30.5402   45.3934 H   0  0  0  0  0  0  0  0  0  0  0  0
   58.4447   27.5872   45.6067 H   0  0  0  0  0  0  0  0  0  0  0  0
   57.3459   28.7991   46.3785 H   0  0  0  0  0  0  0  0  0  0  0  0
   58.1319   28.6114   43.4293 H   0  0  0  0  0  0  0  0  0  0  0  0
   56.5029   28.3585   44.1593 H   0  0  0  0  0  0  0  0  0  0  0  0
   59.0430   30.8790   43.2010 H   0  0  0  0  0  0  0  0  0  0  0  0
   58.7746   33.1838   42.9807 H   0  0  0  0  0  0  0  0  0  0  0  0
   57.1147   32.7688   42.4122 H   0  0  0  0  0  0  0  0  0  0  0  0
   56.8435   34.3092   44.2398 H   0  0  0  0  0  0  0  0  0  0  0  0
   56.4330   32.6692   44.8736 H   0  0  0  0  0  0  0  0  0  0  0  0
   59.6159   34.6547   44.3330 H   0  0  0  0  0  0  0  0  0  0  0  0
   61.3406   34.9050   46.1120 H   0  0  0  0  0  0  0  0  0  0  0  0
   61.4158   32.0084   49.2348 H   0  0  0  0  0  0  0  0  0  0  0  0
   61.6561   33.9240   51.0318 H   0  0  0  0  0  0  0  0  0  0  0  0
   62.6592   32.4241   51.1496 H   0  0  0  0  0  0  0  0  0  0  0  0
   63.5333   35.1002   49.9632 H   0  0  0  0  0  0  0  0  0  0  0  0
   64.0273   34.3838   51.5677 H   0  0  0  0  0  0  0  0  0  0  0  0
   65.5077   33.2513   51.8871 H   0  0  0  0  0  0  0  0  0  0  0  0
   66.1820   32.0485   50.7359 H   0  0  0  0  0  0  0  0  0  0  0  0
   66.7988   33.7356   50.7359 H   0  0  0  0  0  0  0  0  0  0  0  0
   65.3359   32.0504   48.3934 H   0  0  0  0  0  0  0  0  0  0  0  0
   64.2905   31.4664   49.7561 H   0  0  0  0  0  0  0  0  0  0  0  0
   62.9533   31.6433   47.7009 H   0  0  0  0  0  0  0  0  0  0  0  0
   63.7879   34.5730   47.6109 H   0  0  0  0  0  0  0  0  0  0  0  0
   64.3639   33.2739   46.5122 H   0  0  0  0  0  0  0  0  0  0  0  0
   62.6311   33.7475   46.5122 H   0  0  0  0  0  0  0  0  0  0  0  0
   58.8670   32.6250   48.8364 H   0  0  0  0  0  0  0  0  0  0  0  0
   57.1575   32.3404   47.0456 H   0  0  0  0  0  0  0  0  0  0  0  0
  1  2  1  0
  2  3  1  0
  3  4  1  0
  4  5  2  0
  4  6  1  0
  6  7  1  0
  7  8  1  0
  8  9  1  0
  9 10  2  0
 10 11  1  0
 11 12  2  0
 12 13  1  0
 13 14  1  0
 14 15  1  0
 15 16  1  0
 16 17  1  0
 17 18  1  0
 17 19  1  0
 19 20  1  0
 20 21  1  0
 12 22  1  0
 22 23  2  0
 23  9  1  0
 20 14  1  0
  1 24  1  0
  1 25  1  0
  1 26  1  0
  2 27  1  0
  2 28  1  0
  3 29  1  0
  3 30  1  0
  6 31  1  0
  7 32  1  0
  7 33  1  0
  8 34  1  0
  8 35  1  0
 10 36  1  0
 11 37  1  0
 14 38  1  1
 15 39  1  0
 15 40  1  0
 16 41  1  0
 16 42  1  0
 18 43  1  0
 18 44  1  0
 18 45  1  0
 19 46  1  0
 19 47  1  0
 20 48  1  6
 21 49  1  0
 21 50  1  0
 21 51  1  0
 22 52  1  0
 23 53  1  0
M  END
>  <UniqueID>  (17) 
17

>  <SMILES>  (17) 
CCCC(=O)NCCc1ccc(O[C@@H]2CCN(C)C[C@@H]2C)cc1

>  <Energy>  (17) 
49.49565747085513

>  <Genealogy>  (17) 
CCCC(=O)NCCc1ccc(O[C@@H]2CCN(C)C[C@@H]2C)cc1 (chirality)
CCCC(=O)NCCc1ccc(O[C@@H]2CCN(C)C[C@@H]2C)cc1 (3D coordinates assigned)
CCCC(=O)NCCc1ccc(O[C@@H]2CCN(C)C[C@@H]2C)cc1 (nonaromatic ring conformer: 49.49565747085513 kcal/mol)

>  <smiles>  (17) 
CCCC(=O)NCCc1ccc(OC2CCN(C)CC2C)cc1

>  <score_type>  (17) 
oracle

>  <origin>  (17) 
adg

>  <m_score__min__energy>  (17) 
-7.9199999999999999

>  <m_primary>  (17) 
energy

$$$$
17:0
     RDKit          3D

 56 60  0  0  0  0  0  0  0  0999 V2000
   54.7990   25.9060   45.6260 N   0  0  0  0  0  0  0  0  0  0  0  0
   55.1190   24.4030   46.4180 S   0  0  0  0  0  0  0  0  0  0  0  0
   53.8260   23.7690   46.8470 O   0  0  0  0  0  0  0  0  0  0  0  0
   55.9560   24.6780   47.6370 O   0  0  0  0  0  0  0  0  0  0  0  0
   55.9840   23.3130   45.3210 C   0  0  0  0  0  0  0  0  0  0  0  0
   55.5930   21.9660   45.2530 C   0  0  0  0  0  0  0  0  0  0  0  0
   56.2780   21.0680   44.4320 C   0  0  0  0  0  0  0  0  0  0  0  0
   57.3630   21.5030   43.6710 C   0  0  0  0  0  0  0  0  0  0  0  0
   57.7610   22.8410   43.7210 C   0  0  0  0  0  0  0  0  0  0  0  0
   57.0740   23.7570   44.5320 C   0  0  0  0  0  0  0  0  0  0  0  0
   57.5150   25.1640   44.5340 C   0  0  0  0  0  0  0  0  0  0  0  0
   57.7490   25.8350   43.3250 C   0  0  0  0  0  0  0  0  0  0  0  0
   58.1350   27.1760   43.3270 C   0  0  0  0  0  0  0  0  0  0  0  0
   58.3100   27.8640   44.5430 C   0  0  0  0  0  0  0  0  0  0  0  0
   58.6310   29.2660   44.5740 N   0  0  0  0  0  0  0  0  0  0  0  0
   57.8280   30.2600   45.2250 C   0  0  0  0  0  0  0  0  0  0  0  0
   56.5710   30.1600   45.2190 O   0  0  0  0  0  0  0  0  0  0  0  0
   58.4610   31.4430   45.8380 C   0  0  0  0  0  0  0  0  0  0  0  0
   58.3050   32.7410   45.3970 C   0  0  0  0  0  0  0  0  0  0  0  0
   59.1610   33.4760   46.1980 C   0  0  0  0  0  0  0  0  0  0  0  0
   59.4360   34.9410   46.0680 C   0  0  0  0  0  0  0  0  0  0  0  0
   58.8950   35.6210   47.1430 F   0  0  0  0  0  0  0  0  0  0  0  0
   58.8740   35.4220   44.9000 F   0  0  0  0  0  0  0  0  0  0  0  0
   60.8010   35.1500   46.0370 F   0  0  0  0  0  0  0  0  0  0  0  0
   59.7940   32.6630   47.0650 N   0  0  0  0  0  0  0  0  0  0  0  0
   59.3550   31.4330   46.8540 N   0  0  0  0  0  0  0  0  0  0  0  0
   59.7530   30.3160   47.6650 C   0  0  0  0  0  0  0  0  0  0  0  0
   60.2290   29.1360   47.0710 C   0  0  0  0  0  0  0  0  0  0  0  0
   60.6230   28.0530   47.8590 C   0  0  0  0  0  0  0  0  0  0  0  0
   60.5290   28.1270   49.2560 C   0  0  0  0  0  0  0  0  0  0  0  0
   60.9230   27.0450   50.0590 C   0  0  0  0  0  0  0  0  0  0  0  0
   60.8220   27.1310   51.4510 C   0  0  0  0  0  0  0  0  0  0  0  0
   61.3210   25.7780   52.4500 Cl  0  0  0  0  0  0  0  0  0  0  0  0
   60.3290   28.2940   52.0500 C   0  0  0  0  0  0  0  0  0  0  0  0
   59.9310   29.3780   51.2600 C   0  0  0  0  0  0  0  0  0  0  0  0
   60.0280   29.3050   49.8620 C   0  0  0  0  0  0  0  0  0  0  0  0
   59.6340   30.3870   49.0610 C   0  0  0  0  0  0  0  0  0  0  0  0
   58.0830   27.1850   45.7500 C   0  0  0  0  0  0  0  0  0  0  0  0
   57.7000   25.8410   45.7470 C   0  0  0  0  0  0  0  0  0  0  0  0
   54.7860   26.6420   46.3660 H   0  0  0  0  0  0  0  0  0  0  0  0
   54.7395   21.6152   45.8518 H   0  0  0  0  0  0  0  0  0  0  0  0
   55.9614   20.0156   44.3853 H   0  0  0  0  0  0  0  0  0  0  0  0
   57.9057   20.7918   43.0309 H   0  0  0  0  0  0  0  0  0  0  0  0
   58.6186   23.1788   43.1207 H   0  0  0  0  0  0  0  0  0  0  0  0
   57.6277   25.3017   42.3706 H   0  0  0  0  0  0  0  0  0  0  0  0
   58.3034   27.6983   42.3737 H   0  0  0  0  0  0  0  0  0  0  0  0
   59.5130   29.5810   44.1100 H   0  0  0  0  0  0  0  0  0  0  0  0
   57.6501   33.1076   44.5928 H   0  0  0  0  0  0  0  0  0  0  0  0
   60.2920   29.0643   45.9751 H   0  0  0  0  0  0  0  0  0  0  0  0
   61.0082   27.1393   47.3827 H   0  0  0  0  0  0  0  0  0  0  0  0
   61.3119   26.1279   49.5923 H   0  0  0  0  0  0  0  0  0  0  0  0
   60.2538   28.3570   53.1456 H   0  0  0  0  0  0  0  0  0  0  0  0
   59.5411   30.2898   51.7360 H   0  0  0  0  0  0  0  0  0  0  0  0
   59.2295   31.2961   49.5300 H   0  0  0  0  0  0  0  0  0  0  0  0
   58.2075   27.7148   46.7059 H   0  0  0  0  0  0  0  0  0  0  0  0
   57.5433   25.3131   46.6993 H   0  0  0  0  0  0  0  0  0  0  0  0
  1  2  1  0
  2  3  2  0
  2  4  2  0
  2  5  1  0
  5  6  2  0
  6  7  1  0
  7  8  2  0
  8  9  1  0
  9 10  2  0
 10 11  1  0
 11 12  2  0
 12 13  1  0
 13 14  2  0
 14 15  1  0
 15 16  1  0
 16 17  2  0
 16 18  1  0
 18 19  2  0
 19 20  1  0
 20 21  1  0
 21 22  1  0
 21 23  1  0
 21 24  1  0
 20 25  2  0
 25 26  1  0
 26 27  1  0
 27 28  2  0
 28 29  1  0
 29 30  2  0
 30 31  1  0
 31 32  2  0
 32 33  1  0
 32 34  1  0
 34 35  2  0
 35 36  1  0
 36 37  2  0
 14 38  1  0
 38 39  2  0
 10  5  1  0
 39 11  1  0
 26 18  1  0
 37 27  1  0
 36 30  1  0
  1 40  1  0
  6 41  1  0
  7 42  1  0
  8 43  1  0
  9 44  1  0
 12 45  1  0
 13 46  1  0
 15 47  1  0
 19 48  1  0
 28 49  1  0
 29 50  1  0
 31 51  1  0
 34 52  1  0
 35 53  1  0
 37 54  1  0
 38 55  1  0
 39 56  1  0
M  CHG  1   1  -1
M  END
>  <UniqueID>  (18) 
18

>  <SMILES>  (18) 
[NH-]S(=O)(=O)c1ccccc1-c1ccc(NC(=O)c2cc(C(F)(F)F)nn2-c2ccc3cc(Cl)ccc3c2)cc1

>  <Energy>  (18) 
111.19397495099543

>  <Genealogy>  (18) 
[NH-]S(=O)(=O)c1ccccc1-c1ccc(NC(=O)c2cc(C(F)(F)F)nn2-c2ccc3cc(Cl)ccc3c2)cc1 (protonated)
[NH-]S(=O)(=O)c1ccccc1-c1ccc(NC(=O)c2cc(C(F)(F)F)nn2-c2ccc3cc(Cl)ccc3c2)cc1 (3D coordinates assigned)
[NH-]S(=O)(=O)c1ccccc1-c1ccc(NC(=O)c2cc(C(F)(F)F)nn2-c2ccc3cc(Cl)ccc3c2)cc1 (optimized conformer: 111.19397495099543 kcal/mol)

>  <smiles>  (18) 
NS(=O)(=O)c1ccccc1-c1ccc(NC(=O)c2cc(C(F)(F)F)nn2-c2ccc3cc(Cl)ccc3c2)cc1

>  <score_type>  (18) 
oracle

>  <origin>  (18) 
adg

>  <m_score__min__energy>  (18) 
-12.359999999999999

>  <m_primary>  (18) 
energy

$$$$
18:0
     RDKit          3D

 36 38  0  0  0  0  0  0  0  0999 V2000
   64.3117   34.0099   49.4407 H   0  0  0  0  0  0  0  0  0  0  0  0
   63.3880   33.8660   48.8610 C   0  0  0  0  0  0  0  0  0  0  0  0
   62.1460   34.0580   49.4680 C   0  0  0  0  0  0  0  0  0  0  0  0
   62.0915   34.3482   50.5276 H   0  0  0  0  0  0  0  0  0  0  0  0
   60.9710   33.8820   48.7310 C   0  0  0  0  0  0  0  0  0  0  0  0
   59.9948   34.0270   49.2169 H   0  0  0  0  0  0  0  0  0  0  0  0
   61.0280   33.5210   47.3730 C   0  0  0  0  0  0  0  0  0  0  0  0
   59.8070   33.3370   46.6320 N   0  0  0  0  0  0  0  0  0  0  0  0
   59.0910   34.3450   46.1480 N   0  0  0  0  0  0  0  0  0  0  0  0
   58.0220   33.8280   45.5020 C   0  0  0  0  0  0  0  0  0  0  0  0
   56.9400   34.6490   44.8830 C   0  0  0  0  0  0  0  0  0  0  0  0
   56.3316   35.1107   45.6746 H   0  0  0  0  0  0  0  0  0  0  0  0
   57.3884   35.4362   44.2591 H   0  0  0  0  0  0  0  0  0  0  0  0
   56.3026   34.0052   44.2591 H   0  0  0  0  0  0  0  0  0  0  0  0
   58.0710   32.4500   45.5610 C   0  0  0  0  0  0  0  0  0  0  0  0
   57.0610   31.5410   45.1000 N   0  0  0  0  0  0  0  0  0  0  0  0
   57.2560   30.5480   44.3170 N   0  0  0  0  0  0  0  0  0  0  0  0
   57.5730   29.2070   44.7250 C   0  0  0  0  0  0  0  0  0  0  0  0
   58.8990   28.7680   44.6410 C   0  0  0  0  0  0  0  0  0  0  0  0
   59.6750   29.4409   44.2473 H   0  0  0  0  0  0  0  0  0  0  0  0
   59.2410   27.4790   45.0550 C   0  0  0  0  0  0  0  0  0  0  0  0
   60.2823   27.1344   44.9713 H   0  0  0  0  0  0  0  0  0  0  0  0
   58.2650   26.6260   45.5750 C   0  0  0  0  0  0  0  0  0  0  0  0
   58.5394   25.6076   45.8873 H   0  0  0  0  0  0  0  0  0  0  0  0
   56.9330   27.0610   45.7020 C   0  0  0  0  0  0  0  0  0  0  0  0
   55.8980   26.1670   46.2640 C   0  0  0  0  0  0  0  0  0  0  0  0
   54.6820   26.3410   45.9860 O   0  0  0  0  0  0  0  0  0  0  0  0
   56.2530   25.1230   47.1120 O   0  0  0  0  0  0  0  0  0  0  0  0
   56.5990   28.3630   45.2890 C   0  0  0  0  0  0  0  0  0  0  0  0
   55.5670   28.7248   45.4080 H   0  0  0  0  0  0  0  0  0  0  0  0
   59.2010   32.1750   46.3010 C   0  0  0  0  0  0  0  0  0  0  0  0
   59.6090   31.0290   46.6300 O   0  0  0  0  0  0  0  0  0  0  0  0
   62.2850   33.3140   46.7750 C   0  0  0  0  0  0  0  0  0  0  0  0
   62.3457   33.0116   45.7191 H   0  0  0  0  0  0  0  0  0  0  0  0
   63.4580   33.4910   47.5170 C   0  0  0  0  0  0  0  0  0  0  0  0
   64.4373   33.3346   47.0411 H   0  0  0  0  0  0  0  0  0  0  0  0
  1  2  1  0
  2  3  2  0
  3  4  1  0
  3  5  1  0
  5  6  1  0
  5  7  2  0
  7  8  1  0
  8  9  1  0
  9 10  1  0
 10 11  1  0
 11 12  1  0
 11 13  1  0
 11 14  1  0
 10 15  2  0
 15 16  1  0
 16 17  2  0
 17 18  1  0
 18 19  2  0
 19 20  1  0
 19 21  1  0
 21 22  1  0
 21 23  2  0
 23 24  1  0
 23 25  1  0
 25 26  1  0
 26 27  2  0
 26 28  1  0
 25 29  2  0
 29 30  1  0
 15 31  1  0
 31 32  2  0
  7 33  1  0
 33 34  1  0
 33 35  2  0
 35 36  1  0
 35  2  1  0
 31  8  1  0
 29 18  1  0
M  CHG  2   9  -1  28  -1
M  END
>  <UniqueID>  (19) 
19

>  <SMILES>  (19) 
Cc1[n-]n(-c2ccccc2)c(=O)c1/N=N\c1cccc(C(=O)[O-])c1

>  <Energy>  (19) 
88.87616241607171

>  <Genealogy>  (19) 
Cc1[n-]n(-c2ccccc2)c(=O)c1N=Nc1cccc(C(=O)[O-])c1 (protonated)
Cc1[n-]n(-c2ccccc2)c(=O)c1/N=N\c1cccc(C(=O)[O-])c1 (cis-trans isomerization)
Cc1[n-]n(-c2ccccc2)c(=O)c1/N=N\c1cccc(C(=O)[O-])c1 (3D coordinates assigned)
Cc1[n-]n(-c2ccccc2)c(=O)c1/N=N\c1cccc(C(=O)[O-])c1 (optimized conformer: 88.87616241607171 kcal/mol)

>  <smiles>  (19) 
Cc1[nH]n(-c2ccccc2)c(=O)c1N=Nc1cccc(C(=O)O)c1

>  <score_type>  (19) 
oracle

>  <origin>  (19) 
adg

>  <m_score__min__energy>  (19) 
-12.369999999999999

>  <m_primary>  (19) 
energy

$$$$
19:0
     RDKit          3D

 45 47  0  0  0  0  0  0  0  0999 V2000
   56.1740   30.9150   51.6120 N   0  0  0  0  0  0  0  0  0  0  0  0
   57.8220   31.3880   51.8200 S   0  0  0  0  0  0  0  0  0  0  0  0
   58.1430   31.4790   53.2860 O   0  0  0  0  0  0  0  0  0  0  0  0
   58.0270   32.7370   51.1850 O   0  0  0  0  0  0  0  0  0  0  0  0
   58.8740   30.1930   51.0670 C   0  0  0  0  0  0  0  0  0  0  0  0
   59.7000   29.3730   51.8460 C   0  0  0  0  0  0  0  0  0  0  0  0
   60.5010   28.4050   51.2360 C   0  0  0  0  0  0  0  0  0  0  0  0
   60.4810   28.2490   49.8480 C   0  0  0  0  0  0  0  0  0  0  0  0
   59.6690   29.0720   49.0530 C   0  0  0  0  0  0  0  0  0  0  0  0
   59.6250   28.8540   47.6310 N   0  0  0  0  0  0  0  0  0  0  0  0
   60.1230   29.7830   46.6580 C   0  0  0  0  0  0  0  0  0  0  0  0
   60.9780   30.6520   46.9800 O   0  0  0  0  0  0  0  0  0  0  0  0
   59.6470   29.7080   45.2390 C   0  0  0  0  0  0  0  0  0  0  0  0
   57.8460   29.9970   45.1490 S   0  0  0  0  0  0  0  0  0  0  0  0
   57.4070   28.3090   45.5550 C   0  0  0  0  0  0  0  0  0  0  0  0
   58.3800   27.3970   45.8030 N   0  0  0  0  0  0  0  0  0  0  0  0
   58.0770   26.1160   46.1310 C   0  0  0  0  0  0  0  0  0  0  0  0
   59.0110   25.3010   46.3580 O   0  0  0  0  0  0  0  0  0  0  0  0
   56.7310   25.7100   46.2150 C   0  0  0  0  0  0  0  0  0  0  0  0
   56.3600   24.2800   46.5330 C   0  0  0  0  0  0  0  0  0  0  0  0
   56.5890   23.3970   45.3340 C   0  0  0  0  0  0  0  0  0  0  0  0
   57.4540   22.2920   45.4210 C   0  0  0  0  0  0  0  0  0  0  0  0
   57.6390   21.4520   44.3170 C   0  0  0  0  0  0  0  0  0  0  0  0
   56.9560   21.7030   43.1250 C   0  0  0  0  0  0  0  0  0  0  0  0
   56.0930   22.7980   43.0300 C   0  0  0  0  0  0  0  0  0  0  0  0
   55.9080   23.6420   44.1300 C   0  0  0  0  0  0  0  0  0  0  0  0
   55.7430   26.6720   45.9350 C   0  0  0  0  0  0  0  0  0  0  0  0
   54.3930   26.3410   45.9770 O   0  0  0  0  0  0  0  0  0  0  0  0
   56.1020   27.9430   45.6170 N   0  0  0  0  0  0  0  0  0  0  0  0
   58.8560   30.0380   49.6730 C   0  0  0  0  0  0  0  0  0  0  0  0
   55.7560   31.5620   50.9060 H   0  0  0  0  0  0  0  0  0  0  0  0
   59.7179   29.4915   52.9395 H   0  0  0  0  0  0  0  0  0  0  0  0
   61.1497   27.7634   51.8505 H   0  0  0  0  0  0  0  0  0  0  0  0
   61.1055   27.4765   49.3755 H   0  0  0  0  0  0  0  0  0  0  0  0
   59.2170   27.9570   47.2820 H   0  0  0  0  0  0  0  0  0  0  0  0
   60.1661   30.4728   44.6427 H   0  0  0  0  0  0  0  0  0  0  0  0
   59.8653   28.7047   44.8443 H   0  0  0  0  0  0  0  0  0  0  0  0
   56.9789   23.9228   47.3693 H   0  0  0  0  0  0  0  0  0  0  0  0
   55.2951   24.2407   46.8059 H   0  0  0  0  0  0  0  0  0  0  0  0
   57.9876   22.0868   46.3608 H   0  0  0  0  0  0  0  0  0  0  0  0
   58.3229   20.5934   44.3882 H   0  0  0  0  0  0  0  0  0  0  0  0
   57.0975   21.0382   42.2601 H   0  0  0  0  0  0  0  0  0  0  0  0
   55.5586   22.9964   42.0892 H   0  0  0  0  0  0  0  0  0  0  0  0
   55.2261   24.5016   44.0519 H   0  0  0  0  0  0  0  0  0  0  0  0
   58.2018   30.6761   49.0607 H   0  0  0  0  0  0  0  0  0  0  0  0
  1  2  1  0
  2  3  2  0
  2  4  2  0
  2  5  1  0
  5  6  2  0
  6  7  1  0
  7  8  2  0
  8  9  1  0
  9 10  1  0
 10 11  1  0
 11 12  2  0
 11 13  1  0
 13 14  1  0
 14 15  1  0
 15 16  2  0
 16 17  1  0
 17 18  2  0
 17 19  1  0
 19 20  1  0
 20 21  1  0
 21 22  2  0
 22 23  1  0
 23 24  2  0
 24 25  1  0
 25 26  2  0
 19 27  2  0
 27 28  1  0
 27 29  1  0
  9 30  2  0
 30  5  1  0
 29 15  1  0
 26 21  1  0
  1 31  1  0
  6 32  1  0
  7 33  1  0
  8 34  1  0
 10 35  1  0
 13 36  1  0
 13 37  1  0
 20 38  1  0
 20 39  1  0
 22 40  1  0
 23 41  1  0
 24 42  1  0
 25 43  1  0
 26 44  1  0
 30 45  1  0
M  CHG  3   1  -1  28  -1  29  -1
M  END
>  <UniqueID>  (20) 
20

>  <SMILES>  (20) 
[NH-]S(=O)(=O)c1cccc(NC(=O)CSc2nc(=O)c(Cc3ccccc3)c([O-])[n-]2)c1

>  <Energy>  (20) 
45.825659039233784

>  <Genealogy>  (20) 
[NH-]S(=O)(=O)c1cccc(NC(=O)CSc2nc(=O)c(Cc3ccccc3)c([O-])[n-]2)c1 (protonated)
[NH-]S(=O)(=O)c1cccc(NC(=O)CSc2nc(=O)c(Cc3ccccc3)c([O-])[n-]2)c1 (3D coordinates assigned)
[NH-]S(=O)(=O)c1cccc(NC(=O)CSc2nc(=O)c(Cc3ccccc3)c([O-])[n-]2)c1 (optimized conformer: 45.825659039233784 kcal/mol)

>  <smiles>  (20) 
NS(=O)(=O)c1cccc(NC(=O)CSc2nc(=O)c(Cc3ccccc3)c(O)[nH]2)c1

>  <score_type>  (20) 
oracle

>  <origin>  (20) 
adg

>  <m_score__min__energy>  (20) 
-13.68

>  <m_primary>  (20) 
energy

$$$$
20:0
     RDKit          3D

 46 48  0  0  0  0  0  0  0  0999 V2000
   57.0200   22.4520   48.2990 O   0  0  0  0  0  0  0  0  0  0  0  0
   56.0610   23.0460   47.7390 C   0  0  0  0  0  0  0  0  0  0  0  0
   55.0840   22.2460   46.9120 C   0  0  0  0  0  0  0  0  0  0  0  0
   55.4820   22.1760   45.4260 C   0  0  1  0  0  0  0  0  0  0  0  0
   55.2100   23.5120   44.6880 C   0  0  0  0  0  0  0  0  0  0  0  0
   56.2340   23.7530   43.5700 C   0  0  0  0  0  0  0  0  0  0  0  0
   56.6420   22.4320   42.9160 C   0  0  0  0  0  0  0  0  0  0  0  0
   57.1400   21.4200   43.9730 C   0  0  0  0  0  0  0  0  0  0  0  0
   56.8450   21.8060   45.3070 O   0  0  0  0  0  0  0  0  0  0  0  0
   55.9940   24.4740   47.8190 N   0  0  0  0  0  0  0  0  0  0  0  0
   56.7750   25.3860   47.0400 C   0  0  0  0  0  0  0  0  0  0  0  0
   58.1510   25.4750   47.0640 C   0  0  0  0  0  0  0  0  0  0  0  0
   58.4640   26.5320   46.2250 C   0  0  0  0  0  0  0  0  0  0  0  0
   59.7540   26.9680   45.9370 O   0  0  0  0  0  0  0  0  0  0  0  0
   57.3480   27.1010   45.7220 N   0  0  0  0  0  0  0  0  0  0  0  0
   57.2730   28.2170   44.7760 C   0  0  0  0  0  0  0  0  0  0  0  0
   58.5670   28.9850   44.7450 C   0  0  0  0  0  0  0  0  0  0  0  0
   59.5650   28.5100   44.1390 O   0  0  0  0  0  0  0  0  0  0  0  0
   58.6350   30.3630   45.2630 C   0  0  0  0  0  0  0  0  0  0  0  0
   59.3190   30.5980   46.4670 C   0  0  0  0  0  0  0  0  0  0  0  0
   59.4170   31.8920   46.9860 C   0  0  0  0  0  0  0  0  0  0  0  0
   58.8240   32.9630   46.3130 C   0  0  0  0  0  0  0  0  0  0  0  0
   58.9470   34.5860   46.9670 Cl  0  0  0  0  0  0  0  0  0  0  0  0
   58.1250   32.7390   45.1240 C   0  0  0  0  0  0  0  0  0  0  0  0
   58.0210   31.4450   44.5960 C   0  0  0  0  0  0  0  0  0  0  0  0
   57.0570   31.2150   43.1430 Cl  0  0  0  0  0  0  0  0  0  0  0  0
   56.3120   26.4060   46.2290 C   0  0  0  0  0  0  0  0  0  0  0  0
   54.9760   26.7130   45.9900 O   0  0  0  0  0  0  0  0  0  0  0  0
   55.0387   21.2227   47.3129 H   0  0  0  0  0  0  0  0  0  0  0  0
   54.1077   22.7494   46.9714 H   0  0  0  0  0  0  0  0  0  0  0  0
   54.8560   21.4096   44.9457 H   0  0  0  0  0  0  0  0  0  0  0  0
   54.2019   23.4796   44.2491 H   0  0  0  0  0  0  0  0  0  0  0  0
   55.2927   24.3326   45.4159 H   0  0  0  0  0  0  0  0  0  0  0  0
   55.7891   24.4105   42.8086 H   0  0  0  0  0  0  0  0  0  0  0  0
   57.1283   24.2230   44.0051 H   0  0  0  0  0  0  0  0  0  0  0  0
   55.7732   22.0067   42.3923 H   0  0  0  0  0  0  0  0  0  0  0  0
   57.4603   22.6300   42.2081 H   0  0  0  0  0  0  0  0  0  0  0  0
   56.6625   20.4485   43.7776 H   0  0  0  0  0  0  0  0  0  0  0  0
   58.2353   21.3707   43.8842 H   0  0  0  0  0  0  0  0  0  0  0  0
   58.8508   24.8417   47.6289 H   0  0  0  0  0  0  0  0  0  0  0  0
   60.0470   27.9110   46.1670 H   0  0  0  0  0  0  0  0  0  0  0  0
   57.0643   27.8229   43.7704 H   0  0  0  0  0  0  0  0  0  0  0  0
   56.4698   28.8961   45.0978 H   0  0  0  0  0  0  0  0  0  0  0  0
   59.7810   29.7574   47.0055 H   0  0  0  0  0  0  0  0  0  0  0  0
   59.9617   32.0673   47.9255 H   0  0  0  0  0  0  0  0  0  0  0  0
   57.6537   33.5832   44.5994 H   0  0  0  0  0  0  0  0  0  0  0  0
  1  2  2  0
  2  3  1  0
  3  4  1  0
  4  5  1  0
  5  6  1  0
  6  7  1  0
  7  8  1  0
  8  9  1  0
  2 10  1  0
 10 11  1  0
 11 12  1  0
 12 13  2  0
 13 14  1  0
 13 15  1  0
 15 16  1  0
 16 17  1  0
 17 18  2  0
 17 19  1  0
 19 20  2  0
 20 21  1  0
 21 22  2  0
 22 23  1  0
 22 24  1  0
 24 25  2  0
 25 26  1  0
 15 27  1  0
 27 28  1  0
  9  4  1  0
 27 11  2  0
 25 19  1  0
  3 29  1  0
  3 30  1  0
  4 31  1  6
  5 32  1  0
  5 33  1  0
  6 34  1  0
  6 35  1  0
  7 36  1  0
  7 37  1  0
  8 38  1  0
  8 39  1  0
 12 40  1  0
 14 41  1  0
 16 42  1  0
 16 43  1  0
 20 44  1  0
 21 45  1  0
 24 46  1  0
M  CHG  2  10  -1  28  -1
M  END
>  <UniqueID>  (21) 
21

>  <SMILES>  (21) 
O=C(C[C@H]1CCCCO1)[N-]c1cc(O)n(CC(=O)c2ccc(Cl)cc2Cl)c1[O-]

>  <Energy>  (21) 
91.93406340208594

>  <Genealogy>  (21) 
O=C(CC1CCCCO1)[N-]c1cc(O)n(CC(=O)c2ccc(Cl)cc2Cl)c1[O-] (protonated)
O=C(C[C@H]1CCCCO1)[N-]c1cc(O)n(CC(=O)c2ccc(Cl)cc2Cl)c1[O-] (chirality)
O=C(C[C@H]1CCCCO1)[N-]c1cc(O)n(CC(=O)c2ccc(Cl)cc2Cl)c1[O-] (3D coordinates assigned)
O=C(C[C@H]1CCCCO1)[N-]c1cc(O)n(CC(=O)c2ccc(Cl)cc2Cl)c1[O-] (nonaromatic ring conformer: 91.93406340208594 kcal/mol)

>  <smiles>  (21) 
O=C(CC1CCCCO1)Nc1cc(O)n(CC(=O)c2ccc(Cl)cc2Cl)c1O

>  <score_type>  (21) 
oracle

>  <origin>  (21) 
adg

>  <m_score__min__energy>  (21) 
-14.960000000000001

>  <m_primary>  (21) 
energy

$$$$
21:0
     RDKit          3D

 56 59  0  0  0  0  0  0  0  0999 V2000
   60.5760   27.0230   48.1530 O   0  0  0  0  0  0  0  0  0  0  0  0
   59.9630   27.8320   47.4040 C   0  0  0  0  0  0  0  0  0  0  0  0
   59.9620   29.2780   47.7350 C   0  0  0  0  0  0  0  0  0  0  0  0
   59.0010   29.8030   48.6180 C   0  0  0  0  0  0  0  0  0  0  0  0
   58.9880   31.1680   48.9210 C   0  0  0  0  0  0  0  0  0  0  0  0
   59.9310   32.0280   48.3450 C   0  0  0  0  0  0  0  0  0  0  0  0
   59.8800   33.7510   48.7050 S   0  0  0  0  0  0  0  0  0  0  0  0
   61.2700   34.3260   48.6450 O   0  0  0  0  0  0  0  0  0  0  0  0
   59.3440   33.9390   50.0970 O   0  0  0  0  0  0  0  0  0  0  0  0
   58.8450   34.5700   47.5600 N   0  0  0  0  0  0  0  0  0  0  0  0
   57.7950   33.6450   47.0800 C   0  0  0  0  0  0  0  0  0  0  0  0
   57.1600   34.1440   45.7780 C   0  0  0  0  0  0  0  0  0  0  0  0
   58.2010   34.2180   44.6490 C   0  0  0  0  0  0  0  0  0  0  0  0
   59.6340   34.4100   45.1730 C   0  0  0  0  0  0  0  0  0  0  0  0
   59.6440   35.2110   46.4840 C   0  0  0  0  0  0  0  0  0  0  0  0
   60.8800   31.5150   47.4530 C   0  0  0  0  0  0  0  0  0  0  0  0
   60.8960   30.1510   47.1490 C   0  0  0  0  0  0  0  0  0  0  0  0
   59.2610   27.3300   46.2500 N   0  0  0  0  0  0  0  0  0  0  0  0
   59.6310   27.8460   44.9210 C   0  0  0  0  0  0  0  0  0  0  0  0
   58.6070   28.8360   44.4240 C   0  0  0  0  0  0  0  0  0  0  0  0
   57.5660   28.4220   43.5740 C   0  0  0  0  0  0  0  0  0  0  0  0
   56.6210   29.3450   43.1140 C   0  0  0  0  0  0  0  0  0  0  0  0
   56.6970   30.6830   43.5090 C   0  0  0  0  0  0  0  0  0  0  0  0
   57.7140   31.0990   44.3710 C   0  0  0  0  0  0  0  0  0  0  0  0
   58.6600   30.1800   44.8340 C   0  0  0  0  0  0  0  0  0  0  0  0
   58.1770   26.3890   46.4360 C   0  0  0  0  0  0  0  0  0  0  0  0
   58.3920   25.0990   46.9450 C   0  0  0  0  0  0  0  0  0  0  0  0
   57.2970   24.2470   47.1100 C   0  0  0  0  0  0  0  0  0  0  0  0
   57.4680   23.0860   47.5660 O   0  0  0  0  0  0  0  0  0  0  0  0
   56.0490   24.6730   46.7820 N   0  0  0  0  0  0  0  0  0  0  0  0
   55.8500   25.9260   46.2910 C   0  0  0  0  0  0  0  0  0  0  0  0
   54.6900   26.3140   45.9920 O   0  0  0  0  0  0  0  0  0  0  0  0
   56.9050   26.7650   46.1240 N   0  0  0  0  0  0  0  0  0  0  0  0
   58.2547   29.1352   49.0732 H   0  0  0  0  0  0  0  0  0  0  0  0
   58.2338   31.5679   49.6148 H   0  0  0  0  0  0  0  0  0  0  0  0
   58.2433   32.6562   46.9031 H   0  0  0  0  0  0  0  0  0  0  0  0
   57.0090   33.5868   47.8473 H   0  0  0  0  0  0  0  0  0  0  0  0
   56.3569   33.4531   45.4818 H   0  0  0  0  0  0  0  0  0  0  0  0
   56.7572   35.1532   45.9494 H   0  0  0  0  0  0  0  0  0  0  0  0
   58.1602   33.2829   44.0712 H   0  0  0  0  0  0  0  0  0  0  0  0
   57.9551   35.0919   44.0278 H   0  0  0  0  0  0  0  0  0  0  0  0
   60.0857   33.4231   45.3521 H   0  0  0  0  0  0  0  0  0  0  0  0
   60.2083   34.9687   44.4193 H   0  0  0  0  0  0  0  0  0  0  0  0
   60.6842   35.3065   46.8289 H   0  0  0  0  0  0  0  0  0  0  0  0
   59.1899   36.1909   46.2752 H   0  0  0  0  0  0  0  0  0  0  0  0
   61.6162   32.1882   46.9894 H   0  0  0  0  0  0  0  0  0  0  0  0
   61.6448   29.7572   46.4460 H   0  0  0  0  0  0  0  0  0  0  0  0
   60.6100   28.3431   44.9874 H   0  0  0  0  0  0  0  0  0  0  0  0
   59.6755   27.0026   44.2163 H   0  0  0  0  0  0  0  0  0  0  0  0
   57.4945   27.3674   43.2695 H   0  0  0  0  0  0  0  0  0  0  0  0
   55.8162   29.0167   42.4398 H   0  0  0  0  0  0  0  0  0  0  0  0
   55.9563   31.4083   43.1413 H   0  0  0  0  0  0  0  0  0  0  0  0
   57.7707   32.1514   44.6860 H   0  0  0  0  0  0  0  0  0  0  0  0
   59.4509   30.5103   45.5235 H   0  0  0  0  0  0  0  0  0  0  0  0
   59.4058   24.7642   47.2097 H   0  0  0  0  0  0  0  0  0  0  0  0
   55.2320   24.0310   46.9090 H   0  0  0  0  0  0  0  0  0  0  0  0
  1  2  2  0
  2  3  1  0
  3  4  2  0
  4  5  1  0
  5  6  2  0
  6  7  1  0
  7  8  2  0
  7  9  2  0
  7 10  1  0
 10 11  1  0
 11 12  1  0
 12 13  1  0
 13 14  1  0
 14 15  1  0
  6 16  1  0
 16 17  2  0
  2 18  1  0
 18 19  1  0
 19 20  1  0
 20 21  2  0
 21 22  1  0
 22 23  2  0
 23 24  1  0
 24 25  2  0
 18 26  1  0
 26 27  2  0
 27 28  1  0
 28 29  2  0
 28 30  1  0
 30 31  1  0
 31 32  2  0
 31 33  1  0
 17  3  1  0
 25 20  1  0
 33 26  1  0
 15 10  1  0
  4 34  1  0
  5 35  1  0
 11 36  1  0
 11 37  1  0
 12 38  1  0
 12 39  1  0
 13 40  1  0
 13 41  1  0
 14 42  1  0
 14 43  1  0
 15 44  1  0
 15 45  1  0
 16 46  1  0
 17 47  1  0
 19 48  1  0
 19 49  1  0
 21 50  1  0
 22 51  1  0
 23 52  1  0
 24 53  1  0
 25 54  1  0
 27 55  1  0
 30 56  1  0
M  CHG  1  33  -1
M  END
>  <UniqueID>  (22) 
22

>  <SMILES>  (22) 
O=C(c1ccc(S(=O)(=O)N2CCCCC2)cc1)N(Cc1ccccc1)c1cc(=O)[nH]c(=O)[n-]1

>  <Energy>  (22) 
72.17628716209373

>  <Genealogy>  (22) 
O=C(c1ccc(S(=O)(=O)N2CCCCC2)cc1)N(Cc1ccccc1)c1cc(=O)[nH]c(=O)[n-]1 (protonated)
O=C(c1ccc(S(=O)(=O)N2CCCCC2)cc1)N(Cc1ccccc1)c1cc(=O)[nH]c(=O)[n-]1 (3D coordinates assigned)
O=C(c1ccc(S(=O)(=O)N2CCCCC2)cc1)N(Cc1ccccc1)c1cc(=O)[nH]c(=O)[n-]1 (nonaromatic ring conformer: 72.17628716209373 kcal/mol)

>  <smiles>  (22) 
O=C(c1ccc(S(=O)(=O)N2CCCCC2)cc1)N(Cc1ccccc1)c1cc(=O)[nH]c(=O)[nH]1

>  <score_type>  (22) 
oracle

>  <origin>  (22) 
adg

>  <m_score__min__energy>  (22) 
-11.949999999999999

>  <m_primary>  (22) 
energy

$$$$
22:0
     RDKit          3D

 32 33  0  0  0  0  0  0  0  0999 V2000
   55.1570   29.1470   44.8420 N   0  0  0  0  0  0  0  0  0  0  0  0
   56.4600   29.7060   45.0020 C   0  0  0  0  0  0  0  0  0  0  0  0
   57.1550   29.3630   45.9960 O   0  0  0  0  0  0  0  0  0  0  0  0
   56.9700   30.7050   44.0280 C   0  0  0  0  0  0  0  0  0  0  0  0
   56.6330   30.5640   42.6680 C   0  0  0  0  0  0  0  0  0  0  0  0
   57.0450   31.5100   41.7290 C   0  0  0  0  0  0  0  0  0  0  0  0
   57.8040   32.6080   42.1280 C   0  0  0  0  0  0  0  0  0  0  0  0
   58.1600   32.7610   43.4680 C   0  0  0  0  0  0  0  0  0  0  0  0
   57.7510   31.8200   44.4300 C   0  0  0  0  0  0  0  0  0  0  0  0
   58.2070   31.9550   45.7850 N   0  0  0  0  0  0  0  0  0  0  0  0
   58.3170   33.2210   46.4520 C   0  0  0  0  0  0  0  0  0  0  0  0
   57.9470   34.2810   45.8790 O   0  0  0  0  0  0  0  0  0  0  0  0
   58.7950   33.2800   47.8700 C   0  0  0  0  0  0  0  0  0  0  0  0
   60.2900   33.4410   47.9000 C   0  0  0  0  0  0  0  0  0  0  0  0
   60.9400   33.8160   49.0880 C   0  0  0  0  0  0  0  0  0  0  0  0
   62.3260   34.0060   49.1020 C   0  0  0  0  0  0  0  0  0  0  0  0
   63.0700   33.8300   47.9320 C   0  0  0  0  0  0  0  0  0  0  0  0
   62.4290   33.4680   46.7440 C   0  0  0  0  0  0  0  0  0  0  0  0
   61.0430   33.2770   46.7250 C   0  0  0  0  0  0  0  0  0  0  0  0
   54.3970   29.3540   45.5260 H   0  0  0  0  0  0  0  0  0  0  0  0
   56.0381   29.6980   42.3423 H   0  0  0  0  0  0  0  0  0  0  0  0
   56.7699   31.3886   40.6709 H   0  0  0  0  0  0  0  0  0  0  0  0
   58.1227   33.3548   41.3859 H   0  0  0  0  0  0  0  0  0  0  0  0
   58.7664   33.6258   43.7753 H   0  0  0  0  0  0  0  0  0  0  0  0
   58.4170   31.0870   46.3280 H   0  0  0  0  0  0  0  0  0  0  0  0
   58.3258   34.1356   48.3778 H   0  0  0  0  0  0  0  0  0  0  0  0
   58.5209   32.3467   48.3837 H   0  0  0  0  0  0  0  0  0  0  0  0
   60.3573   33.9606   50.0097 H   0  0  0  0  0  0  0  0  0  0  0  0
   62.8312   34.2945   50.0356 H   0  0  0  0  0  0  0  0  0  0  0  0
   64.1601   33.9764   47.9462 H   0  0  0  0  0  0  0  0  0  0  0  0
   63.0148   33.3331   45.8228 H   0  0  0  0  0  0  0  0  0  0  0  0
   60.5411   32.9975   45.7869 H   0  0  0  0  0  0  0  0  0  0  0  0
  1  2  1  0
  2  3  2  0
  2  4  1  0
  4  5  2  0
  5  6  1  0
  6  7  2  0
  7  8  1  0
  8  9  2  0
  9 10  1  0
 10 11  1  0
 11 12  2  0
 11 13  1  0
 13 14  1  0
 14 15  2  0
 15 16  1  0
 16 17  2  0
 17 18  1  0
 18 19  2  0
  9  4  1  0
 19 14  1  0
  1 20  1  0
  5 21  1  0
  6 22  1  0
  7 23  1  0
  8 24  1  0
 10 25  1  0
 13 26  1  0
 13 27  1  0
 15 28  1  0
 16 29  1  0
 17 30  1  0
 18 31  1  0
 19 32  1  0
M  CHG  1   1  -1
M  END
>  <UniqueID>  (23) 
23

>  <SMILES>  (23) 
[NH-]C(=O)c1ccccc1NC(=O)Cc1ccccc1

>  <Energy>  (23) 
37.21861281986536

>  <Genealogy>  (23) 
[NH-]C(=O)c1ccccc1NC(=O)Cc1ccccc1 (protonated)
[NH-]C(=O)c1ccccc1NC(=O)Cc1ccccc1 (3D coordinates assigned)
[NH-]C(=O)c1ccccc1NC(=O)Cc1ccccc1 (optimized conformer: 37.21861281986536 kcal/mol)

>  <smiles>  (23) 
NC(=O)c1ccccc1NC(=O)Cc1ccccc1

>  <score_type>  (23) 
oracle

>  <origin>  (23) 
adg

>  <m_score__min__energy>  (23) 
-10.279999999999999

>  <m_primary>  (23) 
energy

$$$$
23:0
     RDKit          3D

 58 60  0  0  0  0  0  0  0  0999 V2000
   57.3710   34.3190   44.9020 C   0  0  0  0  0  0  0  0  0  0  0  0
   58.2910   33.1130   45.1500 C   0  0  0  0  0  0  0  0  0  0  0  0
   57.6070   31.9060   45.6730 N   0  0  0  0  0  0  0  0  0  0  0  0
   58.1490   31.4200   46.9570 C   0  0  0  0  0  0  0  0  0  0  0  0
   59.3220   32.2310   47.4430 C   0  0  0  0  0  0  0  0  0  0  0  0
   59.1600   32.9520   48.4630 O   0  0  0  0  0  0  0  0  0  0  0  0
   60.6300   32.0920   46.8600 N   0  0  0  0  0  0  0  0  0  0  0  0
   61.8330   32.3910   47.5880 C   0  0  0  0  0  0  0  0  0  0  0  0
   62.6040   33.4880   47.1730 C   0  0  0  0  0  0  0  0  0  0  0  0
   63.8020   33.8010   47.8170 C   0  0  0  0  0  0  0  0  0  0  0  0
   64.2400   33.0280   48.8910 C   0  0  0  0  0  0  0  0  0  0  0  0
   63.4750   31.9490   49.3330 C   0  0  0  0  0  0  0  0  0  0  0  0
   62.2640   31.6190   48.6980 C   0  0  0  0  0  0  0  0  0  0  0  0
   61.4550   30.5620   49.2480 N   0  0  0  0  0  0  0  0  0  0  0  0
   60.9580   29.4930   48.3770 C   0  0  0  0  0  0  0  0  0  0  0  0
   59.6550   28.9210   48.9410 C   0  0  0  0  0  0  0  0  0  0  0  0
   58.8570   29.9760   49.4360 O   0  0  0  0  0  0  0  0  0  0  0  0
   59.4050   30.5040   50.6370 C   0  0  0  0  0  0  0  0  0  0  0  0
   60.9450   30.6470   50.6210 C   0  0  0  0  0  0  0  0  0  0  0  0
   57.4390   30.6460   44.4610 S   0  0  0  0  0  0  0  0  0  0  0  0
   58.3600   30.9480   43.3100 O   0  0  0  0  0  0  0  0  0  0  0  0
   56.0450   30.6740   43.9070 O   0  0  0  0  0  0  0  0  0  0  0  0
   57.8320   29.0170   45.0660 C   0  0  0  0  0  0  0  0  0  0  0  0
   56.7590   28.2020   45.4680 C   0  0  0  0  0  0  0  0  0  0  0  0
   56.9730   26.9070   45.9630 C   0  0  0  0  0  0  0  0  0  0  0  0
   55.8260   26.0580   46.3560 C   0  0  0  0  0  0  0  0  0  0  0  0
   54.6590   26.3420   45.9740 O   0  0  0  0  0  0  0  0  0  0  0  0
   56.0190   24.9360   47.1540 O   0  0  0  0  0  0  0  0  0  0  0  0
   58.2870   26.4320   46.0790 C   0  0  0  0  0  0  0  0  0  0  0  0
   59.3630   27.2370   45.7110 C   0  0  0  0  0  0  0  0  0  0  0  0
   59.1590   28.5300   45.1990 C   0  0  0  0  0  0  0  0  0  0  0  0
   60.3700   29.3680   44.8880 C   0  0  0  0  0  0  0  0  0  0  0  0
   57.0500   34.7397   45.8663 H   0  0  0  0  0  0  0  0  0  0  0  0
   57.9164   35.0849   44.3311 H   0  0  0  0  0  0  0  0  0  0  0  0
   56.4882   33.9954   44.3311 H   0  0  0  0  0  0  0  0  0  0  0  0
   58.7719   32.8478   44.1969 H   0  0  0  0  0  0  0  0  0  0  0  0
   59.0065   33.4238   45.9256 H   0  0  0  0  0  0  0  0  0  0  0  0
   57.3525   31.4664   47.7142 H   0  0  0  0  0  0  0  0  0  0  0  0
   58.5029   30.3908   46.7974 H   0  0  0  0  0  0  0  0  0  0  0  0
   60.7350   31.4730   46.0260 H   0  0  0  0  0  0  0  0  0  0  0  0
   62.2605   34.1075   46.3314 H   0  0  0  0  0  0  0  0  0  0  0  0
   64.4011   34.6585   47.4767 H   0  0  0  0  0  0  0  0  0  0  0  0
   65.1899   33.2693   49.3904 H   0  0  0  0  0  0  0  0  0  0  0  0
   63.8223   31.3495   50.1874 H   0  0  0  0  0  0  0  0  0  0  0  0
   60.7725   29.8990   47.3716 H   0  0  0  0  0  0  0  0  0  0  0  0
   61.7102   28.6922   48.3231 H   0  0  0  0  0  0  0  0  0  0  0  0
   59.1112   28.3915   48.1447 H   0  0  0  0  0  0  0  0  0  0  0  0
   59.8836   28.2186   49.7561 H   0  0  0  0  0  0  0  0  0  0  0  0
   58.9678   31.4988   50.8077 H   0  0  0  0  0  0  0  0  0  0  0  0
   59.1618   29.7891   51.4369 H   0  0  0  0  0  0  0  0  0  0  0  0
   61.2225   31.6209   51.0505 H   0  0  0  0  0  0  0  0  0  0  0  0
   61.3841   29.8316   51.2146 H   0  0  0  0  0  0  0  0  0  0  0  0
   55.7315   28.5875   45.3928 H   0  0  0  0  0  0  0  0  0  0  0  0
   58.4696   25.4175   46.4629 H   0  0  0  0  0  0  0  0  0  0  0  0
   60.3883   26.8546   45.8229 H   0  0  0  0  0  0  0  0  0  0  0  0
   60.8412   29.6941   45.8270 H   0  0  0  0  0  0  0  0  0  0  0  0
   61.0880   28.7726   44.3049 H   0  0  0  0  0  0  0  0  0  0  0  0
   60.0658   30.2497   44.3049 H   0  0  0  0  0  0  0  0  0  0  0  0
  1  2  1  0
  2  3  1  0
  3  4  1  0
  4  5  1  0
  5  6  2  0
  5  7  1  0
  7  8  1  0
  8  9  2  0
  9 10  1  0
 10 11  2  0
 11 12  1  0
 12 13  2  0
 13 14  1  0
 14 15  1  0
 15 16  1  0
 16 17  1  0
 17 18  1  0
 18 19  1  0
  3 20  1  0
 20 21  2  0
 20 22  2  0
 20 23  1  0
 23 24  2  0
 24 25  1  0
 25 26  1  0
 26 27  2  0
 26 28  1  0
 25 29  2  0
 29 30  1  0
 30 31  2  0
 31 32  1  0
 13  8  1  0
 19 14  1  0
 31 23  1  0
  1 33  1  0
  1 34  1  0
  1 35  1  0
  2 36  1  0
  2 37  1  0
  4 38  1  0
  4 39  1  0
  7 40  1  0
  9 41  1  0
 10 42  1  0
 11 43  1  0
 12 44  1  0
 15 45  1  0
 15 46  1  0
 16 47  1  0
 16 48  1  0
 18 49  1  0
 18 50  1  0
 19 51  1  0
 19 52  1  0
 24 53  1  0
 29 54  1  0
 30 55  1  0
 32 56  1  0
 32 57  1  0
 32 58  1  0
M  CHG  1  28  -1
M  END
>  <UniqueID>  (24) 
24

>  <SMILES>  (24) 
CCN(CC(=O)Nc1ccccc1N1CCOCC1)S(=O)(=O)c1cc(C(=O)[O-])ccc1C

>  <Energy>  (24) 
83.4660424439592

>  <Genealogy>  (24) 
CCN(CC(=O)Nc1ccccc1N1CCOCC1)S(=O)(=O)c1cc(C(=O)[O-])ccc1C (protonated)
CCN(CC(=O)Nc1ccccc1N1CCOCC1)S(=O)(=O)c1cc(C(=O)[O-])ccc1C (3D coordinates assigned)
CCN(CC(=O)Nc1ccccc1N1CCOCC1)S(=O)(=O)c1cc(C(=O)[O-])ccc1C (nonaromatic ring conformer: 83.4660424439592 kcal/mol)

>  <smiles>  (24) 
CCN(CC(=O)Nc1ccccc1N1CCOCC1)S(=O)(=O)c1cc(C(=O)O)ccc1C

>  <score_type>  (24) 
oracle

>  <origin>  (24) 
adg

>  <m_score__min__energy>  (24) 
-12.52

>  <m_primary>  (24) 
energy

$$$$
24:0
     RDKit          3D

 34 36  0  0  0  0  0  0  0  0999 V2000
   61.4280   31.0260   47.1240 Cl  0  0  0  0  0  0  0  0  0  0  0  0
   60.5710   29.5010   47.3290 C   0  0  0  0  0  0  0  0  0  0  0  0
   60.7190   28.8200   48.5440 C   0  0  0  0  0  0  0  0  0  0  0  0
   60.0780   27.5960   48.7500 C   0  0  0  0  0  0  0  0  0  0  0  0
   59.2900   27.0420   47.7420 C   0  0  0  0  0  0  0  0  0  0  0  0
   59.1340   27.7120   46.5260 C   0  0  0  0  0  0  0  0  0  0  0  0
   59.7600   28.9520   46.3090 C   0  0  0  0  0  0  0  0  0  0  0  0
   59.5970   29.6230   44.9660 C   0  0  0  0  0  0  0  0  0  0  0  0
   58.1850   29.9040   44.6870 N   0  0  0  0  0  0  0  0  0  0  0  0
   57.2360   28.9710   44.0980 C   0  0  0  0  0  0  0  0  0  0  0  0
   55.9250   29.7660   44.0330 C   0  0  0  0  0  0  0  0  0  0  0  0
   56.2700   31.1050   44.4950 N   0  0  0  0  0  0  0  0  0  0  0  0
   57.5130   31.1500   44.8300 C   0  0  0  0  0  0  0  0  0  0  0  0
   58.1400   32.4010   45.3040 C   0  0  0  0  0  0  0  0  0  0  0  0
   58.2940   33.5000   44.4440 C   0  0  0  0  0  0  0  0  0  0  0  0
   58.8700   34.6870   44.9110 C   0  0  0  0  0  0  0  0  0  0  0  0
   59.2830   34.7880   46.2410 C   0  0  0  0  0  0  0  0  0  0  0  0
   59.1150   33.7060   47.1110 C   0  0  0  0  0  0  0  0  0  0  0  0
   59.6690   33.8500   48.9330 Br  0  0  0  0  0  0  0  0  0  0  0  0
   58.5390   32.5180   46.6460 C   0  0  0  0  0  0  0  0  0  0  0  0
   61.3434   29.2513   49.3403 H   0  0  0  0  0  0  0  0  0  0  0  0
   60.1951   27.0688   49.7083 H   0  0  0  0  0  0  0  0  0  0  0  0
   58.7902   26.0756   47.9044 H   0  0  0  0  0  0  0  0  0  0  0  0
   58.5167   27.2659   45.7323 H   0  0  0  0  0  0  0  0  0  0  0  0
   60.1589   30.5687   44.9658 H   0  0  0  0  0  0  0  0  0  0  0  0
   59.9803   28.9469   44.1876 H   0  0  0  0  0  0  0  0  0  0  0  0
   57.5595   28.6676   43.0914 H   0  0  0  0  0  0  0  0  0  0  0  0
   57.1394   28.0421   44.6793 H   0  0  0  0  0  0  0  0  0  0  0  0
   55.5443   29.7994   43.0015 H   0  0  0  0  0  0  0  0  0  0  0  0
   55.1348   29.3089   44.6467 H   0  0  0  0  0  0  0  0  0  0  0  0
   57.9604   33.4278   43.3983 H   0  0  0  0  0  0  0  0  0  0  0  0
   58.9975   35.5411   44.2297 H   0  0  0  0  0  0  0  0  0  0  0  0
   59.7410   35.7196   46.6049 H   0  0  0  0  0  0  0  0  0  0  0  0
   58.3981   31.6719   47.3347 H   0  0  0  0  0  0  0  0  0  0  0  0
  1  2  1  0
  2  3  2  0
  3  4  1  0
  4  5  2  0
  5  6  1  0
  6  7  2  0
  7  8  1  0
  8  9  1  0
  9 10  1  0
 10 11  1  0
 11 12  1  0
 12 13  2  0
 13 14  1  0
 14 15  2  0
 15 16  1  0
 16 17  2  0
 17 18  1  0
 18 19  1  0
 18 20  2  0
  7  2  1  0
 13  9  1  0
 20 14  1  0
  3 21  1  0
  4 22  1  0
  5 23  1  0
  6 24  1  0
  8 25  1  0
  8 26  1  0
 10 27  1  0
 10 28  1  0
 11 29  1  0
 11 30  1  0
 15 31  1  0
 16 32  1  0
 17 33  1  0
 20 34  1  0
M  END
>  <UniqueID>  (25) 
25

>  <SMILES>  (25) 
Clc1ccccc1CN1CCN=C1c1cccc(Br)c1

>  <Energy>  (25) 
53.15303580111179

>  <Genealogy>  (25) 
Clc1ccccc1CN1CCN=C1c1cccc(Br)c1 (3D coordinates assigned)
Clc1ccccc1CN1CCN=C1c1cccc(Br)c1 (nonaromatic ring conformer: 53.15303580111179 kcal/mol)

>  <smiles>  (25) 
Clc1ccccc1CN1CCN=C1c1cccc(Br)c1

>  <score_type>  (25) 
oracle

>  <origin>  (25) 
adg

>  <m_score__min__energy>  (25) 
-7.75

>  <m_primary>  (25) 
energy

$$$$
25:0
     RDKit          3D

 43 47  0  0  0  0  0  0  0  0999 V2000
   57.7910   28.9640   44.5390 C   0  0  0  0  0  0  0  0  0  0  0  0
   56.3130   29.8700   44.1390 S   0  0  0  0  0  0  0  0  0  0  0  0
   56.0250   29.7000   42.6740 O   0  0  0  0  0  0  0  0  0  0  0  0
   55.1440   29.3440   44.9260 O   0  0  0  0  0  0  0  0  0  0  0  0
   56.5390   31.5580   44.4700 N   0  0  0  0  0  0  0  0  0  0  0  0
   57.4610   32.1130   45.4180 C   0  0  0  0  0  0  0  0  0  0  0  0
   57.0600   33.2280   46.1620 C   0  0  0  0  0  0  0  0  0  0  0  0
   57.9200   33.8100   47.0970 C   0  0  0  0  0  0  0  0  0  0  0  0
   59.2050   33.2780   47.3040 C   0  0  0  0  0  0  0  0  0  0  0  0
   60.1000   33.8370   48.2390 C   0  0  0  0  0  0  0  0  0  0  0  0
   59.7600   34.8450   48.9180 O   0  0  0  0  0  0  0  0  0  0  0  0
   61.3780   33.2660   48.4100 C   0  0  0  0  0  0  0  0  0  0  0  0
   62.3080   33.7870   49.3300 C   0  0  0  0  0  0  0  0  0  0  0  0
   63.5760   33.1960   49.4820 C   0  0  0  0  0  0  0  0  0  0  0  0
   64.5540   33.7500   50.4530 C   0  0  0  0  0  0  0  0  0  0  0  0
   64.1290   34.6030   51.5030 C   0  0  0  0  0  0  0  0  0  0  0  0
   65.0540   35.1250   52.4190 C   0  0  0  0  0  0  0  0  0  0  0  0
   66.3910   34.7730   52.2570 C   0  0  0  0  0  0  0  0  0  0  0  0
   67.4870   35.1360   53.0030 C   0  0  0  0  0  0  0  0  0  0  0  0
   68.5420   34.4830   52.3730 C   0  0  0  0  0  0  0  0  0  0  0  0
   68.0880   33.7750   51.3130 N   0  0  0  0  0  0  0  0  0  0  0  0
   66.7810   33.9660   51.2620 N   0  0  0  0  0  0  0  0  0  0  0  0
   65.9260   33.4370   50.3510 C   0  0  0  0  0  0  0  0  0  0  0  0
   63.9050   32.0730   48.7020 C   0  0  0  0  0  0  0  0  0  0  0  0
   62.9890   31.5500   47.7870 C   0  0  0  0  0  0  0  0  0  0  0  0
   61.7310   32.1380   47.6360 C   0  0  0  0  0  0  0  0  0  0  0  0
   60.8490   31.6180   46.7430 N   0  0  0  0  0  0  0  0  0  0  0  0
   59.6120   32.1500   46.5570 C   0  0  0  0  0  0  0  0  0  0  0  0
   58.7440   31.5740   45.6220 C   0  0  0  0  0  0  0  0  0  0  0  0
   57.8968   28.8991   45.6320 H   0  0  0  0  0  0  0  0  0  0  0  0
   57.7256   27.9506   44.1162 H   0  0  0  0  0  0  0  0  0  0  0  0
   58.6644   29.4821   44.1162 H   0  0  0  0  0  0  0  0  0  0  0  0
   56.0563   33.6513   46.0091 H   0  0  0  0  0  0  0  0  0  0  0  0
   57.5906   34.6873   47.6731 H   0  0  0  0  0  0  0  0  0  0  0  0
   62.0405   34.6651   49.9362 H   0  0  0  0  0  0  0  0  0  0  0  0
   63.0633   34.8578   51.6001 H   0  0  0  0  0  0  0  0  0  0  0  0
   64.7345   35.7886   53.2360 H   0  0  0  0  0  0  0  0  0  0  0  0
   67.5218   35.7881   53.8882 H   0  0  0  0  0  0  0  0  0  0  0  0
   69.5938   34.5349   52.6910 H   0  0  0  0  0  0  0  0  0  0  0  0
   66.2943   32.7786   49.5505 H   0  0  0  0  0  0  0  0  0  0  0  0
   64.8929   31.6023   48.8137 H   0  0  0  0  0  0  0  0  0  0  0  0
   63.2592   30.6715   47.1827 H   0  0  0  0  0  0  0  0  0  0  0  0
   59.0669   30.6956   45.0440 H   0  0  0  0  0  0  0  0  0  0  0  0
  1  2  1  0
  2  3  2  0
  2  4  2  0
  2  5  1  0
  5  6  1  0
  6  7  2  0
  7  8  1  0
  8  9  2  0
  9 10  1  0
 10 11  2  0
 10 12  1  0
 12 13  2  0
 13 14  1  0
 14 15  1  0
 15 16  1  0
 16 17  2  0
 17 18  1  0
 18 19  2  0
 19 20  1  0
 20 21  2  0
 21 22  1  0
 22 23  1  0
 14 24  2  0
 24 25  1  0
 25 26  2  0
 26 27  1  0
 27 28  1  0
 28 29  2  0
 29  6  1  0
 28  9  1  0
 26 12  1  0
 23 15  2  0
 22 18  1  0
  1 30  1  0
  1 31  1  0
  1 32  1  0
  7 33  1  0
  8 34  1  0
 13 35  1  0
 16 36  1  0
 17 37  1  0
 19 38  1  0
 20 39  1  0
 23 40  1  0
 24 41  1  0
 25 42  1  0
 29 43  1  0
M  CHG  2   5  -1  27  -1
M  END
>  <UniqueID>  (26) 
26

>  <SMILES>  (26) 
CS(=O)(=O)[N-]c1ccc2c(=O)c3cc(-c4ccc5ccnn5c4)ccc3[n-]c2c1

>  <Energy>  (26) 
97.03698363137666

>  <Genealogy>  (26) 
CS(=O)(=O)[N-]c1ccc2c(=O)c3cc(-c4ccc5ccnn5c4)ccc3[n-]c2c1 (protonated)
CS(=O)(=O)[N-]c1ccc2c(=O)c3cc(-c4ccc5ccnn5c4)ccc3[n-]c2c1 (3D coordinates assigned)
CS(=O)(=O)[N-]c1ccc2c(=O)c3cc(-c4ccc5ccnn5c4)ccc3[n-]c2c1 (optimized conformer: 97.03698363137666 kcal/mol)

>  <smiles>  (26) 
CS(=O)(=O)Nc1ccc2c(=O)c3cc(-c4ccc5ccnn5c4)ccc3[nH]c2c1

>  <score_type>  (26) 
oracle

>  <origin>  (26) 
adg

>  <m_score__min__energy>  (26) 
-11.44

>  <m_primary>  (26) 
energy

$$$$
26:0
     RDKit          3D

 41 44  0  0  0  0  0  0  0  0999 V2000
   54.7324   28.8036   54.5155 H   0  0  0  0  0  0  0  0  0  0  0  0
   54.3950   29.4640   53.7030 C   0  0  0  0  0  0  0  0  0  0  0  0
   55.4310   30.0830   52.8540 C   0  0  0  0  0  0  0  0  0  0  0  0
   55.4690   29.7960   51.6270 O   0  0  0  0  0  0  0  0  0  0  0  0
   56.3170   31.0720   53.3930 N   0  0  0  0  0  0  0  0  0  0  0  0
   57.3290   31.8120   52.6870 C   0  0  0  0  0  0  0  0  0  0  0  0
   57.4060   31.7770   51.2830 C   0  0  0  0  0  0  0  0  0  0  0  0
   56.6516   31.2169   50.7109 H   0  0  0  0  0  0  0  0  0  0  0  0
   58.4290   32.4450   50.6070 C   0  0  0  0  0  0  0  0  0  0  0  0
   58.4980   32.3560   48.8140 S   0  0  0  0  0  0  0  0  0  0  0  0
   58.9380   30.6210   48.8350 C   0  0  0  0  0  0  0  0  0  0  0  0
   59.5890   30.0270   49.8510 N   0  0  0  0  0  0  0  0  0  0  0  0
   59.7300   28.7570   49.5120 N   0  0  0  0  0  0  0  0  0  0  0  0
   59.1630   28.6110   48.2990 C   0  0  0  0  0  0  0  0  0  0  0  0
   59.1259   27.6585   47.7500 H   0  0  0  0  0  0  0  0  0  0  0  0
   58.6460   29.7670   47.8350 N   0  0  0  0  0  0  0  0  0  0  0  0
   59.4010   33.1550   51.3210 C   0  0  0  0  0  0  0  0  0  0  0  0
   60.4100   33.8230   50.6300 O   0  0  0  0  0  0  0  0  0  0  0  0
   59.3630   33.1790   52.7290 C   0  0  0  0  0  0  0  0  0  0  0  0
   60.3510   33.8610   53.4660 C   0  0  0  0  0  0  0  0  0  0  0  0
   61.1529   34.3976   52.9378 H   0  0  0  0  0  0  0  0  0  0  0  0
   60.3200   33.8610   54.8620 C   0  0  0  0  0  0  0  0  0  0  0  0
   61.0975   34.3954   55.4277 H   0  0  0  0  0  0  0  0  0  0  0  0
   59.3070   33.1860   55.5410 C   0  0  0  0  0  0  0  0  0  0  0  0
   59.2882   33.1885   56.6408 H   0  0  0  0  0  0  0  0  0  0  0  0
   58.3150   32.5060   54.8290 C   0  0  0  0  0  0  0  0  0  0  0  0
   57.5206   31.9742   55.3731 H   0  0  0  0  0  0  0  0  0  0  0  0
   58.3240   32.4960   53.4180 C   0  0  0  0  0  0  0  0  0  0  0  0
   53.0700   29.6450   53.5600 C   0  0  0  0  0  0  0  0  0  0  0  0
   52.4064   29.1685   54.2966 H   0  0  0  0  0  0  0  0  0  0  0  0
   52.4430   30.4390   52.4830 C   0  0  0  0  0  0  0  0  0  0  0  0
   52.4810   29.9650   51.1620 C   0  0  0  0  0  0  0  0  0  0  0  0
   52.9534   28.9968   50.9397 H   0  0  0  0  0  0  0  0  0  0  0  0
   51.9190   30.7220   50.1270 C   0  0  0  0  0  0  0  0  0  0  0  0
   51.9582   30.3518   49.0919 H   0  0  0  0  0  0  0  0  0  0  0  0
   51.3070   31.9500   50.4080 C   0  0  0  0  0  0  0  0  0  0  0  0
   50.7770   32.7080   49.3710 O   0  0  0  0  0  0  0  0  0  0  0  0
   51.2380   32.4140   51.7290 C   0  0  0  0  0  0  0  0  0  0  0  0
   50.6300   33.6320   52.0130 O   0  0  0  0  0  0  0  0  0  0  0  0
   51.7820   31.6500   52.7670 C   0  0  0  0  0  0  0  0  0  0  0  0
   51.6933   31.9958   53.8075 H   0  0  0  0  0  0  0  0  0  0  0  0
  1  2  1  0
  2  3  1  0
  3  4  2  0
  3  5  1  0
  5  6  1  0
  6  7  2  0
  7  8  1  0
  7  9  1  0
  9 10  1  0
 10 11  1  0
 11 12  2  0
 12 13  1  0
 13 14  1  0
 14 15  1  0
 14 16  2  0
  9 17  2  0
 17 18  1  0
 17 19  1  0
 19 20  2  0
 20 21  1  0
 20 22  1  0
 22 23  1  0
 22 24  2  0
 24 25  1  0
 24 26  1  0
 26 27  1  0
 26 28  2  0
  2 29  2  0
 29 30  1  0
 29 31  1  0
 31 32  2  0
 32 33  1  0
 32 34  1  0
 34 35  1  0
 34 36  2  0
 36 37  1  0
 36 38  1  0
 38 39  1  0
 38 40  2  0
 40 41  1  0
 28  6  1  0
 40 31  1  0
 16 11  1  0
 28 19  1  0
M  CHG  5   5  -1  13  -1  18  -1  37  -1  39  -1
M  END
>  <UniqueID>  (27) 
27

>  <SMILES>  (27) 
O=C(/C=C\c1ccc([O-])c([O-])c1)[N-]c1cc(Sc2nc[n-]n2)c([O-])c2ccccc12

>  <Energy>  (27) 
88.2545485526662

>  <Genealogy>  (27) 
O=C(C=Cc1ccc([O-])c([O-])c1)[N-]c1cc(Sc2nc[n-]n2)c([O-])c2ccccc12 (protonated)
O=C(/C=C\c1ccc([O-])c([O-])c1)[N-]c1cc(Sc2nc[n-]n2)c([O-])c2ccccc12 (cis-trans isomerization)
O=C(/C=C\c1ccc([O-])c([O-])c1)[N-]c1cc(Sc2nc[n-]n2)c([O-])c2ccccc12 (3D coordinates assigned)
O=C(/C=C\c1ccc([O-])c([O-])c1)[N-]c1cc(Sc2nc[n-]n2)c([O-])c2ccccc12 (optimized conformer: 88.2545485526662 kcal/mol)

>  <smiles>  (27) 
O=C(C=Cc1ccc(O)c(O)c1)Nc1cc(Sc2nc[nH]n2)c(O)c2ccccc12

>  <score_type>  (27) 
oracle

>  <origin>  (27) 
adg

>  <m_score__min__energy>  (27) 
-20.100000000000001

>  <m_primary>  (27) 
energy

$$$$
27:0
     RDKit          3D

 67 72  0  0  0  0  0  0  0  0999 V2000
   61.3669   29.1888   45.4431 H   0  0  0  0  0  0  0  0  0  0  0  0
   60.2840   29.0560   45.3030 C   0  0  0  0  0  0  0  0  0  0  0  0
   59.4280   30.1600   45.3870 C   0  0  0  0  0  0  0  0  0  0  0  0
   59.8387   31.1611   45.5847 H   0  0  0  0  0  0  0  0  0  0  0  0
   58.0470   29.9890   45.2190 C   0  0  0  0  0  0  0  0  0  0  0  0
   57.1740   31.1190   45.2340 N   0  0  0  0  0  0  0  0  0  0  0  0
   57.4550   32.4080   45.8060 C   0  0  0  0  0  0  0  0  0  0  0  0
   56.6500   33.3480   45.5660 O   0  0  0  0  0  0  0  0  0  0  0  0
   58.6980   32.7190   46.5570 C   0  0  0  0  0  0  0  0  0  0  0  0
   58.7250   32.4700   47.9580 C   0  0  0  0  0  0  0  0  0  0  0  0
   57.8235   32.0843   48.4565 H   0  0  0  0  0  0  0  0  0  0  0  0
   59.8850   32.7090   48.7150 C   0  0  0  0  0  0  0  0  0  0  0  0
   59.9111   32.5078   49.7961 H   0  0  0  0  0  0  0  0  0  0  0  0
   61.0010   33.2100   48.0470 C   0  0  0  0  0  0  0  0  0  0  0  0
   60.9980   33.4270   46.6980 C   0  0  0  0  0  0  0  0  0  0  0  0
   62.2110   33.8400   46.2770 N   0  0  0  0  0  0  0  0  0  0  0  0
   62.9280   33.8620   47.4290 C   0  0  0  0  0  0  0  0  0  0  0  0
   64.1410   34.2000   47.4680 O   0  0  0  0  0  0  0  0  0  0  0  0
   62.2230   33.4920   48.5280 N   0  0  0  0  0  0  0  0  0  0  0  0
   62.7060   33.3450   49.8720 C   0  0  0  0  0  0  0  0  0  0  0  0
   63.1080   34.4880   50.5820 C   0  0  0  0  0  0  0  0  0  0  0  0
   63.0355   35.4784   50.1089 H   0  0  0  0  0  0  0  0  0  0  0  0
   63.5990   34.3760   51.8840 C   0  0  0  0  0  0  0  0  0  0  0  0
   63.9135   35.2763   52.4323 H   0  0  0  0  0  0  0  0  0  0  0  0
   63.6910   33.1230   52.4900 C   0  0  0  0  0  0  0  0  0  0  0  0
   64.0874   33.0360   53.5124 H   0  0  0  0  0  0  0  0  0  0  0  0
   63.2810   31.9780   51.8020 C   0  0  0  0  0  0  0  0  0  0  0  0
   63.3604   30.9927   52.2846 H   0  0  0  0  0  0  0  0  0  0  0  0
   62.7680   32.0770   50.4980 C   0  0  0  0  0  0  0  0  0  0  0  0
   62.3160   30.8250   49.7920 C   0  0  0  0  0  0  0  0  0  0  0  0
   62.0410   30.0633   50.5364 H   0  0  0  0  0  0  0  0  0  0  0  0
   61.4437   31.0538   49.1621 H   0  0  0  0  0  0  0  0  0  0  0  0
   63.1333   30.4439   49.1621 H   0  0  0  0  0  0  0  0  0  0  0  0
   59.8730   33.1850   45.9160 C   0  0  0  0  0  0  0  0  0  0  0  0
   59.8949   33.3510   44.8288 H   0  0  0  0  0  0  0  0  0  0  0  0
   57.5310   28.7210   44.9220 C   0  0  0  0  0  0  0  0  0  0  0  0
   56.4524   28.5967   44.7452 H   0  0  0  0  0  0  0  0  0  0  0  0
   58.3830   27.6090   44.8490 C   0  0  0  0  0  0  0  0  0  0  0  0
   57.8110   26.2640   44.6140 C   0  0  0  0  0  0  0  0  0  0  0  0
   57.7160   25.8050   43.2920 C   0  0  0  0  0  0  0  0  0  0  0  0
   58.0461   26.4528   42.4666 H   0  0  0  0  0  0  0  0  0  0  0  0
   57.2080   24.5370   43.0120 C   0  0  0  0  0  0  0  0  0  0  0  0
   57.1401   24.1944   41.9689 H   0  0  0  0  0  0  0  0  0  0  0  0
   56.7830   23.6950   44.0500 C   0  0  0  0  0  0  0  0  0  0  0  0
   56.2530   22.3430   43.7510 C   0  0  0  0  0  0  0  0  0  0  0  0
   55.9350   22.0370   42.5680 O   0  0  0  0  0  0  0  0  0  0  0  0
   55.9870   21.4260   44.8240 N   0  0  0  0  0  0  0  0  0  0  0  0
   55.5010   21.6670   46.0110 C   0  0  0  0  0  0  0  0  0  0  0  0
   56.2100   21.1780   47.1180 C   0  0  0  0  0  0  0  0  0  0  0  0
   57.1450   20.6186   46.9668 H   0  0  0  0  0  0  0  0  0  0  0  0
   55.7330   21.3990   48.4100 C   0  0  0  0  0  0  0  0  0  0  0  0
   56.3043   21.0330   49.2758 H   0  0  0  0  0  0  0  0  0  0  0  0
   54.5630   22.0660   48.6020 N   0  0  0  0  0  0  0  0  0  0  0  0
   54.2120   22.2140   49.5750 H   0  0  0  0  0  0  0  0  0  0  0  0
   53.8380   22.5400   47.5540 C   0  0  0  0  0  0  0  0  0  0  0  0
   52.8973   23.0787   47.7406 H   0  0  0  0  0  0  0  0  0  0  0  0
   54.2790   22.3480   46.2400 C   0  0  0  0  0  0  0  0  0  0  0  0
   53.4710   22.7610   45.2320 F   0  0  0  0  0  0  0  0  0  0  0  0
   56.8720   24.1530   45.3780 C   0  0  0  0  0  0  0  0  0  0  0  0
   56.5238   23.5072   46.1976 H   0  0  0  0  0  0  0  0  0  0  0  0
   57.3990   25.4230   45.6740 C   0  0  0  0  0  0  0  0  0  0  0  0
   57.4860   25.8600   47.1140 C   0  0  0  0  0  0  0  0  0  0  0  0
   57.3137   24.9946   47.7708 H   0  0  0  0  0  0  0  0  0  0  0  0
   58.4847   26.2768   47.3110 H   0  0  0  0  0  0  0  0  0  0  0  0
   56.7230   26.6275   47.3110 H   0  0  0  0  0  0  0  0  0  0  0  0
   59.7640   27.7830   45.0410 C   0  0  0  0  0  0  0  0  0  0  0  0
   60.4387   26.9160   44.9852 H   0  0  0  0  0  0  0  0  0  0  0  0
  1  2  1  0
  2  3  2  0
  3  4  1  0
  3  5  1  0
  5  6  1  0
  6  7  1  0
  7  8  2  0
  7  9  1  0
  9 10  2  0
 10 11  1  0
 10 12  1  0
 12 13  1  0
 12 14  2  0
 14 15  1  0
 15 16  1  0
 16 17  1  0
 17 18  2  0
 17 19  1  0
 19 20  1  0
 20 21  2  0
 21 22  1  0
 21 23  1  0
 23 24  1  0
 23 25  2  0
 25 26  1  0
 25 27  1  0
 27 28  1  0
 27 29  2  0
 29 30  1  0
 30 31  1  0
 30 32  1  0
 30 33  1  0
 15 34  2  0
 34 35  1  0
  5 36  2  0
 36 37  1  0
 36 38  1  0
 38 39  1  0
 39 40  2  0
 40 41  1  0
 40 42  1  0
 42 43  1  0
 42 44  2  0
 44 45  1  0
 45 46  2  0
 45 47  1  0
 47 48  2  0
 48 49  1  0
 49 50  1  0
 49 51  2  0
 51 52  1  0
 51 53  1  0
 53 54  1  0
 53 55  1  0
 55 56  1  0
 55 57  2  0
 57 58  1  0
 44 59  1  0
 59 60  1  0
 59 61  2  0
 61 62  1  0
 62 63  1  0
 62 64  1  0
 62 65  1  0
 38 66  2  0
 66 67  1  0
 66  2  1  0
 34  9  1  0
 61 39  1  0
 19 14  1  0
 29 20  1  0
 57 48  1  0
M  CHG  2   6  -1  16  -1
M  END
>  <UniqueID>  (28) 
28

>  <SMILES>  (28) 
Cc1cc(C(=O)/N=c2/cc[nH]cc2F)ccc1-c1cccc([N-]C(=O)c2ccc3c(c2)[n-]c(=O)n3-c2ccccc2C)c1

>  <Energy>  (28) 
155.22107159339603

>  <Genealogy>  (28) 
Cc1cc(C(=O)N=c2cc[nH]cc2F)ccc1-c1cccc([N-]C(=O)c2ccc3c(c2)[n-]c(=O)n3-c2ccccc2C)c1 (protonated)
Cc1cc(C(=O)/N=c2/cc[nH]cc2F)ccc1-c1cccc([N-]C(=O)c2ccc3c(c2)[n-]c(=O)n3-c2ccccc2C)c1 (cis-trans isomerization)
Cc1cc(C(=O)/N=c2/cc[nH]cc2F)ccc1-c1cccc([N-]C(=O)c2ccc3c(c2)[n-]c(=O)n3-c2ccccc2C)c1 (3D coordinates assigned)
Cc1cc(C(=O)/N=c2/cc[nH]cc2F)ccc1-c1cccc([N-]C(=O)c2ccc3c(c2)[n-]c(=O)n3-c2ccccc2C)c1 (optimized conformer: 155.22107159339603 kcal/mol)

>  <smiles>  (28) 
Cc1cc(C(=O)N=c2cc[nH]cc2F)ccc1-c1cccc(NC(=O)c2ccc3c(c2)[nH]c(=O)n3-c2ccccc2C)c1

>  <score_type>  (28) 
oracle

>  <origin>  (28) 
adg

>  <m_score__min__energy>  (28) 
-13.66

>  <m_primary>  (28) 
energy

$$$$
28:0
     RDKit          3D

 50 52  0  0  0  0  0  0  0  0999 V2000
   57.6880   30.9690   51.5420 C   0  0  0  0  0  0  0  0  0  0  0  0
   58.4470   31.3980   50.3300 C   0  0  0  0  0  0  0  0  0  0  0  0
   58.0080   32.2550   49.4430 O   0  0  0  0  0  0  0  0  0  0  0  0
   58.9270   32.3410   48.5050 C   0  0  0  0  0  0  0  0  0  0  0  0
   58.7720   33.1460   47.2770 C   0  0  0  0  0  0  0  0  0  0  0  0
   59.6480   34.2120   47.0070 C   0  0  0  0  0  0  0  0  0  0  0  0
   59.5350   34.9320   45.8130 C   0  0  0  0  0  0  0  0  0  0  0  0
   58.5480   34.5960   44.8840 C   0  0  0  0  0  0  0  0  0  0  0  0
   57.6720   33.5410   45.1450 C   0  0  0  0  0  0  0  0  0  0  0  0
   57.7820   32.8170   46.3360 C   0  0  0  0  0  0  0  0  0  0  0  0
   60.0020   31.5600   48.7550 N   0  0  0  0  0  0  0  0  0  0  0  0
   59.6880   30.9590   49.9190 C   0  0  0  0  0  0  0  0  0  0  0  0
   60.5070   29.8610   50.5300 C   0  0  0  0  0  0  0  0  0  0  0  0
   60.7650   28.7170   49.5390 C   0  0  0  0  0  0  0  0  0  0  0  0
   59.5390   28.1210   49.1000 O   0  0  0  0  0  0  0  0  0  0  0  0
   59.0970   28.0500   47.7690 C   0  0  0  0  0  0  0  0  0  0  0  0
   59.6590   28.9290   46.8410 C   0  0  0  0  0  0  0  0  0  0  0  0
   59.1910   28.9710   45.5280 C   0  0  0  0  0  0  0  0  0  0  0  0
   58.1720   28.1040   45.1010 C   0  0  0  0  0  0  0  0  0  0  0  0
   57.6810   28.2190   43.6730 C   0  0  0  0  0  0  0  0  0  0  0  0
   57.0890   29.6050   43.3810 C   0  0  0  0  0  0  0  0  0  0  0  0
   56.0180   29.9680   44.3630 C   0  0  0  0  0  0  0  0  0  0  0  0
   55.9080   31.1540   44.7720 O   0  0  0  0  0  0  0  0  0  0  0  0
   55.1610   28.9880   44.8460 O   0  0  0  0  0  0  0  0  0  0  0  0
   57.6530   27.1470   46.0110 C   0  0  0  0  0  0  0  0  0  0  0  0
   56.5660   26.1720   45.6230 C   0  0  0  0  0  0  0  0  0  0  0  0
   55.3110   26.6770   45.9870 O   0  0  0  0  0  0  0  0  0  0  0  0
   58.1080   27.1450   47.3430 C   0  0  0  0  0  0  0  0  0  0  0  0
   58.2345   31.2779   52.4453 H   0  0  0  0  0  0  0  0  0  0  0  0
   56.6932   31.4384   51.5368 H   0  0  0  0  0  0  0  0  0  0  0  0
   57.5771   29.8746   51.5368 H   0  0  0  0  0  0  0  0  0  0  0  0
   60.4252   34.4809   47.7375 H   0  0  0  0  0  0  0  0  0  0  0  0
   60.2244   35.7637   45.6056 H   0  0  0  0  0  0  0  0  0  0  0  0
   58.4608   35.1633   43.9456 H   0  0  0  0  0  0  0  0  0  0  0  0
   56.8942   33.2789   44.4127 H   0  0  0  0  0  0  0  0  0  0  0  0
   57.0901   31.9858   46.5372 H   0  0  0  0  0  0  0  0  0  0  0  0
   61.4732   30.2761   50.8528 H   0  0  0  0  0  0  0  0  0  0  0  0
   59.9452   29.4520   51.3827 H   0  0  0  0  0  0  0  0  0  0  0  0
   61.3029   29.1143   48.6656 H   0  0  0  0  0  0  0  0  0  0  0  0
   61.3627   27.9461   50.0474 H   0  0  0  0  0  0  0  0  0  0  0  0
   60.4788   29.5948   47.1486 H   0  0  0  0  0  0  0  0  0  0  0  0
   59.6248   29.6913   44.8188 H   0  0  0  0  0  0  0  0  0  0  0  0
   58.5259   28.0423   42.9911 H   0  0  0  0  0  0  0  0  0  0  0  0
   56.8880   27.4713   43.5239 H   0  0  0  0  0  0  0  0  0  0  0  0
   57.8922   30.3545   43.4362 H   0  0  0  0  0  0  0  0  0  0  0  0
   56.6401   29.5815   42.3771 H   0  0  0  0  0  0  0  0  0  0  0  0
   56.5920   26.0129   44.5349 H   0  0  0  0  0  0  0  0  0  0  0  0
   56.7350   25.2191   46.1459 H   0  0  0  0  0  0  0  0  0  0  0  0
   55.1490   27.4720   45.4160 H   0  0  0  0  0  0  0  0  0  0  0  0
   57.6847   26.4263   48.0602 H   0  0  0  0  0  0  0  0  0  0  0  0
  1  2  1  0
  2  3  1  0
  3  4  1  0
  4  5  1  0
  5  6  2  0
  6  7  1  0
  7  8  2  0
  8  9  1  0
  9 10  2  0
  4 11  2  0
 11 12  1  0
 12 13  1  0
 13 14  1  0
 14 15  1  0
 15 16  1  0
 16 17  2  0
 17 18  1  0
 18 19  2  0
 19 20  1  0
 20 21  1  0
 21 22  1  0
 22 23  2  0
 22 24  1  0
 19 25  1  0
 25 26  1  0
 26 27  1  0
 25 28  2  0
 12  2  2  0
 28 16  1  0
 10  5  1  0
  1 29  1  0
  1 30  1  0
  1 31  1  0
  6 32  1  0
  7 33  1  0
  8 34  1  0
  9 35  1  0
 10 36  1  0
 13 37  1  0
 13 38  1  0
 14 39  1  0
 14 40  1  0
 17 41  1  0
 18 42  1  0
 20 43  1  0
 20 44  1  0
 21 45  1  0
 21 46  1  0
 26 47  1  0
 26 48  1  0
 27 49  1  0
 28 50  1  0
M  CHG  1  24  -1
M  END
>  <UniqueID>  (29) 
29

>  <SMILES>  (29) 
Cc1oc(-c2ccccc2)nc1CCOc1ccc(CCC(=O)[O-])c(CO)c1

>  <Energy>  (29) 
71.91991004722621

>  <Genealogy>  (29) 
Cc1oc(-c2ccccc2)nc1CCOc1ccc(CCC(=O)[O-])c(CO)c1 (protonated)
Cc1oc(-c2ccccc2)nc1CCOc1ccc(CCC(=O)[O-])c(CO)c1 (3D coordinates assigned)
Cc1oc(-c2ccccc2)nc1CCOc1ccc(CCC(=O)[O-])c(CO)c1 (optimized conformer: 71.91991004722621 kcal/mol)

>  <smiles>  (29) 
Cc1oc(-c2ccccc2)nc1CCOc1ccc(CCC(=O)O)c(CO)c1

>  <score_type>  (29) 
oracle

>  <origin>  (29) 
adg

>  <m_score__min__energy>  (29) 
-12.130000000000001

>  <m_primary>  (29) 
energy

$$$$
29:0
     RDKit          3D

 43 44  0  0  0  0  0  0  0  0999 V2000
   63.1280   33.0380   47.3450 C   0  0  0  0  0  0  0  0  0  0  0  0
   61.7890   33.0210   47.9430 N   0  0  0  0  0  0  0  0  0  0  0  0
   61.3110   34.1760   48.7080 C   0  0  0  0  0  0  0  0  0  0  0  0
   60.9280   31.8700   47.8010 C   0  0  0  0  0  0  0  0  0  0  0  0
   59.8510   31.8120   48.4560 O   0  0  0  0  0  0  0  0  0  0  0  0
   61.2490   30.7460   46.8510 C   0  0  0  0  0  0  0  0  0  0  0  0
   60.0520   29.9570   46.5680 N   0  0  0  0  0  0  0  0  0  0  0  0
   60.0940   28.7790   45.7480 C   0  0  0  0  0  0  0  0  0  0  0  0
   61.0800   28.6060   44.9800 O   0  0  0  0  0  0  0  0  0  0  0  0
   59.0150   27.7520   45.8180 C   0  0  0  0  0  0  0  0  0  0  0  0
   59.3280   26.3910   45.6220 C   0  0  0  0  0  0  0  0  0  0  0  0
   58.3260   25.4180   45.6220 C   0  0  0  0  0  0  0  0  0  0  0  0
   56.9950   25.7850   45.8060 C   0  0  0  0  0  0  0  0  0  0  0  0
   56.6590   27.1250   45.9860 C   0  0  0  0  0  0  0  0  0  0  0  0
   57.6550   28.1130   45.9950 C   0  0  0  0  0  0  0  0  0  0  0  0
   57.2760   29.4810   46.1630 N   0  0  0  0  0  0  0  0  0  0  0  0
   57.1090   30.5260   44.7950 S   0  0  0  0  0  0  0  0  0  0  0  0
   55.6500   30.7310   44.4980 O   0  0  0  0  0  0  0  0  0  0  0  0
   57.7660   29.9140   43.5910 O   0  0  0  0  0  0  0  0  0  0  0  0
   57.8510   32.0750   45.1870 C   0  0  0  0  0  0  0  0  0  0  0  0
   58.4610   32.8380   44.1800 C   0  0  0  0  0  0  0  0  0  0  0  0
   58.9800   34.1020   44.4740 C   0  0  0  0  0  0  0  0  0  0  0  0
   58.8910   34.6110   45.7720 C   0  0  0  0  0  0  0  0  0  0  0  0
   58.2800   33.8560   46.7780 C   0  0  0  0  0  0  0  0  0  0  0  0
   57.7580   32.5920   46.4870 C   0  0  0  0  0  0  0  0  0  0  0  0
   63.8856   33.0476   48.1425 H   0  0  0  0  0  0  0  0  0  0  0  0
   63.2628   32.1415   46.7220 H   0  0  0  0  0  0  0  0  0  0  0  0
   63.2399   33.9376   46.7220 H   0  0  0  0  0  0  0  0  0  0  0  0
   61.3984   33.9648   49.7840 H   0  0  0  0  0  0  0  0  0  0  0  0
   61.9178   35.0585   48.4571 H   0  0  0  0  0  0  0  0  0  0  0  0
   60.2580   34.3716   48.4571 H   0  0  0  0  0  0  0  0  0  0  0  0
   61.6362   31.1661   45.9110 H   0  0  0  0  0  0  0  0  0  0  0  0
   62.0037   30.0935   47.3143 H   0  0  0  0  0  0  0  0  0  0  0  0
   59.1420   30.2920   46.9530 H   0  0  0  0  0  0  0  0  0  0  0  0
   60.3751   26.0918   45.4671 H   0  0  0  0  0  0  0  0  0  0  0  0
   58.5885   24.3597   45.4764 H   0  0  0  0  0  0  0  0  0  0  0  0
   56.2084   25.0161   45.8092 H   0  0  0  0  0  0  0  0  0  0  0  0
   55.6054   27.4104   46.1220 H   0  0  0  0  0  0  0  0  0  0  0  0
   58.5310   32.4405   43.1567 H   0  0  0  0  0  0  0  0  0  0  0  0
   59.4591   34.6968   43.6824 H   0  0  0  0  0  0  0  0  0  0  0  0
   59.3014   35.6052   46.0025 H   0  0  0  0  0  0  0  0  0  0  0  0
   58.2099   34.2571   47.7999 H   0  0  0  0  0  0  0  0  0  0  0  0
   57.2736   32.0022   47.2792 H   0  0  0  0  0  0  0  0  0  0  0  0
  1  2  1  0
  2  3  1  0
  2  4  1  0
  4  5  2  0
  4  6  1  0
  6  7  1  0
  7  8  1  0
  8  9  2  0
  8 10  1  0
 10 11  2  0
 11 12  1  0
 12 13  2  0
 13 14  1  0
 14 15  2  0
 15 16  1  0
 16 17  1  0
 17 18  2  0
 17 19  2  0
 17 20  1  0
 20 21  2  0
 21 22  1  0
 22 23  2  0
 23 24  1  0
 24 25  2  0
 15 10  1  0
 25 20  1  0
  1 26  1  0
  1 27  1  0
  1 28  1  0
  3 29  1  0
  3 30  1  0
  3 31  1  0
  6 32  1  0
  6 33  1  0
  7 34  1  0
 11 35  1  0
 12 36  1  0
 13 37  1  0
 14 38  1  0
 21 39  1  0
 22 40  1  0
 23 41  1  0
 24 42  1  0
 25 43  1  0
M  CHG  1  16  -1
M  END
>  <UniqueID>  (30) 
30

>  <SMILES>  (30) 
CN(C)C(=O)CNC(=O)c1ccccc1[N-]S(=O)(=O)c1ccccc1

>  <Energy>  (30) 
48.249587726948704

>  <Genealogy>  (30) 
CN(C)C(=O)CNC(=O)c1ccccc1[N-]S(=O)(=O)c1ccccc1 (protonated)
CN(C)C(=O)CNC(=O)c1ccccc1[N-]S(=O)(=O)c1ccccc1 (3D coordinates assigned)
CN(C)C(=O)CNC(=O)c1ccccc1[N-]S(=O)(=O)c1ccccc1 (optimized conformer: 48.249587726948704 kcal/mol)

>  <smiles>  (30) 
CN(C)C(=O)CNC(=O)c1ccccc1NS(=O)(=O)c1ccccc1

>  <score_type>  (30) 
oracle

>  <origin>  (30) 
adg

>  <m_score__min__energy>  (30) 
-9.2599999999999998

>  <m_primary>  (30) 
energy

$$$$
30:0
     RDKit          3D

 41 44  0  0  0  0  0  0  0  0999 V2000
   60.5380   28.4490   46.1030 O   0  0  0  0  0  0  0  0  0  0  0  0
   59.3490   28.6750   46.4580 C   0  0  0  0  0  0  0  0  0  0  0  0
   59.0000   30.0390   46.9970 C   0  0  0  0  0  0  0  0  0  0  0  0
   60.1890   30.8940   47.1530 N   0  0  0  0  0  0  0  0  0  0  0  0
   59.9180   32.2640   46.7710 C   0  0  0  0  0  0  0  0  0  0  0  0
   58.6220   32.6190   46.3480 C   0  0  0  0  0  0  0  0  0  0  0  0
   58.3350   33.9270   45.9520 C   0  0  0  0  0  0  0  0  0  0  0  0
   59.3360   34.8980   45.9700 C   0  0  0  0  0  0  0  0  0  0  0  0
   60.6260   34.5660   46.3870 C   0  0  0  0  0  0  0  0  0  0  0  0
   60.9270   33.2570   46.7860 C   0  0  0  0  0  0  0  0  0  0  0  0
   62.5760   32.9110   47.3020 Cl  0  0  0  0  0  0  0  0  0  0  0  0
   58.3740   27.6220   46.3810 N   0  0  0  0  0  0  0  0  0  0  0  0
   57.0080   27.8350   45.8940 C   0  0  0  0  0  0  0  0  0  0  0  0
   56.4090   26.4870   46.0030 C   0  0  0  0  0  0  0  0  0  0  0  0
   55.1430   26.1360   45.6670 N   0  0  0  0  0  0  0  0  0  0  0  0
   54.7310   24.8440   45.8170 C   0  0  0  0  0  0  0  0  0  0  0  0
   53.4240   24.4860   45.4690 C   0  0  0  0  0  0  0  0  0  0  0  0
   52.9950   23.1640   45.6180 C   0  0  0  0  0  0  0  0  0  0  0  0
   53.8680   22.1920   46.1130 C   0  0  0  0  0  0  0  0  0  0  0  0
   55.1780   22.5310   46.4660 C   0  0  0  0  0  0  0  0  0  0  0  0
   55.6260   23.8560   46.3240 C   0  0  0  0  0  0  0  0  0  0  0  0
   56.9420   24.2400   46.6690 C   0  0  0  0  0  0  0  0  0  0  0  0
   57.7750   23.4060   47.1200 O   0  0  0  0  0  0  0  0  0  0  0  0
   57.3060   25.5760   46.4980 C   0  0  0  0  0  0  0  0  0  0  0  0
   58.6090   26.2290   46.7780 C   0  0  0  0  0  0  0  0  0  0  0  0
   58.3010   30.5269   46.3017 H   0  0  0  0  0  0  0  0  0  0  0  0
   58.5466   29.9049   47.9902 H   0  0  0  0  0  0  0  0  0  0  0  0
   60.4750   30.8770   48.1600 H   0  0  0  0  0  0  0  0  0  0  0  0
   60.9930   30.4990   46.6150 H   0  0  0  0  0  0  0  0  0  0  0  0
   57.8279   31.8580   46.3294 H   0  0  0  0  0  0  0  0  0  0  0  0
   57.3185   34.1917   45.6256 H   0  0  0  0  0  0  0  0  0  0  0  0
   59.1085   35.9271   45.6551 H   0  0  0  0  0  0  0  0  0  0  0  0
   61.4109   35.3365   46.4025 H   0  0  0  0  0  0  0  0  0  0  0  0
   56.4710   28.5596   46.5238 H   0  0  0  0  0  0  0  0  0  0  0  0
   56.9676   28.2491   44.8757 H   0  0  0  0  0  0  0  0  0  0  0  0
   52.7325   25.2465   45.0773 H   0  0  0  0  0  0  0  0  0  0  0  0
   51.9660   22.8879   45.3444 H   0  0  0  0  0  0  0  0  0  0  0  0
   53.5228   21.1537   46.2258 H   0  0  0  0  0  0  0  0  0  0  0  0
   55.8589   21.7598   46.8553 H   0  0  0  0  0  0  0  0  0  0  0  0
   58.8640   26.1602   47.8458 H   0  0  0  0  0  0  0  0  0  0  0  0
   59.4503   25.7629   46.2442 H   0  0  0  0  0  0  0  0  0  0  0  0
  1  2  2  0
  2  3  1  0
  3  4  1  0
  4  5  1  0
  5  6  2  0
  6  7  1  0
  7  8  2  0
  8  9  1  0
  9 10  2  0
 10 11  1  0
  2 12  1  0
 12 13  1  0
 13 14  1  0
 14 15  1  0
 15 16  1  0
 16 17  2  0
 17 18  1  0
 18 19  2  0
 19 20  1  0
 20 21  2  0
 21 22  1  0
 22 23  2  0
 22 24  1  0
 24 25  1  0
 10  5  1  0
 25 12  1  0
 24 14  2  0
 21 16  1  0
  3 26  1  0
  3 27  1  0
  4 28  1  0
  4 29  1  0
  6 30  1  0
  7 31  1  0
  8 32  1  0
  9 33  1  0
 13 34  1  0
 13 35  1  0
 17 36  1  0
 18 37  1  0
 19 38  1  0
 20 39  1  0
 25 40  1  0
 25 41  1  0
M  CHG  2   4   1  15  -1
M  END
>  <UniqueID>  (31) 
31

>  <SMILES>  (31) 
O=C(C[NH2+]c1ccccc1Cl)N1Cc2[n-]c3ccccc3c(=O)c2C1

>  <Energy>  (31) 
61.333631034509914

>  <Genealogy>  (31) 
O=C(C[NH2+]c1ccccc1Cl)N1Cc2[n-]c3ccccc3c(=O)c2C1 (protonated)
O=C(C[NH2+]c1ccccc1Cl)N1Cc2[n-]c3ccccc3c(=O)c2C1 (3D coordinates assigned)
O=C(C[NH2+]c1ccccc1Cl)N1Cc2[n-]c3ccccc3c(=O)c2C1 (nonaromatic ring conformer: 61.333631034509914 kcal/mol)

>  <smiles>  (31) 
O=C(CNc1ccccc1Cl)N1Cc2[nH]c3ccccc3c(=O)c2C1

>  <score_type>  (31) 
oracle

>  <origin>  (31) 
adg

>  <m_score__min__energy>  (31) 
-7.9299999999999997

>  <m_primary>  (31) 
energy

$$$$
31:0
     RDKit          3D

 37 38  0  0  0  0  0  0  0  0999 V2000
   60.2150   28.3710   48.1550 C   0  0  0  0  0  0  0  0  0  0  0  0
   60.3680   28.4320   46.6390 C   0  0  0  0  0  0  0  0  0  0  0  0
   59.0230   28.4240   45.9650 C   0  0  0  0  0  0  0  0  0  0  0  0
   58.1790   27.3310   45.7150 C   0  0  0  0  0  0  0  0  0  0  0  0
   58.4400   25.9180   46.0700 C   0  0  0  0  0  0  0  0  0  0  0  0
   59.6260   25.4890   46.0950 O   0  0  0  0  0  0  0  0  0  0  0  0
   57.3550   25.0270   46.3760 N   0  0  0  0  0  0  0  0  0  0  0  0
   57.5640   23.6160   46.6980 C   0  0  0  0  0  0  0  0  0  0  0  0
   56.2370   22.8510   46.7040 C   0  0  0  0  0  0  0  0  0  0  0  0
   55.1230   23.7480   47.0240 N   0  0  0  0  0  0  0  0  0  0  0  0
   54.6430   24.6750   45.6340 S   0  0  0  0  0  0  0  0  0  0  0  0
   54.7680   26.3560   46.0100 N   0  0  0  0  0  0  0  0  0  0  0  0
   55.5350   24.3630   44.4650 O   0  0  0  0  0  0  0  0  0  0  0  0
   53.2180   24.3540   45.2760 O   0  0  0  0  0  0  0  0  0  0  0  0
   57.0670   27.7410   45.0550 N   0  0  0  0  0  0  0  0  0  0  0  0
   57.2050   29.0650   44.8740 C   0  0  0  0  0  0  0  0  0  0  0  0
   56.3210   29.9250   44.2210 C   0  0  0  0  0  0  0  0  0  0  0  0
   55.1600   29.4650   43.6910 F   0  0  0  0  0  0  0  0  0  0  0  0
   56.6690   31.2830   44.1250 C   0  0  0  0  0  0  0  0  0  0  0  0
   57.8850   31.7490   44.6750 C   0  0  0  0  0  0  0  0  0  0  0  0
   58.3100   33.4460   44.5430 Cl  0  0  0  0  0  0  0  0  0  0  0  0
   58.7600   30.8590   45.3260 C   0  0  0  0  0  0  0  0  0  0  0  0
   58.3830   29.5160   45.4090 C   0  0  0  0  0  0  0  0  0  0  0  0
   61.1359   28.7382   48.6315 H   0  0  0  0  0  0  0  0  0  0  0  0
   59.3667   28.9997   48.4635 H   0  0  0  0  0  0  0  0  0  0  0  0
   60.0320   27.3311   48.4635 H   0  0  0  0  0  0  0  0  0  0  0  0
   60.9019   29.3546   46.3674 H   0  0  0  0  0  0  0  0  0  0  0  0
   60.9341   27.5495   46.3062 H   0  0  0  0  0  0  0  0  0  0  0  0
   56.3740   25.3820   46.3690 H   0  0  0  0  0  0  0  0  0  0  0  0
   58.2323   23.1708   45.9462 H   0  0  0  0  0  0  0  0  0  0  0  0
   58.0116   23.5483   47.7005 H   0  0  0  0  0  0  0  0  0  0  0  0
   56.0706   22.4089   45.7106 H   0  0  0  0  0  0  0  0  0  0  0  0
   56.2870   22.0625   47.4693 H   0  0  0  0  0  0  0  0  0  0  0  0
   53.8310   26.6640   46.3550 H   0  0  0  0  0  0  0  0  0  0  0  0
   56.2760   27.1520   44.7120 H   0  0  0  0  0  0  0  0  0  0  0  0
   55.9918   31.9870   43.6193 H   0  0  0  0  0  0  0  0  0  0  0  0
   59.7101   31.2095   45.7556 H   0  0  0  0  0  0  0  0  0  0  0  0
  1  2  1  0
  2  3  1  0
  3  4  2  0
  4  5  1  0
  5  6  2  0
  5  7  1  0
  7  8  1  0
  8  9  1  0
  9 10  1  0
 10 11  1  0
 11 12  1  0
 11 13  2  0
 11 14  2  0
  4 15  1  0
 15 16  1  0
 16 17  2  0
 17 18  1  0
 17 19  1  0
 19 20  2  0
 20 21  1  0
 20 22  1  0
 22 23  2  0
 23  3  1  0
 23 16  1  0
  1 24  1  0
  1 25  1  0
  1 26  1  0
  2 27  1  0
  2 28  1  0
  7 29  1  0
  8 30  1  0
  8 31  1  0
  9 32  1  0
  9 33  1  0
 12 34  1  0
 15 35  1  0
 19 36  1  0
 22 37  1  0
M  CHG  2  10  -1  12  -1
M  END
>  <UniqueID>  (32) 
32

>  <SMILES>  (32) 
CCc1c(C(=O)NCC[N-]S([NH-])(=O)=O)[nH]c2c(F)cc(Cl)cc12

>  <Energy>  (32) 
61.58583228990728

>  <Genealogy>  (32) 
CCc1c(C(=O)NCC[N-]S([NH-])(=O)=O)[nH]c2c(F)cc(Cl)cc12 (protonated)
CCc1c(C(=O)NCC[N-]S([NH-])(=O)=O)[nH]c2c(F)cc(Cl)cc12 (3D coordinates assigned)
CCc1c(C(=O)NCC[N-]S([NH-])(=O)=O)[nH]c2c(F)cc(Cl)cc12 (optimized conformer: 61.58583228990728 kcal/mol)

>  <smiles>  (32) 
CCc1c(C(=O)NCCNS(N)(=O)=O)[nH]c2c(F)cc(Cl)cc12

>  <score_type>  (32) 
oracle

>  <origin>  (32) 
adg

>  <m_score__min__energy>  (32) 
-11.720000000000001

>  <m_primary>  (32) 
energy

$$$$
32:0
     RDKit          3D

 63 66  0  0  0  0  0  0  0  0999 V2000
   60.8270   26.7090   49.5830 C   0  0  0  0  0  0  0  0  0  0  0  0
   60.1140   28.0050   49.3520 C   0  0  0  0  0  0  0  0  0  0  0  0
   60.1290   28.9820   50.3010 N   0  0  0  0  0  0  0  0  0  0  0  0
   59.3970   30.0640   49.9480 C   0  0  0  0  0  0  0  0  0  0  0  0
   59.2420   31.2600   50.8070 C   0  0  0  0  0  0  0  0  0  0  0  0
   57.9740   31.7770   51.1150 C   0  0  0  0  0  0  0  0  0  0  0  0
   57.8530   32.9050   51.9280 C   0  0  0  0  0  0  0  0  0  0  0  0
   59.0050   33.5140   52.4280 C   0  0  0  0  0  0  0  0  0  0  0  0
   58.8840   34.9320   53.4500 Cl  0  0  0  0  0  0  0  0  0  0  0  0
   60.2280   33.0070   52.1240 N   0  0  0  0  0  0  0  0  0  0  0  0
   60.3720   31.9080   51.3350 C   0  0  0  0  0  0  0  0  0  0  0  0
   58.6980   29.8430   48.4310 S   0  0  0  0  0  0  0  0  0  0  0  0
   59.3730   28.3180   48.2040 C   0  0  0  0  0  0  0  0  0  0  0  0
   59.1430   27.4880   47.0070 C   0  0  0  0  0  0  0  0  0  0  0  0
   60.1340   26.9740   46.4220 O   0  0  0  0  0  0  0  0  0  0  0  0
   57.8150   27.2260   46.5290 N   0  0  0  0  0  0  0  0  0  0  0  0
   57.5600   26.6620   45.2000 C   0  0  2  0  0  0  0  0  0  0  0  0
   58.0720   25.2150   45.1520 C   0  0  0  0  0  0  0  0  0  0  0  0
   58.2350   27.5330   44.1190 C   0  0  0  0  0  0  0  0  0  0  0  0
   57.9080   28.9960   44.2830 C   0  0  0  0  0  0  0  0  0  0  0  0
   58.8400   29.8660   44.8690 C   0  0  0  0  0  0  0  0  0  0  0  0
   58.5280   31.2170   45.0470 C   0  0  0  0  0  0  0  0  0  0  0  0
   57.2820   31.7180   44.6560 C   0  0  0  0  0  0  0  0  0  0  0  0
   57.0210   33.0810   44.8710 O   0  0  0  0  0  0  0  0  0  0  0  0
   57.5480   33.8700   45.9380 C   0  0  0  0  0  0  0  0  0  0  0  0
   58.8470   34.5820   45.5310 C   0  0  0  0  0  0  0  0  0  0  0  0
   59.8450   34.5650   46.6240 N   0  0  0  0  0  0  0  0  0  0  0  0
   59.1970   34.2000   47.8990 C   0  0  0  0  0  0  0  0  0  0  0  0
   60.2220   34.2430   49.0520 C   0  0  0  0  0  0  0  0  0  0  0  0
   61.5630   34.2730   48.5940 O   0  0  0  0  0  0  0  0  0  0  0  0
   61.7530   33.2810   47.6080 C   0  0  0  0  0  0  0  0  0  0  0  0
   60.9610   33.6340   46.3340 C   0  0  0  0  0  0  0  0  0  0  0  0
   56.3460   30.8460   44.0660 C   0  0  0  0  0  0  0  0  0  0  0  0
   56.6580   29.4950   43.8840 C   0  0  0  0  0  0  0  0  0  0  0  0
   60.9245   26.5318   50.6642 H   0  0  0  0  0  0  0  0  0  0  0  0
   60.2533   25.8886   49.1272 H   0  0  0  0  0  0  0  0  0  0  0  0
   61.8271   26.7544   49.1272 H   0  0  0  0  0  0  0  0  0  0  0  0
   57.0721   31.2913   50.7141 H   0  0  0  0  0  0  0  0  0  0  0  0
   56.8598   33.3099   52.1722 H   0  0  0  0  0  0  0  0  0  0  0  0
   61.3780   31.5246   51.1091 H   0  0  0  0  0  0  0  0  0  0  0  0
   57.0150   27.3720   47.1850 H   0  0  0  0  0  0  0  0  0  0  0  0
   56.4784   26.6543   44.9997 H   0  0  0  0  0  0  0  0  0  0  0  0
   58.2051   24.8389   46.1771 H   0  0  0  0  0  0  0  0  0  0  0  0
   57.3421   24.5852   44.6222 H   0  0  0  0  0  0  0  0  0  0  0  0
   59.0355   25.1844   44.6222 H   0  0  0  0  0  0  0  0  0  0  0  0
   59.3251   27.4033   44.1888 H   0  0  0  0  0  0  0  0  0  0  0  0
   57.8563   27.2093   43.1383 H   0  0  0  0  0  0  0  0  0  0  0  0
   59.8202   29.4834   45.1896 H   0  0  0  0  0  0  0  0  0  0  0  0
   59.2694   31.8924   45.4988 H   0  0  0  0  0  0  0  0  0  0  0  0
   56.8020   34.6259   46.2244 H   0  0  0  0  0  0  0  0  0  0  0  0
   57.7741   33.1998   46.7805 H   0  0  0  0  0  0  0  0  0  0  0  0
   59.2717   34.0745   44.6523 H   0  0  0  0  0  0  0  0  0  0  0  0
   58.6065   35.6307   45.3019 H   0  0  0  0  0  0  0  0  0  0  0  0
   58.3841   34.9105   48.1094 H   0  0  0  0  0  0  0  0  0  0  0  0
   58.7937   33.1799   47.8164 H   0  0  0  0  0  0  0  0  0  0  0  0
   60.0360   35.1446   49.6541 H   0  0  0  0  0  0  0  0  0  0  0  0
   60.0944   33.3241   49.6430 H   0  0  0  0  0  0  0  0  0  0  0  0
   62.8232   33.2134   47.3628 H   0  0  0  0  0  0  0  0  0  0  0  0
   61.3937   32.3168   47.9968 H   0  0  0  0  0  0  0  0  0  0  0  0
   61.6414   34.1071   45.6107 H   0  0  0  0  0  0  0  0  0  0  0  0
   60.5361   32.7053   45.9255 H   0  0  0  0  0  0  0  0  0  0  0  0
   55.3655   31.2294   43.7471 H   0  0  0  0  0  0  0  0  0  0  0  0
   55.9202   28.8199   43.4259 H   0  0  0  0  0  0  0  0  0  0  0  0
  1  2  1  0
  2  3  1  0
  3  4  2  0
  4  5  1  0
  5  6  2  0
  6  7  1  0
  7  8  2  0
  8  9  1  0
  8 10  1  0
 10 11  2  0
  4 12  1  0
 12 13  1  0
 13 14  1  0
 14 15  2  0
 14 16  1  0
 16 17  1  0
 17 18  1  0
 17 19  1  0
 19 20  1  0
 20 21  2  0
 21 22  1  0
 22 23  2  0
 23 24  1  0
 24 25  1  0
 25 26  1  0
 26 27  1  0
 27 28  1  0
 28 29  1  0
 29 30  1  0
 30 31  1  0
 31 32  1  0
 23 33  1  0
 33 34  2  0
 13  2  2  0
 34 20  1  0
 11  5  1  0
 32 27  1  0
  1 35  1  0
  1 36  1  0
  1 37  1  0
  6 38  1  0
  7 39  1  0
 11 40  1  0
 16 41  1  0
 17 42  1  6
 18 43  1  0
 18 44  1  0
 18 45  1  0
 19 46  1  0
 19 47  1  0
 21 48  1  0
 22 49  1  0
 25 50  1  0
 25 51  1  0
 26 52  1  0
 26 53  1  0
 28 54  1  0
 28 55  1  0
 29 56  1  0
 29 57  1  0
 31 58  1  0
 31 59  1  0
 32 60  1  0
 32 61  1  0
 33 62  1  0
 34 63  1  0
M  END
>  <UniqueID>  (33) 
33

>  <SMILES>  (33) 
Cc1nc(-c2ccc(Cl)nc2)sc1C(=O)N[C@H](C)Cc1ccc(OCCN2CCOCC2)cc1

>  <Energy>  (33) 
102.44141818291959

>  <Genealogy>  (33) 
Cc1nc(-c2ccc(Cl)nc2)sc1C(=O)N[C@H](C)Cc1ccc(OCCN2CCOCC2)cc1 (chirality)
Cc1nc(-c2ccc(Cl)nc2)sc1C(=O)N[C@H](C)Cc1ccc(OCCN2CCOCC2)cc1 (3D coordinates assigned)
Cc1nc(-c2ccc(Cl)nc2)sc1C(=O)N[C@H](C)Cc1ccc(OCCN2CCOCC2)cc1 (nonaromatic ring conformer: 102.44141818291959 kcal/mol)

>  <smiles>  (33) 
Cc1nc(-c2ccc(Cl)nc2)sc1C(=O)NC(C)Cc1ccc(OCCN2CCOCC2)cc1

>  <score_type>  (33) 
oracle

>  <origin>  (33) 
adg

>  <m_score__min__energy>  (33) 
-9.7100000000000009

>  <m_primary>  (33) 
energy

$$$$
33:0
     RDKit          3D

 33 34  0  0  0  0  0  0  0  0999 V2000
   55.1290   29.3370   44.8770 N   0  0  0  0  0  0  0  0  0  0  0  0
   56.6960   29.4050   44.1540 S   0  0  0  0  0  0  0  0  0  0  0  0
   57.4220   28.1120   44.4060 O   0  0  0  0  0  0  0  0  0  0  0  0
   56.5580   29.5990   42.6690 O   0  0  0  0  0  0  0  0  0  0  0  0
   57.6020   30.7430   44.8490 C   0  0  0  0  0  0  0  0  0  0  0  0
   58.3150   30.5670   46.0430 C   0  0  0  0  0  0  0  0  0  0  0  0
   59.0270   31.6340   46.6010 C   0  0  0  0  0  0  0  0  0  0  0  0
   59.0140   32.8950   45.9800 C   0  0  0  0  0  0  0  0  0  0  0  0
   59.7610   33.9990   46.5100 N   0  0  0  0  0  0  0  0  0  0  0  0
   61.0750   33.9290   47.0770 C   0  0  0  0  0  0  0  0  0  0  0  0
   62.0680   34.0460   46.3130 O   0  0  0  0  0  0  0  0  0  0  0  0
   61.2570   33.7580   48.4940 N   0  0  0  0  0  0  0  0  0  0  0  0
   62.5400   33.6470   49.1340 C   0  0  0  0  0  0  0  0  0  0  0  0
   62.8040   34.2670   50.3650 C   0  0  0  0  0  0  0  0  0  0  0  0
   64.0520   34.1220   50.9780 C   0  0  0  0  0  0  0  0  0  0  0  0
   65.0550   33.3410   50.3770 C   0  0  0  0  0  0  0  0  0  0  0  0
   66.3780   33.1850   51.0200 C   0  0  0  0  0  0  0  0  0  0  0  0
   67.3160   32.5950   50.4220 O   0  0  0  0  0  0  0  0  0  0  0  0
   66.6050   33.6900   52.2960 O   0  0  0  0  0  0  0  0  0  0  0  0
   64.7790   32.7020   49.1560 C   0  0  0  0  0  0  0  0  0  0  0  0
   63.5300   32.8480   48.5460 C   0  0  0  0  0  0  0  0  0  0  0  0
   58.3190   33.0600   44.7770 C   0  0  0  0  0  0  0  0  0  0  0  0
   57.6060   31.9950   44.2190 C   0  0  0  0  0  0  0  0  0  0  0  0
   55.1720   28.6150   45.6330 H   0  0  0  0  0  0  0  0  0  0  0  0
   58.3146   29.5870   46.5426 H   0  0  0  0  0  0  0  0  0  0  0  0
   59.5990   31.4858   47.5288 H   0  0  0  0  0  0  0  0  0  0  0  0
   60.4120   33.6380   49.0950 H   0  0  0  0  0  0  0  0  0  0  0  0
   62.0236   34.8712   50.8508 H   0  0  0  0  0  0  0  0  0  0  0  0
   64.2508   34.6224   51.9372 H   0  0  0  0  0  0  0  0  0  0  0  0
   65.5515   32.0825   48.6770 H   0  0  0  0  0  0  0  0  0  0  0  0
   63.3224   32.3318   47.5971 H   0  0  0  0  0  0  0  0  0  0  0  0
   58.3338   34.0344   44.2668 H   0  0  0  0  0  0  0  0  0  0  0  0
   57.0466   32.1399   43.2830 H   0  0  0  0  0  0  0  0  0  0  0  0
  1  2  1  0
  2  3  2  0
  2  4  2  0
  2  5  1  0
  5  6  2  0
  6  7  1  0
  7  8  2  0
  8  9  1  0
  9 10  1  0
 10 11  2  0
 10 12  1  0
 12 13  1  0
 13 14  2  0
 14 15  1  0
 15 16  2  0
 16 17  1  0
 17 18  2  0
 17 19  1  0
 16 20  1  0
 20 21  2  0
  8 22  1  0
 22 23  2  0
 23  5  1  0
 21 13  1  0
  1 24  1  0
  6 25  1  0
  7 26  1  0
 12 27  1  0
 14 28  1  0
 15 29  1  0
 20 30  1  0
 21 31  1  0
 22 32  1  0
 23 33  1  0
M  CHG  3   1  -1   9  -1  19  -1
M  END
>  <UniqueID>  (34) 
34

>  <SMILES>  (34) 
[NH-]S(=O)(=O)c1ccc([N-]C(=O)Nc2ccc(C(=O)[O-])cc2)cc1

>  <Energy>  (34) 
42.5934957044091

>  <Genealogy>  (34) 
[NH-]S(=O)(=O)c1ccc([N-]C(=O)Nc2ccc(C(=O)[O-])cc2)cc1 (protonated)
[NH-]S(=O)(=O)c1ccc([N-]C(=O)Nc2ccc(C(=O)[O-])cc2)cc1 (3D coordinates assigned)
[NH-]S(=O)(=O)c1ccc([N-]C(=O)Nc2ccc(C(=O)[O-])cc2)cc1 (optimized conformer: 42.5934957044091 kcal/mol)

>  <smiles>  (34) 
NS(=O)(=O)c1ccc(NC(=O)Nc2ccc(C(=O)O)cc2)cc1

>  <score_type>  (34) 
oracle

>  <origin>  (34) 
adg

>  <m_score__min__energy>  (34) 
-11.32

>  <m_primary>  (34) 
energy

$$$$
34:0
     RDKit          3D

 47 50  0  0  0  0  0  0  0  0999 V2000
   56.3290   29.7020   42.7430 C   0  0  0  0  0  0  0  0  0  0  0  0
   55.1790   29.7270   43.7450 C   0  0  0  0  0  0  0  0  0  0  0  0
   55.5030   28.9630   44.9070 O   0  0  0  0  0  0  0  0  0  0  0  0
   56.7860   28.5060   45.2570 C   0  0  0  0  0  0  0  0  0  0  0  0
   57.1170   27.1350   45.2930 C   0  0  0  0  0  0  0  0  0  0  0  0
   58.4030   26.7290   45.6600 C   0  0  0  0  0  0  0  0  0  0  0  0
   59.3660   27.6780   46.0010 C   0  0  0  0  0  0  0  0  0  0  0  0
   59.0500   29.0370   45.9640 C   0  0  0  0  0  0  0  0  0  0  0  0
   57.7710   29.4600   45.5670 C   0  0  0  0  0  0  0  0  0  0  0  0
   57.4230   30.8500   45.5650 N   0  0  0  0  0  0  0  0  0  0  0  0
   57.9480   31.8650   46.4310 C   0  0  0  0  0  0  0  0  0  0  0  0
   58.6310   31.5100   47.4290 O   0  0  0  0  0  0  0  0  0  0  0  0
   57.5520   33.3130   46.2900 C   0  0  0  0  0  0  0  0  0  0  0  0
   58.7830   34.2590   45.3210 S   0  0  0  0  0  0  0  0  0  0  0  0
   60.1150   33.9970   46.4850 C   0  0  0  0  0  0  0  0  0  0  0  0
   61.4170   34.0260   46.0510 N   0  0  0  0  0  0  0  0  0  0  0  0
   62.4540   33.8150   46.9130 C   0  0  0  0  0  0  0  0  0  0  0  0
   63.6450   33.8520   46.5050 O   0  0  0  0  0  0  0  0  0  0  0  0
   62.1510   33.5580   48.2410 C   0  0  0  0  0  0  0  0  0  0  0  0
   62.9010   33.3210   49.3730 C   0  0  0  0  0  0  0  0  0  0  0  0
   62.0490   33.1440   50.4150 N   0  0  0  0  0  0  0  0  0  0  0  0
   60.8010   33.2570   49.9660 N   0  0  0  0  0  0  0  0  0  0  0  0
   59.6340   33.1090   50.7950 C   0  0  0  0  0  0  0  0  0  0  0  0
   58.6810   32.1220   50.4930 C   0  0  0  0  0  0  0  0  0  0  0  0
   57.5370   31.9760   51.2860 C   0  0  0  0  0  0  0  0  0  0  0  0
   57.3300   32.8210   52.3790 C   0  0  0  0  0  0  0  0  0  0  0  0
   58.2630   33.8170   52.6780 C   0  0  0  0  0  0  0  0  0  0  0  0
   59.4070   33.9660   51.8900 C   0  0  0  0  0  0  0  0  0  0  0  0
   60.8580   33.5180   48.6470 C   0  0  0  0  0  0  0  0  0  0  0  0
   59.8280   33.7520   47.8000 N   0  0  0  0  0  0  0  0  0  0  0  0
   57.2864   29.6812   43.2842 H   0  0  0  0  0  0  0  0  0  0  0  0
   56.2454   28.8055   42.1112 H   0  0  0  0  0  0  0  0  0  0  0  0
   56.2844   30.6013   42.1112 H   0  0  0  0  0  0  0  0  0  0  0  0
   54.9811   30.7677   44.0411 H   0  0  0  0  0  0  0  0  0  0  0  0
   54.2886   29.2882   43.2712 H   0  0  0  0  0  0  0  0  0  0  0  0
   56.3592   26.3819   45.0309 H   0  0  0  0  0  0  0  0  0  0  0  0
   58.6560   25.6587   45.6799 H   0  0  0  0  0  0  0  0  0  0  0  0
   60.3746   27.3557   46.2991 H   0  0  0  0  0  0  0  0  0  0  0  0
   59.8080   29.7819   46.2478 H   0  0  0  0  0  0  0  0  0  0  0  0
   56.5784   33.3686   45.7810 H   0  0  0  0  0  0  0  0  0  0  0  0
   57.4958   33.7531   47.2966 H   0  0  0  0  0  0  0  0  0  0  0  0
   63.9992   33.2821   49.4233 H   0  0  0  0  0  0  0  0  0  0  0  0
   58.8348   31.4600   49.6281 H   0  0  0  0  0  0  0  0  0  0  0  0
   56.7999   31.1949   51.0483 H   0  0  0  0  0  0  0  0  0  0  0  0
   56.4327   32.7022   53.0041 H   0  0  0  0  0  0  0  0  0  0  0  0
   58.0965   34.4853   53.5357 H   0  0  0  0  0  0  0  0  0  0  0  0
   60.1345   34.7567   52.1258 H   0  0  0  0  0  0  0  0  0  0  0  0
  1  2  1  0
  2  3  1  0
  3  4  1  0
  4  5  2  0
  5  6  1  0
  6  7  2  0
  7  8  1  0
  8  9  2  0
  9 10  1  0
 10 11  1  0
 11 12  2  0
 11 13  1  0
 13 14  1  0
 14 15  1  0
 15 16  2  0
 16 17  1  0
 17 18  2  0
 17 19  1  0
 19 20  1  0
 20 21  2  0
 21 22  1  0
 22 23  1  0
 23 24  2  0
 24 25  1  0
 25 26  2  0
 26 27  1  0
 27 28  2  0
 22 29  1  0
 29 30  1  0
  9  4  1  0
 30 15  1  0
 29 19  2  0
 28 23  1  0
  1 31  1  0
  1 32  1  0
  1 33  1  0
  2 34  1  0
  2 35  1  0
  5 36  1  0
  6 37  1  0
  7 38  1  0
  8 39  1  0
 13 40  1  0
 13 41  1  0
 20 42  1  0
 24 43  1  0
 25 44  1  0
 26 45  1  0
 27 46  1  0
 28 47  1  0
M  CHG  2  10  -1  30  -1
M  END
>  <UniqueID>  (35) 
35

>  <SMILES>  (35) 
CCOc1ccccc1[N-]C(=O)CSc1nc(=O)c2cnn(-c3ccccc3)c2[n-]1

>  <Energy>  (35) 
95.83901896512057

>  <Genealogy>  (35) 
CCOc1ccccc1[N-]C(=O)CSc1nc(=O)c2cnn(-c3ccccc3)c2[n-]1 (protonated)
CCOc1ccccc1[N-]C(=O)CSc1nc(=O)c2cnn(-c3ccccc3)c2[n-]1 (3D coordinates assigned)
CCOc1ccccc1[N-]C(=O)CSc1nc(=O)c2cnn(-c3ccccc3)c2[n-]1 (optimized conformer: 95.83901896512057 kcal/mol)

>  <smiles>  (35) 
CCOc1ccccc1NC(=O)CSc1nc(=O)c2cnn(-c3ccccc3)c2[nH]1

>  <score_type>  (35) 
oracle

>  <origin>  (35) 
adg

>  <m_score__min__energy>  (35) 
-12.300000000000001

>  <m_primary>  (35) 
energy

$$$$
35:0
     RDKit          3D

 35 36  0  0  0  0  0  0  0  0999 V2000
   56.4070   23.5880   48.1260 C   0  0  0  0  0  0  0  0  0  0  0  0
   56.0200   24.3530   46.9360 N   0  0  0  0  0  0  0  0  0  0  0  0
   57.0390   25.3570   46.5970 C   0  0  0  0  0  0  0  0  0  0  0  0
   56.4020   26.6360   46.1150 C   0  0  0  0  0  0  0  0  0  0  0  0
   55.1460   26.6870   46.0020 O   0  0  0  0  0  0  0  0  0  0  0  0
   57.1890   27.8060   45.8130 N   0  0  0  0  0  0  0  0  0  0  0  0
   58.5580   27.9620   46.3350 C   0  0  0  0  0  0  0  0  0  0  0  0
   58.8400   29.4250   46.7070 C   0  0  0  0  0  0  0  0  0  0  0  0
   58.3260   30.3620   45.6970 N   0  0  0  0  0  0  0  0  0  0  0  0
   58.5270   31.7750   45.8870 C   0  0  0  0  0  0  0  0  0  0  0  0
   57.5370   32.6470   45.5510 N   0  0  0  0  0  0  0  0  0  0  0  0
   57.6950   33.9860   45.7070 C   0  0  0  0  0  0  0  0  0  0  0  0
   58.8900   34.4900   46.2140 C   0  0  0  0  0  0  0  0  0  0  0  0
   59.9050   33.5910   46.5380 C   0  0  0  0  0  0  0  0  0  0  0  0
   59.7130   32.2550   46.3650 N   0  0  0  0  0  0  0  0  0  0  0  0
   57.6860   29.8410   44.4840 C   0  0  0  0  0  0  0  0  0  0  0  0
   56.6410   28.7940   44.8700 C   0  0  0  0  0  0  0  0  0  0  0  0
   56.1239   24.1476   49.0297 H   0  0  0  0  0  0  0  0  0  0  0  0
   55.8922   22.6159   48.1204 H   0  0  0  0  0  0  0  0  0  0  0  0
   57.4951   23.4268   48.1204 H   0  0  0  0  0  0  0  0  0  0  0  0
   55.1360   24.8640   47.1700 H   0  0  0  0  0  0  0  0  0  0  0  0
   57.6434   25.5713   47.4907 H   0  0  0  0  0  0  0  0  0  0  0  0
   57.6701   24.9556   45.7904 H   0  0  0  0  0  0  0  0  0  0  0  0
   58.6757   27.3338   47.2303 H   0  0  0  0  0  0  0  0  0  0  0  0
   59.2688   27.6551   45.5536 H   0  0  0  0  0  0  0  0  0  0  0  0
   58.3592   29.6446   47.6717 H   0  0  0  0  0  0  0  0  0  0  0  0
   59.9307   29.5552   46.7656 H   0  0  0  0  0  0  0  0  0  0  0  0
   56.8800   34.6722   45.4333 H   0  0  0  0  0  0  0  0  0  0  0  0
   59.0298   35.5719   46.3555 H   0  0  0  0  0  0  0  0  0  0  0  0
   60.8619   33.9619   46.9338 H   0  0  0  0  0  0  0  0  0  0  0  0
   60.5040   31.6080   46.5760 H   0  0  0  0  0  0  0  0  0  0  0  0
   57.1973   30.6654   43.9441 H   0  0  0  0  0  0  0  0  0  0  0  0
   58.4465   29.3795   43.8370 H   0  0  0  0  0  0  0  0  0  0  0  0
   55.7849   29.3001   45.3401 H   0  0  0  0  0  0  0  0  0  0  0  0
   56.3303   28.2642   43.9574 H   0  0  0  0  0  0  0  0  0  0  0  0
  1  2  1  0
  2  3  1  0
  3  4  1  0
  4  5  2  0
  4  6  1  0
  6  7  1  0
  7  8  1  0
  8  9  1  0
  9 10  1  0
 10 11  2  0
 11 12  1  0
 12 13  2  0
 13 14  1  0
 14 15  2  0
  9 16  1  0
 16 17  1  0
 17  6  1  0
 15 10  1  0
  1 18  1  0
  1 19  1  0
  1 20  1  0
  2 21  1  0
  3 22  1  0
  3 23  1  0
  7 24  1  0
  7 25  1  0
  8 26  1  0
  8 27  1  0
 12 28  1  0
 13 29  1  0
 14 30  1  0
 15 31  1  0
 16 32  1  0
 16 33  1  0
 17 34  1  0
 17 35  1  0
M  CHG  1  15   1
M  END
>  <UniqueID>  (36) 
36

>  <SMILES>  (36) 
CNCC(=O)N1CCN(c2nccc[nH+]2)CC1

>  <Energy>  (36) 
37.15238373074431

>  <Genealogy>  (36) 
CNCC(=O)N1CCN(c2nccc[nH+]2)CC1 (protonated)
CNCC(=O)N1CCN(c2nccc[nH+]2)CC1 (3D coordinates assigned)
CNCC(=O)N1CCN(c2nccc[nH+]2)CC1 (nonaromatic ring conformer: 37.15238373074431 kcal/mol)

>  <smiles>  (36) 
CNCC(=O)N1CCN(c2ncccn2)CC1

>  <score_type>  (36) 
oracle

>  <origin>  (36) 
adg

>  <m_score__min__energy>  (36) 
-4.3700000000000001

>  <m_primary>  (36) 
energy

$$$$
36:0
     RDKit          3D

 66 69  0  0  0  0  0  0  0  0999 V2000
   54.4110   23.7200   46.1310 C   0  0  0  0  0  0  0  0  0  0  0  0
   55.4360   24.2170   46.9860 O   0  0  0  0  0  0  0  0  0  0  0  0
   56.4860   25.0490   46.5640 C   0  0  0  0  0  0  0  0  0  0  0  0
   57.8330   24.6440   46.6270 C   0  0  0  0  0  0  0  0  0  0  0  0
   58.8460   25.4980   46.1860 C   0  0  0  0  0  0  0  0  0  0  0  0
   58.5290   26.7600   45.6820 C   0  0  0  0  0  0  0  0  0  0  0  0
   57.1950   27.1890   45.6250 C   0  0  0  0  0  0  0  0  0  0  0  0
   56.8850   28.5660   45.0850 C   0  0  0  0  0  0  0  0  0  0  0  0
   58.1180   29.3120   44.8230 N   0  0  0  0  0  0  0  0  0  0  0  0
   58.2100   30.7510   44.8530 C   0  0  0  0  0  0  0  0  0  0  0  0
   58.9530   31.3940   45.8610 C   0  0  0  0  0  0  0  0  0  0  0  0
   58.9970   32.7940   45.9460 C   0  0  0  0  0  0  0  0  0  0  0  0
   59.7630   33.4410   46.9800 N   0  0  0  0  0  0  0  0  0  0  0  0
   59.1170   33.9540   48.1890 C   0  0  0  0  0  0  0  0  0  0  0  0
   59.8520   33.4320   49.4210 C   0  0  0  0  0  0  0  0  0  0  0  0
   61.2980   33.6570   49.2870 N   0  0  0  0  0  0  0  0  0  0  0  0
   62.0850   33.9160   50.4660 C   0  0  0  0  0  0  0  0  0  0  0  0
   63.3230   34.1420   50.3650 O   0  0  0  0  0  0  0  0  0  0  0  0
   61.4760   33.9130   51.7280 O   0  0  0  0  0  0  0  0  0  0  0  0
   61.1810   32.7220   52.4540 C   0  0  0  0  0  0  0  0  0  0  0  0
   59.7330   32.3190   52.2600 C   0  0  0  0  0  0  0  0  0  0  0  0
   59.4620   31.0490   51.7210 C   0  0  0  0  0  0  0  0  0  0  0  0
   58.1470   30.6260   51.5190 C   0  0  0  0  0  0  0  0  0  0  0  0
   57.0850   31.4670   51.8420 C   0  0  0  0  0  0  0  0  0  0  0  0
   57.3320   32.7400   52.3570 C   0  0  0  0  0  0  0  0  0  0  0  0
   58.6500   33.1880   52.5590 C   0  0  0  0  0  0  0  0  0  0  0  0
   58.8700   34.5740   53.1080 C   0  0  0  0  0  0  0  0  0  0  0  0
   61.9600   33.2220   48.0450 C   0  0  0  0  0  0  0  0  0  0  0  0
   61.1930   33.7110   46.8140 C   0  0  0  0  0  0  0  0  0  0  0  0
   58.2760   33.5590   45.0210 C   0  0  0  0  0  0  0  0  0  0  0  0
   57.5360   32.9370   44.0160 C   0  0  0  0  0  0  0  0  0  0  0  0
   57.5050   31.5370   43.9090 C   0  0  0  0  0  0  0  0  0  0  0  0
   56.7910   30.9330   42.8160 N   0  0  0  0  0  0  0  0  0  0  0  0
   55.8540   30.1400   43.0400 O   0  0  0  0  0  0  0  0  0  0  0  0
   56.9890   31.3780   41.5290 O   0  0  0  0  0  0  0  0  0  0  0  0
   56.1720   26.3210   46.0610 C   0  0  0  0  0  0  0  0  0  0  0  0
   54.8390   26.7130   46.0000 O   0  0  0  0  0  0  0  0  0  0  0  0
   53.5870   23.3204   46.7403 H   0  0  0  0  0  0  0  0  0  0  0  0
   54.0354   24.5360   45.4962 H   0  0  0  0  0  0  0  0  0  0  0  0
   54.8191   22.9197   45.4962 H   0  0  0  0  0  0  0  0  0  0  0  0
   58.0884   23.6509   47.0252 H   0  0  0  0  0  0  0  0  0  0  0  0
   59.8964   25.1751   46.2360 H   0  0  0  0  0  0  0  0  0  0  0  0
   59.3314   27.4233   45.3268 H   0  0  0  0  0  0  0  0  0  0  0  0
   56.3177   28.4665   44.1478 H   0  0  0  0  0  0  0  0  0  0  0  0
   56.2942   29.1136   45.8341 H   0  0  0  0  0  0  0  0  0  0  0  0
   58.9760   28.7540   44.6170 H   0  0  0  0  0  0  0  0  0  0  0  0
   59.5079   30.7895   46.5936 H   0  0  0  0  0  0  0  0  0  0  0  0
   59.1478   35.0535   48.1825 H   0  0  0  0  0  0  0  0  0  0  0  0
   58.0706   33.6160   48.2165 H   0  0  0  0  0  0  0  0  0  0  0  0
   59.4841   33.9595   50.3134 H   0  0  0  0  0  0  0  0  0  0  0  0
   59.6658   32.3522   49.5173 H   0  0  0  0  0  0  0  0  0  0  0  0
   61.8322   31.9108   52.0964 H   0  0  0  0  0  0  0  0  0  0  0  0
   61.3550   32.9087   53.5240 H   0  0  0  0  0  0  0  0  0  0  0  0
   60.2951   30.3815   51.4556 H   0  0  0  0  0  0  0  0  0  0  0  0
   57.9493   29.6267   51.1040 H   0  0  0  0  0  0  0  0  0  0  0  0
   56.0498   31.1271   51.6909 H   0  0  0  0  0  0  0  0  0  0  0  0
   56.4880   33.3995   52.6074 H   0  0  0  0  0  0  0  0  0  0  0  0
   58.8643   34.5381   54.2074 H   0  0  0  0  0  0  0  0  0  0  0  0
   59.8402   34.9570   52.7587 H   0  0  0  0  0  0  0  0  0  0  0  0
   58.0661   35.2386   52.7587 H   0  0  0  0  0  0  0  0  0  0  0  0
   62.9806   33.6315   48.0190 H   0  0  0  0  0  0  0  0  0  0  0  0
   61.9853   32.1224   48.0281 H   0  0  0  0  0  0  0  0  0  0  0  0
   61.3485   34.7932   46.6931 H   0  0  0  0  0  0  0  0  0  0  0  0
   61.5613   33.1814   45.9230 H   0  0  0  0  0  0  0  0  0  0  0  0
   58.2934   34.6568   45.0875 H   0  0  0  0  0  0  0  0  0  0  0  0
   56.9701   33.5498   43.2989 H   0  0  0  0  0  0  0  0  0  0  0  0
  1  2  1  0
  2  3  1  0
  3  4  2  0
  4  5  1  0
  5  6  2  0
  6  7  1  0
  7  8  1  0
  8  9  1  0
  9 10  1  0
 10 11  2  0
 11 12  1  0
 12 13  1  0
 13 14  1  0
 14 15  1  0
 15 16  1  0
 16 17  1  0
 17 18  2  0
 17 19  1  0
 19 20  1  0
 20 21  1  0
 21 22  2  0
 22 23  1  0
 23 24  2  0
 24 25  1  0
 25 26  2  0
 26 27  1  0
 16 28  1  0
 28 29  1  0
 12 30  2  0
 30 31  1  0
 31 32  2  0
 32 33  1  0
 33 34  2  0
 33 35  1  0
  7 36  2  0
 36 37  1  0
 36  3  1  0
 32 10  1  0
 29 13  1  0
 26 21  1  0
  1 38  1  0
  1 39  1  0
  1 40  1  0
  4 41  1  0
  5 42  1  0
  6 43  1  0
  8 44  1  0
  8 45  1  0
  9 46  1  0
 11 47  1  0
 14 48  1  0
 14 49  1  0
 15 50  1  0
 15 51  1  0
 20 52  1  0
 20 53  1  0
 22 54  1  0
 23 55  1  0
 24 56  1  0
 25 57  1  0
 27 58  1  0
 27 59  1  0
 27 60  1  0
 28 61  1  0
 28 62  1  0
 29 63  1  0
 29 64  1  0
 30 65  1  0
 31 66  1  0
M  CHG  3  33   1  35  -1  37  -1
M  END
>  <UniqueID>  (37) 
37

>  <SMILES>  (37) 
COc1cccc(CNc2cc(N3CCN(C(=O)OCc4ccccc4C)CC3)ccc2[N+](=O)[O-])c1[O-]

>  <Energy>  (37) 
77.81516057723731

>  <Genealogy>  (37) 
COc1cccc(CNc2cc(N3CCN(C(=O)OCc4ccccc4C)CC3)ccc2[N+](=O)[O-])c1[O-] (protonated)
COc1cccc(CNc2cc(N3CCN(C(=O)OCc4ccccc4C)CC3)ccc2[N+](=O)[O-])c1[O-] (3D coordinates assigned)
COc1cccc(CNc2cc(N3CCN(C(=O)OCc4ccccc4C)CC3)ccc2[N+](=O)[O-])c1[O-] (nonaromatic ring conformer: 77.81516057723731 kcal/mol)

>  <smiles>  (37) 
COc1cccc(CNc2cc(N3CCN(C(=O)OCc4ccccc4C)CC3)ccc2[N+](=O)[O-])c1O

>  <score_type>  (37) 
oracle

>  <origin>  (37) 
adg

>  <m_score__min__energy>  (37) 
-13.31

>  <m_primary>  (37) 
energy

$$$$
37:0
     RDKit          3D

 40 42  0  0  0  0  0  0  0  0999 V2000
   55.6960   26.0000   46.0600 O   0  0  0  0  0  0  0  0  0  0  0  0
   56.4540   26.9630   45.7640 C   0  0  0  0  0  0  0  0  0  0  0  0
   55.9080   28.1760   45.2300 N   0  0  0  0  0  0  0  0  0  0  0  0
   56.6220   29.3920   44.9590 C   0  0  0  0  0  0  0  0  0  0  0  0
   56.5050   30.0690   43.7310 C   0  0  0  0  0  0  0  0  0  0  0  0
   57.2010   31.2620   43.5180 C   0  0  0  0  0  0  0  0  0  0  0  0
   58.0090   31.8060   44.5240 C   0  0  0  0  0  0  0  0  0  0  0  0
   58.7040   33.0310   44.2600 N   0  0  0  0  0  0  0  0  0  0  0  0
   58.8850   34.3390   45.3820 S   0  0  0  0  0  0  0  0  0  0  0  0
   57.5910   34.5570   46.1170 O   0  0  0  0  0  0  0  0  0  0  0  0
   59.2620   35.5970   44.6510 O   0  0  0  0  0  0  0  0  0  0  0  0
   60.1630   33.9330   46.5230 C   0  0  0  0  0  0  0  0  0  0  0  0
   61.4980   33.8380   46.1020 C   0  0  0  0  0  0  0  0  0  0  0  0
   62.5030   33.5230   47.0220 C   0  0  0  0  0  0  0  0  0  0  0  0
   62.1810   33.3040   48.3660 C   0  0  0  0  0  0  0  0  0  0  0  0
   63.5560   32.8740   49.6190 Br  0  0  0  0  0  0  0  0  0  0  0  0
   60.8520   33.4020   48.7890 C   0  0  0  0  0  0  0  0  0  0  0  0
   59.8460   33.7170   47.8700 C   0  0  0  0  0  0  0  0  0  0  0  0
   58.1060   31.1420   45.7600 C   0  0  0  0  0  0  0  0  0  0  0  0
   57.4090   29.9480   45.9730 C   0  0  0  0  0  0  0  0  0  0  0  0
   57.9150   26.8510   45.9700 C   0  0  0  0  0  0  0  0  0  0  0  0
   58.7700   27.5220   45.0770 C   0  0  0  0  0  0  0  0  0  0  0  0
   60.1540   27.5070   45.2670 C   0  0  0  0  0  0  0  0  0  0  0  0
   60.7020   26.8220   46.3500 C   0  0  0  0  0  0  0  0  0  0  0  0
   59.8710   26.1340   47.2350 C   0  0  0  0  0  0  0  0  0  0  0  0
   58.4830   26.1220   47.0470 C   0  0  0  0  0  0  0  0  0  0  0  0
   57.7160   25.3530   47.9250 O   0  0  0  0  0  0  0  0  0  0  0  0
   55.8642   29.6583   42.9368 H   0  0  0  0  0  0  0  0  0  0  0  0
   57.1133   31.7786   42.5508 H   0  0  0  0  0  0  0  0  0  0  0  0
   61.7546   34.0116   45.0465 H   0  0  0  0  0  0  0  0  0  0  0  0
   63.5485   33.4472   46.6885 H   0  0  0  0  0  0  0  0  0  0  0  0
   60.5975   33.2312   49.8454 H   0  0  0  0  0  0  0  0  0  0  0  0
   58.8016   33.7954   48.2064 H   0  0  0  0  0  0  0  0  0  0  0  0
   58.7315   31.5626   46.5612 H   0  0  0  0  0  0  0  0  0  0  0  0
   57.4805   29.4416   46.9469 H   0  0  0  0  0  0  0  0  0  0  0  0
   58.3443   28.0643   44.2199 H   0  0  0  0  0  0  0  0  0  0  0  0
   60.8115   28.0361   44.5615 H   0  0  0  0  0  0  0  0  0  0  0  0
   61.7907   26.8237   46.5073 H   0  0  0  0  0  0  0  0  0  0  0  0
   60.3100   25.5961   48.0882 H   0  0  0  0  0  0  0  0  0  0  0  0
   56.7350   25.1560   47.7810 H   0  0  0  0  0  0  0  0  0  0  0  0
  1  2  2  0
  2  3  1  0
  3  4  1  0
  4  5  2  0
  5  6  1  0
  6  7  2  0
  7  8  1  0
  8  9  1  0
  9 10  2  0
  9 11  2  0
  9 12  1  0
 12 13  2  0
 13 14  1  0
 14 15  2  0
 15 16  1  0
 15 17  1  0
 17 18  2  0
  7 19  1  0
 19 20  2  0
  2 21  1  0
 21 22  2  0
 22 23  1  0
 23 24  2  0
 24 25  1  0
 25 26  2  0
 26 27  1  0
 20  4  1  0
 26 21  1  0
 18 12  1  0
  5 28  1  0
  6 29  1  0
 13 30  1  0
 14 31  1  0
 17 32  1  0
 18 33  1  0
 19 34  1  0
 20 35  1  0
 22 36  1  0
 23 37  1  0
 24 38  1  0
 25 39  1  0
 27 40  1  0
M  CHG  2   3  -1   8  -1
M  END
>  <UniqueID>  (38) 
38

>  <SMILES>  (38) 
O=C([N-]c1ccc([N-]S(=O)(=O)c2ccc(Br)cc2)cc1)c1ccccc1O

>  <Energy>  (38) 
56.20981760162111

>  <Genealogy>  (38) 
O=C([N-]c1ccc([N-]S(=O)(=O)c2ccc(Br)cc2)cc1)c1ccccc1O (protonated)
O=C([N-]c1ccc([N-]S(=O)(=O)c2ccc(Br)cc2)cc1)c1ccccc1O (3D coordinates assigned)
O=C([N-]c1ccc([N-]S(=O)(=O)c2ccc(Br)cc2)cc1)c1ccccc1O (optimized conformer: 56.20981760162111 kcal/mol)

>  <smiles>  (38) 
O=C(Nc1ccc(NS(=O)(=O)c2ccc(Br)cc2)cc1)c1ccccc1O

>  <score_type>  (38) 
oracle

>  <origin>  (38) 
adg

>  <m_score__min__energy>  (38) 
-12.029999999999999

>  <m_primary>  (38) 
energy

$$$$
38:0
     RDKit          3D

 23 24  0  0  0  0  0  0  0  0999 V2000
   63.1767   33.8251   50.0371 H   0  0  0  0  0  0  0  0  0  0  0  0
   62.8160   33.8330   48.9980 C   0  0  0  0  0  0  0  0  0  0  0  0
   63.7050   33.6080   47.9470 C   0  0  0  0  0  0  0  0  0  0  0  0
   64.7714   33.4301   48.1496 H   0  0  0  0  0  0  0  0  0  0  0  0
   63.2270   33.6110   46.6350 C   0  0  0  0  0  0  0  0  0  0  0  0
   63.9181   33.4270   45.7992 H   0  0  0  0  0  0  0  0  0  0  0  0
   61.9080   33.8410   46.3870 N   0  0  0  0  0  0  0  0  0  0  0  0
   61.5700   33.8290   45.3990 H   0  0  0  0  0  0  0  0  0  0  0  0
   61.0260   34.0990   47.3950 C   0  0  0  0  0  0  0  0  0  0  0  0
   59.6370   34.2770   47.0860 N   0  0  0  0  0  0  0  0  0  0  0  0
   58.9210   33.5610   46.2670 C   0  0  0  0  0  0  0  0  0  0  0  0
   57.7720   32.3270   46.8830 S   0  0  0  0  0  0  0  0  0  0  0  0
   57.3710   31.9470   45.1730 C   0  0  0  0  0  0  0  0  0  0  0  0
   56.5440   31.0490   44.8690 O   0  0  0  0  0  0  0  0  0  0  0  0
   58.0610   32.7080   44.1830 N   0  0  0  0  0  0  0  0  0  0  0  0
   58.0420   32.4040   42.7550 C   0  0  0  0  0  0  0  0  0  0  0  0
   57.9740   31.3154   42.6128 H   0  0  0  0  0  0  0  0  0  0  0  0
   57.1725   32.8898   42.2882 H   0  0  0  0  0  0  0  0  0  0  0  0
   58.9653   32.7778   42.2882 H   0  0  0  0  0  0  0  0  0  0  0  0
   58.9900   33.5860   44.8010 C   0  0  0  0  0  0  0  0  0  0  0  0
   59.8350   34.2450   44.1380 O   0  0  0  0  0  0  0  0  0  0  0  0
   61.4680   34.0680   48.7270 C   0  0  0  0  0  0  0  0  0  0  0  0
   60.7568   34.2278   49.5508 H   0  0  0  0  0  0  0  0  0  0  0  0
  1  2  1  0
  2  3  2  0
  3  4  1  0
  3  5  1  0
  5  6  1  0
  5  7  2  0
  7  8  1  0
  7  9  1  0
  9 10  1  0
 10 11  2  0
 11 12  1  0
 12 13  1  0
 13 14  2  0
 13 15  1  0
 15 16  1  0
 16 17  1  0
 16 18  1  0
 16 19  1  0
 15 20  1  0
 20 21  2  0
  9 22  2  0
 22 23  1  0
 22  2  1  0
 20 11  1  0
M  CHG  1   7   1
M  END
>  <UniqueID>  (39) 
39

>  <SMILES>  (39) 
CN1C(=O)S/C(=N/c2cccc[nH+]2)C1=O

>  <Energy>  (39) 
51.32038204397096

>  <Genealogy>  (39) 
CN1C(=O)SC(=Nc2cccc[nH+]2)C1=O (protonated)
CN1C(=O)S/C(=N/c2cccc[nH+]2)C1=O (cis-trans isomerization)
CN1C(=O)S/C(=N/c2cccc[nH+]2)C1=O (3D coordinates assigned)
CN1C(=O)S/C(=N/c2cccc[nH+]2)C1=O (nonaromatic ring conformer: 51.32038204397096 kcal/mol)

>  <smiles>  (39) 
CN1C(=O)SC(=Nc2ccccn2)C1=O

>  <score_type>  (39) 
oracle

>  <origin>  (39) 
adg

>  <m_score__min__energy>  (39) 
-4.2599999999999998

>  <m_primary>  (39) 
energy

$$$$
39:0
     RDKit          3D

 63 66  0  0  0  0  0  0  0  0999 V2000
   58.1610   32.3390   41.5380 C   0  0  0  0  0  0  0  0  0  0  0  0
   57.4200   32.5780   42.7280 O   0  0  0  0  0  0  0  0  0  0  0  0
   57.9790   32.6600   44.0150 C   0  0  0  0  0  0  0  0  0  0  0  0
   58.5760   33.8460   44.4830 C   0  0  0  0  0  0  0  0  0  0  0  0
   59.1300   33.9070   45.7630 C   0  0  0  0  0  0  0  0  0  0  0  0
   59.0890   32.7890   46.6110 C   0  0  0  0  0  0  0  0  0  0  0  0
   59.6940   32.8020   47.9180 N   0  0  0  0  0  0  0  0  0  0  0  0
   58.9670   32.7690   49.1580 C   0  0  0  0  0  0  0  0  0  0  0  0
   57.7840   32.3330   49.1960 O   0  0  0  0  0  0  0  0  0  0  0  0
   59.6420   33.1690   50.4400 C   0  0  0  0  0  0  0  0  0  0  0  0
   61.1010   33.0370   50.3330 N   0  0  0  0  0  0  0  0  0  0  0  0
   61.8910   34.1720   49.8270 C   0  0  0  0  0  0  0  0  0  0  0  0
   62.5140   33.8330   48.5080 C   0  0  0  0  0  0  0  0  0  0  0  0
   63.6770   33.1110   48.3210 C   0  0  0  0  0  0  0  0  0  0  0  0
   63.8410   33.0200   46.9560 C   0  0  0  0  0  0  0  0  0  0  0  0
   62.7700   33.6890   46.3960 C   0  0  0  0  0  0  0  0  0  0  0  0
   61.9990   34.1620   47.3470 O   0  0  0  0  0  0  0  0  0  0  0  0
   61.7310   31.7710   50.6310 C   0  0  0  0  0  0  0  0  0  0  0  0
   62.7130   31.7330   51.4200 O   0  0  0  0  0  0  0  0  0  0  0  0
   61.2510   30.5060   50.0370 C   0  0  0  0  0  0  0  0  0  0  0  0
   60.8900   29.4320   50.8690 C   0  0  0  0  0  0  0  0  0  0  0  0
   60.4400   28.2310   50.3150 C   0  0  0  0  0  0  0  0  0  0  0  0
   60.3600   28.0840   48.9270 C   0  0  0  0  0  0  0  0  0  0  0  0
   59.9270   26.9170   48.3910 F   0  0  0  0  0  0  0  0  0  0  0  0
   60.7400   29.1400   48.0930 C   0  0  0  0  0  0  0  0  0  0  0  0
   61.1900   30.3430   48.6430 C   0  0  0  0  0  0  0  0  0  0  0  0
   58.5140   31.6020   46.1390 C   0  0  0  0  0  0  0  0  0  0  0  0
   57.9490   31.5310   44.8570 C   0  0  0  0  0  0  0  0  0  0  0  0
   57.2610   29.9890   44.3290 S   0  0  0  0  0  0  0  0  0  0  0  0
   56.7240   30.1020   42.9290 O   0  0  0  0  0  0  0  0  0  0  0  0
   56.1160   29.6470   45.2420 O   0  0  0  0  0  0  0  0  0  0  0  0
   58.5040   28.7570   44.4250 N   0  0  0  0  0  0  0  0  0  0  0  0
   58.1240   27.5310   43.6910 C   0  0  0  0  0  0  0  0  0  0  0  0
   57.5300   26.4460   44.6110 C   0  0  0  0  0  0  0  0  0  0  0  0
   56.8570   27.0390   45.6990 O   0  0  0  0  0  0  0  0  0  0  0  0
   57.7850   27.6700   46.5650 C   0  0  0  0  0  0  0  0  0  0  0  0
   58.8810   28.4680   45.8190 C   0  0  0  0  0  0  0  0  0  0  0  0
   59.1780   32.0110   41.7990 H   0  0  0  0  0  0  0  0  0  0  0  0
   57.6634   31.5558   40.9473 H   0  0  0  0  0  0  0  0  0  0  0  0
   58.2148   33.2654   40.9473 H   0  0  0  0  0  0  0  0  0  0  0  0
   58.6062   34.7334   43.8337 H   0  0  0  0  0  0  0  0  0  0  0  0
   59.6022   34.8381   46.1097 H   0  0  0  0  0  0  0  0  0  0  0  0
   60.7340   32.7800   47.9710 H   0  0  0  0  0  0  0  0  0  0  0  0
   59.3916   34.2159   50.6664 H   0  0  0  0  0  0  0  0  0  0  0  0
   59.2890   32.5048   51.2427 H   0  0  0  0  0  0  0  0  0  0  0  0
   61.2323   35.0441   49.7024 H   0  0  0  0  0  0  0  0  0  0  0  0
   62.6894   34.3988   50.5489 H   0  0  0  0  0  0  0  0  0  0  0  0
   64.3344   32.6957   49.0990 H   0  0  0  0  0  0  0  0  0  0  0  0
   64.6593   32.5164   46.4205 H   0  0  0  0  0  0  0  0  0  0  0  0
   62.5906   33.8073   45.3172 H   0  0  0  0  0  0  0  0  0  0  0  0
   60.9622   29.5377   51.9615 H   0  0  0  0  0  0  0  0  0  0  0  0
   60.1479   27.3990   50.9725 H   0  0  0  0  0  0  0  0  0  0  0  0
   60.6845   29.0233   47.0006 H   0  0  0  0  0  0  0  0  0  0  0  0
   61.4979   31.1662   47.9815 H   0  0  0  0  0  0  0  0  0  0  0  0
   58.5054   30.7111   46.7842 H   0  0  0  0  0  0  0  0  0  0  0  0
   57.3755   27.7948   42.9293 H   0  0  0  0  0  0  0  0  0  0  0  0
   59.0377   27.1185   43.2382 H   0  0  0  0  0  0  0  0  0  0  0  0
   56.8203   25.8324   44.0366 H   0  0  0  0  0  0  0  0  0  0  0  0
   58.3470   25.8180   44.9960 H   0  0  0  0  0  0  0  0  0  0  0  0
   57.2352   28.3620   47.2199 H   0  0  0  0  0  0  0  0  0  0  0  0
   58.2922   26.8746   47.1308 H   0  0  0  0  0  0  0  0  0  0  0  0
   59.0478   29.4191   46.3458 H   0  0  0  0  0  0  0  0  0  0  0  0
   59.7944   27.8552   45.8028 H   0  0  0  0  0  0  0  0  0  0  0  0
  1  2  1  0
  2  3  1  0
  3  4  2  0
  4  5  1  0
  5  6  2  0
  6  7  1  0
  7  8  1  0
  8  9  2  0
  8 10  1  0
 10 11  1  0
 11 12  1  0
 12 13  1  0
 13 14  2  0
 14 15  1  0
 15 16  2  0
 16 17  1  0
 11 18  1  0
 18 19  2  0
 18 20  1  0
 20 21  2  0
 21 22  1  0
 22 23  2  0
 23 24  1  0
 23 25  1  0
 25 26  2  0
  6 27  1  0
 27 28  2  0
 28 29  1  0
 29 30  2  0
 29 31  2  0
 29 32  1  0
 32 33  1  0
 33 34  1  0
 34 35  1  0
 35 36  1  0
 36 37  1  0
 28  3  1  0
 37 32  1  0
 17 13  1  0
 26 20  1  0
  1 38  1  0
  1 39  1  0
  1 40  1  0
  4 41  1  0
  5 42  1  0
  7 43  1  0
 10 44  1  0
 10 45  1  0
 12 46  1  0
 12 47  1  0
 14 48  1  0
 15 49  1  0
 16 50  1  0
 21 51  1  0
 22 52  1  0
 25 53  1  0
 26 54  1  0
 27 55  1  0
 33 56  1  0
 33 57  1  0
 34 58  1  0
 34 59  1  0
 36 60  1  0
 36 61  1  0
 37 62  1  0
 37 63  1  0
M  END
>  <UniqueID>  (40) 
40

>  <SMILES>  (40) 
COc1ccc(NC(=O)CN(Cc2ccco2)C(=O)c2ccc(F)cc2)cc1S(=O)(=O)N1CCOCC1

>  <Energy>  (40) 
106.30300887572089

>  <Genealogy>  (40) 
COc1ccc(NC(=O)CN(Cc2ccco2)C(=O)c2ccc(F)cc2)cc1S(=O)(=O)N1CCOCC1 (3D coordinates assigned)
COc1ccc(NC(=O)CN(Cc2ccco2)C(=O)c2ccc(F)cc2)cc1S(=O)(=O)N1CCOCC1 (nonaromatic ring conformer: 106.30300887572089 kcal/mol)

>  <smiles>  (40) 
COc1ccc(NC(=O)CN(Cc2ccco2)C(=O)c2ccc(F)cc2)cc1S(=O)(=O)N1CCOCC1

>  <score_type>  (40) 
oracle

>  <origin>  (40) 
adg

>  <m_score__min__energy>  (40) 
-9.0199999999999996

>  <m_primary>  (40) 
energy

$$$$
40:0
     RDKit          3D

 69 73  0  0  1  0  0  0  0  0999 V2000
   64.9020   26.0390   52.0060 C   0  0  0  0  0  0  0  0  0  0  0  0
   63.6980   26.2530   52.4940 C   0  0  0  0  0  0  0  0  0  0  0  0
   62.4370   25.9170   51.7720 C   0  0  0  0  0  0  0  0  0  0  0  0
   61.4550   26.9340   52.0810 N   0  0  0  0  0  0  0  0  0  0  0  0
   61.4620   28.0970   51.5220 C   0  0  0  0  0  0  0  0  0  0  0  0
   60.8050   28.1820   50.3360 N   0  0  0  0  0  0  0  0  0  0  0  0
   60.7680   29.3530   49.6590 C   0  0  0  0  0  0  0  0  0  0  0  0
   60.0440   29.4020   48.4380 N   0  0  0  0  0  0  0  0  0  0  0  0
   59.7930   30.7400   47.9000 C   0  0  0  0  0  0  0  0  0  0  0  0
   60.0450   30.6340   46.4040 C   0  0  0  0  0  0  0  0  0  0  0  0
   58.9530   29.8020   45.8760 C   0  0  0  0  0  0  0  0  0  0  0  0
   58.7230   28.5990   46.5720 C   0  0  0  0  0  0  0  0  0  0  0  0
   57.7050   27.7680   46.1350 C   0  0  0  0  0  0  0  0  0  0  0  0
   57.4950   26.6940   46.7530 O   0  0  0  0  0  0  0  0  0  0  0  0
   56.9550   28.0960   45.0790 N   0  0  0  0  0  0  0  0  0  0  0  0
   57.1630   29.2490   44.3970 C   0  0  0  0  0  0  0  0  0  0  0  0
   56.3980   29.5930   43.3040 C   0  0  0  0  0  0  0  0  0  0  0  0
   56.6390   30.7660   42.6360 C   0  0  0  0  0  0  0  0  0  0  0  0
   57.6330   31.6370   43.0150 C   0  0  0  0  0  0  0  0  0  0  0  0
   58.4010   31.2980   44.1080 C   0  0  0  0  0  0  0  0  0  0  0  0
   58.1710   30.1220   44.7900 C   0  0  0  0  0  0  0  0  0  0  0  0
   59.5630   28.2270   47.7420 C   0  0  0  0  0  0  0  0  0  0  0  0
   61.3930   30.4140   50.1880 N   0  0  0  0  0  0  0  0  0  0  0  0
   62.0470   30.3650   51.3530 C   0  0  0  0  0  0  0  0  0  0  0  0
   62.6570   31.3350   51.9100 N   0  0  0  0  0  0  0  0  0  0  0  0
   63.4160   32.2740   51.1460 C   0  0  0  0  0  0  0  0  0  0  0  0
   64.3700   31.5750   50.1840 C   0  0  0  0  0  0  0  0  0  0  0  0
   64.5130   32.3780   48.9790 N   0  0  0  0  0  0  0  0  0  0  0  0
   63.5760   32.0810   47.9290 C   0  0  0  0  0  0  0  0  0  0  0  0
   62.7510   31.1800   48.1430 O   0  0  0  0  0  0  0  0  0  0  0  0
   63.6380   32.7920   46.7620 O   0  0  0  0  0  0  0  0  0  0  0  0
   62.9560   33.9690   46.4500 C   0  0  0  0  0  0  0  0  0  0  0  0
   61.5620   33.9810   46.9740 C   0  0  0  0  0  0  0  0  0  0  0  0
   60.5580   33.9120   45.9970 C   0  0  0  0  0  0  0  0  0  0  0  0
   59.2220   33.9160   46.3440 C   0  0  0  0  0  0  0  0  0  0  0  0
   58.9010   33.9880   47.6810 C   0  0  0  0  0  0  0  0  0  0  0  0
   59.8890   34.0560   48.6300 C   0  0  0  0  0  0  0  0  0  0  0  0
   61.2470   34.0540   48.3090 C   0  0  0  0  0  0  0  0  0  0  0  0
   62.0740   29.1740   52.0220 N   0  0  0  0  0  0  0  0  0  0  0  0
   65.7904   26.3119   52.5944 H   0  0  0  0  0  0  0  0  0  0  0  0
   65.0194   25.5873   51.0099 H   0  0  0  0  0  0  0  0  0  0  0  0
   63.6174   26.7063   53.4930 H   0  0  0  0  0  0  0  0  0  0  0  0
   62.6228   25.8957   50.6880 H   0  0  0  0  0  0  0  0  0  0  0  0
   62.0715   24.9279   52.0852 H   0  0  0  0  0  0  0  0  0  0  0  0
   58.7534   31.0428   48.0936 H   0  0  0  0  0  0  0  0  0  0  0  0
   60.4409   31.4951   48.3691 H   0  0  0  0  0  0  0  0  0  0  0  0
   60.0265   31.6312   45.9401 H   0  0  0  0  0  0  0  0  0  0  0  0
   61.0307   30.1964   46.1877 H   0  0  0  0  0  0  0  0  0  0  0  0
   56.2060   27.4460   44.7920 H   0  0  0  0  0  0  0  0  0  0  0  0
   55.5919   28.9250   42.9664 H   0  0  0  0  0  0  0  0  0  0  0  0
   56.0150   31.0191   41.7662 H   0  0  0  0  0  0  0  0  0  0  0  0
   57.8093   32.5728   42.4644 H   0  0  0  0  0  0  0  0  0  0  0  0
   59.2049   31.9718   44.4393 H   0  0  0  0  0  0  0  0  0  0  0  0
   58.9628   27.6200   48.4358 H   0  0  0  0  0  0  0  0  0  0  0  0
   60.4317   27.6579   47.3793 H   0  0  0  0  0  0  0  0  0  0  0  0
   61.3680   31.3040   49.6690 H   0  0  0  0  0  0  0  0  0  0  0  0
   62.7250   32.9051   50.5678 H   0  0  0  0  0  0  0  0  0  0  0  0
   64.0134   32.8808   51.8423 H   0  0  0  0  0  0  0  0  0  0  0  0
   65.3525   31.4545   50.6638 H   0  0  0  0  0  0  0  0  0  0  0  0
   63.9682   30.5853   49.9213 H   0  0  0  0  0  0  0  0  0  0  0  0
   65.2260   33.1120   48.8660 H   0  0  0  0  0  0  0  0  0  0  0  0
   63.5029   34.8186   46.8849 H   0  0  0  0  0  0  0  0  0  0  0  0
   62.8998   34.0401   45.3537 H   0  0  0  0  0  0  0  0  0  0  0  0
   60.8403   33.8537   44.9354 H   0  0  0  0  0  0  0  0  0  0  0  0
   58.4371   33.8632   45.5752 H   0  0  0  0  0  0  0  0  0  0  0  0
   57.8453   33.9910   47.9901 H   0  0  0  0  0  0  0  0  0  0  0  0
   59.5984   34.1146   49.6893 H   0  0  0  0  0  0  0  0  0  0  0  0
   62.0249   34.1081   49.0848 H   0  0  0  0  0  0  0  0  0  0  0  0
   62.5710   29.0750   52.9400 H   0  0  0  0  0  0  0  0  0  0  0  0
  1  2  2  0
  2  3  1  0
  3  4  1  0
  4  5  2  0
  5  6  1  0
  6  7  2  0
  7  8  1  0
  8  9  1  0
  9 10  1  0
 10 11  1  0
 11 12  2  0
 12 13  1  0
 13 14  2  0
 13 15  1  0
 15 16  1  0
 16 17  2  0
 17 18  1  0
 18 19  2  0
 19 20  1  0
 20 21  2  0
 12 22  1  0
  7 23  1  0
 23 24  1  0
 24 25  2  0
 25 26  1  0
 26 27  1  0
 27 28  1  0
 28 29  1  0
 29 30  2  0
 29 31  1  0
 31 32  1  0
 32 33  1  0
 33 34  2  0
 34 35  1  0
 35 36  2  0
 36 37  1  0
 37 38  2  0
 24 39  1  0
 39  5  1  0
 22  8  1  0
 38 33  1  0
 21 11  1  0
 21 16  1  0
  1 40  1  0
  1 41  1  0
  2 42  1  0
  3 43  1  0
  3 44  1  0
  9 45  1  0
  9 46  1  0
 10 47  1  0
 10 48  1  0
 15 49  1  0
 17 50  1  0
 18 51  1  0
 19 52  1  0
 20 53  1  0
 22 54  1  0
 22 55  1  0
 23 56  1  0
 26 57  1  0
 26 58  1  0
 27 59  1  0
 27 60  1  0
 28 61  1  0
 32 62  1  0
 32 63  1  0
 34 64  1  0
 35 65  1  0
 36 66  1  0
 37 67  1  0
 38 68  1  0
 39 69  1  0
M  END
>  <smiles>  (41) 
C=CCN=c1nc(N2CCc3c(c(=O)[nH]c4ccccc34)C2)[nH]c(=NCCNC(=O)OCc2ccccc2)[nH]1

>  <score_type>  (41) 
oracle

>  <origin>  (41) 
adg

>  <m_score__min__energy>  (41) 
-9.3000000000000007

>  <m_primary>  (41) 
energy

$$$$
41:0
     RDKit          3D

 33 34  0  0  0  0  0  0  0  0999 V2000
   54.9370   26.3410   45.9820 N   0  0  0  0  0  0  0  0  0  0  0  0
   56.6450   26.0960   46.0550 S   0  0  0  0  0  0  0  0  0  0  0  0
   57.0220   24.9170   45.2030 O   0  0  0  0  0  0  0  0  0  0  0  0
   57.0530   25.8150   47.4750 O   0  0  0  0  0  0  0  0  0  0  0  0
   57.4680   27.5390   45.4740 C   0  0  0  0  0  0  0  0  0  0  0  0
   58.7900   27.4620   45.0200 C   0  0  0  0  0  0  0  0  0  0  0  0
   59.4340   28.6040   44.5410 C   0  0  0  0  0  0  0  0  0  0  0  0
   58.7650   29.8310   44.5200 C   0  0  0  0  0  0  0  0  0  0  0  0
   57.4530   29.9300   44.9990 C   0  0  0  0  0  0  0  0  0  0  0  0
   56.7880   31.1990   44.9180 N   0  0  0  0  0  0  0  0  0  0  0  0
   57.3260   32.4730   45.2920 C   0  0  0  0  0  0  0  0  0  0  0  0
   57.3320   33.4370   44.4800 O   0  0  0  0  0  0  0  0  0  0  0  0
   57.8780   32.6580   46.6690 C   0  0  0  0  0  0  0  0  0  0  0  0
   59.6890   32.4040   46.6920 S   0  0  0  0  0  0  0  0  0  0  0  0
   59.6410   30.9550   47.7530 C   0  0  0  0  0  0  0  0  0  0  0  0
   60.4350   29.8410   47.4500 C   0  0  0  0  0  0  0  0  0  0  0  0
   60.3780   28.6990   48.2540 C   0  0  0  0  0  0  0  0  0  0  0  0
   59.5390   28.6720   49.3730 C   0  0  0  0  0  0  0  0  0  0  0  0
   58.7590   29.7900   49.6900 C   0  0  0  0  0  0  0  0  0  0  0  0
   57.9290   29.7630   50.8030 O   0  0  0  0  0  0  0  0  0  0  0  0
   58.8130   30.9320   48.8830 C   0  0  0  0  0  0  0  0  0  0  0  0
   56.8020   28.7740   45.4670 C   0  0  0  0  0  0  0  0  0  0  0  0
   54.7040   27.0810   46.6810 H   0  0  0  0  0  0  0  0  0  0  0  0
   59.3223   26.4996   45.0408 H   0  0  0  0  0  0  0  0  0  0  0  0
   60.4707   28.5381   44.1791 H   0  0  0  0  0  0  0  0  0  0  0  0
   59.2719   30.7237   44.1250 H   0  0  0  0  0  0  0  0  0  0  0  0
   57.6540   33.6790   47.0116 H   0  0  0  0  0  0  0  0  0  0  0  0
   57.4127   31.9160   47.3345 H   0  0  0  0  0  0  0  0  0  0  0  0
   61.1046   29.8652   46.5776 H   0  0  0  0  0  0  0  0  0  0  0  0
   60.9931   27.8212   48.0067 H   0  0  0  0  0  0  0  0  0  0  0  0
   59.4923   27.7721   50.0038 H   0  0  0  0  0  0  0  0  0  0  0  0
   58.2046   31.8128   49.1362 H   0  0  0  0  0  0  0  0  0  0  0  0
   55.7654   28.8386   45.8293 H   0  0  0  0  0  0  0  0  0  0  0  0
  1  2  1  0
  2  3  2  0
  2  4  2  0
  2  5  1  0
  5  6  2  0
  6  7  1  0
  7  8  2  0
  8  9  1  0
  9 10  1  0
 10 11  1  0
 11 12  2  0
 11 13  1  0
 13 14  1  0
 14 15  1  0
 15 16  2  0
 16 17  1  0
 17 18  2  0
 18 19  1  0
 19 20  1  0
 19 21  2  0
  9 22  2  0
 22  5  1  0
 21 15  1  0
  1 23  1  0
  6 24  1  0
  7 25  1  0
  8 26  1  0
 13 27  1  0
 13 28  1  0
 16 29  1  0
 17 30  1  0
 18 31  1  0
 21 32  1  0
 22 33  1  0
M  CHG  3   1  -1  10  -1  20  -1
M  END
>  <UniqueID>  (42) 
41

>  <SMILES>  (42) 
[NH-]S(=O)(=O)c1cccc([N-]C(=O)CSc2cccc([O-])c2)c1

>  <Energy>  (42) 
30.02124277569691

>  <Genealogy>  (42) 
[NH-]S(=O)(=O)c1cccc([N-]C(=O)CSc2cccc([O-])c2)c1 (protonated)
[NH-]S(=O)(=O)c1cccc([N-]C(=O)CSc2cccc([O-])c2)c1 (3D coordinates assigned)
[NH-]S(=O)(=O)c1cccc([N-]C(=O)CSc2cccc([O-])c2)c1 (optimized conformer: 30.02124277569691 kcal/mol)

>  <smiles>  (42) 
NS(=O)(=O)c1cccc(NC(=O)CSc2cccc(O)c2)c1

>  <score_type>  (42) 
oracle

>  <origin>  (42) 
adg

>  <m_score__min__energy>  (42) 
-14.66

>  <m_primary>  (42) 
energy

$$$$
42:0
     RDKit          3D

 46 48  0  0  0  0  0  0  0  0999 V2000
   58.9727   26.3368   46.2570 H   0  0  0  0  0  0  0  0  0  0  0  0
   58.1180   26.9530   45.9410 C   0  0  0  0  0  0  0  0  0  0  0  0
   58.2070   28.4560   45.1910 S   0  0  0  0  0  0  0  0  0  0  0  0
   56.5390   28.6160   45.0930 C   0  0  0  0  0  0  0  0  0  0  0  0
   55.9470   29.6490   44.5710 N   0  0  0  0  0  0  0  0  0  0  0  0
   56.5890   30.8390   44.0850 C   0  0  0  0  0  0  0  0  0  0  0  0
   57.1260   30.8640   42.9460 O   0  0  0  0  0  0  0  0  0  0  0  0
   56.6830   32.0010   44.9160 N   0  0  0  0  0  0  0  0  0  0  0  0
   57.8660   32.4810   45.5710 C   0  0  0  0  0  0  0  0  0  0  0  0
   58.1760   33.8480   45.6380 C   0  0  0  0  0  0  0  0  0  0  0  0
   57.4927   34.5865   45.1934 H   0  0  0  0  0  0  0  0  0  0  0  0
   59.3490   34.2760   46.2670 C   0  0  0  0  0  0  0  0  0  0  0  0
   59.5720   35.3516   46.3250 H   0  0  0  0  0  0  0  0  0  0  0  0
   60.2500   33.3480   46.8280 C   0  0  0  0  0  0  0  0  0  0  0  0
   61.4670   33.7920   47.4840 N   0  0  0  0  0  0  0  0  0  0  0  0
   62.7410   33.8180   46.7540 C   0  0  0  0  0  0  0  0  0  0  0  0
   63.5745   33.8350   47.4716 H   0  0  0  0  0  0  0  0  0  0  0  0
   62.8197   32.9213   46.1218 H   0  0  0  0  0  0  0  0  0  0  0  0
   62.7831   34.7172   46.1218 H   0  0  0  0  0  0  0  0  0  0  0  0
   61.4450   34.2240   48.8870 C   0  0  0  0  0  0  0  0  0  0  0  0
   61.4899   33.3421   49.5429 H   0  0  0  0  0  0  0  0  0  0  0  0
   62.3113   34.8725   49.0846 H   0  0  0  0  0  0  0  0  0  0  0  0
   60.5173   34.7811   49.0846 H   0  0  0  0  0  0  0  0  0  0  0  0
   59.9400   31.9750   46.7280 C   0  0  0  0  0  0  0  0  0  0  0  0
   60.6303   31.2297   47.1500 H   0  0  0  0  0  0  0  0  0  0  0  0
   58.7660   31.5510   46.0990 C   0  0  0  0  0  0  0  0  0  0  0  0
   58.5484   30.4757   46.0188 H   0  0  0  0  0  0  0  0  0  0  0  0
   55.8940   27.5490   45.6160 N   0  0  0  0  0  0  0  0  0  0  0  0
   56.7720   26.6250   46.0920 C   0  0  0  0  0  0  0  0  0  0  0  0
   56.3050   25.3310   46.6840 C   0  0  0  0  0  0  0  0  0  0  0  0
   55.8658   25.5243   47.6738 H   0  0  0  0  0  0  0  0  0  0  0  0
   57.1659   24.6523   46.7746 H   0  0  0  0  0  0  0  0  0  0  0  0
   55.0500   24.5480   45.6140 S   0  0  0  0  0  0  0  0  0  0  0  0
   56.2040   23.4090   44.8540 C   0  0  0  0  0  0  0  0  0  0  0  0
   57.5250   23.3950   45.1360 N   0  0  0  0  0  0  0  0  0  0  0  0
   57.9870   22.3910   44.3680 C   0  0  0  0  0  0  0  0  0  0  0  0
   59.4180   21.9670   44.3190 C   0  0  0  0  0  0  0  0  0  0  0  0
   59.8020   21.8532   45.3435 H   0  0  0  0  0  0  0  0  0  0  0  0
   59.4979   21.0066   43.7887 H   0  0  0  0  0  0  0  0  0  0  0  0
   60.0082   22.7289   43.7887 H   0  0  0  0  0  0  0  0  0  0  0  0
   56.9430   21.8480   43.6520 C   0  0  0  0  0  0  0  0  0  0  0  0
   57.0030   20.7140   42.6820 C   0  0  0  0  0  0  0  0  0  0  0  0
   57.0533   19.7629   43.2324 H   0  0  0  0  0  0  0  0  0  0  0  0
   56.1030   20.7245   42.0496 H   0  0  0  0  0  0  0  0  0  0  0  0
   57.8968   20.8194   42.0496 H   0  0  0  0  0  0  0  0  0  0  0  0
   55.8520   22.4970   43.9750 O   0  0  0  0  0  0  0  0  0  0  0  0
  1  2  1  0
  2  3  1  0
  3  4  1  0
  4  5  2  0
  5  6  1  0
  6  7  2  0
  6  8  1  0
  8  9  1  0
  9 10  2  0
 10 11  1  0
 10 12  1  0
 12 13  1  0
 12 14  2  0
 14 15  1  0
 15 16  1  0
 16 17  1  0
 16 18  1  0
 16 19  1  0
 15 20  1  0
 20 21  1  0
 20 22  1  0
 20 23  1  0
 14 24  1  0
 24 25  1  0
 24 26  2  0
 26 27  1  0
  4 28  1  0
 28 29  1  0
 29 30  1  0
 30 31  1  0
 30 32  1  0
 30 33  1  0
 33 34  1  0
 34 35  2  0
 35 36  1  0
 36 37  1  0
 37 38  1  0
 37 39  1  0
 37 40  1  0
 36 41  2  0
 41 42  1  0
 42 43  1  0
 42 44  1  0
 42 45  1  0
 41 46  1  0
 29  2  2  0
 46 34  1  0
 26  9  1  0
M  CHG  2   8  -1  28  -1
M  END
>  <UniqueID>  (43) 
42

>  <SMILES>  (43) 
Cc1nc(SCc2cs/c(=N/C(=O)[N-]c3ccc(N(C)C)cc3)[n-]2)oc1C

>  <Energy>  (43) 
105.82494828706976

>  <Genealogy>  (43) 
Cc1nc(SCc2csc(=NC(=O)[N-]c3ccc(N(C)C)cc3)[n-]2)oc1C (protonated)
Cc1nc(SCc2cs/c(=N/C(=O)[N-]c3ccc(N(C)C)cc3)[n-]2)oc1C (cis-trans isomerization)
Cc1nc(SCc2cs/c(=N/C(=O)[N-]c3ccc(N(C)C)cc3)[n-]2)oc1C (3D coordinates assigned)
Cc1nc(SCc2cs/c(=N/C(=O)[N-]c3ccc(N(C)C)cc3)[n-]2)oc1C (optimized conformer: 105.82494828706976 kcal/mol)

>  <smiles>  (43) 
Cc1nc(SCc2csc(=NC(=O)Nc3ccc(N(C)C)cc3)[nH]2)oc1C

>  <score_type>  (43) 
oracle

>  <origin>  (43) 
adg

>  <m_score__min__energy>  (43) 
-10.57

>  <m_primary>  (43) 
energy

$$$$
43:0
     RDKit          3D

 54 57  0  0  0  0  0  0  0  0999 V2000
   61.8840   31.2630   47.1080 C   0  0  0  0  0  0  0  0  0  0  0  0
   61.9110   32.4910   47.9010 N   0  0  0  0  0  0  0  0  0  0  0  0
   61.3700   33.6900   47.6010 C   0  0  0  0  0  0  0  0  0  0  0  0
   60.5990   34.0040   46.3480 C   0  0  0  0  0  0  0  0  0  0  0  0
   59.1780   34.3120   46.6350 N   0  0  0  0  0  0  0  0  0  0  0  0
   58.5620   33.3980   47.6220 C   0  0  0  0  0  0  0  0  0  0  0  0
   58.4210   31.9630   47.0860 C   0  0  0  0  0  0  0  0  0  0  0  0
   58.0740   31.9080   45.5810 C   0  0  0  0  0  0  0  0  0  0  0  0
   57.1660   30.8340   45.3230 O   0  0  0  0  0  0  0  0  0  0  0  0
   57.4790   29.4670   45.4150 C   0  0  0  0  0  0  0  0  0  0  0  0
   58.7880   29.0020   45.6620 C   0  0  0  0  0  0  0  0  0  0  0  0
   59.0410   27.6300   45.7640 C   0  0  0  0  0  0  0  0  0  0  0  0
   58.0010   26.7120   45.6170 C   0  0  0  0  0  0  0  0  0  0  0  0
   56.7040   27.1620   45.3600 C   0  0  0  0  0  0  0  0  0  0  0  0
   56.4440   28.5340   45.2560 C   0  0  0  0  0  0  0  0  0  0  0  0
   55.1480   28.9690   45.0010 O   0  0  0  0  0  0  0  0  0  0  0  0
   57.4380   33.2230   45.1220 C   0  0  0  0  0  0  0  0  0  0  0  0
   58.3710   34.4270   45.3900 C   0  0  0  0  0  0  0  0  0  0  0  0
   61.6170   34.5950   48.5690 N   0  0  0  0  0  0  0  0  0  0  0  0
   62.3060   33.9740   49.5150 N   0  0  0  0  0  0  0  0  0  0  0  0
   62.4720   32.7020   49.1080 C   0  0  0  0  0  0  0  0  0  0  0  0
   63.3440   31.4630   50.0710 S   0  0  0  0  0  0  0  0  0  0  0  0
   61.9220   31.0730   51.1520 C   0  0  0  0  0  0  0  0  0  0  0  0
   60.8400   30.3410   50.4000 C   0  0  0  0  0  0  0  0  0  0  0  0
   61.1360   29.1510   49.7130 C   0  0  0  0  0  0  0  0  0  0  0  0
   60.1380   28.4810   49.0020 C   0  0  0  0  0  0  0  0  0  0  0  0
   58.8330   28.9760   48.9880 C   0  0  0  0  0  0  0  0  0  0  0  0
   58.5260   30.1540   49.6720 C   0  0  0  0  0  0  0  0  0  0  0  0
   59.5250   30.8430   50.3710 C   0  0  0  0  0  0  0  0  0  0  0  0
   59.2090   31.9920   51.0170 F   0  0  0  0  0  0  0  0  0  0  0  0
   61.8649   30.3927   47.7804 H   0  0  0  0  0  0  0  0  0  0  0  0
   60.9855   31.2560   46.4735 H   0  0  0  0  0  0  0  0  0  0  0  0
   62.7813   31.2165   46.4735 H   0  0  0  0  0  0  0  0  0  0  0  0
   61.0589   34.8738   45.8562 H   0  0  0  0  0  0  0  0  0  0  0  0
   60.6306   33.1175   45.6976 H   0  0  0  0  0  0  0  0  0  0  0  0
   59.1905   33.3776   48.5245 H   0  0  0  0  0  0  0  0  0  0  0  0
   57.5519   33.7741   47.8419 H   0  0  0  0  0  0  0  0  0  0  0  0
   59.3728   31.4350   47.2451 H   0  0  0  0  0  0  0  0  0  0  0  0
   57.5908   31.4900   47.6310 H   0  0  0  0  0  0  0  0  0  0  0  0
   59.0079   31.7460   45.0228 H   0  0  0  0  0  0  0  0  0  0  0  0
   59.6127   29.7211   45.7748 H   0  0  0  0  0  0  0  0  0  0  0  0
   60.0630   27.2740   45.9607 H   0  0  0  0  0  0  0  0  0  0  0  0
   58.2023   25.6340   45.7035 H   0  0  0  0  0  0  0  0  0  0  0  0
   55.8853   26.4373   45.2391 H   0  0  0  0  0  0  0  0  0  0  0  0
   57.2323   33.1632   44.0431 H   0  0  0  0  0  0  0  0  0  0  0  0
   56.5080   33.3736   45.6898 H   0  0  0  0  0  0  0  0  0  0  0  0
   59.0619   34.5233   44.5395 H   0  0  0  0  0  0  0  0  0  0  0  0
   57.7220   35.3062   45.5157 H   0  0  0  0  0  0  0  0  0  0  0  0
   62.2681   30.4423   51.9841 H   0  0  0  0  0  0  0  0  0  0  0  0
   61.5029   32.0191   51.5253 H   0  0  0  0  0  0  0  0  0  0  0  0
   62.1583   28.7456   49.7355 H   0  0  0  0  0  0  0  0  0  0  0  0
   60.3811   27.5603   48.4513 H   0  0  0  0  0  0  0  0  0  0  0  0
   58.0465   28.4382   48.4382 H   0  0  0  0  0  0  0  0  0  0  0  0
   57.4967   30.5419   49.6618 H   0  0  0  0  0  0  0  0  0  0  0  0
  1  2  1  0
  2  3  1  0
  3  4  1  0
  4  5  1  0
  5  6  1  0
  6  7  1  0
  7  8  1  0
  8  9  1  0
  9 10  1  0
 10 11  2  0
 11 12  1  0
 12 13  2  0
 13 14  1  0
 14 15  2  0
 15 16  1  0
  8 17  1  0
 17 18  1  0
  3 19  2  0
 19 20  1  0
 20 21  2  0
 21 22  1  0
 22 23  1  0
 23 24  1  0
 24 25  2  0
 25 26  1  0
 26 27  2  0
 27 28  1  0
 28 29  2  0
 29 30  1  0
 21  2  1  0
 29 24  1  0
 18  5  1  0
 15 10  1  0
  1 31  1  0
  1 32  1  0
  1 33  1  0
  4 34  1  0
  4 35  1  0
  6 36  1  0
  6 37  1  0
  7 38  1  0
  7 39  1  0
  8 40  1  0
 11 41  1  0
 12 42  1  0
 13 43  1  0
 14 44  1  0
 17 45  1  0
 17 46  1  0
 18 47  1  0
 18 48  1  0
 23 49  1  0
 23 50  1  0
 25 51  1  0
 26 52  1  0
 27 53  1  0
 28 54  1  0
M  CHG  1  16  -1
M  END
>  <UniqueID>  (44) 
43

>  <SMILES>  (44) 
Cn1c(CN2CCC(Oc3ccccc3[O-])CC2)nnc1SCc1ccccc1F

>  <Energy>  (44) 
92.59206778461946

>  <Genealogy>  (44) 
Cn1c(CN2CCC(Oc3ccccc3[O-])CC2)nnc1SCc1ccccc1F (protonated)
Cn1c(CN2CCC(Oc3ccccc3[O-])CC2)nnc1SCc1ccccc1F (3D coordinates assigned)
Cn1c(CN2CCC(Oc3ccccc3[O-])CC2)nnc1SCc1ccccc1F (nonaromatic ring conformer: 92.59206778461946 kcal/mol)

>  <smiles>  (44) 
Cn1c(CN2CCC(Oc3ccccc3O)CC2)nnc1SCc1ccccc1F

>  <score_type>  (44) 
oracle

>  <origin>  (44) 
adg

>  <m_score__min__energy>  (44) 
-12.31

>  <m_primary>  (44) 
energy

$$$$
44:0
     RDKit          3D

 37 39  0  0  0  0  0  0  0  0999 V2000
   57.7570   31.7840   46.5430 O   0  0  0  0  0  0  0  0  0  0  0  0
   57.6050   32.1870   45.3590 C   0  0  0  0  0  0  0  0  0  0  0  0
   58.5030   33.2280   44.8120 C   0  0  0  0  0  0  0  0  0  0  0  0
   59.3670   33.9590   45.5300 C   0  0  0  0  0  0  0  0  0  0  0  0
   60.3900   33.4210   46.4500 C   0  0  0  0  0  0  0  0  0  0  0  0
   61.7210   33.8370   46.4690 C   0  0  0  0  0  0  0  0  0  0  0  0
   62.5370   32.8870   47.5880 S   0  0  0  0  0  0  0  0  0  0  0  0
   61.1850   31.9660   47.9990 C   0  0  0  0  0  0  0  0  0  0  0  0
   61.1310   30.8500   48.9770 C   0  0  0  0  0  0  0  0  0  0  0  0
   62.1520   30.7250   49.8710 N   0  0  0  0  0  0  0  0  0  0  0  0
   62.1790   29.7330   50.7990 C   0  0  0  0  0  0  0  0  0  0  0  0
   61.1360   28.8120   50.8450 C   0  0  0  0  0  0  0  0  0  0  0  0
   60.1120   28.9210   49.9610 N   0  0  0  0  0  0  0  0  0  0  0  0
   60.0780   29.9100   49.0300 C   0  0  0  0  0  0  0  0  0  0  0  0
   59.1050   29.9640   48.2320 O   0  0  0  0  0  0  0  0  0  0  0  0
   60.1130   32.3780   47.2810 N   0  0  0  0  0  0  0  0  0  0  0  0
   56.5950   31.5720   44.5520 N   0  0  0  0  0  0  0  0  0  0  0  0
   56.4670   29.8670   44.2710 S   0  0  0  0  0  0  0  0  0  0  0  0
   56.4430   29.6150   42.7890 O   0  0  0  0  0  0  0  0  0  0  0  0
   55.1870   29.3640   44.8730 O   0  0  0  0  0  0  0  0  0  0  0  0
   57.8230   29.0260   45.0170 C   0  0  0  0  0  0  0  0  0  0  0  0
   57.5960   28.0290   45.9780 C   0  0  0  0  0  0  0  0  0  0  0  0
   58.6750   27.3560   46.5580 C   0  0  0  0  0  0  0  0  0  0  0  0
   58.4530   26.3870   47.4810 F   0  0  0  0  0  0  0  0  0  0  0  0
   59.9840   27.6760   46.1850 C   0  0  0  0  0  0  0  0  0  0  0  0
   60.2150   28.6740   45.2320 C   0  0  0  0  0  0  0  0  0  0  0  0
   61.4840   28.9860   44.8720 F   0  0  0  0  0  0  0  0  0  0  0  0
   59.1360   29.3490   44.6510 C   0  0  0  0  0  0  0  0  0  0  0  0
   58.4579   33.4171   43.7293 H   0  0  0  0  0  0  0  0  0  0  0  0
   59.3095   35.0525   45.4253 H   0  0  0  0  0  0  0  0  0  0  0  0
   62.1578   34.6425   45.8605 H   0  0  0  0  0  0  0  0  0  0  0  0
   63.0172   29.6583   51.5074 H   0  0  0  0  0  0  0  0  0  0  0  0
   61.1418   28.0035   51.5909 H   0  0  0  0  0  0  0  0  0  0  0  0
   59.1650   31.9430   47.3540 H   0  0  0  0  0  0  0  0  0  0  0  0
   56.5674   27.7767   46.2753 H   0  0  0  0  0  0  0  0  0  0  0  0
   60.8318   27.1434   46.6406 H   0  0  0  0  0  0  0  0  0  0  0  0
   59.3193   30.1358   43.9045 H   0  0  0  0  0  0  0  0  0  0  0  0
  1  2  2  0
  2  3  1  0
  3  4  2  3
  4  5  1  0
  5  6  2  0
  6  7  1  0
  7  8  1  0
  8  9  1  0
  9 10  2  0
 10 11  1  0
 11 12  2  0
 12 13  1  0
 13 14  1  0
 14 15  2  0
  8 16  2  0
  2 17  1  0
 17 18  1  0
 18 19  2  0
 18 20  2  0
 18 21  1  0
 21 22  2  0
 22 23  1  0
 23 24  1  0
 23 25  2  0
 25 26  1  0
 26 27  1  0
 26 28  2  0
 16  5  1  0
 28 21  1  0
 14  9  1  0
  3 29  1  0
  4 30  1  0
  6 31  1  0
 11 32  1  0
 12 33  1  0
 16 34  1  0
 22 35  1  0
 25 36  1  0
 28 37  1  0
M  CHG  3  13  -1  16   1  17  -1
M  END
>  <UniqueID>  (45) 
44

>  <SMILES>  (45) 
O=C(C=Cc1csc(-c2ncc[n-]c2=O)[nH+]1)[N-]S(=O)(=O)c1cc(F)cc(F)c1

>  <Energy>  (45) 
83.36607965889357

>  <Genealogy>  (45) 
O=C(C=Cc1csc(-c2ncc[n-]c2=O)[nH+]1)[N-]S(=O)(=O)c1cc(F)cc(F)c1 (protonated)
O=C(C=Cc1csc(-c2ncc[n-]c2=O)[nH+]1)[N-]S(=O)(=O)c1cc(F)cc(F)c1 (3D coordinates assigned)
O=C(C=Cc1csc(-c2ncc[n-]c2=O)[nH+]1)[N-]S(=O)(=O)c1cc(F)cc(F)c1 (optimized conformer: 83.36607965889357 kcal/mol)

>  <smiles>  (45) 
O=C(C=Cc1csc(-c2ncc[nH]c2=O)n1)NS(=O)(=O)c1cc(F)cc(F)c1

>  <score_type>  (45) 
oracle

>  <origin>  (45) 
adg

>  <m_score__min__energy>  (45) 
-10.02

>  <m_primary>  (45) 
energy

$$$$
45:0
     RDKit          3D

 69 73  0  0  0  0  0  0  0  0999 V2000
   57.3640   32.6850   52.3740 C   0  0  0  0  0  0  0  0  0  0  0  0
   57.5500   31.2980   52.9160 C   0  0  0  0  0  0  0  0  0  0  0  0
   56.5390   30.3390   52.7650 C   0  0  0  0  0  0  0  0  0  0  0  0
   56.7000   29.0570   53.2970 C   0  0  0  0  0  0  0  0  0  0  0  0
   57.8660   28.7270   53.9930 C   0  0  0  0  0  0  0  0  0  0  0  0
   58.8760   29.6850   54.1760 C   0  0  0  0  0  0  0  0  0  0  0  0
   60.1380   29.3350   54.9190 C   0  0  0  0  0  0  0  0  0  0  0  0
   61.1950   29.0320   54.0090 O   0  0  0  0  0  0  0  0  0  0  0  0
   61.0350   28.4440   52.7440 C   0  0  0  0  0  0  0  0  0  0  0  0
   61.4340   27.1060   52.4670 C   0  0  0  0  0  0  0  0  0  0  0  0
   61.2560   26.5530   51.1850 C   0  0  0  0  0  0  0  0  0  0  0  0
   60.6740   27.3510   50.2050 C   0  0  0  0  0  0  0  0  0  0  0  0
   60.4140   27.0150   48.9250 N   0  0  0  0  0  0  0  0  0  0  0  0
   59.8370   28.1130   48.3780 C   0  0  0  0  0  0  0  0  0  0  0  0
   59.7660   29.1360   49.2960 C   0  0  0  0  0  0  0  0  0  0  0  0
   60.2860   28.6410   50.4690 C   0  0  0  0  0  0  0  0  0  0  0  0
   60.4500   29.2210   51.7250 C   0  0  0  0  0  0  0  0  0  0  0  0
   59.1980   30.4700   48.9740 C   0  0  0  0  0  0  0  0  0  0  0  0
   59.2290   30.6350   47.4480 C   0  0  0  0  0  0  0  0  0  0  0  0
   58.6460   29.5160   46.7880 O   0  0  0  0  0  0  0  0  0  0  0  0
   59.3720   28.2830   46.9420 C   0  0  1  0  0  0  0  0  0  0  0  0
   60.6180   28.2990   45.9940 C   0  0  0  0  0  0  0  0  0  0  0  0
   60.3650   28.8650   44.5790 C   0  0  0  0  0  0  0  0  0  0  0  0
   58.9520   28.5530   44.0370 C   0  0  0  0  0  0  0  0  0  0  0  0
   57.9440   29.6100   44.3050 N   0  0  0  0  0  0  0  0  0  0  0  0
   58.4570   30.9630   44.0270 C   0  0  0  0  0  0  0  0  0  0  0  0
   56.6700   29.3740   43.6030 C   0  0  0  0  0  0  0  0  0  0  0  0
   58.4010   27.1260   46.6480 C   0  0  0  0  0  0  0  0  0  0  0  0
   58.8110   25.7710   46.6680 C   0  0  0  0  0  0  0  0  0  0  0  0
   57.8970   24.7420   46.4270 C   0  0  0  0  0  0  0  0  0  0  0  0
   56.5550   25.0340   46.1900 C   0  0  0  0  0  0  0  0  0  0  0  0
   56.1190   26.3590   46.2090 C   0  0  0  0  0  0  0  0  0  0  0  0
   54.7760   26.6490   45.9950 O   0  0  0  0  0  0  0  0  0  0  0  0
   57.0270   27.3940   46.4480 C   0  0  0  0  0  0  0  0  0  0  0  0
   58.7130   30.9700   53.6320 C   0  0  0  0  0  0  0  0  0  0  0  0
   57.2688   33.3951   53.2087 H   0  0  0  0  0  0  0  0  0  0  0  0
   58.2336   32.9576   51.7580 H   0  0  0  0  0  0  0  0  0  0  0  0
   56.4533   32.7189   51.7580 H   0  0  0  0  0  0  0  0  0  0  0  0
   55.6155   30.5965   52.2257 H   0  0  0  0  0  0  0  0  0  0  0  0
   55.9070   28.3057   53.1676 H   0  0  0  0  0  0  0  0  0  0  0  0
   57.9930   27.7126   54.3991 H   0  0  0  0  0  0  0  0  0  0  0  0
   60.4356   30.1883   55.5461 H   0  0  0  0  0  0  0  0  0  0  0  0
   59.9456   28.4497   55.5429 H   0  0  0  0  0  0  0  0  0  0  0  0
   61.8865   26.4974   53.2638 H   0  0  0  0  0  0  0  0  0  0  0  0
   61.5675   25.5213   50.9646 H   0  0  0  0  0  0  0  0  0  0  0  0
   60.6230   26.1030   48.4630 H   0  0  0  0  0  0  0  0  0  0  0  0
   60.1316   30.2565   51.9156 H   0  0  0  0  0  0  0  0  0  0  0  0
   58.1614   30.5332   49.3366 H   0  0  0  0  0  0  0  0  0  0  0  0
   59.7832   31.2650   49.4593 H   0  0  0  0  0  0  0  0  0  0  0  0
   58.6691   31.5418   47.1755 H   0  0  0  0  0  0  0  0  0  0  0  0
   60.2796   30.7122   47.1315 H   0  0  0  0  0  0  0  0  0  0  0  0
   61.3989   28.9104   46.4698 H   0  0  0  0  0  0  0  0  0  0  0  0
   60.9060   27.2468   45.8532 H   0  0  0  0  0  0  0  0  0  0  0  0
   60.4924   29.9571   44.6123 H   0  0  0  0  0  0  0  0  0  0  0  0
   61.0861   28.3828   43.9026 H   0  0  0  0  0  0  0  0  0  0  0  0
   59.0242   28.4148   42.9481 H   0  0  0  0  0  0  0  0  0  0  0  0
   58.6069   27.6503   44.5624 H   0  0  0  0  0  0  0  0  0  0  0  0
   57.7370   29.5670   45.3310 H   0  0  0  0  0  0  0  0  0  0  0  0
   58.6540   31.4826   44.9763 H   0  0  0  0  0  0  0  0  0  0  0  0
   59.3898   30.8898   43.4486 H   0  0  0  0  0  0  0  0  0  0  0  0
   57.7102   31.5266   43.4486 H   0  0  0  0  0  0  0  0  0  0  0  0
   55.8672   29.2253   44.3402 H   0  0  0  0  0  0  0  0  0  0  0  0
   56.4323   30.2434   42.9724 H   0  0  0  0  0  0  0  0  0  0  0  0
   56.7595   28.4772   42.9724 H   0  0  0  0  0  0  0  0  0  0  0  0
   59.8628   25.5251   46.8760 H   0  0  0  0  0  0  0  0  0  0  0  0
   58.2383   23.6963   46.4243 H   0  0  0  0  0  0  0  0  0  0  0  0
   55.8413   24.2216   45.9884 H   0  0  0  0  0  0  0  0  0  0  0  0
   56.6674   28.4331   46.4811 H   0  0  0  0  0  0  0  0  0  0  0  0
   59.5018   31.7246   53.7678 H   0  0  0  0  0  0  0  0  0  0  0  0
  1  2  1  0
  2  3  2  0
  3  4  1  0
  4  5  2  0
  5  6  1  0
  6  7  1  0
  7  8  1  0
  8  9  1  0
  9 10  2  0
 10 11  1  0
 11 12  2  0
 12 13  1  0
 13 14  1  0
 14 15  2  0
 15 16  1  0
 16 17  2  0
 15 18  1  0
 18 19  1  0
 19 20  1  0
 20 21  1  0
 21 22  1  6
 22 23  1  0
 23 24  1  0
 24 25  1  0
 25 26  1  0
 25 27  1  0
 21 28  1  0
 28 29  2  0
 29 30  1  0
 30 31  2  0
 31 32  1  0
 32 33  1  0
 32 34  2  0
  6 35  2  0
 35  2  1  0
 17  9  1  0
 34 28  1  0
 16 12  1  0
 21 14  1  0
  1 36  1  0
  1 37  1  0
  1 38  1  0
  3 39  1  0
  4 40  1  0
  5 41  1  0
  7 42  1  0
  7 43  1  0
 10 44  1  0
 11 45  1  0
 13 46  1  0
 17 47  1  0
 18 48  1  0
 18 49  1  0
 19 50  1  0
 19 51  1  0
 22 52  1  0
 22 53  1  0
 23 54  1  0
 23 55  1  0
 24 56  1  0
 24 57  1  0
 25 58  1  0
 26 59  1  0
 26 60  1  0
 26 61  1  0
 27 62  1  0
 27 63  1  0
 27 64  1  0
 29 65  1  0
 30 66  1  0
 31 67  1  0
 34 68  1  0
 35 69  1  0
M  CHG  2  25   1  33  -1
M  END
>  <UniqueID>  (46) 
45

>  <SMILES>  (46) 
Cc1cccc(COc2ccc3[nH]c4c(c3c2)CCO[C@]4(CCC[NH+](C)C)c2cccc([O-])c2)c1

>  <Energy>  (46) 
121.23164755702267

>  <Genealogy>  (46) 
Cc1cccc(COc2ccc3[nH]c4c(c3c2)CCOC4(CCC[NH+](C)C)c2cccc([O-])c2)c1 (protonated)
Cc1cccc(COc2ccc3[nH]c4c(c3c2)CCO[C@]4(CCC[NH+](C)C)c2cccc([O-])c2)c1 (chirality)
Cc1cccc(COc2ccc3[nH]c4c(c3c2)CCO[C@]4(CCC[NH+](C)C)c2cccc([O-])c2)c1 (3D coordinates assigned)
Cc1cccc(COc2ccc3[nH]c4c(c3c2)CCO[C@]4(CCC[NH+](C)C)c2cccc([O-])c2)c1 (nonaromatic ring conformer: 121.23164755702267 kcal/mol)

>  <smiles>  (46) 
Cc1cccc(COc2ccc3[nH]c4c(c3c2)CCOC4(CCCN(C)C)c2cccc(O)c2)c1

>  <score_type>  (46) 
oracle

>  <origin>  (46) 
adg

>  <m_score__min__energy>  (46) 
-10.06

>  <m_primary>  (46) 
energy

$$$$
46:0
     RDKit          3D

 49 52  0  0  0  0  0  0  0  0999 V2000
   58.1080   32.0430   43.7000 O   0  0  0  0  0  0  0  0  0  0  0  0
   58.4650   31.8250   44.8890 C   0  0  0  0  0  0  0  0  0  0  0  0
   58.2050   30.4970   45.4930 C   0  0  0  0  0  0  0  0  0  0  0  0
   57.5700   29.4860   44.7530 C   0  0  0  0  0  0  0  0  0  0  0  0
   57.3370   28.2310   45.3230 C   0  0  0  0  0  0  0  0  0  0  0  0
   57.7420   27.9640   46.6400 C   0  0  0  0  0  0  0  0  0  0  0  0
   57.5220   26.6010   47.2450 C   0  0  0  0  0  0  0  0  0  0  0  0
   57.0000   25.6620   46.2300 N   0  0  0  0  0  0  0  0  0  0  0  0
   55.6850   25.7390   45.8400 C   0  0  0  0  0  0  0  0  0  0  0  0
   54.8400   26.7130   46.3610 O   0  0  0  0  0  0  0  0  0  0  0  0
   55.1650   24.8410   44.9080 C   0  0  0  0  0  0  0  0  0  0  0  0
   55.9810   23.8510   44.3640 C   0  0  0  0  0  0  0  0  0  0  0  0
   55.4700   22.9400   43.4270 C   0  0  0  0  0  0  0  0  0  0  0  0
   56.2940   21.9500   42.8870 C   0  0  0  0  0  0  0  0  0  0  0  0
   57.6360   21.8600   43.2780 C   0  0  0  0  0  0  0  0  0  0  0  0
   58.4640   20.8750   42.7440 O   0  0  0  0  0  0  0  0  0  0  0  0
   58.1530   22.7640   44.2120 C   0  0  0  0  0  0  0  0  0  0  0  0
   57.3320   23.7670   44.7640 C   0  0  0  0  0  0  0  0  0  0  0  0
   57.8250   24.6920   45.7070 C   0  0  0  0  0  0  0  0  0  0  0  0
   59.0330   24.6250   46.0700 O   0  0  0  0  0  0  0  0  0  0  0  0
   58.3920   28.9670   47.3740 C   0  0  0  0  0  0  0  0  0  0  0  0
   58.6250   30.2220   46.8040 C   0  0  0  0  0  0  0  0  0  0  0  0
   59.0950   32.8790   45.6410 N   0  0  0  0  0  0  0  0  0  0  0  0
   58.6180   34.2580   45.4660 C   0  0  0  0  0  0  0  0  0  0  0  0
   59.3640   35.2370   46.3830 C   0  0  0  0  0  0  0  0  0  0  0  0
   59.5290   34.6290   47.7790 C   0  0  0  0  0  0  0  0  0  0  0  0
   60.3280   33.3100   47.7520 C   0  0  0  0  0  0  0  0  0  0  0  0
   60.3440   32.6240   46.3740 C   0  0  0  0  0  0  0  0  0  0  0  0
   57.2539   29.6831   43.7180 H   0  0  0  0  0  0  0  0  0  0  0  0
   56.8336   27.4486   44.7362 H   0  0  0  0  0  0  0  0  0  0  0  0
   58.4775   26.2191   47.6339 H   0  0  0  0  0  0  0  0  0  0  0  0
   56.7883   26.6878   48.0599 H   0  0  0  0  0  0  0  0  0  0  0  0
   54.1108   24.9143   44.6024 H   0  0  0  0  0  0  0  0  0  0  0  0
   54.4167   23.0058   43.1167 H   0  0  0  0  0  0  0  0  0  0  0  0
   55.8879   21.2389   42.1525 H   0  0  0  0  0  0  0  0  0  0  0  0
   58.0970   19.9810   42.4400 H   0  0  0  0  0  0  0  0  0  0  0  0
   59.2073   22.6913   44.5174 H   0  0  0  0  0  0  0  0  0  0  0  0
   58.7204   28.7649   48.4042 H   0  0  0  0  0  0  0  0  0  0  0  0
   59.1410   30.9993   47.3867 H   0  0  0  0  0  0  0  0  0  0  0  0
   58.7748   34.5595   44.4198 H   0  0  0  0  0  0  0  0  0  0  0  0
   57.5503   34.2876   45.7288 H   0  0  0  0  0  0  0  0  0  0  0  0
   60.3566   35.4485   45.9587 H   0  0  0  0  0  0  0  0  0  0  0  0
   58.7845   36.1686   46.4623 H   0  0  0  0  0  0  0  0  0  0  0  0
   60.0585   35.3504   48.4187 H   0  0  0  0  0  0  0  0  0  0  0  0
   58.5252   34.4066   48.1701 H   0  0  0  0  0  0  0  0  0  0  0  0
   61.3661   33.5269   48.0440 H   0  0  0  0  0  0  0  0  0  0  0  0
   59.8314   32.6191   48.4492 H   0  0  0  0  0  0  0  0  0  0  0  0
   61.1900   33.0135   45.7886 H   0  0  0  0  0  0  0  0  0  0  0  0
   60.4451   31.5391   46.5250 H   0  0  0  0  0  0  0  0  0  0  0  0
  1  2  2  0
  2  3  1  0
  3  4  2  0
  4  5  1  0
  5  6  2  0
  6  7  1  0
  7  8  1  0
  8  9  1  0
  9 10  1  0
  9 11  2  0
 11 12  1  0
 12 13  2  0
 13 14  1  0
 14 15  2  0
 15 16  1  0
 15 17  1  0
 17 18  2  0
 18 19  1  0
 19 20  2  0
  6 21  1  0
 21 22  2  0
  2 23  1  0
 23 24  1  0
 24 25  1  0
 25 26  1  0
 26 27  1  0
 27 28  1  0
 22  3  1  0
 28 23  1  0
 19  8  1  0
 18 12  1  0
  4 29  1  0
  5 30  1  0
  7 31  1  0
  7 32  1  0
 11 33  1  0
 13 34  1  0
 14 35  1  0
 16 36  1  0
 17 37  1  0
 21 38  1  0
 22 39  1  0
 24 40  1  0
 24 41  1  0
 25 42  1  0
 25 43  1  0
 26 44  1  0
 26 45  1  0
 27 46  1  0
 27 47  1  0
 28 48  1  0
 28 49  1  0
M  CHG  1  10  -1
M  END
>  <UniqueID>  (47) 
46

>  <SMILES>  (47) 
O=C(c1ccc(Cn2c([O-])cc3ccc(O)cc3c2=O)cc1)N1CCCCC1

>  <Energy>  (47) 
65.15926337235706

>  <Genealogy>  (47) 
O=C(c1ccc(Cn2c([O-])cc3ccc(O)cc3c2=O)cc1)N1CCCCC1 (protonated)
O=C(c1ccc(Cn2c([O-])cc3ccc(O)cc3c2=O)cc1)N1CCCCC1 (3D coordinates assigned)
O=C(c1ccc(Cn2c([O-])cc3ccc(O)cc3c2=O)cc1)N1CCCCC1 (nonaromatic ring conformer: 65.15926337235706 kcal/mol)

>  <smiles>  (47) 
O=C(c1ccc(Cn2c(O)cc3ccc(O)cc3c2=O)cc1)N1CCCCC1

>  <score_type>  (47) 
oracle

>  <origin>  (47) 
adg

>  <m_score__min__energy>  (47) 
-11.67

>  <m_primary>  (47) 
energy

$$$$
47:0
     RDKit          3D

 42 45  0  0  0  0  0  0  0  0999 V2000
   60.5150   22.9770   45.4390 C   0  0  0  0  0  0  0  0  0  0  0  0
   59.2770   23.7440   45.3320 N   0  0  0  0  0  0  0  0  0  0  0  0
   59.0410   24.9600   45.8780 C   0  0  0  0  0  0  0  0  0  0  0  0
   57.7280   25.3560   45.6250 C   0  0  0  0  0  0  0  0  0  0  0  0
   57.0300   26.5340   46.1740 C   0  0  0  0  0  0  0  0  0  0  0  0
   57.1850   27.8130   45.7740 C   0  0  0  0  0  0  0  0  0  0  0  0
   56.1020   28.4370   45.2370 N   0  0  0  0  0  0  0  0  0  0  0  0
   56.1280   29.7260   44.8140 C   0  0  0  0  0  0  0  0  0  0  0  0
   55.0900   30.2100   44.2900 O   0  0  0  0  0  0  0  0  0  0  0  0
   57.3230   30.4720   44.9410 C   0  0  0  0  0  0  0  0  0  0  0  0
   57.4660   31.7660   44.5810 C   0  0  0  0  0  0  0  0  0  0  0  0
   58.1530   32.8140   45.3610 C   0  0  0  0  0  0  0  0  0  0  0  0
   58.7110   33.9370   44.7260 C   0  0  0  0  0  0  0  0  0  0  0  0
   59.3090   34.9480   45.4830 C   0  0  0  0  0  0  0  0  0  0  0  0
   59.3360   34.8550   46.8780 C   0  0  0  0  0  0  0  0  0  0  0  0
   58.7570   33.7550   47.5170 C   0  0  0  0  0  0  0  0  0  0  0  0
   58.1580   32.7420   46.7630 C   0  0  0  0  0  0  0  0  0  0  0  0
   58.4210   29.8310   45.4240 N   0  0  0  0  0  0  0  0  0  0  0  0
   58.4000   28.5360   45.8330 C   0  0  0  0  0  0  0  0  0  0  0  0
   59.4770   28.0060   46.2120 O   0  0  0  0  0  0  0  0  0  0  0  0
   57.1460   24.3010   44.9470 C   0  0  0  0  0  0  0  0  0  0  0  0
   55.8410   24.1160   44.4940 C   0  0  0  0  0  0  0  0  0  0  0  0
   55.5370   22.9080   43.8410 C   0  0  0  0  0  0  0  0  0  0  0  0
   56.5320   21.9160   43.6630 C   0  0  0  0  0  0  0  0  0  0  0  0
   56.2270   20.7190   43.0190 O   0  0  0  0  0  0  0  0  0  0  0  0
   57.8380   22.1320   44.1380 C   0  0  0  0  0  0  0  0  0  0  0  0
   58.1150   23.3440   44.7760 C   0  0  0  0  0  0  0  0  0  0  0  0
   60.7613   22.8244   46.5002 H   0  0  0  0  0  0  0  0  0  0  0  0
   60.3851   22.0009   44.9487 H   0  0  0  0  0  0  0  0  0  0  0  0
   61.3312   23.5279   44.9487 H   0  0  0  0  0  0  0  0  0  0  0  0
   59.7789   25.5509   46.4404 H   0  0  0  0  0  0  0  0  0  0  0  0
   56.3136   26.3518   46.9886 H   0  0  0  0  0  0  0  0  0  0  0  0
   57.0299   32.0667   43.6169 H   0  0  0  0  0  0  0  0  0  0  0  0
   58.6768   34.0203   43.6297 H   0  0  0  0  0  0  0  0  0  0  0  0
   59.7587   35.8175   44.9812 H   0  0  0  0  0  0  0  0  0  0  0  0
   59.8131   35.6479   47.4727 H   0  0  0  0  0  0  0  0  0  0  0  0
   58.7728   33.6865   48.6147 H   0  0  0  0  0  0  0  0  0  0  0  0
   57.6890   31.8857   47.2697 H   0  0  0  0  0  0  0  0  0  0  0  0
   55.0735   24.8899   44.6424 H   0  0  0  0  0  0  0  0  0  0  0  0
   54.5181   22.7323   43.4655 H   0  0  0  0  0  0  0  0  0  0  0  0
   56.7950   19.8900   43.1460 H   0  0  0  0  0  0  0  0  0  0  0  0
   58.6195   21.3684   44.0109 H   0  0  0  0  0  0  0  0  0  0  0  0
  1  2  1  0
  2  3  1  0
  3  4  2  0
  4  5  1  0
  5  6  2  3
  6  7  1  0
  7  8  1  0
  8  9  2  0
  8 10  1  0
 10 11  2  3
 11 12  1  0
 12 13  2  0
 13 14  1  0
 14 15  2  0
 15 16  1  0
 16 17  2  0
 10 18  1  0
 18 19  1  0
 19 20  2  0
  4 21  1  0
 21 22  2  0
 22 23  1  0
 23 24  2  0
 24 25  1  0
 24 26  1  0
 26 27  2  0
 27  2  1  0
 19  6  1  0
 27 21  1  0
 17 12  1  0
  1 28  1  0
  1 29  1  0
  1 30  1  0
  3 31  1  0
  5 32  1  0
 11 33  1  0
 13 34  1  0
 14 35  1  0
 15 36  1  0
 16 37  1  0
 17 38  1  0
 22 39  1  0
 23 40  1  0
 25 41  1  0
 26 42  1  0
M  CHG  2   7  -1  18  -1
M  END
>  <UniqueID>  (48) 
47

>  <SMILES>  (48) 
Cn1cc(C=c2[n-]c(=O)c(=Cc3ccccc3)[n-]c2=O)c2ccc(O)cc21

>  <Energy>  (48) 
104.88339212386458

>  <Genealogy>  (48) 
Cn1cc(C=c2[n-]c(=O)c(=Cc3ccccc3)[n-]c2=O)c2ccc(O)cc21 (protonated)
Cn1cc(C=c2[n-]c(=O)c(=Cc3ccccc3)[n-]c2=O)c2ccc(O)cc21 (3D coordinates assigned)
Cn1cc(C=c2[n-]c(=O)c(=Cc3ccccc3)[n-]c2=O)c2ccc(O)cc21 (optimized conformer: 104.88339212386458 kcal/mol)

>  <smiles>  (48) 
Cn1cc(C=c2[nH]c(=O)c(=Cc3ccccc3)[nH]c2=O)c2ccc(O)cc21

>  <score_type>  (48) 
oracle

>  <origin>  (48) 
adg

>  <m_score__min__energy>  (48) 
-12.039999999999999

>  <m_primary>  (48) 
energy

$$$$
48:0
     RDKit          3D

 59 63  0  0  0  0  0  0  0  0999 V2000
   67.4770   31.1920   52.6440 C   0  0  0  0  0  0  0  0  0  0  0  0
   66.4820   31.6090   51.6030 C   0  0  0  0  0  0  0  0  0  0  0  0
   66.7850   32.6560   50.7180 C   0  0  0  0  0  0  0  0  0  0  0  0
   65.8760   33.0220   49.7210 C   0  0  0  0  0  0  0  0  0  0  0  0
   64.6570   32.3400   49.5930 C   0  0  0  0  0  0  0  0  0  0  0  0
   63.5110   32.7870   48.3370 S   0  0  0  0  0  0  0  0  0  0  0  0
   63.6570   31.8430   47.1770 O   0  0  0  0  0  0  0  0  0  0  0  0
   63.7770   34.1950   47.8800 O   0  0  0  0  0  0  0  0  0  0  0  0
   61.9260   32.6900   48.9750 O   0  0  0  0  0  0  0  0  0  0  0  0
   60.8310   32.0830   48.3350 C   0  0  0  0  0  0  0  0  0  0  0  0
   60.5090   30.7300   48.5440 C   0  0  0  0  0  0  0  0  0  0  0  0
   59.4210   30.1510   47.8930 C   0  0  0  0  0  0  0  0  0  0  0  0
   58.6310   30.9080   47.0290 C   0  0  0  0  0  0  0  0  0  0  0  0
   58.9180   32.2670   46.8050 C   0  0  0  0  0  0  0  0  0  0  0  0
   58.1070   33.0520   45.9510 C   0  0  0  0  0  0  0  0  0  0  0  0
   56.9790   32.4580   45.2860 N   0  0  0  0  0  0  0  0  0  0  0  0
   57.0230   31.5660   44.1620 C   0  0  0  0  0  0  0  0  0  0  0  0
   57.7420   31.8320   43.1650 O   0  0  0  0  0  0  0  0  0  0  0  0
   56.2550   30.3580   44.1580 N   0  0  0  0  0  0  0  0  0  0  0  0
   56.7630   29.0290   44.3360 C   0  0  0  0  0  0  0  0  0  0  0  0
   56.6450   28.4230   45.5930 C   0  0  0  0  0  0  0  0  0  0  0  0
   57.1460   27.1380   45.8110 C   0  0  0  0  0  0  0  0  0  0  0  0
   57.7970   26.4450   44.7770 C   0  0  0  0  0  0  0  0  0  0  0  0
   58.3230   25.0790   44.9930 C   0  0  0  0  0  0  0  0  0  0  0  0
   57.7570   23.9200   44.4980 C   0  0  0  0  0  0  0  0  0  0  0  0
   58.5800   22.9070   44.9510 C   0  0  0  0  0  0  0  0  0  0  0  0
   59.5960   23.4350   45.6640 N   0  0  0  0  0  0  0  0  0  0  0  0
   59.4410   24.7490   45.6800 N   0  0  0  0  0  0  0  0  0  0  0  0
   60.3850   25.6470   46.3370 C   0  0  0  0  0  0  0  0  0  0  0  0
   57.9250   27.0560   43.5200 C   0  0  0  0  0  0  0  0  0  0  0  0
   57.4290   28.3450   43.3040 C   0  0  0  0  0  0  0  0  0  0  0  0
   58.4470   34.3980   45.7250 C   0  0  0  0  0  0  0  0  0  0  0  0
   59.5450   34.9700   46.3660 C   0  0  0  0  0  0  0  0  0  0  0  0
   60.3300   34.2120   47.2320 C   0  0  0  0  0  0  0  0  0  0  0  0
   60.0330   32.8560   47.4620 C   0  0  0  0  0  0  0  0  0  0  0  0
   64.3610   31.2810   50.4610 C   0  0  0  0  0  0  0  0  0  0  0  0
   65.2700   30.9130   51.4570 C   0  0  0  0  0  0  0  0  0  0  0  0
   67.0562   31.3684   53.6449 H   0  0  0  0  0  0  0  0  0  0  0  0
   67.7053   30.1225   52.5255 H   0  0  0  0  0  0  0  0  0  0  0  0
   68.3996   31.7792   52.5255 H   0  0  0  0  0  0  0  0  0  0  0  0
   67.7419   33.1907   50.8095 H   0  0  0  0  0  0  0  0  0  0  0  0
   66.1174   33.8472   49.0349 H   0  0  0  0  0  0  0  0  0  0  0  0
   61.1213   30.1233   49.2274 H   0  0  0  0  0  0  0  0  0  0  0  0
   59.1842   29.0902   48.0620 H   0  0  0  0  0  0  0  0  0  0  0  0
   57.7768   30.4392   46.5185 H   0  0  0  0  0  0  0  0  0  0  0  0
   56.1536   28.9637   46.4153 H   0  0  0  0  0  0  0  0  0  0  0  0
   57.0303   26.6658   46.7977 H   0  0  0  0  0  0  0  0  0  0  0  0
   56.8518   23.8248   43.8802 H   0  0  0  0  0  0  0  0  0  0  0  0
   58.4297   21.8343   44.7596 H   0  0  0  0  0  0  0  0  0  0  0  0
   60.2839   25.5508   47.4281 H   0  0  0  0  0  0  0  0  0  0  0  0
   61.4104   25.3828   46.0391 H   0  0  0  0  0  0  0  0  0  0  0  0
   60.1723   26.6843   46.0391 H   0  0  0  0  0  0  0  0  0  0  0  0
   58.4193   26.5166   42.6986 H   0  0  0  0  0  0  0  0  0  0  0  0
   57.5602   28.8257   42.3233 H   0  0  0  0  0  0  0  0  0  0  0  0
   57.8410   35.0049   45.0362 H   0  0  0  0  0  0  0  0  0  0  0  0
   59.7931   36.0266   46.1868 H   0  0  0  0  0  0  0  0  0  0  0  0
   61.1881   34.6768   47.7396 H   0  0  0  0  0  0  0  0  0  0  0  0
   63.4102   30.7374   50.3584 H   0  0  0  0  0  0  0  0  0  0  0  0
   65.0355   30.0748   52.1296 H   0  0  0  0  0  0  0  0  0  0  0  0
  1  2  1  0
  2  3  2  0
  3  4  1  0
  4  5  2  0
  5  6  1  0
  6  7  2  0
  6  8  2  0
  6  9  1  0
  9 10  1  0
 10 11  2  0
 11 12  1  0
 12 13  2  0
 13 14  1  0
 14 15  2  0
 15 16  1  0
 16 17  1  0
 17 18  2  0
 17 19  1  0
 19 20  1  0
 20 21  2  0
 21 22  1  0
 22 23  2  0
 23 24  1  0
 24 25  2  0
 25 26  1  0
 26 27  2  0
 27 28  1  0
 28 29  1  0
 23 30  1  0
 30 31  2  0
 15 32  1  0
 32 33  2  0
 33 34  1  0
 34 35  2  0
  5 36  1  0
 36 37  2  0
 37  2  1  0
 35 10  1  0
 35 14  1  0
 31 20  1  0
 28 24  1  0
  1 38  1  0
  1 39  1  0
  1 40  1  0
  3 41  1  0
  4 42  1  0
 11 43  1  0
 12 44  1  0
 13 45  1  0
 21 46  1  0
 22 47  1  0
 25 48  1  0
 26 49  1  0
 29 50  1  0
 29 51  1  0
 29 52  1  0
 30 53  1  0
 31 54  1  0
 32 55  1  0
 33 56  1  0
 34 57  1  0
 36 58  1  0
 37 59  1  0
M  CHG  2  16  -1  19  -1
M  END
>  <UniqueID>  (49) 
48

>  <SMILES>  (49) 
Cc1ccc(S(=O)(=O)Oc2cccc3c([N-]C(=O)[N-]c4ccc(-c5ccnn5C)cc4)cccc23)cc1

>  <Energy>  (49) 
111.64660094288368

>  <Genealogy>  (49) 
Cc1ccc(S(=O)(=O)Oc2cccc3c([N-]C(=O)[N-]c4ccc(-c5ccnn5C)cc4)cccc23)cc1 (protonated)
Cc1ccc(S(=O)(=O)Oc2cccc3c([N-]C(=O)[N-]c4ccc(-c5ccnn5C)cc4)cccc23)cc1 (3D coordinates assigned)
Cc1ccc(S(=O)(=O)Oc2cccc3c([N-]C(=O)[N-]c4ccc(-c5ccnn5C)cc4)cccc23)cc1 (optimized conformer: 111.64660094288368 kcal/mol)

>  <smiles>  (49) 
Cc1ccc(S(=O)(=O)Oc2cccc3c(NC(=O)Nc4ccc(-c5ccnn5C)cc4)cccc23)cc1

>  <score_type>  (49) 
oracle

>  <origin>  (49) 
adg

>  <m_score__min__energy>  (49) 
-12.539999999999999

>  <m_primary>  (49) 
energy

$$$$
49:0
     RDKit          3D

 57 60  0  0  0  0  0  0  0  0999 V2000
   64.3770   33.0420   49.1320 C   0  0  0  0  0  0  0  0  0  0  0  0
   63.8320   33.8330   50.6770 S   0  0  0  0  0  0  0  0  0  0  0  0
   62.1390   33.2730   50.5020 C   0  0  0  0  0  0  0  0  0  0  0  0
   61.8070   32.3200   49.5350 C   0  0  0  0  0  0  0  0  0  0  0  0
   60.4740   31.8900   49.4060 C   0  0  0  0  0  0  0  0  0  0  0  0
   60.1070   30.9170   48.4010 N   0  0  0  0  0  0  0  0  0  0  0  0
   58.9540   30.0320   48.6170 C   0  0  0  0  0  0  0  0  0  0  0  0
   59.0960   28.7570   47.7810 C   0  0  0  0  0  0  0  0  0  0  0  0
   59.2250   29.0660   46.3360 N   0  0  0  0  0  0  0  0  0  0  0  0
   59.6550   27.8860   45.6020 C   0  0  0  0  0  0  0  0  0  0  0  0
   60.6130   27.2410   46.0110 O   0  0  0  0  0  0  0  0  0  0  0  0
   58.9910   27.4560   44.3080 C   0  0  0  0  0  0  0  0  0  0  0  0
   57.7110   26.6370   44.5330 C   0  0  0  0  0  0  0  0  0  0  0  0
   56.8010   27.2720   45.5500 C   0  0  0  0  0  0  0  0  0  0  0  0
   56.6600   26.7270   46.6770 O   0  0  0  0  0  0  0  0  0  0  0  0
   56.0360   28.4470   45.2490 N   0  0  0  0  0  0  0  0  0  0  0  0
   56.4980   29.5450   44.7260 C   0  0  0  0  0  0  0  0  0  0  0  0
   57.0230   30.5310   45.4800 N   0  0  0  0  0  0  0  0  0  0  0  0
   57.4930   31.5650   44.7260 C   0  0  0  0  0  0  0  0  0  0  0  0
   58.1190   32.7580   45.3530 C   0  0  0  0  0  0  0  0  0  0  0  0
   58.1060   32.9010   46.7540 C   0  0  0  0  0  0  0  0  0  0  0  0
   58.6910   34.0160   47.3610 C   0  0  0  0  0  0  0  0  0  0  0  0
   59.2940   35.0040   46.5810 C   0  0  0  0  0  0  0  0  0  0  0  0
   59.3090   34.8800   45.1910 C   0  0  0  0  0  0  0  0  0  0  0  0
   58.7250   33.7680   44.5770 C   0  0  0  0  0  0  0  0  0  0  0  0
   57.3500   31.3830   43.3450 C   0  0  0  0  0  0  0  0  0  0  0  0
   56.6180   29.8920   43.0820 S   0  0  0  0  0  0  0  0  0  0  0  0
   60.0690   30.2540   46.0230 C   0  0  0  0  0  0  0  0  0  0  0  0
   60.9330   30.7300   47.2010 C   0  0  0  0  0  0  0  0  0  0  0  0
   59.5060   32.4360   50.2670 C   0  0  0  0  0  0  0  0  0  0  0  0
   59.8830   33.3820   51.2240 C   0  0  0  0  0  0  0  0  0  0  0  0
   61.1790   33.7770   51.3210 N   0  0  0  0  0  0  0  0  0  0  0  0
   64.9865   32.1573   49.3682 H   0  0  0  0  0  0  0  0  0  0  0  0
   63.4974   32.7356   48.5468 H   0  0  0  0  0  0  0  0  0  0  0  0
   64.9766   33.7548   48.5468 H   0  0  0  0  0  0  0  0  0  0  0  0
   62.5859   31.9075   48.8768 H   0  0  0  0  0  0  0  0  0  0  0  0
   58.8982   29.7628   49.6821 H   0  0  0  0  0  0  0  0  0  0  0  0
   58.0377   30.5587   48.3119 H   0  0  0  0  0  0  0  0  0  0  0  0
   59.9921   28.2110   48.1112 H   0  0  0  0  0  0  0  0  0  0  0  0
   58.1914   28.1478   47.9242 H   0  0  0  0  0  0  0  0  0  0  0  0
   58.2560   29.2970   46.0050 H   0  0  0  0  0  0  0  0  0  0  0  0
   58.7342   28.3560   43.7300 H   0  0  0  0  0  0  0  0  0  0  0  0
   59.7032   26.8122   43.7710 H   0  0  0  0  0  0  0  0  0  0  0  0
   57.1714   26.5535   43.5781 H   0  0  0  0  0  0  0  0  0  0  0  0
   58.0055   25.6481   44.9143 H   0  0  0  0  0  0  0  0  0  0  0  0
   57.6311   32.1282   47.3763 H   0  0  0  0  0  0  0  0  0  0  0  0
   58.6761   34.1151   48.4564 H   0  0  0  0  0  0  0  0  0  0  0  0
   59.7566   35.8789   47.0611 H   0  0  0  0  0  0  0  0  0  0  0  0
   59.7820   35.6600   44.5763 H   0  0  0  0  0  0  0  0  0  0  0  0
   58.7382   33.6801   43.4806 H   0  0  0  0  0  0  0  0  0  0  0  0
   57.6628   32.0935   42.5657 H   0  0  0  0  0  0  0  0  0  0  0  0
   60.7352   29.9952   45.1868 H   0  0  0  0  0  0  0  0  0  0  0  0
   59.3830   31.0777   45.7761 H   0  0  0  0  0  0  0  0  0  0  0  0
   61.7083   29.9778   47.4086 H   0  0  0  0  0  0  0  0  0  0  0  0
   61.3986   31.6907   46.9359 H   0  0  0  0  0  0  0  0  0  0  0  0
   58.4555   32.1197   50.1877 H   0  0  0  0  0  0  0  0  0  0  0  0
   59.1278   33.8081   51.9009 H   0  0  0  0  0  0  0  0  0  0  0  0
  1  2  1  0
  2  3  1  0
  3  4  2  0
  4  5  1  0
  5  6  1  0
  6  7  1  0
  7  8  1  0
  8  9  1  0
  9 10  1  0
 10 11  2  0
 10 12  1  0
 12 13  1  0
 13 14  1  0
 14 15  2  0
 14 16  1  0
 16 17  2  3
 17 18  1  0
 18 19  1  0
 19 20  1  0
 20 21  2  0
 21 22  1  0
 22 23  2  0
 23 24  1  0
 24 25  2  0
 19 26  2  0
 26 27  1  0
  9 28  1  0
 28 29  1  0
  5 30  2  0
 30 31  1  0
 31 32  2  0
 32  3  1  0
 29  6  1  0
 27 17  1  0
 25 20  1  0
  1 33  1  0
  1 34  1  0
  1 35  1  0
  4 36  1  0
  7 37  1  0
  7 38  1  0
  8 39  1  0
  8 40  1  0
  9 41  1  0
 12 42  1  0
 12 43  1  0
 13 44  1  0
 13 45  1  0
 21 46  1  0
 22 47  1  0
 23 48  1  0
 24 49  1  0
 25 50  1  0
 26 51  1  0
 28 52  1  0
 28 53  1  0
 29 54  1  0
 29 55  1  0
 30 56  1  0
 31 57  1  0
M  CHG  2   9   1  18  -1
M  END
>  <UniqueID>  (50) 
49

>  <SMILES>  (50) 
CSc1cc(N2CC[NH+](C(=O)CCC(=O)N=c3[n-]c(-c4ccccc4)cs3)CC2)ccn1

>  <Energy>  (50) 
104.970340176698

>  <Genealogy>  (50) 
CSc1cc(N2CC[NH+](C(=O)CCC(=O)N=c3[n-]c(-c4ccccc4)cs3)CC2)ccn1 (protonated)
CSc1cc(N2CC[NH+](C(=O)CCC(=O)N=c3[n-]c(-c4ccccc4)cs3)CC2)ccn1 (3D coordinates assigned)
CSc1cc(N2CC[NH+](C(=O)CCC(=O)N=c3[n-]c(-c4ccccc4)cs3)CC2)ccn1 (nonaromatic ring conformer: 104.970340176698 kcal/mol)

>  <smiles>  (50) 
CSc1cc(N2CCN(C(=O)CCC(=O)N=c3[nH]c(-c4ccccc4)cs3)CC2)ccn1

>  <score_type>  (50) 
oracle

>  <origin>  (50) 
adg

>  <m_score__min__energy>  (50) 
-9.8300000000000001

>  <m_primary>  (50) 
energy

$$$$
50:0
     RDKit          3D

 64 68  0  0  0  0  0  0  0  0999 V2000
   59.4360   34.7010   45.1950 C   0  0  0  0  0  0  0  0  0  0  0  0
   58.6550   33.4580   44.8850 C   0  0  0  0  0  0  0  0  0  0  0  0
   58.1770   32.6460   45.9250 C   0  0  0  0  0  0  0  0  0  0  0  0
   57.4840   31.4670   45.6350 C   0  0  0  0  0  0  0  0  0  0  0  0
   57.2740   31.0800   44.3050 C   0  0  0  0  0  0  0  0  0  0  0  0
   56.3790   29.6010   43.9590 S   0  0  0  0  0  0  0  0  0  0  0  0
   55.8720   29.6650   42.5460 O   0  0  0  0  0  0  0  0  0  0  0  0
   55.1980   29.4760   44.8810 O   0  0  0  0  0  0  0  0  0  0  0  0
   57.4110   28.2080   44.1280 N   0  0  0  0  0  0  0  0  0  0  0  0
   58.8240   28.5920   44.1610 C   0  0  0  0  0  0  0  0  0  0  0  0
   59.2550   28.9360   45.5610 C   0  0  0  0  0  0  0  0  0  0  0  0
   58.5080   28.4810   46.6580 C   0  0  0  0  0  0  0  0  0  0  0  0
   58.8930   28.8080   47.9600 C   0  0  0  0  0  0  0  0  0  0  0  0
   60.0410   29.5850   48.1860 C   0  0  0  0  0  0  0  0  0  0  0  0
   60.4310   29.9490   49.5650 C   0  0  0  0  0  0  0  0  0  0  0  0
   61.6330   29.8050   49.9200 O   0  0  0  0  0  0  0  0  0  0  0  0
   59.4710   30.4700   50.5040 N   0  0  0  0  0  0  0  0  0  0  0  0
   59.5930   30.1680   51.9330 C   0  0  0  0  0  0  0  0  0  0  0  0
   59.7850   31.4790   52.7070 C   0  0  0  0  0  0  0  0  0  0  0  0
   58.7900   32.5340   52.3540 N   0  0  0  0  0  0  0  0  0  0  0  0
   59.4340   33.8330   52.0580 C   0  0  0  0  0  0  0  0  0  0  0  0
   60.2210   33.7480   50.7750 C   0  0  0  0  0  0  0  0  0  0  0  0
   59.6720   34.2700   49.5760 C   0  0  0  0  0  0  0  0  0  0  0  0
   60.4010   34.2160   48.3750 C   0  0  0  0  0  0  0  0  0  0  0  0
   61.6670   33.6400   48.4090 C   0  0  0  0  0  0  0  0  0  0  0  0
   62.2000   33.1400   49.5520 C   0  0  0  0  0  0  0  0  0  0  0  0
   61.5120   33.1720   50.7620 C   0  0  0  0  0  0  0  0  0  0  0  0
   63.4600   32.6350   49.2910 O   0  0  0  0  0  0  0  0  0  0  0  0
   63.7350   32.8300   47.8970 C   0  0  0  0  0  0  0  0  0  0  0  0
   62.5660   33.4760   47.3710 O   0  0  0  0  0  0  0  0  0  0  0  0
   57.8290   32.1460   51.2940 C   0  0  0  0  0  0  0  0  0  0  0  0
   58.5280   31.5140   50.0810 C   0  0  0  0  0  0  0  0  0  0  0  0
   60.7810   30.0530   47.0860 C   0  0  0  0  0  0  0  0  0  0  0  0
   60.3940   29.7250   45.7840 C   0  0  0  0  0  0  0  0  0  0  0  0
   57.7610   31.8830   43.2640 C   0  0  0  0  0  0  0  0  0  0  0  0
   58.4550   33.0630   43.5520 C   0  0  0  0  0  0  0  0  0  0  0  0
   59.5129   34.8233   46.2855 H   0  0  0  0  0  0  0  0  0  0  0  0
   60.4444   34.6177   44.7634 H   0  0  0  0  0  0  0  0  0  0  0  0
   58.9234   35.5733   44.7634 H   0  0  0  0  0  0  0  0  0  0  0  0
   58.3481   32.9381   46.9716 H   0  0  0  0  0  0  0  0  0  0  0  0
   57.1020   30.8405   46.4545 H   0  0  0  0  0  0  0  0  0  0  0  0
   59.4336   27.7538   43.7923 H   0  0  0  0  0  0  0  0  0  0  0  0
   58.9622   29.4776   43.5234 H   0  0  0  0  0  0  0  0  0  0  0  0
   57.6135   27.8628   46.4915 H   0  0  0  0  0  0  0  0  0  0  0  0
   58.2942   28.4553   48.8127 H   0  0  0  0  0  0  0  0  0  0  0  0
   58.6799   29.6639   52.2825 H   0  0  0  0  0  0  0  0  0  0  0  0
   60.4569   29.5080   52.1005 H   0  0  0  0  0  0  0  0  0  0  0  0
   59.6968   31.2639   53.7822 H   0  0  0  0  0  0  0  0  0  0  0  0
   60.7775   31.8695   52.4378 H   0  0  0  0  0  0  0  0  0  0  0  0
   58.6592   34.6073   51.9575 H   0  0  0  0  0  0  0  0  0  0  0  0
   60.1183   34.0882   52.8806 H   0  0  0  0  0  0  0  0  0  0  0  0
   58.6685   34.7204   49.5858 H   0  0  0  0  0  0  0  0  0  0  0  0
   59.9840   34.6161   47.4390 H   0  0  0  0  0  0  0  0  0  0  0  0
   61.9591   32.7618   51.6795 H   0  0  0  0  0  0  0  0  0  0  0  0
   64.6213   33.4678   47.7639 H   0  0  0  0  0  0  0  0  0  0  0  0
   63.9477   31.8812   47.3826 H   0  0  0  0  0  0  0  0  0  0  0  0
   57.1162   31.4191   51.7107 H   0  0  0  0  0  0  0  0  0  0  0  0
   57.3169   33.0575   50.9520 H   0  0  0  0  0  0  0  0  0  0  0  0
   57.7698   31.0682   49.4204 H   0  0  0  0  0  0  0  0  0  0  0  0
   59.0873   32.2983   49.5499 H   0  0  0  0  0  0  0  0  0  0  0  0
   61.6692   30.6806   47.2511 H   0  0  0  0  0  0  0  0  0  0  0  0
   60.9849   30.0870   44.9297 H   0  0  0  0  0  0  0  0  0  0  0  0
   57.5970   31.5844   42.2181 H   0  0  0  0  0  0  0  0  0  0  0  0
   58.8453   33.6835   42.7319 H   0  0  0  0  0  0  0  0  0  0  0  0
  1  2  1  0
  2  3  2  0
  3  4  1  0
  4  5  2  0
  5  6  1  0
  6  7  2  0
  6  8  2  0
  6  9  1  0
  9 10  1  0
 10 11  1  0
 11 12  2  0
 12 13  1  0
 13 14  2  0
 14 15  1  0
 15 16  2  0
 15 17  1  0
 17 18  1  0
 18 19  1  0
 19 20  1  0
 20 21  1  0
 21 22  1  0
 22 23  2  0
 23 24  1  0
 24 25  2  0
 25 26  1  0
 26 27  2  0
 26 28  1  0
 28 29  1  0
 29 30  1  0
 20 31  1  0
 31 32  1  0
 14 33  1  0
 33 34  2  0
  5 35  1  0
 35 36  2  0
 36  2  1  0
 34 11  1  0
 32 17  1  0
 27 22  1  0
 30 25  1  0
  1 37  1  0
  1 38  1  0
  1 39  1  0
  3 40  1  0
  4 41  1  0
 10 42  1  0
 10 43  1  0
 12 44  1  0
 13 45  1  0
 18 46  1  0
 18 47  1  0
 19 48  1  0
 19 49  1  0
 21 50  1  0
 21 51  1  0
 23 52  1  0
 24 53  1  0
 27 54  1  0
 29 55  1  0
 29 56  1  0
 31 57  1  0
 31 58  1  0
 32 59  1  0
 32 60  1  0
 33 61  1  0
 34 62  1  0
 35 63  1  0
 36 64  1  0
M  CHG  1   9  -1
M  END
>  <UniqueID>  (51) 
50

>  <SMILES>  (51) 
Cc1ccc(S(=O)(=O)[N-]Cc2ccc(C(=O)N3CCN(Cc4ccc5c(c4)OCO5)CC3)cc2)cc1

>  <Energy>  (51) 
107.83684930401124

>  <Genealogy>  (51) 
Cc1ccc(S(=O)(=O)[N-]Cc2ccc(C(=O)N3CCN(Cc4ccc5c(c4)OCO5)CC3)cc2)cc1 (protonated)
Cc1ccc(S(=O)(=O)[N-]Cc2ccc(C(=O)N3CCN(Cc4ccc5c(c4)OCO5)CC3)cc2)cc1 (3D coordinates assigned)
Cc1ccc(S(=O)(=O)[N-]Cc2ccc(C(=O)N3CCN(Cc4ccc5c(c4)OCO5)CC3)cc2)cc1 (nonaromatic ring conformer: 107.83684930401124 kcal/mol)

>  <smiles>  (51) 
Cc1ccc(S(=O)(=O)NCc2ccc(C(=O)N3CCN(Cc4ccc5c(c4)OCO5)CC3)cc2)cc1

>  <score_type>  (51) 
oracle

>  <origin>  (51) 
adg

>  <m_score__min__energy>  (51) 
-10.59

>  <m_primary>  (51) 
energy

$$$$
51:0
     RDKit          3D

 61 64  0  0  0  0  0  0  0  0999 V2000
   56.9840   24.0930   47.9870 H   0  0  0  0  0  0  0  0  0  0  0  0
   57.6410   24.8640   48.0990 O   0  0  0  0  0  0  0  0  0  0  0  0
   57.9230   25.7830   47.0860 C   0  0  0  0  0  0  0  0  0  0  0  0
   59.0710   26.5750   47.2210 C   0  0  0  0  0  0  0  0  0  0  0  0
   59.7227   26.4441   48.0975 H   0  0  0  0  0  0  0  0  0  0  0  0
   59.3950   27.5250   46.2580 C   0  0  0  0  0  0  0  0  0  0  0  0
   60.2871   28.1557   46.3861 H   0  0  0  0  0  0  0  0  0  0  0  0
   58.5840   27.6790   45.1230 C   0  0  0  0  0  0  0  0  0  0  0  0
   58.8900   28.7160   44.1210 C   0  0  0  0  0  0  0  0  0  0  0  0
   59.4657   28.4163   43.2329 H   0  0  0  0  0  0  0  0  0  0  0  0
   58.5150   29.9980   44.2180 C   0  0  0  0  0  0  0  0  0  0  0  0
   59.1556   30.7563   43.7440 H   0  0  0  0  0  0  0  0  0  0  0  0
   57.3050   30.4620   44.9150 C   0  0  0  0  0  0  0  0  0  0  0  0
   56.2640   29.7500   44.9200 O   0  0  0  0  0  0  0  0  0  0  0  0
   57.3050   31.6840   45.6610 N   0  0  0  0  0  0  0  0  0  0  0  0
   58.2800   32.0930   46.6200 C   0  0  0  0  0  0  0  0  0  0  0  0
   59.1740   31.1780   47.2070 C   0  0  0  0  0  0  0  0  0  0  0  0
   59.0980   30.1070   46.9677 H   0  0  0  0  0  0  0  0  0  0  0  0
   60.1570   31.6250   48.0920 C   0  0  0  0  0  0  0  0  0  0  0  0
   60.8457   30.9042   48.5569 H   0  0  0  0  0  0  0  0  0  0  0  0
   60.2680   32.9890   48.3890 C   0  0  0  0  0  0  0  0  0  0  0  0
   61.4520   33.5590   49.5680 S   0  0  0  0  0  0  0  0  0  0  0  0
   61.9640   34.9100   49.1430 O   0  0  0  0  0  0  0  0  0  0  0  0
   62.6270   32.6240   49.6490 O   0  0  0  0  0  0  0  0  0  0  0  0
   60.6810   33.7000   51.1220 N   0  0  0  0  0  0  0  0  0  0  0  0
   59.4730   33.3130   51.3920 C   0  0  0  0  0  0  0  0  0  0  0  0
   58.5620   34.1190   51.9610 N   0  0  0  0  0  0  0  0  0  0  0  0
   57.4790   33.4130   52.0880 O   0  0  0  0  0  0  0  0  0  0  0  0
   57.6450   32.1960   51.6260 C   0  0  0  0  0  0  0  0  0  0  0  0
   56.6030   31.1310   51.6580 C   0  0  0  0  0  0  0  0  0  0  0  0
   56.3622   30.8849   52.7027 H   0  0  0  0  0  0  0  0  0  0  0  0
   55.6969   31.4891   51.1474 H   0  0  0  0  0  0  0  0  0  0  0  0
   56.9808   30.2329   51.1474 H   0  0  0  0  0  0  0  0  0  0  0  0
   58.9320   32.0610   51.1600 C   0  0  0  0  0  0  0  0  0  0  0  0
   59.4118   31.1774   50.7138 H   0  0  0  0  0  0  0  0  0  0  0  0
   59.3890   33.9040   47.7880 C   0  0  0  0  0  0  0  0  0  0  0  0
   59.4748   34.9769   48.0149 H   0  0  0  0  0  0  0  0  0  0  0  0
   58.4060   33.4560   46.9030 C   0  0  0  0  0  0  0  0  0  0  0  0
   57.7277   34.1791   46.4264 H   0  0  0  0  0  0  0  0  0  0  0  0
   57.4230   26.9030   44.9880 C   0  0  0  0  0  0  0  0  0  0  0  0
   56.7683   27.0499   44.1163 H   0  0  0  0  0  0  0  0  0  0  0  0
   57.0890   25.9430   45.9520 C   0  0  0  0  0  0  0  0  0  0  0  0
   55.5810   25.0390   45.7860 S   0  0  0  0  0  0  0  0  0  0  0  0
   54.3960   25.9600   45.6910 O   0  0  0  0  0  0  0  0  0  0  0  0
   55.6350   24.2070   44.5370 O   0  0  0  0  0  0  0  0  0  0  0  0
   55.4170   24.0100   47.1740 N   0  0  0  0  0  0  0  0  0  0  0  0
   55.2480   22.5870   47.0920 C   0  0  0  0  0  0  0  0  0  0  0  0
   53.9730   21.9970   47.1960 C   0  0  0  0  0  0  0  0  0  0  0  0
   53.0864   22.6326   47.3373 H   0  0  0  0  0  0  0  0  0  0  0  0
   53.8280   20.6130   47.1210 C   0  0  0  0  0  0  0  0  0  0  0  0
   52.8271   20.1614   47.1856 H   0  0  0  0  0  0  0  0  0  0  0  0
   54.9440   19.8040   46.9650 C   0  0  0  0  0  0  0  0  0  0  0  0
   54.8280   18.7113   46.9153 H   0  0  0  0  0  0  0  0  0  0  0  0
   56.2150   20.3760   46.8710 C   0  0  0  0  0  0  0  0  0  0  0  0
   57.0967   19.7291   46.7522 H   0  0  0  0  0  0  0  0  0  0  0  0
   56.3770   21.7720   46.9270 C   0  0  0  0  0  0  0  0  0  0  0  0
   57.6410   22.3800   46.8400 O   0  0  0  0  0  0  0  0  0  0  0  0
   58.3210   22.6500   45.6270 C   0  0  0  0  0  0  0  0  0  0  0  0
   59.3224   23.0476   45.8487 H   0  0  0  0  0  0  0  0  0  0  0  0
   58.4158   21.7213   45.0452 H   0  0  0  0  0  0  0  0  0  0  0  0
   57.7529   23.3908   45.0452 H   0  0  0  0  0  0  0  0  0  0  0  0
  1  2  1  0
  2  3  1  0
  3  4  2  0
  4  5  1  0
  4  6  1  0
  6  7  1  0
  6  8  2  0
  8  9  1  0
  9 10  1  0
  9 11  2  0
 11 12  1  0
 11 13  1  0
 13 14  2  0
 13 15  1  0
 15 16  1  0
 16 17  2  0
 17 18  1  0
 17 19  1  0
 19 20  1  0
 19 21  2  0
 21 22  1  0
 22 23  2  0
 22 24  2  0
 22 25  1  0
 25 26  2  3
 26 27  1  0
 27 28  1  0
 28 29  1  0
 29 30  1  0
 30 31  1  0
 30 32  1  0
 30 33  1  0
 29 34  2  0
 34 35  1  0
 21 36  1  0
 36 37  1  0
 36 38  2  0
 38 39  1  0
  8 40  1  0
 40 41  1  0
 40 42  2  0
 42 43  1  0
 43 44  2  0
 43 45  2  0
 43 46  1  0
 46 47  1  0
 47 48  2  0
 48 49  1  0
 48 50  1  0
 50 51  1  0
 50 52  2  0
 52 53  1  0
 52 54  1  0
 54 55  1  0
 54 56  2  0
 56 57  1  0
 57 58  1  0
 58 59  1  0
 58 60  1  0
 58 61  1  0
 42  3  1  0
 56 47  1  0
 38 16  1  0
 34 26  1  0
M  CHG  3  15  -1  27  -1  46  -1
M  END
>  <UniqueID>  (52) 
51

>  <SMILES>  (52) 
COc1ccccc1[N-]S(=O)(=O)c1cc(/C=C\C(=O)[N-]c2ccc(S(=O)(=O)N=c3cc(C)o[n-]3)cc2)ccc1O

>  <Energy>  (52) 
117.65684858597503

>  <Genealogy>  (52) 
COc1ccccc1[N-]S(=O)(=O)c1cc(C=CC(=O)[N-]c2ccc(S(=O)(=O)N=c3cc(C)o[n-]3)cc2)ccc1O (protonated)
COc1ccccc1[N-]S(=O)(=O)c1cc(/C=C\C(=O)[N-]c2ccc(S(=O)(=O)N=c3cc(C)o[n-]3)cc2)ccc1O (cis-trans isomerization)
COc1ccccc1[N-]S(=O)(=O)c1cc(/C=C\C(=O)[N-]c2ccc(S(=O)(=O)N=c3cc(C)o[n-]3)cc2)ccc1O (3D coordinates assigned)
COc1ccccc1[N-]S(=O)(=O)c1cc(/C=C\C(=O)[N-]c2ccc(S(=O)(=O)N=c3cc(C)o[n-]3)cc2)ccc1O (optimized conformer: 117.65684858597503 kcal/mol)

>  <smiles>  (52) 
COc1ccccc1NS(=O)(=O)c1cc(C=CC(=O)Nc2ccc(S(=O)(=O)N=c3cc(C)o[nH]3)cc2)ccc1O

>  <score_type>  (52) 
oracle

>  <origin>  (52) 
adg

>  <m_score__min__energy>  (52) 
-14.029999999999999

>  <m_primary>  (52) 
energy

$$$$
52:0
     RDKit          3D

 39 41  0  0  0  0  0  0  0  0999 V2000
   59.9980   33.9420   49.5550 C   0  0  0  0  0  0  0  0  0  0  0  0
   61.1570   33.7590   48.6110 C   0  0  0  0  0  0  0  0  0  0  0  0
   62.3880   33.3310   49.1380 C   0  0  0  0  0  0  0  0  0  0  0  0
   63.5010   33.1750   48.3100 C   0  0  0  0  0  0  0  0  0  0  0  0
   63.4010   33.4460   46.9470 C   0  0  0  0  0  0  0  0  0  0  0  0
   62.1820   33.8540   46.4020 C   0  0  0  0  0  0  0  0  0  0  0  0
   61.0430   33.9850   47.2150 C   0  0  0  0  0  0  0  0  0  0  0  0
   59.7560   34.3290   46.5670 C   0  0  0  0  0  0  0  0  0  0  0  0
   59.6690   35.4060   45.9200 O   0  0  0  0  0  0  0  0  0  0  0  0
   58.6010   33.4820   46.6570 N   0  0  0  0  0  0  0  0  0  0  0  0
   58.1950   32.4770   45.7160 C   0  0  0  0  0  0  0  0  0  0  0  0
   57.8550   32.8670   44.4160 C   0  0  0  0  0  0  0  0  0  0  0  0
   57.4360   31.9190   43.4800 C   0  0  0  0  0  0  0  0  0  0  0  0
   57.3540   30.5700   43.8350 C   0  0  0  0  0  0  0  0  0  0  0  0
   57.7100   30.1520   45.1300 C   0  0  0  0  0  0  0  0  0  0  0  0
   57.6010   28.7270   45.5250 C   0  0  0  0  0  0  0  0  0  0  0  0
   56.3860   28.1170   45.5820 N   0  0  0  0  0  0  0  0  0  0  0  0
   56.2660   26.8180   45.9580 C   0  0  0  0  0  0  0  0  0  0  0  0
   55.1240   26.2870   45.9960 O   0  0  0  0  0  0  0  0  0  0  0  0
   57.4050   26.0800   46.3030 C   0  0  0  0  0  0  0  0  0  0  0  0
   57.2580   24.3930   46.7970 Cl  0  0  0  0  0  0  0  0  0  0  0  0
   58.6530   26.7220   46.2450 C   0  0  0  0  0  0  0  0  0  0  0  0
   59.9190   26.0080   46.6060 C   0  0  0  0  0  0  0  0  0  0  0  0
   58.7170   28.0230   45.8590 N   0  0  0  0  0  0  0  0  0  0  0  0
   58.1580   31.1130   46.0550 C   0  0  0  0  0  0  0  0  0  0  0  0
   60.3580   33.8852   50.5929 H   0  0  0  0  0  0  0  0  0  0  0  0
   59.5348   34.9244   49.3808 H   0  0  0  0  0  0  0  0  0  0  0  0
   59.2547   33.1501   49.3808 H   0  0  0  0  0  0  0  0  0  0  0  0
   62.4751   33.1169   50.2134 H   0  0  0  0  0  0  0  0  0  0  0  0
   64.4582   32.8377   48.7342 H   0  0  0  0  0  0  0  0  0  0  0  0
   64.2836   33.3384   46.2994 H   0  0  0  0  0  0  0  0  0  0  0  0
   62.1124   34.0749   45.3267 H   0  0  0  0  0  0  0  0  0  0  0  0
   57.9181   33.9271   44.1294 H   0  0  0  0  0  0  0  0  0  0  0  0
   57.1698   32.2351   42.4606 H   0  0  0  0  0  0  0  0  0  0  0  0
   57.0090   29.8305   43.0973 H   0  0  0  0  0  0  0  0  0  0  0  0
   60.0112   25.9560   47.7009 H   0  0  0  0  0  0  0  0  0  0  0  0
   59.8966   24.9895   46.1911 H   0  0  0  0  0  0  0  0  0  0  0  0
   60.7790   26.5541   46.1911 H   0  0  0  0  0  0  0  0  0  0  0  0
   58.4834   30.7931   47.0559 H   0  0  0  0  0  0  0  0  0  0  0  0
  1  2  1  0
  2  3  2  0
  3  4  1  0
  4  5  2  0
  5  6  1  0
  6  7  2  0
  7  8  1  0
  8  9  2  0
  8 10  1  0
 10 11  1  0
 11 12  2  0
 12 13  1  0
 13 14  2  0
 14 15  1  0
 15 16  1  0
 16 17  2  0
 17 18  1  0
 18 19  2  0
 18 20  1  0
 20 21  1  0
 20 22  2  0
 22 23  1  0
 22 24  1  0
 15 25  2  0
  7  2  1  0
 25 11  1  0
 24 16  1  0
  1 26  1  0
  1 27  1  0
  1 28  1  0
  3 29  1  0
  4 30  1  0
  5 31  1  0
  6 32  1  0
 12 33  1  0
 13 34  1  0
 14 35  1  0
 23 36  1  0
 23 37  1  0
 23 38  1  0
 25 39  1  0
M  CHG  2  10  -1  24  -1
M  END
>  <UniqueID>  (53) 
52

>  <SMILES>  (53) 
Cc1ccccc1C(=O)[N-]c1cccc(-c2nc(=O)c(Cl)c(C)[n-]2)c1

>  <Energy>  (53) 
52.50271065113593

>  <Genealogy>  (53) 
Cc1ccccc1C(=O)[N-]c1cccc(-c2nc(=O)c(Cl)c(C)[n-]2)c1 (protonated)
Cc1ccccc1C(=O)[N-]c1cccc(-c2nc(=O)c(Cl)c(C)[n-]2)c1 (3D coordinates assigned)
Cc1ccccc1C(=O)[N-]c1cccc(-c2nc(=O)c(Cl)c(C)[n-]2)c1 (optimized conformer: 52.50271065113593 kcal/mol)

>  <smiles>  (53) 
Cc1ccccc1C(=O)Nc1cccc(-c2nc(=O)c(Cl)c(C)[nH]2)c1

>  <score_type>  (53) 
oracle

>  <origin>  (53) 
adg

>  <m_score__min__energy>  (53) 
-11.44

>  <m_primary>  (53) 
energy

$$$$
53:0
     RDKit          3D

 53 56  0  0  0  0  0  0  0  0999 V2000
   58.8130   31.1850   49.1830 O   0  0  0  0  0  0  0  0  0  0  0  0
   58.9030   32.3670   48.7500 C   0  0  0  0  0  0  0  0  0  0  0  0
   59.3590   33.4110   49.6170 N   0  0  0  0  0  0  0  0  0  0  0  0
   60.2580   34.4790   49.1980 C   0  0  0  0  0  0  0  0  0  0  0  0
   61.4540   33.8850   48.5080 C   0  0  0  0  0  0  0  0  0  0  0  0
   61.6170   34.0110   47.1170 C   0  0  0  0  0  0  0  0  0  0  0  0
   62.7610   33.5010   46.4930 C   0  0  0  0  0  0  0  0  0  0  0  0
   63.7530   32.8730   47.2530 C   0  0  0  0  0  0  0  0  0  0  0  0
   63.6010   32.7510   48.6380 C   0  0  0  0  0  0  0  0  0  0  0  0
   62.4590   33.2590   49.2650 C   0  0  0  0  0  0  0  0  0  0  0  0
   58.5480   32.6750   47.3490 C   0  0  0  0  0  0  0  0  0  0  0  0
   58.1740   33.9770   46.9730 C   0  0  0  0  0  0  0  0  0  0  0  0
   57.8120   34.2510   45.6510 C   0  0  0  0  0  0  0  0  0  0  0  0
   57.7860   33.2270   44.7000 C   0  0  0  0  0  0  0  0  0  0  0  0
   58.1310   31.9160   45.0690 C   0  0  0  0  0  0  0  0  0  0  0  0
   58.0480   30.8230   44.1500 N   0  0  0  0  0  0  0  0  0  0  0  0
   56.7600   29.6670   44.0890 S   0  0  0  0  0  0  0  0  0  0  0  0
   56.4050   29.3630   42.6610 O   0  0  0  0  0  0  0  0  0  0  0  0
   55.5500   30.2050   44.7980 O   0  0  0  0  0  0  0  0  0  0  0  0
   57.3140   28.2110   44.9030 C   0  0  0  0  0  0  0  0  0  0  0  0
   58.6330   27.7720   44.7430 C   0  0  0  0  0  0  0  0  0  0  0  0
   59.0410   26.5560   45.2940 C   0  0  0  0  0  0  0  0  0  0  0  0
   58.1250   25.7480   45.9910 C   0  0  0  0  0  0  0  0  0  0  0  0
   58.5090   24.4670   46.5100 N   0  0  0  0  0  0  0  0  0  0  0  0
   57.7650   23.2480   46.3680 C   0  0  0  0  0  0  0  0  0  0  0  0
   57.3400   22.6740   47.4050 O   0  0  0  0  0  0  0  0  0  0  0  0
   57.4440   22.6720   45.0480 C   0  0  0  0  0  0  0  0  0  0  0  0
   57.8870   21.4570   44.5360 C   0  0  0  0  0  0  0  0  0  0  0  0
   57.4180   21.1930   43.2440 C   0  0  0  0  0  0  0  0  0  0  0  0
   56.6230   22.2050   42.7230 C   0  0  0  0  0  0  0  0  0  0  0  0
   56.4960   23.4220   43.8770 S   0  0  0  0  0  0  0  0  0  0  0  0
   56.8120   26.2050   46.1860 C   0  0  0  0  0  0  0  0  0  0  0  0
   55.9110   25.4280   46.9120 O   0  0  0  0  0  0  0  0  0  0  0  0
   56.4070   27.4290   45.6350 C   0  0  0  0  0  0  0  0  0  0  0  0
   58.5390   31.6550   46.3820 C   0  0  0  0  0  0  0  0  0  0  0  0
   59.7310   35.1511   48.5048 H   0  0  0  0  0  0  0  0  0  0  0  0
   60.5882   35.0476   50.0799 H   0  0  0  0  0  0  0  0  0  0  0  0
   60.8428   34.5121   46.5175 H   0  0  0  0  0  0  0  0  0  0  0  0
   62.8802   33.5941   45.4035 H   0  0  0  0  0  0  0  0  0  0  0  0
   64.6529   32.4749   46.7614 H   0  0  0  0  0  0  0  0  0  0  0  0
   64.3807   32.2549   49.2347 H   0  0  0  0  0  0  0  0  0  0  0  0
   62.3468   33.1682   50.3555 H   0  0  0  0  0  0  0  0  0  0  0  0
   58.1662   34.7828   47.7217 H   0  0  0  0  0  0  0  0  0  0  0  0
   57.5463   35.2773   45.3577 H   0  0  0  0  0  0  0  0  0  0  0  0
   57.4953   33.4476   43.6623 H   0  0  0  0  0  0  0  0  0  0  0  0
   59.3510   28.3873   44.1810 H   0  0  0  0  0  0  0  0  0  0  0  0
   60.0850   26.2279   45.1824 H   0  0  0  0  0  0  0  0  0  0  0  0
   58.5421   20.7705   45.0923 H   0  0  0  0  0  0  0  0  0  0  0  0
   57.6567   20.2710   42.6935 H   0  0  0  0  0  0  0  0  0  0  0  0
   56.1565   22.2100   41.7269 H   0  0  0  0  0  0  0  0  0  0  0  0
   56.1760   24.5300   47.2940 H   0  0  0  0  0  0  0  0  0  0  0  0
   55.3736   27.7781   45.7771 H   0  0  0  0  0  0  0  0  0  0  0  0
   58.8565   30.6393   46.6606 H   0  0  0  0  0  0  0  0  0  0  0  0
  1  2  2  0
  2  3  1  0
  3  4  1  0
  4  5  1  0
  5  6  2  0
  6  7  1  0
  7  8  2  0
  8  9  1  0
  9 10  2  0
  2 11  1  0
 11 12  2  0
 12 13  1  0
 13 14  2  0
 14 15  1  0
 15 16  1  0
 16 17  1  0
 17 18  2  0
 17 19  2  0
 17 20  1  0
 20 21  2  0
 21 22  1  0
 22 23  2  0
 23 24  1  0
 24 25  1  0
 25 26  2  0
 25 27  1  0
 27 28  2  0
 28 29  1  0
 29 30  2  0
 30 31  1  0
 23 32  1  0
 32 33  1  0
 32 34  2  0
 15 35  2  0
 10  5  1  0
 35 11  1  0
 34 20  1  0
 31 27  1  0
  4 36  1  0
  4 37  1  0
  6 38  1  0
  7 39  1  0
  8 40  1  0
  9 41  1  0
 10 42  1  0
 12 43  1  0
 13 44  1  0
 14 45  1  0
 21 46  1  0
 22 47  1  0
 28 48  1  0
 29 49  1  0
 30 50  1  0
 33 51  1  0
 34 52  1  0
 35 53  1  0
M  CHG  3   3  -1  16  -1  24  -1
M  END
>  <UniqueID>  (54) 
53

>  <SMILES>  (54) 
O=C([N-]Cc1ccccc1)c1cccc([N-]S(=O)(=O)c2ccc([N-]C(=O)c3cccs3)c(O)c2)c1

>  <Energy>  (54) 
93.63594861810016

>  <Genealogy>  (54) 
O=C([N-]Cc1ccccc1)c1cccc([N-]S(=O)(=O)c2ccc([N-]C(=O)c3cccs3)c(O)c2)c1 (protonated)
O=C([N-]Cc1ccccc1)c1cccc([N-]S(=O)(=O)c2ccc([N-]C(=O)c3cccs3)c(O)c2)c1 (3D coordinates assigned)
O=C([N-]Cc1ccccc1)c1cccc([N-]S(=O)(=O)c2ccc([N-]C(=O)c3cccs3)c(O)c2)c1 (optimized conformer: 93.63594861810016 kcal/mol)

>  <smiles>  (54) 
O=C(NCc1ccccc1)c1cccc(NS(=O)(=O)c2ccc(NC(=O)c3cccs3)c(O)c2)c1

>  <score_type>  (54) 
oracle

>  <origin>  (54) 
adg

>  <m_score__min__energy>  (54) 
-14.1

>  <m_primary>  (54) 
energy

$$$$
54:0
     RDKit          3D

 43 46  0  0  0  0  0  0  0  0999 V2000
   57.3770   30.6310   54.0350 O   0  0  0  0  0  0  0  0  0  0  0  0
   57.1730   30.6280   52.7900 C   0  0  0  0  0  0  0  0  0  0  0  0
   56.2050   29.7380   52.2220 N   0  0  0  0  0  0  0  0  0  0  0  0
   55.0090   29.2910   52.9260 C   0  0  0  0  0  0  0  0  0  0  0  0
   53.8410   30.1740   52.5820 C   0  0  0  0  0  0  0  0  0  0  0  0
   53.7350   30.7320   51.2970 C   0  0  0  0  0  0  0  0  0  0  0  0
   52.6630   31.5710   50.9780 C   0  0  0  0  0  0  0  0  0  0  0  0
   51.6920   31.8630   51.9410 C   0  0  0  0  0  0  0  0  0  0  0  0
   50.6270   32.6980   51.6230 O   0  0  0  0  0  0  0  0  0  0  0  0
   51.7920   31.3160   53.2240 C   0  0  0  0  0  0  0  0  0  0  0  0
   52.8630   30.4760   53.5460 C   0  0  0  0  0  0  0  0  0  0  0  0
   57.9290   31.5350   51.9090 C   0  0  0  0  0  0  0  0  0  0  0  0
   58.6340   32.6310   52.4180 C   0  0  0  0  0  0  0  0  0  0  0  0
   59.3390   33.4490   51.5420 C   0  0  0  0  0  0  0  0  0  0  0  0
   59.3260   33.1670   50.1770 C   0  0  0  0  0  0  0  0  0  0  0  0
   59.9970   33.8890   49.3900 O   0  0  0  0  0  0  0  0  0  0  0  0
   58.6070   32.0950   49.7120 N   0  0  0  0  0  0  0  0  0  0  0  0
   58.5530   31.7660   48.3110 C   0  0  0  0  0  0  0  0  0  0  0  0
   58.9210   30.4870   47.8580 C   0  0  0  0  0  0  0  0  0  0  0  0
   58.8910   30.1800   46.4950 C   0  0  0  0  0  0  0  0  0  0  0  0
   58.5040   31.1520   45.5620 C   0  0  0  0  0  0  0  0  0  0  0  0
   58.4710   30.8550   44.1900 C   0  0  0  0  0  0  0  0  0  0  0  0
   58.0870   31.8340   43.2690 C   0  0  0  0  0  0  0  0  0  0  0  0
   57.7370   33.1130   43.7080 C   0  0  0  0  0  0  0  0  0  0  0  0
   57.7670   33.4230   45.0710 C   0  0  0  0  0  0  0  0  0  0  0  0
   58.1480   32.4480   46.0060 C   0  0  0  0  0  0  0  0  0  0  0  0
   58.1820   32.7460   47.3770 C   0  0  0  0  0  0  0  0  0  0  0  0
   57.9440   31.3090   50.5680 N   0  0  0  0  0  0  0  0  0  0  0  0
   54.7804   28.2559   52.6323 H   0  0  0  0  0  0  0  0  0  0  0  0
   55.1907   29.3434   54.0096 H   0  0  0  0  0  0  0  0  0  0  0  0
   54.4991   30.5077   50.5382 H   0  0  0  0  0  0  0  0  0  0  0  0
   52.5834   32.0016   49.9689 H   0  0  0  0  0  0  0  0  0  0  0  0
   51.0277   31.5465   53.9807 H   0  0  0  0  0  0  0  0  0  0  0  0
   52.9405   30.0500   54.5572 H   0  0  0  0  0  0  0  0  0  0  0  0
   58.6306   32.8429   53.4974 H   0  0  0  0  0  0  0  0  0  0  0  0
   59.9031   34.3128   51.9236 H   0  0  0  0  0  0  0  0  0  0  0  0
   59.2352   29.7214   48.5826 H   0  0  0  0  0  0  0  0  0  0  0  0
   59.1718   29.1728   46.1533 H   0  0  0  0  0  0  0  0  0  0  0  0
   58.7479   29.8499   43.8392 H   0  0  0  0  0  0  0  0  0  0  0  0
   58.0604   31.5964   42.1953 H   0  0  0  0  0  0  0  0  0  0  0  0
   57.4366   33.8794   42.9784 H   0  0  0  0  0  0  0  0  0  0  0  0
   57.4917   34.4323   45.4110 H   0  0  0  0  0  0  0  0  0  0  0  0
   57.9157   33.7558   47.7225 H   0  0  0  0  0  0  0  0  0  0  0  0
  1  2  2  0
  2  3  1  0
  3  4  1  0
  4  5  1  0
  5  6  2  0
  6  7  1  0
  7  8  2  0
  8  9  1  0
  8 10  1  0
 10 11  2  0
  2 12  1  0
 12 13  1  0
 13 14  2  0
 14 15  1  0
 15 16  2  0
 15 17  1  0
 17 18  1  0
 18 19  2  0
 19 20  1  0
 20 21  2  0
 21 22  1  0
 22 23  2  0
 23 24  1  0
 24 25  2  0
 25 26  1  0
 26 27  2  0
 17 28  1  0
 11  5  1  0
 28 12  2  0
 27 18  1  0
 26 21  1  0
  4 29  1  0
  4 30  1  0
  6 31  1  0
  7 32  1  0
 10 33  1  0
 11 34  1  0
 13 35  1  0
 14 36  1  0
 19 37  1  0
 20 38  1  0
 22 39  1  0
 23 40  1  0
 24 41  1  0
 25 42  1  0
 27 43  1  0
M  CHG  2   3  -1   9  -1
M  END
>  <UniqueID>  (55) 
54

>  <SMILES>  (55) 
O=C([N-]Cc1ccc([O-])cc1)c1ccc(=O)n(-c2ccc3ccccc3c2)n1

>  <Energy>  (55) 
56.22094168082105

>  <Genealogy>  (55) 
O=C([N-]Cc1ccc([O-])cc1)c1ccc(=O)n(-c2ccc3ccccc3c2)n1 (protonated)
O=C([N-]Cc1ccc([O-])cc1)c1ccc(=O)n(-c2ccc3ccccc3c2)n1 (3D coordinates assigned)
O=C([N-]Cc1ccc([O-])cc1)c1ccc(=O)n(-c2ccc3ccccc3c2)n1 (optimized conformer: 56.22094168082105 kcal/mol)

>  <smiles>  (55) 
O=C(NCc1ccc(O)cc1)c1ccc(=O)n(-c2ccc3ccccc3c2)n1

>  <score_type>  (55) 
oracle

>  <origin>  (55) 
adg

>  <m_score__min__energy>  (55) 
-14.43

>  <m_primary>  (55) 
energy

$$$$
55:0
     RDKit          3D

 50 52  0  0  0  0  0  0  0  0999 V2000
   62.6290   33.5880   48.6440 C   0  0  0  0  0  0  0  0  0  0  0  0
   63.4530   33.0200   47.5640 N   0  0  0  0  0  0  0  0  0  0  0  0
   63.3620   33.8870   46.3760 C   0  0  0  0  0  0  0  0  0  0  0  0
   63.0070   31.6450   47.2510 C   0  0  0  0  0  0  0  0  0  0  0  0
   61.5110   31.4470   47.5800 C   0  0  0  0  0  0  0  0  0  0  0  0
   60.8350   30.4460   46.6270 C   0  0  0  0  0  0  0  0  0  0  0  0
   59.2920   30.3450   46.7700 C   0  0  1  0  0  0  0  0  0  0  0  0
   58.4990   31.4840   46.1450 C   0  0  0  0  0  0  0  0  0  0  0  0
   57.3990   31.2290   45.5840 O   0  0  0  0  0  0  0  0  0  0  0  0
   58.9100   32.8990   46.2470 C   0  0  0  0  0  0  0  0  0  0  0  0
   59.0710   33.6400   45.0660 C   0  0  0  0  0  0  0  0  0  0  0  0
   59.4450   34.9860   45.1210 C   0  0  0  0  0  0  0  0  0  0  0  0
   59.6440   35.6060   46.3560 C   0  0  0  0  0  0  0  0  0  0  0  0
   59.4600   34.8850   47.5380 C   0  0  0  0  0  0  0  0  0  0  0  0
   59.0880   33.5360   47.4930 C   0  0  0  0  0  0  0  0  0  0  0  0
   58.8070   32.6970   49.0150 Cl  0  0  0  0  0  0  0  0  0  0  0  0
   58.8030   28.9960   46.3560 N   0  0  0  0  0  0  0  0  0  0  0  0
   58.4830   28.0730   47.3290 C   0  0  0  0  0  0  0  0  0  0  0  0
   58.5980   28.3620   48.5520 O   0  0  0  0  0  0  0  0  0  0  0  0
   58.0430   26.8300   46.9940 N   0  0  0  0  0  0  0  0  0  0  0  0
   57.9210   26.4460   45.6980 C   0  0  0  0  0  0  0  0  0  0  0  0
   57.4650   25.1570   45.3780 C   0  0  0  0  0  0  0  0  0  0  0  0
   57.3530   24.7640   44.0420 C   0  0  0  0  0  0  0  0  0  0  0  0
   57.6960   25.6510   43.0190 C   0  0  0  0  0  0  0  0  0  0  0  0
   58.1510   26.9360   43.3280 C   0  0  0  0  0  0  0  0  0  0  0  0
   58.2650   27.3430   44.6730 C   0  0  0  0  0  0  0  0  0  0  0  0
   58.7190   28.6250   45.0290 C   0  0  0  0  0  0  0  0  0  0  0  0
   59.0580   29.4280   44.1150 O   0  0  0  0  0  0  0  0  0  0  0  0
   63.0501   33.2977   49.6179 H   0  0  0  0  0  0  0  0  0  0  0  0
   62.6204   34.6848   48.5605 H   0  0  0  0  0  0  0  0  0  0  0  0
   61.6009   33.2058   48.5605 H   0  0  0  0  0  0  0  0  0  0  0  0
   63.2521   34.9343   46.6939 H   0  0  0  0  0  0  0  0  0  0  0  0
   64.2762   33.7807   45.7736 H   0  0  0  0  0  0  0  0  0  0  0  0
   62.4898   33.5932   45.7736 H   0  0  0  0  0  0  0  0  0  0  0  0
   63.1659   31.4528   46.1797 H   0  0  0  0  0  0  0  0  0  0  0  0
   63.5914   30.9442   47.8653 H   0  0  0  0  0  0  0  0  0  0  0  0
   61.4213   31.0717   48.6101 H   0  0  0  0  0  0  0  0  0  0  0  0
   61.0076   32.4181   47.4630 H   0  0  0  0  0  0  0  0  0  0  0  0
   61.0631   30.7499   45.5947 H   0  0  0  0  0  0  0  0  0  0  0  0
   61.2340   29.4547   46.8880 H   0  0  0  0  0  0  0  0  0  0  0  0
   59.0919   30.4689   47.8445 H   0  0  0  0  0  0  0  0  0  0  0  0
   58.9019   33.1589   44.0913 H   0  0  0  0  0  0  0  0  0  0  0  0
   59.5825   35.5568   44.1908 H   0  0  0  0  0  0  0  0  0  0  0  0
   59.9459   36.6629   46.3982 H   0  0  0  0  0  0  0  0  0  0  0  0
   59.6081   35.3796   48.5093 H   0  0  0  0  0  0  0  0  0  0  0  0
   57.8010   26.1580   47.7600 H   0  0  0  0  0  0  0  0  0  0  0  0
   57.1954   24.4552   46.1810 H   0  0  0  0  0  0  0  0  0  0  0  0
   56.9940   23.7540   43.7952 H   0  0  0  0  0  0  0  0  0  0  0  0
   57.6079   25.3377   41.9682 H   0  0  0  0  0  0  0  0  0  0  0  0
   58.4208   27.6315   42.5197 H   0  0  0  0  0  0  0  0  0  0  0  0
  1  2  1  0
  2  3  1  0
  2  4  1  0
  4  5  1  0
  5  6  1  0
  6  7  1  0
  7  8  1  0
  8  9  2  0
  8 10  1  0
 10 11  2  0
 11 12  1  0
 12 13  2  0
 13 14  1  0
 14 15  2  0
 15 16  1  0
  7 17  1  0
 17 18  1  0
 18 19  2  0
 18 20  1  0
 20 21  1  0
 21 22  2  0
 22 23  1  0
 23 24  2  0
 24 25  1  0
 25 26  2  0
 26 27  1  0
 27 28  2  0
 15 10  1  0
 27 17  1  0
 26 21  1  0
  1 29  1  0
  1 30  1  0
  1 31  1  0
  3 32  1  0
  3 33  1  0
  3 34  1  0
  4 35  1  0
  4 36  1  0
  5 37  1  0
  5 38  1  0
  6 39  1  0
  6 40  1  0
  7 41  1  1
 11 42  1  0
 12 43  1  0
 13 44  1  0
 14 45  1  0
 20 46  1  0
 22 47  1  0
 23 48  1  0
 24 49  1  0
 25 50  1  0
M  END
>  <UniqueID>  (56) 
55

>  <SMILES>  (56) 
CN(C)CCC[C@@H](C(=O)c1ccccc1Cl)n1c(=O)[nH]c2ccccc2c1=O

>  <Energy>  (56) 
71.70426079077282

>  <Genealogy>  (56) 
CN(C)CCC[C@@H](C(=O)c1ccccc1Cl)n1c(=O)[nH]c2ccccc2c1=O (chirality)
CN(C)CCC[C@@H](C(=O)c1ccccc1Cl)n1c(=O)[nH]c2ccccc2c1=O (3D coordinates assigned)
CN(C)CCC[C@@H](C(=O)c1ccccc1Cl)n1c(=O)[nH]c2ccccc2c1=O (optimized conformer: 71.70426079077282 kcal/mol)

>  <smiles>  (56) 
CN(C)CCCC(C(=O)c1ccccc1Cl)n1c(=O)[nH]c2ccccc2c1=O

>  <score_type>  (56) 
oracle

>  <origin>  (56) 
adg

>  <m_score__min__energy>  (56) 
-8.1500000000000004

>  <m_primary>  (56) 
energy

$$$$
56:0
     RDKit          3D

 33 34  0  0  0  0  0  0  0  0999 V2000
   58.3280   32.1290   45.2090 C   0  0  0  0  0  0  0  0  0  0  0  0
   58.5140   30.9320   44.2750 C   0  0  0  0  0  0  0  0  0  0  0  0
   57.7160   29.7280   44.7490 C   0  0  0  0  0  0  0  0  0  0  0  0
   58.3310   28.5250   45.1890 C   0  0  0  0  0  0  0  0  0  0  0  0
   60.1400   28.3750   45.2400 S   0  0  0  0  0  0  0  0  0  0  0  0
   60.3440   29.2930   46.7730 C   0  0  0  0  0  0  0  0  0  0  0  0
   61.0890   30.4800   46.8070 C   0  0  0  0  0  0  0  0  0  0  0  0
   61.2550   31.1710   48.0120 C   0  0  0  0  0  0  0  0  0  0  0  0
   60.6930   30.6700   49.1890 C   0  0  0  0  0  0  0  0  0  0  0  0
   59.9710   29.4740   49.1650 C   0  0  0  0  0  0  0  0  0  0  0  0
   59.8050   28.7820   47.9610 C   0  0  0  0  0  0  0  0  0  0  0  0
   57.5190   27.4530   45.6570 C   0  0  0  0  0  0  0  0  0  0  0  0
   58.1170   26.1970   46.2670 C   0  0  0  0  0  0  0  0  0  0  0  0
   57.2050   25.6110   47.1560 O   0  0  0  0  0  0  0  0  0  0  0  0
   56.1130   27.6030   45.6200 C   0  0  0  0  0  0  0  0  0  0  0  0
   55.2430   26.5940   46.0420 O   0  0  0  0  0  0  0  0  0  0  0  0
   55.5670   28.7590   45.1780 N   0  0  0  0  0  0  0  0  0  0  0  0
   56.3100   29.8090   44.7600 C   0  0  0  0  0  0  0  0  0  0  0  0
   55.7210   30.8610   44.3920 O   0  0  0  0  0  0  0  0  0  0  0  0
   58.3806   31.7902   46.2542 H   0  0  0  0  0  0  0  0  0  0  0  0
   59.1223   32.8667   45.0222 H   0  0  0  0  0  0  0  0  0  0  0  0
   57.3473   32.5909   45.0222 H   0  0  0  0  0  0  0  0  0  0  0  0
   58.1764   31.2100   43.2657 H   0  0  0  0  0  0  0  0  0  0  0  0
   59.5798   30.6600   44.2696 H   0  0  0  0  0  0  0  0  0  0  0  0
   61.5441   30.8689   45.8842 H   0  0  0  0  0  0  0  0  0  0  0  0
   61.8284   32.1095   48.0329 H   0  0  0  0  0  0  0  0  0  0  0  0
   60.8190   31.2173   50.1348 H   0  0  0  0  0  0  0  0  0  0  0  0
   59.5333   29.0768   50.0927 H   0  0  0  0  0  0  0  0  0  0  0  0
   59.2491   27.8329   47.9467 H   0  0  0  0  0  0  0  0  0  0  0  0
   58.3550   25.4815   45.4661 H   0  0  0  0  0  0  0  0  0  0  0  0
   59.0326   26.4641   46.8151 H   0  0  0  0  0  0  0  0  0  0  0  0
   56.4040   25.3730   46.6210 H   0  0  0  0  0  0  0  0  0  0  0  0
   55.1410   26.3020   47.0050 H   0  0  0  0  0  0  0  0  0  0  0  0
  1  2  1  0
  2  3  1  0
  3  4  2  0
  4  5  1  0
  5  6  1  0
  6  7  2  0
  7  8  1  0
  8  9  2  0
  9 10  1  0
 10 11  2  0
  4 12  1  0
 12 13  1  0
 13 14  1  0
 12 15  2  0
 15 16  1  0
 15 17  1  0
 17 18  1  0
 18 19  2  0
 18  3  1  0
 11  6  1  0
  1 20  1  0
  1 21  1  0
  1 22  1  0
  2 23  1  0
  2 24  1  0
  7 25  1  0
  8 26  1  0
  9 27  1  0
 10 28  1  0
 11 29  1  0
 13 30  1  0
 13 31  1  0
 14 32  1  0
 16 33  1  0
M  CHG  1  17  -1
M  END
>  <UniqueID>  (57) 
56

>  <SMILES>  (57) 
CCc1c(Sc2ccccc2)c(CO)c(O)[n-]c1=O

>  <Energy>  (57) 
35.849996446114226

>  <Genealogy>  (57) 
CCc1c(Sc2ccccc2)c(CO)c(O)[n-]c1=O (protonated)
CCc1c(Sc2ccccc2)c(CO)c(O)[n-]c1=O (3D coordinates assigned)
CCc1c(Sc2ccccc2)c(CO)c(O)[n-]c1=O (optimized conformer: 35.849996446114226 kcal/mol)

>  <smiles>  (57) 
CCc1c(Sc2ccccc2)c(CO)c(O)[nH]c1=O

>  <score_type>  (57) 
oracle

>  <origin>  (57) 
adg

>  <m_score__min__energy>  (57) 
-10.09

>  <m_primary>  (57) 
energy

$$$$
57:0
     RDKit          3D

 39 42  0  0  0  0  0  0  0  0999 V2000
   58.7690   29.1400   47.3330 C   0  0  0  0  0  0  0  0  0  0  0  0
   58.3980   30.2200   46.4190 N   0  0  0  0  0  0  0  0  0  0  0  0
   58.5250   31.5470   46.6700 C   0  0  0  0  0  0  0  0  0  0  0  0
   59.0290   32.0500   47.8380 N   0  0  0  0  0  0  0  0  0  0  0  0
   59.1580   33.3770   48.1050 C   0  0  0  0  0  0  0  0  0  0  0  0
   59.6600   33.7520   49.2450 N   0  0  0  0  0  0  0  0  0  0  0  0
   59.6160   32.9810   50.4530 C   0  0  0  0  0  0  0  0  0  0  0  0
   58.4350   32.3060   50.7890 C   0  0  0  0  0  0  0  0  0  0  0  0
   58.3600   31.5510   51.9670 C   0  0  0  0  0  0  0  0  0  0  0  0
   56.8750   30.7020   52.3830 S   0  0  0  0  0  0  0  0  0  0  0  0
   55.6090   31.2070   51.3190 N   0  0  0  0  0  0  0  0  0  0  0  0
   56.4940   31.0100   53.8040 O   0  0  0  0  0  0  0  0  0  0  0  0
   57.0810   29.2190   52.2500 O   0  0  0  0  0  0  0  0  0  0  0  0
   59.4660   31.4950   52.8250 C   0  0  0  0  0  0  0  0  0  0  0  0
   60.6380   32.1850   52.5060 C   0  0  0  0  0  0  0  0  0  0  0  0
   60.7190   32.9320   51.3270 C   0  0  0  0  0  0  0  0  0  0  0  0
   62.1920   33.8320   50.9870 Cl  0  0  0  0  0  0  0  0  0  0  0  0
   58.6750   34.4940   46.9040 S   0  0  0  0  0  0  0  0  0  0  0  0
   58.0810   33.7030   45.5350 C   0  0  0  0  0  0  0  0  0  0  0  0
   57.6700   34.3510   44.5370 O   0  0  0  0  0  0  0  0  0  0  0  0
   58.0780   32.3080   45.5840 C   0  0  0  0  0  0  0  0  0  0  0  0
   57.6600   31.3880   44.6370 C   0  0  0  0  0  0  0  0  0  0  0  0
   57.1230   31.5750   43.3620 C   0  0  0  0  0  0  0  0  0  0  0  0
   56.7870   30.4400   42.6130 C   0  0  0  0  0  0  0  0  0  0  0  0
   56.9910   29.1510   43.1400 C   0  0  0  0  0  0  0  0  0  0  0  0
   57.5330   28.9710   44.4260 C   0  0  0  0  0  0  0  0  0  0  0  0
   57.7650   27.1700   45.0380 Br  0  0  0  0  0  0  0  0  0  0  0  0
   57.8670   30.1250   45.1690 C   0  0  0  0  0  0  0  0  0  0  0  0
   58.6515   29.4822   48.3718 H   0  0  0  0  0  0  0  0  0  0  0  0
   58.1179   28.2710   47.1573 H   0  0  0  0  0  0  0  0  0  0  0  0
   59.8167   28.8546   47.1573 H   0  0  0  0  0  0  0  0  0  0  0  0
   57.5612   32.3692   50.1238 H   0  0  0  0  0  0  0  0  0  0  0  0
   55.0420   31.9180   51.8340 H   0  0  0  0  0  0  0  0  0  0  0  0
   56.0620   31.7040   50.5200 H   0  0  0  0  0  0  0  0  0  0  0  0
   59.4114   30.9061   53.7525 H   0  0  0  0  0  0  0  0  0  0  0  0
   61.5016   32.1404   53.1859 H   0  0  0  0  0  0  0  0  0  0  0  0
   56.9680   32.5858   42.9567 H   0  0  0  0  0  0  0  0  0  0  0  0
   56.3607   30.5570   41.6057 H   0  0  0  0  0  0  0  0  0  0  0  0
   56.7226   28.2708   42.5373 H   0  0  0  0  0  0  0  0  0  0  0  0
  1  2  1  0
  2  3  1  0
  3  4  1  0
  4  5  1  0
  5  6  2  3
  6  7  1  0
  7  8  2  0
  8  9  1  0
  9 10  1  0
 10 11  1  0
 10 12  2  0
 10 13  2  0
  9 14  2  0
 14 15  1  0
 15 16  2  0
 16 17  1  0
  5 18  1  0
 18 19  1  0
 19 20  2  0
 19 21  1  0
 21 22  1  0
 22 23  2  0
 23 24  1  0
 24 25  2  0
 25 26  1  0
 26 27  1  0
 26 28  2  0
 28  2  1  0
 21  3  2  0
 28 22  1  0
 16  7  1  0
  1 29  1  0
  1 30  1  0
  1 31  1  0
  8 32  1  0
 11 33  1  0
 11 34  1  0
 14 35  1  0
 15 36  1  0
 23 37  1  0
 24 38  1  0
 25 39  1  0
M  CHG  1   4  -1
M  END
>  <UniqueID>  (58) 
57

>  <SMILES>  (58) 
Cn1c2[n-]c(=Nc3cc(S(N)(=O)=O)ccc3Cl)sc(=O)c2c2cccc(Br)c21

>  <Energy>  (58) 
96.69823514685211

>  <Genealogy>  (58) 
Cn1c2[n-]c(=Nc3cc(S(N)(=O)=O)ccc3Cl)sc(=O)c2c2cccc(Br)c21 (protonated)
Cn1c2[n-]c(=Nc3cc(S(N)(=O)=O)ccc3Cl)sc(=O)c2c2cccc(Br)c21 (3D coordinates assigned)
Cn1c2[n-]c(=Nc3cc(S(N)(=O)=O)ccc3Cl)sc(=O)c2c2cccc(Br)c21 (optimized conformer: 96.69823514685211 kcal/mol)

>  <smiles>  (58) 
Cn1c2[nH]c(=Nc3cc(S(N)(=O)=O)ccc3Cl)sc(=O)c2c2cccc(Br)c21

>  <score_type>  (58) 
oracle

>  <origin>  (58) 
adg

>  <m_score__min__energy>  (58) 
-11.359999999999999

>  <m_primary>  (58) 
energy

$$$$
58:0
     RDKit          3D

 39 41  0  0  0  0  0  0  0  0999 V2000
   62.8860   33.4550   47.0520 C   0  0  0  0  0  0  0  0  0  0  0  0
   61.6010   33.8210   47.5410 O   0  0  0  0  0  0  0  0  0  0  0  0
   60.4200   33.7910   46.7810 C   0  0  0  0  0  0  0  0  0  0  0  0
   60.0120   34.8910   45.9990 C   0  0  0  0  0  0  0  0  0  0  0  0
   58.8270   34.8340   45.2620 C   0  0  0  0  0  0  0  0  0  0  0  0
   58.0350   33.6870   45.2980 C   0  0  0  0  0  0  0  0  0  0  0  0
   58.4260   32.5900   46.0670 C   0  0  0  0  0  0  0  0  0  0  0  0
   59.6220   32.6260   46.8050 C   0  0  0  0  0  0  0  0  0  0  0  0
   60.0330   31.4280   47.6260 C   0  0  0  0  0  0  0  0  0  0  0  0
   60.2900   30.2720   46.7650 N   0  0  0  0  0  0  0  0  0  0  0  0
   59.3360   29.2270   46.4970 C   0  0  0  0  0  0  0  0  0  0  0  0
   59.1020   28.1830   47.4080 C   0  0  0  0  0  0  0  0  0  0  0  0
   58.1640   27.1870   47.1210 C   0  0  0  0  0  0  0  0  0  0  0  0
   57.4490   27.2030   45.9090 C   0  0  0  0  0  0  0  0  0  0  0  0
   56.4500   26.1400   45.6270 C   0  0  0  0  0  0  0  0  0  0  0  0
   56.8060   24.9310   45.0070 C   0  0  0  0  0  0  0  0  0  0  0  0
   55.8260   23.9690   44.7700 C   0  0  0  0  0  0  0  0  0  0  0  0
   54.5130   24.2260   45.1620 C   0  0  0  0  0  0  0  0  0  0  0  0
   53.6090   23.3730   44.9600 O   0  0  0  0  0  0  0  0  0  0  0  0
   54.2140   25.4030   45.7670 N   0  0  0  0  0  0  0  0  0  0  0  0
   55.1510   26.3260   45.9920 N   0  0  0  0  0  0  0  0  0  0  0  0
   57.6860   28.2500   45.0000 C   0  0  0  0  0  0  0  0  0  0  0  0
   58.6240   29.2450   45.2900 C   0  0  0  0  0  0  0  0  0  0  0  0
   63.5600   33.2630   47.8999 H   0  0  0  0  0  0  0  0  0  0  0  0
   62.7997   32.5457   46.4390 H   0  0  0  0  0  0  0  0  0  0  0  0
   63.2918   34.2733   46.4390 H   0  0  0  0  0  0  0  0  0  0  0  0
   60.6309   35.7999   45.9692 H   0  0  0  0  0  0  0  0  0  0  0  0
   58.5179   35.6956   44.6520 H   0  0  0  0  0  0  0  0  0  0  0  0
   57.1004   33.6467   44.7193 H   0  0  0  0  0  0  0  0  0  0  0  0
   57.7936   31.6904   46.0959 H   0  0  0  0  0  0  0  0  0  0  0  0
   60.9480   31.6712   48.1861 H   0  0  0  0  0  0  0  0  0  0  0  0
   59.2158   31.1776   48.3185 H   0  0  0  0  0  0  0  0  0  0  0  0
   61.2100   30.2440   46.2680 H   0  0  0  0  0  0  0  0  0  0  0  0
   59.6614   28.1492   48.3545 H   0  0  0  0  0  0  0  0  0  0  0  0
   57.9830   26.3830   47.8496 H   0  0  0  0  0  0  0  0  0  0  0  0
   57.8490   24.7452   44.7112 H   0  0  0  0  0  0  0  0  0  0  0  0
   56.0851   23.0189   44.2799 H   0  0  0  0  0  0  0  0  0  0  0  0
   57.1283   28.2861   44.0526 H   0  0  0  0  0  0  0  0  0  0  0  0
   58.8052   30.0506   44.5632 H   0  0  0  0  0  0  0  0  0  0  0  0
  1  2  1  0
  2  3  1  0
  3  4  2  0
  4  5  1  0
  5  6  2  0
  6  7  1  0
  7  8  2  0
  8  9  1  0
  9 10  1  0
 10 11  1  0
 11 12  2  0
 12 13  1  0
 13 14  2  0
 14 15  1  0
 15 16  1  0
 16 17  2  0
 17 18  1  0
 18 19  2  0
 18 20  1  0
 20 21  1  0
 14 22  1  0
 22 23  2  0
  8  3  1  0
 23 11  1  0
 21 15  2  0
  1 24  1  0
  1 25  1  0
  1 26  1  0
  4 27  1  0
  5 28  1  0
  6 29  1  0
  7 30  1  0
  9 31  1  0
  9 32  1  0
 10 33  1  0
 12 34  1  0
 13 35  1  0
 16 36  1  0
 17 37  1  0
 22 38  1  0
 23 39  1  0
M  CHG  1  20  -1
M  END
>  <UniqueID>  (59) 
58

>  <SMILES>  (59) 
COc1ccccc1CNc1ccc(-c2ccc(=O)[n-]n2)cc1

>  <Energy>  (59) 
46.133489072321254

>  <Genealogy>  (59) 
COc1ccccc1CNc1ccc(-c2ccc(=O)[n-]n2)cc1 (protonated)
COc1ccccc1CNc1ccc(-c2ccc(=O)[n-]n2)cc1 (3D coordinates assigned)
COc1ccccc1CNc1ccc(-c2ccc(=O)[n-]n2)cc1 (optimized conformer: 46.133489072321254 kcal/mol)

>  <smiles>  (59) 
COc1ccccc1CNc1ccc(-c2ccc(=O)[nH]n2)cc1

>  <score_type>  (59) 
oracle

>  <origin>  (59) 
adg

>  <m_score__min__energy>  (59) 
-9.9199999999999999

>  <m_primary>  (59) 
energy

$$$$
59:0
     RDKit          3D

 31 31  0  0  1  0  0  0  0  0999 V2000
   61.8300   32.6270   47.3690 C   0  0  0  0  0  0  0  0  0  0  0  0
   60.5270   33.0530   46.7760 C   0  0  0  0  0  0  0  0  0  0  0  0
   60.2710   34.3640   46.4220 C   0  0  0  0  0  0  0  0  0  0  0  0
   59.0770   34.7090   45.8870 N   0  0  0  0  0  0  0  0  0  0  0  0
   58.1090   33.7710   45.6900 C   0  0  0  0  0  0  0  0  0  0  0  0
   56.9930   34.1760   45.1750 N   0  0  0  0  0  0  0  0  0  0  0  0
   58.3250   32.4830   46.0240 N   0  0  0  0  0  0  0  0  0  0  0  0
   59.5100   32.1380   46.5540 C   0  0  0  0  0  0  0  0  0  0  0  0
   59.7030   30.9100   46.8680 N   0  0  0  0  0  0  0  0  0  0  0  0
   59.9210   29.8340   45.9200 C   0  0  0  0  0  0  0  0  0  0  0  0
   58.7080   28.9520   45.7290 C   0  0  0  0  0  0  0  0  0  0  0  0
   57.5120   29.6380   46.1470 N   0  0  0  0  0  0  0  0  0  0  0  0
   56.4940   29.9440   44.7720 S   0  0  0  0  0  0  0  0  0  0  0  0
   57.3180   29.2110   43.3700 C   0  0  0  0  0  0  0  0  0  0  0  0
   55.1450   29.3450   44.9480 O   0  0  0  0  0  0  0  0  0  0  0  0
   56.4160   31.4190   44.4930 O   0  0  0  0  0  0  0  0  0  0  0  0
   61.7585   32.6504   48.4664 H   0  0  0  0  0  0  0  0  0  0  0  0
   62.0665   31.6048   47.0386 H   0  0  0  0  0  0  0  0  0  0  0  0
   62.6247   33.3121   47.0386 H   0  0  0  0  0  0  0  0  0  0  0  0
   61.0430   35.1322   46.5762 H   0  0  0  0  0  0  0  0  0  0  0  0
   58.9020   35.7150   45.6240 H   0  0  0  0  0  0  0  0  0  0  0  0
   56.2770   33.5550   44.7370 H   0  0  0  0  0  0  0  0  0  0  0  0
   57.5790   31.7800   45.8680 H   0  0  0  0  0  0  0  0  0  0  0  0
   60.1898   30.2737   44.9482 H   0  0  0  0  0  0  0  0  0  0  0  0
   60.7245   29.2008   46.3242 H   0  0  0  0  0  0  0  0  0  0  0  0
   58.6188   28.6850   44.6656 H   0  0  0  0  0  0  0  0  0  0  0  0
   58.8289   28.0452   46.3398 H   0  0  0  0  0  0  0  0  0  0  0  0
   57.6770   30.5120   46.6900 H   0  0  0  0  0  0  0  0  0  0  0  0
   58.0964   28.5186   43.7230 H   0  0  0  0  0  0  0  0  0  0  0  0
   56.5859   28.6602   42.7612 H   0  0  0  0  0  0  0  0  0  0  0  0
   57.7798   30.0023   42.7612 H   0  0  0  0  0  0  0  0  0  0  0  0
  1  2  1  0
  2  3  2  0
  3  4  1  0
  4  5  1  0
  5  6  2  3
  5  7  1  0
  7  8  1  0
  8  9  2  0
  9 10  1  0
 10 11  1  0
 11 12  1  0
 12 13  1  0
 13 14  1  0
 13 15  2  0
 13 16  2  0
  8  2  1  0
  1 17  1  0
  1 18  1  0
  1 19  1  0
  3 20  1  0
  4 21  1  0
  6 22  1  0
  7 23  1  0
 10 24  1  0
 10 25  1  0
 11 26  1  0
 11 27  1  0
 12 28  1  0
 14 29  1  0
 14 30  1  0
 14 31  1  0
M  END
>  <smiles>  (60) 
Cc1c[nH]c(=N)[nH]c1=NCCNS(C)(=O)=O

>  <score_type>  (60) 
oracle

>  <origin>  (60) 
adg

>  <m_score__min__energy>  (60) 
-5.1299999999999999

>  <m_primary>  (60) 
energy

$$$$
60:0
     RDKit          3D

 39 42  0  0  0  0  0  0  0  0999 V2000
   55.2120   29.0410   44.8770 N   0  0  0  0  0  0  0  0  0  0  0  0
   55.8460   30.0420   44.0840 C   0  0  0  0  0  0  0  0  0  0  0  0
   55.6430   30.0790   42.8420 O   0  0  0  0  0  0  0  0  0  0  0  0
   56.7110   31.0060   44.6850 N   0  0  0  0  0  0  0  0  0  0  0  0
   58.1610   30.9490   44.5630 C   0  0  0  0  0  0  0  0  0  0  0  0
   58.7460   30.3590   45.8130 C   0  0  0  0  0  0  0  0  0  0  0  0
   59.4860   31.1490   46.7110 C   0  0  0  0  0  0  0  0  0  0  0  0
   60.0070   30.5930   47.8990 C   0  0  0  0  0  0  0  0  0  0  0  0
   60.7530   31.3800   48.7880 C   0  0  0  0  0  0  0  0  0  0  0  0
   61.2610   30.8210   49.9620 C   0  0  0  0  0  0  0  0  0  0  0  0
   61.0270   29.4760   50.2600 C   0  0  0  0  0  0  0  0  0  0  0  0
   60.2840   28.6780   49.3860 C   0  0  0  0  0  0  0  0  0  0  0  0
   59.7660   29.2240   48.1950 C   0  0  0  0  0  0  0  0  0  0  0  0
   59.0270   28.5000   47.3020 N   0  0  0  0  0  0  0  0  0  0  0  0
   58.6140   27.2160   47.2510 C   0  0  0  0  0  0  0  0  0  0  0  0
   58.9100   26.3300   48.0970 O   0  0  0  0  0  0  0  0  0  0  0  0
   57.8840   26.9890   46.1380 N   0  0  0  0  0  0  0  0  0  0  0  0
   57.3040   25.7500   45.6960 C   0  0  0  0  0  0  0  0  0  0  0  0
   58.1450   24.7070   45.2750 C   0  0  0  0  0  0  0  0  0  0  0  0
   57.6070   23.4920   44.8430 C   0  0  0  0  0  0  0  0  0  0  0  0
   56.2230   23.3100   44.8160 C   0  0  0  0  0  0  0  0  0  0  0  0
   55.3740   24.3480   45.2100 C   0  0  0  0  0  0  0  0  0  0  0  0
   55.9050   25.5740   45.6390 C   0  0  0  0  0  0  0  0  0  0  0  0
   55.0490   26.6200   45.9790 O   0  0  0  0  0  0  0  0  0  0  0  0
   57.8360   28.1150   45.4390 N   0  0  0  0  0  0  0  0  0  0  0  0
   58.5270   29.0230   46.1620 C   0  0  0  0  0  0  0  0  0  0  0  0
   55.6990   28.6200   45.7000 H   0  0  0  0  0  0  0  0  0  0  0  0
   58.4319   30.3225   43.7004 H   0  0  0  0  0  0  0  0  0  0  0  0
   58.5567   31.9650   44.4174 H   0  0  0  0  0  0  0  0  0  0  0  0
   59.6605   32.2113   46.4851 H   0  0  0  0  0  0  0  0  0  0  0  0
   60.9383   32.4400   48.5599 H   0  0  0  0  0  0  0  0  0  0  0  0
   61.8477   31.4417   50.6551 H   0  0  0  0  0  0  0  0  0  0  0  0
   61.4298   29.0431   51.1875 H   0  0  0  0  0  0  0  0  0  0  0  0
   60.1030   27.6205   49.6286 H   0  0  0  0  0  0  0  0  0  0  0  0
   59.2359   24.8477   45.2854 H   0  0  0  0  0  0  0  0  0  0  0  0
   58.2745   22.6780   44.5238 H   0  0  0  0  0  0  0  0  0  0  0  0
   55.8008   22.3498   44.4847 H   0  0  0  0  0  0  0  0  0  0  0  0
   54.2839   24.2031   45.1837 H   0  0  0  0  0  0  0  0  0  0  0  0
   55.1370   27.5370   45.5570 H   0  0  0  0  0  0  0  0  0  0  0  0
  1  2  1  0
  2  3  2  0
  2  4  1  0
  4  5  1  0
  5  6  1  0
  6  7  2  0
  7  8  1  0
  8  9  2  0
  9 10  1  0
 10 11  2  0
 11 12  1  0
 12 13  2  0
 13 14  1  0
 14 15  1  0
 15 16  2  0
 15 17  1  0
 17 18  1  0
 18 19  2  0
 19 20  1  0
 20 21  2  0
 21 22  1  0
 22 23  2  0
 23 24  1  0
 17 25  1  0
 25 26  2  0
 26  6  1  0
 13  8  1  0
 26 14  1  0
 23 18  1  0
  1 27  1  0
  5 28  1  0
  5 29  1  0
  7 30  1  0
  9 31  1  0
 10 32  1  0
 11 33  1  0
 12 34  1  0
 19 35  1  0
 20 36  1  0
 21 37  1  0
 22 38  1  0
 24 39  1  0
M  CHG  2   1  -1   4  -1
M  END
>  <UniqueID>  (61) 
59

>  <SMILES>  (61) 
[NH-]C(=O)[N-]Cc1cc2ccccc2n2c(=O)n(-c3ccccc3O)nc12

>  <Energy>  (61) 
94.471660641558

>  <Genealogy>  (61) 
[NH-]C(=O)[N-]Cc1cc2ccccc2n2c(=O)n(-c3ccccc3O)nc12 (protonated)
[NH-]C(=O)[N-]Cc1cc2ccccc2n2c(=O)n(-c3ccccc3O)nc12 (3D coordinates assigned)
[NH-]C(=O)[N-]Cc1cc2ccccc2n2c(=O)n(-c3ccccc3O)nc12 (optimized conformer: 94.471660641558 kcal/mol)

>  <smiles>  (61) 
NC(=O)NCc1cc2ccccc2n2c(=O)n(-c3ccccc3O)nc12

>  <score_type>  (61) 
oracle

>  <origin>  (61) 
adg

>  <m_score__min__energy>  (61) 
-13.550000000000001

>  <m_primary>  (61) 
energy

$$$$
61:0
     RDKit          3D

 53 56  0  0  0  0  0  0  0  0999 V2000
   59.7020   33.4020   50.6700 C   0  0  0  0  0  0  0  0  0  0  0  0
   61.0450   33.8610   50.5570 O   0  0  0  0  0  0  0  0  0  0  0  0
   61.9330   33.4880   49.5360 C   0  0  0  0  0  0  0  0  0  0  0  0
   62.0130   34.2040   48.3230 C   0  0  0  0  0  0  0  0  0  0  0  0
   62.9200   33.8220   47.3330 C   0  0  0  0  0  0  0  0  0  0  0  0
   63.7670   32.7340   47.5420 C   0  0  0  0  0  0  0  0  0  0  0  0
   63.6960   32.0120   48.7330 C   0  0  0  0  0  0  0  0  0  0  0  0
   62.7660   32.3630   49.7290 C   0  0  0  0  0  0  0  0  0  0  0  0
   62.6860   31.5410   50.9970 C   0  0  0  0  0  0  0  0  0  0  0  0
   61.9010   30.2610   50.8220 C   0  0  0  0  0  0  0  0  0  0  0  0
   62.3890   29.1890   51.2670 O   0  0  0  0  0  0  0  0  0  0  0  0
   60.6010   30.2220   50.2130 N   0  0  0  0  0  0  0  0  0  0  0  0
   60.3330   30.0350   48.8200 C   0  0  0  0  0  0  0  0  0  0  0  0
   60.8080   30.9520   47.8550 C   0  0  0  0  0  0  0  0  0  0  0  0
   60.4860   30.7890   46.4960 C   0  0  0  0  0  0  0  0  0  0  0  0
   59.7040   29.6970   46.1200 C   0  0  0  0  0  0  0  0  0  0  0  0
   59.2940   29.4490   44.8500 N   0  0  0  0  0  0  0  0  0  0  0  0
   58.5370   28.3270   44.8010 C   0  0  0  0  0  0  0  0  0  0  0  0
   57.7630   27.7380   43.2970 S   0  0  0  0  0  0  0  0  0  0  0  0
   56.8260   29.2760   42.9910 C   0  0  0  0  0  0  0  0  0  0  0  0
   56.1740   29.7670   44.2440 C   0  0  0  0  0  0  0  0  0  0  0  0
   55.5190   28.9640   44.9630 O   0  0  0  0  0  0  0  0  0  0  0  0
   56.3390   31.1310   44.6440 N   0  0  0  0  0  0  0  0  0  0  0  0
   57.3780   32.0030   44.1100 C   0  0  0  0  0  0  0  0  0  0  0  0
   57.9680   32.8500   45.2000 C   0  0  0  0  0  0  0  0  0  0  0  0
   58.7570   33.9670   44.8900 C   0  0  0  0  0  0  0  0  0  0  0  0
   59.2760   34.7470   45.9250 C   0  0  0  0  0  0  0  0  0  0  0  0
   59.0020   34.4120   47.2530 C   0  0  0  0  0  0  0  0  0  0  0  0
   58.2040   33.2980   47.5250 C   0  0  0  0  0  0  0  0  0  0  0  0
   57.7110   32.5480   46.5030 N   0  0  0  0  0  0  0  0  0  0  0  0
   58.3490   27.6000   46.3170 S   0  0  0  0  0  0  0  0  0  0  0  0
   59.2750   28.7820   47.0660 C   0  0  0  0  0  0  0  0  0  0  0  0
   59.5820   28.9190   48.4170 C   0  0  0  0  0  0  0  0  0  0  0  0
   59.4340   33.3104   51.7329 H   0  0  0  0  0  0  0  0  0  0  0  0
   59.0267   34.1204   50.1822 H   0  0  0  0  0  0  0  0  0  0  0  0
   59.6077   32.4206   50.1822 H   0  0  0  0  0  0  0  0  0  0  0  0
   61.3556   35.0700   48.1561 H   0  0  0  0  0  0  0  0  0  0  0  0
   62.9667   34.3802   46.3863 H   0  0  0  0  0  0  0  0  0  0  0  0
   64.4918   32.4450   46.7667 H   0  0  0  0  0  0  0  0  0  0  0  0
   64.3731   31.1604   48.8953 H   0  0  0  0  0  0  0  0  0  0  0  0
   63.7078   31.2851   51.3140 H   0  0  0  0  0  0  0  0  0  0  0  0
   62.1625   32.1479   51.7504 H   0  0  0  0  0  0  0  0  0  0  0  0
   61.4344   31.7997   48.1696 H   0  0  0  0  0  0  0  0  0  0  0  0
   60.8436   31.5083   45.7445 H   0  0  0  0  0  0  0  0  0  0  0  0
   57.5148   30.0482   42.6180 H   0  0  0  0  0  0  0  0  0  0  0  0
   56.0422   29.0659   42.2483 H   0  0  0  0  0  0  0  0  0  0  0  0
   58.1713   31.3873   43.6610 H   0  0  0  0  0  0  0  0  0  0  0  0
   56.9323   32.6621   43.3504 H   0  0  0  0  0  0  0  0  0  0  0  0
   58.9650   34.2262   43.8414 H   0  0  0  0  0  0  0  0  0  0  0  0
   59.8994   35.6236   45.6951 H   0  0  0  0  0  0  0  0  0  0  0  0
   59.4098   35.0183   48.0752 H   0  0  0  0  0  0  0  0  0  0  0  0
   57.9743   33.0273   48.5661 H   0  0  0  0  0  0  0  0  0  0  0  0
   59.2447   28.1718   49.1504 H   0  0  0  0  0  0  0  0  0  0  0  0
  1  2  1  0
  2  3  1  0
  3  4  2  0
  4  5  1  0
  5  6  2  0
  6  7  1  0
  7  8  2  0
  8  9  1  0
  9 10  1  0
 10 11  2  0
 10 12  1  0
 12 13  1  0
 13 14  2  0
 14 15  1  0
 15 16  2  0
 16 17  1  0
 17 18  2  0
 18 19  1  0
 19 20  1  0
 20 21  1  0
 21 22  2  0
 21 23  1  0
 23 24  1  0
 24 25  1  0
 25 26  2  0
 26 27  1  0
 27 28  2  0
 28 29  1  0
 29 30  2  0
 18 31  1  0
 31 32  1  0
 32 33  2  0
  8  3  1  0
 33 13  1  0
 32 16  1  0
 30 25  1  0
  1 34  1  0
  1 35  1  0
  1 36  1  0
  4 37  1  0
  5 38  1  0
  6 39  1  0
  7 40  1  0
  9 41  1  0
  9 42  1  0
 14 43  1  0
 15 44  1  0
 20 45  1  0
 20 46  1  0
 24 47  1  0
 24 48  1  0
 26 49  1  0
 27 50  1  0
 28 51  1  0
 29 52  1  0
 33 53  1  0
M  CHG  2  12  -1  23  -1
M  END
>  <UniqueID>  (62) 
60

>  <SMILES>  (62) 
COc1ccccc1CC(=O)[N-]c1ccc2nc(SCC(=O)[N-]Cc3ccccn3)sc2c1

>  <Energy>  (62) 
86.2400112861664

>  <Genealogy>  (62) 
COc1ccccc1CC(=O)[N-]c1ccc2nc(SCC(=O)[N-]Cc3ccccn3)sc2c1 (protonated)
COc1ccccc1CC(=O)[N-]c1ccc2nc(SCC(=O)[N-]Cc3ccccn3)sc2c1 (3D coordinates assigned)
COc1ccccc1CC(=O)[N-]c1ccc2nc(SCC(=O)[N-]Cc3ccccn3)sc2c1 (optimized conformer: 86.2400112861664 kcal/mol)

>  <smiles>  (62) 
COc1ccccc1CC(=O)Nc1ccc2nc(SCC(=O)NCc3ccccn3)sc2c1

>  <score_type>  (62) 
oracle

>  <origin>  (62) 
adg

>  <m_score__min__energy>  (62) 
-12.449999999999999

>  <m_primary>  (62) 
energy

$$$$
62:0
     RDKit          3D

 37 38  0  0  0  0  0  0  0  0999 V2000
   56.4730   29.3380   42.6360 N   0  0  0  0  0  0  0  0  0  0  0  0
   56.6750   29.6900   44.0050 C   0  0  0  0  0  0  0  0  0  0  0  0
   55.6920   29.7250   44.7920 O   0  0  0  0  0  0  0  0  0  0  0  0
   58.0520   29.9850   44.5170 C   0  0  0  0  0  0  0  0  0  0  0  0
   58.1520   31.4280   44.9480 C   0  0  0  0  0  0  0  0  0  0  0  0
   58.3040   31.7270   46.3140 C   0  0  0  0  0  0  0  0  0  0  0  0
   58.3700   33.0610   46.7590 C   0  0  0  0  0  0  0  0  0  0  0  0
   58.5250   33.3900   48.1520 N   0  0  0  0  0  0  0  0  0  0  0  0
   59.4110   34.4530   48.6340 C   0  0  0  0  0  0  0  0  0  0  0  0
   60.5250   33.9000   49.5340 C   0  0  0  0  0  0  0  0  0  0  0  0
   61.7810   33.6110   48.7520 C   0  0  0  0  0  0  0  0  0  0  0  0
   61.7930   33.7190   47.3510 C   0  0  0  0  0  0  0  0  0  0  0  0
   62.9670   33.4710   46.6340 C   0  0  0  0  0  0  0  0  0  0  0  0
   64.1380   33.1170   47.3090 C   0  0  0  0  0  0  0  0  0  0  0  0
   64.1380   33.0110   48.7030 C   0  0  0  0  0  0  0  0  0  0  0  0
   65.2740   32.6690   49.3570 F   0  0  0  0  0  0  0  0  0  0  0  0
   62.9640   33.2580   49.4230 C   0  0  0  0  0  0  0  0  0  0  0  0
   58.2780   34.0960   45.8170 C   0  0  0  0  0  0  0  0  0  0  0  0
   58.1160   33.8090   44.4610 C   0  0  0  0  0  0  0  0  0  0  0  0
   58.0460   32.4860   44.0190 C   0  0  0  0  0  0  0  0  0  0  0  0
   57.8240   32.1950   42.2970 Cl  0  0  0  0  0  0  0  0  0  0  0  0
   55.5160   29.1190   42.2850 H   0  0  0  0  0  0  0  0  0  0  0  0
   57.2790   29.2950   41.9730 H   0  0  0  0  0  0  0  0  0  0  0  0
   58.2668   29.3336   45.3770 H   0  0  0  0  0  0  0  0  0  0  0  0
   58.7800   29.8001   43.7134 H   0  0  0  0  0  0  0  0  0  0  0  0
   58.3722   30.9074   47.0445 H   0  0  0  0  0  0  0  0  0  0  0  0
   57.9760   32.8350   48.8480 H   0  0  0  0  0  0  0  0  0  0  0  0
   59.8683   34.9554   47.7688 H   0  0  0  0  0  0  0  0  0  0  0  0
   58.8096   35.1577   49.2270 H   0  0  0  0  0  0  0  0  0  0  0  0
   60.7534   34.6406   50.3146 H   0  0  0  0  0  0  0  0  0  0  0  0
   60.1719   32.9570   49.9769 H   0  0  0  0  0  0  0  0  0  0  0  0
   60.8740   34.0001   46.8159 H   0  0  0  0  0  0  0  0  0  0  0  0
   62.9690   33.5546   45.5372 H   0  0  0  0  0  0  0  0  0  0  0  0
   65.0608   32.9215   46.7431 H   0  0  0  0  0  0  0  0  0  0  0  0
   62.9672   33.1754   50.5199 H   0  0  0  0  0  0  0  0  0  0  0  0
   58.3340   35.1429   46.1499 H   0  0  0  0  0  0  0  0  0  0  0  0
   58.0428   34.6315   43.7343 H   0  0  0  0  0  0  0  0  0  0  0  0
  1  2  1  0
  2  3  2  0
  2  4  1  0
  4  5  1  0
  5  6  2  0
  6  7  1  0
  7  8  1  0
  8  9  1  0
  9 10  1  0
 10 11  1  0
 11 12  2  0
 12 13  1  0
 13 14  2  0
 14 15  1  0
 15 16  1  0
 15 17  2  0
  7 18  2  0
 18 19  1  0
 19 20  2  0
 20 21  1  0
 20  5  1  0
 17 11  1  0
  1 22  1  0
  1 23  1  0
  4 24  1  0
  4 25  1  0
  6 26  1  0
  8 27  1  0
  9 28  1  0
  9 29  1  0
 10 30  1  0
 10 31  1  0
 12 32  1  0
 13 33  1  0
 14 34  1  0
 17 35  1  0
 18 36  1  0
 19 37  1  0
M  END
>  <UniqueID>  (63) 
61

>  <SMILES>  (63) 
NC(=O)Cc1cc(NCCc2cccc(F)c2)ccc1Cl

>  <Energy>  (63) 
32.356452642981786

>  <Genealogy>  (63) 
NC(=O)Cc1cc(NCCc2cccc(F)c2)ccc1Cl (3D coordinates assigned)
NC(=O)Cc1cc(NCCc2cccc(F)c2)ccc1Cl (optimized conformer: 32.356452642981786 kcal/mol)

>  <smiles>  (63) 
NC(=O)Cc1cc(NCCc2cccc(F)c2)ccc1Cl

>  <score_type>  (63) 
oracle

>  <origin>  (63) 
adg

>  <m_score__min__energy>  (63) 
-8.0899999999999999

>  <m_primary>  (63) 
energy

$$$$
63:0
     RDKit          3D

 73 77  0  0  0  0  0  0  0  0999 V2000
   54.9340   29.6590   44.5560 O   0  0  0  0  0  0  0  0  0  0  0  0
   55.9630   28.9560   44.7450 C   0  0  0  0  0  0  0  0  0  0  0  0
   57.2390   29.3080   44.0460 C   0  0  0  0  0  0  0  0  0  0  0  0
   57.7700   30.6050   44.5910 C   0  0  0  0  0  0  0  0  0  0  0  0
   57.8710   31.7320   43.7600 C   0  0  0  0  0  0  0  0  0  0  0  0
   58.4270   32.9180   44.2440 C   0  0  0  0  0  0  0  0  0  0  0  0
   58.8970   32.9890   45.5630 C   0  0  0  0  0  0  0  0  0  0  0  0
   59.6850   34.4520   46.1500 S   0  0  0  0  0  0  0  0  0  0  0  0
   61.1810   34.3080   46.0730 O   0  0  0  0  0  0  0  0  0  0  0  0
   59.2710   35.6130   45.2880 O   0  0  0  0  0  0  0  0  0  0  0  0
   59.2120   34.7590   47.7920 N   0  0  0  0  0  0  0  0  0  0  0  0
   59.6630   33.6580   48.6490 C   0  0  0  0  0  0  0  0  0  0  0  0
   59.6950   34.1100   50.1140 C   0  0  0  0  0  0  0  0  0  0  0  0
   58.9070   33.1640   50.9840 C   0  0  0  0  0  0  0  0  0  0  0  0
   58.8460   33.3710   52.3730 C   0  0  0  0  0  0  0  0  0  0  0  0
   58.1120   32.5030   53.1870 C   0  0  0  0  0  0  0  0  0  0  0  0
   57.4210   31.4300   52.6160 C   0  0  0  0  0  0  0  0  0  0  0  0
   57.4700   31.2210   51.2350 C   0  0  0  0  0  0  0  0  0  0  0  0
   58.2070   32.0860   50.4180 C   0  0  0  0  0  0  0  0  0  0  0  0
   58.8100   31.8640   46.3910 C   0  0  0  0  0  0  0  0  0  0  0  0
   58.2500   30.6780   45.9100 C   0  0  0  0  0  0  0  0  0  0  0  0
   55.9120   27.7950   45.5820 N   0  0  0  0  0  0  0  0  0  0  0  0
   57.0450   26.9960   45.9340 C   0  0  0  0  0  0  0  0  0  0  0  0
   57.0100   25.6600   46.2760 C   0  0  0  0  0  0  0  0  0  0  0  0
   58.2230   25.3000   46.7400 N   0  0  0  0  0  0  0  0  0  0  0  0
   59.0080   26.3690   46.6940 N   0  0  0  0  0  0  0  0  0  0  0  0
   60.3580   26.4080   47.2500 C   0  0  0  0  0  0  0  0  0  0  0  0
   60.4970   27.5400   48.2370 C   0  0  0  0  0  0  0  0  0  0  0  0
   60.7270   27.2800   49.6000 C   0  0  0  0  0  0  0  0  0  0  0  0
   60.8290   28.3310   50.5120 C   0  0  0  0  0  0  0  0  0  0  0  0
   60.6970   29.6590   50.0820 C   0  0  0  0  0  0  0  0  0  0  0  0
   60.8070   30.7250   50.9750 O   0  0  0  0  0  0  0  0  0  0  0  0
   62.2350   31.6550   51.1270 S   0  0  0  0  0  0  0  0  0  0  0  0
   61.9740   32.7860   52.0830 O   0  0  0  0  0  0  0  0  0  0  0  0
   63.3260   30.7920   51.6940 O   0  0  0  0  0  0  0  0  0  0  0  0
   62.7690   32.3000   49.5760 C   0  0  0  0  0  0  0  0  0  0  0  0
   62.9860   33.6780   49.4290 C   0  0  0  0  0  0  0  0  0  0  0  0
   63.4130   34.1980   48.2020 C   0  0  0  0  0  0  0  0  0  0  0  0
   63.6260   33.3450   47.1150 C   0  0  0  0  0  0  0  0  0  0  0  0
   63.4230   31.9680   47.2580 C   0  0  0  0  0  0  0  0  0  0  0  0
   62.9960   31.4450   48.4840 C   0  0  0  0  0  0  0  0  0  0  0  0
   60.4260   29.9220   48.7330 C   0  0  0  0  0  0  0  0  0  0  0  0
   60.3290   28.8720   47.8140 C   0  0  0  0  0  0  0  0  0  0  0  0
   58.3240   27.4270   46.2170 C   0  0  0  0  0  0  0  0  0  0  0  0
   57.9790   28.5110   44.2110 H   0  0  0  0  0  0  0  0  0  0  0  0
   57.0481   29.4150   42.9680 H   0  0  0  0  0  0  0  0  0  0  0  0
   57.5102   31.6805   42.7221 H   0  0  0  0  0  0  0  0  0  0  0  0
   58.4964   33.7988   43.5887 H   0  0  0  0  0  0  0  0  0  0  0  0
   58.1670   34.7590   47.7970 H   0  0  0  0  0  0  0  0  0  0  0  0
   58.9711   32.8091   48.5451 H   0  0  0  0  0  0  0  0  0  0  0  0
   60.6753   33.3551   48.3434 H   0  0  0  0  0  0  0  0  0  0  0  0
   60.7385   34.1345   50.4610 H   0  0  0  0  0  0  0  0  0  0  0  0
   59.2444   35.1111   50.1838 H   0  0  0  0  0  0  0  0  0  0  0  0
   59.3793   34.2216   52.8225 H   0  0  0  0  0  0  0  0  0  0  0  0
   58.0782   32.6640   54.2746 H   0  0  0  0  0  0  0  0  0  0  0  0
   56.8382   30.7496   53.2543 H   0  0  0  0  0  0  0  0  0  0  0  0
   56.9278   30.3742   50.7889 H   0  0  0  0  0  0  0  0  0  0  0  0
   58.2380   31.9212   49.3308 H   0  0  0  0  0  0  0  0  0  0  0  0
   59.1839   31.9138   47.4243 H   0  0  0  0  0  0  0  0  0  0  0  0
   58.1844   29.7976   46.5662 H   0  0  0  0  0  0  0  0  0  0  0  0
   56.1363   24.9979   46.1850 H   0  0  0  0  0  0  0  0  0  0  0  0
   60.5654   25.4562   47.7610 H   0  0  0  0  0  0  0  0  0  0  0  0
   61.0734   26.5652   46.4294 H   0  0  0  0  0  0  0  0  0  0  0  0
   60.8271   26.2417   49.9491 H   0  0  0  0  0  0  0  0  0  0  0  0
   61.0141   28.1164   51.5749 H   0  0  0  0  0  0  0  0  0  0  0  0
   62.8198   34.3527   50.2818 H   0  0  0  0  0  0  0  0  0  0  0  0
   63.5813   35.2795   48.0926 H   0  0  0  0  0  0  0  0  0  0  0  0
   63.9528   33.7559   46.1484 H   0  0  0  0  0  0  0  0  0  0  0  0
   63.5993   31.2955   46.4056 H   0  0  0  0  0  0  0  0  0  0  0  0
   62.8377   30.3619   48.5931 H   0  0  0  0  0  0  0  0  0  0  0  0
   60.2888   30.9596   48.3947 H   0  0  0  0  0  0  0  0  0  0  0  0
   60.1205   29.0882   46.7558 H   0  0  0  0  0  0  0  0  0  0  0  0
   58.7137   28.4463   46.0788 H   0  0  0  0  0  0  0  0  0  0  0  0
  1  2  2  0
  2  3  1  0
  3  4  1  0
  4  5  2  0
  5  6  1  0
  6  7  2  0
  7  8  1  0
  8  9  2  0
  8 10  2  0
  8 11  1  0
 11 12  1  0
 12 13  1  0
 13 14  1  0
 14 15  2  0
 15 16  1  0
 16 17  2  0
 17 18  1  0
 18 19  2  0
  7 20  1  0
 20 21  2  0
  2 22  1  0
 22 23  1  0
 23 24  1  0
 24 25  2  0
 25 26  1  0
 26 27  1  0
 27 28  1  0
 28 29  2  0
 29 30  1  0
 30 31  2  0
 31 32  1  0
 32 33  1  0
 33 34  2  0
 33 35  2  0
 33 36  1  0
 36 37  2  0
 37 38  1  0
 38 39  2  0
 39 40  1  0
 40 41  2  0
 31 42  1  0
 42 43  2  0
 26 44  1  0
 21  4  1  0
 44 23  2  0
 19 14  1  0
 43 28  1  0
 41 36  1  0
  3 45  1  0
  3 46  1  0
  5 47  1  0
  6 48  1  0
 11 49  1  0
 12 50  1  0
 12 51  1  0
 13 52  1  0
 13 53  1  0
 15 54  1  0
 16 55  1  0
 17 56  1  0
 18 57  1  0
 19 58  1  0
 20 59  1  0
 21 60  1  0
 24 61  1  0
 27 62  1  0
 27 63  1  0
 29 64  1  0
 30 65  1  0
 37 66  1  0
 38 67  1  0
 39 68  1  0
 40 69  1  0
 41 70  1  0
 42 71  1  0
 43 72  1  0
 44 73  1  0
M  CHG  1  22  -1
M  END
>  <UniqueID>  (64) 
62

>  <SMILES>  (64) 
O=C(Cc1ccc(S(=O)(=O)NCCc2ccccc2)cc1)[N-]c1cnn(Cc2ccc(OS(=O)(=O)c3ccccc3)cc2)c1

>  <Energy>  (64) 
102.35876692491004

>  <Genealogy>  (64) 
O=C(Cc1ccc(S(=O)(=O)NCCc2ccccc2)cc1)[N-]c1cnn(Cc2ccc(OS(=O)(=O)c3ccccc3)cc2)c1 (protonated)
O=C(Cc1ccc(S(=O)(=O)NCCc2ccccc2)cc1)[N-]c1cnn(Cc2ccc(OS(=O)(=O)c3ccccc3)cc2)c1 (3D coordinates assigned)
O=C(Cc1ccc(S(=O)(=O)NCCc2ccccc2)cc1)[N-]c1cnn(Cc2ccc(OS(=O)(=O)c3ccccc3)cc2)c1 (optimized conformer: 102.35876692491004 kcal/mol)

>  <smiles>  (64) 
O=C(Cc1ccc(S(=O)(=O)NCCc2ccccc2)cc1)Nc1cnn(Cc2ccc(OS(=O)(=O)c3ccccc3)cc2)c1

>  <score_type>  (64) 
oracle

>  <origin>  (64) 
adg

>  <m_score__min__energy>  (64) 
-12.19

>  <m_primary>  (64) 
energy

$$$$
64:0
     RDKit          3D

 49 51  0  0  0  0  0  0  0  0999 V2000
   54.7680   27.0820   46.4720 H   0  0  0  0  0  0  0  0  0  0  0  0
   54.6380   26.1660   45.9850 N   0  0  0  0  0  0  0  0  0  0  0  0
   56.1460   25.3300   46.0750 S   0  0  0  0  0  0  0  0  0  0  0  0
   56.2010   24.2750   45.0050 O   0  0  0  0  0  0  0  0  0  0  0  0
   56.2680   24.6620   47.4160 O   0  0  0  0  0  0  0  0  0  0  0  0
   57.4680   26.4710   45.8560 C   0  0  0  0  0  0  0  0  0  0  0  0
   58.7850   26.0860   46.1400 C   0  0  0  0  0  0  0  0  0  0  0  0
   58.9913   25.0750   46.5211 H   0  0  0  0  0  0  0  0  0  0  0  0
   59.8370   26.9840   45.9400 C   0  0  0  0  0  0  0  0  0  0  0  0
   60.8701   26.6769   46.1599 H   0  0  0  0  0  0  0  0  0  0  0  0
   59.5790   28.2720   45.4610 C   0  0  0  0  0  0  0  0  0  0  0  0
   60.4119   28.9697   45.2894 H   0  0  0  0  0  0  0  0  0  0  0  0
   58.2650   28.6770   45.1990 C   0  0  0  0  0  0  0  0  0  0  0  0
   58.0320   29.9870   44.6550 N   0  0  0  0  0  0  0  0  0  0  0  0
   58.3100   31.1360   45.2050 C   0  0  0  0  0  0  0  0  0  0  0  0
   57.5510   32.2110   44.8730 N   0  0  0  0  0  0  0  0  0  0  0  0
   57.7700   33.4300   45.3740 N   0  0  0  0  0  0  0  0  0  0  0  0
   56.9010   34.5260   44.9470 C   0  0  0  0  0  0  0  0  0  0  0  0
   56.4950   35.0381   45.8318 H   0  0  0  0  0  0  0  0  0  0  0  0
   57.4810   35.2402   44.3440 H   0  0  0  0  0  0  0  0  0  0  0  0
   56.0734   34.1242   44.3440 H   0  0  0  0  0  0  0  0  0  0  0  0
   58.7940   33.6510   46.2540 C   0  0  0  0  0  0  0  0  0  0  0  0
   59.0130   34.8170   46.6880 O   0  0  0  0  0  0  0  0  0  0  0  0
   59.6180   32.5810   46.6470 C   0  0  0  0  0  0  0  0  0  0  0  0
   60.7440   32.7610   47.5950 C   0  0  0  0  0  0  0  0  0  0  0  0
   61.0030   31.8490   48.4270 O   0  0  0  0  0  0  0  0  0  0  0  0
   61.5190   33.9710   47.5980 N   0  0  0  0  0  0  0  0  0  0  0  0
   61.1400   34.8020   47.0890 H   0  0  0  0  0  0  0  0  0  0  0  0
   62.7540   34.1050   48.3820 C   0  0  0  0  0  0  0  0  0  0  0  0
   63.3165   34.9814   48.0276 H   0  0  0  0  0  0  0  0  0  0  0  0
   62.4220   34.3550   49.8770 C   0  0  0  0  0  0  0  0  0  0  0  0
   63.1386   35.0849   50.2815 H   0  0  0  0  0  0  0  0  0  0  0  0
   61.3902   34.7318   49.9348 H   0  0  0  0  0  0  0  0  0  0  0  0
   62.5010   33.0720   50.7110 C   0  0  0  0  0  0  0  0  0  0  0  0
   62.2468   33.3083   51.7548 H   0  0  0  0  0  0  0  0  0  0  0  0
   61.7926   32.3433   50.2902 H   0  0  0  0  0  0  0  0  0  0  0  0
   63.9130   32.4540   50.6670 C   0  0  0  0  0  0  0  0  0  0  0  0
   64.5104   32.8916   51.4804 H   0  0  0  0  0  0  0  0  0  0  0  0
   63.7942   31.3659   50.7764 H   0  0  0  0  0  0  0  0  0  0  0  0
   64.6490   32.6990   49.3340 C   0  0  0  0  0  0  0  0  0  0  0  0
   65.2564   33.6117   49.4236 H   0  0  0  0  0  0  0  0  0  0  0  0
   65.2836   31.8252   49.1245 H   0  0  0  0  0  0  0  0  0  0  0  0
   63.6650   32.8680   48.1720 C   0  0  0  0  0  0  0  0  0  0  0  0
   64.2318   32.9946   47.2378 H   0  0  0  0  0  0  0  0  0  0  0  0
   63.0287   31.9721   48.1222 H   0  0  0  0  0  0  0  0  0  0  0  0
   59.3820   31.3180   46.0930 C   0  0  0  0  0  0  0  0  0  0  0  0
   60.0340   30.4708   46.3523 H   0  0  0  0  0  0  0  0  0  0  0  0
   57.2130   27.7590   45.3640 C   0  0  0  0  0  0  0  0  0  0  0  0
   56.1848   28.0526   45.1058 H   0  0  0  0  0  0  0  0  0  0  0  0
  1  2  1  0
  2  3  1  0
  3  4  2  0
  3  5  2  0
  3  6  1  0
  6  7  2  0
  7  8  1  0
  7  9  1  0
  9 10  1  0
  9 11  2  0
 11 12  1  0
 11 13  1  0
 13 14  1  0
 14 15  2  0
 15 16  1  0
 16 17  1  0
 17 18  1  0
 18 19  1  0
 18 20  1  0
 18 21  1  0
 17 22  1  0
 22 23  2  0
 22 24  1  0
 24 25  1  0
 25 26  2  0
 25 27  1  0
 27 28  1  0
 27 29  1  0
 29 30  1  0
 29 31  1  0
 31 32  1  0
 31 33  1  0
 31 34  1  0
 34 35  1  0
 34 36  1  0
 34 37  1  0
 37 38  1  0
 37 39  1  0
 37 40  1  0
 40 41  1  0
 40 42  1  0
 40 43  1  0
 43 44  1  0
 43 45  1  0
 24 46  2  0
 46 47  1  0
 13 48  2  0
 48 49  1  0
 48  6  1  0
 46 15  1  0
 43 29  1  0
M  CHG  2   2  -1  16  -1
M  END
>  <UniqueID>  (65) 
63

>  <SMILES>  (65) 
Cn1[n-]/c(=N/c2cccc(S([NH-])(=O)=O)c2)cc(C(=O)NC2CCCCC2)c1=O

>  <Energy>  (65) 
65.23081712805306

>  <Genealogy>  (65) 
Cn1[n-]c(=Nc2cccc(S([NH-])(=O)=O)c2)cc(C(=O)NC2CCCCC2)c1=O (protonated)
Cn1[n-]/c(=N/c2cccc(S([NH-])(=O)=O)c2)cc(C(=O)NC2CCCCC2)c1=O (cis-trans isomerization)
Cn1[n-]/c(=N/c2cccc(S([NH-])(=O)=O)c2)cc(C(=O)NC2CCCCC2)c1=O (3D coordinates assigned)
Cn1[n-]/c(=N/c2cccc(S([NH-])(=O)=O)c2)cc(C(=O)NC2CCCCC2)c1=O (nonaromatic ring conformer: 65.23081712805306 kcal/mol)

>  <smiles>  (65) 
Cn1[nH]c(=Nc2cccc(S(N)(=O)=O)c2)cc(C(=O)NC2CCCCC2)c1=O

>  <score_type>  (65) 
oracle

>  <origin>  (65) 
adg

>  <m_score__min__energy>  (65) 
-12.640000000000001

>  <m_primary>  (65) 
energy

$$$$
65:0
     RDKit          3D

 42 44  0  0  0  0  0  0  0  0999 V2000
   57.4370   23.2080   45.5050 C   0  0  0  0  0  0  0  0  0  0  0  0
   57.7400   23.4450   46.8490 O   0  0  0  0  0  0  0  0  0  0  0  0
   56.7600   24.2460   47.4530 C   0  0  0  0  0  0  0  0  0  0  0  0
   56.6410   25.5340   46.7390 C   0  0  0  0  0  0  0  0  0  0  0  0
   55.5420   26.0450   46.1820 N   0  0  0  0  0  0  0  0  0  0  0  0
   55.8470   27.2260   45.6330 N   0  0  0  0  0  0  0  0  0  0  0  0
   57.1500   27.5000   45.8240 C   0  0  0  0  0  0  0  0  0  0  0  0
   57.6470   26.4230   46.5250 C   0  0  0  0  0  0  0  0  0  0  0  0
   59.1150   26.5000   46.8620 C   0  0  0  0  0  0  0  0  0  0  0  0
   59.7270   27.0900   45.5970 C   0  0  0  0  0  0  0  0  0  0  0  0
   59.3620   28.4270   45.4800 N   0  0  0  0  0  0  0  0  0  0  0  0
   60.2220   29.4690   45.8330 C   0  0  0  0  0  0  0  0  0  0  0  0
   59.5750   30.6120   46.5290 C   0  0  0  0  0  0  0  0  0  0  0  0
   59.4150   30.6250   47.9150 C   0  0  0  0  0  0  0  0  0  0  0  0
   58.8230   31.6960   48.5570 C   0  0  0  0  0  0  0  0  0  0  0  0
   58.3790   32.7810   47.8250 C   0  0  0  0  0  0  0  0  0  0  0  0
   58.5250   32.7960   46.4550 C   0  0  0  0  0  0  0  0  0  0  0  0
   58.0620   33.9390   45.6650 C   0  0  0  0  0  0  0  0  0  0  0  0
   56.6990   34.0540   45.3130 N   0  0  0  0  0  0  0  0  0  0  0  0
   58.9440   34.7830   45.3370 O   0  0  0  0  0  0  0  0  0  0  0  0
   59.1170   31.7170   45.8320 C   0  0  0  0  0  0  0  0  0  0  0  0
   57.9650   28.6680   45.4140 C   0  0  0  0  0  0  0  0  0  0  0  0
   56.5722   22.5316   45.4379 H   0  0  0  0  0  0  0  0  0  0  0  0
   57.1969   24.1604   45.0098 H   0  0  0  0  0  0  0  0  0  0  0  0
   58.3035   22.7455   45.0098 H   0  0  0  0  0  0  0  0  0  0  0  0
   55.7930   23.7226   47.4214 H   0  0  0  0  0  0  0  0  0  0  0  0
   57.0487   24.4400   48.4966 H   0  0  0  0  0  0  0  0  0  0  0  0
   55.1500   27.8350   45.1270 H   0  0  0  0  0  0  0  0  0  0  0  0
   59.2879   27.1560   47.7279 H   0  0  0  0  0  0  0  0  0  0  0  0
   59.5475   25.5275   47.1397 H   0  0  0  0  0  0  0  0  0  0  0  0
   60.8230   27.0134   45.6508 H   0  0  0  0  0  0  0  0  0  0  0  0
   59.3608   26.5341   44.7213 H   0  0  0  0  0  0  0  0  0  0  0  0
   60.9977   29.0604   46.4973 H   0  0  0  0  0  0  0  0  0  0  0  0
   60.6203   29.8705   44.8895 H   0  0  0  0  0  0  0  0  0  0  0  0
   59.7664   29.7673   48.5073 H   0  0  0  0  0  0  0  0  0  0  0  0
   58.7051   31.6850   49.6506 H   0  0  0  0  0  0  0  0  0  0  0  0
   57.9085   33.6335   48.3367 H   0  0  0  0  0  0  0  0  0  0  0  0
   56.3490   33.4650   44.5060 H   0  0  0  0  0  0  0  0  0  0  0  0
   56.0110   34.6780   45.7940 H   0  0  0  0  0  0  0  0  0  0  0  0
   59.2296   31.7353   44.7379 H   0  0  0  0  0  0  0  0  0  0  0  0
   57.7243   29.5121   46.0771 H   0  0  0  0  0  0  0  0  0  0  0  0
   57.7203   28.8842   44.3636 H   0  0  0  0  0  0  0  0  0  0  0  0
  1  2  1  0
  2  3  1  0
  3  4  1  0
  4  5  2  0
  5  6  1  0
  6  7  1  0
  7  8  2  0
  8  9  1  0
  9 10  1  0
 10 11  1  0
 11 12  1  0
 12 13  1  0
 13 14  2  0
 14 15  1  0
 15 16  2  0
 16 17  1  0
 17 18  1  0
 18 19  1  0
 18 20  2  0
 17 21  2  0
 11 22  1  0
  8  4  1  0
 21 13  1  0
 22  7  1  0
  1 23  1  0
  1 24  1  0
  1 25  1  0
  3 26  1  0
  3 27  1  0
  6 28  1  0
  9 29  1  0
  9 30  1  0
 10 31  1  0
 10 32  1  0
 12 33  1  0
 12 34  1  0
 14 35  1  0
 15 36  1  0
 16 37  1  0
 19 38  1  0
 19 39  1  0
 21 40  1  0
 22 41  1  0
 22 42  1  0
M  END
>  <smiles>  (66) 
COCc1n[nH]c2c1CCN(Cc1cccc(C(N)=O)c1)C2

>  <score_type>  (66) 
oracle

>  <origin>  (66) 
adg

>  <m_score__min__energy>  (66) 
-8.2899999999999991

>  <m_primary>  (66) 
energy

$$$$
66:0
     RDKit          3D

 62 63  0  0  0  0  0  0  0  0999 V2000
   56.2730   30.0420   42.9550 C   0  0  0  0  0  0  0  0  0  0  0  0
   56.5390   29.8070   44.4470 C   0  0  0  0  0  0  0  0  0  0  0  0
   57.1660   30.9500   45.1550 N   0  0  0  0  0  0  0  0  0  0  0  0
   58.1850   30.5990   46.1730 C   0  0  0  0  0  0  0  0  0  0  0  0
   59.3650   29.7890   45.6350 C   0  0  0  0  0  0  0  0  0  0  0  0
   57.4520   32.1480   44.3290 C   0  0  0  0  0  0  0  0  0  0  0  0
   57.3720   33.4630   45.1370 C   0  0  0  0  0  0  0  0  0  0  0  0
   58.7030   34.2240   45.2600 C   0  0  0  0  0  0  0  0  0  0  0  0
   59.5250   33.9820   46.8350 S   0  0  0  0  0  0  0  0  0  0  0  0
   59.9240   35.3070   47.4230 O   0  0  0  0  0  0  0  0  0  0  0  0
   58.5610   33.3190   47.7850 O   0  0  0  0  0  0  0  0  0  0  0  0
   60.9530   33.0020   46.6470 N   0  0  0  0  0  0  0  0  0  0  0  0
   62.1490   33.8420   46.5550 C   0  0  0  0  0  0  0  0  0  0  0  0
   63.3940   32.9790   46.7420 C   0  0  0  0  0  0  0  0  0  0  0  0
   63.2830   32.2930   47.9820 O   0  0  0  0  0  0  0  0  0  0  0  0
   63.2990   32.8910   49.2470 C   0  0  0  0  0  0  0  0  0  0  0  0
   64.5610   33.1180   49.8270 C   0  0  0  0  0  0  0  0  0  0  0  0
   64.6740   33.6250   51.1190 C   0  0  0  0  0  0  0  0  0  0  0  0
   63.5280   33.8750   51.8710 C   0  0  0  0  0  0  0  0  0  0  0  0
   62.2630   33.6590   51.3170 C   0  0  0  0  0  0  0  0  0  0  0  0
   62.1310   33.1700   50.0030 C   0  0  0  0  0  0  0  0  0  0  0  0
   60.8190   32.9830   49.4380 N   0  0  0  0  0  0  0  0  0  0  0  0
   59.7550   32.3060   50.1340 C   0  0  0  0  0  0  0  0  0  0  0  0
   58.8900   33.0690   50.9370 C   0  0  0  0  0  0  0  0  0  0  0  0
   57.8690   32.4550   51.6680 C   0  0  0  0  0  0  0  0  0  0  0  0
   57.6950   31.0730   51.6000 C   0  0  0  0  0  0  0  0  0  0  0  0
   58.5280   30.3000   50.7900 C   0  0  0  0  0  0  0  0  0  0  0  0
   59.5610   30.9000   50.0400 C   0  0  0  0  0  0  0  0  0  0  0  0
   60.3560   30.0630   49.1040 C   0  0  0  0  0  0  0  0  0  0  0  0
   61.1820   30.6550   48.0930 N   0  0  0  0  0  0  0  0  0  0  0  0
   60.3240   28.8050   49.2040 O   0  0  0  0  0  0  0  0  0  0  0  0
   55.4533   30.7662   42.8383 H   0  0  0  0  0  0  0  0  0  0  0  0
   57.1821   30.4373   42.4783 H   0  0  0  0  0  0  0  0  0  0  0  0
   55.9928   29.0911   42.4783 H   0  0  0  0  0  0  0  0  0  0  0  0
   55.5781   29.5875   44.9354 H   0  0  0  0  0  0  0  0  0  0  0  0
   57.2562   28.9751   44.5063 H   0  0  0  0  0  0  0  0  0  0  0  0
   58.5766   31.5325   46.6034 H   0  0  0  0  0  0  0  0  0  0  0  0
   57.6804   29.9624   46.9146 H   0  0  0  0  0  0  0  0  0  0  0  0
   59.9488   29.3882   46.4768 H   0  0  0  0  0  0  0  0  0  0  0  0
   58.9893   28.9575   45.0206 H   0  0  0  0  0  0  0  0  0  0  0  0
   60.0058   30.4385   45.0206 H   0  0  0  0  0  0  0  0  0  0  0  0
   58.4649   32.0532   43.9106 H   0  0  0  0  0  0  0  0  0  0  0  0
   56.6882   32.1967   43.5389 H   0  0  0  0  0  0  0  0  0  0  0  0
   56.6437   34.1240   44.6444 H   0  0  0  0  0  0  0  0  0  0  0  0
   57.0793   33.1820   46.1594 H   0  0  0  0  0  0  0  0  0  0  0  0
   59.3754   33.8801   44.4603 H   0  0  0  0  0  0  0  0  0  0  0  0
   58.4704   35.2961   45.1787 H   0  0  0  0  0  0  0  0  0  0  0  0
   62.1827   34.3247   45.5671 H   0  0  0  0  0  0  0  0  0  0  0  0
   62.1164   34.6126   47.3393 H   0  0  0  0  0  0  0  0  0  0  0  0
   63.4684   32.2514   45.9204 H   0  0  0  0  0  0  0  0  0  0  0  0
   64.2950   33.6101   46.7388 H   0  0  0  0  0  0  0  0  0  0  0  0
   65.4709   32.8918   49.2517 H   0  0  0  0  0  0  0  0  0  0  0  0
   65.6674   33.8280   51.5456 H   0  0  0  0  0  0  0  0  0  0  0  0
   63.6190   34.2434   52.9035 H   0  0  0  0  0  0  0  0  0  0  0  0
   61.3631   33.8728   51.9124 H   0  0  0  0  0  0  0  0  0  0  0  0
   60.5330   33.6460   48.6820 H   0  0  0  0  0  0  0  0  0  0  0  0
   59.0177   34.1602   50.9908 H   0  0  0  0  0  0  0  0  0  0  0  0
   57.2021   33.0625   52.2975 H   0  0  0  0  0  0  0  0  0  0  0  0
   56.8990   30.5909   52.1864 H   0  0  0  0  0  0  0  0  0  0  0  0
   58.3775   29.2117   50.7359 H   0  0  0  0  0  0  0  0  0  0  0  0
   61.7600   30.0490   47.4660 H   0  0  0  0  0  0  0  0  0  0  0  0
   61.2150   31.6910   47.9490 H   0  0  0  0  0  0  0  0  0  0  0  0
  1  2  1  0
  2  3  1  0
  3  4  1  0
  4  5  1  0
  3  6  1  0
  6  7  1  0
  7  8  1  0
  8  9  1  0
  9 10  2  0
  9 11  2  0
  9 12  1  0
 12 13  1  0
 13 14  1  0
 14 15  1  0
 15 16  1  0
 16 17  2  0
 17 18  1  0
 18 19  2  0
 19 20  1  0
 20 21  2  0
 21 22  1  0
 22 23  1  0
 23 24  2  0
 24 25  1  0
 25 26  2  0
 26 27  1  0
 27 28  2  0
 28 29  1  0
 29 30  1  0
 29 31  2  0
 21 16  1  0
 28 23  1  0
  1 32  1  0
  1 33  1  0
  1 34  1  0
  2 35  1  0
  2 36  1  0
  4 37  1  0
  4 38  1  0
  5 39  1  0
  5 40  1  0
  5 41  1  0
  6 42  1  0
  6 43  1  0
  7 44  1  0
  7 45  1  0
  8 46  1  0
  8 47  1  0
 13 48  1  0
 13 49  1  0
 14 50  1  0
 14 51  1  0
 17 52  1  0
 18 53  1  0
 19 54  1  0
 20 55  1  0
 22 56  1  0
 24 57  1  0
 25 58  1  0
 26 59  1  0
 27 60  1  0
 30 61  1  0
 30 62  1  0
M  CHG  1  12  -1
M  END
>  <UniqueID>  (67) 
64

>  <SMILES>  (67) 
CCN(CC)CCCS(=O)(=O)[N-]CCOc1ccccc1Nc1ccccc1C(N)=O

>  <Energy>  (67) 
77.78341459310188

>  <Genealogy>  (67) 
CCN(CC)CCCS(=O)(=O)[N-]CCOc1ccccc1Nc1ccccc1C(N)=O (protonated)
CCN(CC)CCCS(=O)(=O)[N-]CCOc1ccccc1Nc1ccccc1C(N)=O (3D coordinates assigned)
CCN(CC)CCCS(=O)(=O)[N-]CCOc1ccccc1Nc1ccccc1C(N)=O (optimized conformer: 77.78341459310188 kcal/mol)

>  <smiles>  (67) 
CCN(CC)CCCS(=O)(=O)NCCOc1ccccc1Nc1ccccc1C(N)=O

>  <score_type>  (67) 
oracle

>  <origin>  (67) 
adg

>  <m_score__min__energy>  (67) 
-9.9700000000000006

>  <m_primary>  (67) 
energy

$$$$
67:0
     RDKit          3D

 64 67  0  0  0  0  0  0  0  0999 V2000
   50.6020   33.0690   48.2190 H   0  0  0  0  0  0  0  0  0  0  0  0
   50.2770   32.4650   49.0080 N   0  0  0  0  0  0  0  0  0  0  0  0
   51.0960   31.7830   49.7430 C   0  0  0  0  0  0  0  0  0  0  0  0
   51.3920   30.4990   49.4020 N   0  0  0  0  0  0  0  0  0  0  0  0
   52.2450   29.7370   50.1380 C   0  0  0  0  0  0  0  0  0  0  0  0
   52.4625   28.7032   49.8317 H   0  0  0  0  0  0  0  0  0  0  0  0
   52.8460   30.2680   51.2850 C   0  0  0  0  0  0  0  0  0  0  0  0
   53.7480   29.4670   52.0680 C   0  0  0  0  0  0  0  0  0  0  0  0
   54.4900   28.7870   52.7310 C   0  0  0  0  0  0  0  0  0  0  0  0
   55.3990   27.9790   53.5140 C   0  0  0  0  0  0  0  0  0  0  0  0
   54.9770   26.7490   54.0540 C   0  0  0  0  0  0  0  0  0  0  0  0
   53.5980   26.2090   53.8050 C   0  0  0  0  0  0  0  0  0  0  0  0
   53.1012   26.0145   54.7669 H   0  0  0  0  0  0  0  0  0  0  0  0
   53.0139   26.9448   53.2328 H   0  0  0  0  0  0  0  0  0  0  0  0
   53.6688   25.2722   53.2328 H   0  0  0  0  0  0  0  0  0  0  0  0
   55.8290   26.0330   54.8330 N   0  0  0  0  0  0  0  0  0  0  0  0
   57.0810   26.4770   55.1040 C   0  0  0  0  0  0  0  0  0  0  0  0
   57.7492   25.8776   55.7397 H   0  0  0  0  0  0  0  0  0  0  0  0
   57.5130   27.6580   54.5940 N   0  0  0  0  0  0  0  0  0  0  0  0
   58.4870   27.9700   54.8120 H   0  0  0  0  0  0  0  0  0  0  0  0
   56.7110   28.4200   53.7960 C   0  0  0  0  0  0  0  0  0  0  0  0
   57.2350   29.7040   53.2660 C   0  0  0  0  0  0  0  0  0  0  0  0
   57.2090   30.8560   54.0650 C   0  0  0  0  0  0  0  0  0  0  0  0
   56.8054   30.8024   55.0869 H   0  0  0  0  0  0  0  0  0  0  0  0
   57.6920   32.0720   53.5730 C   0  0  0  0  0  0  0  0  0  0  0  0
   57.6544   32.9711   54.2056 H   0  0  0  0  0  0  0  0  0  0  0  0
   58.2250   32.1530   52.2760 C   0  0  0  0  0  0  0  0  0  0  0  0
   58.7210   33.4520   51.7640 C   0  0  0  0  0  0  0  0  0  0  0  0
   58.1900   34.5170   52.1810 O   0  0  0  0  0  0  0  0  0  0  0  0
   59.7880   33.5220   50.7980 N   0  0  0  0  0  0  0  0  0  0  0  0
   61.1850   33.4540   51.2340 C   0  0  0  0  0  0  0  0  0  0  0  0
   61.5749   34.4738   51.3676 H   0  0  0  0  0  0  0  0  0  0  0  0
   61.2398   32.9059   52.1861 H   0  0  0  0  0  0  0  0  0  0  0  0
   62.0240   32.7250   50.1870 C   0  0  0  0  0  0  0  0  0  0  0  0
   63.0846   32.7854   50.4724 H   0  0  0  0  0  0  0  0  0  0  0  0
   61.6913   31.6774   50.1438 H   0  0  0  0  0  0  0  0  0  0  0  0
   61.8520   33.3220   48.8530 N   0  0  0  0  0  0  0  0  0  0  0  0
   62.9560   33.2170   47.9330 C   0  0  0  0  0  0  0  0  0  0  0  0
   63.6950   34.2170   47.7180 O   0  0  0  0  0  0  0  0  0  0  0  0
   63.2700   31.9140   47.2660 C   0  0  0  0  0  0  0  0  0  0  0  0
   63.0825   31.9991   46.1854 H   0  0  0  0  0  0  0  0  0  0  0  0
   64.3270   31.6587   47.4320 H   0  0  0  0  0  0  0  0  0  0  0  0
   62.4470   30.9050   47.8100 O   0  0  0  0  0  0  0  0  0  0  0  0
   61.2280   30.8660   47.0980 C   0  0  0  0  0  0  0  0  0  0  0  0
   60.3889   30.8392   47.8088 H   0  0  0  0  0  0  0  0  0  0  0  0
   61.1441   31.7619   46.4653 H   0  0  0  0  0  0  0  0  0  0  0  0
   61.2015   29.9665   46.4653 H   0  0  0  0  0  0  0  0  0  0  0  0
   60.7130   34.2260   48.5740 C   0  0  1  0  0  0  0  0  0  0  0  0
   61.0370   35.2361   48.8650 H   0  0  0  0  0  0  0  0  0  0  0  0
   60.3390   34.2330   47.0790 C   0  0  0  0  0  0  0  0  0  0  0  0
   59.2441   34.2535   46.9750 H   0  0  0  0  0  0  0  0  0  0  0  0
   60.7698   35.1232   46.5974 H   0  0  0  0  0  0  0  0  0  0  0  0
   60.7362   33.3273   46.5974 H   0  0  0  0  0  0  0  0  0  0  0  0
   59.4670   33.8190   49.3960 C   0  0  0  0  0  0  0  0  0  0  0  0
   58.7412   34.6451   49.3681 H   0  0  0  0  0  0  0  0  0  0  0  0
   59.0561   32.9028   48.9469 H   0  0  0  0  0  0  0  0  0  0  0  0
   58.2500   30.9990   51.4710 C   0  0  0  0  0  0  0  0  0  0  0  0
   58.6960   31.0530   50.1920 F   0  0  0  0  0  0  0  0  0  0  0  0
   57.7730   29.7830   51.9690 C   0  0  0  0  0  0  0  0  0  0  0  0
   57.8188   28.8808   51.3414 H   0  0  0  0  0  0  0  0  0  0  0  0
   52.5590   31.5850   51.6600 C   0  0  0  0  0  0  0  0  0  0  0  0
   53.0229   32.0165   52.5592 H   0  0  0  0  0  0  0  0  0  0  0  0
   51.6810   32.3500   50.8880 C   0  0  0  0  0  0  0  0  0  0  0  0
   51.4498   33.3867   51.1739 H   0  0  0  0  0  0  0  0  0  0  0  0
  1  2  1  0
  2  3  2  0
  3  4  1  0
  4  5  1  0
  5  6  1  0
  5  7  2  0
  7  8  1  0
  8  9  3  0
  9 10  1  0
 10 11  2  0
 11 12  1  0
 12 13  1  0
 12 14  1  0
 12 15  1  0
 11 16  1  0
 16 17  2  0
 17 18  1  0
 17 19  1  0
 19 20  1  0
 19 21  2  0
 21 22  1  0
 22 23  2  0
 23 24  1  0
 23 25  1  0
 25 26  1  0
 25 27  2  0
 27 28  1  0
 28 29  2  0
 28 30  1  0
 30 31  1  0
 31 32  1  0
 31 33  1  0
 31 34  1  0
 34 35  1  0
 34 36  1  0
 34 37  1  0
 37 38  1  0
 38 39  2  0
 38 40  1  0
 40 41  1  0
 40 42  1  0
 40 43  1  0
 43 44  1  0
 44 45  1  0
 44 46  1  0
 44 47  1  0
 37 48  1  0
 48 49  1  1
 48 50  1  0
 50 51  1  0
 50 52  1  0
 50 53  1  0
 48 54  1  0
 54 55  1  0
 54 56  1  0
 27 57  1  0
 57 58  1  0
 57 59  2  0
 59 60  1  0
  7 61  1  0
 61 62  1  0
 61 63  2  0
 63 64  1  0
 63  3  1  0
 21 10  1  0
 59 22  1  0
 54 30  1  0
M  CHG  2   4  -1  19   1
M  END
>  <UniqueID>  (68) 
65

>  <SMILES>  (68) 
[H]/N=c1\ccc(C#Cc2c(C)nc[nH+]c2-c2ccc(C(=O)N3CCN(C(=O)COC)[C@@H](C)C3)c(F)c2)c[n-]1

>  <Energy>  (68) 
80.61508461262437

>  <Genealogy>  (68) 
COCC(=O)N1CCN(C(=O)c2ccc(-c3[nH+]cnc(C)c3C#Cc3ccc(=N)[n-]c3)cc2F)CC1C (protonated)
COCC(=O)N1CCN(C(=O)c2ccc(-c3[nH+]cnc(C)c3C#Cc3ccc(=N)[n-]c3)cc2F)C[C@@H]1C (chirality)
[H]/N=c1\ccc(C#Cc2c(C)nc[nH+]c2-c2ccc(C(=O)N3CCN(C(=O)COC)[C@@H](C)C3)c(F)c2)c[n-]1 (cis-trans isomerization)
[H]/N=c1\ccc(C#Cc2c(C)nc[nH+]c2-c2ccc(C(=O)N3CCN(C(=O)COC)[C@@H](C)C3)c(F)c2)c[n-]1 (3D coordinates assigned)
[H]/N=c1\ccc(C#Cc2c(C)nc[nH+]c2-c2ccc(C(=O)N3CCN(C(=O)COC)[C@@H](C)C3)c(F)c2)c[n-]1 (nonaromatic ring conformer: 80.61508461262437 kcal/mol)

>  <smiles>  (68) 
COCC(=O)N1CCN(C(=O)c2ccc(-c3ncnc(C)c3C#Cc3ccc(=N)[nH]c3)cc2F)CC1C

>  <score_type>  (68) 
oracle

>  <origin>  (68) 
adg

>  <m_score__min__energy>  (68) 
-11.470000000000001

>  <m_primary>  (68) 
energy

$$$$
68:0
     RDKit          3D

 54 56  0  0  0  0  0  0  0  0999 V2000
   55.0360   25.5460   45.6350 C   0  0  0  0  0  0  0  0  0  0  0  0
   55.5220   26.8800   45.7680 O   0  0  0  0  0  0  0  0  0  0  0  0
   56.8730   27.2560   45.6680 C   0  0  0  0  0  0  0  0  0  0  0  0
   57.9040   26.4600   46.2090 C   0  0  0  0  0  0  0  0  0  0  0  0
   59.2400   26.8510   46.0950 C   0  0  0  0  0  0  0  0  0  0  0  0
   59.5680   28.0370   45.4370 C   0  0  0  0  0  0  0  0  0  0  0  0
   58.5610   28.8370   44.8930 C   0  0  0  0  0  0  0  0  0  0  0  0
   57.2090   28.4560   45.0040 C   0  0  0  0  0  0  0  0  0  0  0  0
   56.1560   29.3340   44.3800 C   0  0  0  0  0  0  0  0  0  0  0  0
   56.3120   30.7020   44.8610 N   0  0  0  0  0  0  0  0  0  0  0  0
   57.3080   31.5900   44.3520 C   0  0  0  0  0  0  0  0  0  0  0  0
   57.9250   31.3120   43.2880 O   0  0  0  0  0  0  0  0  0  0  0  0
   57.6330   32.8450   45.1000 C   0  0  0  0  0  0  0  0  0  0  0  0
   58.1750   32.5120   46.4300 N   0  0  0  0  0  0  0  0  0  0  0  0
   58.3140   31.1980   46.7820 C   0  0  0  0  0  0  0  0  0  0  0  0
   58.8740   30.8430   48.0100 C   0  0  0  0  0  0  0  0  0  0  0  0
   59.3050   31.8390   48.8790 C   0  0  0  0  0  0  0  0  0  0  0  0
   59.1640   33.1890   48.5300 C   0  0  0  0  0  0  0  0  0  0  0  0
   59.6820   34.2170   49.4020 N   0  0  0  0  0  0  0  0  0  0  0  0
   60.9560   33.7780   49.9870 C   0  0  0  0  0  0  0  0  0  0  0  0
   61.9350   33.3820   48.9010 C   0  0  0  0  0  0  0  0  0  0  0  0
   61.9950   34.1660   47.7360 C   0  0  0  0  0  0  0  0  0  0  0  0
   62.8860   33.8460   46.7090 C   0  0  0  0  0  0  0  0  0  0  0  0
   63.7370   32.7490   46.8350 C   0  0  0  0  0  0  0  0  0  0  0  0
   63.7070   31.9710   47.9920 C   0  0  0  0  0  0  0  0  0  0  0  0
   62.8220   32.2810   49.0420 C   0  0  0  0  0  0  0  0  0  0  0  0
   62.8250   31.4160   50.2760 C   0  0  0  0  0  0  0  0  0  0  0  0
   58.5920   33.5080   47.2790 C   0  0  0  0  0  0  0  0  0  0  0  0
   58.4790   34.7180   46.9390 O   0  0  0  0  0  0  0  0  0  0  0  0
   54.8779   25.1121   46.6334 H   0  0  0  0  0  0  0  0  0  0  0  0
   54.0837   25.5559   45.0845 H   0  0  0  0  0  0  0  0  0  0  0  0
   55.7715   24.9410   45.0845 H   0  0  0  0  0  0  0  0  0  0  0  0
   57.6534   25.5219   46.7259 H   0  0  0  0  0  0  0  0  0  0  0  0
   60.0346   26.2232   46.5245 H   0  0  0  0  0  0  0  0  0  0  0  0
   60.6210   28.3421   45.3467 H   0  0  0  0  0  0  0  0  0  0  0  0
   58.8249   29.7706   44.3745 H   0  0  0  0  0  0  0  0  0  0  0  0
   56.2657   29.3159   43.2856 H   0  0  0  0  0  0  0  0  0  0  0  0
   55.1587   28.9611   44.6562 H   0  0  0  0  0  0  0  0  0  0  0  0
   58.3804   33.4223   44.5360 H   0  0  0  0  0  0  0  0  0  0  0  0
   56.7164   33.4409   45.2219 H   0  0  0  0  0  0  0  0  0  0  0  0
   57.9805   30.4115   46.0891 H   0  0  0  0  0  0  0  0  0  0  0  0
   58.9736   29.7834   48.2882 H   0  0  0  0  0  0  0  0  0  0  0  0
   59.7581   31.5666   49.8436 H   0  0  0  0  0  0  0  0  0  0  0  0
   59.8210   35.1060   48.8660 H   0  0  0  0  0  0  0  0  0  0  0  0
   58.9920   34.4140   50.1630 H   0  0  0  0  0  0  0  0  0  0  0  0
   61.3850   34.6010   50.5774 H   0  0  0  0  0  0  0  0  0  0  0  0
   60.7682   32.9052   50.6296 H   0  0  0  0  0  0  0  0  0  0  0  0
   61.3344   35.0394   47.6321 H   0  0  0  0  0  0  0  0  0  0  0  0
   62.9163   34.4616   45.7979 H   0  0  0  0  0  0  0  0  0  0  0  0
   64.4327   32.4969   46.0211 H   0  0  0  0  0  0  0  0  0  0  0  0
   64.3813   31.1069   48.0851 H   0  0  0  0  0  0  0  0  0  0  0  0
   62.8228   32.0548   51.1715 H   0  0  0  0  0  0  0  0  0  0  0  0
   61.9291   30.7778   50.2786 H   0  0  0  0  0  0  0  0  0  0  0  0
   63.7253   30.7840   50.2786 H   0  0  0  0  0  0  0  0  0  0  0  0
  1  2  1  0
  2  3  1  0
  3  4  2  0
  4  5  1  0
  5  6  2  0
  6  7  1  0
  7  8  2  0
  8  9  1  0
  9 10  1  0
 10 11  1  0
 11 12  2  0
 11 13  1  0
 13 14  1  0
 14 15  1  0
 15 16  2  0
 16 17  1  0
 17 18  2  0
 18 19  1  0
 19 20  1  0
 20 21  1  0
 21 22  2  0
 22 23  1  0
 23 24  2  0
 24 25  1  0
 25 26  2  0
 26 27  1  0
 18 28  1  0
 28 29  2  0
  8  3  1  0
 28 14  1  0
 26 21  1  0
  1 30  1  0
  1 31  1  0
  1 32  1  0
  4 33  1  0
  5 34  1  0
  6 35  1  0
  7 36  1  0
  9 37  1  0
  9 38  1  0
 13 39  1  0
 13 40  1  0
 15 41  1  0
 16 42  1  0
 17 43  1  0
 19 44  1  0
 19 45  1  0
 20 46  1  0
 20 47  1  0
 22 48  1  0
 23 49  1  0
 24 50  1  0
 25 51  1  0
 27 52  1  0
 27 53  1  0
 27 54  1  0
M  CHG  2  10  -1  19   1
M  END
>  <UniqueID>  (69) 
66

>  <SMILES>  (69) 
COc1ccccc1C[N-]C(=O)Cn1cccc([NH2+]Cc2ccccc2C)c1=O

>  <Energy>  (69) 
56.67599360497187

>  <Genealogy>  (69) 
COc1ccccc1C[N-]C(=O)Cn1cccc([NH2+]Cc2ccccc2C)c1=O (protonated)
COc1ccccc1C[N-]C(=O)Cn1cccc([NH2+]Cc2ccccc2C)c1=O (3D coordinates assigned)
COc1ccccc1C[N-]C(=O)Cn1cccc([NH2+]Cc2ccccc2C)c1=O (optimized conformer: 56.67599360497187 kcal/mol)

>  <smiles>  (69) 
COc1ccccc1CNC(=O)Cn1cccc(NCc2ccccc2C)c1=O

>  <score_type>  (69) 
oracle

>  <origin>  (69) 
adg

>  <m_score__min__energy>  (69) 
-9.6500000000000004

>  <m_primary>  (69) 
energy

$$$$
69:0
     RDKit          3D

 35 36  0  0  0  0  0  0  0  0999 V2000
   54.5200   25.0020   45.6190 C   0  0  0  0  0  0  0  0  0  0  0  0
   54.9630   26.3050   45.9830 O   0  0  0  0  0  0  0  0  0  0  0  0
   56.3100   26.6920   46.0700 C   0  0  0  0  0  0  0  0  0  0  0  0
   57.2900   25.8580   46.6440 C   0  0  0  0  0  0  0  0  0  0  0  0
   58.6200   26.2800   46.7190 C   0  0  0  0  0  0  0  0  0  0  0  0
   58.9830   27.5370   46.2350 C   0  0  0  0  0  0  0  0  0  0  0  0
   58.0210   28.3720   45.6640 C   0  0  0  0  0  0  0  0  0  0  0  0
   56.6830   27.9490   45.5580 C   0  0  0  0  0  0  0  0  0  0  0  0
   55.6670   28.7950   44.9960 N   0  0  0  0  0  0  0  0  0  0  0  0
   55.8770   29.9700   44.2050 C   0  0  0  0  0  0  0  0  0  0  0  0
   55.9880   29.8890   42.9520 O   0  0  0  0  0  0  0  0  0  0  0  0
   55.9570   31.2390   44.8630 N   0  0  0  0  0  0  0  0  0  0  0  0
   57.0830   32.1300   44.8710 C   0  0  0  0  0  0  0  0  0  0  0  0
   57.7160   32.5410   43.6870 C   0  0  0  0  0  0  0  0  0  0  0  0
   58.7940   33.4270   43.7390 C   0  0  0  0  0  0  0  0  0  0  0  0
   59.2420   33.9210   44.9660 C   0  0  0  0  0  0  0  0  0  0  0  0
   58.6060   33.5410   46.1640 C   0  0  0  0  0  0  0  0  0  0  0  0
   59.0610   34.0650   47.4810 C   0  0  0  0  0  0  0  0  0  0  0  0
   59.2710   33.1670   48.6630 C   0  0  0  0  0  0  0  0  0  0  0  0
   59.2810   35.3000   47.6200 O   0  0  0  0  0  0  0  0  0  0  0  0
   57.5190   32.6480   46.0990 C   0  0  0  0  0  0  0  0  0  0  0  0
   54.3205   24.4153   46.5279 H   0  0  0  0  0  0  0  0  0  0  0  0
   53.5982   25.0810   45.0239 H   0  0  0  0  0  0  0  0  0  0  0  0
   55.2989   24.5028   45.0239 H   0  0  0  0  0  0  0  0  0  0  0  0
   57.0066   24.8697   47.0351 H   0  0  0  0  0  0  0  0  0  0  0  0
   59.3816   25.6203   47.1602 H   0  0  0  0  0  0  0  0  0  0  0  0
   60.0289   27.8707   46.3034 H   0  0  0  0  0  0  0  0  0  0  0  0
   58.3106   29.3668   45.2946 H   0  0  0  0  0  0  0  0  0  0  0  0
   57.3618   32.1641   42.7162 H   0  0  0  0  0  0  0  0  0  0  0  0
   59.2928   33.7374   42.8090 H   0  0  0  0  0  0  0  0  0  0  0  0
   60.0975   34.6117   44.9971 H   0  0  0  0  0  0  0  0  0  0  0  0
   59.1362   33.7436   49.5900 H   0  0  0  0  0  0  0  0  0  0  0  0
   58.5409   32.3448   48.6331 H   0  0  0  0  0  0  0  0  0  0  0  0
   60.2900   32.7538   48.6331 H   0  0  0  0  0  0  0  0  0  0  0  0
   57.0044   32.3525   47.0252 H   0  0  0  0  0  0  0  0  0  0  0  0
  1  2  1  0
  2  3  1  0
  3  4  2  0
  4  5  1  0
  5  6  2  0
  6  7  1  0
  7  8  2  0
  8  9  1  0
  9 10  1  0
 10 11  2  0
 10 12  1  0
 12 13  1  0
 13 14  2  0
 14 15  1  0
 15 16  2  0
 16 17  1  0
 17 18  1  0
 18 19  1  0
 18 20  2  0
 17 21  2  0
  8  3  1  0
 21 13  1  0
  1 22  1  0
  1 23  1  0
  1 24  1  0
  4 25  1  0
  5 26  1  0
  6 27  1  0
  7 28  1  0
 14 29  1  0
 15 30  1  0
 16 31  1  0
 19 32  1  0
 19 33  1  0
 19 34  1  0
 21 35  1  0
M  CHG  2   9  -1  12  -1
M  END
>  <UniqueID>  (70) 
67

>  <SMILES>  (70) 
COc1ccccc1[N-]C(=O)[N-]c1cccc(C(C)=O)c1

>  <Energy>  (70) 
42.57068101473748

>  <Genealogy>  (70) 
COc1ccccc1[N-]C(=O)[N-]c1cccc(C(C)=O)c1 (protonated)
COc1ccccc1[N-]C(=O)[N-]c1cccc(C(C)=O)c1 (3D coordinates assigned)
COc1ccccc1[N-]C(=O)[N-]c1cccc(C(C)=O)c1 (optimized conformer: 42.57068101473748 kcal/mol)

>  <smiles>  (70) 
COc1ccccc1NC(=O)Nc1cccc(C(C)=O)c1

>  <score_type>  (70) 
oracle

>  <origin>  (70) 
adg

>  <m_score__min__energy>  (70) 
-11.41

>  <m_primary>  (70) 
energy

$$$$
70:0
     RDKit          3D

 34 35  0  0  0  0  0  0  0  0999 V2000
   55.5320   29.7730   43.4320 C   0  0  0  0  0  0  0  0  0  0  0  0
   56.8940   30.2160   42.9090 C   0  0  0  0  0  0  0  0  0  0  0  0
   57.4880   31.2810   43.7970 C   0  0  0  0  0  0  0  0  0  0  0  0
   57.9500   32.4790   43.2260 C   0  0  0  0  0  0  0  0  0  0  0  0
   58.4730   33.4910   44.0310 C   0  0  0  0  0  0  0  0  0  0  0  0
   58.5320   33.3220   45.4130 C   0  0  0  0  0  0  0  0  0  0  0  0
   58.0640   32.1430   45.9990 C   0  0  0  0  0  0  0  0  0  0  0  0
   57.5280   31.1130   45.1980 C   0  0  0  0  0  0  0  0  0  0  0  0
   57.0360   29.9170   45.7510 O   0  0  0  0  0  0  0  0  0  0  0  0
   57.8020   28.7440   46.0190 C   0  0  0  0  0  0  0  0  0  0  0  0
   57.5370   27.6710   44.9590 C   0  0  0  0  0  0  0  0  0  0  0  0
   57.3740   26.3550   45.5940 N   0  0  0  0  0  0  0  0  0  0  0  0
   58.4650   25.5410   45.7330 C   0  0  0  0  0  0  0  0  0  0  0  0
   58.3470   24.2990   46.3530 C   0  0  0  0  0  0  0  0  0  0  0  0
   57.1000   23.9110   46.8350 C   0  0  0  0  0  0  0  0  0  0  0  0
   56.9570   22.7960   47.4000 O   0  0  0  0  0  0  0  0  0  0  0  0
   56.0380   24.7420   46.6990 N   0  0  0  0  0  0  0  0  0  0  0  0
   56.1610   25.9520   46.0930 C   0  0  0  0  0  0  0  0  0  0  0  0
   55.1470   26.6960   45.9990 O   0  0  0  0  0  0  0  0  0  0  0  0
   55.5428   29.7765   44.5319 H   0  0  0  0  0  0  0  0  0  0  0  0
   54.7575   30.4656   43.0707 H   0  0  0  0  0  0  0  0  0  0  0  0
   55.3131   28.7574   43.0707 H   0  0  0  0  0  0  0  0  0  0  0  0
   57.5702   29.3488   42.8840 H   0  0  0  0  0  0  0  0  0  0  0  0
   56.7658   30.6307   41.8983 H   0  0  0  0  0  0  0  0  0  0  0  0
   57.8988   32.6197   42.1362 H   0  0  0  0  0  0  0  0  0  0  0  0
   58.8389   34.4227   43.5748 H   0  0  0  0  0  0  0  0  0  0  0  0
   58.9487   34.1200   46.0451 H   0  0  0  0  0  0  0  0  0  0  0  0
   58.1138   32.0174   47.0907 H   0  0  0  0  0  0  0  0  0  0  0  0
   58.8714   29.0017   46.0126 H   0  0  0  0  0  0  0  0  0  0  0  0
   57.5108   28.3485   47.0033 H   0  0  0  0  0  0  0  0  0  0  0  0
   56.6192   27.9242   44.4081 H   0  0  0  0  0  0  0  0  0  0  0  0
   58.3924   27.6314   44.2686 H   0  0  0  0  0  0  0  0  0  0  0  0
   59.4431   25.8699   45.3521 H   0  0  0  0  0  0  0  0  0  0  0  0
   59.2206   23.6390   46.4594 H   0  0  0  0  0  0  0  0  0  0  0  0
  1  2  1  0
  2  3  1  0
  3  4  2  0
  4  5  1  0
  5  6  2  0
  6  7  1  0
  7  8  2  0
  8  9  1  0
  9 10  1  0
 10 11  1  0
 11 12  1  0
 12 13  1  0
 13 14  2  0
 14 15  1  0
 15 16  2  0
 15 17  1  0
 17 18  1  0
 18 19  2  0
  8  3  1  0
 18 12  1  0
  1 20  1  0
  1 21  1  0
  1 22  1  0
  2 23  1  0
  2 24  1  0
  4 25  1  0
  5 26  1  0
  6 27  1  0
  7 28  1  0
 10 29  1  0
 10 30  1  0
 11 31  1  0
 11 32  1  0
 13 33  1  0
 14 34  1  0
M  CHG  1  17  -1
M  END
>  <UniqueID>  (71) 
68

>  <SMILES>  (71) 
CCc1ccccc1OCCn1ccc(=O)[n-]c1=O

>  <Energy>  (71) 
32.21628591639408

>  <Genealogy>  (71) 
CCc1ccccc1OCCn1ccc(=O)[n-]c1=O (protonated)
CCc1ccccc1OCCn1ccc(=O)[n-]c1=O (3D coordinates assigned)
CCc1ccccc1OCCn1ccc(=O)[n-]c1=O (optimized conformer: 32.21628591639408 kcal/mol)

>  <smiles>  (71) 
CCc1ccccc1OCCn1ccc(=O)[nH]c1=O

>  <score_type>  (71) 
oracle

>  <origin>  (71) 
adg

>  <m_score__min__energy>  (71) 
-9.0099999999999998

>  <m_primary>  (71) 
energy

$$$$
71:0
     RDKit          3D

 72 76  0  0  0  0  0  0  0  0999 V2000
   58.5215   27.6149   44.5893 H   0  0  0  0  0  0  0  0  0  0  0  0
   57.8800   27.8240   45.4580 C   0  0  0  0  0  0  0  0  0  0  0  0
   56.4210   27.9690   45.2490 C   0  0  0  0  0  0  0  0  0  0  0  0
   55.6280   27.0850   45.6710 O   0  0  0  0  0  0  0  0  0  0  0  0
   55.8820   29.1310   44.6050 N   0  0  0  0  0  0  0  0  0  0  0  0
   56.6730   30.2580   44.2140 C   0  0  0  0  0  0  0  0  0  0  0  0
   56.6820   30.6600   42.8730 C   0  0  0  0  0  0  0  0  0  0  0  0
   56.1239   30.0809   42.1225 H   0  0  0  0  0  0  0  0  0  0  0  0
   57.3970   31.7930   42.4870 C   0  0  0  0  0  0  0  0  0  0  0  0
   57.3844   32.1181   41.4362 H   0  0  0  0  0  0  0  0  0  0  0  0
   58.1290   32.5160   43.4310 C   0  0  0  0  0  0  0  0  0  0  0  0
   58.6779   33.4181   43.1228 H   0  0  0  0  0  0  0  0  0  0  0  0
   58.1690   32.0980   44.7740 C   0  0  0  0  0  0  0  0  0  0  0  0
   58.9900   32.8480   45.7480 C   0  0  0  0  0  0  0  0  0  0  0  0
   58.9750   34.1100   45.7280 O   0  0  0  0  0  0  0  0  0  0  0  0
   59.8510   32.1530   46.6670 N   0  0  0  0  0  0  0  0  0  0  0  0
   60.0750   31.1510   46.4710 H   0  0  0  0  0  0  0  0  0  0  0  0
   60.6460   32.8380   47.6450 C   0  0  0  0  0  0  0  0  0  0  0  0
   60.2820   32.8250   49.0000 C   0  0  0  0  0  0  0  0  0  0  0  0
   59.3916   32.2645   49.3209 H   0  0  0  0  0  0  0  0  0  0  0  0
   61.0470   33.5230   49.9500 C   0  0  0  0  0  0  0  0  0  0  0  0
   60.6720   33.4750   51.3370 N   0  0  0  0  0  0  0  0  0  0  0  0
   60.9510   34.2740   51.9570 H   0  0  0  0  0  0  0  0  0  0  0  0
   59.9330   32.3900   51.9230 C   0  0  0  0  0  0  0  0  0  0  0  0
   60.3820   31.7650   53.1200 C   0  0  0  0  0  0  0  0  0  0  0  0
   61.3048   32.1165   53.6046 H   0  0  0  0  0  0  0  0  0  0  0  0
   59.6590   30.7040   53.6890 C   0  0  0  0  0  0  0  0  0  0  0  0
   59.9923   30.2228   54.6203 H   0  0  0  0  0  0  0  0  0  0  0  0
   58.5040   30.2820   53.0320 C   0  0  0  0  0  0  0  0  0  0  0  0
   57.5750   29.2970   53.2940 C   0  0  0  0  0  0  0  0  0  0  0  0
   57.5740   28.3240   54.4020 C   0  0  0  0  0  0  0  0  0  0  0  0
   56.7110   28.3297   55.0840 H   0  0  0  0  0  0  0  0  0  0  0  0
   58.5480   27.4320   54.6400 C   0  0  0  0  0  0  0  0  0  0  0  0
   58.7450   27.1630   55.6882 H   0  0  0  0  0  0  0  0  0  0  0  0
   59.3780   26.7820   53.6000 C   0  0  0  0  0  0  0  0  0  0  0  0
   59.3020   25.3970   53.3480 C   0  0  0  0  0  0  0  0  0  0  0  0
   58.6160   24.7702   53.9367 H   0  0  0  0  0  0  0  0  0  0  0  0
   60.0940   24.8170   52.3540 C   0  0  0  0  0  0  0  0  0  0  0  0
   60.0195   23.7383   52.1519 H   0  0  0  0  0  0  0  0  0  0  0  0
   60.9810   25.6060   51.6160 C   0  0  0  0  0  0  0  0  0  0  0  0
   61.5986   25.1496   50.8284 H   0  0  0  0  0  0  0  0  0  0  0  0
   61.0830   26.9750   51.8790 C   0  0  0  0  0  0  0  0  0  0  0  0
   61.7886   27.5935   51.3049 H   0  0  0  0  0  0  0  0  0  0  0  0
   60.2900   27.5590   52.8700 C   0  0  0  0  0  0  0  0  0  0  0  0
   60.3813   28.6350   53.0793 H   0  0  0  0  0  0  0  0  0  0  0  0
   56.5910   29.3800   52.3680 N   0  0  0  0  0  0  0  0  0  0  0  0
   56.8770   30.3610   51.5140 N   0  0  0  0  0  0  0  0  0  0  0  0
   58.0400   30.9090   51.9100 C   0  0  0  0  0  0  0  0  0  0  0  0
   58.7230   31.9720   51.3240 C   0  0  0  0  0  0  0  0  0  0  0  0
   58.3333   32.4702   50.4240 H   0  0  0  0  0  0  0  0  0  0  0  0
   62.2030   34.2070   49.5370 C   0  0  0  0  0  0  0  0  0  0  0  0
   62.8122   34.7491   50.2752 H   0  0  0  0  0  0  0  0  0  0  0  0
   62.5810   34.2010   48.1930 C   0  0  0  0  0  0  0  0  0  0  0  0
   63.4882   34.7362   47.8760 H   0  0  0  0  0  0  0  0  0  0  0  0
   61.8090   33.5160   47.2480 C   0  0  0  0  0  0  0  0  0  0  0  0
   62.1860   33.5320   45.9430 F   0  0  0  0  0  0  0  0  0  0  0  0
   57.4240   30.9680   45.1640 C   0  0  0  0  0  0  0  0  0  0  0  0
   57.3970   30.5710   46.4640 F   0  0  0  0  0  0  0  0  0  0  0  0
   58.4460   27.9380   46.6640 C   0  0  0  0  0  0  0  0  0  0  0  0
   57.9197   27.5493   47.5483 H   0  0  0  0  0  0  0  0  0  0  0  0
   59.7920   28.5900   46.8300 C   0  0  0  0  0  0  0  0  0  0  0  0
   60.0680   29.0894   45.8896 H   0  0  0  0  0  0  0  0  0  0  0  0
   60.5280   27.8133   47.0850 H   0  0  0  0  0  0  0  0  0  0  0  0
   59.7670   29.5900   47.9190 N   0  0  0  0  0  0  0  0  0  0  0  0
   58.7230   29.2390   48.8960 C   0  0  0  0  0  0  0  0  0  0  0  0
   59.1153   29.3709   49.9152 H   0  0  0  0  0  0  0  0  0  0  0  0
   57.8506   29.8932   48.7514 H   0  0  0  0  0  0  0  0  0  0  0  0
   58.4231   28.1906   48.7514 H   0  0  0  0  0  0  0  0  0  0  0  0
   61.0770   29.6590   48.5940 C   0  0  0  0  0  0  0  0  0  0  0  0
   60.9287   29.6512   49.6839 H   0  0  0  0  0  0  0  0  0  0  0  0
   61.6868   28.7917   48.3007 H   0  0  0  0  0  0  0  0  0  0  0  0
   61.5923   30.5855   48.3007 H   0  0  0  0  0  0  0  0  0  0  0  0
  1  2  1  0
  2  3  1  0
  3  4  2  0
  3  5  1  0
  5  6  1  0
  6  7  2  0
  7  8  1  0
  7  9  1  0
  9 10  1  0
  9 11  2  0
 11 12  1  0
 11 13  1  0
 13 14  1  0
 14 15  2  0
 14 16  1  0
 16 17  1  0
 16 18  1  0
 18 19  2  0
 19 20  1  0
 19 21  1  0
 21 22  1  0
 22 23  1  0
 22 24  1  0
 24 25  1  0
 25 26  1  0
 25 27  2  0
 27 28  1  0
 27 29  1  0
 29 30  2  0
 30 31  1  0
 31 32  1  0
 31 33  2  0
 33 34  1  0
 33 35  1  0
 35 36  2  0
 36 37  1  0
 36 38  1  0
 38 39  1  0
 38 40  2  0
 40 41  1  0
 40 42  1  0
 42 43  1  0
 42 44  2  0
 44 45  1  0
 30 46  1  0
 46 47  1  0
 47 48  2  0
 48 49  1  0
 49 50  1  0
 21 51  2  0
 51 52  1  0
 51 53  1  0
 53 54  1  0
 53 55  2  0
 55 56  1  0
 13 57  2  0
 57 58  1  0
  2 59  2  3
 59 60  1  0
 59 61  1  0
 61 62  1  0
 61 63  1  0
 61 64  1  0
 64 65  1  0
 65 66  1  0
 65 67  1  0
 65 68  1  0
 64 69  1  0
 69 70  1  0
 69 71  1  0
 69 72  1  0
 57  6  1  0
 55 18  1  0
 49 24  2  0
 48 29  1  0
 44 35  1  0
M  CHG  2   5  -1  46  -1
M  END
>  <UniqueID>  (72) 
69

>  <SMILES>  (72) 
CN(C)CC=CC(=O)[N-]c1cccc(C(=O)Nc2cc(Nc3ccc4c(/C=C\c5ccccc5)[n-]nc4c3)ccc2F)c1F

>  <Energy>  (72) 
142.24789661182757

>  <Genealogy>  (72) 
CN(C)CC=CC(=O)[N-]c1cccc(C(=O)Nc2cc(Nc3ccc4c(C=Cc5ccccc5)[n-]nc4c3)ccc2F)c1F (protonated)
CN(C)CC=CC(=O)[N-]c1cccc(C(=O)Nc2cc(Nc3ccc4c(/C=C\c5ccccc5)[n-]nc4c3)ccc2F)c1F (cis-trans isomerization)
CN(C)CC=CC(=O)[N-]c1cccc(C(=O)Nc2cc(Nc3ccc4c(/C=C\c5ccccc5)[n-]nc4c3)ccc2F)c1F (3D coordinates assigned)
CN(C)CC=CC(=O)[N-]c1cccc(C(=O)Nc2cc(Nc3ccc4c(/C=C\c5ccccc5)[n-]nc4c3)ccc2F)c1F (optimized conformer: 142.24789661182757 kcal/mol)

>  <smiles>  (72) 
CN(C)CC=CC(=O)Nc1cccc(C(=O)Nc2cc(Nc3ccc4c(C=Cc5ccccc5)[nH]nc4c3)ccc2F)c1F

>  <score_type>  (72) 
oracle

>  <origin>  (72) 
adg

>  <m_score__min__energy>  (72) 
-12.73

>  <m_primary>  (72) 
energy

$$$$
72:0
     RDKit          3D

 50 52  0  0  0  0  0  0  0  0999 V2000
   57.5800   29.0970   43.7740 N   0  0  0  0  0  0  0  0  0  0  0  0
   58.3830   28.6410   44.9240 C   0  0  2  0  0  0  0  0  0  0  0  0
   57.7060   27.4000   45.5860 C   0  0  0  0  0  0  0  0  0  0  0  0
   56.2070   27.4360   45.6270 C   0  0  0  0  0  0  0  0  0  0  0  0
   55.5560   26.4950   46.1520 O   0  0  0  0  0  0  0  0  0  0  0  0
   55.5280   28.5460   45.1410 O   0  0  0  0  0  0  0  0  0  0  0  0
   58.8380   29.8120   45.9080 C   0  0  0  0  0  0  0  0  0  0  0  0
   58.3430   31.2000   45.3900 C   0  0  0  0  0  0  0  0  0  0  0  0
   57.7690   32.1340   46.2890 C   0  0  0  0  0  0  0  0  0  0  0  0
   57.3320   33.3900   45.8590 C   0  0  0  0  0  0  0  0  0  0  0  0
   57.4540   33.7530   44.5220 C   0  0  0  0  0  0  0  0  0  0  0  0
   58.0130   32.8610   43.6110 C   0  0  0  0  0  0  0  0  0  0  0  0
   58.4520   31.6030   44.0330 C   0  0  0  0  0  0  0  0  0  0  0  0
   60.4290   29.8280   46.0010 C   0  0  0  0  0  0  0  0  0  0  0  0
   61.0160   29.4890   47.3780 C   0  0  0  0  0  0  0  0  0  0  0  0
   60.3540   30.2900   48.4120 N   0  0  0  0  0  0  0  0  0  0  0  0
   61.1090   30.8630   49.4950 C   0  0  0  0  0  0  0  0  0  0  0  0
   60.7060   30.7070   50.6800 O   0  0  0  0  0  0  0  0  0  0  0  0
   62.3380   31.6490   49.2460 C   0  0  0  0  0  0  0  0  0  0  0  0
   63.3930   31.6290   50.1760 C   0  0  0  0  0  0  0  0  0  0  0  0
   64.5510   32.3790   49.9470 C   0  0  0  0  0  0  0  0  0  0  0  0
   64.6630   33.1600   48.7950 C   0  0  0  0  0  0  0  0  0  0  0  0
   63.6140   33.2000   47.8720 C   0  0  0  0  0  0  0  0  0  0  0  0
   62.4540   32.4520   48.0980 C   0  0  0  0  0  0  0  0  0  0  0  0
   58.8900   30.3370   48.4540 C   0  0  0  0  0  0  0  0  0  0  0  0
   58.2760   29.4760   47.3390 C   0  0  0  0  0  0  0  0  0  0  0  0
   56.9550   28.3420   43.4160 H   0  0  0  0  0  0  0  0  0  0  0  0
   58.1810   29.4450   42.9970 H   0  0  0  0  0  0  0  0  0  0  0  0
   56.9580   29.8830   44.0730 H   0  0  0  0  0  0  0  0  0  0  0  0
   59.3591   28.2917   44.5564 H   0  0  0  0  0  0  0  0  0  0  0  0
   58.0096   26.5056   45.0221 H   0  0  0  0  0  0  0  0  0  0  0  0
   58.0399   27.3931   46.6341 H   0  0  0  0  0  0  0  0  0  0  0  0
   57.6651   31.8637   47.3502 H   0  0  0  0  0  0  0  0  0  0  0  0
   56.8903   34.0935   46.5801 H   0  0  0  0  0  0  0  0  0  0  0  0
   57.1098   34.7420   44.1853 H   0  0  0  0  0  0  0  0  0  0  0  0
   58.1097   33.1478   42.5535 H   0  0  0  0  0  0  0  0  0  0  0  0
   58.8908   30.9112   43.2990 H   0  0  0  0  0  0  0  0  0  0  0  0
   60.8177   29.0959   45.2778 H   0  0  0  0  0  0  0  0  0  0  0  0
   60.7324   30.8643   45.7913 H   0  0  0  0  0  0  0  0  0  0  0  0
   60.8600   28.4206   47.5883 H   0  0  0  0  0  0  0  0  0  0  0  0
   62.0927   29.7141   47.3787 H   0  0  0  0  0  0  0  0  0  0  0  0
   63.3068   31.0203   51.0882 H   0  0  0  0  0  0  0  0  0  0  0  0
   65.3748   32.3536   50.6755 H   0  0  0  0  0  0  0  0  0  0  0  0
   65.5773   33.7441   48.6137 H   0  0  0  0  0  0  0  0  0  0  0  0
   63.7009   33.8200   46.9676 H   0  0  0  0  0  0  0  0  0  0  0  0
   61.6276   32.4923   47.3732 H   0  0  0  0  0  0  0  0  0  0  0  0
   58.5464   29.9606   49.4288 H   0  0  0  0  0  0  0  0  0  0  0  0
   58.5698   31.3790   48.3068 H   0  0  0  0  0  0  0  0  0  0  0  0
   58.4885   28.4191   47.5577 H   0  0  0  0  0  0  0  0  0  0  0  0
   57.1968   29.6885   47.3219 H   0  0  0  0  0  0  0  0  0  0  0  0
  1  2  1  0
  2  3  1  0
  3  4  1  0
  4  5  2  0
  4  6  1  0
  2  7  1  0
  7  8  1  0
  8  9  2  0
  9 10  1  0
 10 11  2  0
 11 12  1  0
 12 13  2  0
  7 14  1  0
 14 15  1  0
 15 16  1  0
 16 17  1  0
 17 18  2  0
 17 19  1  0
 19 20  2  0
 20 21  1  0
 21 22  2  0
 22 23  1  0
 23 24  2  0
 16 25  1  0
 25 26  1  0
 26  7  1  0
 13  8  1  0
 24 19  1  0
  1 27  1  0
  1 28  1  0
  1 29  1  0
  2 30  1  6
  3 31  1  0
  3 32  1  0
  9 33  1  0
 10 34  1  0
 11 35  1  0
 12 36  1  0
 13 37  1  0
 14 38  1  0
 14 39  1  0
 15 40  1  0
 15 41  1  0
 20 42  1  0
 21 43  1  0
 22 44  1  0
 23 45  1  0
 24 46  1  0
 25 47  1  0
 25 48  1  0
 26 49  1  0
 26 50  1  0
M  CHG  2   1   1   6  -1
M  END
>  <UniqueID>  (73) 
70

>  <SMILES>  (73) 
[NH3+][C@H](CC(=O)[O-])C1(c2ccccc2)CCN(C(=O)c2ccccc2)CC1

>  <Energy>  (73) 
77.8614431067262

>  <Genealogy>  (73) 
[NH3+]C(CC(=O)[O-])C1(c2ccccc2)CCN(C(=O)c2ccccc2)CC1 (protonated)
[NH3+][C@H](CC(=O)[O-])C1(c2ccccc2)CCN(C(=O)c2ccccc2)CC1 (chirality)
[NH3+][C@H](CC(=O)[O-])C1(c2ccccc2)CCN(C(=O)c2ccccc2)CC1 (3D coordinates assigned)
[NH3+][C@H](CC(=O)[O-])C1(c2ccccc2)CCN(C(=O)c2ccccc2)CC1 (nonaromatic ring conformer: 77.8614431067262 kcal/mol)

>  <smiles>  (73) 
NC(CC(=O)O)C1(c2ccccc2)CCN(C(=O)c2ccccc2)CC1

>  <score_type>  (73) 
oracle

>  <origin>  (73) 
adg

>  <m_score__min__energy>  (73) 
-9.3399999999999999

>  <m_primary>  (73) 
energy

$$$$
73:0
     RDKit          3D

 48 50  0  0  0  0  0  0  0  0999 V2000
   49.9770   22.0580   46.2040 C   0  0  0  0  0  0  0  0  0  0  0  0
   51.2490   21.6770   45.6880 O   0  0  0  0  0  0  0  0  0  0  0  0
   52.4270   22.4190   45.8570 C   0  0  0  0  0  0  0  0  0  0  0  0
   52.7550   23.5140   45.0340 C   0  0  0  0  0  0  0  0  0  0  0  0
   53.9420   24.2210   45.2420 C   0  0  0  0  0  0  0  0  0  0  0  0
   54.8120   23.8620   46.2820 C   0  0  0  0  0  0  0  0  0  0  0  0
   56.0380   24.5900   46.4550 N   0  0  0  0  0  0  0  0  0  0  0  0
   56.1660   26.0110   46.2660 C   0  0  0  0  0  0  0  0  0  0  0  0
   55.1580   26.7140   45.9900 O   0  0  0  0  0  0  0  0  0  0  0  0
   57.4340   26.6610   46.4220 N   0  0  0  0  0  0  0  0  0  0  0  0
   57.7420   28.0040   46.0240 C   0  0  0  0  0  0  0  0  0  0  0  0
   57.1790   28.5760   44.8700 C   0  0  0  0  0  0  0  0  0  0  0  0
   57.4730   29.8980   44.5240 C   0  0  0  0  0  0  0  0  0  0  0  0
   58.3010   30.6770   45.3420 C   0  0  0  0  0  0  0  0  0  0  0  0
   58.6120   32.0180   44.9400 N   0  0  0  0  0  0  0  0  0  0  0  0
   57.7780   33.1710   45.1120 C   0  0  0  0  0  0  0  0  0  0  0  0
   56.5830   32.9950   45.4660 O   0  0  0  0  0  0  0  0  0  0  0  0
   58.3160   34.5390   44.9000 C   0  0  0  0  0  0  0  0  0  0  0  0
   59.4250   35.0450   45.4640 C   0  0  0  0  0  0  0  0  0  0  0  0
   60.1620   34.4460   46.5920 C   0  0  0  0  0  0  0  0  0  0  0  0
   61.4140   33.8380   46.3950 C   0  0  0  0  0  0  0  0  0  0  0  0
   62.1260   33.3240   47.4840 C   0  0  0  0  0  0  0  0  0  0  0  0
   61.6040   33.4320   48.7760 C   0  0  0  0  0  0  0  0  0  0  0  0
   60.3720   34.0620   48.9820 C   0  0  0  0  0  0  0  0  0  0  0  0
   59.6580   34.5770   47.8950 C   0  0  0  0  0  0  0  0  0  0  0  0
   58.8640   30.1040   46.4950 C   0  0  0  0  0  0  0  0  0  0  0  0
   58.5690   28.7820   46.8410 C   0  0  0  0  0  0  0  0  0  0  0  0
   54.4930   22.7560   47.0890 C   0  0  0  0  0  0  0  0  0  0  0  0
   53.3080   22.0470   46.8790 C   0  0  0  0  0  0  0  0  0  0  0  0
   50.0095   22.0483   47.3035 H   0  0  0  0  0  0  0  0  0  0  0  0
   49.7274   23.0703   45.8535 H   0  0  0  0  0  0  0  0  0  0  0  0
   49.2120   21.3496   45.8535 H   0  0  0  0  0  0  0  0  0  0  0  0
   52.0737   23.8138   44.2241 H   0  0  0  0  0  0  0  0  0  0  0  0
   54.1962   25.0658   44.5850 H   0  0  0  0  0  0  0  0  0  0  0  0
   56.8980   24.0350   46.6610 H   0  0  0  0  0  0  0  0  0  0  0  0
   56.5045   27.9810   44.2368 H   0  0  0  0  0  0  0  0  0  0  0  0
   57.0516   30.3290   43.6039 H   0  0  0  0  0  0  0  0  0  0  0  0
   57.7557   35.1972   44.2197 H   0  0  0  0  0  0  0  0  0  0  0  0
   59.8165   35.9857   45.0494 H   0  0  0  0  0  0  0  0  0  0  0  0
   61.8352   33.7662   45.3814 H   0  0  0  0  0  0  0  0  0  0  0  0
   63.0978   32.8343   47.3233 H   0  0  0  0  0  0  0  0  0  0  0  0
   62.1618   33.0217   49.6307 H   0  0  0  0  0  0  0  0  0  0  0  0
   59.9644   34.1524   49.9997 H   0  0  0  0  0  0  0  0  0  0  0  0
   58.6977   35.0867   48.0623 H   0  0  0  0  0  0  0  0  0  0  0  0
   59.5396   30.6981   47.1279 H   0  0  0  0  0  0  0  0  0  0  0  0
   58.9898   28.3509   47.7614 H   0  0  0  0  0  0  0  0  0  0  0  0
   55.1804   22.4472   47.8903 H   0  0  0  0  0  0  0  0  0  0  0  0
   53.0650   21.1886   47.5226 H   0  0  0  0  0  0  0  0  0  0  0  0
  1  2  1  0
  2  3  1  0
  3  4  2  0
  4  5  1  0
  5  6  2  0
  6  7  1  0
  7  8  1  0
  8  9  2  0
  8 10  1  0
 10 11  1  0
 11 12  2  0
 12 13  1  0
 13 14  2  0
 14 15  1  0
 15 16  1  0
 16 17  2  0
 16 18  1  0
 18 19  2  3
 19 20  1  0
 20 21  2  0
 21 22  1  0
 22 23  2  0
 23 24  1  0
 24 25  2  0
 14 26  1  0
 26 27  2  0
  6 28  1  0
 28 29  2  0
 29  3  1  0
 27 11  1  0
 25 20  1  0
  1 30  1  0
  1 31  1  0
  1 32  1  0
  4 33  1  0
  5 34  1  0
  7 35  1  0
 12 36  1  0
 13 37  1  0
 18 38  1  0
 19 39  1  0
 21 40  1  0
 22 41  1  0
 23 42  1  0
 24 43  1  0
 25 44  1  0
 26 45  1  0
 27 46  1  0
 28 47  1  0
 29 48  1  0
M  CHG  2  10  -1  15  -1
M  END
>  <UniqueID>  (74) 
71

>  <SMILES>  (74) 
COc1ccc(NC(=O)[N-]c2ccc([N-]C(=O)C=Cc3ccccc3)cc2)cc1

>  <Energy>  (74) 
71.94824463206564

>  <Genealogy>  (74) 
COc1ccc(NC(=O)[N-]c2ccc([N-]C(=O)C=Cc3ccccc3)cc2)cc1 (protonated)
COc1ccc(NC(=O)[N-]c2ccc([N-]C(=O)C=Cc3ccccc3)cc2)cc1 (3D coordinates assigned)
COc1ccc(NC(=O)[N-]c2ccc([N-]C(=O)C=Cc3ccccc3)cc2)cc1 (optimized conformer: 71.94824463206564 kcal/mol)

>  <smiles>  (74) 
COc1ccc(NC(=O)Nc2ccc(NC(=O)C=Cc3ccccc3)cc2)cc1

>  <score_type>  (74) 
oracle

>  <origin>  (74) 
adg

>  <m_score__min__energy>  (74) 
-10.960000000000001

>  <m_primary>  (74) 
energy

$$$$
74:0
     RDKit          3D

 51 53  0  0  0  0  0  0  0  0999 V2000
   63.9037   31.4807   50.1978 H   0  0  0  0  0  0  0  0  0  0  0  0
   64.7220   32.1680   49.9370 C   0  0  0  0  0  0  0  0  0  0  0  0
   66.0870   31.7720   50.3360 C   0  0  0  0  0  0  0  0  0  0  0  0
   66.3020   30.6780   50.9270 O   0  0  0  0  0  0  0  0  0  0  0  0
   67.1380   32.6620   50.1000 O   0  0  0  0  0  0  0  0  0  0  0  0
   67.4620   33.7220   50.9910 C   0  0  0  0  0  0  0  0  0  0  0  0
   67.3556   33.3739   52.0290 H   0  0  0  0  0  0  0  0  0  0  0  0
   68.4994   34.0435   50.8166 H   0  0  0  0  0  0  0  0  0  0  0  0
   66.7816   34.5685   50.8166 H   0  0  0  0  0  0  0  0  0  0  0  0
   64.3920   33.2930   49.2840 C   0  0  0  0  0  0  0  0  0  0  0  0
   65.1233   34.1146   49.2928 H   0  0  0  0  0  0  0  0  0  0  0  0
   63.1270   33.5190   48.5540 C   0  0  0  0  0  0  0  0  0  0  0  0
   63.0790   33.4900   47.1510 C   0  0  0  0  0  0  0  0  0  0  0  0
   63.9888   33.2580   46.5778 H   0  0  0  0  0  0  0  0  0  0  0  0
   61.8830   33.7540   46.4780 C   0  0  0  0  0  0  0  0  0  0  0  0
   61.8549   33.7160   45.3790 H   0  0  0  0  0  0  0  0  0  0  0  0
   60.7150   34.0680   47.1960 C   0  0  0  0  0  0  0  0  0  0  0  0
   59.4420   34.3570   46.4940 C   0  0  0  0  0  0  0  0  0  0  0  0
   59.3950   35.2990   45.6560 O   0  0  0  0  0  0  0  0  0  0  0  0
   58.2580   33.5900   46.7650 N   0  0  0  0  0  0  0  0  0  0  0  0
   58.2090   33.0020   47.6260 H   0  0  0  0  0  0  0  0  0  0  0  0
   57.0620   33.6720   45.9260 C   0  0  0  0  0  0  0  0  0  0  0  0
   56.3311   32.9254   46.2699 H   0  0  0  0  0  0  0  0  0  0  0  0
   56.6485   34.6880   46.0089 H   0  0  0  0  0  0  0  0  0  0  0  0
   57.3960   33.4030   44.4510 C   0  0  0  0  0  0  0  0  0  0  0  0
   56.4820   33.5349   43.8534 H   0  0  0  0  0  0  0  0  0  0  0  0
   58.1822   34.1125   44.1533 H   0  0  0  0  0  0  0  0  0  0  0  0
   57.9380   31.9820   44.2150 C   0  0  0  0  0  0  0  0  0  0  0  0
   57.9155   31.7667   43.1365 H   0  0  0  0  0  0  0  0  0  0  0  0
   58.9656   31.9384   44.6050 H   0  0  0  0  0  0  0  0  0  0  0  0
   57.1430   30.9760   44.9150 N   0  0  0  0  0  0  0  0  0  0  0  0
   57.4050   29.8690   45.5660 C   0  0  0  0  0  0  0  0  0  0  0  0
   56.7330   28.7370   45.0800 C   0  0  0  0  0  0  0  0  0  0  0  0
   56.0145   28.8474   44.2544 H   0  0  0  0  0  0  0  0  0  0  0  0
   56.9600   27.4800   45.6240 C   0  0  0  0  0  0  0  0  0  0  0  0
   56.4291   26.6043   45.2224 H   0  0  0  0  0  0  0  0  0  0  0  0
   57.8310   27.3300   46.6450 N   0  0  0  0  0  0  0  0  0  0  0  0
   58.4990   28.3820   47.1830 C   0  0  0  0  0  0  0  0  0  0  0  0
   59.3700   28.1360   48.2500 C   0  0  0  0  0  0  0  0  0  0  0  0
   59.5144   27.1072   48.6115 H   0  0  0  0  0  0  0  0  0  0  0  0
   60.0550   29.1850   48.8570 C   0  0  0  0  0  0  0  0  0  0  0  0
   61.1420   28.8670   50.1970 Cl  0  0  0  0  0  0  0  0  0  0  0  0
   59.8610   30.4860   48.4080 C   0  0  0  0  0  0  0  0  0  0  0  0
   60.3936   31.3158   48.8957 H   0  0  0  0  0  0  0  0  0  0  0  0
   58.9950   30.7500   47.3420 C   0  0  0  0  0  0  0  0  0  0  0  0
   58.8475   31.7887   47.0112 H   0  0  0  0  0  0  0  0  0  0  0  0
   58.3040   29.7050   46.6800 C   0  0  0  0  0  0  0  0  0  0  0  0
   60.7790   34.1400   48.5990 C   0  0  0  0  0  0  0  0  0  0  0  0
   59.8797   34.4078   49.1731 H   0  0  0  0  0  0  0  0  0  0  0  0
   61.9760   33.8740   49.2700 C   0  0  0  0  0  0  0  0  0  0  0  0
   62.0147   33.9438   50.3671 H   0  0  0  0  0  0  0  0  0  0  0  0
  1  2  1  0
  2  3  1  0
  3  4  2  0
  3  5  1  0
  5  6  1  0
  6  7  1  0
  6  8  1  0
  6  9  1  0
  2 10  2  3
 10 11  1  0
 10 12  1  0
 12 13  2  0
 13 14  1  0
 13 15  1  0
 15 16  1  0
 15 17  2  0
 17 18  1  0
 18 19  2  0
 18 20  1  0
 20 21  1  0
 20 22  1  0
 22 23  1  0
 22 24  1  0
 22 25  1  0
 25 26  1  0
 25 27  1  0
 25 28  1  0
 28 29  1  0
 28 30  1  0
 28 31  1  0
 31 32  2  0
 32 33  1  0
 33 34  1  0
 33 35  2  0
 35 36  1  0
 35 37  1  0
 37 38  1  0
 38 39  2  0
 39 40  1  0
 39 41  1  0
 41 42  1  0
 41 43  2  0
 43 44  1  0
 43 45  1  0
 45 46  1  0
 45 47  2  0
 17 48  1  0
 48 49  1  0
 48 50  2  0
 50 51  1  0
 50 12  1  0
 47 32  1  0
 47 38  1  0
M  CHG  1  37  -1
M  END
>  <UniqueID>  (75) 
72

>  <SMILES>  (75) 
COC(=O)C=Cc1ccc(C(=O)NCCC/N=c2/cc[n-]c3cc(Cl)ccc23)cc1

>  <Energy>  (75) 
76.42737145281897

>  <Genealogy>  (75) 
COC(=O)C=Cc1ccc(C(=O)NCCCN=c2cc[n-]c3cc(Cl)ccc23)cc1 (protonated)
COC(=O)C=Cc1ccc(C(=O)NCCC/N=c2/cc[n-]c3cc(Cl)ccc23)cc1 (cis-trans isomerization)
COC(=O)C=Cc1ccc(C(=O)NCCC/N=c2/cc[n-]c3cc(Cl)ccc23)cc1 (3D coordinates assigned)
COC(=O)C=Cc1ccc(C(=O)NCCC/N=c2/cc[n-]c3cc(Cl)ccc23)cc1 (optimized conformer: 76.42737145281897 kcal/mol)

>  <smiles>  (75) 
COC(=O)C=Cc1ccc(C(=O)NCCCN=c2cc[nH]c3cc(Cl)ccc23)cc1

>  <score_type>  (75) 
oracle

>  <origin>  (75) 
adg

>  <m_score__min__energy>  (75) 
-9.9299999999999997

>  <m_primary>  (75) 
energy

$$$$
75:0
     RDKit          3D

 39 41  0  0  0  0  0  0  0  0999 V2000
   54.8440   26.3490   46.1110 N   0  0  0  0  0  0  0  0  0  0  0  0
   56.2430   26.0850   46.0320 C   0  0  0  0  0  0  0  0  0  0  0  0
   56.6700   24.9440   46.3520 O   0  0  0  0  0  0  0  0  0  0  0  0
   57.1870   27.1480   45.6110 C   0  0  0  0  0  0  0  0  0  0  0  0
   58.5140   26.8260   45.2750 C   0  0  0  0  0  0  0  0  0  0  0  0
   59.4160   27.8320   44.9170 C   0  0  0  0  0  0  0  0  0  0  0  0
   58.9980   29.1610   44.8690 C   0  0  0  0  0  0  0  0  0  0  0  0
   57.6720   29.5020   45.1880 C   0  0  0  0  0  0  0  0  0  0  0  0
   57.2070   30.8240   45.1000 O   0  0  0  0  0  0  0  0  0  0  0  0
   57.9880   31.9620   45.3370 C   0  0  0  0  0  0  0  0  0  0  0  0
   57.6490   33.1570   44.7030 C   0  0  0  0  0  0  0  0  0  0  0  0
   58.4220   34.3000   44.9270 C   0  0  0  0  0  0  0  0  0  0  0  0
   59.4900   34.2520   45.7690 N   0  0  0  0  0  0  0  0  0  0  0  0
   59.8320   33.1060   46.4370 C   0  0  0  0  0  0  0  0  0  0  0  0
   60.9760   33.1020   47.3880 C   0  0  0  0  0  0  0  0  0  0  0  0
   62.0540   32.2140   47.2020 C   0  0  0  0  0  0  0  0  0  0  0  0
   63.1440   32.2260   48.0760 C   0  0  0  0  0  0  0  0  0  0  0  0
   63.1910   33.1310   49.1470 C   0  0  0  0  0  0  0  0  0  0  0  0
   64.3850   33.1220   50.0710 C   0  0  0  0  0  0  0  0  0  0  0  0
   64.3500   34.2450   50.8720 F   0  0  0  0  0  0  0  0  0  0  0  0
   64.3540   31.9950   50.8750 F   0  0  0  0  0  0  0  0  0  0  0  0
   65.5720   33.1200   49.3690 F   0  0  0  0  0  0  0  0  0  0  0  0
   62.1160   34.0130   49.3410 C   0  0  0  0  0  0  0  0  0  0  0  0
   61.0190   33.9970   48.4730 C   0  0  0  0  0  0  0  0  0  0  0  0
   59.0710   31.9390   46.2270 C   0  0  0  0  0  0  0  0  0  0  0  0
   56.7740   28.4920   45.5560 C   0  0  0  0  0  0  0  0  0  0  0  0
   54.4760   27.0990   46.7310 H   0  0  0  0  0  0  0  0  0  0  0  0
   58.8439   25.7768   45.2940 H   0  0  0  0  0  0  0  0  0  0  0  0
   60.4572   27.5746   44.6728 H   0  0  0  0  0  0  0  0  0  0  0  0
   59.7102   29.9478   44.5797 H   0  0  0  0  0  0  0  0  0  0  0  0
   56.7791   33.1999   44.0311 H   0  0  0  0  0  0  0  0  0  0  0  0
   58.1659   35.2423   44.4205 H   0  0  0  0  0  0  0  0  0  0  0  0
   60.0570   35.1240   45.8820 H   0  0  0  0  0  0  0  0  0  0  0  0
   62.0373   31.5050   46.3612 H   0  0  0  0  0  0  0  0  0  0  0  0
   63.9730   31.5193   47.9230 H   0  0  0  0  0  0  0  0  0  0  0  0
   62.1365   34.7219   50.1818 H   0  0  0  0  0  0  0  0  0  0  0  0
   60.1819   34.6908   48.6403 H   0  0  0  0  0  0  0  0  0  0  0  0
   59.3262   31.0114   46.7604 H   0  0  0  0  0  0  0  0  0  0  0  0
   55.7346   28.7523   45.8047 H   0  0  0  0  0  0  0  0  0  0  0  0
  1  2  1  0
  2  3  2  0
  2  4  1  0
  4  5  2  0
  5  6  1  0
  6  7  2  0
  7  8  1  0
  8  9  1  0
  9 10  1  0
 10 11  2  0
 11 12  1  0
 12 13  2  0
 13 14  1  0
 14 15  1  0
 15 16  2  0
 16 17  1  0
 17 18  2  0
 18 19  1  0
 19 20  1  0
 19 21  1  0
 19 22  1  0
 18 23  1  0
 23 24  2  0
 14 25  2  0
  8 26  2  0
 26  4  1  0
 25 10  1  0
 24 15  1  0
  1 27  1  0
  5 28  1  0
  6 29  1  0
  7 30  1  0
 11 31  1  0
 12 32  1  0
 13 33  1  0
 16 34  1  0
 17 35  1  0
 23 36  1  0
 24 37  1  0
 25 38  1  0
 26 39  1  0
M  CHG  2   1  -1  13   1
M  END
>  <UniqueID>  (76) 
73

>  <SMILES>  (76) 
[NH-]C(=O)c1cccc(Oc2cc[nH+]c(-c3ccc(C(F)(F)F)cc3)c2)c1

>  <Energy>  (76) 
54.71728714495241

>  <Genealogy>  (76) 
[NH-]C(=O)c1cccc(Oc2cc[nH+]c(-c3ccc(C(F)(F)F)cc3)c2)c1 (protonated)
[NH-]C(=O)c1cccc(Oc2cc[nH+]c(-c3ccc(C(F)(F)F)cc3)c2)c1 (3D coordinates assigned)
[NH-]C(=O)c1cccc(Oc2cc[nH+]c(-c3ccc(C(F)(F)F)cc3)c2)c1 (optimized conformer: 54.71728714495241 kcal/mol)

>  <smiles>  (76) 
NC(=O)c1cccc(Oc2ccnc(-c3ccc(C(F)(F)F)cc3)c2)c1

>  <score_type>  (76) 
oracle

>  <origin>  (76) 
adg

>  <m_score__min__energy>  (76) 
-10.289999999999999

>  <m_primary>  (76) 
energy

$$$$
76:0
     RDKit          3D

 45 48  0  0  0  0  0  0  0  0999 V2000
   58.5434   28.3842   44.2275 H   0  0  0  0  0  0  0  0  0  0  0  0
   58.0920   27.4500   44.5930 C   0  0  0  0  0  0  0  0  0  0  0  0
   57.7920   27.3150   45.9560 C   0  0  0  0  0  0  0  0  0  0  0  0
   58.0670   28.3640   46.9010 N   0  0  0  0  0  0  0  0  0  0  0  0
   58.3480   29.6050   46.6270 C   0  0  0  0  0  0  0  0  0  0  0  0
   59.5140   30.1700   47.0380 N   0  0  0  0  0  0  0  0  0  0  0  0
   59.8350   31.4600   46.7430 C   0  0  0  0  0  0  0  0  0  0  0  0
   58.9320   32.2350   45.9790 C   0  0  0  0  0  0  0  0  0  0  0  0
   57.7400   31.6220   45.5520 C   0  0  0  0  0  0  0  0  0  0  0  0
   57.0163   32.1907   44.9496 H   0  0  0  0  0  0  0  0  0  0  0  0
   57.4800   30.3310   45.8810 N   0  0  0  0  0  0  0  0  0  0  0  0
   59.2520   33.5740   45.6820 C   0  0  0  0  0  0  0  0  0  0  0  0
   58.3360   34.4540   44.8700 C   0  0  0  0  0  0  0  0  0  0  0  0
   57.7104   35.0550   45.5463 H   0  0  0  0  0  0  0  0  0  0  0  0
   58.9368   35.1222   44.2356 H   0  0  0  0  0  0  0  0  0  0  0  0
   57.6924   33.8268   44.2356 H   0  0  0  0  0  0  0  0  0  0  0  0
   60.4510   34.1040   46.1710 C   0  0  0  0  0  0  0  0  0  0  0  0
   60.7126   35.1509   45.9577 H   0  0  0  0  0  0  0  0  0  0  0  0
   61.3180   33.3130   46.9280 C   0  0  0  0  0  0  0  0  0  0  0  0
   62.3800   33.8320   47.3680 O   0  0  0  0  0  0  0  0  0  0  0  0
   61.0180   31.9990   47.1880 N   0  0  0  0  0  0  0  0  0  0  0  0
   61.9270   31.1770   48.0080 C   0  0  0  0  0  0  0  0  0  0  0  0
   61.7253   31.3594   49.0738 H   0  0  0  0  0  0  0  0  0  0  0  0
   61.7645   30.1130   47.7809 H   0  0  0  0  0  0  0  0  0  0  0  0
   62.9693   31.4454   47.7809 H   0  0  0  0  0  0  0  0  0  0  0  0
   57.2780   26.1070   46.4290 C   0  0  0  0  0  0  0  0  0  0  0  0
   57.0853   25.9854   47.5051 H   0  0  0  0  0  0  0  0  0  0  0  0
   57.0020   25.0410   45.5510 C   0  0  0  0  0  0  0  0  0  0  0  0
   56.4600   23.8170   46.0160 C   0  0  0  0  0  0  0  0  0  0  0  0
   56.1490   23.5790   47.4720 C   0  0  0  0  0  0  0  0  0  0  0  0
   56.8687   24.1298   48.0954 H   0  0  0  0  0  0  0  0  0  0  0  0
   55.1299   23.9301   47.6914 H   0  0  0  0  0  0  0  0  0  0  0  0
   56.2215   22.5035   47.6914 H   0  0  0  0  0  0  0  0  0  0  0  0
   56.2010   22.7940   45.0960 C   0  0  0  0  0  0  0  0  0  0  0  0
   55.7800   21.8385   45.4421 H   0  0  0  0  0  0  0  0  0  0  0  0
   56.4750   22.9830   43.7440 C   0  0  0  0  0  0  0  0  0  0  0  0
   56.2390   22.0560   42.9240 O   0  0  0  0  0  0  0  0  0  0  0  0
   56.9980   24.1610   43.3070 N   0  0  0  0  0  0  0  0  0  0  0  0
   57.1860   24.2470   42.2830 H   0  0  0  0  0  0  0  0  0  0  0  0
   57.2710   25.1940   44.1630 C   0  0  0  0  0  0  0  0  0  0  0  0
   57.8250   26.4110   43.6880 C   0  0  0  0  0  0  0  0  0  0  0  0
   58.1470   26.6220   42.2310 C   0  0  0  0  0  0  0  0  0  0  0  0
   59.0640   27.2229   42.1414 H   0  0  0  0  0  0  0  0  0  0  0  0
   58.2983   25.6473   41.7440 H   0  0  0  0  0  0  0  0  0  0  0  0
   57.3137   27.1498   41.7440 H   0  0  0  0  0  0  0  0  0  0  0  0
  1  2  1  0
  2  3  2  0
  3  4  1  0
  4  5  2  0
  5  6  1  0
  6  7  2  0
  7  8  1  0
  8  9  2  0
  9 10  1  0
  9 11  1  0
  8 12  1  0
 12 13  1  0
 13 14  1  0
 13 15  1  0
 13 16  1  0
 12 17  2  0
 17 18  1  0
 17 19  1  0
 19 20  2  0
 19 21  1  0
 21 22  1  0
 22 23  1  0
 22 24  1  0
 22 25  1  0
  3 26  1  0
 26 27  1  0
 26 28  2  0
 28 29  1  0
 29 30  1  0
 30 31  1  0
 30 32  1  0
 30 33  1  0
 29 34  2  0
 34 35  1  0
 34 36  1  0
 36 37  2  0
 36 38  1  0
 38 39  1  0
 38 40  1  0
 40 41  2  0
 41 42  1  0
 42 43  1  0
 42 44  1  0
 42 45  1  0
 41  2  1  0
 11  5  1  0
 40 28  1  0
 21  7  1  0
M  CHG  1  11  -1
M  END
>  <UniqueID>  (77) 
74

>  <SMILES>  (77) 
Cc1cc(=O)[nH]c2c(C)cc(/N=c3\nc4c(c[n-]3)c(C)cc(=O)n4C)cc12

>  <Energy>  (77) 
70.70159817171083

>  <Genealogy>  (77) 
Cc1cc(=O)[nH]c2c(C)cc(N=c3nc4c(c[n-]3)c(C)cc(=O)n4C)cc12 (protonated)
Cc1cc(=O)[nH]c2c(C)cc(/N=c3\nc4c(c[n-]3)c(C)cc(=O)n4C)cc12 (cis-trans isomerization)
Cc1cc(=O)[nH]c2c(C)cc(/N=c3\nc4c(c[n-]3)c(C)cc(=O)n4C)cc12 (3D coordinates assigned)
Cc1cc(=O)[nH]c2c(C)cc(/N=c3\nc4c(c[n-]3)c(C)cc(=O)n4C)cc12 (optimized conformer: 70.70159817171083 kcal/mol)

>  <smiles>  (77) 
Cc1cc(=O)[nH]c2c(C)cc(N=c3nc4c(c[nH]3)c(C)cc(=O)n4C)cc12

>  <score_type>  (77) 
oracle

>  <origin>  (77) 
adg

>  <m_score__min__energy>  (77) 
-9.5700000000000003

>  <m_primary>  (77) 
energy

$$$$
77:0
     RDKit          3D

 58 61  0  0  0  0  0  0  0  0999 V2000
   56.7014   32.4947   46.2177 H   0  0  0  0  0  0  0  0  0  0  0  0
   57.5260   33.2200   46.1540 C   0  0  0  0  0  0  0  0  0  0  0  0
   58.1900   33.5940   47.2790 N   0  0  0  0  0  0  0  0  0  0  0  0
   59.2170   34.4880   47.2550 C   0  0  0  0  0  0  0  0  0  0  0  0
   59.8040   34.7870   48.3780 N   0  0  0  0  0  0  0  0  0  0  0  0
   60.1190   33.7100   49.7040 S   0  0  0  0  0  0  0  0  0  0  0  0
   59.0390   33.8810   50.7360 O   0  0  0  0  0  0  0  0  0  0  0  0
   61.4560   34.0170   50.3150 O   0  0  0  0  0  0  0  0  0  0  0  0
   60.1220   32.0410   49.1100 C   0  0  0  0  0  0  0  0  0  0  0  0
   59.0020   31.2300   49.3450 C   0  0  0  0  0  0  0  0  0  0  0  0
   58.1521   31.6283   49.9187 H   0  0  0  0  0  0  0  0  0  0  0  0
   58.9550   29.9220   48.8580 C   0  0  0  0  0  0  0  0  0  0  0  0
   58.0750   29.2942   49.0615 H   0  0  0  0  0  0  0  0  0  0  0  0
   60.0230   29.4040   48.1110 C   0  0  0  0  0  0  0  0  0  0  0  0
   60.0030   28.0540   47.6160 N   0  0  0  0  0  0  0  0  0  0  0  0
   60.4880   27.3200   48.1820 H   0  0  0  0  0  0  0  0  0  0  0  0
   59.3640   27.6450   46.3940 C   0  0  0  0  0  0  0  0  0  0  0  0
   59.6570   28.3250   45.2040 C   0  0  0  0  0  0  0  0  0  0  0  0
   60.3751   29.1583   45.2124 H   0  0  0  0  0  0  0  0  0  0  0  0
   59.0420   27.9500   44.0080 C   0  0  0  0  0  0  0  0  0  0  0  0
   59.2897   28.4773   43.0750 H   0  0  0  0  0  0  0  0  0  0  0  0
   58.1130   26.9070   43.9930 C   0  0  0  0  0  0  0  0  0  0  0  0
   57.6474   26.6035   43.0438 H   0  0  0  0  0  0  0  0  0  0  0  0
   57.7700   26.2440   45.1810 C   0  0  0  0  0  0  0  0  0  0  0  0
   56.8170   25.1690   45.1380 N   0  0  0  0  0  0  0  0  0  0  0  0
   57.0640   24.3230   44.5760 H   0  0  0  0  0  0  0  0  0  0  0  0
   55.4980   25.2440   45.7060 C   0  0  0  0  0  0  0  0  0  0  0  0
   54.9860   26.3660   45.9720 O   0  0  0  0  0  0  0  0  0  0  0  0
   54.7110   24.0210   45.9430 C   0  0  0  0  0  0  0  0  0  0  0  0
   55.1560   22.8690   46.5630 C   0  0  0  0  0  0  0  0  0  0  0  0
   56.1643   22.7172   46.9757 H   0  0  0  0  0  0  0  0  0  0  0  0
   54.1860   21.9840   46.5820 O   0  0  0  0  0  0  0  0  0  0  0  0
   53.1270   22.4980   46.0010 C   0  0  0  0  0  0  0  0  0  0  0  0
   52.1642   21.9819   45.8721 H   0  0  0  0  0  0  0  0  0  0  0  0
   53.4010   23.7820   45.5760 C   0  0  0  0  0  0  0  0  0  0  0  0
   52.7195   24.4703   45.0546 H   0  0  0  0  0  0  0  0  0  0  0  0
   58.4080   26.6120   46.3800 C   0  0  0  0  0  0  0  0  0  0  0  0
   58.1575   26.0880   47.3142 H   0  0  0  0  0  0  0  0  0  0  0  0
   61.1590   30.1970   47.9020 C   0  0  0  0  0  0  0  0  0  0  0  0
   62.0123   29.7872   47.3418 H   0  0  0  0  0  0  0  0  0  0  0  0
   61.2210   31.5080   48.3990 C   0  0  0  0  0  0  0  0  0  0  0  0
   62.4470   32.2910   48.1640 C   0  0  0  0  0  0  0  0  0  0  0  0
   62.5680   32.9170   47.0770 O   0  0  0  0  0  0  0  0  0  0  0  0
   63.4930   32.3500   49.1530 N   0  0  0  0  0  0  0  0  0  0  0  0
   63.6280   31.2770   50.1430 C   0  0  0  0  0  0  0  0  0  0  0  0
   63.5743   31.7035   51.1555 H   0  0  0  0  0  0  0  0  0  0  0  0
   62.8143   30.5491   50.0081 H   0  0  0  0  0  0  0  0  0  0  0  0
   64.5966   30.7734   50.0081 H   0  0  0  0  0  0  0  0  0  0  0  0
   64.4500   33.4590   49.1150 C   0  0  0  0  0  0  0  0  0  0  0  0
   64.7070   33.7569   50.1422 H   0  0  0  0  0  0  0  0  0  0  0  0
   65.3607   33.1396   48.5871 H   0  0  0  0  0  0  0  0  0  0  0  0
   64.0007   34.3131   48.5871 H   0  0  0  0  0  0  0  0  0  0  0  0
   59.6060   35.0500   46.0220 C   0  0  0  0  0  0  0  0  0  0  0  0
   60.4310   35.7763   45.9786 H   0  0  0  0  0  0  0  0  0  0  0  0
   58.9340   34.6760   44.8560 C   0  0  0  0  0  0  0  0  0  0  0  0
   59.2295   35.1084   43.8887 H   0  0  0  0  0  0  0  0  0  0  0  0
   57.8900   33.7560   44.9170 C   0  0  0  0  0  0  0  0  0  0  0  0
   57.3587   33.4553   44.0019 H   0  0  0  0  0  0  0  0  0  0  0  0
  1  2  1  0
  2  3  1  0
  3  4  1  0
  4  5  2  0
  5  6  1  0
  6  7  2  0
  6  8  2  0
  6  9  1  0
  9 10  2  0
 10 11  1  0
 10 12  1  0
 12 13  1  0
 12 14  2  0
 14 15  1  0
 15 16  1  0
 15 17  1  0
 17 18  2  0
 18 19  1  0
 18 20  1  0
 20 21  1  0
 20 22  2  0
 22 23  1  0
 22 24  1  0
 24 25  1  0
 25 26  1  0
 25 27  1  0
 27 28  2  0
 27 29  1  0
 29 30  2  0
 30 31  1  0
 30 32  1  0
 32 33  1  0
 33 34  1  0
 33 35  2  0
 35 36  1  0
 24 37  2  0
 37 38  1  0
 14 39  1  0
 39 40  1  0
 39 41  2  0
 41 42  1  0
 42 43  2  0
 42 44  1  0
 44 45  1  0
 45 46  1  0
 45 47  1  0
 45 48  1  0
 44 49  1  0
 49 50  1  0
 49 51  1  0
 49 52  1  0
  4 53  1  0
 53 54  1  0
 53 55  2  0
 55 56  1  0
 55 57  1  0
 57 58  1  0
 57  2  2  0
 41  9  1  0
 37 17  1  0
 35 29  1  0
M  CHG  1   3  -1
M  END
>  <UniqueID>  (78) 
75

>  <SMILES>  (78) 
CN(C)C(=O)c1cc(Nc2cccc(NC(=O)c3ccoc3)c2)ccc1S(=O)(=O)/N=c1\cccc[n-]1

>  <Energy>  (78) 
108.98987609678392

>  <Genealogy>  (78) 
CN(C)C(=O)c1cc(Nc2cccc(NC(=O)c3ccoc3)c2)ccc1S(=O)(=O)N=c1cccc[n-]1 (protonated)
CN(C)C(=O)c1cc(Nc2cccc(NC(=O)c3ccoc3)c2)ccc1S(=O)(=O)/N=c1\cccc[n-]1 (cis-trans isomerization)
CN(C)C(=O)c1cc(Nc2cccc(NC(=O)c3ccoc3)c2)ccc1S(=O)(=O)/N=c1\cccc[n-]1 (3D coordinates assigned)
CN(C)C(=O)c1cc(Nc2cccc(NC(=O)c3ccoc3)c2)ccc1S(=O)(=O)/N=c1\cccc[n-]1 (optimized conformer: 108.98987609678392 kcal/mol)

>  <smiles>  (78) 
CN(C)C(=O)c1cc(Nc2cccc(NC(=O)c3ccoc3)c2)ccc1S(=O)(=O)N=c1cccc[nH]1

>  <score_type>  (78) 
oracle

>  <origin>  (78) 
adg

>  <m_score__min__energy>  (78) 
-11.32

>  <m_primary>  (78) 
energy

$$$$
78:0
     RDKit          3D

 57 60  0  0  0  0  0  0  0  0999 V2000
   60.5760   34.3270   48.7620 C   0  0  0  0  0  0  0  0  0  0  0  0
   59.9080   34.6310   47.5310 N   0  0  0  0  0  0  0  0  0  0  0  0
   60.7330   34.3140   46.3750 C   0  0  0  0  0  0  0  0  0  0  0  0
   58.5920   34.0220   47.4500 C   0  0  0  0  0  0  0  0  0  0  0  0
   58.0380   34.3400   46.0870 C   0  0  0  0  0  0  0  0  0  0  0  0
   57.4000   33.0890   45.5340 C   0  0  0  0  0  0  0  0  0  0  0  0
   58.3300   32.4060   44.6910 O   0  0  0  0  0  0  0  0  0  0  0  0
   58.2140   31.0020   44.6990 C   0  0  0  0  0  0  0  0  0  0  0  0
   57.4340   30.3580   43.7510 C   0  0  0  0  0  0  0  0  0  0  0  0
   57.3300   28.9790   43.7710 C   0  0  0  0  0  0  0  0  0  0  0  0
   57.9830   28.2060   44.7140 C   0  0  0  0  0  0  0  0  0  0  0  0
   57.8490   26.7530   44.6970 C   0  0  0  0  0  0  0  0  0  0  0  0
   58.1550   25.9330   45.7180 N   0  0  0  0  0  0  0  0  0  0  0  0
   57.9210   24.6530   45.4070 C   0  0  0  0  0  0  0  0  0  0  0  0
   58.0390   23.4250   46.0240 C   0  0  0  0  0  0  0  0  0  0  0  0
   57.6930   22.2490   45.3910 C   0  0  0  0  0  0  0  0  0  0  0  0
   57.8360   21.0850   46.0610 F   0  0  0  0  0  0  0  0  0  0  0  0
   57.2190   22.3330   44.1000 C   0  0  0  0  0  0  0  0  0  0  0  0
   57.0800   23.5340   43.4300 C   0  0  0  0  0  0  0  0  0  0  0  0
   57.4370   24.6840   44.1020 C   0  0  0  0  0  0  0  0  0  0  0  0
   57.3940   25.9720   43.6730 N   0  0  0  0  0  0  0  0  0  0  0  0
   58.7520   28.8460   45.6500 C   0  0  0  0  0  0  0  0  0  0  0  0
   58.8640   30.2260   45.6380 C   0  0  0  0  0  0  0  0  0  0  0  0
   59.6490   30.8610   46.5940 O   0  0  0  0  0  0  0  0  0  0  0  0
   60.4190   30.1120   47.5040 C   0  0  0  0  0  0  0  0  0  0  0  0
   61.5520   30.9550   47.9910 C   0  0  0  0  0  0  0  0  0  0  0  0
   62.4000   31.6270   47.1380 C   0  0  0  0  0  0  0  0  0  0  0  0
   63.4290   32.3900   47.6580 C   0  0  0  0  0  0  0  0  0  0  0  0
   63.5990   32.4700   49.0270 C   0  0  0  0  0  0  0  0  0  0  0  0
   62.7500   31.7960   49.8590 C   0  0  0  0  0  0  0  0  0  0  0  0
   61.7080   31.0240   49.3810 C   0  0  0  0  0  0  0  0  0  0  0  0
   59.9361   34.6182   49.6080 H   0  0  0  0  0  0  0  0  0  0  0  0
   60.7803   33.2473   48.8114 H   0  0  0  0  0  0  0  0  0  0  0  0
   61.5243   34.8822   48.8114 H   0  0  0  0  0  0  0  0  0  0  0  0
   61.7099   33.9386   46.7136 H   0  0  0  0  0  0  0  0  0  0  0  0
   60.2342   33.5435   45.7688 H   0  0  0  0  0  0  0  0  0  0  0  0
   60.8785   35.2203   45.7688 H   0  0  0  0  0  0  0  0  0  0  0  0
   58.6722   32.9326   47.5796 H   0  0  0  0  0  0  0  0  0  0  0  0
   57.9325   34.4104   48.2401 H   0  0  0  0  0  0  0  0  0  0  0  0
   57.2848   35.1376   46.1679 H   0  0  0  0  0  0  0  0  0  0  0  0
   58.8428   34.6829   45.4201 H   0  0  0  0  0  0  0  0  0  0  0  0
   57.1073   32.4300   46.3647 H   0  0  0  0  0  0  0  0  0  0  0  0
   56.5101   33.3625   44.9480 H   0  0  0  0  0  0  0  0  0  0  0  0
   56.9001   30.9412   42.9862 H   0  0  0  0  0  0  0  0  0  0  0  0
   56.7080   28.4810   43.0126 H   0  0  0  0  0  0  0  0  0  0  0  0
   58.4215   23.3819   47.0545 H   0  0  0  0  0  0  0  0  0  0  0  0
   56.9393   21.4047   43.5803 H   0  0  0  0  0  0  0  0  0  0  0  0
   56.6987   23.5710   42.3989 H   0  0  0  0  0  0  0  0  0  0  0  0
   57.0740   26.3110   42.7300 H   0  0  0  0  0  0  0  0  0  0  0  0
   59.2831   28.2605   46.4149 H   0  0  0  0  0  0  0  0  0  0  0  0
   59.7922   29.8089   48.3556 H   0  0  0  0  0  0  0  0  0  0  0  0
   60.8116   29.2127   47.0068 H   0  0  0  0  0  0  0  0  0  0  0  0
   62.2591   31.5568   46.0493 H   0  0  0  0  0  0  0  0  0  0  0  0
   64.1098   32.9313   46.9845 H   0  0  0  0  0  0  0  0  0  0  0  0
   64.4163   33.0752   49.4463 H   0  0  0  0  0  0  0  0  0  0  0  0
   62.9010   31.8704   50.9460 H   0  0  0  0  0  0  0  0  0  0  0  0
   61.0312   30.4875   50.0622 H   0  0  0  0  0  0  0  0  0  0  0  0
  1  2  1  0
  2  3  1  0
  2  4  1  0
  4  5  1  0
  5  6  1  0
  6  7  1  0
  7  8  1  0
  8  9  2  0
  9 10  1  0
 10 11  2  0
 11 12  1  0
 12 13  2  0
 13 14  1  0
 14 15  2  0
 15 16  1  0
 16 17  1  0
 16 18  2  0
 18 19  1  0
 19 20  2  0
 20 21  1  0
 11 22  1  0
 22 23  2  0
 23 24  1  0
 24 25  1  0
 25 26  1  0
 26 27  2  0
 27 28  1  0
 28 29  2  0
 29 30  1  0
 30 31  2  0
 23  8  1  0
 31 26  1  0
 21 12  1  0
 20 14  1  0
  1 32  1  0
  1 33  1  0
  1 34  1  0
  3 35  1  0
  3 36  1  0
  3 37  1  0
  4 38  1  0
  4 39  1  0
  5 40  1  0
  5 41  1  0
  6 42  1  0
  6 43  1  0
  9 44  1  0
 10 45  1  0
 15 46  1  0
 18 47  1  0
 19 48  1  0
 21 49  1  0
 22 50  1  0
 25 51  1  0
 25 52  1  0
 27 53  1  0
 28 54  1  0
 29 55  1  0
 30 56  1  0
 31 57  1  0
M  END
>  <smiles>  (79) 
CN(C)CCCOc1ccc(-c2nc3cc(F)ccc3[nH]2)cc1OCc1ccccc1

>  <score_type>  (79) 
oracle

>  <origin>  (79) 
adg

>  <m_score__min__energy>  (79) 
-7.5300000000000002

>  <m_primary>  (79) 
energy

$$$$
79:0
     RDKit          3D

 46 48  0  0  0  0  0  0  0  0999 V2000
   56.2880   31.2620   52.1150 C   0  0  0  0  0  0  0  0  0  0  0  0
   57.4480   32.1040   51.6700 C   0  0  0  0  0  0  0  0  0  0  0  0
   57.8290   33.2310   52.4140 C   0  0  0  0  0  0  0  0  0  0  0  0
   58.8980   34.0230   51.9870 C   0  0  0  0  0  0  0  0  0  0  0  0
   59.5800   33.7100   50.8090 C   0  0  0  0  0  0  0  0  0  0  0  0
   59.1850   32.6100   50.0330 C   0  0  0  0  0  0  0  0  0  0  0  0
   59.9140   32.2940   48.8350 N   0  0  0  0  0  0  0  0  0  0  0  0
   59.5050   32.7060   47.5220 C   0  0  0  0  0  0  0  0  0  0  0  0
   59.0770   34.2660   47.2520 S   0  0  0  0  0  0  0  0  0  0  0  0
   59.6100   31.8070   46.4090 N   0  0  0  0  0  0  0  0  0  0  0  0
   59.7880   30.3630   46.5640 C   0  0  0  0  0  0  0  0  0  0  0  0
   58.4390   29.6260   46.4660 C   0  0  1  0  0  0  0  0  0  0  0  0
   57.6650   29.9570   45.1900 C   0  0  0  0  0  0  0  0  0  0  0  0
   56.8550   28.7050   44.8890 C   0  0  0  0  0  0  0  0  0  0  0  0
   57.5310   27.6130   45.5800 N   0  0  0  0  0  0  0  0  0  0  0  0
   57.1260   26.2230   45.4680 C   0  0  0  0  0  0  0  0  0  0  0  0
   58.0880   25.2350   45.1650 C   0  0  0  0  0  0  0  0  0  0  0  0
   57.7260   23.8920   45.0430 C   0  0  0  0  0  0  0  0  0  0  0  0
   56.3990   23.5050   45.2240 C   0  0  0  0  0  0  0  0  0  0  0  0
   55.9480   21.8160   45.0710 Cl  0  0  0  0  0  0  0  0  0  0  0  0
   55.4320   24.4620   45.5330 C   0  0  0  0  0  0  0  0  0  0  0  0
   55.7820   25.8110   45.6610 C   0  0  0  0  0  0  0  0  0  0  0  0
   54.7830   26.7160   45.9930 O   0  0  0  0  0  0  0  0  0  0  0  0
   58.5990   28.1060   46.4400 C   0  0  0  0  0  0  0  0  0  0  0  0
   58.1220   31.8030   50.4760 C   0  0  0  0  0  0  0  0  0  0  0  0
   56.2535   31.2369   53.2142 H   0  0  0  0  0  0  0  0  0  0  0  0
   55.3526   31.6928   51.7285 H   0  0  0  0  0  0  0  0  0  0  0  0
   56.4078   30.2391   51.7285 H   0  0  0  0  0  0  0  0  0  0  0  0
   57.2856   33.4913   53.3343 H   0  0  0  0  0  0  0  0  0  0  0  0
   59.2038   34.8968   52.5812 H   0  0  0  0  0  0  0  0  0  0  0  0
   60.4309   34.3289   50.4882 H   0  0  0  0  0  0  0  0  0  0  0  0
   60.7860   31.7260   48.9200 H   0  0  0  0  0  0  0  0  0  0  0  0
   59.5040   32.1870   45.4420 H   0  0  0  0  0  0  0  0  0  0  0  0
   60.4566   29.9960   45.7714 H   0  0  0  0  0  0  0  0  0  0  0  0
   60.2221   30.1682   47.5558 H   0  0  0  0  0  0  0  0  0  0  0  0
   57.8998   29.9665   47.3623 H   0  0  0  0  0  0  0  0  0  0  0  0
   57.0004   30.8183   45.3527 H   0  0  0  0  0  0  0  0  0  0  0  0
   58.3325   30.2287   44.3589 H   0  0  0  0  0  0  0  0  0  0  0  0
   55.8267   28.8159   45.2635 H   0  0  0  0  0  0  0  0  0  0  0  0
   56.7896   28.5179   43.8070 H   0  0  0  0  0  0  0  0  0  0  0  0
   59.1388   25.5278   45.0229 H   0  0  0  0  0  0  0  0  0  0  0  0
   58.4898   23.1375   44.8035 H   0  0  0  0  0  0  0  0  0  0  0  0
   54.3860   24.1538   45.6772 H   0  0  0  0  0  0  0  0  0  0  0  0
   58.4972   27.6920   47.4540 H   0  0  0  0  0  0  0  0  0  0  0  0
   59.5905   27.8079   46.0684 H   0  0  0  0  0  0  0  0  0  0  0  0
   57.8162   30.9290   49.8822 H   0  0  0  0  0  0  0  0  0  0  0  0
  1  2  1  0
  2  3  2  0
  3  4  1  0
  4  5  2  0
  5  6  1  0
  6  7  1  0
  7  8  1  0
  8  9  2  0
  8 10  1  0
 10 11  1  0
 11 12  1  0
 12 13  1  0
 13 14  1  0
 14 15  1  0
 15 16  1  0
 16 17  2  0
 17 18  1  0
 18 19  2  0
 19 20  1  0
 19 21  1  0
 21 22  2  0
 22 23  1  0
 15 24  1  0
  6 25  2  0
 25  2  1  0
 24 12  1  0
 22 16  1  0
  1 26  1  0
  1 27  1  0
  1 28  1  0
  3 29  1  0
  4 30  1  0
  5 31  1  0
  7 32  1  0
 10 33  1  0
 11 34  1  0
 11 35  1  0
 12 36  1  1
 13 37  1  0
 13 38  1  0
 14 39  1  0
 14 40  1  0
 17 41  1  0
 18 42  1  0
 21 43  1  0
 24 44  1  0
 24 45  1  0
 25 46  1  0
M  CHG  1  23  -1
M  END
>  <UniqueID>  (80) 
76

>  <SMILES>  (80) 
Cc1cccc(NC(=S)NC[C@H]2CCN(c3ccc(Cl)cc3[O-])C2)c1

>  <Energy>  (80) 
52.30797295800889

>  <Genealogy>  (80) 
Cc1cccc(NC(=S)NCC2CCN(c3ccc(Cl)cc3[O-])C2)c1 (protonated)
Cc1cccc(NC(=S)NC[C@H]2CCN(c3ccc(Cl)cc3[O-])C2)c1 (chirality)
Cc1cccc(NC(=S)NC[C@H]2CCN(c3ccc(Cl)cc3[O-])C2)c1 (3D coordinates assigned)
Cc1cccc(NC(=S)NC[C@H]2CCN(c3ccc(Cl)cc3[O-])C2)c1 (nonaromatic ring conformer: 52.30797295800889 kcal/mol)

>  <smiles>  (80) 
Cc1cccc(NC(=S)NCC2CCN(c3ccc(Cl)cc3O)C2)c1

>  <score_type>  (80) 
oracle

>  <origin>  (80) 
adg

>  <m_score__min__energy>  (80) 
-11.82

>  <m_primary>  (80) 
energy

$$$$
80:0
     RDKit          3D

 70 73  0  0  0  0  0  0  0  0999 V2000
   63.0348   33.3687   47.7749 H   0  0  0  0  0  0  0  0  0  0  0  0
   62.0420   33.8330   47.6820 C   0  0  0  0  0  0  0  0  0  0  0  0
   61.5271   34.2138   48.5763 H   0  0  0  0  0  0  0  0  0  0  0  0
   61.4640   33.9340   46.4880 C   0  0  0  0  0  0  0  0  0  0  0  0
   61.9964   33.5467   45.6067 H   0  0  0  0  0  0  0  0  0  0  0  0
   60.1320   34.5480   46.3030 C   0  0  0  0  0  0  0  0  0  0  0  0
   60.0370   35.7670   45.9970 O   0  0  0  0  0  0  0  0  0  0  0  0
   58.9340   33.7650   46.4420 N   0  0  0  0  0  0  0  0  0  0  0  0
   57.9140   33.7920   45.3920 C   0  0  0  0  0  0  0  0  0  0  0  0
   56.9268   33.9716   45.8428 H   0  0  0  0  0  0  0  0  0  0  0  0
   58.1401   34.5979   44.6783 H   0  0  0  0  0  0  0  0  0  0  0  0
   57.9060   32.4430   44.6600 C   0  0  0  0  0  0  0  0  0  0  0  0
   57.0591   32.4194   43.9584 H   0  0  0  0  0  0  0  0  0  0  0  0
   58.8575   32.3319   44.1193 H   0  0  0  0  0  0  0  0  0  0  0  0
   57.7670   31.2670   45.6630 C   0  0  0  0  0  0  0  0  0  0  0  0
   56.7677   31.4132   46.0990 H   0  0  0  0  0  0  0  0  0  0  0  0
   57.6860   29.8250   45.0440 C   0  0  2  0  0  0  0  0  0  0  0  0
   56.7568   29.4596   45.5057 H   0  0  0  0  0  0  0  0  0  0  0  0
   58.7320   28.8790   45.4930 N   0  0  0  0  0  0  0  0  0  0  0  0
   59.9900   29.0050   45.0910 N   0  0  0  0  0  0  0  0  0  0  0  0
   60.7090   27.9840   45.5940 C   0  0  0  0  0  0  0  0  0  0  0  0
   61.7857   27.8284   45.4315 H   0  0  0  0  0  0  0  0  0  0  0  0
   59.8940   27.1630   46.3430 C   0  0  0  0  0  0  0  0  0  0  0  0
   60.1683   26.2429   46.8798 H   0  0  0  0  0  0  0  0  0  0  0  0
   58.6500   27.7650   46.2630 C   0  0  0  0  0  0  0  0  0  0  0  0
   57.5610   27.3500   46.8480 N   0  0  0  0  0  0  0  0  0  0  0  0
   56.6070   26.4580   46.2530 C   0  0  0  0  0  0  0  0  0  0  0  0
   55.3740   26.7180   46.3420 O   0  0  0  0  0  0  0  0  0  0  0  0
   57.0510   25.2230   45.5660 C   0  0  0  0  0  0  0  0  0  0  0  0
   57.0350   25.1390   44.1650 C   0  0  0  0  0  0  0  0  0  0  0  0
   56.7430   26.0172   43.5704 H   0  0  0  0  0  0  0  0  0  0  0  0
   57.3860   23.9520   43.5180 C   0  0  0  0  0  0  0  0  0  0  0  0
   57.3814   23.9068   42.4189 H   0  0  0  0  0  0  0  0  0  0  0  0
   57.7450   22.8150   44.2620 C   0  0  0  0  0  0  0  0  0  0  0  0
   58.0870   21.5980   43.6550 O   0  0  0  0  0  0  0  0  0  0  0  0
   57.1850   20.7890   42.9090 C   0  0  0  0  0  0  0  0  0  0  0  0
   56.5478   20.2175   43.5999 H   0  0  0  0  0  0  0  0  0  0  0  0
   56.5553   21.4307   42.2752 H   0  0  0  0  0  0  0  0  0  0  0  0
   57.7546   20.0934   42.2752 H   0  0  0  0  0  0  0  0  0  0  0  0
   57.7710   22.8940   45.6610 C   0  0  0  0  0  0  0  0  0  0  0  0
   58.1220   21.7650   46.4040 O   0  0  0  0  0  0  0  0  0  0  0  0
   57.1960   20.7170   46.6780 C   0  0  0  0  0  0  0  0  0  0  0  0
   57.0851   20.0822   45.7865 H   0  0  0  0  0  0  0  0  0  0  0  0
   57.5663   20.1076   47.5156 H   0  0  0  0  0  0  0  0  0  0  0  0
   55.8640   21.3130   47.0390 C   0  0  0  0  0  0  0  0  0  0  0  0
   54.8060   21.2890   46.1140 C   0  0  0  0  0  0  0  0  0  0  0  0
   54.9318   20.7738   45.1503 H   0  0  0  0  0  0  0  0  0  0  0  0
   53.5940   21.9180   46.4150 C   0  0  0  0  0  0  0  0  0  0  0  0
   52.7653   21.8870   45.6923 H   0  0  0  0  0  0  0  0  0  0  0  0
   53.4330   22.5860   47.6320 C   0  0  0  0  0  0  0  0  0  0  0  0
   52.4777   23.0782   47.8667 H   0  0  0  0  0  0  0  0  0  0  0  0
   54.4850   22.6290   48.5510 C   0  0  0  0  0  0  0  0  0  0  0  0
   54.3582   23.1595   49.5062 H   0  0  0  0  0  0  0  0  0  0  0  0
   55.7000   21.9980   48.2580 C   0  0  0  0  0  0  0  0  0  0  0  0
   56.7180   22.0690   49.1530 F   0  0  0  0  0  0  0  0  0  0  0  0
   57.4350   24.0910   46.3090 C   0  0  0  0  0  0  0  0  0  0  0  0
   57.4718   24.1459   47.4070 H   0  0  0  0  0  0  0  0  0  0  0  0
   57.3950   29.7410   43.5250 C   0  0  0  0  0  0  0  0  0  0  0  0
   57.8802   30.6003   43.0390 H   0  0  0  0  0  0  0  0  0  0  0  0
   57.7857   28.7667   43.1963 H   0  0  0  0  0  0  0  0  0  0  0  0
   55.9200   29.7530   43.1370 C   0  0  0  0  0  0  0  0  0  0  0  0
   55.3016   29.7580   44.0467 H   0  0  0  0  0  0  0  0  0  0  0  0
   55.7046   30.6529   42.5422 H   0  0  0  0  0  0  0  0  0  0  0  0
   55.6900   28.8567   42.5422 H   0  0  0  0  0  0  0  0  0  0  0  0
   58.8330   31.3500   46.7830 C   0  0  0  0  0  0  0  0  0  0  0  0
   58.6266   30.5732   47.5340 H   0  0  0  0  0  0  0  0  0  0  0  0
   59.8254   31.1983   46.3334 H   0  0  0  0  0  0  0  0  0  0  0  0
   58.8110   32.7200   47.4620 C   0  0  0  0  0  0  0  0  0  0  0  0
   57.8630   32.8461   48.0056 H   0  0  0  0  0  0  0  0  0  0  0  0
   59.6488   32.7948   48.1708 H   0  0  0  0  0  0  0  0  0  0  0  0
  1  2  1  0
  2  3  1  0
  2  4  2  0
  4  5  1  0
  4  6  1  0
  6  7  2  0
  6  8  1  0
  8  9  1  0
  9 10  1  0
  9 11  1  0
  9 12  1  0
 12 13  1  0
 12 14  1  0
 12 15  1  0
 15 16  1  0
 15 17  1  0
 17 18  1  1
 17 19  1  0
 19 20  1  0
 20 21  1  0
 21 22  1  0
 21 23  2  0
 23 24  1  0
 23 25  1  0
 25 26  2  0
 26 27  1  0
 27 28  2  0
 27 29  1  0
 29 30  2  0
 30 31  1  0
 30 32  1  0
 32 33  1  0
 32 34  2  0
 34 35  1  0
 35 36  1  0
 36 37  1  0
 36 38  1  0
 36 39  1  0
 34 40  1  0
 40 41  1  0
 41 42  1  0
 42 43  1  0
 42 44  1  0
 42 45  1  0
 45 46  2  0
 46 47  1  0
 46 48  1  0
 48 49  1  0
 48 50  2  0
 50 51  1  0
 50 52  1  0
 52 53  1  0
 52 54  2  0
 54 55  1  0
 40 56  2  0
 56 57  1  0
 17 58  1  0
 58 59  1  0
 58 60  1  0
 58 61  1  0
 61 62  1  0
 61 63  1  0
 61 64  1  0
 15 65  1  0
 65 66  1  0
 65 67  1  0
 65 68  1  0
 68 69  1  0
 68 70  1  0
 68  8  1  0
 25 19  1  0
 56 29  1  0
 54 45  1  0
M  CHG  1  20  -1
M  END
>  <UniqueID>  (81) 
77

>  <SMILES>  (81) 
C=CC(=O)N1CCC([C@@H](CC)n2[n-]cc/c2=N\C(=O)c2ccc(OC)c(OCc3ccccc3F)c2)CC1

>  <Energy>  (81) 
120.7389920565362

>  <Genealogy>  (81) 
C=CC(=O)N1CCC(C(CC)n2[n-]ccc2=NC(=O)c2ccc(OC)c(OCc3ccccc3F)c2)CC1 (protonated)
C=CC(=O)N1CCC([C@@H](CC)n2[n-]ccc2=NC(=O)c2ccc(OC)c(OCc3ccccc3F)c2)CC1 (chirality)
C=CC(=O)N1CCC([C@@H](CC)n2[n-]cc/c2=N\C(=O)c2ccc(OC)c(OCc3ccccc3F)c2)CC1 (cis-trans isomerization)
C=CC(=O)N1CCC([C@@H](CC)n2[n-]cc/c2=N\C(=O)c2ccc(OC)c(OCc3ccccc3F)c2)CC1 (3D coordinates assigned)
C=CC(=O)N1CCC([C@@H](CC)n2[n-]cc/c2=N\C(=O)c2ccc(OC)c(OCc3ccccc3F)c2)CC1 (nonaromatic ring conformer: 120.7389920565362 kcal/mol)

>  <smiles>  (81) 
C=CC(=O)N1CCC(C(CC)n2[nH]ccc2=NC(=O)c2ccc(OC)c(OCc3ccccc3F)c2)CC1

>  <score_type>  (81) 
oracle

>  <origin>  (81) 
adg

>  <m_score__min__energy>  (81) 
-11.220000000000001

>  <m_primary>  (81) 
energy

$$$$
81:0
     RDKit          3D

 48 50  0  0  0  0  0  0  0  0999 V2000
   54.1470   28.9670   44.5820 H   0  0  0  0  0  0  0  0  0  0  0  0
   55.1570   28.9360   44.5280 O   0  0  0  0  0  0  0  0  0  0  0  0
   55.9080   29.9410   45.0920 N   0  0  0  0  0  0  0  0  0  0  0  0
   57.0440   30.3280   44.5940 C   0  0  0  0  0  0  0  0  0  0  0  0
   57.7020   31.5540   45.1160 C   0  0  0  0  0  0  0  0  0  0  0  0
   58.4030   31.5660   46.3420 C   0  0  0  0  0  0  0  0  0  0  0  0
   58.4650   30.4110   47.1350 O   0  0  0  0  0  0  0  0  0  0  0  0
   59.1960   30.3080   48.3270 C   0  0  0  0  0  0  0  0  0  0  0  0
   58.5460   29.8120   49.4630 C   0  0  0  0  0  0  0  0  0  0  0  0
   57.4930   29.5008   49.3970 H   0  0  0  0  0  0  0  0  0  0  0  0
   59.2240   29.7090   50.6800 C   0  0  0  0  0  0  0  0  0  0  0  0
   58.7024   29.3269   51.5699 H   0  0  0  0  0  0  0  0  0  0  0  0
   60.5630   30.0910   50.7660 C   0  0  0  0  0  0  0  0  0  0  0  0
   61.0923   30.0232   51.7279 H   0  0  0  0  0  0  0  0  0  0  0  0
   61.2340   30.5600   49.6320 C   0  0  0  0  0  0  0  0  0  0  0  0
   62.2916   30.8539   49.7044 H   0  0  0  0  0  0  0  0  0  0  0  0
   60.5620   30.6580   48.3970 C   0  0  0  0  0  0  0  0  0  0  0  0
   61.2230   31.0660   47.2270 O   0  0  0  0  0  0  0  0  0  0  0  0
   62.2930   32.0040   47.1870 C   0  0  0  0  0  0  0  0  0  0  0  0
   62.5905   32.2648   48.2134 H   0  0  0  0  0  0  0  0  0  0  0  0
   63.1497   31.5606   46.6584 H   0  0  0  0  0  0  0  0  0  0  0  0
   61.9656   32.9114   46.6584 H   0  0  0  0  0  0  0  0  0  0  0  0
   58.9840   32.7200   46.7760 N   0  0  0  0  0  0  0  0  0  0  0  0
   58.9340   33.8760   46.0630 C   0  0  0  0  0  0  0  0  0  0  0  0
   59.5950   35.1070   46.5940 C   0  0  0  0  0  0  0  0  0  0  0  0
   59.5829   35.0844   47.6937 H   0  0  0  0  0  0  0  0  0  0  0  0
   60.6356   35.1464   46.2395 H   0  0  0  0  0  0  0  0  0  0  0  0
   59.0530   35.9962   46.2395 H   0  0  0  0  0  0  0  0  0  0  0  0
   58.2520   33.9060   44.8430 C   0  0  0  0  0  0  0  0  0  0  0  0
   58.2026   34.8357   44.2571 H   0  0  0  0  0  0  0  0  0  0  0  0
   57.6350   32.7460   44.3760 C   0  0  0  0  0  0  0  0  0  0  0  0
   57.0912   32.7646   43.4200 H   0  0  0  0  0  0  0  0  0  0  0  0
   57.6630   29.5990   43.5210 N   0  0  0  0  0  0  0  0  0  0  0  0
   58.1200   30.1420   42.7520 H   0  0  0  0  0  0  0  0  0  0  0  0
   57.8150   28.1450   43.5340 C   0  0  0  0  0  0  0  0  0  0  0  0
   56.8234   27.6735   43.4683 H   0  0  0  0  0  0  0  0  0  0  0  0
   58.4297   27.8362   42.6756 H   0  0  0  0  0  0  0  0  0  0  0  0
   58.4890   27.7150   44.8080 C   0  0  0  0  0  0  0  0  0  0  0  0
   59.7890   28.1570   45.1100 C   0  0  0  0  0  0  0  0  0  0  0  0
   60.3333   28.7910   44.3946 H   0  0  0  0  0  0  0  0  0  0  0  0
   60.3920   27.7920   46.3190 C   0  0  0  0  0  0  0  0  0  0  0  0
   61.4131   28.1312   46.5475 H   0  0  0  0  0  0  0  0  0  0  0  0
   59.6990   26.9970   47.2370 C   0  0  0  0  0  0  0  0  0  0  0  0
   60.1761   26.7081   48.1851 H   0  0  0  0  0  0  0  0  0  0  0  0
   58.3980   26.5690   46.9490 C   0  0  0  0  0  0  0  0  0  0  0  0
   57.7170   25.8170   47.8490 F   0  0  0  0  0  0  0  0  0  0  0  0
   57.7940   26.9290   45.7420 C   0  0  0  0  0  0  0  0  0  0  0  0
   56.7692   26.5954   45.5219 H   0  0  0  0  0  0  0  0  0  0  0  0
  1  2  1  0
  2  3  1  0
  3  4  2  0
  4  5  1  0
  5  6  1  0
  6  7  1  0
  7  8  1  0
  8  9  2  0
  9 10  1  0
  9 11  1  0
 11 12  1  0
 11 13  2  0
 13 14  1  0
 13 15  1  0
 15 16  1  0
 15 17  2  0
 17 18  1  0
 18 19  1  0
 19 20  1  0
 19 21  1  0
 19 22  1  0
  6 23  2  0
 23 24  1  0
 24 25  1  0
 25 26  1  0
 25 27  1  0
 25 28  1  0
 24 29  2  0
 29 30  1  0
 29 31  1  0
 31 32  1  0
  4 33  1  0
 33 34  1  0
 33 35  1  0
 35 36  1  0
 35 37  1  0
 35 38  1  0
 38 39  2  0
 39 40  1  0
 39 41  1  0
 41 42  1  0
 41 43  2  0
 43 44  1  0
 43 45  1  0
 45 46  1  0
 45 47  2  0
 47 48  1  0
 31  5  2  0
 47 38  1  0
 17  8  1  0
M  END
>  <UniqueID>  (82) 
78

>  <SMILES>  (82) 
COc1ccccc1Oc1nc(C)ccc1/C(=N/O)NCc1cccc(F)c1

>  <Energy>  (82) 
59.56864042657255

>  <Genealogy>  (82) 
COc1ccccc1Oc1nc(C)ccc1/C(=N/O)NCc1cccc(F)c1 (cis-trans isomerization)
COc1ccccc1Oc1nc(C)ccc1/C(=N/O)NCc1cccc(F)c1 (3D coordinates assigned)
COc1ccccc1Oc1nc(C)ccc1/C(=N/O)NCc1cccc(F)c1 (optimized conformer: 59.56864042657255 kcal/mol)

>  <smiles>  (82) 
COc1ccccc1Oc1nc(C)ccc1C(=NO)NCc1cccc(F)c1

>  <score_type>  (82) 
oracle

>  <origin>  (82) 
adg

>  <m_score__min__energy>  (82) 
-8.3599999999999994

>  <m_primary>  (82) 
energy

$$$$
82:0
     RDKit          3D

 60 62  0  0  1  0  0  0  0  0999 V2000
   51.7520   30.7020   50.1250 C   0  0  0  0  0  0  0  0  0  0  0  0
   52.6060   29.7260   50.7640 N   0  0  0  0  0  0  0  0  0  0  0  0
   53.6670   30.1390   51.6390 C   0  0  0  0  0  0  0  0  0  0  0  0
   53.9050   31.3460   51.8900 O   0  0  0  0  0  0  0  0  0  0  0  0
   54.4600   29.1290   52.2280 N   0  0  0  0  0  0  0  0  0  0  0  0
   55.5610   29.3650   53.1320 C   0  0  0  0  0  0  0  0  0  0  0  0
   56.5770   30.2260   52.4520 C   0  0  0  0  0  0  0  0  0  0  0  0
   56.6400   31.5380   52.8850 C   0  0  0  0  0  0  0  0  0  0  0  0
   57.5210   32.3740   52.3190 N   0  0  0  0  0  0  0  0  0  0  0  0
   58.3600   31.9480   51.3160 C   0  0  0  0  0  0  0  0  0  0  0  0
   59.2730   32.9120   50.7940 C   0  0  0  0  0  0  0  0  0  0  0  0
   59.4650   33.9560   51.5390 O   0  0  0  0  0  0  0  0  0  0  0  0
   59.9950   32.9050   49.5970 N   0  0  0  0  0  0  0  0  0  0  0  0
   61.2100   33.1660   49.3660 C   0  0  0  0  0  0  0  0  0  0  0  0
   62.0070   33.5320   50.3680 N   0  0  0  0  0  0  0  0  0  0  0  0
   63.3010   33.7860   50.1360 C   0  0  0  0  0  0  0  0  0  0  0  0
   63.7830   33.6640   48.8640 N   0  0  0  0  0  0  0  0  0  0  0  0
   62.9950   33.2940   47.8300 C   0  0  0  0  0  0  0  0  0  0  0  0
   63.6120   33.2030   46.5600 N   0  0  0  0  0  0  0  0  0  0  0  0
   61.6490   33.0260   48.0470 C   0  0  0  0  0  0  0  0  0  0  0  0
   60.7480   32.6230   46.9340 C   0  0  1  0  0  0  0  0  0  0  0  0
   60.4010   31.1810   47.0030 C   0  0  0  0  0  0  0  0  0  0  0  0
   58.9550   30.8470   46.8170 C   0  0  0  0  0  0  0  0  0  0  0  0
   58.4370   31.7350   45.7070 C   0  0  1  0  0  0  0  0  0  0  0  0
   57.1820   31.2150   45.2580 N   0  0  0  0  0  0  0  0  0  0  0  0
   58.3210   33.0910   46.4030 C   0  0  0  0  0  0  0  0  0  0  0  0
   57.6170   33.0290   47.5670 F   0  0  0  0  0  0  0  0  0  0  0  0
   57.5790   33.8870   45.5300 F   0  0  0  0  0  0  0  0  0  0  0  0
   59.7240   33.6250   46.5450 C   0  0  0  0  0  0  0  0  0  0  0  0
   59.6370   34.8270   47.4660 C   0  0  0  0  0  0  0  0  0  0  0  0
   59.9950   34.2270   45.1470 C   0  0  0  0  0  0  0  0  0  0  0  0
   58.2520   30.6290   50.9240 C   0  0  0  0  0  0  0  0  0  0  0  0
   57.3810   29.7900   51.4800 N   0  0  0  0  0  0  0  0  0  0  0  0
   51.2336   31.2945   50.8932 H   0  0  0  0  0  0  0  0  0  0  0  0
   52.3623   31.3685   49.4978 H   0  0  0  0  0  0  0  0  0  0  0  0
   51.0104   30.1856   49.4978 H   0  0  0  0  0  0  0  0  0  0  0  0
   52.4450   28.7060   50.5830 H   0  0  0  0  0  0  0  0  0  0  0  0
   54.2550   28.1240   52.0060 H   0  0  0  0  0  0  0  0  0  0  0  0
   55.1932   29.8731   54.0356 H   0  0  0  0  0  0  0  0  0  0  0  0
   56.0188   28.4061   53.4164 H   0  0  0  0  0  0  0  0  0  0  0  0
   55.9738   31.8915   53.6857 H   0  0  0  0  0  0  0  0  0  0  0  0
   61.5930   33.6020   51.3120 H   0  0  0  0  0  0  0  0  0  0  0  0
   63.9663   34.0886   50.9581 H   0  0  0  0  0  0  0  0  0  0  0  0
   63.0930   33.6420   45.7580 H   0  0  0  0  0  0  0  0  0  0  0  0
   64.5170   32.7440   46.3540 H   0  0  0  0  0  0  0  0  0  0  0  0
   61.3112   32.6679   45.9902 H   0  0  0  0  0  0  0  0  0  0  0  0
   60.9707   30.6595   46.2198 H   0  0  0  0  0  0  0  0  0  0  0  0
   60.6504   30.8637   48.0263 H   0  0  0  0  0  0  0  0  0  0  0  0
   58.8443   29.7889   46.5375 H   0  0  0  0  0  0  0  0  0  0  0  0
   58.3908   31.0104   47.7471 H   0  0  0  0  0  0  0  0  0  0  0  0
   59.0654   31.8001   44.8065 H   0  0  0  0  0  0  0  0  0  0  0  0
   56.5080   32.0120   45.1620 H   0  0  0  0  0  0  0  0  0  0  0  0
   56.8160   30.5330   45.9590 H   0  0  0  0  0  0  0  0  0  0  0  0
   59.6614   34.4895   48.5127 H   0  0  0  0  0  0  0  0  0  0  0  0
   60.4890   35.4965   47.2766 H   0  0  0  0  0  0  0  0  0  0  0  0
   58.6974   35.3668   47.2766 H   0  0  0  0  0  0  0  0  0  0  0  0
   60.4442   35.2249   45.2583 H   0  0  0  0  0  0  0  0  0  0  0  0
   60.6858   33.5735   44.5940 H   0  0  0  0  0  0  0  0  0  0  0  0
   59.0478   34.3109   44.5940 H   0  0  0  0  0  0  0  0  0  0  0  0
   58.9091   30.2580   50.1236 H   0  0  0  0  0  0  0  0  0  0  0  0
  1  2  1  0
  2  3  1  0
  3  4  2  0
  3  5  1  0
  5  6  1  0
  6  7  1  0
  7  8  2  0
  8  9  1  0
  9 10  2  0
 10 11  1  0
 11 12  2  0
 11 13  1  0
 13 14  2  0
 14 15  1  0
 15 16  1  0
 16 17  2  0
 17 18  1  0
 18 19  1  0
 18 20  2  0
 20 21  1  0
 21 22  1  0
 22 23  1  0
 23 24  1  0
 24 25  1  0
 24 26  1  0
 26 27  1  0
 26 28  1  0
 26 29  1  0
 29 30  1  0
 29 31  1  0
 10 32  1  0
 32 33  2  0
 33  7  1  0
 20 14  1  0
 29 21  1  0
  1 34  1  0
  1 35  1  0
  1 36  1  0
  2 37  1  0
  5 38  1  0
  6 39  1  0
  6 40  1  0
  8 41  1  0
 15 42  1  0
 16 43  1  0
 19 44  1  0
 19 45  1  0
 21 46  1  6
 22 47  1  0
 22 48  1  0
 23 49  1  0
 23 50  1  0
 24 51  1  6
 25 52  1  0
 25 53  1  0
 30 54  1  0
 30 55  1  0
 30 56  1  0
 31 57  1  0
 31 58  1  0
 31 59  1  0
 32 60  1  0
M  END
>  <smiles>  (83) 
CNC(=O)NCc1cnc(C(=O)N=c2[nH]cnc(N)c2C2CCC(N)C(F)(F)C2(C)C)cn1

>  <score_type>  (83) 
oracle

>  <origin>  (83) 
adg

>  <m_score__min__energy>  (83) 
-9.0899999999999999

>  <m_primary>  (83) 
energy

$$$$
83:0
     RDKit          3D

 40 42  0  0  0  0  0  0  0  0999 V2000
   64.9810   33.4540   49.8780 C   0  0  0  0  0  0  0  0  0  0  0  0
   63.9280   32.9440   48.9540 C   0  0  0  0  0  0  0  0  0  0  0  0
   63.4630   33.5930   47.8170 C   0  0  0  0  0  0  0  0  0  0  0  0
   62.4090   32.9190   47.1880 C   0  0  0  0  0  0  0  0  0  0  0  0
   62.0370   31.7450   47.8390 C   0  0  0  0  0  0  0  0  0  0  0  0
   60.9530   30.8270   47.4490 C   0  0  0  0  0  0  0  0  0  0  0  0
   59.8740   30.8450   48.1010 O   0  0  0  0  0  0  0  0  0  0  0  0
   61.1310   29.8920   46.3720 N   0  0  0  0  0  0  0  0  0  0  0  0
   60.0490   29.2090   45.7140 C   0  0  0  0  0  0  0  0  0  0  0  0
   60.1840   27.8470   45.4020 C   0  0  0  0  0  0  0  0  0  0  0  0
   59.1550   27.1660   44.7490 C   0  0  0  0  0  0  0  0  0  0  0  0
   57.9840   27.8380   44.3910 C   0  0  0  0  0  0  0  0  0  0  0  0
   57.8430   29.2030   44.6770 C   0  0  0  0  0  0  0  0  0  0  0  0
   56.3580   30.0580   44.2690 S   0  0  0  0  0  0  0  0  0  0  0  0
   55.1670   29.3470   44.8490 O   0  0  0  0  0  0  0  0  0  0  0  0
   56.2130   30.0900   42.7740 O   0  0  0  0  0  0  0  0  0  0  0  0
   56.4140   31.6920   44.8690 N   0  0  0  0  0  0  0  0  0  0  0  0
   57.4940   32.4520   44.2380 C   0  0  0  0  0  0  0  0  0  0  0  0
   58.2090   33.2970   45.2460 C   0  0  0  0  0  0  0  0  0  0  0  0
   59.1710   34.2480   44.9690 C   0  0  0  0  0  0  0  0  0  0  0  0
   59.5530   34.7540   46.1930 C   0  0  0  0  0  0  0  0  0  0  0  0
   58.7970   34.0880   47.1370 C   0  0  0  0  0  0  0  0  0  0  0  0
   58.0040   33.2280   46.5410 O   0  0  0  0  0  0  0  0  0  0  0  0
   58.8780   29.8870   45.3280 C   0  0  0  0  0  0  0  0  0  0  0  0
   63.0110   31.5570   49.2010 S   0  0  0  0  0  0  0  0  0  0  0  0
   64.6615   33.2993   50.9191 H   0  0  0  0  0  0  0  0  0  0  0  0
   65.9207   32.9112   49.6983 H   0  0  0  0  0  0  0  0  0  0  0  0
   65.1377   34.5278   49.6983 H   0  0  0  0  0  0  0  0  0  0  0  0
   63.8809   34.5412   47.4479 H   0  0  0  0  0  0  0  0  0  0  0  0
   61.9227   33.2810   46.2702 H   0  0  0  0  0  0  0  0  0  0  0  0
   62.1050   29.6120   46.1200 H   0  0  0  0  0  0  0  0  0  0  0  0
   61.1064   27.3129   45.6738 H   0  0  0  0  0  0  0  0  0  0  0  0
   59.2668   26.0969   44.5157 H   0  0  0  0  0  0  0  0  0  0  0  0
   57.1720   27.2958   43.8844 H   0  0  0  0  0  0  0  0  0  0  0  0
   58.2093   31.7516   43.7822 H   0  0  0  0  0  0  0  0  0  0  0  0
   57.0603   33.1099   43.4705 H   0  0  0  0  0  0  0  0  0  0  0  0
   59.5524   34.5404   43.9795 H   0  0  0  0  0  0  0  0  0  0  0  0
   60.3081   35.5318   46.3800 H   0  0  0  0  0  0  0  0  0  0  0  0
   58.8509   34.2529   48.2232 H   0  0  0  0  0  0  0  0  0  0  0  0
   58.7745   30.9616   45.5389 H   0  0  0  0  0  0  0  0  0  0  0  0
  1  2  1  0
  2  3  2  0
  3  4  1  0
  4  5  2  0
  5  6  1  0
  6  7  2  0
  6  8  1  0
  8  9  1  0
  9 10  2  0
 10 11  1  0
 11 12  2  0
 12 13  1  0
 13 14  1  0
 14 15  2  0
 14 16  2  0
 14 17  1  0
 17 18  1  0
 18 19  1  0
 19 20  2  0
 20 21  1  0
 21 22  2  0
 22 23  1  0
 13 24  2  0
  5 25  1  0
 25  2  1  0
 24  9  1  0
 23 19  1  0
  1 26  1  0
  1 27  1  0
  1 28  1  0
  3 29  1  0
  4 30  1  0
  8 31  1  0
 10 32  1  0
 11 33  1  0
 12 34  1  0
 18 35  1  0
 18 36  1  0
 20 37  1  0
 21 38  1  0
 22 39  1  0
 24 40  1  0
M  CHG  1  17  -1
M  END
>  <UniqueID>  (84) 
79

>  <SMILES>  (84) 
Cc1ccc(C(=O)Nc2cccc(S(=O)(=O)[N-]Cc3ccco3)c2)s1

>  <Energy>  (84) 
91.12824282383917

>  <Genealogy>  (84) 
Cc1ccc(C(=O)Nc2cccc(S(=O)(=O)[N-]Cc3ccco3)c2)s1 (protonated)
Cc1ccc(C(=O)Nc2cccc(S(=O)(=O)[N-]Cc3ccco3)c2)s1 (3D coordinates assigned)
Cc1ccc(C(=O)Nc2cccc(S(=O)(=O)[N-]Cc3ccco3)c2)s1 (optimized conformer: 91.12824282383917 kcal/mol)

>  <smiles>  (84) 
Cc1ccc(C(=O)Nc2cccc(S(=O)(=O)NCc3ccco3)c2)s1

>  <score_type>  (84) 
oracle

>  <origin>  (84) 
adg

>  <m_score__min__energy>  (84) 
-10.34

>  <m_primary>  (84) 
energy

$$$$
84:0
     RDKit          3D

 53 56  0  0  1  0  0  0  0  0999 V2000
   65.1650   33.1960   49.7430 C   0  0  0  0  0  0  0  0  0  0  0  0
   63.7530   33.0110   48.6680 S   0  0  0  0  0  0  0  0  0  0  0  0
   64.1460   33.6030   47.3380 O   0  0  0  0  0  0  0  0  0  0  0  0
   63.4060   31.5700   48.5110 O   0  0  0  0  0  0  0  0  0  0  0  0
   62.3830   33.9110   49.3220 C   0  0  0  0  0  0  0  0  0  0  0  0
   61.3710   34.3080   48.5770 C   0  0  0  0  0  0  0  0  0  0  0  0
   60.6580   33.4010   47.6720 C   0  0  0  0  0  0  0  0  0  0  0  0
   60.8410   32.0480   47.6770 C   0  0  0  0  0  0  0  0  0  0  0  0
   60.1540   31.1740   46.8280 C   0  0  0  0  0  0  0  0  0  0  0  0
   60.4610   29.8390   46.9630 O   0  0  0  0  0  0  0  0  0  0  0  0
   59.7510   28.8340   46.3310 C   0  0  0  0  0  0  0  0  0  0  0  0
   59.9490   28.6410   44.9840 C   0  0  0  0  0  0  0  0  0  0  0  0
   59.2880   27.6580   44.2610 C   0  0  0  0  0  0  0  0  0  0  0  0
   58.3930   26.8280   44.8890 C   0  0  0  0  0  0  0  0  0  0  0  0
   57.6420   25.7440   44.2110 C   0  0  0  0  0  0  0  0  0  0  0  0
   57.2470   24.7420   45.1990 C   0  0  0  0  0  0  0  0  0  0  0  0
   58.1740   23.2140   45.5690 S   0  0  0  0  0  0  0  0  0  0  0  0
   56.9300   22.6660   46.8420 C   0  0  0  0  0  0  0  0  0  0  0  0
   57.0300   21.6020   47.4910 O   0  0  0  0  0  0  0  0  0  0  0  0
   56.0040   23.6640   46.8320 N   0  0  0  0  0  0  0  0  0  0  0  0
   56.1530   24.6630   46.0450 C   0  0  0  0  0  0  0  0  0  0  0  0
   55.2030   25.7400   46.0010 O   0  0  0  0  0  0  0  0  0  0  0  0
   58.2000   27.0330   46.2530 C   0  0  0  0  0  0  0  0  0  0  0  0
   58.8540   28.0040   46.9660 C   0  0  0  0  0  0  0  0  0  0  0  0
   59.2460   31.6880   45.9370 C   0  0  0  0  0  0  0  0  0  0  0  0
   59.0600   33.0660   45.9310 C   0  0  0  0  0  0  0  0  0  0  0  0
   58.0790   33.5550   44.9380 C   0  0  0  0  0  0  0  0  0  0  0  0
   57.5250   34.6790   45.0730 O   0  0  0  0  0  0  0  0  0  0  0  0
   57.8210   32.6840   43.8530 N   0  0  0  0  0  0  0  0  0  0  0  0
   57.2340   31.5600   43.8910 C   0  0  0  0  0  0  0  0  0  0  0  0
   56.2870   31.2680   44.8190 N   0  0  0  0  0  0  0  0  0  0  0  0
   55.8970   30.0300   44.5630 N   0  0  0  0  0  0  0  0  0  0  0  0
   56.5280   29.5100   43.5390 N   0  0  0  0  0  0  0  0  0  0  0  0
   57.3600   30.4570   43.1190 N   0  0  0  0  0  0  0  0  0  0  0  0
   59.7400   33.9150   46.7710 C   0  0  0  0  0  0  0  0  0  0  0  0
   64.8356   33.1528   50.7916 H   0  0  0  0  0  0  0  0  0  0  0  0
   65.8816   32.3841   49.5500 H   0  0  0  0  0  0  0  0  0  0  0  0
   65.6483   34.1651   49.5500 H   0  0  0  0  0  0  0  0  0  0  0  0
   62.3734   34.1504   50.3956 H   0  0  0  0  0  0  0  0  0  0  0  0
   61.0494   35.3583   48.6363 H   0  0  0  0  0  0  0  0  0  0  0  0
   61.5668   31.6229   48.3859 H   0  0  0  0  0  0  0  0  0  0  0  0
   60.6613   29.2932   44.4574 H   0  0  0  0  0  0  0  0  0  0  0  0
   59.4814   27.5439   43.1842 H   0  0  0  0  0  0  0  0  0  0  0  0
   56.7444   26.1622   43.7321 H   0  0  0  0  0  0  0  0  0  0  0  0
   58.2784   25.2768   43.4450 H   0  0  0  0  0  0  0  0  0  0  0  0
   55.1740   23.5510   47.5100 H   0  0  0  0  0  0  0  0  0  0  0  0
   55.1030   26.3260   46.8110 H   0  0  0  0  0  0  0  0  0  0  0  0
   57.4880   26.3841   46.7840 H   0  0  0  0  0  0  0  0  0  0  0  0
   58.6628   28.1200   48.0430 H   0  0  0  0  0  0  0  0  0  0  0  0
   58.6858   31.0340   45.2526 H   0  0  0  0  0  0  0  0  0  0  0  0
   56.3750   28.5570   43.1700 H   0  0  0  0  0  0  0  0  0  0  0  0
   58.0120   30.3650   42.3120 H   0  0  0  0  0  0  0  0  0  0  0  0
   59.5560   34.9986   46.7280 H   0  0  0  0  0  0  0  0  0  0  0  0
  1  2  1  0
  2  3  2  0
  2  4  2  0
  2  5  1  0
  5  6  2  0
  6  7  1  0
  7  8  2  0
  8  9  1  0
  9 10  1  0
 10 11  1  0
 11 12  2  0
 12 13  1  0
 13 14  2  0
 14 15  1  0
 15 16  1  0
 16 17  1  0
 17 18  1  0
 18 19  2  0
 18 20  1  0
 20 21  1  0
 21 22  1  0
 14 23  1  0
 23 24  2  0
  9 25  2  0
 25 26  1  0
 26 27  1  0
 27 28  2  0
 27 29  1  0
 29 30  2  3
 30 31  1  0
 31 32  2  0
 32 33  1  0
 33 34  1  0
 26 35  2  0
 35  7  1  0
 24 11  1  0
 34 30  1  0
 21 16  2  0
  1 36  1  0
  1 37  1  0
  1 38  1  0
  5 39  1  0
  6 40  1  0
  8 41  1  0
 12 42  1  0
 13 43  1  0
 15 44  1  0
 15 45  1  0
 20 46  1  0
 22 47  1  0
 23 48  1  0
 24 49  1  0
 25 50  1  0
 33 51  1  0
 34 52  1  0
 35 53  1  0
M  END
>  <smiles>  (85) 
CS(=O)(=O)C=Cc1cc(Oc2ccc(Cc3sc(=O)[nH]c3O)cc2)cc(C(=O)N=c2nn[nH][nH]2)c1

>  <score_type>  (85) 
oracle

>  <origin>  (85) 
adg

>  <m_score__min__energy>  (85) 
-12.119999999999999

>  <m_primary>  (85) 
energy

$$$$
85:0
     RDKit          3D

 61 63  0  0  0  0  0  0  0  0999 V2000
   58.8790   28.3170   45.3090 C   0  0  0  0  0  0  0  0  0  0  0  0
   58.0550   29.2440   45.9990 O   0  0  0  0  0  0  0  0  0  0  0  0
   58.2080   30.6420   45.9950 C   0  0  0  0  0  0  0  0  0  0  0  0
   59.0630   31.3040   46.8510 C   0  0  0  0  0  0  0  0  0  0  0  0
   60.1180   30.5320   48.0410 S   0  0  0  0  0  0  0  0  0  0  0  0
   61.5290   30.4690   47.5160 O   0  0  0  0  0  0  0  0  0  0  0  0
   59.6470   29.1240   48.2880 O   0  0  0  0  0  0  0  0  0  0  0  0
   60.0880   31.4300   49.5320 N   0  0  0  0  0  0  0  0  0  0  0  0
   60.9010   30.7740   50.5620 C   0  0  0  0  0  0  0  0  0  0  0  0
   60.4550   31.1800   51.9770 C   0  0  0  0  0  0  0  0  0  0  0  0
   58.9520   31.1250   52.1290 C   0  0  0  0  0  0  0  0  0  0  0  0
   58.3210   29.8700   52.2230 C   0  0  0  0  0  0  0  0  0  0  0  0
   56.9320   29.7830   52.3460 C   0  0  0  0  0  0  0  0  0  0  0  0
   56.1560   30.9450   52.3750 C   0  0  0  0  0  0  0  0  0  0  0  0
   54.4120   30.8360   52.5290 Cl  0  0  0  0  0  0  0  0  0  0  0  0
   56.7680   32.1960   52.2720 C   0  0  0  0  0  0  0  0  0  0  0  0
   58.1600   32.2970   52.1420 C   0  0  0  0  0  0  0  0  0  0  0  0
   58.8670   33.9060   51.9920 Cl  0  0  0  0  0  0  0  0  0  0  0  0
   58.9260   32.6680   46.6010 C   0  0  0  0  0  0  0  0  0  0  0  0
   59.6890   33.7550   47.2850 C   0  0  0  0  0  0  0  0  0  0  0  0
   59.1440   34.8890   47.4130 O   0  0  0  0  0  0  0  0  0  0  0  0
   61.0280   33.5540   47.8120 N   0  0  0  0  0  0  0  0  0  0  0  0
   61.1680   34.2770   49.1050 C   0  0  0  0  0  0  0  0  0  0  0  0
   62.2730   33.7020   50.0260 C   0  0  0  0  0  0  0  0  0  0  0  0
   63.6830   33.5760   49.3950 C   0  0  0  0  0  0  0  0  0  0  0  0
   63.7700   32.5620   48.2370 C   0  0  0  0  0  0  0  0  0  0  0  0
   63.3640   33.1140   46.8380 C   0  0  0  0  0  0  0  0  0  0  0  0
   62.0380   33.9110   46.7720 C   0  0  0  0  0  0  0  0  0  0  0  0
   57.9410   32.7670   45.6070 C   0  0  0  0  0  0  0  0  0  0  0  0
   57.3090   34.0310   45.0920 C   0  0  0  0  0  0  0  0  0  0  0  0
   57.5560   31.5270   45.2040 N   0  0  0  0  0  0  0  0  0  0  0  0
   56.6670   31.2240   44.0810 C   0  0  0  0  0  0  0  0  0  0  0  0
   59.4268   27.7007   46.0370 H   0  0  0  0  0  0  0  0  0  0  0  0
   58.2531   27.6692   44.6776 H   0  0  0  0  0  0  0  0  0  0  0  0
   59.5957   28.8626   44.6776 H   0  0  0  0  0  0  0  0  0  0  0  0
   60.8014   29.6838   50.4551 H   0  0  0  0  0  0  0  0  0  0  0  0
   61.9468   31.0873   50.4270 H   0  0  0  0  0  0  0  0  0  0  0  0
   60.9119   30.4936   52.7051 H   0  0  0  0  0  0  0  0  0  0  0  0
   60.7789   32.2163   52.1536 H   0  0  0  0  0  0  0  0  0  0  0  0
   58.9258   28.9515   52.1994 H   0  0  0  0  0  0  0  0  0  0  0  0
   56.4482   28.7979   52.4202 H   0  0  0  0  0  0  0  0  0  0  0  0
   56.1536   33.1082   52.2930 H   0  0  0  0  0  0  0  0  0  0  0  0
   61.1460   32.5440   48.0450 H   0  0  0  0  0  0  0  0  0  0  0  0
   61.4081   35.3287   48.8901 H   0  0  0  0  0  0  0  0  0  0  0  0
   60.2137   34.1641   49.6403 H   0  0  0  0  0  0  0  0  0  0  0  0
   62.3546   34.3586   50.9048 H   0  0  0  0  0  0  0  0  0  0  0  0
   61.9593   32.6742   50.2610 H   0  0  0  0  0  0  0  0  0  0  0  0
   63.9785   34.5637   49.0113 H   0  0  0  0  0  0  0  0  0  0  0  0
   64.3516   33.2084   50.1873 H   0  0  0  0  0  0  0  0  0  0  0  0
   64.8090   32.2064   48.1738 H   0  0  0  0  0  0  0  0  0  0  0  0
   63.0464   31.7677   48.4727 H   0  0  0  0  0  0  0  0  0  0  0  0
   64.1708   33.7771   46.4926 H   0  0  0  0  0  0  0  0  0  0  0  0
   63.2037   32.2264   46.2083 H   0  0  0  0  0  0  0  0  0  0  0  0
   62.2772   34.9789   46.8827 H   0  0  0  0  0  0  0  0  0  0  0  0
   61.5799   33.6608   45.8037 H   0  0  0  0  0  0  0  0  0  0  0  0
   56.9961   34.6567   45.9409 H   0  0  0  0  0  0  0  0  0  0  0  0
   58.0377   34.5820   44.4793 H   0  0  0  0  0  0  0  0  0  0  0  0
   56.4310   33.7787   44.4793 H   0  0  0  0  0  0  0  0  0  0  0  0
   55.6913   30.8915   44.4651 H   0  0  0  0  0  0  0  0  0  0  0  0
   56.5311   32.1266   43.4671 H   0  0  0  0  0  0  0  0  0  0  0  0
   57.1106   30.4263   43.4671 H   0  0  0  0  0  0  0  0  0  0  0  0
  1  2  1  0
  2  3  1  0
  3  4  2  0
  4  5  1  0
  5  6  2  0
  5  7  2  0
  5  8  1  0
  8  9  1  0
  9 10  1  0
 10 11  1  0
 11 12  2  0
 12 13  1  0
 13 14  2  0
 14 15  1  0
 14 16  1  0
 16 17  2  0
 17 18  1  0
  4 19  1  0
 19 20  1  0
 20 21  2  0
 20 22  1  0
 22 23  1  0
 23 24  1  0
 24 25  1  0
 25 26  1  0
 26 27  1  0
 27 28  1  0
 19 29  2  0
 29 30  1  0
 29 31  1  0
 31 32  1  0
 31  3  1  0
 17 11  1  0
 28 22  1  0
  1 33  1  0
  1 34  1  0
  1 35  1  0
  9 36  1  0
  9 37  1  0
 10 38  1  0
 10 39  1  0
 12 40  1  0
 13 41  1  0
 16 42  1  0
 22 43  1  0
 23 44  1  0
 23 45  1  0
 24 46  1  0
 24 47  1  0
 25 48  1  0
 25 49  1  0
 26 50  1  0
 26 51  1  0
 27 52  1  0
 27 53  1  0
 28 54  1  0
 28 55  1  0
 30 56  1  0
 30 57  1  0
 30 58  1  0
 32 59  1  0
 32 60  1  0
 32 61  1  0
M  CHG  2   8  -1  22   1
M  END
>  <UniqueID>  (86) 
80

>  <SMILES>  (86) 
COc1c(S(=O)(=O)[N-]CCc2ccc(Cl)cc2Cl)c(C(=O)[NH+]2CCCCCC2)c(C)n1C

>  <Energy>  (86) 
111.66766841749511

>  <Genealogy>  (86) 
COc1c(S(=O)(=O)[N-]CCc2ccc(Cl)cc2Cl)c(C(=O)[NH+]2CCCCCC2)c(C)n1C (protonated)
COc1c(S(=O)(=O)[N-]CCc2ccc(Cl)cc2Cl)c(C(=O)[NH+]2CCCCCC2)c(C)n1C (3D coordinates assigned)
COc1c(S(=O)(=O)[N-]CCc2ccc(Cl)cc2Cl)c(C(=O)[NH+]2CCCCCC2)c(C)n1C (nonaromatic ring conformer: 111.66766841749511 kcal/mol)

>  <smiles>  (86) 
COc1c(S(=O)(=O)NCCc2ccc(Cl)cc2Cl)c(C(=O)N2CCCCCC2)c(C)n1C

>  <score_type>  (86) 
oracle

>  <origin>  (86) 
adg

>  <m_score__min__energy>  (86) 
-6.1900000000000004

>  <m_primary>  (86) 
energy

$$$$
86:0
     RDKit          3D

 36 37  0  0  0  0  0  0  0  0999 V2000
   55.1490   26.1970   45.9910 N   0  0  0  0  0  0  0  0  0  0  0  0
   56.8530   26.4030   45.7930 S   0  0  0  0  0  0  0  0  0  0  0  0
   57.5710   25.7540   46.9440 O   0  0  0  0  0  0  0  0  0  0  0  0
   57.2940   25.7440   44.5160 O   0  0  0  0  0  0  0  0  0  0  0  0
   57.2360   28.1200   45.7410 C   0  0  0  0  0  0  0  0  0  0  0  0
   58.2190   28.6460   46.5900 C   0  0  0  0  0  0  0  0  0  0  0  0
   58.5330   30.0070   46.5450 C   0  0  0  0  0  0  0  0  0  0  0  0
   57.8740   30.8620   45.6400 C   0  0  0  0  0  0  0  0  0  0  0  0
   58.1450   32.2740   45.6010 N   0  0  0  0  0  0  0  0  0  0  0  0
   58.5090   32.9950   44.4130 C   0  0  0  0  0  0  0  0  0  0  0  0
   58.1920   32.5530   43.2760 O   0  0  0  0  0  0  0  0  0  0  0  0
   59.1930   34.3280   44.5120 C   0  0  0  0  0  0  0  0  0  0  0  0
   59.1940   34.8330   45.8850 N   0  0  0  0  0  0  0  0  0  0  0  0
   59.6470   34.1390   47.0570 C   0  0  0  0  0  0  0  0  0  0  0  0
   58.8800   34.0740   48.0530 O   0  0  0  0  0  0  0  0  0  0  0  0
   60.9530   33.4510   47.1190 C   0  0  0  0  0  0  0  0  0  0  0  0
   62.1130   34.1250   46.7040 C   0  0  0  0  0  0  0  0  0  0  0  0
   63.3560   33.4880   46.7600 C   0  0  0  0  0  0  0  0  0  0  0  0
   63.4480   32.1710   47.2170 C   0  0  0  0  0  0  0  0  0  0  0  0
   62.2950   31.4840   47.6070 C   0  0  0  0  0  0  0  0  0  0  0  0
   61.0500   32.1180   47.5510 C   0  0  0  0  0  0  0  0  0  0  0  0
   56.8840   30.3290   44.8000 C   0  0  0  0  0  0  0  0  0  0  0  0
   56.5740   28.9670   44.8430 C   0  0  0  0  0  0  0  0  0  0  0  0
   54.7790   27.0880   46.3930 H   0  0  0  0  0  0  0  0  0  0  0  0
   58.7454   27.9852   47.2944 H   0  0  0  0  0  0  0  0  0  0  0  0
   59.2999   30.4134   47.2208 H   0  0  0  0  0  0  0  0  0  0  0  0
   58.0590   32.8170   46.4900 H   0  0  0  0  0  0  0  0  0  0  0  0
   60.2331   34.2216   44.1702 H   0  0  0  0  0  0  0  0  0  0  0  0
   58.6436   35.0438   43.8829 H   0  0  0  0  0  0  0  0  0  0  0  0
   62.0432   35.1583   46.3334 H   0  0  0  0  0  0  0  0  0  0  0  0
   64.2628   34.0244   46.4438 H   0  0  0  0  0  0  0  0  0  0  0  0
   64.4282   31.6746   47.2699 H   0  0  0  0  0  0  0  0  0  0  0  0
   62.3670   30.4440   47.9582 H   0  0  0  0  0  0  0  0  0  0  0  0
   60.1428   31.5706   47.8465 H   0  0  0  0  0  0  0  0  0  0  0  0
   56.3477   30.9887   44.1021 H   0  0  0  0  0  0  0  0  0  0  0  0
   55.8069   28.5584   44.1688 H   0  0  0  0  0  0  0  0  0  0  0  0
  1  2  1  0
  2  3  2  0
  2  4  2  0
  2  5  1  0
  5  6  2  0
  6  7  1  0
  7  8  2  0
  8  9  1  0
  9 10  1  0
 10 11  2  0
 10 12  1  0
 12 13  1  0
 13 14  1  0
 14 15  2  0
 14 16  1  0
 16 17  2  0
 17 18  1  0
 18 19  2  0
 19 20  1  0
 20 21  2  0
  8 22  1  0
 22 23  2  0
 23  5  1  0
 21 16  1  0
  1 24  1  0
  6 25  1  0
  7 26  1  0
  9 27  1  0
 12 28  1  0
 12 29  1  0
 17 30  1  0
 18 31  1  0
 19 32  1  0
 20 33  1  0
 21 34  1  0
 22 35  1  0
 23 36  1  0
M  CHG  2   1  -1  13  -1
M  END
>  <UniqueID>  (87) 
81

>  <SMILES>  (87) 
[NH-]S(=O)(=O)c1ccc(NC(=O)C[N-]C(=O)c2ccccc2)cc1

>  <Energy>  (87) 
40.65293137672006

>  <Genealogy>  (87) 
[NH-]S(=O)(=O)c1ccc(NC(=O)C[N-]C(=O)c2ccccc2)cc1 (protonated)
[NH-]S(=O)(=O)c1ccc(NC(=O)C[N-]C(=O)c2ccccc2)cc1 (3D coordinates assigned)
[NH-]S(=O)(=O)c1ccc(NC(=O)C[N-]C(=O)c2ccccc2)cc1 (optimized conformer: 40.65293137672006 kcal/mol)

>  <smiles>  (87) 
NS(=O)(=O)c1ccc(NC(=O)CNC(=O)c2ccccc2)cc1

>  <score_type>  (87) 
oracle

>  <origin>  (87) 
adg

>  <m_score__min__energy>  (87) 
-11.630000000000001

>  <m_primary>  (87) 
energy

$$$$
87:0
     RDKit          3D

 43 44  0  0  0  0  0  0  0  0999 V2000
   64.1330   33.4440   47.4230 C   0  0  0  0  0  0  0  0  0  0  0  0
   62.7170   33.0270   47.1640 C   0  0  0  0  0  0  0  0  0  0  0  0
   62.3080   31.7110   47.4270 C   0  0  0  0  0  0  0  0  0  0  0  0
   60.9750   31.3350   47.2360 C   0  0  0  0  0  0  0  0  0  0  0  0
   60.0330   32.2760   46.7960 C   0  0  0  0  0  0  0  0  0  0  0  0
   58.3420   31.8210   46.5940 S   0  0  0  0  0  0  0  0  0  0  0  0
   57.4450   32.8490   47.2240 O   0  0  0  0  0  0  0  0  0  0  0  0
   58.1220   30.4990   47.2760 O   0  0  0  0  0  0  0  0  0  0  0  0
   57.9400   31.7100   44.8750 C   0  0  0  0  0  0  0  0  0  0  0  0
   58.4450   32.6670   43.9820 C   0  0  0  0  0  0  0  0  0  0  0  0
   58.1370   32.5970   42.6220 C   0  0  0  0  0  0  0  0  0  0  0  0
   57.3170   31.5740   42.1440 C   0  0  0  0  0  0  0  0  0  0  0  0
   56.8110   30.6130   43.0210 C   0  0  0  0  0  0  0  0  0  0  0  0
   57.1340   30.6580   44.3900 C   0  0  0  0  0  0  0  0  0  0  0  0
   56.6000   29.6970   45.3140 N   0  0  0  0  0  0  0  0  0  0  0  0
   56.8290   28.2820   45.3210 C   0  0  0  0  0  0  0  0  0  0  0  0
   55.8890   27.4920   45.6140 O   0  0  0  0  0  0  0  0  0  0  0  0
   58.1730   27.7460   44.8630 C   0  0  0  0  0  0  0  0  0  0  0  0
   59.2780   28.7590   45.2200 C   0  0  0  0  0  0  0  0  0  0  0  0
   58.4950   26.4000   45.5480 C   0  0  0  0  0  0  0  0  0  0  0  0
   58.1340   27.5430   43.3380 C   0  0  0  0  0  0  0  0  0  0  0  0
   60.4380   33.5910   46.5380 C   0  0  0  0  0  0  0  0  0  0  0  0
   61.7700   33.9680   46.7290 C   0  0  0  0  0  0  0  0  0  0  0  0
   64.3075   33.4954   48.5079 H   0  0  0  0  0  0  0  0  0  0  0  0
   64.8191   32.7098   46.9756 H   0  0  0  0  0  0  0  0  0  0  0  0
   64.3117   34.4329   46.9756 H   0  0  0  0  0  0  0  0  0  0  0  0
   63.0395   30.9716   47.7851 H   0  0  0  0  0  0  0  0  0  0  0  0
   60.6643   30.2981   47.4314 H   0  0  0  0  0  0  0  0  0  0  0  0
   59.0877   33.4777   44.3557 H   0  0  0  0  0  0  0  0  0  0  0  0
   58.5407   33.3483   41.9273 H   0  0  0  0  0  0  0  0  0  0  0  0
   57.0688   31.5248   41.0735 H   0  0  0  0  0  0  0  0  0  0  0  0
   56.1559   29.8158   42.6397 H   0  0  0  0  0  0  0  0  0  0  0  0
   59.3638   28.8377   46.3138 H   0  0  0  0  0  0  0  0  0  0  0  0
   60.2364   28.4192   44.8005 H   0  0  0  0  0  0  0  0  0  0  0  0
   59.0226   29.7433   44.8005 H   0  0  0  0  0  0  0  0  0  0  0  0
   58.4644   26.5278   46.6401 H   0  0  0  0  0  0  0  0  0  0  0  0
   57.7515   25.6477   45.2459 H   0  0  0  0  0  0  0  0  0  0  0  0
   59.4985   26.0657   45.2459 H   0  0  0  0  0  0  0  0  0  0  0  0
   57.9308   26.4854   43.1140 H   0  0  0  0  0  0  0  0  0  0  0  0
   57.3396   28.1687   42.9050 H   0  0  0  0  0  0  0  0  0  0  0  0
   59.1037   27.8298   42.9050 H   0  0  0  0  0  0  0  0  0  0  0  0
   59.7048   34.3305   46.1835 H   0  0  0  0  0  0  0  0  0  0  0  0
   62.0780   35.0065   46.5377 H   0  0  0  0  0  0  0  0  0  0  0  0
  1  2  1  0
  2  3  2  0
  3  4  1  0
  4  5  2  0
  5  6  1  0
  6  7  2  0
  6  8  2  0
  6  9  1  0
  9 10  2  0
 10 11  1  0
 11 12  2  0
 12 13  1  0
 13 14  2  0
 14 15  1  0
 15 16  1  0
 16 17  2  0
 16 18  1  0
 18 19  1  0
 18 20  1  0
 18 21  1  0
  5 22  1  0
 22 23  2  0
 23  2  1  0
 14  9  1  0
  1 24  1  0
  1 25  1  0
  1 26  1  0
  3 27  1  0
  4 28  1  0
 10 29  1  0
 11 30  1  0
 12 31  1  0
 13 32  1  0
 19 33  1  0
 19 34  1  0
 19 35  1  0
 20 36  1  0
 20 37  1  0
 20 38  1  0
 21 39  1  0
 21 40  1  0
 21 41  1  0
 22 42  1  0
 23 43  1  0
M  CHG  1  15  -1
M  END
>  <UniqueID>  (88) 
82

>  <SMILES>  (88) 
Cc1ccc(S(=O)(=O)c2ccccc2[N-]C(=O)C(C)(C)C)cc1

>  <Energy>  (88) 
41.2949491092498

>  <Genealogy>  (88) 
Cc1ccc(S(=O)(=O)c2ccccc2[N-]C(=O)C(C)(C)C)cc1 (protonated)
Cc1ccc(S(=O)(=O)c2ccccc2[N-]C(=O)C(C)(C)C)cc1 (3D coordinates assigned)
Cc1ccc(S(=O)(=O)c2ccccc2[N-]C(=O)C(C)(C)C)cc1 (optimized conformer: 41.2949491092498 kcal/mol)

>  <smiles>  (88) 
Cc1ccc(S(=O)(=O)c2ccccc2NC(=O)C(C)(C)C)cc1

>  <score_type>  (88) 
oracle

>  <origin>  (88) 
adg

>  <m_score__min__energy>  (88) 
-10.83

>  <m_primary>  (88) 
energy

$$$$
88:0
     RDKit          3D

 38 40  0  0  0  0  0  0  0  0999 V2000
   58.3170   26.9990   43.9690 C   0  0  0  0  0  0  0  0  0  0  0  0
   58.8610   27.7110   45.1740 C   0  0  0  0  0  0  0  0  0  0  0  0
   59.2810   26.9690   46.2320 N   0  0  0  0  0  0  0  0  0  0  0  0
   59.7790   27.5490   47.3510 C   0  0  0  0  0  0  0  0  0  0  0  0
   60.2080   26.7530   48.4200 C   0  0  0  0  0  0  0  0  0  0  0  0
   60.7160   27.3510   49.5770 C   0  0  0  0  0  0  0  0  0  0  0  0
   60.7970   28.7440   49.6690 C   0  0  0  0  0  0  0  0  0  0  0  0
   60.3690   29.5460   48.6060 C   0  0  0  0  0  0  0  0  0  0  0  0
   59.8580   28.9510   47.4370 C   0  0  0  0  0  0  0  0  0  0  0  0
   59.4110   29.7090   46.3410 C   0  0  0  0  0  0  0  0  0  0  0  0
   59.4320   30.9700   46.3940 O   0  0  0  0  0  0  0  0  0  0  0  0
   58.9340   29.0800   45.2200 N   0  0  0  0  0  0  0  0  0  0  0  0
   58.4830   29.8420   44.1230 N   0  0  0  0  0  0  0  0  0  0  0  0
   57.1180   30.2670   44.0120 C   0  0  0  0  0  0  0  0  0  0  0  0
   56.2750   29.9370   44.8900 O   0  0  0  0  0  0  0  0  0  0  0  0
   56.6980   31.1540   42.8840 C   0  0  0  0  0  0  0  0  0  0  0  0
   58.0260   32.3400   42.4780 S   0  0  0  0  0  0  0  0  0  0  0  0
   58.0950   33.0660   44.1200 C   0  0  0  0  0  0  0  0  0  0  0  0
   57.0160   32.9160   44.9990 C   0  0  0  0  0  0  0  0  0  0  0  0
   57.0690   33.4830   46.2770 C   0  0  0  0  0  0  0  0  0  0  0  0
   58.1980   34.2060   46.6760 C   0  0  0  0  0  0  0  0  0  0  0  0
   59.2740   34.3640   45.7950 C   0  0  0  0  0  0  0  0  0  0  0  0
   59.2220   33.7970   44.5180 C   0  0  0  0  0  0  0  0  0  0  0  0
   57.6789   26.1639   44.2936 H   0  0  0  0  0  0  0  0  0  0  0  0
   57.7231   27.7011   43.3653 H   0  0  0  0  0  0  0  0  0  0  0  0
   59.1505   26.6105   43.3653 H   0  0  0  0  0  0  0  0  0  0  0  0
   60.1453   25.6571   48.3494 H   0  0  0  0  0  0  0  0  0  0  0  0
   61.0525   26.7248   50.4164 H   0  0  0  0  0  0  0  0  0  0  0  0
   61.1987   29.2107   50.5805 H   0  0  0  0  0  0  0  0  0  0  0  0
   60.4317   30.6415   48.6835 H   0  0  0  0  0  0  0  0  0  0  0  0
   59.1850   30.2420   43.4590 H   0  0  0  0  0  0  0  0  0  0  0  0
   56.4802   30.5371   41.9997 H   0  0  0  0  0  0  0  0  0  0  0  0
   55.8000   31.7133   43.1853 H   0  0  0  0  0  0  0  0  0  0  0  0
   56.1256   32.3518   44.6847 H   0  0  0  0  0  0  0  0  0  0  0  0
   56.2223   33.3601   46.9684 H   0  0  0  0  0  0  0  0  0  0  0  0
   58.2402   34.6501   47.6815 H   0  0  0  0  0  0  0  0  0  0  0  0
   60.1610   34.9346   46.1074 H   0  0  0  0  0  0  0  0  0  0  0  0
   60.0667   33.9250   43.8252 H   0  0  0  0  0  0  0  0  0  0  0  0
  1  2  1  0
  2  3  2  0
  3  4  1  0
  4  5  2  0
  5  6  1  0
  6  7  2  0
  7  8  1  0
  8  9  2  0
  9 10  1  0
 10 11  2  0
 10 12  1  0
 12 13  1  0
 13 14  1  0
 14 15  2  0
 14 16  1  0
 16 17  1  0
 17 18  1  0
 18 19  2  0
 19 20  1  0
 20 21  2  0
 21 22  1  0
 22 23  2  0
 12  2  1  0
 23 18  1  0
  9  4  1  0
  1 24  1  0
  1 25  1  0
  1 26  1  0
  5 27  1  0
  6 28  1  0
  7 29  1  0
  8 30  1  0
 13 31  1  0
 16 32  1  0
 16 33  1  0
 19 34  1  0
 20 35  1  0
 21 36  1  0
 22 37  1  0
 23 38  1  0
M  END
>  <UniqueID>  (89) 
83

>  <SMILES>  (89) 
Cc1nc2ccccc2c(=O)n1NC(=O)CSc1ccccc1

>  <Energy>  (89) 
44.80066055653985

>  <Genealogy>  (89) 
Cc1nc2ccccc2c(=O)n1NC(=O)CSc1ccccc1 (3D coordinates assigned)
Cc1nc2ccccc2c(=O)n1NC(=O)CSc1ccccc1 (optimized conformer: 44.80066055653985 kcal/mol)

>  <smiles>  (89) 
Cc1nc2ccccc2c(=O)n1NC(=O)CSc1ccccc1

>  <score_type>  (89) 
oracle

>  <origin>  (89) 
adg

>  <m_score__min__energy>  (89) 
-7.9100000000000001

>  <m_primary>  (89) 
energy

$$$$
89:0
     RDKit          3D

 59 62  0  0  0  0  0  0  0  0999 V2000
   57.0370   26.2110   45.2630 C   0  0  0  0  0  0  0  0  0  0  0  0
   56.4020   27.4400   45.6010 O   0  0  0  0  0  0  0  0  0  0  0  0
   56.9260   28.7100   45.3110 C   0  0  0  0  0  0  0  0  0  0  0  0
   56.1860   29.6820   44.6110 C   0  0  0  0  0  0  0  0  0  0  0  0
   56.7380   30.9350   44.3440 C   0  0  0  0  0  0  0  0  0  0  0  0
   58.0390   31.2390   44.7690 C   0  0  0  0  0  0  0  0  0  0  0  0
   58.6460   32.5870   44.4750 C   0  0  0  0  0  0  0  0  0  0  0  0
   57.9030   33.6740   45.1540 N   0  0  0  0  0  0  0  0  0  0  0  0
   58.6200   34.9740   45.0630 C   0  0  0  0  0  0  0  0  0  0  0  0
   59.4150   35.3410   46.3330 C   0  0  0  0  0  0  0  0  0  0  0  0
   59.8000   34.1330   47.0670 N   0  0  0  0  0  0  0  0  0  0  0  0
   61.1780   33.8660   47.3930 C   0  0  0  0  0  0  0  0  0  0  0  0
   62.0740   33.4570   46.3960 C   0  0  0  0  0  0  0  0  0  0  0  0
   63.3990   33.2140   46.7470 C   0  0  0  0  0  0  0  0  0  0  0  0
   63.8030   33.3830   48.0300 N   0  0  0  0  0  0  0  0  0  0  0  0
   62.9330   33.7960   48.9900 C   0  0  0  0  0  0  0  0  0  0  0  0
   63.4070   33.9720   50.3970 C   0  0  0  0  0  0  0  0  0  0  0  0
   61.6290   34.0320   48.6700 N   0  0  0  0  0  0  0  0  0  0  0  0
   58.7500   33.1890   47.4590 C   0  0  0  0  0  0  0  0  0  0  0  0
   57.5200   33.3420   46.5470 C   0  0  0  0  0  0  0  0  0  0  0  0
   58.7820   30.2730   45.4600 C   0  0  0  0  0  0  0  0  0  0  0  0
   58.2290   29.0080   45.7410 C   0  0  0  0  0  0  0  0  0  0  0  0
   58.9390   28.0180   46.4430 O   0  0  0  0  0  0  0  0  0  0  0  0
   58.9130   27.8270   47.8580 C   0  0  0  0  0  0  0  0  0  0  0  0
   59.3890   29.0630   48.5760 C   0  0  0  0  0  0  0  0  0  0  0  0
   58.5570   29.7170   49.4990 C   0  0  0  0  0  0  0  0  0  0  0  0
   59.0030   30.8650   50.1600 C   0  0  0  0  0  0  0  0  0  0  0  0
   60.2780   31.3740   49.8960 C   0  0  0  0  0  0  0  0  0  0  0  0
   60.7090   32.4890   50.5370 F   0  0  0  0  0  0  0  0  0  0  0  0
   61.1060   30.7370   48.9680 C   0  0  0  0  0  0  0  0  0  0  0  0
   60.6640   29.5880   48.3060 C   0  0  0  0  0  0  0  0  0  0  0  0
   57.3135   25.6759   46.1834 H   0  0  0  0  0  0  0  0  0  0  0  0
   56.3461   25.5916   44.6722 H   0  0  0  0  0  0  0  0  0  0  0  0
   57.9419   26.4162   44.6722 H   0  0  0  0  0  0  0  0  0  0  0  0
   55.1651   29.4517   44.2722 H   0  0  0  0  0  0  0  0  0  0  0  0
   56.1502   31.6875   43.7979 H   0  0  0  0  0  0  0  0  0  0  0  0
   59.6890   32.5938   44.8245 H   0  0  0  0  0  0  0  0  0  0  0  0
   58.5969   32.7595   43.3897 H   0  0  0  0  0  0  0  0  0  0  0  0
   59.3221   34.9236   44.2177 H   0  0  0  0  0  0  0  0  0  0  0  0
   57.8538   35.7520   44.9307 H   0  0  0  0  0  0  0  0  0  0  0  0
   60.3216   35.8934   46.0450 H   0  0  0  0  0  0  0  0  0  0  0  0
   58.7804   35.9630   46.9814 H   0  0  0  0  0  0  0  0  0  0  0  0
   61.7369   33.3305   45.3566 H   0  0  0  0  0  0  0  0  0  0  0  0
   64.1186   32.8847   45.9829 H   0  0  0  0  0  0  0  0  0  0  0  0
   62.6083   33.6754   51.0928 H   0  0  0  0  0  0  0  0  0  0  0  0
   64.2934   33.3430   50.5667 H   0  0  0  0  0  0  0  0  0  0  0  0
   63.6681   35.0270   50.5667 H   0  0  0  0  0  0  0  0  0  0  0  0
   60.9760   34.3700   49.4120 H   0  0  0  0  0  0  0  0  0  0  0  0
   59.1367   32.1625   47.3761 H   0  0  0  0  0  0  0  0  0  0  0  0
   58.4519   33.3992   48.4967 H   0  0  0  0  0  0  0  0  0  0  0  0
   56.9584   32.3962   46.5457 H   0  0  0  0  0  0  0  0  0  0  0  0
   56.9062   34.1669   46.9378 H   0  0  0  0  0  0  0  0  0  0  0  0
   59.8067   30.5043   45.7862 H   0  0  0  0  0  0  0  0  0  0  0  0
   57.8831   27.6021   48.1722 H   0  0  0  0  0  0  0  0  0  0  0  0
   59.5831   26.9926   48.1125 H   0  0  0  0  0  0  0  0  0  0  0  0
   57.5499   29.3242   49.7027 H   0  0  0  0  0  0  0  0  0  0  0  0
   58.3503   31.3683   50.8885 H   0  0  0  0  0  0  0  0  0  0  0  0
   62.1075   31.1405   48.7580 H   0  0  0  0  0  0  0  0  0  0  0  0
   61.3164   29.0933   47.5714 H   0  0  0  0  0  0  0  0  0  0  0  0
  1  2  1  0
  2  3  1  0
  3  4  2  0
  4  5  1  0
  5  6  2  0
  6  7  1  0
  7  8  1  0
  8  9  1  0
  9 10  1  0
 10 11  1  0
 11 12  1  0
 12 13  2  0
 13 14  1  0
 14 15  2  0
 15 16  1  0
 16 17  1  0
 16 18  2  0
 11 19  1  0
 19 20  1  0
  6 21  1  0
 21 22  2  0
 22 23  1  0
 23 24  1  0
 24 25  1  0
 25 26  2  0
 26 27  1  0
 27 28  2  0
 28 29  1  0
 28 30  1  0
 30 31  2  0
 22  3  1  0
 31 25  1  0
 20  8  1  0
 18 12  1  0
  1 32  1  0
  1 33  1  0
  1 34  1  0
  4 35  1  0
  5 36  1  0
  7 37  1  0
  7 38  1  0
  9 39  1  0
  9 40  1  0
 10 41  1  0
 10 42  1  0
 13 43  1  0
 14 44  1  0
 17 45  1  0
 17 46  1  0
 17 47  1  0
 18 48  1  0
 19 49  1  0
 19 50  1  0
 20 51  1  0
 20 52  1  0
 21 53  1  0
 24 54  1  0
 24 55  1  0
 26 56  1  0
 27 57  1  0
 30 58  1  0
 31 59  1  0
M  CHG  1  18   1
M  END
>  <UniqueID>  (90) 
84

>  <SMILES>  (90) 
COc1ccc(CN2CCN(c3ccnc(C)[nH+]3)CC2)cc1OCc1ccc(F)cc1

>  <Energy>  (90) 
72.21750889950282

>  <Genealogy>  (90) 
COc1ccc(CN2CCN(c3ccnc(C)[nH+]3)CC2)cc1OCc1ccc(F)cc1 (protonated)
COc1ccc(CN2CCN(c3ccnc(C)[nH+]3)CC2)cc1OCc1ccc(F)cc1 (3D coordinates assigned)
COc1ccc(CN2CCN(c3ccnc(C)[nH+]3)CC2)cc1OCc1ccc(F)cc1 (nonaromatic ring conformer: 72.21750889950282 kcal/mol)

>  <smiles>  (90) 
COc1ccc(CN2CCN(c3ccnc(C)n3)CC2)cc1OCc1ccc(F)cc1

>  <score_type>  (90) 
oracle

>  <origin>  (90) 
adg

>  <m_score__min__energy>  (90) 
-6.8700000000000001

>  <m_primary>  (90) 
energy

$$$$
90:0
     RDKit          3D

 49 51  0  0  0  0  0  0  0  0999 V2000
   57.0170   23.5210   47.3320 C   0  0  0  0  0  0  0  0  0  0  0  0
   56.2700   24.7600   47.5210 N   0  0  0  0  0  0  0  0  0  0  0  0
   56.1080   25.5840   46.0000 S   0  0  0  0  0  0  0  0  0  0  0  0
   56.1040   24.5730   44.8900 O   0  0  0  0  0  0  0  0  0  0  0  0
   54.8040   26.3330   45.9670 O   0  0  0  0  0  0  0  0  0  0  0  0
   57.4560   26.6940   45.7610 C   0  0  0  0  0  0  0  0  0  0  0  0
   57.9390   26.9640   44.4730 C   0  0  0  0  0  0  0  0  0  0  0  0
   59.0040   27.8490   44.2970 C   0  0  0  0  0  0  0  0  0  0  0  0
   59.5850   28.4790   45.4000 C   0  0  0  0  0  0  0  0  0  0  0  0
   59.0920   28.2380   46.6950 C   0  0  0  0  0  0  0  0  0  0  0  0
   59.6810   28.8590   47.8500 N   0  0  0  0  0  0  0  0  0  0  0  0
   60.1390   28.1390   49.0060 C   0  0  0  0  0  0  0  0  0  0  0  0
   60.2190   26.8810   48.9910 O   0  0  0  0  0  0  0  0  0  0  0  0
   60.6000   28.8810   50.2230 C   0  0  0  0  0  0  0  0  0  0  0  0
   60.6680   30.2800   49.9540 O   0  0  0  0  0  0  0  0  0  0  0  0
   59.5420   31.1050   49.8690 C   0  0  0  0  0  0  0  0  0  0  0  0
   58.7700   31.2360   50.8580 O   0  0  0  0  0  0  0  0  0  0  0  0
   59.2470   31.8350   48.6270 C   0  0  0  0  0  0  0  0  0  0  0  0
   58.7270   31.2530   47.5610 O   0  0  0  0  0  0  0  0  0  0  0  0
   58.5880   32.1680   46.6330 C   0  0  0  0  0  0  0  0  0  0  0  0
   58.0780   31.9960   45.3480 C   0  0  0  0  0  0  0  0  0  0  0  0
   58.0160   33.1290   44.4980 C   0  0  0  0  0  0  0  0  0  0  0  0
   57.5180   33.0530   43.1890 O   0  0  0  0  0  0  0  0  0  0  0  0
   57.8030   31.9940   42.2820 C   0  0  0  0  0  0  0  0  0  0  0  0
   58.4670   34.3830   44.9720 C   0  0  0  0  0  0  0  0  0  0  0  0
   58.9770   34.5230   46.2750 C   0  0  0  0  0  0  0  0  0  0  0  0
   59.0230   33.3860   47.0820 C   0  0  0  0  0  0  0  0  0  0  0  0
   59.4580   33.1940   48.3790 C   0  0  0  0  0  0  0  0  0  0  0  0
   60.0280   34.2190   49.3130 C   0  0  0  0  0  0  0  0  0  0  0  0
   58.0370   27.3290   46.8670 C   0  0  0  0  0  0  0  0  0  0  0  0
   57.2741   23.0946   48.3129 H   0  0  0  0  0  0  0  0  0  0  0  0
   56.4009   22.8034   46.7703 H   0  0  0  0  0  0  0  0  0  0  0  0
   57.9392   23.7309   46.7703 H   0  0  0  0  0  0  0  0  0  0  0  0
   57.4783   26.4780   43.6003 H   0  0  0  0  0  0  0  0  0  0  0  0
   59.3872   28.0510   43.2859 H   0  0  0  0  0  0  0  0  0  0  0  0
   60.4315   29.1664   45.2552 H   0  0  0  0  0  0  0  0  0  0  0  0
   59.8710   29.8860   47.8080 H   0  0  0  0  0  0  0  0  0  0  0  0
   59.8919   28.7038   51.0459 H   0  0  0  0  0  0  0  0  0  0  0  0
   61.6012   28.5216   50.5032 H   0  0  0  0  0  0  0  0  0  0  0  0
   57.7335   31.0100   45.0030 H   0  0  0  0  0  0  0  0  0  0  0  0
   58.0482   31.0829   42.8475 H   0  0  0  0  0  0  0  0  0  0  0  0
   56.9233   31.8069   41.6487 H   0  0  0  0  0  0  0  0  0  0  0  0
   58.6578   32.2737   41.6487 H   0  0  0  0  0  0  0  0  0  0  0  0
   58.4181   35.2615   44.3118 H   0  0  0  0  0  0  0  0  0  0  0  0
   59.3282   35.4972   46.6458 H   0  0  0  0  0  0  0  0  0  0  0  0
   59.8534   33.9050   50.3527 H   0  0  0  0  0  0  0  0  0  0  0  0
   61.1093   34.3155   49.1358 H   0  0  0  0  0  0  0  0  0  0  0  0
   59.5395   35.1885   49.1358 H   0  0  0  0  0  0  0  0  0  0  0  0
   57.6628   27.1130   47.8786 H   0  0  0  0  0  0  0  0  0  0  0  0
  1  2  1  0
  2  3  1  0
  3  4  2  0
  3  5  2  0
  3  6  1  0
  6  7  2  0
  7  8  1  0
  8  9  2  0
  9 10  1  0
 10 11  1  0
 11 12  1  0
 12 13  2  0
 12 14  1  0
 14 15  1  0
 15 16  1  0
 16 17  2  0
 16 18  1  0
 18 19  1  0
 19 20  1  0
 20 21  2  0
 21 22  1  0
 22 23  1  0
 23 24  1  0
 22 25  2  0
 25 26  1  0
 26 27  2  0
 27 28  1  0
 28 29  1  0
 10 30  2  0
 30  6  1  0
 28 18  2  0
 27 20  1  0
  1 31  1  0
  1 32  1  0
  1 33  1  0
  7 34  1  0
  8 35  1  0
  9 36  1  0
 11 37  1  0
 14 38  1  0
 14 39  1  0
 21 40  1  0
 24 41  1  0
 24 42  1  0
 24 43  1  0
 25 44  1  0
 26 45  1  0
 29 46  1  0
 29 47  1  0
 29 48  1  0
 30 49  1  0
M  CHG  1   2  -1
M  END
>  <UniqueID>  (91) 
85

>  <SMILES>  (91) 
C[N-]S(=O)(=O)c1cccc(NC(=O)COC(=O)c2oc3cc(OC)ccc3c2C)c1

>  <Energy>  (91) 
82.11809442512241

>  <Genealogy>  (91) 
C[N-]S(=O)(=O)c1cccc(NC(=O)COC(=O)c2oc3cc(OC)ccc3c2C)c1 (protonated)
C[N-]S(=O)(=O)c1cccc(NC(=O)COC(=O)c2oc3cc(OC)ccc3c2C)c1 (3D coordinates assigned)
C[N-]S(=O)(=O)c1cccc(NC(=O)COC(=O)c2oc3cc(OC)ccc3c2C)c1 (optimized conformer: 82.11809442512241 kcal/mol)

>  <smiles>  (91) 
CNS(=O)(=O)c1cccc(NC(=O)COC(=O)c2oc3cc(OC)ccc3c2C)c1

>  <score_type>  (91) 
oracle

>  <origin>  (91) 
adg

>  <m_score__min__energy>  (91) 
-10.48

>  <m_primary>  (91) 
energy

$$$$
91:0
     RDKit          3D

 53 55  0  0  0  0  0  0  0  0999 V2000
   67.9020   33.1610   50.5710 C   0  0  0  0  0  0  0  0  0  0  0  0
   66.4440   33.4670   50.6970 C   0  0  0  0  0  0  0  0  0  0  0  0
   65.5230   32.9010   49.8050 C   0  0  0  0  0  0  0  0  0  0  0  0
   64.1560   33.2110   49.9230 C   0  0  0  0  0  0  0  0  0  0  0  0
   63.1620   32.6190   48.9910 C   0  0  0  0  0  0  0  0  0  0  0  0
   62.5100   31.4150   49.3110 C   0  0  0  0  0  0  0  0  0  0  0  0
   61.5760   30.8590   48.4340 C   0  0  0  0  0  0  0  0  0  0  0  0
   61.2760   31.4870   47.2200 C   0  0  0  0  0  0  0  0  0  0  0  0
   60.3300   30.8790   46.3780 O   0  0  0  0  0  0  0  0  0  0  0  0
   60.3800   29.5300   45.9100 C   0  0  0  0  0  0  0  0  0  0  0  0
   59.6030   29.3610   44.5950 C   0  0  0  0  0  0  0  0  0  0  0  0
   58.4710   28.3210   44.6780 C   0  0  0  0  0  0  0  0  0  0  0  0
   57.0670   28.9010   44.4320 C   0  0  0  0  0  0  0  0  0  0  0  0
   56.8550   30.1400   45.2040 N   0  0  0  0  0  0  0  0  0  0  0  0
   56.8990   31.3470   44.3650 C   0  0  0  0  0  0  0  0  0  0  0  0
   57.6650   32.4490   45.0470 C   0  0  0  0  0  0  0  0  0  0  0  0
   58.2590   33.4680   44.2850 C   0  0  0  0  0  0  0  0  0  0  0  0
   58.9440   34.5110   44.9150 C   0  0  0  0  0  0  0  0  0  0  0  0
   59.0410   34.5470   46.3120 C   0  0  0  0  0  0  0  0  0  0  0  0
   59.7200   35.5820   46.9520 O   0  0  0  0  0  0  0  0  0  0  0  0
   58.4510   33.5330   47.0750 C   0  0  0  0  0  0  0  0  0  0  0  0
   57.7650   32.4890   46.4480 C   0  0  0  0  0  0  0  0  0  0  0  0
   61.9200   32.6960   46.8980 C   0  0  0  0  0  0  0  0  0  0  0  0
   62.8550   33.2530   47.7740 C   0  0  0  0  0  0  0  0  0  0  0  0
   63.7490   34.0900   50.9400 C   0  0  0  0  0  0  0  0  0  0  0  0
   64.6990   34.6370   51.8040 C   0  0  0  0  0  0  0  0  0  0  0  0
   66.0120   34.3190   51.6650 N   0  0  0  0  0  0  0  0  0  0  0  0
   68.3451   33.0680   51.5735 H   0  0  0  0  0  0  0  0  0  0  0  0
   68.0323   32.2159   50.0234 H   0  0  0  0  0  0  0  0  0  0  0  0
   68.4013   33.9739   50.0234 H   0  0  0  0  0  0  0  0  0  0  0  0
   65.8678   32.2169   49.0156 H   0  0  0  0  0  0  0  0  0  0  0  0
   62.7374   30.9069   50.2597 H   0  0  0  0  0  0  0  0  0  0  0  0
   61.0714   29.9185   48.7001 H   0  0  0  0  0  0  0  0  0  0  0  0
   61.4301   29.2481   45.7434 H   0  0  0  0  0  0  0  0  0  0  0  0
   59.9169   28.8836   46.6701 H   0  0  0  0  0  0  0  0  0  0  0  0
   59.1639   30.3322   44.3231 H   0  0  0  0  0  0  0  0  0  0  0  0
   60.3184   29.0000   43.8414 H   0  0  0  0  0  0  0  0  0  0  0  0
   58.6605   27.5429   43.9239 H   0  0  0  0  0  0  0  0  0  0  0  0
   58.4764   27.9269   45.7050 H   0  0  0  0  0  0  0  0  0  0  0  0
   56.9538   29.1228   43.3606 H   0  0  0  0  0  0  0  0  0  0  0  0
   56.3233   28.1585   44.7569 H   0  0  0  0  0  0  0  0  0  0  0  0
   55.8980   30.0950   45.6250 H   0  0  0  0  0  0  0  0  0  0  0  0
   57.3899   31.1045   43.4110 H   0  0  0  0  0  0  0  0  0  0  0  0
   55.8688   31.6913   44.1911 H   0  0  0  0  0  0  0  0  0  0  0  0
   58.1850   33.4454   43.1877 H   0  0  0  0  0  0  0  0  0  0  0  0
   59.4081   35.3055   44.3122 H   0  0  0  0  0  0  0  0  0  0  0  0
   59.2440   36.4290   47.2370 H   0  0  0  0  0  0  0  0  0  0  0  0
   58.5274   33.5577   48.1721 H   0  0  0  0  0  0  0  0  0  0  0  0
   57.3018   31.6960   47.0534 H   0  0  0  0  0  0  0  0  0  0  0  0
   61.6860   33.2053   45.9515 H   0  0  0  0  0  0  0  0  0  0  0  0
   63.3556   34.1961   47.5093 H   0  0  0  0  0  0  0  0  0  0  0  0
   62.6855   34.3464   51.0552 H   0  0  0  0  0  0  0  0  0  0  0  0
   64.3833   35.3277   52.5998 H   0  0  0  0  0  0  0  0  0  0  0  0
  1  2  1  0
  2  3  2  0
  3  4  1  0
  4  5  1  0
  5  6  2  0
  6  7  1  0
  7  8  2  0
  8  9  1  0
  9 10  1  0
 10 11  1  0
 11 12  1  0
 12 13  1  0
 13 14  1  0
 14 15  1  0
 15 16  1  0
 16 17  2  0
 17 18  1  0
 18 19  2  0
 19 20  1  0
 19 21  1  0
 21 22  2  0
  8 23  1  0
 23 24  2  0
  4 25  2  0
 25 26  1  0
 26 27  2  0
 27  2  1  0
 24  5  1  0
 22 16  1  0
  1 28  1  0
  1 29  1  0
  1 30  1  0
  3 31  1  0
  6 32  1  0
  7 33  1  0
 10 34  1  0
 10 35  1  0
 11 36  1  0
 11 37  1  0
 12 38  1  0
 12 39  1  0
 13 40  1  0
 13 41  1  0
 14 42  1  0
 15 43  1  0
 15 44  1  0
 17 45  1  0
 18 46  1  0
 20 47  1  0
 21 48  1  0
 22 49  1  0
 23 50  1  0
 24 51  1  0
 25 52  1  0
 26 53  1  0
M  END
>  <UniqueID>  (92) 
86

>  <SMILES>  (92) 
Cc1cc(-c2ccc(OCCCCNCc3ccc(O)cc3)cc2)ccn1

>  <Energy>  (92) 
55.097325133644034

>  <Genealogy>  (92) 
Cc1cc(-c2ccc(OCCCCNCc3ccc(O)cc3)cc2)ccn1 (3D coordinates assigned)
Cc1cc(-c2ccc(OCCCCNCc3ccc(O)cc3)cc2)ccn1 (optimized conformer: 55.097325133644034 kcal/mol)

>  <smiles>  (92) 
Cc1cc(-c2ccc(OCCCCNCc3ccc(O)cc3)cc2)ccn1

>  <score_type>  (92) 
oracle

>  <origin>  (92) 
adg

>  <m_score__min__energy>  (92) 
-8.4299999999999997

>  <m_primary>  (92) 
energy

$$$$
92:0
     RDKit          3D

 52 54  0  0  0  0  0  0  0  0999 V2000
   57.6170   33.8260   45.2440 C   0  0  0  0  0  0  0  0  0  0  0  0
   58.2050   32.7620   46.1270 C   0  0  0  0  0  0  0  0  0  0  0  0
   59.1010   33.1320   47.1440 C   0  0  0  0  0  0  0  0  0  0  0  0
   59.6430   32.1640   48.0040 C   0  0  0  0  0  0  0  0  0  0  0  0
   60.6760   32.6500   49.3440 S   0  0  0  0  0  0  0  0  0  0  0  0
   62.1120   32.3090   49.0480 O   0  0  0  0  0  0  0  0  0  0  0  0
   60.5870   34.1390   49.5360 O   0  0  0  0  0  0  0  0  0  0  0  0
   60.1250   31.8740   50.7950 N   0  0  0  0  0  0  0  0  0  0  0  0
   58.7670   31.6640   51.2120 C   0  0  0  0  0  0  0  0  0  0  0  0
   58.1550   30.3990   51.2030 C   0  0  0  0  0  0  0  0  0  0  0  0
   56.8320   30.2480   51.6250 C   0  0  0  0  0  0  0  0  0  0  0  0
   56.0900   31.3560   52.0660 C   0  0  0  0  0  0  0  0  0  0  0  0
   54.6830   31.1730   52.5060 C   0  0  0  0  0  0  0  0  0  0  0  0
   54.4530   30.6730   53.6410 O   0  0  0  0  0  0  0  0  0  0  0  0
   53.5800   31.5680   51.6740 N   0  0  0  0  0  0  0  0  0  0  0  0
   52.1980   31.3050   52.0730 C   0  0  0  0  0  0  0  0  0  0  0  0
   51.2770   32.3340   51.4950 C   0  0  0  0  0  0  0  0  0  0  0  0
   51.4210   32.7130   50.3030 O   0  0  0  0  0  0  0  0  0  0  0  0
   50.2480   32.8640   52.2650 O   0  0  0  0  0  0  0  0  0  0  0  0
   56.6990   32.6240   52.0560 C   0  0  0  0  0  0  0  0  0  0  0  0
   58.0260   32.7700   51.6370 C   0  0  0  0  0  0  0  0  0  0  0  0
   59.3110   30.8170   47.8260 C   0  0  0  0  0  0  0  0  0  0  0  0
   58.4000   30.4440   46.8380 C   0  0  0  0  0  0  0  0  0  0  0  0
   57.7960   31.4150   46.0230 C   0  0  0  0  0  0  0  0  0  0  0  0
   56.7650   31.0450   45.0930 N   0  0  0  0  0  0  0  0  0  0  0  0
   56.3650   29.6990   44.7920 C   0  0  0  0  0  0  0  0  0  0  0  0
   55.1860   29.3460   45.0450 O   0  0  0  0  0  0  0  0  0  0  0  0
   57.2750   28.7410   44.2310 N   0  0  0  0  0  0  0  0  0  0  0  0
   58.3030   28.0500   44.9610 C   0  0  0  0  0  0  0  0  0  0  0  0
   59.6370   28.4360   44.7650 C   0  0  0  0  0  0  0  0  0  0  0  0
   60.6600   27.8580   45.5230 C   0  0  0  0  0  0  0  0  0  0  0  0
   60.3600   26.8710   46.4650 C   0  0  0  0  0  0  0  0  0  0  0  0
   59.0400   26.4390   46.6290 C   0  0  0  0  0  0  0  0  0  0  0  0
   58.0090   27.0120   45.8740 C   0  0  0  0  0  0  0  0  0  0  0  0
   56.3870   26.3520   46.0470 Cl  0  0  0  0  0  0  0  0  0  0  0  0
   57.1787   34.6191   45.8676 H   0  0  0  0  0  0  0  0  0  0  0  0
   58.4070   34.2534   44.6090 H   0  0  0  0  0  0  0  0  0  0  0  0
   56.8348   33.3845   44.6090 H   0  0  0  0  0  0  0  0  0  0  0  0
   59.3800   34.1889   47.2673 H   0  0  0  0  0  0  0  0  0  0  0  0
   58.7223   29.5208   50.8609 H   0  0  0  0  0  0  0  0  0  0  0  0
   56.3666   29.2514   51.6118 H   0  0  0  0  0  0  0  0  0  0  0  0
   53.7540   32.1740   50.8390 H   0  0  0  0  0  0  0  0  0  0  0  0
   51.9006   30.3097   51.7111 H   0  0  0  0  0  0  0  0  0  0  0  0
   52.1320   31.3467   53.1702 H   0  0  0  0  0  0  0  0  0  0  0  0
   56.1281   33.5068   52.3798 H   0  0  0  0  0  0  0  0  0  0  0  0
   58.4913   33.7667   51.6422 H   0  0  0  0  0  0  0  0  0  0  0  0
   59.7697   30.0497   48.4670 H   0  0  0  0  0  0  0  0  0  0  0  0
   58.1529   29.3815   46.6962 H   0  0  0  0  0  0  0  0  0  0  0  0
   59.8801   29.1983   44.0102 H   0  0  0  0  0  0  0  0  0  0  0  0
   61.7015   28.1806   45.3775 H   0  0  0  0  0  0  0  0  0  0  0  0
   61.1620   26.4336   47.0778 H   0  0  0  0  0  0  0  0  0  0  0  0
   58.8104   25.6450   47.3548 H   0  0  0  0  0  0  0  0  0  0  0  0
  1  2  1  0
  2  3  2  0
  3  4  1  0
  4  5  1  0
  5  6  2  0
  5  7  2  0
  5  8  1  0
  8  9  1  0
  9 10  2  0
 10 11  1  0
 11 12  2  0
 12 13  1  0
 13 14  2  0
 13 15  1  0
 15 16  1  0
 16 17  1  0
 17 18  2  0
 17 19  1  0
 12 20  1  0
 20 21  2  0
  4 22  2  0
 22 23  1  0
 23 24  2  0
 24 25  1  0
 25 26  1  0
 26 27  2  0
 26 28  1  0
 28 29  1  0
 29 30  2  0
 30 31  1  0
 31 32  2  0
 32 33  1  0
 33 34  2  0
 34 35  1  0
 24  2  1  0
 34 29  1  0
 21  9  1  0
  1 36  1  0
  1 37  1  0
  1 38  1  0
  3 39  1  0
 10 40  1  0
 11 41  1  0
 15 42  1  0
 16 43  1  0
 16 44  1  0
 20 45  1  0
 21 46  1  0
 22 47  1  0
 23 48  1  0
 30 49  1  0
 31 50  1  0
 32 51  1  0
 33 52  1  0
M  CHG  4   8  -1  19  -1  25  -1  28  -1
M  END
>  <UniqueID>  (93) 
87

>  <SMILES>  (93) 
Cc1cc(S(=O)(=O)[N-]c2ccc(C(=O)NCC(=O)[O-])cc2)ccc1[N-]C(=O)[N-]c1ccccc1Cl

>  <Energy>  (93) 
66.95983562368534

>  <Genealogy>  (93) 
Cc1cc(S(=O)(=O)[N-]c2ccc(C(=O)NCC(=O)[O-])cc2)ccc1[N-]C(=O)[N-]c1ccccc1Cl (protonated)
Cc1cc(S(=O)(=O)[N-]c2ccc(C(=O)NCC(=O)[O-])cc2)ccc1[N-]C(=O)[N-]c1ccccc1Cl (3D coordinates assigned)
Cc1cc(S(=O)(=O)[N-]c2ccc(C(=O)NCC(=O)[O-])cc2)ccc1[N-]C(=O)[N-]c1ccccc1Cl (optimized conformer: 66.95983562368534 kcal/mol)

>  <smiles>  (93) 
Cc1cc(S(=O)(=O)Nc2ccc(C(=O)NCC(=O)O)cc2)ccc1NC(=O)Nc1ccccc1Cl

>  <score_type>  (93) 
oracle

>  <origin>  (93) 
adg

>  <m_score__min__energy>  (93) 
-17.789999999999999

>  <m_primary>  (93) 
energy

$$$$
93:0
     RDKit          3D

 49 52  0  0  0  0  0  0  0  0999 V2000
   51.6250   24.3800   44.8220 C   0  0  0  0  0  0  0  0  0  0  0  0
   53.3600   23.9880   44.9200 S   0  0  0  0  0  0  0  0  0  0  0  0
   53.5410   22.7570   45.7640 O   0  0  0  0  0  0  0  0  0  0  0  0
   53.8720   23.7090   43.5350 O   0  0  0  0  0  0  0  0  0  0  0  0
   54.2410   25.3350   45.5870 N   0  0  0  0  0  0  0  0  0  0  0  0
   55.5510   24.9030   46.1090 C   0  0  1  0  0  0  0  0  0  0  0  0
   56.4140   24.3340   44.9680 C   0  0  0  0  0  0  0  0  0  0  0  0
   57.3710   25.4430   44.5550 C   0  0  0  0  0  0  0  0  0  0  0  0
   57.3540   26.3920   45.6490 N   0  0  0  0  0  0  0  0  0  0  0  0
   58.1820   27.5640   45.6830 C   0  0  0  0  0  0  0  0  0  0  0  0
   59.5140   27.3950   46.0760 C   0  0  0  0  0  0  0  0  0  0  0  0
   60.5390   28.3360   46.2040 C   0  0  0  0  0  0  0  0  0  0  0  0
   60.5300   29.7140   45.9790 C   0  0  0  0  0  0  0  0  0  0  0  0
   59.4820   30.5240   45.5590 C   0  0  0  0  0  0  0  0  0  0  0  0
   58.1940   30.1050   45.2680 C   0  0  0  0  0  0  0  0  0  0  0  0
   57.1420   30.8990   44.8280 C   0  0  0  0  0  0  0  0  0  0  0  0
   57.1800   32.3680   44.5220 C   0  0  0  0  0  0  0  0  0  0  0  0
   57.9910   33.1030   45.5560 C   0  0  0  0  0  0  0  0  0  0  0  0
   57.7870   32.8470   46.9230 C   0  0  0  0  0  0  0  0  0  0  0  0
   58.5250   33.5410   47.8870 C   0  0  0  0  0  0  0  0  0  0  0  0
   59.4680   34.4950   47.4960 C   0  0  0  0  0  0  0  0  0  0  0  0
   59.6760   34.7560   46.1400 C   0  0  0  0  0  0  0  0  0  0  0  0
   58.9420   34.0640   45.1710 C   0  0  0  0  0  0  0  0  0  0  0  0
   56.0490   30.1400   44.6200 N   0  0  0  0  0  0  0  0  0  0  0  0
   56.3230   28.8800   44.9150 N   0  0  0  0  0  0  0  0  0  0  0  0
   57.6050   28.7790   45.3200 C   0  0  0  0  0  0  0  0  0  0  0  0
   56.3550   26.0950   46.6560 C   0  0  0  0  0  0  0  0  0  0  0  0
   51.2122   24.4733   45.8373 H   0  0  0  0  0  0  0  0  0  0  0  0
   51.4936   25.3305   44.2841 H   0  0  0  0  0  0  0  0  0  0  0  0
   51.0978   23.5783   44.2841 H   0  0  0  0  0  0  0  0  0  0  0  0
   53.6470   25.6830   46.3750 H   0  0  0  0  0  0  0  0  0  0  0  0
   55.3439   24.1613   46.8945 H   0  0  0  0  0  0  0  0  0  0  0  0
   56.9776   23.4570   45.3190 H   0  0  0  0  0  0  0  0  0  0  0  0
   55.7907   24.0109   44.1212 H   0  0  0  0  0  0  0  0  0  0  0  0
   58.3848   25.0420   44.4089 H   0  0  0  0  0  0  0  0  0  0  0  0
   57.0720   25.9088   43.6044 H   0  0  0  0  0  0  0  0  0  0  0  0
   59.7984   26.3614   46.3224 H   0  0  0  0  0  0  0  0  0  0  0  0
   61.5052   27.9267   46.5340 H   0  0  0  0  0  0  0  0  0  0  0  0
   61.4847   30.2298   46.1592 H   0  0  0  0  0  0  0  0  0  0  0  0
   59.6948   31.5974   45.4472 H   0  0  0  0  0  0  0  0  0  0  0  0
   57.6340   32.5195   43.5316 H   0  0  0  0  0  0  0  0  0  0  0  0
   56.1521   32.7596   44.5329 H   0  0  0  0  0  0  0  0  0  0  0  0
   57.0443   32.0982   47.2355 H   0  0  0  0  0  0  0  0  0  0  0  0
   58.3628   33.3354   48.9554 H   0  0  0  0  0  0  0  0  0  0  0  0
   60.0465   35.0404   48.2562 H   0  0  0  0  0  0  0  0  0  0  0  0
   60.4186   35.5073   45.8333 H   0  0  0  0  0  0  0  0  0  0  0  0
   59.1095   34.2725   44.1040 H   0  0  0  0  0  0  0  0  0  0  0  0
   56.8378   25.8272   47.6074 H   0  0  0  0  0  0  0  0  0  0  0  0
   55.7088   26.9629   46.8539 H   0  0  0  0  0  0  0  0  0  0  0  0
  1  2  1  0
  2  3  2  0
  2  4  2  0
  2  5  1  0
  5  6  1  0
  6  7  1  0
  7  8  1  0
  8  9  1  0
  9 10  1  0
 10 11  2  0
 11 12  1  0
 12 13  2  0
 13 14  1  0
 14 15  2  0
 15 16  1  0
 16 17  1  0
 17 18  1  0
 18 19  2  0
 19 20  1  0
 20 21  2  0
 21 22  1  0
 22 23  2  0
 16 24  2  0
 24 25  1  0
 25 26  2  0
  9 27  1  0
 27  6  1  0
 26 10  1  0
 26 15  1  0
 23 18  1  0
  1 28  1  0
  1 29  1  0
  1 30  1  0
  5 31  1  0
  6 32  1  1
  7 33  1  0
  7 34  1  0
  8 35  1  0
  8 36  1  0
 11 37  1  0
 12 38  1  0
 13 39  1  0
 14 40  1  0
 17 41  1  0
 17 42  1  0
 19 43  1  0
 20 44  1  0
 21 45  1  0
 22 46  1  0
 23 47  1  0
 27 48  1  0
 27 49  1  0
M  END
>  <UniqueID>  (94) 
88

>  <SMILES>  (94) 
CS(=O)(=O)N[C@H]1CCN(c2ccccc3c(Cc4ccccc4)nnc2-3)C1

>  <Energy>  (94) 
94.85081736473681

>  <Genealogy>  (94) 
CS(=O)(=O)N[C@H]1CCN(c2ccccc3c(Cc4ccccc4)nnc2-3)C1 (chirality)
CS(=O)(=O)N[C@H]1CCN(c2ccccc3c(Cc4ccccc4)nnc2-3)C1 (3D coordinates assigned)
CS(=O)(=O)N[C@H]1CCN(c2ccccc3c(Cc4ccccc4)nnc2-3)C1 (nonaromatic ring conformer: 94.85081736473681 kcal/mol)

>  <smiles>  (94) 
CS(=O)(=O)NC1CCN(c2ccccc3c(Cc4ccccc4)nnc2-3)C1

>  <score_type>  (94) 
oracle

>  <origin>  (94) 
adg

>  <m_score__min__energy>  (94) 
-9.9700000000000006

>  <m_primary>  (94) 
energy

$$$$
