0:0
     RDKit          3D

 60 63  0  0  0  0  0  0  0  0999 V2000
   61.1300   27.9110   50.4370 C   0  0  0  0  0  0  0  0  0  0  0  0
   60.8180   28.2250   48.9770 C   0  0  0  0  0  0  0  0  0  0  0  0
   59.4100   28.6080   48.8090 N   0  0  0  0  0  0  0  0  0  0  0  0
   58.7340   29.3430   49.8940 C   0  0  0  0  0  0  0  0  0  0  0  0
   58.9810   30.8230   49.8370 C   0  0  0  0  0  0  0  0  0  0  0  0
   60.2000   31.4590   49.9200 C   0  0  0  0  0  0  0  0  0  0  0  0
   59.9300   32.7740   49.9100 N   0  0  0  0  0  0  0  0  0  0  0  0
   60.8990   33.8640   49.9260 C   0  0  0  0  0  0  0  0  0  0  0  0
   61.8910   33.6800   48.8130 C   0  0  0  0  0  0  0  0  0  0  0  0
   63.2210   33.3260   49.0990 C   0  0  0  0  0  0  0  0  0  0  0  0
   64.1330   33.1190   48.0580 C   0  0  0  0  0  0  0  0  0  0  0  0
   63.7210   33.2520   46.7290 C   0  0  0  0  0  0  0  0  0  0  0  0
   62.3960   33.5870   46.4360 C   0  0  0  0  0  0  0  0  0  0  0  0
   61.4820   33.7970   47.4740 C   0  0  0  0  0  0  0  0  0  0  0  0
   58.6210   32.9370   49.8130 N   0  0  0  0  0  0  0  0  0  0  0  0
   58.0130   31.7600   49.7750 N   0  0  0  0  0  0  0  0  0  0  0  0
   58.7640   28.3380   47.5480 C   0  0  0  0  0  0  0  0  0  0  0  0
   58.0440   27.1440   47.4090 C   0  0  0  0  0  0  0  0  0  0  0  0
   57.4200   26.8300   46.2060 C   0  0  0  0  0  0  0  0  0  0  0  0
   57.5030   27.7060   45.1260 C   0  0  0  0  0  0  0  0  0  0  0  0
   58.2110   28.9130   45.2360 C   0  0  0  0  0  0  0  0  0  0  0  0
   58.2680   29.8100   44.1120 N   0  0  0  0  0  0  0  0  0  0  0  0
   57.1670   31.1400   43.9460 S   0  0  0  0  0  0  0  0  0  0  0  0
   57.0240   31.4920   42.4920 O   0  0  0  0  0  0  0  0  0  0  0  0
   55.8240   30.7400   44.4900 O   0  0  0  0  0  0  0  0  0  0  0  0
   57.8020   32.5400   44.8070 C   0  0  0  0  0  0  0  0  0  0  0  0
   57.4680   32.7660   46.1510 C   0  0  0  0  0  0  0  0  0  0  0  0
   58.0060   33.8630   46.8320 C   0  0  0  0  0  0  0  0  0  0  0  0
   58.8800   34.7350   46.1750 C   0  0  0  0  0  0  0  0  0  0  0  0
   59.4030   35.7970   46.8380 F   0  0  0  0  0  0  0  0  0  0  0  0
   59.2180   34.5110   44.8380 C   0  0  0  0  0  0  0  0  0  0  0  0
   58.6800   33.4160   44.1540 C   0  0  0  0  0  0  0  0  0  0  0  0
   58.8510   29.2410   46.4580 C   0  0  0  0  0  0  0  0  0  0  0  0
   59.5750   30.5580   46.5890 C   0  0  0  0  0  0  0  0  0  0  0  0
   60.5054   28.5396   51.0888 H   0  0  0  0  0  0  0  0  0  0  0  0
   60.9176   26.8505   50.6374 H   0  0  0  0  0  0  0  0  0  0  0  0
   62.1919   28.1166   50.6374 H   0  0  0  0  0  0  0  0  0  0  0  0
   61.4585   29.0545   48.6429 H   0  0  0  0  0  0  0  0  0  0  0  0
   61.0094   27.3235   48.3765 H   0  0  0  0  0  0  0  0  0  0  0  0
   57.6513   29.1643   49.8179 H   0  0  0  0  0  0  0  0  0  0  0  0
   59.1426   28.9758   50.8470 H   0  0  0  0  0  0  0  0  0  0  0  0
   61.1914   30.9864   49.9818 H   0  0  0  0  0  0  0  0  0  0  0  0
   60.3739   34.8213   49.7925 H   0  0  0  0  0  0  0  0  0  0  0  0
   61.4300   33.8635   50.8893 H   0  0  0  0  0  0  0  0  0  0  0  0
   63.5457   33.2114   50.1437 H   0  0  0  0  0  0  0  0  0  0  0  0
   65.1753   32.8513   48.2859 H   0  0  0  0  0  0  0  0  0  0  0  0
   64.4406   33.0928   45.9124 H   0  0  0  0  0  0  0  0  0  0  0  0
   62.0720   33.6855   45.3894 H   0  0  0  0  0  0  0  0  0  0  0  0
   60.4384   34.0549   47.2408 H   0  0  0  0  0  0  0  0  0  0  0  0
   57.9716   26.4489   48.2585 H   0  0  0  0  0  0  0  0  0  0  0  0
   56.8600   25.8883   46.1074 H   0  0  0  0  0  0  0  0  0  0  0  0
   57.0087   27.4492   44.1774 H   0  0  0  0  0  0  0  0  0  0  0  0
   59.0800   29.7810   43.4570 H   0  0  0  0  0  0  0  0  0  0  0  0
   56.7824   32.0798   46.6696 H   0  0  0  0  0  0  0  0  0  0  0  0
   57.7415   34.0399   47.8850 H   0  0  0  0  0  0  0  0  0  0  0  0
   59.9075   35.1961   44.3231 H   0  0  0  0  0  0  0  0  0  0  0  0
   58.9466   33.2419   43.1011 H   0  0  0  0  0  0  0  0  0  0  0  0
   59.7076   30.7992   47.6540 H   0  0  0  0  0  0  0  0  0  0  0  0
   60.5597   30.4849   46.1043 H   0  0  0  0  0  0  0  0  0  0  0  0
   58.9856   31.3502   46.1043 H   0  0  0  0  0  0  0  0  0  0  0  0
  1  2  1  0
  2  3  1  0
  3  4  1  0
  4  5  1  0
  5  6  2  0
  6  7  1  0
  7  8  1  0
  8  9  1  0
  9 10  2  0
 10 11  1  0
 11 12  2  0
 12 13  1  0
 13 14  2  0
  7 15  1  0
 15 16  2  0
  3 17  1  0
 17 18  2  0
 18 19  1  0
 19 20  2  0
 20 21  1  0
 21 22  1  0
 22 23  1  0
 23 24  2  0
 23 25  2  0
 23 26  1  0
 26 27  2  0
 27 28  1  0
 28 29  2  0
 29 30  1  0
 29 31  1  0
 31 32  2  0
 21 33  2  0
 33 34  1  0
 16  5  1  0
 33 17  1  0
 14  9  1  0
 32 26  1  0
  1 35  1  0
  1 36  1  0
  1 37  1  0
  2 38  1  0
  2 39  1  0
  4 40  1  0
  4 41  1  0
  6 42  1  0
  8 43  1  0
  8 44  1  0
 10 45  1  0
 11 46  1  0
 12 47  1  0
 13 48  1  0
 14 49  1  0
 18 50  1  0
 19 51  1  0
 20 52  1  0
 22 53  1  0
 27 54  1  0
 28 55  1  0
 31 56  1  0
 32 57  1  0
 34 58  1  0
 34 59  1  0
 34 60  1  0
M  END
>  <UniqueID>  (1) 
1

>  <SMILES>  (1) 
CCN(Cc1cn(Cc2ccccc2)nn1)c1cccc(NS(=O)(=O)c2ccc(F)cc2)c1C

>  <Energy>  (1) 
103.64077843006268

>  <Genealogy>  (1) 
CCN(Cc1cn(Cc2ccccc2)nn1)c1cccc(NS(=O)(=O)c2ccc(F)cc2)c1C (3D coordinates assigned)
CCN(Cc1cn(Cc2ccccc2)nn1)c1cccc(NS(=O)(=O)c2ccc(F)cc2)c1C (optimized conformer: 103.64077843006268 kcal/mol)

>  <smiles>  (1) 
CCN(Cc1cn(Cc2ccccc2)nn1)c1cccc(NS(=O)(=O)c2ccc(F)cc2)c1C

>  <score_type>  (1) 
oracle

>  <origin>  (1) 
adg

>  <m_score__min__energy>  (1) 
-10.59

>  <m_primary>  (1) 
energy

$$$$
1:0
     RDKit          3D

 52 55  0  0  0  0  0  0  0  0999 V2000
   63.3880   32.4760   47.1190 C   0  0  0  0  0  0  0  0  0  0  0  0
   62.5810   33.7700   47.1390 C   0  0  0  0  0  0  0  0  0  0  0  0
   62.2330   34.1850   48.5760 C   0  0  0  0  0  0  0  0  0  0  0  0
   60.7190   34.2960   48.8000 C   0  0  0  0  0  0  0  0  0  0  0  0
   59.9560   34.2250   47.5070 C   0  0  0  0  0  0  0  0  0  0  0  0
   59.3140   33.0400   47.1160 C   0  0  0  0  0  0  0  0  0  0  0  0
   58.6330   32.9910   45.8890 C   0  0  0  0  0  0  0  0  0  0  0  0
   57.9560   31.7510   45.4640 C   0  0  0  0  0  0  0  0  0  0  0  0
   58.4510   30.5110   45.6530 N   0  0  0  0  0  0  0  0  0  0  0  0
   57.4840   29.7470   45.1030 C   0  0  0  0  0  0  0  0  0  0  0  0
   57.5350   28.2700   45.0460 C   0  0  0  0  0  0  0  0  0  0  0  0
   57.3760   27.5040   46.2110 C   0  0  0  0  0  0  0  0  0  0  0  0
   57.4210   26.1090   46.1540 C   0  0  0  0  0  0  0  0  0  0  0  0
   57.5940   25.4480   44.9260 C   0  0  0  0  0  0  0  0  0  0  0  0
   57.6750   23.9280   44.8700 C   0  0  0  0  0  0  0  0  0  0  0  0
   56.3890   23.1880   44.7740 N   0  0  0  0  0  0  0  0  0  0  0  0
   55.4570   23.4070   45.8890 C   0  0  0  0  0  0  0  0  0  0  0  0
   54.4210   24.0790   44.9940 C   0  0  0  0  0  0  0  0  0  0  0  0
   53.1120   23.3440   44.9010 C   0  0  0  0  0  0  0  0  0  0  0  0
   52.8860   22.3540   45.6450 O   0  0  0  0  0  0  0  0  0  0  0  0
   52.1850   23.6910   43.9250 O   0  0  0  0  0  0  0  0  0  0  0  0
   55.3980   23.7750   43.8620 C   0  0  0  0  0  0  0  0  0  0  0  0
   57.8020   26.2170   43.7690 C   0  0  0  0  0  0  0  0  0  0  0  0
   57.7570   27.6140   43.8240 C   0  0  0  0  0  0  0  0  0  0  0  0
   56.4670   30.4820   44.6130 N   0  0  0  0  0  0  0  0  0  0  0  0
   56.7960   31.7150   44.8550 O   0  0  0  0  0  0  0  0  0  0  0  0
   58.6120   34.1340   45.0760 C   0  0  0  0  0  0  0  0  0  0  0  0
   59.2680   35.2920   45.4970 C   0  0  0  0  0  0  0  0  0  0  0  0
   59.9220   35.3110   46.6880 N   0  0  0  0  0  0  0  0  0  0  0  0
   63.5892   32.1534   48.1512 H   0  0  0  0  0  0  0  0  0  0  0  0
   62.8163   31.6954   46.5957 H   0  0  0  0  0  0  0  0  0  0  0  0
   64.3405   32.6459   46.5957 H   0  0  0  0  0  0  0  0  0  0  0  0
   63.1723   34.5690   46.6680 H   0  0  0  0  0  0  0  0  0  0  0  0
   61.6438   33.6047   46.5874 H   0  0  0  0  0  0  0  0  0  0  0  0
   62.6390   33.4336   49.2693 H   0  0  0  0  0  0  0  0  0  0  0  0
   62.6732   35.1769   48.7556 H   0  0  0  0  0  0  0  0  0  0  0  0
   60.3941   33.4708   49.4508 H   0  0  0  0  0  0  0  0  0  0  0  0
   60.5131   35.2714   49.2650 H   0  0  0  0  0  0  0  0  0  0  0  0
   59.3441   32.1541   47.7674 H   0  0  0  0  0  0  0  0  0  0  0  0
   57.2147   28.0059   47.1764 H   0  0  0  0  0  0  0  0  0  0  0  0
   57.3201   25.5224   47.0790 H   0  0  0  0  0  0  0  0  0  0  0  0
   58.2790   23.6598   43.9906 H   0  0  0  0  0  0  0  0  0  0  0  0
   58.1062   23.6285   45.8366 H   0  0  0  0  0  0  0  0  0  0  0  0
   55.0985   22.4744   46.3491 H   0  0  0  0  0  0  0  0  0  0  0  0
   55.8140   23.9422   46.7812 H   0  0  0  0  0  0  0  0  0  0  0  0
   54.0205   25.0851   45.1873 H   0  0  0  0  0  0  0  0  0  0  0  0
   55.0044   23.0599   43.1247 H   0  0  0  0  0  0  0  0  0  0  0  0
   55.7093   24.5932   43.1959 H   0  0  0  0  0  0  0  0  0  0  0  0
   58.0022   25.7158   42.8105 H   0  0  0  0  0  0  0  0  0  0  0  0
   57.8963   28.2022   42.9050 H   0  0  0  0  0  0  0  0  0  0  0  0
   58.0817   34.1178   44.1124 H   0  0  0  0  0  0  0  0  0  0  0  0
   59.2555   36.1910   44.8633 H   0  0  0  0  0  0  0  0  0  0  0  0
  1  2  1  0
  2  3  1  0
  3  4  1  0
  4  5  1  0
  5  6  2  0
  6  7  1  0
  7  8  1  0
  8  9  2  0
  9 10  1  0
 10 11  1  0
 11 12  2  0
 12 13  1  0
 13 14  2  0
 14 15  1  0
 15 16  1  0
 16 17  1  0
 17 18  1  0
 18 19  1  0
 19 20  2  0
 19 21  1  0
 18 22  1  0
 14 23  1  0
 23 24  2  0
 10 25  2  0
 25 26  1  0
  7 27  2  0
 27 28  1  0
 28 29  2  0
 29  5  1  0
 26  8  1  0
 24 11  1  0
 22 16  1  0
  1 30  1  0
  1 31  1  0
  1 32  1  0
  2 33  1  0
  2 34  1  0
  3 35  1  0
  3 36  1  0
  4 37  1  0
  4 38  1  0
  6 39  1  0
 12 40  1  0
 13 41  1  0
 15 42  1  0
 15 43  1  0
 17 44  1  0
 17 45  1  0
 18 46  1  0
 22 47  1  0
 22 48  1  0
 23 49  1  0
 24 50  1  0
 27 51  1  0
 28 52  1  0
M  CHG  1  21  -1
M  END
>  <UniqueID>  (2) 
2

>  <SMILES>  (2) 
CCCCc1cc(-c2nc(-c3ccc(CN4CC(C(=O)[O-])C4)cc3)no2)ccn1

>  <Energy>  (2) 
159.60733837194442

>  <Genealogy>  (2) 
CCCCc1cc(-c2nc(-c3ccc(CN4CC(C(=O)[O-])C4)cc3)no2)ccn1 (protonated)
CCCCc1cc(-c2nc(-c3ccc(CN4CC(C(=O)[O-])C4)cc3)no2)ccn1 (3D coordinates assigned)
CCCCc1cc(-c2nc(-c3ccc(CN4CC(C(=O)[O-])C4)cc3)no2)ccn1 (nonaromatic ring conformer: 159.60733837194442 kcal/mol)

>  <smiles>  (2) 
CCCCc1cc(-c2nc(-c3ccc(CN4CC(C(=O)O)C4)cc3)no2)ccn1

>  <score_type>  (2) 
oracle

>  <origin>  (2) 
adg

>  <m_score__min__energy>  (2) 
-11.640000000000001

>  <m_primary>  (2) 
energy

$$$$
2:0
     RDKit          3D

 46 49  0  0  0  0  0  0  0  0999 V2000
   56.3210   30.2080   43.2640 C   0  0  0  0  0  0  0  0  0  0  0  0
   57.0270   30.7950   44.4440 C   0  0  0  0  0  0  0  0  0  0  0  0
   57.0570   32.1800   44.6340 C   0  0  0  0  0  0  0  0  0  0  0  0
   57.7290   32.6860   45.7500 C   0  0  0  0  0  0  0  0  0  0  0  0
   57.8140   34.1640   45.9920 C   0  0  0  0  0  0  0  0  0  0  0  0
   59.2790   34.8880   45.1700 S   0  0  0  0  0  0  0  0  0  0  0  0
   60.4500   34.2910   46.3890 C   0  0  0  0  0  0  0  0  0  0  0  0
   60.1120   34.2390   47.7380 C   0  0  0  0  0  0  0  0  0  0  0  0
   61.0210   33.7020   48.6450 C   0  0  0  0  0  0  0  0  0  0  0  0
   62.2630   33.2370   48.1880 C   0  0  0  0  0  0  0  0  0  0  0  0
   63.2230   32.6060   49.1280 C   0  0  0  0  0  0  0  0  0  0  0  0
   62.9610   31.5630   50.0160 C   0  0  0  0  0  0  0  0  0  0  0  0
   64.0640   31.2070   50.8020 C   0  0  0  0  0  0  0  0  0  0  0  0
   65.2010   31.9600   50.5490 C   0  0  0  0  0  0  0  0  0  0  0  0
   64.8300   33.0690   49.3440 S   0  0  0  0  0  0  0  0  0  0  0  0
   62.5520   33.3450   46.8550 N   0  0  0  0  0  0  0  0  0  0  0  0
   61.6700   33.8470   45.9900 N   0  0  0  0  0  0  0  0  0  0  0  0
   58.3510   31.8300   46.6030 N   0  0  0  0  0  0  0  0  0  0  0  0
   58.3270   30.4840   46.4040 C   0  0  0  0  0  0  0  0  0  0  0  0
   59.0080   29.6010   47.3190 N   0  0  0  0  0  0  0  0  0  0  0  0
   59.3070   30.0510   48.6850 C   0  0  0  0  0  0  0  0  0  0  0  0
   60.4870   29.2590   49.2570 C   0  0  0  0  0  0  0  0  0  0  0  0
   60.2710   27.8670   49.1230 O   0  0  0  0  0  0  0  0  0  0  0  0
   60.2500   27.5220   47.7520 C   0  0  0  0  0  0  0  0  0  0  0  0
   59.0500   28.1590   47.0500 C   0  0  0  0  0  0  0  0  0  0  0  0
   57.6620   29.9810   45.3280 N   0  0  0  0  0  0  0  0  0  0  0  0
   55.5185   29.5408   43.6115 H   0  0  0  0  0  0  0  0  0  0  0  0
   55.8883   31.0163   42.6562 H   0  0  0  0  0  0  0  0  0  0  0  0
   57.0368   29.6351   42.6562 H   0  0  0  0  0  0  0  0  0  0  0  0
   56.5627   32.8562   43.9210 H   0  0  0  0  0  0  0  0  0  0  0  0
   56.9070   34.6447   45.5966 H   0  0  0  0  0  0  0  0  0  0  0  0
   57.9037   34.3342   47.0750 H   0  0  0  0  0  0  0  0  0  0  0  0
   59.1386   34.6176   48.0832 H   0  0  0  0  0  0  0  0  0  0  0  0
   60.7670   33.6426   49.7136 H   0  0  0  0  0  0  0  0  0  0  0  0
   61.9818   31.0675   50.0917 H   0  0  0  0  0  0  0  0  0  0  0  0
   64.0316   30.4030   51.5521 H   0  0  0  0  0  0  0  0  0  0  0  0
   66.1743   31.8501   51.0496 H   0  0  0  0  0  0  0  0  0  0  0  0
   63.4600   33.0030   46.4760 H   0  0  0  0  0  0  0  0  0  0  0  0
   59.5620   31.1209   48.6674 H   0  0  0  0  0  0  0  0  0  0  0  0
   58.4232   29.8858   49.3187 H   0  0  0  0  0  0  0  0  0  0  0  0
   61.4033   29.5354   48.7149 H   0  0  0  0  0  0  0  0  0  0  0  0
   60.5870   29.4986   50.3259 H   0  0  0  0  0  0  0  0  0  0  0  0
   61.1762   27.8771   47.2765 H   0  0  0  0  0  0  0  0  0  0  0  0
   60.1698   26.4284   47.6648 H   0  0  0  0  0  0  0  0  0  0  0  0
   59.1348   27.9946   45.9657 H   0  0  0  0  0  0  0  0  0  0  0  0
   58.1269   27.6974   47.4305 H   0  0  0  0  0  0  0  0  0  0  0  0
  1  2  1  0
  2  3  2  0
  3  4  1  0
  4  5  1  0
  5  6  1  0
  6  7  1  0
  7  8  2  0
  8  9  1  0
  9 10  2  0
 10 11  1  0
 11 12  2  0
 12 13  1  0
 13 14  2  0
 14 15  1  0
 10 16  1  0
 16 17  2  0
  4 18  2  0
 18 19  1  0
 19 20  1  0
 20 21  1  0
 21 22  1  0
 22 23  1  0
 23 24  1  0
 24 25  1  0
 19 26  2  0
 26  2  1  0
 17  7  1  0
 25 20  1  0
 15 11  1  0
  1 27  1  0
  1 28  1  0
  1 29  1  0
  3 30  1  0
  5 31  1  0
  5 32  1  0
  8 33  1  0
  9 34  1  0
 12 35  1  0
 13 36  1  0
 14 37  1  0
 16 38  1  0
 21 39  1  0
 21 40  1  0
 22 41  1  0
 22 42  1  0
 24 43  1  0
 24 44  1  0
 25 45  1  0
 25 46  1  0
M  CHG  1  16   1
M  END
>  <UniqueID>  (3) 
3

>  <SMILES>  (3) 
Cc1cc(CSc2ccc(-c3cccs3)[nH+]n2)nc(N2CCOCC2)n1

>  <Energy>  (3) 
70.74378434315169

>  <Genealogy>  (3) 
Cc1cc(CSc2ccc(-c3cccs3)[nH+]n2)nc(N2CCOCC2)n1 (protonated)
Cc1cc(CSc2ccc(-c3cccs3)[nH+]n2)nc(N2CCOCC2)n1 (3D coordinates assigned)
Cc1cc(CSc2ccc(-c3cccs3)[nH+]n2)nc(N2CCOCC2)n1 (nonaromatic ring conformer: 70.74378434315169 kcal/mol)

>  <smiles>  (3) 
Cc1cc(CSc2ccc(-c3cccs3)nn2)nc(N2CCOCC2)n1

>  <score_type>  (3) 
oracle

>  <origin>  (3) 
adg

>  <m_score__min__energy>  (3) 
-6.9800000000000004

>  <m_primary>  (3) 
energy

$$$$
3:0
     RDKit          3D

 46 49  0  0  0  0  0  0  0  0999 V2000
   62.1550   31.5780   47.1550 C   0  0  0  0  0  0  0  0  0  0  0  0
   60.9200   30.8940   47.6960 C   0  0  0  0  0  0  0  0  0  0  0  0
   60.4090   31.2430   48.9670 C   0  0  0  0  0  0  0  0  0  0  0  0
   61.0710   32.2190   49.7810 N   0  0  0  0  0  0  0  0  0  0  0  0
   60.5690   33.5330   50.0690 C   0  0  0  0  0  0  0  0  0  0  0  0
   60.2730   33.8170   51.2590 O   0  0  0  0  0  0  0  0  0  0  0  0
   60.3620   34.5780   48.9980 C   0  0  0  0  0  0  0  0  0  0  0  0
   59.6420   34.0290   47.7900 C   0  0  0  0  0  0  0  0  0  0  0  0
   58.4230   33.3480   47.9360 C   0  0  0  0  0  0  0  0  0  0  0  0
   57.8190   32.7380   46.8340 C   0  0  0  0  0  0  0  0  0  0  0  0
   58.4170   32.8050   45.5630 C   0  0  0  0  0  0  0  0  0  0  0  0
   57.8160   32.0950   44.4060 C   0  0  0  0  0  0  0  0  0  0  0  0
   57.0320   30.9410   44.6050 C   0  0  0  0  0  0  0  0  0  0  0  0
   56.4510   30.2830   43.5180 C   0  0  0  0  0  0  0  0  0  0  0  0
   56.6470   30.7630   42.2210 C   0  0  0  0  0  0  0  0  0  0  0  0
   57.4260   31.9040   42.0090 C   0  0  0  0  0  0  0  0  0  0  0  0
   58.0070   32.5680   43.0940 C   0  0  0  0  0  0  0  0  0  0  0  0
   59.6090   33.5340   45.4120 C   0  0  0  0  0  0  0  0  0  0  0  0
   60.2100   34.1470   46.5130 C   0  0  0  0  0  0  0  0  0  0  0  0
   59.2560   30.6080   49.4450 C   0  0  0  0  0  0  0  0  0  0  0  0
   58.6580   29.6310   48.7210 N   0  0  0  0  0  0  0  0  0  0  0  0
   59.1370   29.2360   47.5150 C   0  0  0  0  0  0  0  0  0  0  0  0
   58.4930   28.2030   46.8240 C   0  0  0  0  0  0  0  0  0  0  0  0
   58.9780   27.7770   45.5870 C   0  0  0  0  0  0  0  0  0  0  0  0
   60.1070   28.3800   45.0310 C   0  0  0  0  0  0  0  0  0  0  0  0
   60.7600   29.4130   45.7100 C   0  0  0  0  0  0  0  0  0  0  0  0
   60.2840   29.8580   46.9630 C   0  0  0  0  0  0  0  0  0  0  0  0
   62.7792   31.9237   47.9922 H   0  0  0  0  0  0  0  0  0  0  0  0
   62.7273   30.8683   46.5396 H   0  0  0  0  0  0  0  0  0  0  0  0
   61.8570   32.4397   46.5396 H   0  0  0  0  0  0  0  0  0  0  0  0
   59.7678   35.4024   49.4190 H   0  0  0  0  0  0  0  0  0  0  0  0
   61.3536   34.9227   48.6695 H   0  0  0  0  0  0  0  0  0  0  0  0
   57.9410   33.2945   48.9233 H   0  0  0  0  0  0  0  0  0  0  0  0
   56.8676   32.2007   46.9615 H   0  0  0  0  0  0  0  0  0  0  0  0
   56.8764   30.5555   45.6234 H   0  0  0  0  0  0  0  0  0  0  0  0
   55.8379   29.3849   43.6840 H   0  0  0  0  0  0  0  0  0  0  0  0
   56.1885   30.2433   41.3668 H   0  0  0  0  0  0  0  0  0  0  0  0
   57.5823   32.2802   40.9872 H   0  0  0  0  0  0  0  0  0  0  0  0
   58.6177   33.4664   42.9210 H   0  0  0  0  0  0  0  0  0  0  0  0
   60.0722   33.6223   44.4182 H   0  0  0  0  0  0  0  0  0  0  0  0
   61.1352   34.7264   46.3781 H   0  0  0  0  0  0  0  0  0  0  0  0
   58.8324   30.9046   50.4159 H   0  0  0  0  0  0  0  0  0  0  0  0
   57.6018   27.7256   47.2575 H   0  0  0  0  0  0  0  0  0  0  0  0
   58.4691   26.9638   45.0487 H   0  0  0  0  0  0  0  0  0  0  0  0
   60.4845   28.0413   44.0549 H   0  0  0  0  0  0  0  0  0  0  0  0
   61.6501   29.8821   45.2655 H   0  0  0  0  0  0  0  0  0  0  0  0
  1  2  1  0
  2  3  2  0
  3  4  1  0
  4  5  1  0
  5  6  2  0
  5  7  1  0
  7  8  1  0
  8  9  2  0
  9 10  1  0
 10 11  2  0
 11 12  1  0
 12 13  2  0
 13 14  1  0
 14 15  2  0
 15 16  1  0
 16 17  2  0
 11 18  1  0
 18 19  2  0
  3 20  1  0
 20 21  2  0
 21 22  1  0
 22 23  2  0
 23 24  1  0
 24 25  2  0
 25 26  1  0
 26 27  2  0
 27  2  1  0
 19  8  1  0
 27 22  1  0
 17 12  1  0
  1 28  1  0
  1 29  1  0
  1 30  1  0
  7 31  1  0
  7 32  1  0
  9 33  1  0
 10 34  1  0
 13 35  1  0
 14 36  1  0
 15 37  1  0
 16 38  1  0
 17 39  1  0
 18 40  1  0
 19 41  1  0
 20 42  1  0
 23 43  1  0
 24 44  1  0
 25 45  1  0
 26 46  1  0
M  CHG  1   4  -1
M  END
>  <UniqueID>  (4) 
4

>  <SMILES>  (4) 
Cc1c([N-]C(=O)Cc2ccc(-c3ccccc3)cc2)cnc2ccccc12

>  <Energy>  (4) 
62.40580247790411

>  <Genealogy>  (4) 
Cc1c([N-]C(=O)Cc2ccc(-c3ccccc3)cc2)cnc2ccccc12 (protonated)
Cc1c([N-]C(=O)Cc2ccc(-c3ccccc3)cc2)cnc2ccccc12 (3D coordinates assigned)
Cc1c([N-]C(=O)Cc2ccc(-c3ccccc3)cc2)cnc2ccccc12 (optimized conformer: 62.40580247790411 kcal/mol)

>  <smiles>  (4) 
Cc1c(NC(=O)Cc2ccc(-c3ccccc3)cc2)cnc2ccccc12

>  <score_type>  (4) 
oracle

>  <origin>  (4) 
adg

>  <m_score__min__energy>  (4) 
-9.9700000000000006

>  <m_primary>  (4) 
energy

$$$$
4:0
     RDKit          3D

 45 47  0  0  0  0  0  0  0  0999 V2000
   58.0020   21.5750   44.1090 C   0  0  0  0  0  0  0  0  0  0  0  0
   56.4900   22.5010   43.9900 S   0  0  0  0  0  0  0  0  0  0  0  0
   55.5010   21.9820   44.9960 O   0  0  0  0  0  0  0  0  0  0  0  0
   55.9070   22.3390   42.6130 O   0  0  0  0  0  0  0  0  0  0  0  0
   56.8190   24.2020   44.3010 C   0  0  0  0  0  0  0  0  0  0  0  0
   56.4340   24.7840   45.5140 C   0  0  0  0  0  0  0  0  0  0  0  0
   56.7080   26.1310   45.7690 C   0  0  0  0  0  0  0  0  0  0  0  0
   57.3790   26.9160   44.8140 C   0  0  0  0  0  0  0  0  0  0  0  0
   57.6720   28.3470   45.0830 C   0  0  0  0  0  0  0  0  0  0  0  0
   57.0360   29.3580   44.3430 C   0  0  0  0  0  0  0  0  0  0  0  0
   57.3110   30.7050   44.5970 C   0  0  0  0  0  0  0  0  0  0  0  0
   58.2300   31.0720   45.5950 C   0  0  0  0  0  0  0  0  0  0  0  0
   58.5310   32.4970   45.8770 C   0  0  0  0  0  0  0  0  0  0  0  0
   57.3020   33.5840   46.0150 S   0  0  0  0  0  0  0  0  0  0  0  0
   59.8990   32.9200   46.0300 N   0  0  0  0  0  0  0  0  0  0  0  0
   60.2980   34.1630   46.6900 C   0  0  0  0  0  0  0  0  0  0  0  0
   61.5170   33.9340   47.5430 C   0  0  0  0  0  0  0  0  0  0  0  0
   62.6990   33.4460   46.9610 C   0  0  0  0  0  0  0  0  0  0  0  0
   63.8320   33.2200   47.7510 C   0  0  0  0  0  0  0  0  0  0  0  0
   63.7920   33.4820   49.1230 C   0  0  0  0  0  0  0  0  0  0  0  0
   62.6210   33.9700   49.7090 C   0  0  0  0  0  0  0  0  0  0  0  0
   61.4860   34.1970   48.9240 C   0  0  0  0  0  0  0  0  0  0  0  0
   58.8640   30.0600   46.3360 C   0  0  0  0  0  0  0  0  0  0  0  0
   58.5890   28.7140   46.0830 C   0  0  0  0  0  0  0  0  0  0  0  0
   57.7700   26.3210   43.6000 C   0  0  0  0  0  0  0  0  0  0  0  0
   57.4950   24.9750   43.3480 C   0  0  0  0  0  0  0  0  0  0  0  0
   58.2548   21.4202   45.1683 H   0  0  0  0  0  0  0  0  0  0  0  0
   57.8745   20.5999   43.6162 H   0  0  0  0  0  0  0  0  0  0  0  0
   58.8127   22.1317   43.6162 H   0  0  0  0  0  0  0  0  0  0  0  0
   55.9132   24.1787   46.2706 H   0  0  0  0  0  0  0  0  0  0  0  0
   56.3965   26.5803   46.7235 H   0  0  0  0  0  0  0  0  0  0  0  0
   56.3155   29.0873   43.5571 H   0  0  0  0  0  0  0  0  0  0  0  0
   56.8034   31.4848   44.0103 H   0  0  0  0  0  0  0  0  0  0  0  0
   60.6600   32.2950   45.6830 H   0  0  0  0  0  0  0  0  0  0  0  0
   60.5264   34.9218   45.9270 H   0  0  0  0  0  0  0  0  0  0  0  0
   59.4731   34.5087   47.3304 H   0  0  0  0  0  0  0  0  0  0  0  0
   62.7341   33.2409   45.8809 H   0  0  0  0  0  0  0  0  0  0  0  0
   64.7547   32.8358   47.2915 H   0  0  0  0  0  0  0  0  0  0  0  0
   64.6833   33.3039   49.7425 H   0  0  0  0  0  0  0  0  0  0  0  0
   62.5919   34.1759   50.7892 H   0  0  0  0  0  0  0  0  0  0  0  0
   60.5663   34.5824   49.3883 H   0  0  0  0  0  0  0  0  0  0  0  0
   59.5837   30.3304   47.1227 H   0  0  0  0  0  0  0  0  0  0  0  0
   59.0946   27.9343   46.6716 H   0  0  0  0  0  0  0  0  0  0  0  0
   58.2966   26.9210   42.8433 H   0  0  0  0  0  0  0  0  0  0  0  0
   57.8105   24.5201   42.3975 H   0  0  0  0  0  0  0  0  0  0  0  0
  1  2  1  0
  2  3  2  0
  2  4  2  0
  2  5  1  0
  5  6  2  0
  6  7  1  0
  7  8  2  0
  8  9  1  0
  9 10  2  0
 10 11  1  0
 11 12  2  0
 12 13  1  0
 13 14  2  0
 13 15  1  0
 15 16  1  0
 16 17  1  0
 17 18  2  0
 18 19  1  0
 19 20  2  0
 20 21  1  0
 21 22  2  0
 12 23  1  0
 23 24  2  0
  8 25  1  0
 25 26  2  0
 26  5  1  0
 24  9  1  0
 22 17  1  0
  1 27  1  0
  1 28  1  0
  1 29  1  0
  6 30  1  0
  7 31  1  0
 10 32  1  0
 11 33  1  0
 15 34  1  0
 16 35  1  0
 16 36  1  0
 18 37  1  0
 19 38  1  0
 20 39  1  0
 21 40  1  0
 22 41  1  0
 23 42  1  0
 24 43  1  0
 25 44  1  0
 26 45  1  0
M  END
>  <UniqueID>  (5) 
5

>  <SMILES>  (5) 
CS(=O)(=O)c1ccc(-c2ccc(C(=S)NCc3ccccc3)cc2)cc1

>  <Energy>  (5) 
52.41601983580568

>  <Genealogy>  (5) 
CS(=O)(=O)c1ccc(-c2ccc(C(=S)NCc3ccccc3)cc2)cc1 (3D coordinates assigned)
CS(=O)(=O)c1ccc(-c2ccc(C(=S)NCc3ccccc3)cc2)cc1 (optimized conformer: 52.41601983580568 kcal/mol)

>  <smiles>  (5) 
CS(=O)(=O)c1ccc(-c2ccc(C(=S)NCc3ccccc3)cc2)cc1

>  <score_type>  (5) 
oracle

>  <origin>  (5) 
adg

>  <m_score__min__energy>  (5) 
-9.0199999999999996

>  <m_primary>  (5) 
energy

$$$$
5:0
     RDKit          3D

 33 34  0  0  0  0  0  0  0  0999 V2000
   55.1380   24.4770   45.5270 C   0  0  0  0  0  0  0  0  0  0  0  0
   55.5090   25.6840   46.1850 O   0  0  0  0  0  0  0  0  0  0  0  0
   56.7970   26.2390   46.1580 C   0  0  0  0  0  0  0  0  0  0  0  0
   57.8910   25.3860   46.3300 C   0  0  0  0  0  0  0  0  0  0  0  0
   59.1910   25.8940   46.3320 C   0  0  0  0  0  0  0  0  0  0  0  0
   59.4100   27.2600   46.1530 C   0  0  0  0  0  0  0  0  0  0  0  0
   58.3310   28.1330   45.9520 C   0  0  0  0  0  0  0  0  0  0  0  0
   58.5830   29.5410   45.8080 N   0  0  0  0  0  0  0  0  0  0  0  0
   58.8890   30.4260   46.8970 C   0  0  0  0  0  0  0  0  0  0  0  0
   58.6400   30.0920   48.0870 O   0  0  0  0  0  0  0  0  0  0  0  0
   59.5070   31.7640   46.6250 C   0  0  0  0  0  0  0  0  0  0  0  0
   58.2270   33.0070   46.2340 S   0  0  0  0  0  0  0  0  0  0  0  0
   57.6400   32.1720   44.7590 C   0  0  0  0  0  0  0  0  0  0  0  0
   58.1320   32.5390   43.5010 C   0  0  0  0  0  0  0  0  0  0  0  0
   57.6840   31.8580   42.3680 C   0  0  0  0  0  0  0  0  0  0  0  0
   56.7450   30.8330   42.5000 C   0  0  0  0  0  0  0  0  0  0  0  0
   56.2640   30.5070   43.7720 C   0  0  0  0  0  0  0  0  0  0  0  0
   56.7180   31.1780   44.8650 N   0  0  0  0  0  0  0  0  0  0  0  0
   57.0200   27.6170   45.9700 C   0  0  0  0  0  0  0  0  0  0  0  0
   54.9017   23.7081   46.2773 H   0  0  0  0  0  0  0  0  0  0  0  0
   54.2544   24.6591   44.8977 H   0  0  0  0  0  0  0  0  0  0  0  0
   55.9714   24.1314   44.8977 H   0  0  0  0  0  0  0  0  0  0  0  0
   57.7262   24.3068   46.4647 H   0  0  0  0  0  0  0  0  0  0  0  0
   60.0450   25.2155   46.4751 H   0  0  0  0  0  0  0  0  0  0  0  0
   60.4364   27.6552   46.1696 H   0  0  0  0  0  0  0  0  0  0  0  0
   58.5070   29.9550   44.8510 H   0  0  0  0  0  0  0  0  0  0  0  0
   60.0656   32.0901   47.5147 H   0  0  0  0  0  0  0  0  0  0  0  0
   60.1809   31.6703   45.7607 H   0  0  0  0  0  0  0  0  0  0  0  0
   58.8636   33.3550   43.4064 H   0  0  0  0  0  0  0  0  0  0  0  0
   58.0696   32.1280   41.3738 H   0  0  0  0  0  0  0  0  0  0  0  0
   56.3877   30.2882   41.6137 H   0  0  0  0  0  0  0  0  0  0  0  0
   55.5178   29.7073   43.8890 H   0  0  0  0  0  0  0  0  0  0  0  0
   56.1644   28.2953   45.8363 H   0  0  0  0  0  0  0  0  0  0  0  0
  1  2  1  0
  2  3  1  0
  3  4  2  0
  4  5  1  0
  5  6  2  0
  6  7  1  0
  7  8  1  0
  8  9  1  0
  9 10  2  0
  9 11  1  0
 11 12  1  0
 12 13  1  0
 13 14  2  0
 14 15  1  0
 15 16  2  0
 16 17  1  0
 17 18  2  0
  7 19  2  0
 19  3  1  0
 18 13  1  0
  1 20  1  0
  1 21  1  0
  1 22  1  0
  4 23  1  0
  5 24  1  0
  6 25  1  0
  8 26  1  0
 11 27  1  0
 11 28  1  0
 14 29  1  0
 15 30  1  0
 16 31  1  0
 17 32  1  0
 19 33  1  0
M  END
>  <UniqueID>  (6) 
6

>  <SMILES>  (6) 
COc1cccc(NC(=O)CSc2ccccn2)c1

>  <Energy>  (6) 
30.097089333733077

>  <Genealogy>  (6) 
COc1cccc(NC(=O)CSc2ccccn2)c1 (3D coordinates assigned)
COc1cccc(NC(=O)CSc2ccccn2)c1 (optimized conformer: 30.097089333733077 kcal/mol)

>  <smiles>  (6) 
COc1cccc(NC(=O)CSc2ccccn2)c1

>  <score_type>  (6) 
oracle

>  <origin>  (6) 
adg

>  <m_score__min__energy>  (6) 
-7.5700000000000003

>  <m_primary>  (6) 
energy

$$$$
6:0
     RDKit          3D

 43 45  0  0  0  0  0  0  0  0999 V2000
   57.7810   31.9900   42.3330 C   0  0  0  0  0  0  0  0  0  0  0  0
   57.0820   31.0270   43.2730 C   0  0  0  0  0  0  0  0  0  0  0  0
   57.6070   31.2310   44.5810 N   0  0  0  0  0  0  0  0  0  0  0  0
   56.9720   32.3410   45.2060 C   0  0  0  0  0  0  0  0  0  0  0  0
   57.9490   33.3730   45.6860 C   0  0  0  0  0  0  0  0  0  0  0  0
   58.0800   33.4900   47.0540 C   0  0  0  0  0  0  0  0  0  0  0  0
   58.9690   34.4310   47.5580 C   0  0  0  0  0  0  0  0  0  0  0  0
   59.6950   35.2220   46.6970 C   0  0  0  0  0  0  0  0  0  0  0  0
   59.5350   35.0730   45.3350 C   0  0  0  0  0  0  0  0  0  0  0  0
   58.6660   34.1540   44.7930 C   0  0  0  0  0  0  0  0  0  0  0  0
   57.7780   30.0720   45.3890 C   0  0  0  0  0  0  0  0  0  0  0  0
   58.8980   30.2000   46.3320 C   0  0  0  0  0  0  0  0  0  0  0  0
   59.2260   29.4220   47.4300 C   0  0  0  0  0  0  0  0  0  0  0  0
   60.3530   29.9170   48.0130 N   0  0  0  0  0  0  0  0  0  0  0  0
   60.7270   30.9820   47.2970 C   0  0  0  0  0  0  0  0  0  0  0  0
   61.8850   31.8420   47.5420 C   0  0  0  0  0  0  0  0  0  0  0  0
   62.1260   32.9500   46.7520 C   0  0  0  0  0  0  0  0  0  0  0  0
   63.2200   33.7410   47.0020 C   0  0  0  0  0  0  0  0  0  0  0  0
   64.1080   33.4650   48.0350 C   0  0  0  0  0  0  0  0  0  0  0  0
   63.8690   32.3690   48.8170 C   0  0  0  0  0  0  0  0  0  0  0  0
   62.7650   31.5840   48.5530 C   0  0  0  0  0  0  0  0  0  0  0  0
   59.8560   31.1510   46.2910 N   0  0  0  0  0  0  0  0  0  0  0  0
   58.3276   32.7431   42.9195 H   0  0  0  0  0  0  0  0  0  0  0  0
   58.4880   31.4351   41.6988 H   0  0  0  0  0  0  0  0  0  0  0  0
   57.0343   32.4903   41.6988 H   0  0  0  0  0  0  0  0  0  0  0  0
   55.9995   31.2222   43.2705 H   0  0  0  0  0  0  0  0  0  0  0  0
   57.2499   29.9886   42.9511 H   0  0  0  0  0  0  0  0  0  0  0  0
   56.2916   32.8112   44.4807 H   0  0  0  0  0  0  0  0  0  0  0  0
   56.4309   31.9618   46.0855 H   0  0  0  0  0  0  0  0  0  0  0  0
   57.4933   32.8520   47.7313 H   0  0  0  0  0  0  0  0  0  0  0  0
   59.0927   34.5439   48.6452 H   0  0  0  0  0  0  0  0  0  0  0  0
   60.3990   35.9689   47.0927 H   0  0  0  0  0  0  0  0  0  0  0  0
   60.1226   35.7111   44.6586 H   0  0  0  0  0  0  0  0  0  0  0  0
   58.5462   34.0445   43.7050 H   0  0  0  0  0  0  0  0  0  0  0  0
   56.8538   29.9018   45.9608 H   0  0  0  0  0  0  0  0  0  0  0  0
   58.0018   29.2290   44.7188 H   0  0  0  0  0  0  0  0  0  0  0  0
   58.6643   28.5421   47.7768 H   0  0  0  0  0  0  0  0  0  0  0  0
   60.8440   29.5520   48.8520 H   0  0  0  0  0  0  0  0  0  0  0  0
   61.4435   33.1974   45.9255 H   0  0  0  0  0  0  0  0  0  0  0  0
   63.3992   34.6200   46.3653 H   0  0  0  0  0  0  0  0  0  0  0  0
   64.9794   34.1107   48.2185 H   0  0  0  0  0  0  0  0  0  0  0  0
   64.5474   32.1164   49.6452 H   0  0  0  0  0  0  0  0  0  0  0  0
   62.5850   30.7054   49.1900 H   0  0  0  0  0  0  0  0  0  0  0  0
  1  2  1  0
  2  3  1  0
  3  4  1  0
  4  5  1  0
  5  6  2  0
  6  7  1  0
  7  8  2  0
  8  9  1  0
  9 10  2  0
  3 11  1  0
 11 12  1  0
 12 13  2  0
 13 14  1  0
 14 15  1  0
 15 16  1  0
 16 17  2  0
 17 18  1  0
 18 19  2  0
 19 20  1  0
 20 21  2  0
 15 22  2  0
 10  5  1  0
 22 12  1  0
 21 16  1  0
  1 23  1  0
  1 24  1  0
  1 25  1  0
  2 26  1  0
  2 27  1  0
  4 28  1  0
  4 29  1  0
  6 30  1  0
  7 31  1  0
  8 32  1  0
  9 33  1  0
 10 34  1  0
 11 35  1  0
 11 36  1  0
 13 37  1  0
 14 38  1  0
 17 39  1  0
 18 40  1  0
 19 41  1  0
 20 42  1  0
 21 43  1  0
M  END
>  <smiles>  (7) 
CCN(Cc1ccccc1)Cc1c[nH]c(-c2ccccc2)n1

>  <score_type>  (7) 
oracle

>  <origin>  (7) 
adg

>  <m_score__min__energy>  (7) 
-7.2599999999999998

>  <m_primary>  (7) 
energy

$$$$
7:0
     RDKit          3D

 66 68  0  0  0  0  0  0  0  0999 V2000
   57.2480   19.8740   46.3650 C   0  0  0  0  0  0  0  0  0  0  0  0
   56.6280   21.1060   47.0070 C   0  0  0  0  0  0  0  0  0  0  0  0
   57.5010   22.2210   46.8330 O   0  0  0  0  0  0  0  0  0  0  0  0
   57.0740   23.5320   46.5710 C   0  0  0  0  0  0  0  0  0  0  0  0
   57.3920   24.6050   47.4250 C   0  0  0  0  0  0  0  0  0  0  0  0
   56.9760   25.9000   47.1120 C   0  0  0  0  0  0  0  0  0  0  0  0
   56.2670   26.1490   45.9350 C   0  0  0  0  0  0  0  0  0  0  0  0
   55.8720   27.4930   45.6250 N   0  0  0  0  0  0  0  0  0  0  0  0
   56.7050   28.4910   45.0150 C   0  0  0  0  0  0  0  0  0  0  0  0
   56.5240   29.6990   45.3190 O   0  0  0  0  0  0  0  0  0  0  0  0
   57.8690   28.1210   44.1310 C   0  0  0  0  0  0  0  0  0  0  0  0
   59.0330   27.4880   44.9110 C   0  0  0  0  0  0  0  0  0  0  0  0
   59.5680   28.4090   45.9790 C   0  0  0  0  0  0  0  0  0  0  0  0
   59.6690   27.9780   47.3110 C   0  0  0  0  0  0  0  0  0  0  0  0
   60.1960   28.8250   48.2900 C   0  0  0  0  0  0  0  0  0  0  0  0
   60.6350   30.1110   47.9490 C   0  0  0  0  0  0  0  0  0  0  0  0
   61.3420   31.1690   49.1700 S   0  0  0  0  0  0  0  0  0  0  0  0
   62.3000   30.3810   50.0180 O   0  0  0  0  0  0  0  0  0  0  0  0
   62.1080   32.2730   48.4950 O   0  0  0  0  0  0  0  0  0  0  0  0
   60.1110   31.8390   50.1980 N   0  0  0  0  0  0  0  0  0  0  0  0
   59.4900   33.0060   49.5640 C   0  0  0  0  0  0  0  0  0  0  0  0
   58.4070   32.5460   48.5880 C   0  0  0  0  0  0  0  0  0  0  0  0
   58.5360   33.2560   47.2650 C   0  0  0  0  0  0  0  0  0  0  0  0
   59.4290   34.3290   47.1180 C   0  0  0  0  0  0  0  0  0  0  0  0
   59.5390   34.9900   45.8910 C   0  0  0  0  0  0  0  0  0  0  0  0
   58.7480   34.5960   44.8080 C   0  0  0  0  0  0  0  0  0  0  0  0
   57.8430   33.5400   44.9520 C   0  0  0  0  0  0  0  0  0  0  0  0
   57.7350   32.8720   46.1760 C   0  0  0  0  0  0  0  0  0  0  0  0
   60.5340   30.5450   46.6210 C   0  0  0  0  0  0  0  0  0  0  0  0
   60.0000   29.7030   45.6430 C   0  0  0  0  0  0  0  0  0  0  0  0
   55.9100   25.0790   45.1020 C   0  0  0  0  0  0  0  0  0  0  0  0
   56.3060   23.7650   45.4180 C   0  0  0  0  0  0  0  0  0  0  0  0
   55.9690   22.6630   44.6110 O   0  0  0  0  0  0  0  0  0  0  0  0
   56.3130   22.5010   43.2330 C   0  0  0  0  0  0  0  0  0  0  0  0
   57.3150   21.3650   43.0450 C   0  0  0  0  0  0  0  0  0  0  0  0
   57.5942   19.1861   47.1505 H   0  0  0  0  0  0  0  0  0  0  0  0
   56.4968   19.3688   45.7402 H   0  0  0  0  0  0  0  0  0  0  0  0
   58.1013   20.1763   45.7402 H   0  0  0  0  0  0  0  0  0  0  0  0
   55.6598   21.3201   46.5308 H   0  0  0  0  0  0  0  0  0  0  0  0
   56.4749   20.9232   48.0808 H   0  0  0  0  0  0  0  0  0  0  0  0
   57.9706   24.4221   48.3425 H   0  0  0  0  0  0  0  0  0  0  0  0
   57.2080   26.7293   47.7964 H   0  0  0  0  0  0  0  0  0  0  0  0
   57.5210   27.4022   43.3745 H   0  0  0  0  0  0  0  0  0  0  0  0
   58.2436   29.0479   43.6721 H   0  0  0  0  0  0  0  0  0  0  0  0
   58.6789   26.5614   45.3865 H   0  0  0  0  0  0  0  0  0  0  0  0
   59.8471   27.2857   44.1994 H   0  0  0  0  0  0  0  0  0  0  0  0
   59.3315   26.9678   47.5860 H   0  0  0  0  0  0  0  0  0  0  0  0
   60.2663   28.4805   49.3323 H   0  0  0  0  0  0  0  0  0  0  0  0
   59.3760   31.1020   50.3190 H   0  0  0  0  0  0  0  0  0  0  0  0
   59.0382   33.6451   50.3370 H   0  0  0  0  0  0  0  0  0  0  0  0
   60.2564   33.5745   49.0167 H   0  0  0  0  0  0  0  0  0  0  0  0
   58.5054   31.4625   48.4259 H   0  0  0  0  0  0  0  0  0  0  0  0
   57.4231   32.7832   49.0188 H   0  0  0  0  0  0  0  0  0  0  0  0
   60.0443   34.6509   47.9711 H   0  0  0  0  0  0  0  0  0  0  0  0
   60.2496   35.8220   45.7776 H   0  0  0  0  0  0  0  0  0  0  0  0
   58.8375   35.1164   43.8430 H   0  0  0  0  0  0  0  0  0  0  0  0
   57.2154   33.2343   44.1019 H   0  0  0  0  0  0  0  0  0  0  0  0
   57.0205   32.0430   46.2867 H   0  0  0  0  0  0  0  0  0  0  0  0
   60.8769   31.5537   46.3471 H   0  0  0  0  0  0  0  0  0  0  0  0
   59.9172   30.0548   44.6041 H   0  0  0  0  0  0  0  0  0  0  0  0
   55.3164   25.2673   44.1953 H   0  0  0  0  0  0  0  0  0  0  0  0
   55.4019   22.2745   42.6598 H   0  0  0  0  0  0  0  0  0  0  0  0
   56.7731   23.4344   42.8764 H   0  0  0  0  0  0  0  0  0  0  0  0
   57.6402   20.9963   44.0290 H   0  0  0  0  0  0  0  0  0  0  0  0
   56.8399   20.5459   42.4852 H   0  0  0  0  0  0  0  0  0  0  0  0
   58.1870   21.7341   42.4852 H   0  0  0  0  0  0  0  0  0  0  0  0
  1  2  1  0
  2  3  1  0
  3  4  1  0
  4  5  2  0
  5  6  1  0
  6  7  2  0
  7  8  1  0
  8  9  1  0
  9 10  2  0
  9 11  1  0
 11 12  1  0
 12 13  1  0
 13 14  2  0
 14 15  1  0
 15 16  2  0
 16 17  1  0
 17 18  2  0
 17 19  2  0
 17 20  1  0
 20 21  1  0
 21 22  1  0
 22 23  1  0
 23 24  2  0
 24 25  1  0
 25 26  2  0
 26 27  1  0
 27 28  2  0
 16 29  1  0
 29 30  2  0
  7 31  1  0
 31 32  2  0
 32 33  1  0
 33 34  1  0
 34 35  1  0
 32  4  1  0
 30 13  1  0
 28 23  1  0
  1 36  1  0
  1 37  1  0
  1 38  1  0
  2 39  1  0
  2 40  1  0
  5 41  1  0
  6 42  1  0
 11 43  1  0
 11 44  1  0
 12 45  1  0
 12 46  1  0
 14 47  1  0
 15 48  1  0
 20 49  1  0
 21 50  1  0
 21 51  1  0
 22 52  1  0
 22 53  1  0
 24 54  1  0
 25 55  1  0
 26 56  1  0
 27 57  1  0
 28 58  1  0
 29 59  1  0
 30 60  1  0
 31 61  1  0
 34 62  1  0
 34 63  1  0
 35 64  1  0
 35 65  1  0
 35 66  1  0
M  CHG  1   8  -1
M  END
>  <UniqueID>  (8) 
7

>  <SMILES>  (8) 
CCOc1ccc([N-]C(=O)CCc2ccc(S(=O)(=O)NCCc3ccccc3)cc2)cc1OCC

>  <Energy>  (8) 
60.317150592560175

>  <Genealogy>  (8) 
CCOc1ccc([N-]C(=O)CCc2ccc(S(=O)(=O)NCCc3ccccc3)cc2)cc1OCC (protonated)
CCOc1ccc([N-]C(=O)CCc2ccc(S(=O)(=O)NCCc3ccccc3)cc2)cc1OCC (3D coordinates assigned)
CCOc1ccc([N-]C(=O)CCc2ccc(S(=O)(=O)NCCc3ccccc3)cc2)cc1OCC (optimized conformer: 60.317150592560175 kcal/mol)

>  <smiles>  (8) 
CCOc1ccc(NC(=O)CCc2ccc(S(=O)(=O)NCCc3ccccc3)cc2)cc1OCC

>  <score_type>  (8) 
oracle

>  <origin>  (8) 
adg

>  <m_score__min__energy>  (8) 
-10.800000000000001

>  <m_primary>  (8) 
energy

$$$$
8:0
     RDKit          3D

 40 42  0  0  0  0  0  0  0  0999 V2000
   54.7360   29.8780   45.1970 H   0  0  0  0  0  0  0  0  0  0  0  0
   55.7140   29.7090   44.8740 N   0  0  0  0  0  0  0  0  0  0  0  0
   56.4720   28.7520   45.3140 C   0  0  0  0  0  0  0  0  0  0  0  0
   55.8970   27.5590   45.6240 N   0  0  0  0  0  0  0  0  0  0  0  0
   56.6230   26.4900   46.0430 C   0  0  0  0  0  0  0  0  0  0  0  0
   56.1168   25.5462   46.2940 H   0  0  0  0  0  0  0  0  0  0  0  0
   58.0080   26.5880   46.1550 C   0  0  0  0  0  0  0  0  0  0  0  0
   58.6018   25.7212   46.4807 H   0  0  0  0  0  0  0  0  0  0  0  0
   58.6340   27.7960   45.8500 C   0  0  0  0  0  0  0  0  0  0  0  0
   59.7280   27.8801   45.9284 H   0  0  0  0  0  0  0  0  0  0  0  0
   57.8770   28.9040   45.4440 C   0  0  0  0  0  0  0  0  0  0  0  0
   58.5750   30.1800   45.1750 C   0  0  0  0  0  0  0  0  0  0  0  0
   59.2590   30.2810   44.1200 O   0  0  0  0  0  0  0  0  0  0  0  0
   58.5150   31.2910   46.0950 N   0  0  0  0  0  0  0  0  0  0  0  0
   58.1790   31.0920   47.5130 C   0  0  0  0  0  0  0  0  0  0  0  0
   57.1637   31.4725   47.6983 H   0  0  0  0  0  0  0  0  0  0  0  0
   58.2364   30.0167   47.7376 H   0  0  0  0  0  0  0  0  0  0  0  0
   59.1670   31.8340   48.4260 C   0  0  0  0  0  0  0  0  0  0  0  0
   58.7055   31.9417   49.4187 H   0  0  0  0  0  0  0  0  0  0  0  0
   60.0891   31.2346   48.4481 H   0  0  0  0  0  0  0  0  0  0  0  0
   59.5660   33.2530   47.9150 C   0  0  0  0  0  0  0  0  0  0  0  0
   59.2950   34.1510   48.9390 F   0  0  0  0  0  0  0  0  0  0  0  0
   61.0510   33.3590   47.5920 C   0  0  0  0  0  0  0  0  0  0  0  0
   61.4300   33.7690   46.3510 N   0  0  0  0  0  0  0  0  0  0  0  0
   62.7130   33.8380   45.9900 N   0  0  0  0  0  0  0  0  0  0  0  0
   63.7100   33.4970   46.8440 C   0  0  0  0  0  0  0  0  0  0  0  0
   64.7599   33.5578   46.5216 H   0  0  0  0  0  0  0  0  0  0  0  0
   63.3950   33.0680   48.1360 C   0  0  0  0  0  0  0  0  0  0  0  0
   64.4750   32.6340   49.0820 C   0  0  0  0  0  0  0  0  0  0  0  0
   64.1321   32.7718   50.1181 H   0  0  0  0  0  0  0  0  0  0  0  0
   64.7076   31.5726   48.9109 H   0  0  0  0  0  0  0  0  0  0  0  0
   65.3774   33.2393   48.9109 H   0  0  0  0  0  0  0  0  0  0  0  0
   62.0500   32.9790   48.5050 C   0  0  0  0  0  0  0  0  0  0  0  0
   61.7744   32.6133   49.5052 H   0  0  0  0  0  0  0  0  0  0  0  0
   58.7220   33.6960   46.7000 C   0  0  0  0  0  0  0  0  0  0  0  0
   57.6853   33.8589   47.0299 H   0  0  0  0  0  0  0  0  0  0  0  0
   59.1662   34.6196   46.3004 H   0  0  0  0  0  0  0  0  0  0  0  0
   58.7240   32.6500   45.5770 C   0  0  0  0  0  0  0  0  0  0  0  0
   57.9179   32.8882   44.8675 H   0  0  0  0  0  0  0  0  0  0  0  0
   59.7070   32.6801   45.0843 H   0  0  0  0  0  0  0  0  0  0  0  0
  1  2  1  0
  2  3  2  0
  3  4  1  0
  4  5  1  0
  5  6  1  0
  5  7  2  0
  7  8  1  0
  7  9  1  0
  9 10  1  0
  9 11  2  0
 11 12  1  0
 12 13  2  0
 12 14  1  0
 14 15  1  0
 15 16  1  0
 15 17  1  0
 15 18  1  0
 18 19  1  0
 18 20  1  0
 18 21  1  0
 21 22  1  0
 21 23  1  0
 23 24  2  0
 24 25  1  0
 25 26  2  0
 26 27  1  0
 26 28  1  0
 28 29  1  0
 29 30  1  0
 29 31  1  0
 29 32  1  0
 28 33  2  0
 33 34  1  0
 21 35  1  0
 35 36  1  0
 35 37  1  0
 35 38  1  0
 38 39  1  0
 38 40  1  0
 11  3  1  0
 38 14  1  0
 33 23  1  0
M  CHG  1   4  -1
M  END
>  <UniqueID>  (9) 
8

>  <SMILES>  (9) 
[H]/N=c1/[n-]cccc1C(=O)N1CCC(F)(c2cc(C)cnn2)CC1

>  <Energy>  (9) 
56.38752020037322

>  <Genealogy>  (9) 
Cc1cnnc(C2(F)CCN(C(=O)c3ccc[n-]c3=N)CC2)c1 (protonated)
[H]/N=c1/[n-]cccc1C(=O)N1CCC(F)(c2cc(C)cnn2)CC1 (cis-trans isomerization)
[H]/N=c1/[n-]cccc1C(=O)N1CCC(F)(c2cc(C)cnn2)CC1 (3D coordinates assigned)
[H]/N=c1/[n-]cccc1C(=O)N1CCC(F)(c2cc(C)cnn2)CC1 (nonaromatic ring conformer: 56.38752020037322 kcal/mol)

>  <smiles>  (9) 
Cc1cnnc(C2(F)CCN(C(=O)c3ccc[nH]c3=N)CC2)c1

>  <score_type>  (9) 
oracle

>  <origin>  (9) 
adg

>  <m_score__min__energy>  (9) 
-9.7200000000000006

>  <m_primary>  (9) 
energy

$$$$
9:0
     RDKit          3D

 50 52  0  0  0  0  0  0  0  0999 V2000
   57.9550   25.2630   47.7460 C   0  0  0  0  0  0  0  0  0  0  0  0
   58.3780   26.6480   47.3650 C   0  0  0  0  0  0  0  0  0  0  0  0
   59.0740   27.4510   48.1380 O   0  0  0  0  0  0  0  0  0  0  0  0
   59.2370   28.5830   47.4810 C   0  0  0  0  0  0  0  0  0  0  0  0
   59.9760   29.7460   48.0270 C   0  0  0  0  0  0  0  0  0  0  0  0
   59.8470   30.1250   49.3770 C   0  0  0  0  0  0  0  0  0  0  0  0
   60.5580   31.2210   49.8740 C   0  0  0  0  0  0  0  0  0  0  0  0
   61.4060   31.9470   49.0320 C   0  0  0  0  0  0  0  0  0  0  0  0
   62.1000   33.0090   49.5170 F   0  0  0  0  0  0  0  0  0  0  0  0
   61.5460   31.5750   47.6920 C   0  0  0  0  0  0  0  0  0  0  0  0
   60.8400   30.4780   47.1920 C   0  0  0  0  0  0  0  0  0  0  0  0
   58.6540   28.5420   46.2630 N   0  0  0  0  0  0  0  0  0  0  0  0
   58.0980   27.3180   46.1900 C   0  0  0  0  0  0  0  0  0  0  0  0
   57.3920   26.7860   44.9820 C   0  0  0  0  0  0  0  0  0  0  0  0
   57.9220   27.6610   43.5180 S   0  0  0  0  0  0  0  0  0  0  0  0
   57.9950   26.7100   42.3560 O   0  0  0  0  0  0  0  0  0  0  0  0
   59.2820   28.2580   43.7530 O   0  0  0  0  0  0  0  0  0  0  0  0
   56.7740   28.9730   43.1380 C   0  0  0  0  0  0  0  0  0  0  0  0
   56.3600   29.6750   44.3910 C   0  0  0  0  0  0  0  0  0  0  0  0
   55.2090   29.4850   44.8640 O   0  0  0  0  0  0  0  0  0  0  0  0
   57.2610   30.5910   45.0230 N   0  0  0  0  0  0  0  0  0  0  0  0
   58.1280   31.4970   44.2790 C   0  0  0  0  0  0  0  0  0  0  0  0
   57.6800   32.9460   44.4930 C   0  0  0  0  0  0  0  0  0  0  0  0
   58.4390   33.5720   45.6330 C   0  0  0  0  0  0  0  0  0  0  0  0
   59.3130   34.6470   45.3950 C   0  0  0  0  0  0  0  0  0  0  0  0
   59.9870   35.2550   46.4580 C   0  0  0  0  0  0  0  0  0  0  0  0
   59.7890   34.8000   47.7640 C   0  0  0  0  0  0  0  0  0  0  0  0
   58.9100   33.7420   48.0100 C   0  0  0  0  0  0  0  0  0  0  0  0
   58.2330   33.1320   46.9500 C   0  0  0  0  0  0  0  0  0  0  0  0
   57.9285   25.1762   48.8423 H   0  0  0  0  0  0  0  0  0  0  0  0
   56.9539   25.0600   47.3378 H   0  0  0  0  0  0  0  0  0  0  0  0
   58.6719   24.5353   47.3378 H   0  0  0  0  0  0  0  0  0  0  0  0
   59.1831   29.5555   50.0440 H   0  0  0  0  0  0  0  0  0  0  0  0
   60.4503   31.5128   50.9291 H   0  0  0  0  0  0  0  0  0  0  0  0
   62.2130   32.1468   47.0301 H   0  0  0  0  0  0  0  0  0  0  0  0
   60.9604   30.1847   46.1387 H   0  0  0  0  0  0  0  0  0  0  0  0
   58.6500   29.2730   45.5180 H   0  0  0  0  0  0  0  0  0  0  0  0
   57.6226   25.7164   44.8688 H   0  0  0  0  0  0  0  0  0  0  0  0
   56.3086   26.9267   45.1101 H   0  0  0  0  0  0  0  0  0  0  0  0
   57.2562   29.6930   42.4604 H   0  0  0  0  0  0  0  0  0  0  0  0
   55.8835   28.5428   42.6564 H   0  0  0  0  0  0  0  0  0  0  0  0
   59.1638   31.3804   44.6305 H   0  0  0  0  0  0  0  0  0  0  0  0
   58.0677   31.2553   43.2076 H   0  0  0  0  0  0  0  0  0  0  0  0
   57.8672   33.5217   43.5746 H   0  0  0  0  0  0  0  0  0  0  0  0
   56.6069   32.9536   44.7345 H   0  0  0  0  0  0  0  0  0  0  0  0
   59.4671   35.0111   44.3685 H   0  0  0  0  0  0  0  0  0  0  0  0
   60.6739   36.0925   46.2661 H   0  0  0  0  0  0  0  0  0  0  0  0
   60.3252   35.2748   48.5989 H   0  0  0  0  0  0  0  0  0  0  0  0
   58.7505   33.3886   49.0394 H   0  0  0  0  0  0  0  0  0  0  0  0
   57.5363   32.3042   47.1486 H   0  0  0  0  0  0  0  0  0  0  0  0
  1  2  1  0
  2  3  1  0
  3  4  1  0
  4  5  1  0
  5  6  2  0
  6  7  1  0
  7  8  2  0
  8  9  1  0
  8 10  1  0
 10 11  2  0
  4 12  2  0
 12 13  1  0
 13 14  1  0
 14 15  1  0
 15 16  2  0
 15 17  2  0
 15 18  1  0
 18 19  1  0
 19 20  2  0
 19 21  1  0
 21 22  1  0
 22 23  1  0
 23 24  1  0
 24 25  2  0
 25 26  1  0
 26 27  2  0
 27 28  1  0
 28 29  2  0
 13  2  2  0
 29 24  1  0
 11  5  1  0
  1 30  1  0
  1 31  1  0
  1 32  1  0
  6 33  1  0
  7 34  1  0
 10 35  1  0
 11 36  1  0
 12 37  1  0
 14 38  1  0
 14 39  1  0
 18 40  1  0
 18 41  1  0
 22 42  1  0
 22 43  1  0
 23 44  1  0
 23 45  1  0
 25 46  1  0
 26 47  1  0
 27 48  1  0
 28 49  1  0
 29 50  1  0
M  CHG  2  12   1  21  -1
M  END
>  <UniqueID>  (10) 
9

>  <SMILES>  (10) 
Cc1oc(-c2ccc(F)cc2)[nH+]c1CS(=O)(=O)CC(=O)[N-]CCc1ccccc1

>  <Energy>  (10) 
67.42484708693954

>  <Genealogy>  (10) 
Cc1oc(-c2ccc(F)cc2)[nH+]c1CS(=O)(=O)CC(=O)[N-]CCc1ccccc1 (protonated)
Cc1oc(-c2ccc(F)cc2)[nH+]c1CS(=O)(=O)CC(=O)[N-]CCc1ccccc1 (3D coordinates assigned)
Cc1oc(-c2ccc(F)cc2)[nH+]c1CS(=O)(=O)CC(=O)[N-]CCc1ccccc1 (optimized conformer: 67.42484708693954 kcal/mol)

>  <smiles>  (10) 
Cc1oc(-c2ccc(F)cc2)nc1CS(=O)(=O)CC(=O)NCCc1ccccc1

>  <score_type>  (10) 
oracle

>  <origin>  (10) 
adg

>  <m_score__min__energy>  (10) 
-8.1600000000000001

>  <m_primary>  (10) 
energy

$$$$
10:0
     RDKit          3D

 48 50  0  0  0  0  0  0  0  0999 V2000
   62.3310   31.5780   47.3720 C   0  0  0  0  0  0  0  0  0  0  0  0
   61.8160   32.1790   48.6860 C   0  0  0  0  0  0  0  0  0  0  0  0
   60.4830   31.6470   49.0700 N   0  0  1  0  0  0  0  0  0  0  0  0
   60.4820   30.7030   50.2240 C   0  0  0  0  0  0  0  0  0  0  0  0
   60.8140   29.2280   49.9050 C   0  0  0  0  0  0  0  0  0  0  0  0
   60.6940   28.9730   48.4760 N   0  0  0  0  0  0  0  0  0  0  0  0
   60.0420   27.8150   47.9500 C   0  0  0  0  0  0  0  0  0  0  0  0
   60.6830   26.7430   47.7750 O   0  0  0  0  0  0  0  0  0  0  0  0
   58.5860   27.8750   47.6080 C   0  0  0  0  0  0  0  0  0  0  0  0
   58.4000   28.4810   46.2940 N   0  0  0  0  0  0  0  0  0  0  0  0
   58.6820   29.8470   45.9740 C   0  0  0  0  0  0  0  0  0  0  0  0
   59.3760   30.5940   46.7150 O   0  0  0  0  0  0  0  0  0  0  0  0
   58.0670   30.2930   44.7180 C   0  0  0  0  0  0  0  0  0  0  0  0
   58.1530   31.5580   44.1350 C   0  0  0  0  0  0  0  0  0  0  0  0
   57.4710   31.7920   42.9310 C   0  0  0  0  0  0  0  0  0  0  0  0
   56.7150   30.7670   42.3300 C   0  0  0  0  0  0  0  0  0  0  0  0
   56.6330   29.5010   42.9280 C   0  0  0  0  0  0  0  0  0  0  0  0
   57.3200   29.2880   44.1220 C   0  0  0  0  0  0  0  0  0  0  0  0
   57.3600   27.8350   45.0750 S   0  0  0  0  0  0  0  0  0  0  0  0
   56.0070   27.4820   45.6250 O   0  0  0  0  0  0  0  0  0  0  0  0
   58.0010   26.6850   44.3520 O   0  0  0  0  0  0  0  0  0  0  0  0
   59.4530   32.7120   49.1800 C   0  0  0  0  0  0  0  0  0  0  0  0
   59.1620   33.4380   47.8970 C   0  0  0  0  0  0  0  0  0  0  0  0
   60.0160   34.3110   47.2320 C   0  0  0  0  0  0  0  0  0  0  0  0
   59.4830   34.7970   46.0330 C   0  0  0  0  0  0  0  0  0  0  0  0
   58.2180   34.3000   45.7410 C   0  0  0  0  0  0  0  0  0  0  0  0
   57.7630   33.2530   46.9770 S   0  0  0  0  0  0  0  0  0  0  0  0
   63.0322   30.7598   47.5930 H   0  0  0  0  0  0  0  0  0  0  0  0
   61.4831   31.1872   46.7904 H   0  0  0  0  0  0  0  0  0  0  0  0
   62.8471   32.3560   46.7904 H   0  0  0  0  0  0  0  0  0  0  0  0
   62.5334   31.9448   49.4863 H   0  0  0  0  0  0  0  0  0  0  0  0
   61.7137   33.2645   48.5401 H   0  0  0  0  0  0  0  0  0  0  0  0
   60.1570   31.0770   48.2530 H   0  0  0  0  0  0  0  0  0  0  0  0
   61.2240   31.0633   50.9518 H   0  0  0  0  0  0  0  0  0  0  0  0
   59.4465   30.6959   50.5950 H   0  0  0  0  0  0  0  0  0  0  0  0
   61.8438   29.0117   50.2256 H   0  0  0  0  0  0  0  0  0  0  0  0
   60.1046   28.5808   50.4415 H   0  0  0  0  0  0  0  0  0  0  0  0
   58.1728   26.8556   47.5994 H   0  0  0  0  0  0  0  0  0  0  0  0
   58.0661   28.4856   48.3609 H   0  0  0  0  0  0  0  0  0  0  0  0
   58.7434   32.3556   44.6096 H   0  0  0  0  0  0  0  0  0  0  0  0
   57.5272   32.7816   42.4540 H   0  0  0  0  0  0  0  0  0  0  0  0
   56.1854   30.9606   41.3855 H   0  0  0  0  0  0  0  0  0  0  0  0
   56.0415   28.6965   42.4665 H   0  0  0  0  0  0  0  0  0  0  0  0
   58.5187   32.2502   49.5321 H   0  0  0  0  0  0  0  0  0  0  0  0
   59.8543   33.4619   49.8775 H   0  0  0  0  0  0  0  0  0  0  0  0
   61.0102   34.5912   47.6103 H   0  0  0  0  0  0  0  0  0  0  0  0
   60.0153   35.5062   45.3821 H   0  0  0  0  0  0  0  0  0  0  0  0
   57.6173   34.5487   44.8537 H   0  0  0  0  0  0  0  0  0  0  0  0
  1  2  1  0
  2  3  1  0
  3  4  1  0
  4  5  1  0
  5  6  1  0
  6  7  1  0
  7  8  2  0
  7  9  1  0
  9 10  1  0
 10 11  1  0
 11 12  2  0
 11 13  1  0
 13 14  2  0
 14 15  1  0
 15 16  2  0
 16 17  1  0
 17 18  2  0
 18 19  1  0
 19 20  2  0
 19 21  2  0
  3 22  1  0
 22 23  1  0
 23 24  2  0
 24 25  1  0
 25 26  2  0
 26 27  1  0
 19 10  1  0
 27 23  1  0
 18 13  1  0
  1 28  1  0
  1 29  1  0
  1 30  1  0
  2 31  1  0
  2 32  1  0
  3 33  1  6
  4 34  1  0
  4 35  1  0
  5 36  1  0
  5 37  1  0
  9 38  1  0
  9 39  1  0
 14 40  1  0
 15 41  1  0
 16 42  1  0
 17 43  1  0
 22 44  1  0
 22 45  1  0
 24 46  1  0
 25 47  1  0
 26 48  1  0
M  CHG  2   3   1   6  -1
M  END
>  <UniqueID>  (11) 
10

>  <SMILES>  (11) 
CC[N@@H+](CC[N-]C(=O)CN1C(=O)c2ccccc2S1(=O)=O)Cc1cccs1

>  <Energy>  (11) 
99.59527108345338

>  <Genealogy>  (11) 
CC[NH+](CC[N-]C(=O)CN1C(=O)c2ccccc2S1(=O)=O)Cc1cccs1 (protonated)
CC[N@@H+](CC[N-]C(=O)CN1C(=O)c2ccccc2S1(=O)=O)Cc1cccs1 (chirality)
CC[N@@H+](CC[N-]C(=O)CN1C(=O)c2ccccc2S1(=O)=O)Cc1cccs1 (3D coordinates assigned)
CC[N@@H+](CC[N-]C(=O)CN1C(=O)c2ccccc2S1(=O)=O)Cc1cccs1 (nonaromatic ring conformer: 99.59527108345338 kcal/mol)

>  <smiles>  (11) 
CCN(CCNC(=O)CN1C(=O)c2ccccc2S1(=O)=O)Cc1cccs1

>  <score_type>  (11) 
oracle

>  <origin>  (11) 
adg

>  <m_score__min__energy>  (11) 
-7.1900000000000004

>  <m_primary>  (11) 
energy

$$$$
11:0
     RDKit          3D

 29 30  0  0  0  0  0  0  0  0999 V2000
   63.5380   33.4720   47.2710 C   0  0  0  0  0  0  0  0  0  0  0  0
   62.2320   33.8430   47.9660 C   0  0  0  0  0  0  0  0  0  0  0  0
   61.0880   33.2450   47.2610 N   0  0  0  0  0  0  0  0  0  0  0  0
   61.0840   31.8860   47.0220 C   0  0  0  0  0  0  0  0  0  0  0  0
   60.0290   31.2850   46.3930 N   0  0  0  0  0  0  0  0  0  0  0  0
   58.9820   32.0550   46.0120 C   0  0  0  0  0  0  0  0  0  0  0  0
   57.8050   31.7060   45.3860 C   0  0  0  0  0  0  0  0  0  0  0  0
   57.3740   30.3300   44.9930 C   0  0  0  0  0  0  0  0  0  0  0  0
   56.0250   30.3730   44.5820 O   0  0  0  0  0  0  0  0  0  0  0  0
   55.8970   29.7330   43.3310 C   0  0  0  0  0  0  0  0  0  0  0  0
   57.0420   32.8180   45.2480 N   0  0  0  0  0  0  0  0  0  0  0  0
   57.7370   33.8590   45.7690 C   0  0  0  0  0  0  0  0  0  0  0  0
   58.9460   33.3930   46.2460 C   0  0  0  0  0  0  0  0  0  0  0  0
   60.0080   34.0160   46.8870 C   0  0  0  0  0  0  0  0  0  0  0  0
   59.9720   35.2550   47.1210 O   0  0  0  0  0  0  0  0  0  0  0  0
   64.3065   33.2537   48.0271 H   0  0  0  0  0  0  0  0  0  0  0  0
   63.3792   32.5834   46.6423 H   0  0  0  0  0  0  0  0  0  0  0  0
   63.8701   34.3113   46.6423 H   0  0  0  0  0  0  0  0  0  0  0  0
   62.2541   33.4716   49.0012 H   0  0  0  0  0  0  0  0  0  0  0  0
   62.1227   34.9375   47.9593 H   0  0  0  0  0  0  0  0  0  0  0  0
   61.9423   31.2770   47.3422 H   0  0  0  0  0  0  0  0  0  0  0  0
   60.0350   30.2550   46.2190 H   0  0  0  0  0  0  0  0  0  0  0  0
   58.0011   29.9693   44.1643 H   0  0  0  0  0  0  0  0  0  0  0  0
   57.4810   29.6475   45.8490 H   0  0  0  0  0  0  0  0  0  0  0  0
   55.6834   28.6651   43.4856 H   0  0  0  0  0  0  0  0  0  0  0  0
   55.0732   30.1936   42.7661 H   0  0  0  0  0  0  0  0  0  0  0  0
   56.8346   29.8414   42.7661 H   0  0  0  0  0  0  0  0  0  0  0  0
   56.0870   32.8680   44.8300 H   0  0  0  0  0  0  0  0  0  0  0  0
   57.3940   34.9035   45.8057 H   0  0  0  0  0  0  0  0  0  0  0  0
  1  2  1  0
  2  3  1  0
  3  4  1  0
  4  5  2  0
  5  6  1  0
  6  7  2  0
  7  8  1  0
  8  9  1  0
  9 10  1  0
  7 11  1  0
 11 12  1  0
 12 13  2  0
 13 14  1  0
 14 15  2  0
 14  3  1  0
 13  6  1  0
  1 16  1  0
  1 17  1  0
  1 18  1  0
  2 19  1  0
  2 20  1  0
  4 21  1  0
  5 22  1  0
  8 23  1  0
  8 24  1  0
 10 25  1  0
 10 26  1  0
 10 27  1  0
 11 28  1  0
 12 29  1  0
M  CHG  1   5   1
M  END
>  <UniqueID>  (12) 
11

>  <SMILES>  (12) 
CCn1c[nH+]c2c(COC)[nH]cc2c1=O

>  <Energy>  (12) 
63.51175681226746

>  <Genealogy>  (12) 
CCn1c[nH+]c2c(COC)[nH]cc2c1=O (protonated)
CCn1c[nH+]c2c(COC)[nH]cc2c1=O (3D coordinates assigned)
CCn1c[nH+]c2c(COC)[nH]cc2c1=O (optimized conformer: 63.51175681226746 kcal/mol)

>  <smiles>  (12) 
CCn1cnc2c(COC)[nH]cc2c1=O

>  <score_type>  (12) 
oracle

>  <origin>  (12) 
adg

>  <m_score__min__energy>  (12) 
-3.7400000000000002

>  <m_primary>  (12) 
energy

$$$$
12:0
     RDKit          3D

 41 43  0  0  0  0  0  0  0  0999 V2000
   60.2690   26.4490   46.3430 C   0  0  0  0  0  0  0  0  0  0  0  0
   59.8710   27.7380   47.0510 C   0  0  0  0  0  0  0  0  0  0  0  0
   58.8360   28.4750   46.2620 C   0  0  0  0  0  0  0  0  0  0  0  0
   57.6260   27.9350   45.9550 N   0  0  0  0  0  0  0  0  0  0  0  0
   57.0300   28.9460   45.3100 C   0  0  0  0  0  0  0  0  0  0  0  0
   55.7690   28.9560   44.8120 N   0  0  0  0  0  0  0  0  0  0  0  0
   55.3130   30.1050   44.2310 C   0  0  0  0  0  0  0  0  0  0  0  0
   56.1160   31.2130   44.1620 N   0  0  0  0  0  0  0  0  0  0  0  0
   57.3930   31.2090   44.6530 C   0  0  0  0  0  0  0  0  0  0  0  0
   58.1970   32.4050   44.5880 N   0  0  0  0  0  0  0  0  0  0  0  0
   58.4410   33.0780   43.3000 C   0  0  0  0  0  0  0  0  0  0  0  0
   57.7850   32.3110   42.1560 C   0  0  0  0  0  0  0  0  0  0  0  0
   58.7450   32.9450   45.8100 C   0  0  0  0  0  0  0  0  0  0  0  0
   59.8700   33.7880   45.7920 C   0  0  0  0  0  0  0  0  0  0  0  0
   60.3930   34.2950   46.9860 C   0  0  0  0  0  0  0  0  0  0  0  0
   59.8060   33.9740   48.2150 C   0  0  0  0  0  0  0  0  0  0  0  0
   60.3690   34.5090   49.3830 O   0  0  0  0  0  0  0  0  0  0  0  0
   61.6720   34.1950   49.8640 C   0  0  0  0  0  0  0  0  0  0  0  0
   58.6770   33.1330   48.2370 C   0  0  0  0  0  0  0  0  0  0  0  0
   58.1540   32.6260   47.0450 C   0  0  0  0  0  0  0  0  0  0  0  0
   57.8410   30.0270   45.2470 C   0  0  0  0  0  0  0  0  0  0  0  0
   59.0030   29.7640   45.8610 N   0  0  0  0  0  0  0  0  0  0  0  0
   60.5070   25.6783   47.0909 H   0  0  0  0  0  0  0  0  0  0  0  0
   59.4355   26.1040   45.7135 H   0  0  0  0  0  0  0  0  0  0  0  0
   61.1519   26.6340   45.7135 H   0  0  0  0  0  0  0  0  0  0  0  0
   59.4633   27.4943   48.0431 H   0  0  0  0  0  0  0  0  0  0  0  0
   60.7611   28.3765   47.1513 H   0  0  0  0  0  0  0  0  0  0  0  0
   55.1570   28.1120   44.8800 H   0  0  0  0  0  0  0  0  0  0  0  0
   54.2949   30.1410   43.8160 H   0  0  0  0  0  0  0  0  0  0  0  0
   58.0228   34.0947   43.3393 H   0  0  0  0  0  0  0  0  0  0  0  0
   59.5258   33.1172   43.1223 H   0  0  0  0  0  0  0  0  0  0  0  0
   57.1218   31.5356   42.5672 H   0  0  0  0  0  0  0  0  0  0  0  0
   57.1975   33.0059   41.5380 H   0  0  0  0  0  0  0  0  0  0  0  0
   58.5626   31.8384   41.5380 H   0  0  0  0  0  0  0  0  0  0  0  0
   60.3415   34.0503   44.8334 H   0  0  0  0  0  0  0  0  0  0  0  0
   61.2744   34.9525   46.9587 H   0  0  0  0  0  0  0  0  0  0  0  0
   61.6669   34.1962   50.9640 H   0  0  0  0  0  0  0  0  0  0  0  0
   61.9674   33.2000   49.4998 H   0  0  0  0  0  0  0  0  0  0  0  0
   62.3882   34.9463   49.4998 H   0  0  0  0  0  0  0  0  0  0  0  0
   58.2051   32.8742   49.1963 H   0  0  0  0  0  0  0  0  0  0  0  0
   57.2710   31.9707   47.0730 H   0  0  0  0  0  0  0  0  0  0  0  0
  1  2  1  0
  2  3  1  0
  3  4  2  0
  4  5  1  0
  5  6  2  0
  6  7  1  0
  7  8  2  0
  8  9  1  0
  9 10  1  0
 10 11  1  0
 11 12  1  0
 10 13  1  0
 13 14  2  0
 14 15  1  0
 15 16  2  0
 16 17  1  0
 17 18  1  0
 16 19  1  0
 19 20  2  0
  9 21  2  0
 21 22  1  0
 22  3  1  0
 21  5  1  0
 20 13  1  0
  1 23  1  0
  1 24  1  0
  1 25  1  0
  2 26  1  0
  2 27  1  0
  6 28  1  0
  7 29  1  0
 11 30  1  0
 11 31  1  0
 12 32  1  0
 12 33  1  0
 12 34  1  0
 14 35  1  0
 15 36  1  0
 18 37  1  0
 18 38  1  0
 18 39  1  0
 19 40  1  0
 20 41  1  0
M  CHG  2   6   1  22  -1
M  END
>  <UniqueID>  (13) 
12

>  <SMILES>  (13) 
CCc1nc2[nH+]cnc(N(CC)c3ccc(OC)cc3)c2[n-]1

>  <Energy>  (13) 
81.26464773811834

>  <Genealogy>  (13) 
CCc1nc2[nH+]cnc(N(CC)c3ccc(OC)cc3)c2[n-]1 (protonated)
CCc1nc2[nH+]cnc(N(CC)c3ccc(OC)cc3)c2[n-]1 (3D coordinates assigned)
CCc1nc2[nH+]cnc(N(CC)c3ccc(OC)cc3)c2[n-]1 (optimized conformer: 81.26464773811834 kcal/mol)

>  <smiles>  (13) 
CCc1nc2ncnc(N(CC)c3ccc(OC)cc3)c2[nH]1

>  <score_type>  (13) 
oracle

>  <origin>  (13) 
adg

>  <m_score__min__energy>  (13) 
-6.6299999999999999

>  <m_primary>  (13) 
energy

$$$$
13:0
     RDKit          3D

 36 38  0  0  0  0  0  0  0  0999 V2000
   59.9420   28.4140   44.5350 C   0  0  0  0  0  0  0  0  0  0  0  0
   58.5290   27.9370   44.2180 C   0  0  0  0  0  0  0  0  0  0  0  0
   57.5910   28.3570   45.2670 N   0  0  0  0  0  0  0  0  0  0  0  0
   57.3480   27.4640   46.4130 C   0  0  0  0  0  0  0  0  0  0  0  0
   56.4650   26.3130   46.0310 C   0  0  0  0  0  0  0  0  0  0  0  0
   56.8880   25.0620   45.6320 C   0  0  0  0  0  0  0  0  0  0  0  0
   55.7370   24.3520   45.3650 C   0  0  0  0  0  0  0  0  0  0  0  0
   54.6870   25.2120   45.6180 C   0  0  0  0  0  0  0  0  0  0  0  0
   55.1540   26.3730   46.0150 O   0  0  0  0  0  0  0  0  0  0  0  0
   56.8780   29.6050   45.1240 C   0  0  0  0  0  0  0  0  0  0  0  0
   55.6480   29.5980   44.8440 O   0  0  0  0  0  0  0  0  0  0  0  0
   57.5420   30.9000   45.3470 C   0  0  0  0  0  0  0  0  0  0  0  0
   57.3600   32.0200   44.5230 C   0  0  0  0  0  0  0  0  0  0  0  0
   58.1330   32.9830   45.1210 C   0  0  0  0  0  0  0  0  0  0  0  0
   58.5690   34.5810   44.8970 S   0  0  0  0  0  0  0  0  0  0  0  0
   59.5900   34.5850   46.2730 C   0  0  0  0  0  0  0  0  0  0  0  0
   59.5780   33.3250   46.8900 C   0  0  0  0  0  0  0  0  0  0  0  0
   58.7340   32.4640   46.1970 C   0  0  0  0  0  0  0  0  0  0  0  0
   58.4010   31.1760   46.3740 N   0  0  0  0  0  0  0  0  0  0  0  0
   58.9490   30.2710   47.3820 C   0  0  0  0  0  0  0  0  0  0  0  0
   60.0775   28.4597   45.6257 H   0  0  0  0  0  0  0  0  0  0  0  0
   60.6712   27.7122   44.1040 H   0  0  0  0  0  0  0  0  0  0  0  0
   60.0967   29.4142   44.1040 H   0  0  0  0  0  0  0  0  0  0  0  0
   58.2106   28.3657   43.2563 H   0  0  0  0  0  0  0  0  0  0  0  0
   58.5306   26.8383   44.1647 H   0  0  0  0  0  0  0  0  0  0  0  0
   58.3111   27.0726   46.7725 H   0  0  0  0  0  0  0  0  0  0  0  0
   56.8432   28.0414   47.2015 H   0  0  0  0  0  0  0  0  0  0  0  0
   57.9252   24.7061   45.5452 H   0  0  0  0  0  0  0  0  0  0  0  0
   55.6688   23.3098   45.0198 H   0  0  0  0  0  0  0  0  0  0  0  0
   53.6217   24.9625   45.5043 H   0  0  0  0  0  0  0  0  0  0  0  0
   56.7450   32.1059   43.6150 H   0  0  0  0  0  0  0  0  0  0  0  0
   60.1713   35.4510   46.6224 H   0  0  0  0  0  0  0  0  0  0  0  0
   60.1518   33.0575   47.7896 H   0  0  0  0  0  0  0  0  0  0  0  0
   58.7160   30.6559   48.3858 H   0  0  0  0  0  0  0  0  0  0  0  0
   58.5035   29.2727   47.2595 H   0  0  0  0  0  0  0  0  0  0  0  0
   60.0401   30.2032   47.2595 H   0  0  0  0  0  0  0  0  0  0  0  0
  1  2  1  0
  2  3  1  0
  3  4  1  0
  4  5  1  0
  5  6  2  0
  6  7  1  0
  7  8  2  0
  8  9  1  0
  3 10  1  0
 10 11  2  0
 10 12  1  0
 12 13  2  0
 13 14  1  0
 14 15  1  0
 15 16  1  0
 16 17  2  0
 17 18  1  0
 18 19  1  0
 19 20  1  0
  9  5  1  0
 19 12  1  0
 18 14  2  0
  1 21  1  0
  1 22  1  0
  1 23  1  0
  2 24  1  0
  2 25  1  0
  4 26  1  0
  4 27  1  0
  6 28  1  0
  7 29  1  0
  8 30  1  0
 13 31  1  0
 16 32  1  0
 17 33  1  0
 20 34  1  0
 20 35  1  0
 20 36  1  0
M  END
>  <UniqueID>  (14) 
13

>  <SMILES>  (14) 
CCN(Cc1ccco1)C(=O)c1cc2sccc2n1C

>  <Energy>  (14) 
137.12552238830682

>  <Genealogy>  (14) 
CCN(Cc1ccco1)C(=O)c1cc2sccc2n1C (3D coordinates assigned)
CCN(Cc1ccco1)C(=O)c1cc2sccc2n1C (optimized conformer: 137.12552238830682 kcal/mol)

>  <smiles>  (14) 
CCN(Cc1ccco1)C(=O)c1cc2sccc2n1C

>  <score_type>  (14) 
oracle

>  <origin>  (14) 
adg

>  <m_score__min__energy>  (14) 
-7.4199999999999999

>  <m_primary>  (14) 
energy

$$$$
14:0
     RDKit          3D

 40 42  0  0  0  0  0  0  0  0999 V2000
   63.1460   33.4930   46.8400 C   0  0  0  0  0  0  0  0  0  0  0  0
   62.0110   34.2030   46.3540 O   0  0  0  0  0  0  0  0  0  0  0  0
   60.6820   33.8910   46.6790 C   0  0  0  0  0  0  0  0  0  0  0  0
   60.2430   33.7580   48.0100 C   0  0  0  0  0  0  0  0  0  0  0  0
   58.9060   33.4530   48.2810 C   0  0  0  0  0  0  0  0  0  0  0  0
   57.9980   33.2760   47.2340 C   0  0  0  0  0  0  0  0  0  0  0  0
   58.4270   33.3890   45.9030 C   0  0  0  0  0  0  0  0  0  0  0  0
   57.4450   33.2350   44.7750 C   0  0  0  0  0  0  0  0  0  0  0  0
   56.6260   32.0420   44.9950 N   0  0  0  0  0  0  0  0  0  0  0  0
   57.0820   30.7990   43.8700 S   0  0  0  0  0  0  0  0  0  0  0  0
   55.9280   30.5050   42.9540 O   0  0  0  0  0  0  0  0  0  0  0  0
   58.2490   31.2650   43.0450 O   0  0  0  0  0  0  0  0  0  0  0  0
   57.5240   29.3320   44.7220 C   0  0  0  0  0  0  0  0  0  0  0  0
   58.8020   28.9830   45.1050 C   0  0  0  0  0  0  0  0  0  0  0  0
   58.6830   27.7580   45.7250 C   0  0  0  0  0  0  0  0  0  0  0  0
   57.3360   27.4430   45.6790 C   0  0  0  0  0  0  0  0  0  0  0  0
   56.7090   26.2270   46.2120 C   0  0  0  0  0  0  0  0  0  0  0  0
   57.3160   25.2630   46.9930 C   0  0  0  0  0  0  0  0  0  0  0  0
   56.3060   24.3550   47.2170 C   0  0  0  0  0  0  0  0  0  0  0  0
   56.4160   23.0870   47.9940 C   0  0  0  0  0  0  0  0  0  0  0  0
   55.2170   24.7640   46.6080 O   0  0  0  0  0  0  0  0  0  0  0  0
   55.4220   25.8940   45.9940 N   0  0  0  0  0  0  0  0  0  0  0  0
   56.6700   28.4000   45.0740 O   0  0  0  0  0  0  0  0  0  0  0  0
   59.7670   33.7110   45.6340 C   0  0  0  0  0  0  0  0  0  0  0  0
   63.1382   33.4979   47.9400 H   0  0  0  0  0  0  0  0  0  0  0  0
   63.1119   32.4549   46.4777 H   0  0  0  0  0  0  0  0  0  0  0  0
   64.0645   33.9778   46.4777 H   0  0  0  0  0  0  0  0  0  0  0  0
   60.9536   33.8944   48.8385 H   0  0  0  0  0  0  0  0  0  0  0  0
   58.5674   33.3519   49.3227 H   0  0  0  0  0  0  0  0  0  0  0  0
   56.9446   33.0476   47.4537 H   0  0  0  0  0  0  0  0  0  0  0  0
   56.7956   34.1218   44.7317 H   0  0  0  0  0  0  0  0  0  0  0  0
   57.9923   33.1320   43.8264 H   0  0  0  0  0  0  0  0  0  0  0  0
   56.8350   31.6740   45.9520 H   0  0  0  0  0  0  0  0  0  0  0  0
   59.7242   29.5618   44.9483 H   0  0  0  0  0  0  0  0  0  0  0  0
   59.4911   27.1554   46.1652 H   0  0  0  0  0  0  0  0  0  0  0  0
   58.3559   25.2291   47.3500 H   0  0  0  0  0  0  0  0  0  0  0  0
   56.3963   23.3136   49.0702 H   0  0  0  0  0  0  0  0  0  0  0  0
   55.5716   22.4284   47.7425 H   0  0  0  0  0  0  0  0  0  0  0  0
   57.3612   22.5837   47.7425 H   0  0  0  0  0  0  0  0  0  0  0  0
   60.1015   33.8230   44.5921 H   0  0  0  0  0  0  0  0  0  0  0  0
  1  2  1  0
  2  3  1  0
  3  4  2  0
  4  5  1  0
  5  6  2  0
  6  7  1  0
  7  8  1  0
  8  9  1  0
  9 10  1  0
 10 11  2  0
 10 12  2  0
 10 13  1  0
 13 14  2  0
 14 15  1  0
 15 16  2  0
 16 17  1  0
 17 18  1  0
 18 19  2  0
 19 20  1  0
 19 21  1  0
 21 22  1  0
 16 23  1  0
  7 24  2  0
 24  3  1  0
 23 13  1  0
 22 17  2  0
  1 25  1  0
  1 26  1  0
  1 27  1  0
  4 28  1  0
  5 29  1  0
  6 30  1  0
  8 31  1  0
  8 32  1  0
  9 33  1  0
 14 34  1  0
 15 35  1  0
 18 36  1  0
 20 37  1  0
 20 38  1  0
 20 39  1  0
 24 40  1  0
M  END
>  <UniqueID>  (15) 
14

>  <SMILES>  (15) 
COc1cccc(CNS(=O)(=O)c2ccc(-c3cc(C)on3)o2)c1

>  <Energy>  (15) 
92.39029454485294

>  <Genealogy>  (15) 
COc1cccc(CNS(=O)(=O)c2ccc(-c3cc(C)on3)o2)c1 (3D coordinates assigned)
COc1cccc(CNS(=O)(=O)c2ccc(-c3cc(C)on3)o2)c1 (optimized conformer: 92.39029454485294 kcal/mol)

>  <smiles>  (15) 
COc1cccc(CNS(=O)(=O)c2ccc(-c3cc(C)on3)o2)c1

>  <score_type>  (15) 
oracle

>  <origin>  (15) 
adg

>  <m_score__min__energy>  (15) 
-8.9900000000000002

>  <m_primary>  (15) 
energy

$$$$
15:0
     RDKit          3D

 53 55  0  0  0  0  0  0  0  0999 V2000
   61.0610   30.5350   46.9300 C   0  0  0  0  0  0  0  0  0  0  0  0
   61.7580   31.7660   46.7650 O   0  0  0  0  0  0  0  0  0  0  0  0
   62.3380   32.5000   47.8110 C   0  0  0  0  0  0  0  0  0  0  0  0
   63.6640   32.2710   48.2340 C   0  0  0  0  0  0  0  0  0  0  0  0
   64.2030   33.0010   49.2970 C   0  0  0  0  0  0  0  0  0  0  0  0
   63.4320   33.9630   49.9470 C   0  0  0  0  0  0  0  0  0  0  0  0
   62.1200   34.2030   49.5370 C   0  0  0  0  0  0  0  0  0  0  0  0
   61.5650   33.4800   48.4680 C   0  0  0  0  0  0  0  0  0  0  0  0
   60.2170   33.7580   48.0480 N   0  0  0  0  0  0  0  0  0  0  0  0
   59.1140   32.8990   48.4950 C   0  0  0  0  0  0  0  0  0  0  0  0
   57.9300   32.9960   47.5270 C   0  0  0  0  0  0  0  0  0  0  0  0
   58.4340   33.0210   46.1410 N   0  0  0  0  0  0  0  0  0  0  0  0
   57.3240   32.8270   45.1830 C   0  0  0  0  0  0  0  0  0  0  0  0
   57.7560   33.1960   43.7530 C   0  0  0  0  0  0  0  0  0  0  0  0
   58.0960   31.9640   42.9000 C   0  0  0  0  0  0  0  0  0  0  0  0
   57.0470   30.8520   43.0250 C   0  0  0  0  0  0  0  0  0  0  0  0
   57.4430   29.9010   44.0630 N   0  0  0  0  0  0  0  0  0  0  0  0
   58.8040   29.4490   44.2860 C   0  0  0  0  0  0  0  0  0  0  0  0
   58.7330   28.4560   45.4630 C   0  0  0  0  0  0  0  0  0  0  0  0
   57.2460   28.2180   45.7760 C   0  0  0  0  0  0  0  0  0  0  0  0
   56.5560   29.1790   44.8930 C   0  0  0  0  0  0  0  0  0  0  0  0
   55.3050   29.3270   44.8610 O   0  0  0  0  0  0  0  0  0  0  0  0
   59.1920   34.2690   45.8550 C   0  0  0  0  0  0  0  0  0  0  0  0
   59.9430   34.8250   47.0810 C   0  0  0  0  0  0  0  0  0  0  0  0
   60.9408   30.3226   48.0026 H   0  0  0  0  0  0  0  0  0  0  0  0
   60.0704   30.6083   46.4574 H   0  0  0  0  0  0  0  0  0  0  0  0
   61.6335   29.7233   46.4574 H   0  0  0  0  0  0  0  0  0  0  0  0
   64.2774   31.5135   47.7243 H   0  0  0  0  0  0  0  0  0  0  0  0
   65.2377   32.8159   49.6212 H   0  0  0  0  0  0  0  0  0  0  0  0
   63.8585   34.5341   50.7848 H   0  0  0  0  0  0  0  0  0  0  0  0
   61.5163   34.9633   50.0542 H   0  0  0  0  0  0  0  0  0  0  0  0
   59.4619   31.8563   48.5376 H   0  0  0  0  0  0  0  0  0  0  0  0
   58.7864   33.2312   49.4912 H   0  0  0  0  0  0  0  0  0  0  0  0
   57.2719   32.1251   47.6630 H   0  0  0  0  0  0  0  0  0  0  0  0
   57.3631   33.9166   47.7295 H   0  0  0  0  0  0  0  0  0  0  0  0
   57.0121   31.7723   45.2033 H   0  0  0  0  0  0  0  0  0  0  0  0
   56.4906   33.4822   45.4764 H   0  0  0  0  0  0  0  0  0  0  0  0
   56.9351   33.7444   43.2678 H   0  0  0  0  0  0  0  0  0  0  0  0
   58.6660   33.8094   43.8285 H   0  0  0  0  0  0  0  0  0  0  0  0
   58.1590   32.2719   41.8459 H   0  0  0  0  0  0  0  0  0  0  0  0
   59.0531   31.5613   43.2631 H   0  0  0  0  0  0  0  0  0  0  0  0
   56.0761   31.2960   43.2898 H   0  0  0  0  0  0  0  0  0  0  0  0
   56.9673   30.3229   42.0639 H   0  0  0  0  0  0  0  0  0  0  0  0
   59.1931   28.9490   43.3868 H   0  0  0  0  0  0  0  0  0  0  0  0
   59.4772   30.2902   44.5078 H   0  0  0  0  0  0  0  0  0  0  0  0
   59.2149   27.5073   45.1840 H   0  0  0  0  0  0  0  0  0  0  0  0
   59.2551   28.8595   46.3431 H   0  0  0  0  0  0  0  0  0  0  0  0
   56.9537   27.1845   45.5386 H   0  0  0  0  0  0  0  0  0  0  0  0
   57.0018   28.3579   46.8394 H   0  0  0  0  0  0  0  0  0  0  0  0
   59.9258   34.0573   45.0633 H   0  0  0  0  0  0  0  0  0  0  0  0
   58.4593   35.0309   45.5506 H   0  0  0  0  0  0  0  0  0  0  0  0
   60.8949   35.2670   46.7516 H   0  0  0  0  0  0  0  0  0  0  0  0
   59.3152   35.5880   47.5644 H   0  0  0  0  0  0  0  0  0  0  0  0
  1  2  1  0
  2  3  1  0
  3  4  2  0
  4  5  1  0
  5  6  2  0
  6  7  1  0
  7  8  2  0
  8  9  1  0
  9 10  1  0
 10 11  1  0
 11 12  1  0
 12 13  1  0
 13 14  1  0
 14 15  1  0
 15 16  1  0
 16 17  1  0
 17 18  1  0
 18 19  1  0
 19 20  1  0
 20 21  1  0
 21 22  2  0
 12 23  1  0
 23 24  1  0
  8  3  1  0
 24  9  1  0
 21 17  1  0
  1 25  1  0
  1 26  1  0
  1 27  1  0
  4 28  1  0
  5 29  1  0
  6 30  1  0
  7 31  1  0
 10 32  1  0
 10 33  1  0
 11 34  1  0
 11 35  1  0
 13 36  1  0
 13 37  1  0
 14 38  1  0
 14 39  1  0
 15 40  1  0
 15 41  1  0
 16 42  1  0
 16 43  1  0
 18 44  1  0
 18 45  1  0
 19 46  1  0
 19 47  1  0
 20 48  1  0
 20 49  1  0
 23 50  1  0
 23 51  1  0
 24 52  1  0
 24 53  1  0
M  END
>  <UniqueID>  (16) 
15

>  <SMILES>  (16) 
COc1ccccc1N1CCN(CCCCN2CCCC2=O)CC1

>  <Energy>  (16) 
62.86052290709388

>  <Genealogy>  (16) 
COc1ccccc1N1CCN(CCCCN2CCCC2=O)CC1 (3D coordinates assigned)
COc1ccccc1N1CCN(CCCCN2CCCC2=O)CC1 (nonaromatic ring conformer: 62.86052290709388 kcal/mol)

>  <smiles>  (16) 
COc1ccccc1N1CCN(CCCCN2CCCC2=O)CC1

>  <score_type>  (16) 
oracle

>  <origin>  (16) 
adg

>  <m_score__min__energy>  (16) 
-7.8200000000000003

>  <m_primary>  (16) 
energy

$$$$
16:0
     RDKit          3D

 54 57  0  0  0  0  0  0  0  0999 V2000
   60.0000   34.9650   47.8880 C   0  0  0  0  0  0  0  0  0  0  0  0
   60.4050   33.5690   47.5960 N   0  0  2  0  0  0  0  0  0  0  0  0
   61.8010   33.4400   47.1100 C   0  0  0  0  0  0  0  0  0  0  0  0
   62.7790   33.3120   48.2550 C   0  0  0  0  0  0  0  0  0  0  0  0
   62.7700   34.2390   49.3110 C   0  0  0  0  0  0  0  0  0  0  0  0
   63.6570   34.0960   50.3830 C   0  0  0  0  0  0  0  0  0  0  0  0
   64.5540   33.0240   50.4110 C   0  0  0  0  0  0  0  0  0  0  0  0
   64.5620   32.0910   49.3710 C   0  0  0  0  0  0  0  0  0  0  0  0
   63.6770   32.2310   48.2970 C   0  0  0  0  0  0  0  0  0  0  0  0
   59.4430   32.8510   46.7550 C   0  0  0  0  0  0  0  0  0  0  0  0
   59.3600   31.4790   46.6440 C   0  0  0  0  0  0  0  0  0  0  0  0
   60.0690   30.5150   47.5900 C   0  0  0  0  0  0  0  0  0  0  0  0
   59.2680   30.2720   48.8840 C   0  0  0  0  0  0  0  0  0  0  0  0
   59.5760   31.2880   49.9540 C   0  0  0  0  0  0  0  0  0  0  0  0
   58.6630   32.3200   50.2340 C   0  0  0  0  0  0  0  0  0  0  0  0
   58.9740   33.2950   51.1860 C   0  0  0  0  0  0  0  0  0  0  0  0
   60.1950   33.2490   51.8650 C   0  0  0  0  0  0  0  0  0  0  0  0
   61.1060   32.2240   51.5960 C   0  0  0  0  0  0  0  0  0  0  0  0
   60.7980   31.2450   50.6470 C   0  0  0  0  0  0  0  0  0  0  0  0
   58.3790   30.9020   45.6570 C   0  0  0  0  0  0  0  0  0  0  0  0
   58.5080   29.6080   45.1120 C   0  0  0  0  0  0  0  0  0  0  0  0
   57.5270   29.1030   44.2570 C   0  0  0  0  0  0  0  0  0  0  0  0
   56.4280   29.8970   43.9280 C   0  0  0  0  0  0  0  0  0  0  0  0
   55.5290   29.4510   43.1680 O   0  0  0  0  0  0  0  0  0  0  0  0
   56.3320   31.1580   44.4220 N   0  0  0  0  0  0  0  0  0  0  0  0
   57.2770   31.6780   45.2510 C   0  0  0  0  0  0  0  0  0  0  0  0
   57.1350   33.0740   45.7580 C   0  0  0  0  0  0  0  0  0  0  0  0
   58.5250   33.7000   45.8800 C   0  0  0  0  0  0  0  0  0  0  0  0
   59.9568   35.1141   48.9770 H   0  0  0  0  0  0  0  0  0  0  0  0
   60.7340   35.6586   47.4518 H   0  0  0  0  0  0  0  0  0  0  0  0
   59.0088   35.1581   47.4518 H   0  0  0  0  0  0  0  0  0  0  0  0
   60.3870   33.0950   48.5300 H   0  0  0  0  0  0  0  0  0  0  0  0
   61.8765   32.5454   46.4743 H   0  0  0  0  0  0  0  0  0  0  0  0
   62.0529   34.3478   46.5421 H   0  0  0  0  0  0  0  0  0  0  0  0
   62.0622   35.0809   49.2945 H   0  0  0  0  0  0  0  0  0  0  0  0
   63.6488   34.8274   51.2045 H   0  0  0  0  0  0  0  0  0  0  0  0
   65.2540   32.9150   51.2525 H   0  0  0  0  0  0  0  0  0  0  0  0
   65.2651   31.2454   49.3969 H   0  0  0  0  0  0  0  0  0  0  0  0
   63.6836   31.4924   47.4819 H   0  0  0  0  0  0  0  0  0  0  0  0
   60.2099   29.5532   47.0751 H   0  0  0  0  0  0  0  0  0  0  0  0
   61.0328   30.9652   47.8698 H   0  0  0  0  0  0  0  0  0  0  0  0
   58.1946   30.3220   48.6489 H   0  0  0  0  0  0  0  0  0  0  0  0
   59.5520   29.2825   49.2716 H   0  0  0  0  0  0  0  0  0  0  0  0
   57.7009   32.3602   49.7022 H   0  0  0  0  0  0  0  0  0  0  0  0
   58.2563   34.1003   51.4014 H   0  0  0  0  0  0  0  0  0  0  0  0
   60.4388   34.0197   52.6111 H   0  0  0  0  0  0  0  0  0  0  0  0
   62.0662   32.1876   52.1315 H   0  0  0  0  0  0  0  0  0  0  0  0
   61.5155   30.4370   50.4416 H   0  0  0  0  0  0  0  0  0  0  0  0
   59.3857   28.9937   45.3617 H   0  0  0  0  0  0  0  0  0  0  0  0
   57.6197   28.0870   43.8458 H   0  0  0  0  0  0  0  0  0  0  0  0
   56.5256   33.6618   45.0558 H   0  0  0  0  0  0  0  0  0  0  0  0
   56.6424   33.0652   46.7415 H   0  0  0  0  0  0  0  0  0  0  0  0
   58.9674   33.7877   44.8767 H   0  0  0  0  0  0  0  0  0  0  0  0
   58.4191   34.6900   46.3477 H   0  0  0  0  0  0  0  0  0  0  0  0
  1  2  1  0
  2  3  1  0
  3  4  1  0
  4  5  2  0
  5  6  1  0
  6  7  2  0
  7  8  1  0
  8  9  2  0
  2 10  1  0
 10 11  2  0
 11 12  1  0
 12 13  1  0
 13 14  1  0
 14 15  2  0
 15 16  1  0
 16 17  2  0
 17 18  1  0
 18 19  2  0
 11 20  1  0
 20 21  1  0
 21 22  2  0
 22 23  1  0
 23 24  2  0
 23 25  1  0
 25 26  1  0
 26 27  1  0
 27 28  1  0
  9  4  1  0
 28 10  1  0
 19 14  1  0
 26 20  2  0
  1 29  1  0
  1 30  1  0
  1 31  1  0
  2 32  1  1
  3 33  1  0
  3 34  1  0
  5 35  1  0
  6 36  1  0
  7 37  1  0
  8 38  1  0
  9 39  1  0
 12 40  1  0
 12 41  1  0
 13 42  1  0
 13 43  1  0
 15 44  1  0
 16 45  1  0
 17 46  1  0
 18 47  1  0
 19 48  1  0
 21 49  1  0
 22 50  1  0
 27 51  1  0
 27 52  1  0
 28 53  1  0
 28 54  1  0
M  CHG  2   2   1  25  -1
M  END
>  <UniqueID>  (17) 
16

>  <SMILES>  (17) 
C[N@H+](Cc1ccccc1)C1=C(CCc2ccccc2)c2ccc(=O)[n-]c2CC1

>  <Energy>  (17) 
72.8872738589716

>  <Genealogy>  (17) 
C[NH+](Cc1ccccc1)C1=C(CCc2ccccc2)c2ccc(=O)[n-]c2CC1 (protonated)
C[N@H+](Cc1ccccc1)C1=C(CCc2ccccc2)c2ccc(=O)[n-]c2CC1 (chirality)
C[N@H+](Cc1ccccc1)C1=C(CCc2ccccc2)c2ccc(=O)[n-]c2CC1 (3D coordinates assigned)
C[N@H+](Cc1ccccc1)C1=C(CCc2ccccc2)c2ccc(=O)[n-]c2CC1 (nonaromatic ring conformer: 72.8872738589716 kcal/mol)

>  <smiles>  (17) 
CN(Cc1ccccc1)C1=C(CCc2ccccc2)c2ccc(=O)[nH]c2CC1

>  <score_type>  (17) 
oracle

>  <origin>  (17) 
adg

>  <m_score__min__energy>  (17) 
-8.6099999999999994

>  <m_primary>  (17) 
energy

$$$$
17:0
     RDKit          3D

 43 43  0  0  0  0  0  0  0  0999 V2000
   59.3080   30.7200   48.0260 C   0  0  0  0  0  0  0  0  0  0  0  0
   58.3090   30.3620   46.9230 C   0  0  0  0  0  0  0  0  0  0  0  0
   58.7290   29.1680   46.0240 C   0  0  2  0  0  0  0  0  0  0  0  0
   60.2180   29.2850   45.6400 C   0  0  0  0  0  0  0  0  0  0  0  0
   57.8220   28.9840   44.7660 C   0  0  1  0  0  0  0  0  0  0  0  0
   57.4290   27.5720   44.5610 N   0  0  0  0  0  0  0  0  0  0  0  0
   57.7530   26.7050   45.7020 C   0  0  0  0  0  0  0  0  0  0  0  0
   56.4980   26.1620   46.3200 C   0  0  0  0  0  0  0  0  0  0  0  0
   55.2260   26.6980   45.9570 N   0  0  0  0  0  0  0  0  0  0  0  0
   56.5660   25.2310   47.1660 O   0  0  0  0  0  0  0  0  0  0  0  0
   56.5500   29.7810   44.8640 C   0  0  0  0  0  0  0  0  0  0  0  0
   55.4730   29.1950   45.1550 O   0  0  0  0  0  0  0  0  0  0  0  0
   56.5880   31.2100   44.7660 N   0  0  0  0  0  0  0  0  0  0  0  0
   57.7130   31.9550   44.2020 C   0  0  1  0  0  0  0  0  0  0  0  0
   57.7880   31.6960   42.7220 C   0  0  0  0  0  0  0  0  0  0  0  0
   56.8670   31.1390   42.1470 O   0  0  0  0  0  0  0  0  0  0  0  0
   57.6040   33.4630   44.5060 C   0  0  0  0  0  0  0  0  0  0  0  0
   58.4170   33.8840   45.6950 C   0  0  0  0  0  0  0  0  0  0  0  0
   59.5870   34.6060   45.6670 C   0  0  0  0  0  0  0  0  0  0  0  0
   59.9950   34.8230   46.9280 N   0  0  0  0  0  0  0  0  0  0  0  0
   59.0530   34.2230   47.6870 C   0  0  0  0  0  0  0  0  0  0  0  0
   58.0720   33.6390   46.9700 N   0  0  0  0  0  0  0  0  0  0  0  0
   58.8438   30.5536   49.0093 H   0  0  0  0  0  0  0  0  0  0  0  0
   60.2021   30.0863   47.9307 H   0  0  0  0  0  0  0  0  0  0  0  0
   59.5961   31.7773   47.9307 H   0  0  0  0  0  0  0  0  0  0  0  0
   57.3497   30.1106   47.3991 H   0  0  0  0  0  0  0  0  0  0  0  0
   58.2502   31.2399   46.2628 H   0  0  0  0  0  0  0  0  0  0  0  0
   58.5856   28.2552   46.6208 H   0  0  0  0  0  0  0  0  0  0  0  0
   60.8295   29.3330   46.5531 H   0  0  0  0  0  0  0  0  0  0  0  0
   60.5137   28.4073   45.0465 H   0  0  0  0  0  0  0  0  0  0  0  0
   60.3729   30.1981   45.0465 H   0  0  0  0  0  0  0  0  0  0  0  0
   58.4332   29.3371   43.9223 H   0  0  0  0  0  0  0  0  0  0  0  0
   56.4120   27.4820   44.3340 H   0  0  0  0  0  0  0  0  0  0  0  0
   58.3776   25.8684   45.3555 H   0  0  0  0  0  0  0  0  0  0  0  0
   58.2952   27.2951   46.4556 H   0  0  0  0  0  0  0  0  0  0  0  0
   55.1580   27.4810   45.2710 H   0  0  0  0  0  0  0  0  0  0  0  0
   54.3520   26.3240   46.3890 H   0  0  0  0  0  0  0  0  0  0  0  0
   58.6433   31.6062   44.6742 H   0  0  0  0  0  0  0  0  0  0  0  0
   58.6771   32.0101   42.1556 H   0  0  0  0  0  0  0  0  0  0  0  0
   57.9537   34.0236   43.6265 H   0  0  0  0  0  0  0  0  0  0  0  0
   56.5499   33.6756   44.7375 H   0  0  0  0  0  0  0  0  0  0  0  0
   60.1046   34.9499   44.7593 H   0  0  0  0  0  0  0  0  0  0  0  0
   59.0832   34.2118   48.7865 H   0  0  0  0  0  0  0  0  0  0  0  0
  1  2  1  0
  2  3  1  0
  3  4  1  0
  3  5  1  0
  5  6  1  0
  6  7  1  0
  7  8  1  0
  8  9  1  0
  8 10  2  0
  5 11  1  0
 11 12  2  0
 11 13  1  0
 13 14  1  0
 14 15  1  0
 15 16  2  0
 14 17  1  0
 17 18  1  0
 18 19  2  0
 19 20  1  0
 20 21  1  0
 21 22  2  0
 22 18  1  0
  1 23  1  0
  1 24  1  0
  1 25  1  0
  2 26  1  0
  2 27  1  0
  3 28  1  1
  4 29  1  0
  4 30  1  0
  4 31  1  0
  5 32  1  6
  6 33  1  0
  7 34  1  0
  7 35  1  0
  9 36  1  0
  9 37  1  0
 14 38  1  1
 15 39  1  0
 17 40  1  0
 17 41  1  0
 19 42  1  0
 21 43  1  0
M  CHG  2  13  -1  20  -1
M  END
>  <UniqueID>  (18) 
17

>  <SMILES>  (18) 
CC[C@H](C)[C@@H](NCC(N)=O)C(=O)[N-]C(C=O)Cc1c[n-]cn1

>  <Energy>  (18) 
58.819403445916166

>  <Genealogy>  (18) 
CCC(C)C(NCC(N)=O)C(=O)[N-]C(C=O)Cc1c[n-]cn1 (protonated)
CC[C@H](C)[C@@H](NCC(N)=O)C(=O)[N-]C(C=O)Cc1c[n-]cn1 (chirality)
CC[C@H](C)[C@@H](NCC(N)=O)C(=O)[N-]C(C=O)Cc1c[n-]cn1 (3D coordinates assigned)
CC[C@H](C)[C@@H](NCC(N)=O)C(=O)[N-]C(C=O)Cc1c[n-]cn1 (optimized conformer: 58.819403445916166 kcal/mol)

>  <smiles>  (18) 
CCC(C)C(NCC(N)=O)C(=O)NC(C=O)Cc1c[nH]cn1

>  <score_type>  (18) 
oracle

>  <origin>  (18) 
adg

>  <m_score__min__energy>  (18) 
-10.34

>  <m_primary>  (18) 
energy

$$$$
18:0
     RDKit          3D

 58 61  0  0  0  0  0  0  0  0999 V2000
   57.0200   33.1590   47.8710 N   0  0  0  0  0  0  0  0  0  0  0  0
   58.3210   32.7990   47.4830 N   0  0  0  0  0  0  0  0  0  0  0  0
   59.0120   33.2790   46.4360 C   0  0  0  0  0  0  0  0  0  0  0  0
   58.3530   34.3870   45.1870 S   0  0  0  0  0  0  0  0  0  0  0  0
   58.1870   33.0920   43.9120 C   0  0  0  0  0  0  0  0  0  0  0  0
   57.6910   31.8190   44.5250 C   0  0  0  0  0  0  0  0  0  0  0  0
   56.4510   31.5970   44.5760 O   0  0  0  0  0  0  0  0  0  0  0  0
   58.6270   30.8710   45.0610 N   0  0  0  0  0  0  0  0  0  0  0  0
   58.2830   29.5220   45.4150 C   0  0  0  0  0  0  0  0  0  0  0  0
   57.8700   28.6300   44.4140 C   0  0  0  0  0  0  0  0  0  0  0  0
   57.5200   27.3160   44.7370 C   0  0  0  0  0  0  0  0  0  0  0  0
   57.5590   26.8830   46.0700 C   0  0  0  0  0  0  0  0  0  0  0  0
   57.1650   25.2110   46.4730 S   0  0  0  0  0  0  0  0  0  0  0  0
   57.5810   24.9350   47.8920 O   0  0  0  0  0  0  0  0  0  0  0  0
   55.6780   25.0120   46.3820 O   0  0  0  0  0  0  0  0  0  0  0  0
   57.9660   24.0970   45.3870 N   0  0  0  0  0  0  0  0  0  0  0  0
   57.7610   22.6920   45.8250 C   0  0  0  0  0  0  0  0  0  0  0  0
   57.9620   21.6160   44.7310 C   0  0  0  0  0  0  0  0  0  0  0  0
   56.7230   21.2950   43.8570 C   0  0  0  0  0  0  0  0  0  0  0  0
   56.2480   22.4310   42.9350 C   0  0  0  0  0  0  0  0  0  0  0  0
   56.2200   23.8210   43.6000 C   0  0  0  0  0  0  0  0  0  0  0  0
   57.5890   24.4020   43.9910 C   0  0  0  0  0  0  0  0  0  0  0  0
   57.9420   27.7780   47.0760 C   0  0  0  0  0  0  0  0  0  0  0  0
   58.2990   29.0910   46.7530 C   0  0  0  0  0  0  0  0  0  0  0  0
   60.2920   32.8600   46.4640 N   0  0  0  0  0  0  0  0  0  0  0  0
   60.4290   32.1080   47.5480 N   0  0  0  0  0  0  0  0  0  0  0  0
   59.2280   32.0720   48.1650 C   0  0  0  0  0  0  0  0  0  0  0  0
   58.9800   31.3220   49.4130 C   0  0  0  0  0  0  0  0  0  0  0  0
   58.2720   31.9220   50.4650 C   0  0  0  0  0  0  0  0  0  0  0  0
   58.0520   31.2190   51.6510 C   0  0  0  0  0  0  0  0  0  0  0  0
   58.5600   29.9260   51.7840 C   0  0  0  0  0  0  0  0  0  0  0  0
   59.2670   29.3660   50.7680 N   0  0  0  0  0  0  0  0  0  0  0  0
   59.4920   30.0280   49.6010 C   0  0  0  0  0  0  0  0  0  0  0  0
   56.4320   33.7800   47.2730 H   0  0  0  0  0  0  0  0  0  0  0  0
   56.5830   32.7400   48.7200 H   0  0  0  0  0  0  0  0  0  0  0  0
   57.4734   33.4274   43.1450 H   0  0  0  0  0  0  0  0  0  0  0  0
   59.1718   32.9098   43.4570 H   0  0  0  0  0  0  0  0  0  0  0  0
   59.5950   31.2060   45.2720 H   0  0  0  0  0  0  0  0  0  0  0  0
   57.8213   28.9670   43.3680 H   0  0  0  0  0  0  0  0  0  0  0  0
   57.2130   26.6194   43.9430 H   0  0  0  0  0  0  0  0  0  0  0  0
   58.4709   22.4840   46.6391 H   0  0  0  0  0  0  0  0  0  0  0  0
   56.7057   22.6213   46.1273 H   0  0  0  0  0  0  0  0  0  0  0  0
   58.7646   21.9614   44.0628 H   0  0  0  0  0  0  0  0  0  0  0  0
   58.1936   20.6854   45.2698 H   0  0  0  0  0  0  0  0  0  0  0  0
   56.9690   20.4278   43.2265 H   0  0  0  0  0  0  0  0  0  0  0  0
   55.8972   21.1132   44.5606 H   0  0  0  0  0  0  0  0  0  0  0  0
   56.9251   22.4773   42.0693 H   0  0  0  0  0  0  0  0  0  0  0  0
   55.2104   22.1956   42.6557 H   0  0  0  0  0  0  0  0  0  0  0  0
   55.7437   24.5216   42.8983 H   0  0  0  0  0  0  0  0  0  0  0  0
   55.6697   23.6905   44.5435 H   0  0  0  0  0  0  0  0  0  0  0  0
   58.3532   23.9810   43.3211 H   0  0  0  0  0  0  0  0  0  0  0  0
   57.5216   25.4961   43.8989 H   0  0  0  0  0  0  0  0  0  0  0  0
   57.9622   27.4471   48.1249 H   0  0  0  0  0  0  0  0  0  0  0  0
   58.5937   29.7899   47.5497 H   0  0  0  0  0  0  0  0  0  0  0  0
   57.8897   32.9476   50.3553 H   0  0  0  0  0  0  0  0  0  0  0  0
   57.4838   31.6797   52.4725 H   0  0  0  0  0  0  0  0  0  0  0  0
   58.3880   29.3602   52.7115 H   0  0  0  0  0  0  0  0  0  0  0  0
   60.0767   29.5482   48.8023 H   0  0  0  0  0  0  0  0  0  0  0  0
  1  2  1  0
  2  3  1  0
  3  4  1  0
  4  5  1  0
  5  6  1  0
  6  7  2  0
  6  8  1  0
  8  9  1  0
  9 10  2  0
 10 11  1  0
 11 12  2  0
 12 13  1  0
 13 14  2  0
 13 15  2  0
 13 16  1  0
 16 17  1  0
 17 18  1  0
 18 19  1  0
 19 20  1  0
 20 21  1  0
 21 22  1  0
 12 23  1  0
 23 24  2  0
  3 25  2  0
 25 26  1  0
 26 27  2  0
 27 28  1  0
 28 29  2  0
 29 30  1  0
 30 31  2  0
 31 32  1  0
 32 33  2  0
 27  2  1  0
 33 28  1  0
 24  9  1  0
 22 16  1  0
  1 34  1  0
  1 35  1  0
  5 36  1  0
  5 37  1  0
  8 38  1  0
 10 39  1  0
 11 40  1  0
 17 41  1  0
 17 42  1  0
 18 43  1  0
 18 44  1  0
 19 45  1  0
 19 46  1  0
 20 47  1  0
 20 48  1  0
 21 49  1  0
 21 50  1  0
 22 51  1  0
 22 52  1  0
 23 53  1  0
 24 54  1  0
 29 55  1  0
 30 56  1  0
 31 57  1  0
 33 58  1  0
M  END
>  <UniqueID>  (19) 
18

>  <SMILES>  (19) 
Nn1c(SCC(=O)Nc2ccc(S(=O)(=O)N3CCCCCC3)cc2)nnc1-c1cccnc1

>  <Energy>  (19) 
112.29650483691965

>  <Genealogy>  (19) 
Nn1c(SCC(=O)Nc2ccc(S(=O)(=O)N3CCCCCC3)cc2)nnc1-c1cccnc1 (3D coordinates assigned)
Nn1c(SCC(=O)Nc2ccc(S(=O)(=O)N3CCCCCC3)cc2)nnc1-c1cccnc1 (nonaromatic ring conformer: 112.29650483691965 kcal/mol)

>  <smiles>  (19) 
Nn1c(SCC(=O)Nc2ccc(S(=O)(=O)N3CCCCCC3)cc2)nnc1-c1cccnc1

>  <score_type>  (19) 
oracle

>  <origin>  (19) 
adg

>  <m_score__min__energy>  (19) 
-7.3300000000000001

>  <m_primary>  (19) 
energy

$$$$
19:0
     RDKit          3D

 43 45  0  0  0  0  0  0  0  0999 V2000
   64.5940   33.2690   50.8450 C   0  0  0  0  0  0  0  0  0  0  0  0
   63.7570   34.1750   50.1340 O   0  0  0  0  0  0  0  0  0  0  0  0
   62.6910   33.7880   49.3060 C   0  0  0  0  0  0  0  0  0  0  0  0
   62.8170   33.7270   47.9070 C   0  0  0  0  0  0  0  0  0  0  0  0
   61.7360   33.3360   47.1150 C   0  0  0  0  0  0  0  0  0  0  0  0
   60.5090   32.9890   47.7010 C   0  0  0  0  0  0  0  0  0  0  0  0
   59.3700   32.5810   46.8380 C   0  0  0  0  0  0  0  0  0  0  0  0
   58.3870   33.4900   46.4270 C   0  0  0  0  0  0  0  0  0  0  0  0
   57.3490   33.0490   45.6140 C   0  0  0  0  0  0  0  0  0  0  0  0
   57.2970   31.7100   45.2310 C   0  0  0  0  0  0  0  0  0  0  0  0
   56.3750   31.3220   44.4630 O   0  0  0  0  0  0  0  0  0  0  0  0
   58.2580   30.8400   45.6790 N   0  0  0  0  0  0  0  0  0  0  0  0
   58.2420   29.4440   45.3270 C   0  0  0  0  0  0  0  0  0  0  0  0
   59.0020   28.9630   44.2460 C   0  0  0  0  0  0  0  0  0  0  0  0
   58.9510   27.6130   43.8920 C   0  0  0  0  0  0  0  0  0  0  0  0
   58.1400   26.7290   44.6080 C   0  0  0  0  0  0  0  0  0  0  0  0
   57.3740   27.1920   45.6880 C   0  0  0  0  0  0  0  0  0  0  0  0
   56.4650   26.2500   46.4300 C   0  0  0  0  0  0  0  0  0  0  0  0
   55.1280   26.6110   46.2240 O   0  0  0  0  0  0  0  0  0  0  0  0
   57.4140   28.5520   46.0310 C   0  0  0  0  0  0  0  0  0  0  0  0
   59.2590   31.2820   46.4470 N   0  0  0  0  0  0  0  0  0  0  0  0
   60.3790   33.0630   49.1000 C   0  0  0  0  0  0  0  0  0  0  0  0
   61.4670   33.4580   49.9060 C   0  0  0  0  0  0  0  0  0  0  0  0
   61.3690   33.5370   51.3040 O   0  0  0  0  0  0  0  0  0  0  0  0
   60.1480   33.4780   52.0340 C   0  0  0  0  0  0  0  0  0  0  0  0
   64.4581   33.4161   51.9266 H   0  0  0  0  0  0  0  0  0  0  0  0
   64.3256   32.2360   50.5789 H   0  0  0  0  0  0  0  0  0  0  0  0
   65.6450   33.4549   50.5789 H   0  0  0  0  0  0  0  0  0  0  0  0
   63.7744   33.9893   47.4331 H   0  0  0  0  0  0  0  0  0  0  0  0
   61.8470   33.2995   46.0212 H   0  0  0  0  0  0  0  0  0  0  0  0
   58.4357   34.5421   46.7442 H   0  0  0  0  0  0  0  0  0  0  0  0
   56.5739   33.7522   45.2753 H   0  0  0  0  0  0  0  0  0  0  0  0
   59.6403   29.6541   43.6759 H   0  0  0  0  0  0  0  0  0  0  0  0
   59.5511   27.2446   43.0469 H   0  0  0  0  0  0  0  0  0  0  0  0
   58.1021   25.6670   44.3240 H   0  0  0  0  0  0  0  0  0  0  0  0
   56.6259   25.2252   46.0642 H   0  0  0  0  0  0  0  0  0  0  0  0
   56.6911   26.3029   47.5052 H   0  0  0  0  0  0  0  0  0  0  0  0
   54.7240   26.7290   47.1230 H   0  0  0  0  0  0  0  0  0  0  0  0
   56.7918   28.9238   46.8584 H   0  0  0  0  0  0  0  0  0  0  0  0
   59.4176   32.8098   49.5707 H   0  0  0  0  0  0  0  0  0  0  0  0
   60.3647   33.4885   53.1124 H   0  0  0  0  0  0  0  0  0  0  0  0
   59.5247   34.3471   51.7768 H   0  0  0  0  0  0  0  0  0  0  0  0
   59.6114   32.5529   51.7768 H   0  0  0  0  0  0  0  0  0  0  0  0
  1  2  1  0
  2  3  1  0
  3  4  2  0
  4  5  1  0
  5  6  2  0
  6  7  1  0
  7  8  1  0
  8  9  2  0
  9 10  1  0
 10 11  2  0
 10 12  1  0
 12 13  1  0
 13 14  2  0
 14 15  1  0
 15 16  2  0
 16 17  1  0
 17 18  1  0
 18 19  1  0
 17 20  2  0
 12 21  1  0
  6 22  1  0
 22 23  2  0
 23 24  1  0
 24 25  1  0
 23  3  1  0
 21  7  2  0
 20 13  1  0
  1 26  1  0
  1 27  1  0
  1 28  1  0
  4 29  1  0
  5 30  1  0
  8 31  1  0
  9 32  1  0
 14 33  1  0
 15 34  1  0
 16 35  1  0
 18 36  1  0
 18 37  1  0
 19 38  1  0
 20 39  1  0
 22 40  1  0
 25 41  1  0
 25 42  1  0
 25 43  1  0
M  END
>  <UniqueID>  (20) 
19

>  <SMILES>  (20) 
COc1ccc(-c2ccc(=O)n(-c3cccc(CO)c3)n2)cc1OC

>  <Energy>  (20) 
55.42918612256462

>  <Genealogy>  (20) 
COc1ccc(-c2ccc(=O)n(-c3cccc(CO)c3)n2)cc1OC (3D coordinates assigned)
COc1ccc(-c2ccc(=O)n(-c3cccc(CO)c3)n2)cc1OC (optimized conformer: 55.42918612256462 kcal/mol)

>  <smiles>  (20) 
COc1ccc(-c2ccc(=O)n(-c3cccc(CO)c3)n2)cc1OC

>  <score_type>  (20) 
oracle

>  <origin>  (20) 
adg

>  <m_score__min__energy>  (20) 
-8.3900000000000006

>  <m_primary>  (20) 
energy

$$$$
20:0
     RDKit          3D

 37 38  0  0  0  0  0  0  0  0999 V2000
   56.2610   21.4680   44.5940 C   0  0  0  0  0  0  0  0  0  0  0  0
   55.9930   22.8880   45.0070 C   0  0  0  0  0  0  0  0  0  0  0  0
   57.0180   23.8420   44.9920 C   0  0  0  0  0  0  0  0  0  0  0  0
   56.7720   25.1370   45.3530 N   0  0  0  0  0  0  0  0  0  0  0  0
   57.8720   26.1150   45.3040 C   0  0  0  0  0  0  0  0  0  0  0  0
   58.1470   26.6740   46.7040 C   0  0  0  0  0  0  0  0  0  0  0  0
   58.7670   28.0740   46.6280 C   0  0  0  0  0  0  0  0  0  0  0  0
   57.7350   29.0800   46.3790 N   0  0  0  0  0  0  0  0  0  0  0  0
   57.3980   29.6040   45.2300 C   0  0  0  0  0  0  0  0  0  0  0  0
   56.5950   28.9350   44.3420 N   0  0  0  0  0  0  0  0  0  0  0  0
   56.2450   29.4770   43.1450 C   0  0  0  0  0  0  0  0  0  0  0  0
   56.6970   30.7440   42.7860 C   0  0  0  0  0  0  0  0  0  0  0  0
   57.5110   31.4530   43.6660 C   0  0  0  0  0  0  0  0  0  0  0  0
   57.8700   30.8930   44.8990 C   0  0  0  0  0  0  0  0  0  0  0  0
   58.7540   31.6640   45.8440 C   0  0  0  0  0  0  0  0  0  0  0  0
   55.5020   25.5180   45.6970 C   0  0  0  0  0  0  0  0  0  0  0  0
   55.2460   26.7130   46.0070 O   0  0  0  0  0  0  0  0  0  0  0  0
   54.4940   24.6070   45.7030 N   0  0  0  0  0  0  0  0  0  0  0  0
   54.7080   23.3110   45.3680 C   0  0  0  0  0  0  0  0  0  0  0  0
   53.7440   22.5000   45.3810 O   0  0  0  0  0  0  0  0  0  0  0  0
   56.3792   20.8415   45.4904 H   0  0  0  0  0  0  0  0  0  0  0  0
   55.4174   21.0950   43.9947 H   0  0  0  0  0  0  0  0  0  0  0  0
   57.1825   21.4282   43.9947 H   0  0  0  0  0  0  0  0  0  0  0  0
   58.0323   23.5458   44.6863 H   0  0  0  0  0  0  0  0  0  0  0  0
   58.7795   25.6222   44.9250 H   0  0  0  0  0  0  0  0  0  0  0  0
   57.5869   26.9422   44.6373 H   0  0  0  0  0  0  0  0  0  0  0  0
   57.1999   26.7304   47.2606 H   0  0  0  0  0  0  0  0  0  0  0  0
   58.8562   26.0053   47.2138 H   0  0  0  0  0  0  0  0  0  0  0  0
   59.2695   28.2993   47.5803 H   0  0  0  0  0  0  0  0  0  0  0  0
   59.4921   28.0969   45.8011 H   0  0  0  0  0  0  0  0  0  0  0  0
   56.2180   27.9860   44.5560 H   0  0  0  0  0  0  0  0  0  0  0  0
   55.6008   28.9109   42.4561 H   0  0  0  0  0  0  0  0  0  0  0  0
   56.4140   31.1807   41.8169 H   0  0  0  0  0  0  0  0  0  0  0  0
   57.8729   32.4551   43.3923 H   0  0  0  0  0  0  0  0  0  0  0  0
   58.4788   31.4240   46.8816 H   0  0  0  0  0  0  0  0  0  0  0  0
   59.8047   31.3886   45.6702 H   0  0  0  0  0  0  0  0  0  0  0  0
   58.6240   32.7424   45.6702 H   0  0  0  0  0  0  0  0  0  0  0  0
  1  2  1  0
  2  3  2  0
  3  4  1  0
  4  5  1  0
  5  6  1  0
  6  7  1  0
  7  8  1  0
  8  9  2  3
  9 10  1  0
 10 11  1  0
 11 12  2  0
 12 13  1  0
 13 14  2  0
 14 15  1  0
  4 16  1  0
 16 17  2  0
 16 18  1  0
 18 19  1  0
 19 20  2  0
 19  2  1  0
 14  9  1  0
  1 21  1  0
  1 22  1  0
  1 23  1  0
  3 24  1  0
  5 25  1  0
  5 26  1  0
  6 27  1  0
  6 28  1  0
  7 29  1  0
  7 30  1  0
 10 31  1  0
 11 32  1  0
 12 33  1  0
 13 34  1  0
 15 35  1  0
 15 36  1  0
 15 37  1  0
M  CHG  1  18  -1
M  END
>  <UniqueID>  (21) 
20

>  <SMILES>  (21) 
Cc1cn(CCCN=c2[nH]cccc2C)c(=O)[n-]c1=O

>  <Energy>  (21) 
37.75252511820407

>  <Genealogy>  (21) 
Cc1cn(CCCN=c2[nH]cccc2C)c(=O)[n-]c1=O (protonated)
Cc1cn(CCCN=c2[nH]cccc2C)c(=O)[n-]c1=O (3D coordinates assigned)
Cc1cn(CCCN=c2[nH]cccc2C)c(=O)[n-]c1=O (optimized conformer: 37.75252511820407 kcal/mol)

>  <smiles>  (21) 
Cc1cn(CCCN=c2[nH]cccc2C)c(=O)[nH]c1=O

>  <score_type>  (21) 
oracle

>  <origin>  (21) 
adg

>  <m_score__min__energy>  (21) 
-8.5500000000000007

>  <m_primary>  (21) 
energy

$$$$
21:0
     RDKit          3D

 42 44  0  0  1  0  0  0  0  0999 V2000
   59.6580   35.0950   46.0000 C   0  0  0  0  0  0  0  0  0  0  0  0
   58.7080   34.5230   44.9690 C   0  0  0  0  0  0  0  0  0  0  0  0
   57.5720   33.7670   45.6310 C   0  0  0  0  0  0  0  0  0  0  0  0
   57.8600   33.6360   47.0960 C   0  0  0  0  0  0  0  0  0  0  0  0
   58.4960   32.3080   47.3580 C   0  0  0  0  0  0  0  0  0  0  0  0
   58.8800   31.6110   46.2750 N   0  0  0  0  0  0  0  0  0  0  0  0
   59.4510   30.4160   46.5500 C   0  0  0  0  0  0  0  0  0  0  0  0
   59.8360   29.7070   45.5890 N   0  0  0  0  0  0  0  0  0  0  0  0
   59.1330   29.1730   44.4880 C   0  0  0  0  0  0  0  0  0  0  0  0
   57.6450   29.3080   44.6310 C   0  0  0  0  0  0  0  0  0  0  0  0
   56.8450   30.3380   44.1130 C   0  0  0  0  0  0  0  0  0  0  0  0
   57.3950   31.4650   43.3350 C   0  0  0  0  0  0  0  0  0  0  0  0
   55.5500   30.0920   44.4590 N   0  0  0  0  0  0  0  0  0  0  0  0
   55.5340   28.9950   45.1400 O   0  0  0  0  0  0  0  0  0  0  0  0
   56.7550   28.4870   45.2710 C   0  0  0  0  0  0  0  0  0  0  0  0
   57.0170   27.2400   46.0030 C   0  0  0  0  0  0  0  0  0  0  0  0
   59.6170   29.9630   47.8420 C   0  0  0  0  0  0  0  0  0  0  0  0
   60.2950   28.5170   48.4250 S   0  0  0  0  0  0  0  0  0  0  0  0
   60.0150   28.9390   50.2170 C   0  0  0  0  0  0  0  0  0  0  0  0
   59.4180   30.1720   50.1530 C   0  0  0  0  0  0  0  0  0  0  0  0
   59.2210   30.6840   48.9240 C   0  0  0  0  0  0  0  0  0  0  0  0
   58.6410   31.9030   48.6220 N   0  0  0  0  0  0  0  0  0  0  0  0
   59.2831   34.8693   47.0092 H   0  0  0  0  0  0  0  0  0  0  0  0
   60.6538   34.6462   45.8699 H   0  0  0  0  0  0  0  0  0  0  0  0
   59.7273   36.1851   45.8699 H   0  0  0  0  0  0  0  0  0  0  0  0
   58.2906   35.3457   44.3699 H   0  0  0  0  0  0  0  0  0  0  0  0
   59.2669   33.8233   44.3301 H   0  0  0  0  0  0  0  0  0  0  0  0
   56.6304   34.3174   45.4882 H   0  0  0  0  0  0  0  0  0  0  0  0
   57.4787   32.7679   45.1803 H   0  0  0  0  0  0  0  0  0  0  0  0
   58.5435   34.4389   47.4093 H   0  0  0  0  0  0  0  0  0  0  0  0
   56.9214   33.7136   47.6644 H   0  0  0  0  0  0  0  0  0  0  0  0
   59.4488   29.7038   43.5777 H   0  0  0  0  0  0  0  0  0  0  0  0
   59.3658   28.0993   44.4339 H   0  0  0  0  0  0  0  0  0  0  0  0
   57.7714   32.2364   44.0230 H   0  0  0  0  0  0  0  0  0  0  0  0
   58.2189   31.1054   42.7011 H   0  0  0  0  0  0  0  0  0  0  0  0
   56.6046   31.8932   42.7011 H   0  0  0  0  0  0  0  0  0  0  0  0
   56.9762   27.4344   47.0849 H   0  0  0  0  0  0  0  0  0  0  0  0
   56.2565   26.4914   45.7360 H   0  0  0  0  0  0  0  0  0  0  0  0
   58.0144   26.8607   45.7360 H   0  0  0  0  0  0  0  0  0  0  0  0
   60.2667   28.3451   51.1081 H   0  0  0  0  0  0  0  0  0  0  0  0
   59.1154   30.7152   51.0604 H   0  0  0  0  0  0  0  0  0  0  0  0
   58.3000   32.5400   49.3650 H   0  0  0  0  0  0  0  0  0  0  0  0
  1  2  1  0
  2  3  1  0
  3  4  1  0
  4  5  1  0
  5  6  2  0
  6  7  1  0
  7  8  2  0
  8  9  1  0
  9 10  1  0
 10 11  1  0
 11 12  1  0
 11 13  2  0
 13 14  1  0
 14 15  1  0
 15 16  1  0
  7 17  1  0
 17 18  1  0
 18 19  1  0
 19 20  2  0
 20 21  1  0
 21 22  1  0
 22  5  1  0
 15 10  2  0
 21 17  2  0
  1 23  1  0
  1 24  1  0
  1 25  1  0
  2 26  1  0
  2 27  1  0
  3 28  1  0
  3 29  1  0
  4 30  1  0
  4 31  1  0
  9 32  1  0
  9 33  1  0
 12 34  1  0
 12 35  1  0
 12 36  1  0
 16 37  1  0
 16 38  1  0
 16 39  1  0
 19 40  1  0
 20 41  1  0
 22 42  1  0
M  END
>  <smiles>  (22) 
CCCCc1nc(=NCc2c(C)noc2C)c2sccc2[nH]1

>  <score_type>  (22) 
oracle

>  <origin>  (22) 
adg

>  <m_score__min__energy>  (22) 
-7.8700000000000001

>  <m_primary>  (22) 
energy

$$$$
22:0
     RDKit          3D

 35 36  0  0  0  0  0  0  0  0999 V2000
   66.0720   33.7170   51.4890 C   0  0  0  0  0  0  0  0  0  0  0  0
   64.8860   33.5270   50.5900 C   0  0  0  0  0  0  0  0  0  0  0  0
   63.6830   34.2000   50.8540 C   0  0  0  0  0  0  0  0  0  0  0  0
   62.5900   34.0520   49.9950 C   0  0  0  0  0  0  0  0  0  0  0  0
   62.6940   33.2390   48.8590 C   0  0  0  0  0  0  0  0  0  0  0  0
   61.5690   33.0870   47.9750 C   0  0  0  0  0  0  0  0  0  0  0  0
   60.6260   32.9590   47.2340 C   0  0  0  0  0  0  0  0  0  0  0  0
   59.5000   32.8070   46.3510 C   0  0  0  0  0  0  0  0  0  0  0  0
   58.7590   33.9290   45.9610 C   0  0  0  0  0  0  0  0  0  0  0  0
   57.6550   33.7780   45.1160 C   0  0  0  0  0  0  0  0  0  0  0  0
   57.2940   32.5100   44.6530 C   0  0  0  0  0  0  0  0  0  0  0  0
   58.0480   31.3840   45.0130 C   0  0  0  0  0  0  0  0  0  0  0  0
   57.6320   30.0820   44.5660 N   0  0  0  0  0  0  0  0  0  0  0  0
   56.5070   29.8280   43.9490 C   0  0  0  0  0  0  0  0  0  0  0  0
   55.2390   29.9660   44.6050 N   0  0  0  0  0  0  0  0  0  0  0  0
   56.5360   29.3460   42.6030 N   0  0  0  0  0  0  0  0  0  0  0  0
   59.1390   31.5350   45.8870 C   0  0  0  0  0  0  0  0  0  0  0  0
   63.8980   32.5790   48.5830 C   0  0  0  0  0  0  0  0  0  0  0  0
   64.9920   32.7280   49.4400 C   0  0  0  0  0  0  0  0  0  0  0  0
   65.7482   33.6651   52.5390 H   0  0  0  0  0  0  0  0  0  0  0  0
   66.8107   32.9257   51.2936 H   0  0  0  0  0  0  0  0  0  0  0  0
   66.5266   34.6994   51.2936 H   0  0  0  0  0  0  0  0  0  0  0  0
   63.5998   34.8464   51.7402 H   0  0  0  0  0  0  0  0  0  0  0  0
   61.6467   34.5748   50.2115 H   0  0  0  0  0  0  0  0  0  0  0  0
   59.0451   34.9290   46.3191 H   0  0  0  0  0  0  0  0  0  0  0  0
   57.0695   34.6593   44.8152 H   0  0  0  0  0  0  0  0  0  0  0  0
   56.4141   32.3946   44.0030 H   0  0  0  0  0  0  0  0  0  0  0  0
   58.2810   29.2890   44.7720 H   0  0  0  0  0  0  0  0  0  0  0  0
   54.3570   29.8310   44.0640 H   0  0  0  0  0  0  0  0  0  0  0  0
   55.1550   30.0930   45.6380 H   0  0  0  0  0  0  0  0  0  0  0  0
   57.4400   29.2200   42.0940 H   0  0  0  0  0  0  0  0  0  0  0  0
   55.6470   29.1160   42.1050 H   0  0  0  0  0  0  0  0  0  0  0  0
   59.7110   30.6518   46.2076 H   0  0  0  0  0  0  0  0  0  0  0  0
   63.9828   31.9422   47.6901 H   0  0  0  0  0  0  0  0  0  0  0  0
   65.9395   32.2175   49.2128 H   0  0  0  0  0  0  0  0  0  0  0  0
  1  2  1  0
  2  3  2  0
  3  4  1  0
  4  5  2  0
  5  6  1  0
  6  7  3  0
  7  8  1  0
  8  9  2  0
  9 10  1  0
 10 11  2  0
 11 12  1  0
 12 13  1  0
 13 14  2  3
 14 15  1  0
 14 16  1  0
 12 17  2  0
  5 18  1  0
 18 19  2  0
 19  2  1  0
 17  8  1  0
  1 20  1  0
  1 21  1  0
  1 22  1  0
  3 23  1  0
  4 24  1  0
  9 25  1  0
 10 26  1  0
 11 27  1  0
 13 28  1  0
 15 29  1  0
 15 30  1  0
 16 31  1  0
 16 32  1  0
 17 33  1  0
 18 34  1  0
 19 35  1  0
M  CHG  1  13   1
M  END
>  <UniqueID>  (23) 
21

>  <SMILES>  (23) 
Cc1ccc(C#Cc2cccc([NH+]=C(N)N)c2)cc1

>  <Energy>  (23) 
35.681912785697115

>  <Genealogy>  (23) 
Cc1ccc(C#Cc2cccc([NH+]=C(N)N)c2)cc1 (protonated)
Cc1ccc(C#Cc2cccc([NH+]=C(N)N)c2)cc1 (3D coordinates assigned)
Cc1ccc(C#Cc2cccc([NH+]=C(N)N)c2)cc1 (optimized conformer: 35.681912785697115 kcal/mol)

>  <smiles>  (23) 
Cc1ccc(C#Cc2cccc(N=C(N)N)c2)cc1

>  <score_type>  (23) 
oracle

>  <origin>  (23) 
adg

>  <m_score__min__energy>  (23) 
-5.5899999999999999

>  <m_primary>  (23) 
energy

$$$$
23:0
     RDKit          3D

 43 46  0  0  1  0  0  0  0  0999 V2000
   54.3980   23.6920   44.8310 C   0  0  0  0  0  0  0  0  0  0  0  0
   54.7530   24.8810   45.6720 C   0  0  0  0  0  0  0  0  0  0  0  0
   54.0540   25.9280   45.6380 O   0  0  0  0  0  0  0  0  0  0  0  0
   55.8950   24.8140   46.5150 N   0  0  0  0  0  0  0  0  0  0  0  0
   56.7570   25.7660   46.5210 C   0  0  0  0  0  0  0  0  0  0  0  0
   56.6790   26.7330   45.5670 N   0  0  0  0  0  0  0  0  0  0  0  0
   57.5630   27.7610   45.5260 C   0  0  0  0  0  0  0  0  0  0  0  0
   57.4310   28.6430   44.5950 N   0  0  0  0  0  0  0  0  0  0  0  0
   56.3140   29.5230   44.4610 C   0  0  0  0  0  0  0  0  0  0  0  0
   56.5480   30.7030   43.5490 C   0  0  0  0  0  0  0  0  0  0  0  0
   57.2860   31.7940   44.2330 C   0  0  0  0  0  0  0  0  0  0  0  0
   57.4280   32.0150   45.5940 C   0  0  0  0  0  0  0  0  0  0  0  0
   58.1430   33.0720   45.9920 C   0  0  0  0  0  0  0  0  0  0  0  0
   58.4230   33.4950   47.3080 C   0  0  0  0  0  0  0  0  0  0  0  0
   59.1790   34.6110   47.5150 C   0  0  0  0  0  0  0  0  0  0  0  0
   59.7170   35.3940   46.5160 C   0  0  0  0  0  0  0  0  0  0  0  0
   59.4670   35.0150   45.2240 C   0  0  0  0  0  0  0  0  0  0  0  0
   58.6890   33.8690   45.0150 C   0  0  0  0  0  0  0  0  0  0  0  0
   58.1730   33.0940   43.4250 S   0  0  0  0  0  0  0  0  0  0  0  0
   58.5440   27.7910   46.4830 C   0  0  0  0  0  0  0  0  0  0  0  0
   59.4640   28.8240   46.4740 C   0  0  0  0  0  0  0  0  0  0  0  0
   60.4260   28.7980   47.4640 C   0  0  0  0  0  0  0  0  0  0  0  0
   60.4890   27.8110   48.4200 C   0  0  0  0  0  0  0  0  0  0  0  0
   59.5660   26.8160   48.3940 N   0  0  0  0  0  0  0  0  0  0  0  0
   58.5910   26.7850   47.4430 C   0  0  0  0  0  0  0  0  0  0  0  0
   57.7030   25.7770   47.4610 N   0  0  0  0  0  0  0  0  0  0  0  0
   54.1447   22.8436   45.4838 H   0  0  0  0  0  0  0  0  0  0  0  0
   53.5338   23.9369   44.1960 H   0  0  0  0  0  0  0  0  0  0  0  0
   55.2550   23.4230   44.1960 H   0  0  0  0  0  0  0  0  0  0  0  0
   55.9170   26.6580   44.8680 H   0  0  0  0  0  0  0  0  0  0  0  0
   55.4675   28.9444   44.0627 H   0  0  0  0  0  0  0  0  0  0  0  0
   56.1218   29.9366   45.4620 H   0  0  0  0  0  0  0  0  0  0  0  0
   57.1325   30.3694   42.6789 H   0  0  0  0  0  0  0  0  0  0  0  0
   55.5675   31.0956   43.2415 H   0  0  0  0  0  0  0  0  0  0  0  0
   56.9646   31.3385   46.3272 H   0  0  0  0  0  0  0  0  0  0  0  0
   58.0327   32.9264   48.1649 H   0  0  0  0  0  0  0  0  0  0  0  0
   59.3739   34.9084   48.5560 H   0  0  0  0  0  0  0  0  0  0  0  0
   60.3206   36.2842   46.7466 H   0  0  0  0  0  0  0  0  0  0  0  0
   59.8648   35.5926   44.3766 H   0  0  0  0  0  0  0  0  0  0  0  0
   59.4309   29.6231   45.7188 H   0  0  0  0  0  0  0  0  0  0  0  0
   61.1756   29.6026   47.4894 H   0  0  0  0  0  0  0  0  0  0  0  0
   61.2730   27.8277   49.1914 H   0  0  0  0  0  0  0  0  0  0  0  0
   57.7970   25.0510   48.2130 H   0  0  0  0  0  0  0  0  0  0  0  0
  1  2  1  0
  2  3  2  0
  2  4  1  0
  4  5  2  0
  5  6  1  0
  6  7  1  0
  7  8  2  0
  8  9  1  0
  9 10  1  0
 10 11  1  0
 11 12  2  0
 12 13  1  0
 13 14  2  0
 14 15  1  0
 15 16  2  0
 16 17  1  0
 17 18  2  0
 18 19  1  0
  7 20  1  0
 20 21  2  0
 21 22  1  0
 22 23  2  0
 23 24  1  0
 24 25  2  0
 25 26  1  0
 26  5  1  0
 19 11  1  0
 25 20  1  0
 18 13  1  0
  1 27  1  0
  1 28  1  0
  1 29  1  0
  6 30  1  0
  9 31  1  0
  9 32  1  0
 10 33  1  0
 10 34  1  0
 12 35  1  0
 14 36  1  0
 15 37  1  0
 16 38  1  0
 17 39  1  0
 21 40  1  0
 22 41  1  0
 23 42  1  0
 26 43  1  0
M  END
>  <smiles>  (24) 
CC(=O)N=c1[nH]c(=NCCc2cc3ccccc3s2)c2cccnc2[nH]1

>  <score_type>  (24) 
oracle

>  <origin>  (24) 
adg

>  <m_score__min__energy>  (24) 
-9.3800000000000008

>  <m_primary>  (24) 
energy

$$$$
24:0
     RDKit          3D

 38 40  0  0  0  0  0  0  0  0999 V2000
   56.6050   29.9880   43.1790 C   0  0  0  0  0  0  0  0  0  0  0  0
   56.4860   30.4480   44.5210 O   0  0  0  0  0  0  0  0  0  0  0  0
   57.3370   31.3940   45.1120 C   0  0  0  0  0  0  0  0  0  0  0  0
   57.0150   32.7500   44.9850 C   0  0  0  0  0  0  0  0  0  0  0  0
   57.8320   33.7310   45.5560 C   0  0  0  0  0  0  0  0  0  0  0  0
   58.9860   33.3640   46.2590 C   0  0  0  0  0  0  0  0  0  0  0  0
   59.9990   34.5980   47.0050 S   0  0  0  0  0  0  0  0  0  0  0  0
   60.3110   35.6650   45.9940 O   0  0  0  0  0  0  0  0  0  0  0  0
   59.2430   35.2150   48.1490 O   0  0  0  0  0  0  0  0  0  0  0  0
   61.4780   33.8880   47.5820 N   0  0  0  0  0  0  0  0  0  0  0  0
   62.6920   33.8210   46.7860 C   0  0  0  0  0  0  0  0  0  0  0  0
   63.5320   32.7380   47.4790 C   0  0  0  0  0  0  0  0  0  0  0  0
   62.6990   32.2500   48.5680 N   0  0  0  0  0  0  0  0  0  0  0  0
   61.5890   32.9040   48.6030 C   0  0  0  0  0  0  0  0  0  0  0  0
   60.5660   32.6420   49.6350 C   0  0  0  0  0  0  0  0  0  0  0  0
   59.8880   31.4130   49.6780 C   0  0  0  0  0  0  0  0  0  0  0  0
   58.9120   31.1780   50.6510 C   0  0  0  0  0  0  0  0  0  0  0  0
   58.5970   32.1730   51.5810 C   0  0  0  0  0  0  0  0  0  0  0  0
   59.2510   33.4070   51.5320 C   0  0  0  0  0  0  0  0  0  0  0  0
   60.2270   33.6450   50.5600 C   0  0  0  0  0  0  0  0  0  0  0  0
   59.3100   32.0080   46.3970 C   0  0  0  0  0  0  0  0  0  0  0  0
   58.4940   31.0270   45.8270 C   0  0  0  0  0  0  0  0  0  0  0  0
   56.8805   28.9231   43.1795 H   0  0  0  0  0  0  0  0  0  0  0  0
   55.6437   30.1178   42.6603 H   0  0  0  0  0  0  0  0  0  0  0  0
   57.3827   30.5677   42.6603 H   0  0  0  0  0  0  0  0  0  0  0  0
   56.1119   33.0467   44.4315 H   0  0  0  0  0  0  0  0  0  0  0  0
   57.5673   34.7937   45.4526 H   0  0  0  0  0  0  0  0  0  0  0  0
   62.4640   33.5347   45.7487 H   0  0  0  0  0  0  0  0  0  0  0  0
   63.2133   34.7878   46.7272 H   0  0  0  0  0  0  0  0  0  0  0  0
   63.7666   31.9237   46.7776 H   0  0  0  0  0  0  0  0  0  0  0  0
   64.4937   33.1312   47.8404 H   0  0  0  0  0  0  0  0  0  0  0  0
   60.1261   30.6309   48.9421 H   0  0  0  0  0  0  0  0  0  0  0  0
   58.3916   30.2095   50.6848 H   0  0  0  0  0  0  0  0  0  0  0  0
   57.8345   31.9847   52.3512 H   0  0  0  0  0  0  0  0  0  0  0  0
   58.9974   34.1922   52.2594 H   0  0  0  0  0  0  0  0  0  0  0  0
   60.7320   34.6213   50.5187 H   0  0  0  0  0  0  0  0  0  0  0  0
   60.2105   31.7142   46.9564 H   0  0  0  0  0  0  0  0  0  0  0  0
   58.7561   29.9644   45.9371 H   0  0  0  0  0  0  0  0  0  0  0  0
  1  2  1  0
  2  3  1  0
  3  4  2  0
  4  5  1  0
  5  6  2  0
  6  7  1  0
  7  8  2  0
  7  9  2  0
  7 10  1  0
 10 11  1  0
 11 12  1  0
 12 13  1  0
 13 14  2  0
 14 15  1  0
 15 16  2  0
 16 17  1  0
 17 18  2  0
 18 19  1  0
 19 20  2  0
  6 21  1  0
 21 22  2  0
 22  3  1  0
 14 10  1  0
 20 15  1  0
  1 23  1  0
  1 24  1  0
  1 25  1  0
  4 26  1  0
  5 27  1  0
 11 28  1  0
 11 29  1  0
 12 30  1  0
 12 31  1  0
 16 32  1  0
 17 33  1  0
 18 34  1  0
 19 35  1  0
 20 36  1  0
 21 37  1  0
 22 38  1  0
M  END
>  <UniqueID>  (25) 
22

>  <SMILES>  (25) 
COc1ccc(S(=O)(=O)N2CCN=C2c2ccccc2)cc1

>  <Energy>  (25) 
57.599557156857045

>  <Genealogy>  (25) 
COc1ccc(S(=O)(=O)N2CCN=C2c2ccccc2)cc1 (3D coordinates assigned)
COc1ccc(S(=O)(=O)N2CCN=C2c2ccccc2)cc1 (nonaromatic ring conformer: 57.599557156857045 kcal/mol)

>  <smiles>  (25) 
COc1ccc(S(=O)(=O)N2CCN=C2c2ccccc2)cc1

>  <score_type>  (25) 
oracle

>  <origin>  (25) 
adg

>  <m_score__min__energy>  (25) 
-7.04

>  <m_primary>  (25) 
energy

$$$$
25:0
     RDKit          3D

 40 42  0  0  0  0  0  0  0  0999 V2000
   55.5180   29.3290   44.8500 O   0  0  0  0  0  0  0  0  0  0  0  0
   56.7220   29.6930   44.9060 C   0  0  0  0  0  0  0  0  0  0  0  0
   57.0120   31.0710   45.1670 N   0  0  0  0  0  0  0  0  0  0  0  0
   58.1500   31.5690   45.8840 C   0  0  0  0  0  0  0  0  0  0  0  0
   58.6240   32.8780   45.6930 C   0  0  0  0  0  0  0  0  0  0  0  0
   59.7540   33.3260   46.3820 C   0  0  0  0  0  0  0  0  0  0  0  0
   60.4440   32.4690   47.2570 C   0  0  0  0  0  0  0  0  0  0  0  0
   61.6450   32.9450   47.9890 C   0  0  0  0  0  0  0  0  0  0  0  0
   61.5120   33.7270   49.1520 C   0  0  0  0  0  0  0  0  0  0  0  0
   62.6440   34.1740   49.8400 C   0  0  0  0  0  0  0  0  0  0  0  0
   63.9190   33.8470   49.3770 C   0  0  0  0  0  0  0  0  0  0  0  0
   64.0670   33.0720   48.2240 C   0  0  0  0  0  0  0  0  0  0  0  0
   62.9380   32.6220   47.5330 C   0  0  0  0  0  0  0  0  0  0  0  0
   59.9820   31.1490   47.4210 C   0  0  0  0  0  0  0  0  0  0  0  0
   58.8500   30.7050   46.7320 C   0  0  0  0  0  0  0  0  0  0  0  0
   57.7830   28.7470   44.6810 N   0  0  0  0  0  0  0  0  0  0  0  0
   57.5760   27.3420   44.4610 C   0  0  0  0  0  0  0  0  0  0  0  0
   57.7840   26.7610   43.2000 C   0  0  0  0  0  0  0  0  0  0  0  0
   57.6010   25.3910   43.0190 C   0  0  0  0  0  0  0  0  0  0  0  0
   57.2220   24.5770   44.0900 C   0  0  0  0  0  0  0  0  0  0  0  0
   57.0100   22.8540   43.7860 Cl  0  0  0  0  0  0  0  0  0  0  0  0
   57.0310   25.1380   45.3730 C   0  0  0  0  0  0  0  0  0  0  0  0
   56.6320   24.2670   46.5460 C   0  0  0  0  0  0  0  0  0  0  0  0
   55.3960   23.6750   46.3510 F   0  0  0  0  0  0  0  0  0  0  0  0
   57.5700   23.2650   46.7200 F   0  0  0  0  0  0  0  0  0  0  0  0
   56.5690   25.0360   47.6930 F   0  0  0  0  0  0  0  0  0  0  0  0
   57.2210   26.5240   45.5420 C   0  0  0  0  0  0  0  0  0  0  0  0
   58.1031   33.5530   44.9980 H   0  0  0  0  0  0  0  0  0  0  0  0
   60.1067   34.3580   46.2385 H   0  0  0  0  0  0  0  0  0  0  0  0
   60.5097   33.9884   49.5223 H   0  0  0  0  0  0  0  0  0  0  0  0
   62.5293   34.7845   50.7478 H   0  0  0  0  0  0  0  0  0  0  0  0
   64.8082   34.1996   49.9201 H   0  0  0  0  0  0  0  0  0  0  0  0
   65.0727   32.8156   47.8596 H   0  0  0  0  0  0  0  0  0  0  0  0
   63.0604   32.0111   46.6264 H   0  0  0  0  0  0  0  0  0  0  0  0
   60.5153   30.4631   48.0956 H   0  0  0  0  0  0  0  0  0  0  0  0
   58.5069   29.6675   46.8578 H   0  0  0  0  0  0  0  0  0  0  0  0
   58.7700   29.0790   44.7530 H   0  0  0  0  0  0  0  0  0  0  0  0
   58.0926   27.3893   42.3515 H   0  0  0  0  0  0  0  0  0  0  0  0
   57.7562   24.9468   42.0247 H   0  0  0  0  0  0  0  0  0  0  0  0
   57.0885   26.9710   46.5383 H   0  0  0  0  0  0  0  0  0  0  0  0
  1  2  2  0
  2  3  1  0
  3  4  1  0
  4  5  2  0
  5  6  1  0
  6  7  2  0
  7  8  1  0
  8  9  2  0
  9 10  1  0
 10 11  2  0
 11 12  1  0
 12 13  2  0
  7 14  1  0
 14 15  2  0
  2 16  1  0
 16 17  1  0
 17 18  2  0
 18 19  1  0
 19 20  2  0
 20 21  1  0
 20 22  1  0
 22 23  1  0
 23 24  1  0
 23 25  1  0
 23 26  1  0
 22 27  2  0
 15  4  1  0
 27 17  1  0
 13  8  1  0
  5 28  1  0
  6 29  1  0
  9 30  1  0
 10 31  1  0
 11 32  1  0
 12 33  1  0
 13 34  1  0
 14 35  1  0
 15 36  1  0
 16 37  1  0
 18 38  1  0
 19 39  1  0
 27 40  1  0
M  CHG  1   3  -1
M  END
>  <UniqueID>  (26) 
23

>  <SMILES>  (26) 
O=C([N-]c1ccc(-c2ccccc2)cc1)Nc1ccc(Cl)c(C(F)(F)F)c1

>  <Energy>  (26) 
58.83159491179578

>  <Genealogy>  (26) 
O=C([N-]c1ccc(-c2ccccc2)cc1)Nc1ccc(Cl)c(C(F)(F)F)c1 (protonated)
O=C([N-]c1ccc(-c2ccccc2)cc1)Nc1ccc(Cl)c(C(F)(F)F)c1 (3D coordinates assigned)
O=C([N-]c1ccc(-c2ccccc2)cc1)Nc1ccc(Cl)c(C(F)(F)F)c1 (optimized conformer: 58.83159491179578 kcal/mol)

>  <smiles>  (26) 
O=C(Nc1ccc(-c2ccccc2)cc1)Nc1ccc(Cl)c(C(F)(F)F)c1

>  <score_type>  (26) 
oracle

>  <origin>  (26) 
adg

>  <m_score__min__energy>  (26) 
-9.2200000000000006

>  <m_primary>  (26) 
energy

$$$$
26:0
     RDKit          3D

 44 46  0  0  0  0  0  0  0  0999 V2000
   58.6640   33.6962   48.2392 H   0  0  0  0  0  0  0  0  0  0  0  0
   58.5510   33.5160   47.1600 C   0  0  0  0  0  0  0  0  0  0  0  0
   57.9390   32.3420   46.7080 C   0  0  0  0  0  0  0  0  0  0  0  0
   57.5748   31.5988   47.4326 H   0  0  0  0  0  0  0  0  0  0  0  0
   57.7890   32.1110   45.3340 C   0  0  0  0  0  0  0  0  0  0  0  0
   57.0540   30.6120   44.7720 S   0  0  0  0  0  0  0  0  0  0  0  0
   55.5960   30.8560   44.4960 O   0  0  0  0  0  0  0  0  0  0  0  0
   57.7080   30.1620   43.4950 O   0  0  0  0  0  0  0  0  0  0  0  0
   57.2020   29.3680   45.9770 N   0  0  0  0  0  0  0  0  0  0  0  0
   58.5700   28.8470   46.0460 C   0  0  0  0  0  0  0  0  0  0  0  0
   59.2358   29.5045   45.4677 H   0  0  0  0  0  0  0  0  0  0  0  0
   58.5807   27.8289   45.6296 H   0  0  0  0  0  0  0  0  0  0  0  0
   59.0580   28.7890   47.4970 C   0  0  0  0  0  0  0  0  0  0  0  0
   59.0873   27.7357   47.8126 H   0  0  0  0  0  0  0  0  0  0  0  0
   58.3562   29.3854   48.0984 H   0  0  0  0  0  0  0  0  0  0  0  0
   60.4570   29.3970   47.6990 C   0  0  0  0  0  0  0  0  0  0  0  0
   60.8356   29.7536   46.7297 H   0  0  0  0  0  0  0  0  0  0  0  0
   61.1157   28.6196   48.1134 H   0  0  0  0  0  0  0  0  0  0  0  0
   60.4210   30.5260   48.6440 N   0  0  0  0  0  0  0  0  0  0  0  0
   59.8340   30.6760   49.8800 C   0  0  0  0  0  0  0  0  0  0  0  0
   59.0310   29.8370   50.4740 N   0  0  0  0  0  0  0  0  0  0  0  0
   57.8490   30.1060   51.1780 C   0  0  0  0  0  0  0  0  0  0  0  0
   56.8830   30.3300   51.7760 N   0  0  0  0  0  0  0  0  0  0  0  0
   60.1510   31.8530   50.4700 N   0  0  0  0  0  0  0  0  0  0  0  0
   59.8340   32.2100   51.3990 H   0  0  0  0  0  0  0  0  0  0  0  0
   60.9500   32.4690   49.5890 C   0  0  0  0  0  0  0  0  0  0  0  0
   61.5500   33.7190   49.7060 C   0  0  0  0  0  0  0  0  0  0  0  0
   61.3975   34.3411   50.6003 H   0  0  0  0  0  0  0  0  0  0  0  0
   62.3570   34.1600   48.6440 C   0  0  0  0  0  0  0  0  0  0  0  0
   62.8378   35.1478   48.6983 H   0  0  0  0  0  0  0  0  0  0  0  0
   62.5570   33.3430   47.5030 C   0  0  0  0  0  0  0  0  0  0  0  0
   63.3890   33.8410   46.3600 C   0  0  0  0  0  0  0  0  0  0  0  0
   64.2711   34.3690   46.7513 H   0  0  0  0  0  0  0  0  0  0  0  0
   63.7145   32.9891   45.7449 H   0  0  0  0  0  0  0  0  0  0  0  0
   62.7920   34.5304   45.7449 H   0  0  0  0  0  0  0  0  0  0  0  0
   61.9160   32.0870   47.4160 C   0  0  0  0  0  0  0  0  0  0  0  0
   62.0408   31.4486   46.5289 H   0  0  0  0  0  0  0  0  0  0  0  0
   61.1180   31.6780   48.4900 C   0  0  0  0  0  0  0  0  0  0  0  0
   58.2640   33.0590   44.4150 C   0  0  0  0  0  0  0  0  0  0  0  0
   58.1546   32.8796   43.3353 H   0  0  0  0  0  0  0  0  0  0  0  0
   58.8760   34.2310   44.8690 C   0  0  0  0  0  0  0  0  0  0  0  0
   59.2454   34.9736   44.1465 H   0  0  0  0  0  0  0  0  0  0  0  0
   59.0190   34.4600   46.2420 C   0  0  0  0  0  0  0  0  0  0  0  0
   59.6140   35.5970   46.6810 F   0  0  0  0  0  0  0  0  0  0  0  0
  1  2  1  0
  2  3  2  0
  3  4  1  0
  3  5  1  0
  5  6  1  0
  6  7  2  0
  6  8  2  0
  6  9  1  0
  9 10  1  0
 10 11  1  0
 10 12  1  0
 10 13  1  0
 13 14  1  0
 13 15  1  0
 13 16  1  0
 16 17  1  0
 16 18  1  0
 16 19  1  0
 19 20  1  0
 20 21  2  0
 21 22  1  0
 22 23  3  0
 20 24  1  0
 24 25  1  0
 24 26  1  0
 26 27  2  0
 27 28  1  0
 27 29  1  0
 29 30  1  0
 29 31  2  0
 31 32  1  0
 32 33  1  0
 32 34  1  0
 32 35  1  0
 31 36  1  0
 36 37  1  0
 36 38  2  0
  5 39  2  0
 39 40  1  0
 39 41  1  0
 41 42  1  0
 41 43  2  0
 43 44  1  0
 43  2  1  0
 38 19  1  0
 38 26  1  0
M  CHG  1   9  -1
M  END
>  <UniqueID>  (27) 
24

>  <SMILES>  (27) 
Cc1ccc2[nH]/c(=N/C#N)n(CCC[N-]S(=O)(=O)c3ccc(F)cc3)c2c1

>  <Energy>  (27) 
88.34834522949257

>  <Genealogy>  (27) 
Cc1ccc2[nH]c(=NC#N)n(CCC[N-]S(=O)(=O)c3ccc(F)cc3)c2c1 (protonated)
Cc1ccc2[nH]/c(=N/C#N)n(CCC[N-]S(=O)(=O)c3ccc(F)cc3)c2c1 (cis-trans isomerization)
Cc1ccc2[nH]/c(=N/C#N)n(CCC[N-]S(=O)(=O)c3ccc(F)cc3)c2c1 (3D coordinates assigned)
Cc1ccc2[nH]/c(=N/C#N)n(CCC[N-]S(=O)(=O)c3ccc(F)cc3)c2c1 (optimized conformer: 88.34834522949257 kcal/mol)

>  <smiles>  (27) 
Cc1ccc2[nH]c(=NC#N)n(CCCNS(=O)(=O)c3ccc(F)cc3)c2c1

>  <score_type>  (27) 
oracle

>  <origin>  (27) 
adg

>  <m_score__min__energy>  (27) 
-10.029999999999999

>  <m_primary>  (27) 
energy

$$$$
27:0
     RDKit          3D

 40 42  0  0  0  0  0  0  0  0999 V2000
   57.1440   32.3370   40.8660 C   0  0  0  0  0  0  0  0  0  0  0  0
   57.4060   31.8550   42.2530 C   0  0  0  0  0  0  0  0  0  0  0  0
   57.7860   32.6440   43.3190 C   0  0  0  0  0  0  0  0  0  0  0  0
   57.9550   31.7760   44.3830 C   0  0  0  0  0  0  0  0  0  0  0  0
   58.4880   32.1350   45.7140 C   0  0  0  0  0  0  0  0  0  0  0  0
   57.7660   32.7900   46.5120 O   0  0  0  0  0  0  0  0  0  0  0  0
   59.7940   31.6930   46.1210 N   0  0  0  0  0  0  0  0  0  0  0  0
   60.4840   32.1960   47.2790 C   0  0  0  0  0  0  0  0  0  0  0  0
   59.8970   32.1550   48.5570 C   0  0  0  0  0  0  0  0  0  0  0  0
   60.5780   32.6740   49.6640 C   0  0  0  0  0  0  0  0  0  0  0  0
   61.8430   33.2490   49.5030 C   0  0  0  0  0  0  0  0  0  0  0  0
   62.5440   33.7840   50.6420 C   0  0  0  0  0  0  0  0  0  0  0  0
   63.1070   34.2130   51.5570 N   0  0  0  0  0  0  0  0  0  0  0  0
   62.4230   33.3130   48.2300 C   0  0  0  0  0  0  0  0  0  0  0  0
   61.7420   32.7960   47.1230 C   0  0  0  0  0  0  0  0  0  0  0  0
   57.6510   30.5080   43.8920 C   0  0  0  0  0  0  0  0  0  0  0  0
   57.6390   29.2280   44.6280 C   0  0  0  0  0  0  0  0  0  0  0  0
   58.8310   28.6330   45.0700 C   0  0  0  0  0  0  0  0  0  0  0  0
   58.8010   27.4360   45.7880 C   0  0  0  0  0  0  0  0  0  0  0  0
   57.5760   26.8140   46.0920 C   0  0  0  0  0  0  0  0  0  0  0  0
   57.5300   25.5220   46.8730 C   0  0  0  0  0  0  0  0  0  0  0  0
   57.8420   24.4670   46.0350 F   0  0  0  0  0  0  0  0  0  0  0  0
   58.4530   25.5690   47.9020 F   0  0  0  0  0  0  0  0  0  0  0  0
   56.2790   25.2940   47.4180 F   0  0  0  0  0  0  0  0  0  0  0  0
   56.3800   27.4300   45.6750 C   0  0  0  0  0  0  0  0  0  0  0  0
   55.1470   26.8560   45.9740 O   0  0  0  0  0  0  0  0  0  0  0  0
   56.4160   28.6280   44.9550 C   0  0  0  0  0  0  0  0  0  0  0  0
   57.3400   30.5960   42.6180 O   0  0  0  0  0  0  0  0  0  0  0  0
   56.6190   33.3028   40.9065 H   0  0  0  0  0  0  0  0  0  0  0  0
   58.0990   32.4608   40.3343 H   0  0  0  0  0  0  0  0  0  0  0  0
   56.5208   31.6029   40.3343 H   0  0  0  0  0  0  0  0  0  0  0  0
   57.9255   33.7351   43.3223 H   0  0  0  0  0  0  0  0  0  0  0  0
   60.2520   30.9230   45.5840 H   0  0  0  0  0  0  0  0  0  0  0  0
   58.8981   31.7129   48.6867 H   0  0  0  0  0  0  0  0  0  0  0  0
   60.1179   32.6297   50.6622 H   0  0  0  0  0  0  0  0  0  0  0  0
   63.4150   33.7703   48.1005 H   0  0  0  0  0  0  0  0  0  0  0  0
   62.1962   32.8605   46.1232 H   0  0  0  0  0  0  0  0  0  0  0  0
   59.7957   29.1132   44.8491 H   0  0  0  0  0  0  0  0  0  0  0  0
   59.7433   26.9751   46.1190 H   0  0  0  0  0  0  0  0  0  0  0  0
   55.4749   29.1040   44.6423 H   0  0  0  0  0  0  0  0  0  0  0  0
  1  2  1  0
  2  3  2  0
  3  4  1  0
  4  5  1  0
  5  6  2  0
  5  7  1  0
  7  8  1  0
  8  9  2  0
  9 10  1  0
 10 11  2  0
 11 12  1  0
 12 13  3  0
 11 14  1  0
 14 15  2  0
  4 16  2  0
 16 17  1  0
 17 18  2  0
 18 19  1  0
 19 20  2  0
 20 21  1  0
 21 22  1  0
 21 23  1  0
 21 24  1  0
 20 25  1  0
 25 26  1  0
 25 27  2  0
 16 28  1  0
 28  2  1  0
 15  8  1  0
 27 17  1  0
  1 29  1  0
  1 30  1  0
  1 31  1  0
  3 32  1  0
  7 33  1  0
  9 34  1  0
 10 35  1  0
 14 36  1  0
 15 37  1  0
 18 38  1  0
 19 39  1  0
 27 40  1  0
M  CHG  1  26  -1
M  END
>  <UniqueID>  (28) 
25

>  <SMILES>  (28) 
Cc1cc(C(=O)Nc2ccc(C#N)cc2)c(-c2ccc(C(F)(F)F)c([O-])c2)o1

>  <Energy>  (28) 
77.82862547622739

>  <Genealogy>  (28) 
Cc1cc(C(=O)Nc2ccc(C#N)cc2)c(-c2ccc(C(F)(F)F)c([O-])c2)o1 (protonated)
Cc1cc(C(=O)Nc2ccc(C#N)cc2)c(-c2ccc(C(F)(F)F)c([O-])c2)o1 (3D coordinates assigned)
Cc1cc(C(=O)Nc2ccc(C#N)cc2)c(-c2ccc(C(F)(F)F)c([O-])c2)o1 (optimized conformer: 77.82862547622739 kcal/mol)

>  <smiles>  (28) 
Cc1cc(C(=O)Nc2ccc(C#N)cc2)c(-c2ccc(C(F)(F)F)c(O)c2)o1

>  <score_type>  (28) 
oracle

>  <origin>  (28) 
adg

>  <m_score__min__energy>  (28) 
-10.84

>  <m_primary>  (28) 
energy

$$$$
28:0
     RDKit          3D

 33 34  0  0  0  0  0  0  0  0999 V2000
   61.0176   28.6791   45.2477 H   0  0  0  0  0  0  0  0  0  0  0  0
   59.9340   28.4900   45.2460 C   0  0  0  0  0  0  0  0  0  0  0  0
   59.0810   29.3530   44.5550 C   0  0  0  0  0  0  0  0  0  0  0  0
   59.4961   30.2156   44.0131 H   0  0  0  0  0  0  0  0  0  0  0  0
   57.7000   29.1250   44.5490 C   0  0  0  0  0  0  0  0  0  0  0  0
   56.6280   30.2030   43.6620 S   0  0  0  0  0  0  0  0  0  0  0  0
   55.3680   30.4190   44.4540 O   0  0  0  0  0  0  0  0  0  0  0  0
   56.2820   29.5800   42.3380 O   0  0  0  0  0  0  0  0  0  0  0  0
   57.4410   31.7170   43.4150 N   0  0  0  0  0  0  0  0  0  0  0  0
   57.7770   32.5780   44.3330 C   0  0  0  0  0  0  0  0  0  0  0  0
   58.8460   33.4840   44.1620 C   0  0  0  0  0  0  0  0  0  0  0  0
   59.4293   33.4823   43.2294 H   0  0  0  0  0  0  0  0  0  0  0  0
   59.1580   34.3820   45.1840 C   0  0  0  0  0  0  0  0  0  0  0  0
   59.9893   35.0914   45.0587 H   0  0  0  0  0  0  0  0  0  0  0  0
   58.4150   34.3790   46.3640 C   0  0  0  0  0  0  0  0  0  0  0  0
   58.6550   35.0828   47.1747 H   0  0  0  0  0  0  0  0  0  0  0  0
   57.3640   33.4730   46.5040 C   0  0  0  0  0  0  0  0  0  0  0  0
   56.7704   33.4624   47.4300 H   0  0  0  0  0  0  0  0  0  0  0  0
   57.0690   32.6020   45.5010 N   0  0  0  0  0  0  0  0  0  0  0  0
   56.2760   31.9350   45.6390 H   0  0  0  0  0  0  0  0  0  0  0  0
   57.1790   28.0200   45.2300 C   0  0  0  0  0  0  0  0  0  0  0  0
   56.0951   27.8330   45.2164 H   0  0  0  0  0  0  0  0  0  0  0  0
   58.0270   27.1470   45.9310 C   0  0  0  0  0  0  0  0  0  0  0  0
   57.4550   25.9610   46.6570 C   0  0  0  0  0  0  0  0  0  0  0  0
   57.5330   26.1228   47.7422 H   0  0  0  0  0  0  0  0  0  0  0  0
   56.3978   25.8364   46.3799 H   0  0  0  0  0  0  0  0  0  0  0  0
   58.0157   25.0561   46.3799 H   0  0  0  0  0  0  0  0  0  0  0  0
   59.4170   27.3790   45.9410 C   0  0  0  0  0  0  0  0  0  0  0  0
   60.2480   26.4920   46.6450 O   0  0  0  0  0  0  0  0  0  0  0  0
   60.7500   26.7240   47.9570 C   0  0  0  0  0  0  0  0  0  0  0  0
   60.0118   26.3828   48.6977 H   0  0  0  0  0  0  0  0  0  0  0  0
   61.6898   26.1689   48.0935 H   0  0  0  0  0  0  0  0  0  0  0  0
   60.9362   27.7995   48.0935 H   0  0  0  0  0  0  0  0  0  0  0  0
  1  2  1  0
  2  3  2  0
  3  4  1  0
  3  5  1  0
  5  6  1  0
  6  7  2  0
  6  8  2  0
  6  9  1  0
  9 10  2  0
 10 11  1  0
 11 12  1  0
 11 13  2  0
 13 14  1  0
 13 15  1  0
 15 16  1  0
 15 17  2  0
 17 18  1  0
 17 19  1  0
 19 20  1  0
  5 21  2  0
 21 22  1  0
 21 23  1  0
 23 24  1  0
 24 25  1  0
 24 26  1  0
 24 27  1  0
 23 28  2  0
 28 29  1  0
 29 30  1  0
 30 31  1  0
 30 32  1  0
 30 33  1  0
 28  2  1  0
 19 10  1  0
M  END
>  <UniqueID>  (29) 
26

>  <SMILES>  (29) 
COc1ccc(S(=O)(=O)/N=c2\cccc[nH]2)cc1C

>  <Energy>  (29) 
39.27508930441471

>  <Genealogy>  (29) 
COc1ccc(S(=O)(=O)/N=c2\cccc[nH]2)cc1C (cis-trans isomerization)
COc1ccc(S(=O)(=O)/N=c2\cccc[nH]2)cc1C (3D coordinates assigned)
COc1ccc(S(=O)(=O)/N=c2\cccc[nH]2)cc1C (optimized conformer: 39.27508930441471 kcal/mol)

>  <smiles>  (29) 
COc1ccc(S(=O)(=O)N=c2cccc[nH]2)cc1C

>  <score_type>  (29) 
oracle

>  <origin>  (29) 
adg

>  <m_score__min__energy>  (29) 
-6.79

>  <m_primary>  (29) 
energy

$$$$
29:0
     RDKit          3D

 38 41  0  0  0  0  0  0  0  0999 V2000
   55.8970   30.3320   43.0000 C   0  0  0  0  0  0  0  0  0  0  0  0
   55.9140   31.0390   44.2360 O   0  0  0  0  0  0  0  0  0  0  0  0
   57.0730   31.5040   44.8710 C   0  0  0  0  0  0  0  0  0  0  0  0
   57.5150   32.8410   44.7270 C   0  0  0  0  0  0  0  0  0  0  0  0
   58.6840   33.2880   45.3700 C   0  0  0  0  0  0  0  0  0  0  0  0
   59.4330   32.4180   46.1710 C   0  0  0  0  0  0  0  0  0  0  0  0
   58.9860   31.1020   46.3170 C   0  0  0  0  0  0  0  0  0  0  0  0
   57.8430   30.6470   45.6820 C   0  0  0  0  0  0  0  0  0  0  0  0
   57.7250   29.3000   46.0360 C   0  0  0  0  0  0  0  0  0  0  0  0
   56.7800   28.3170   45.7160 C   0  0  0  0  0  0  0  0  0  0  0  0
   55.7080   28.5940   44.8780 O   0  0  0  0  0  0  0  0  0  0  0  0
   56.9390   27.0230   46.2620 C   0  0  0  0  0  0  0  0  0  0  0  0
   56.0140   26.0090   45.9490 C   0  0  0  0  0  0  0  0  0  0  0  0
   56.1580   24.7290   46.4770 C   0  0  0  0  0  0  0  0  0  0  0  0
   57.2250   24.4360   47.3220 C   0  0  0  0  0  0  0  0  0  0  0  0
   58.1570   25.4220   47.6510 C   0  0  0  0  0  0  0  0  0  0  0  0
   58.0340   26.7340   47.1380 C   0  0  0  0  0  0  0  0  0  0  0  0
   58.9670   27.7600   47.4630 C   0  0  0  0  0  0  0  0  0  0  0  0
   60.0160   27.5740   48.3670 O   0  0  0  0  0  0  0  0  0  0  0  0
   58.8010   29.0210   46.8660 C   0  0  0  0  0  0  0  0  0  0  0  0
   59.5780   30.1210   47.0330 N   0  0  0  0  0  0  0  0  0  0  0  0
   60.8090   30.2400   47.7640 C   0  0  0  0  0  0  0  0  0  0  0  0
   62.0030   30.8900   47.1420 C   0  0  0  0  0  0  0  0  0  0  0  0
   60.8600   29.8670   48.9660 O   0  0  0  0  0  0  0  0  0  0  0  0
   55.8710   29.2501   43.1968 H   0  0  0  0  0  0  0  0  0  0  0  0
   55.0056   30.6215   42.4242 H   0  0  0  0  0  0  0  0  0  0  0  0
   56.8013   30.5783   42.4242 H   0  0  0  0  0  0  0  0  0  0  0  0
   56.9370   33.5397   44.1043 H   0  0  0  0  0  0  0  0  0  0  0  0
   59.0121   34.3301   45.2421 H   0  0  0  0  0  0  0  0  0  0  0  0
   60.3498   32.7614   46.6726 H   0  0  0  0  0  0  0  0  0  0  0  0
   55.1689   26.2303   45.2805 H   0  0  0  0  0  0  0  0  0  0  0  0
   55.4266   23.9467   46.2258 H   0  0  0  0  0  0  0  0  0  0  0  0
   57.3343   23.4215   47.7329 H   0  0  0  0  0  0  0  0  0  0  0  0
   58.9969   25.1754   48.3171 H   0  0  0  0  0  0  0  0  0  0  0  0
   60.3930   28.2890   48.9710 H   0  0  0  0  0  0  0  0  0  0  0  0
   62.6748   31.2557   47.9325 H   0  0  0  0  0  0  0  0  0  0  0  0
   62.5358   30.1574   46.5179 H   0  0  0  0  0  0  0  0  0  0  0  0
   61.6769   31.7351   46.5179 H   0  0  0  0  0  0  0  0  0  0  0  0
  1  2  1  0
  2  3  1  0
  3  4  2  0
  4  5  1  0
  5  6  2  0
  6  7  1  0
  7  8  2  0
  8  9  1  0
  9 10  2  0
 10 11  1  0
 10 12  1  0
 12 13  2  0
 13 14  1  0
 14 15  2  0
 15 16  1  0
 16 17  2  0
 17 18  1  0
 18 19  1  0
 18 20  2  0
 20 21  1  0
 21 22  1  0
 22 23  1  0
 22 24  2  0
  8  3  1  0
 20  9  1  0
 21  7  1  0
 17 12  1  0
  1 25  1  0
  1 26  1  0
  1 27  1  0
  4 28  1  0
  5 29  1  0
  6 30  1  0
 13 31  1  0
 14 32  1  0
 15 33  1  0
 16 34  1  0
 19 35  1  0
 23 36  1  0
 23 37  1  0
 23 38  1  0
M  CHG  1  11  -1
M  END
>  <UniqueID>  (30) 
27

>  <SMILES>  (30) 
COc1cccc2c1c1c([O-])c3ccccc3c(O)c1n2C(C)=O

>  <Energy>  (30) 
99.83614629913384

>  <Genealogy>  (30) 
COc1cccc2c1c1c([O-])c3ccccc3c(O)c1n2C(C)=O (protonated)
COc1cccc2c1c1c([O-])c3ccccc3c(O)c1n2C(C)=O (3D coordinates assigned)
COc1cccc2c1c1c([O-])c3ccccc3c(O)c1n2C(C)=O (optimized conformer: 99.83614629913384 kcal/mol)

>  <smiles>  (30) 
COc1cccc2c1c1c(O)c3ccccc3c(O)c1n2C(C)=O

>  <score_type>  (30) 
oracle

>  <origin>  (30) 
adg

>  <m_score__min__energy>  (30) 
-8.8499999999999996

>  <m_primary>  (30) 
energy

$$$$
30:0
     RDKit          3D

 44 45  0  0  0  0  0  0  0  0999 V2000
   55.0360   24.4620   45.2800 C   0  0  0  0  0  0  0  0  0  0  0  0
   55.5300   24.8720   46.6060 N   0  0  0  0  0  0  0  0  0  0  0  0
   55.9210   23.6820   47.3770 C   0  0  0  0  0  0  0  0  0  0  0  0
   56.6630   25.8170   46.4830 C   0  0  0  0  0  0  0  0  0  0  0  0
   56.2640   27.0170   45.6220 C   0  0  0  0  0  0  0  0  0  0  0  0
   57.3680   27.9800   45.5730 N   0  0  0  0  0  0  0  0  0  0  0  0
   56.9200   29.4150   44.7000 S   0  0  0  0  0  0  0  0  0  0  0  0
   55.4600   29.7050   44.9120 O   0  0  0  0  0  0  0  0  0  0  0  0
   57.1580   29.1960   43.2330 O   0  0  0  0  0  0  0  0  0  0  0  0
   57.9040   30.7710   45.2460 C   0  0  0  0  0  0  0  0  0  0  0  0
   58.9670   30.5420   46.1230 C   0  0  0  0  0  0  0  0  0  0  0  0
   59.7320   31.6090   46.5940 C   0  0  0  0  0  0  0  0  0  0  0  0
   59.4500   32.9210   46.1900 C   0  0  0  0  0  0  0  0  0  0  0  0
   60.3020   33.9800   46.6530 N   0  0  0  0  0  0  0  0  0  0  0  0
   61.5130   33.7590   47.4020 C   0  0  0  0  0  0  0  0  0  0  0  0
   62.7500   33.6050   46.7440 C   0  0  0  0  0  0  0  0  0  0  0  0
   63.9190   33.3800   47.4740 C   0  0  0  0  0  0  0  0  0  0  0  0
   63.8710   33.2990   48.8650 C   0  0  0  0  0  0  0  0  0  0  0  0
   62.6520   33.4430   49.5310 C   0  0  0  0  0  0  0  0  0  0  0  0
   61.4740   33.6690   48.8100 C   0  0  0  0  0  0  0  0  0  0  0  0
   59.9700   33.8720   49.7010 Cl  0  0  0  0  0  0  0  0  0  0  0  0
   58.3440   33.1680   45.3370 C   0  0  0  0  0  0  0  0  0  0  0  0
   57.9390   34.5050   44.9980 N   0  0  0  0  0  0  0  0  0  0  0  0
   56.7420   34.7610   44.7500 O   0  0  0  0  0  0  0  0  0  0  0  0
   58.8850   35.4750   44.7620 O   0  0  0  0  0  0  0  0  0  0  0  0
   57.5970   32.0800   44.8550 C   0  0  0  0  0  0  0  0  0  0  0  0
   54.1948   23.7638   45.4019 H   0  0  0  0  0  0  0  0  0  0  0  0
   54.6986   25.3491   44.7240 H   0  0  0  0  0  0  0  0  0  0  0  0
   55.8458   23.9669   44.7240 H   0  0  0  0  0  0  0  0  0  0  0  0
   55.8488   23.9018   48.4524 H   0  0  0  0  0  0  0  0  0  0  0  0
   55.2501   22.8468   47.1276 H   0  0  0  0  0  0  0  0  0  0  0  0
   56.9566   23.4075   47.1276 H   0  0  0  0  0  0  0  0  0  0  0  0
   56.9519   26.1691   47.4843 H   0  0  0  0  0  0  0  0  0  0  0  0
   57.5089   25.3005   46.0060 H   0  0  0  0  0  0  0  0  0  0  0  0
   56.0323   26.6745   44.6027 H   0  0  0  0  0  0  0  0  0  0  0  0
   55.3784   27.5007   46.0600 H   0  0  0  0  0  0  0  0  0  0  0  0
   59.2016   29.5162   46.4434 H   0  0  0  0  0  0  0  0  0  0  0  0
   60.5637   31.4191   47.2884 H   0  0  0  0  0  0  0  0  0  0  0  0
   59.9390   34.9560   46.5690 H   0  0  0  0  0  0  0  0  0  0  0  0
   62.7949   33.6625   45.6464 H   0  0  0  0  0  0  0  0  0  0  0  0
   64.8797   33.2664   46.9504 H   0  0  0  0  0  0  0  0  0  0  0  0
   64.7932   33.1217   49.4378 H   0  0  0  0  0  0  0  0  0  0  0  0
   62.6175   33.3784   50.6286 H   0  0  0  0  0  0  0  0  0  0  0  0
   56.7613   32.2586   44.1624 H   0  0  0  0  0  0  0  0  0  0  0  0
  1  2  1  0
  2  3  1  0
  2  4  1  0
  4  5  1  0
  5  6  1  0
  6  7  1  0
  7  8  2  0
  7  9  2  0
  7 10  1  0
 10 11  2  0
 11 12  1  0
 12 13  2  0
 13 14  1  0
 14 15  1  0
 15 16  2  0
 16 17  1  0
 17 18  2  0
 18 19  1  0
 19 20  2  0
 20 21  1  0
 13 22  1  0
 22 23  1  0
 23 24  2  0
 23 25  1  0
 22 26  2  0
 26 10  1  0
 20 15  1  0
  1 27  1  0
  1 28  1  0
  1 29  1  0
  3 30  1  0
  3 31  1  0
  3 32  1  0
  4 33  1  0
  4 34  1  0
  5 35  1  0
  5 36  1  0
 11 37  1  0
 12 38  1  0
 14 39  1  0
 16 40  1  0
 17 41  1  0
 18 42  1  0
 19 43  1  0
 26 44  1  0
M  CHG  3   6  -1  23   1  25  -1
M  END
>  <UniqueID>  (31) 
28

>  <SMILES>  (31) 
CN(C)CC[N-]S(=O)(=O)c1ccc(Nc2ccccc2Cl)c([N+](=O)[O-])c1

>  <Energy>  (31) 
51.65569022360048

>  <Genealogy>  (31) 
CN(C)CC[N-]S(=O)(=O)c1ccc(Nc2ccccc2Cl)c([N+](=O)[O-])c1 (protonated)
CN(C)CC[N-]S(=O)(=O)c1ccc(Nc2ccccc2Cl)c([N+](=O)[O-])c1 (3D coordinates assigned)
CN(C)CC[N-]S(=O)(=O)c1ccc(Nc2ccccc2Cl)c([N+](=O)[O-])c1 (optimized conformer: 51.65569022360048 kcal/mol)

>  <smiles>  (31) 
CN(C)CCNS(=O)(=O)c1ccc(Nc2ccccc2Cl)c([N+](=O)[O-])c1

>  <score_type>  (31) 
oracle

>  <origin>  (31) 
adg

>  <m_score__min__energy>  (31) 
-9.8399999999999999

>  <m_primary>  (31) 
energy

$$$$
31:0
     RDKit          3D

 38 40  0  0  0  0  0  0  0  0999 V2000
   61.9253   29.9653   45.9298 H   0  0  0  0  0  0  0  0  0  0  0  0
   61.4630   30.5370   46.7480 C   0  0  0  0  0  0  0  0  0  0  0  0
   60.2730   30.2240   47.1670 N   0  0  0  0  0  0  0  0  0  0  0  0
   59.1540   30.0840   46.3210 N   0  0  0  0  0  0  0  0  0  0  0  0
   58.3850   31.1900   46.0670 C   0  0  0  0  0  0  0  0  0  0  0  0
   58.6670   32.4460   46.7010 N   0  0  0  0  0  0  0  0  0  0  0  0
   58.4710   33.6880   46.2010 C   0  0  0  0  0  0  0  0  0  0  0  0
   57.9080   34.0180   44.8530 C   0  0  0  0  0  0  0  0  0  0  0  0
   56.9649   34.5708   44.9749 H   0  0  0  0  0  0  0  0  0  0  0  0
   58.6270   34.6376   44.2970 H   0  0  0  0  0  0  0  0  0  0  0  0
   57.7186   33.0879   44.2970 H   0  0  0  0  0  0  0  0  0  0  0  0
   58.8870   34.6180   47.1370 C   0  0  0  0  0  0  0  0  0  0  0  0
   58.8449   35.7147   47.0632 H   0  0  0  0  0  0  0  0  0  0  0  0
   59.3680   33.8560   48.1870 C   0  0  0  0  0  0  0  0  0  0  0  0
   59.8840   34.3790   49.4860 C   0  0  0  0  0  0  0  0  0  0  0  0
   59.3768   33.8649   50.3157 H   0  0  0  0  0  0  0  0  0  0  0  0
   60.9671   34.1980   49.5499 H   0  0  0  0  0  0  0  0  0  0  0  0
   59.6884   35.4596   49.5499 H   0  0  0  0  0  0  0  0  0  0  0  0
   59.2210   32.5500   47.8980 N   0  0  0  0  0  0  0  0  0  0  0  0
   59.4770   31.7450   48.5120 H   0  0  0  0  0  0  0  0  0  0  0  0
   57.3540   31.1170   45.1850 N   0  0  0  0  0  0  0  0  0  0  0  0
   57.0400   29.9600   44.5520 C   0  0  0  0  0  0  0  0  0  0  0  0
   55.9070   29.9270   43.5770 C   0  0  0  0  0  0  0  0  0  0  0  0
   54.9531   29.8992   44.1241 H   0  0  0  0  0  0  0  0  0  0  0  0
   55.9410   30.8265   42.9448 H   0  0  0  0  0  0  0  0  0  0  0  0
   55.9933   29.0310   42.9448 H   0  0  0  0  0  0  0  0  0  0  0  0
   57.8160   28.8240   44.7760 C   0  0  0  0  0  0  0  0  0  0  0  0
   57.5837   27.8774   44.2662 H   0  0  0  0  0  0  0  0  0  0  0  0
   58.8930   28.9100   45.6590 C   0  0  0  0  0  0  0  0  0  0  0  0
   59.6360   27.9030   45.8100 O   0  0  0  0  0  0  0  0  0  0  0  0
   62.1890   31.6500   47.3640 C   0  0  0  0  0  0  0  0  0  0  0  0
   62.3020   33.2130   46.7510 S   0  0  0  0  0  0  0  0  0  0  0  0
   63.2400   33.8300   48.0030 C   0  0  0  0  0  0  0  0  0  0  0  0
   63.6071   34.8638   48.0836 H   0  0  0  0  0  0  0  0  0  0  0  0
   63.4720   32.8110   48.9180 C   0  0  0  0  0  0  0  0  0  0  0  0
   64.0627   32.9500   49.8355 H   0  0  0  0  0  0  0  0  0  0  0  0
   62.8840   31.5900   48.5640 C   0  0  0  0  0  0  0  0  0  0  0  0
   62.9646   30.6781   49.1738 H   0  0  0  0  0  0  0  0  0  0  0  0
  1  2  1  0
  2  3  2  0
  3  4  1  0
  4  5  1  0
  5  6  1  0
  6  7  1  0
  7  8  1  0
  8  9  1  0
  8 10  1  0
  8 11  1  0
  7 12  2  0
 12 13  1  0
 12 14  1  0
 14 15  1  0
 15 16  1  0
 15 17  1  0
 15 18  1  0
 14 19  2  0
 19 20  1  0
  5 21  2  0
 21 22  1  0
 22 23  1  0
 23 24  1  0
 23 25  1  0
 23 26  1  0
 22 27  2  0
 27 28  1  0
 27 29  1  0
 29 30  2  0
  2 31  1  0
 31 32  1  0
 32 33  1  0
 33 34  1  0
 33 35  2  0
 35 36  1  0
 35 37  1  0
 37 38  1  0
 29  4  1  0
 37 31  2  0
 19  6  1  0
M  CHG  1  19   1
M  END
>  <UniqueID>  (32) 
29

>  <SMILES>  (32) 
Cc1cc(=O)n(/N=C/c2cccs2)c(-n2[nH+]c(C)cc2C)n1

>  <Energy>  (32) 
104.68303582286954

>  <Genealogy>  (32) 
Cc1cc(=O)n(N=Cc2cccs2)c(-n2[nH+]c(C)cc2C)n1 (protonated)
Cc1cc(=O)n(/N=C/c2cccs2)c(-n2[nH+]c(C)cc2C)n1 (cis-trans isomerization)
Cc1cc(=O)n(/N=C/c2cccs2)c(-n2[nH+]c(C)cc2C)n1 (3D coordinates assigned)
Cc1cc(=O)n(/N=C/c2cccs2)c(-n2[nH+]c(C)cc2C)n1 (optimized conformer: 104.68303582286954 kcal/mol)

>  <smiles>  (32) 
Cc1cc(=O)n(N=Cc2cccs2)c(-n2nc(C)cc2C)n1

>  <score_type>  (32) 
oracle

>  <origin>  (32) 
adg

>  <m_score__min__energy>  (32) 
-5.7599999999999998

>  <m_primary>  (32) 
energy

$$$$
32:0
     RDKit          3D

 34 36  0  0  1  0  0  0  0  0999 V2000
   58.8920   32.9570   48.9160 C   0  0  0  0  0  0  0  0  0  0  0  0
   58.8010   33.0560   47.4410 C   0  0  0  0  0  0  0  0  0  0  0  0
   59.3270   34.1310   46.7610 C   0  0  0  0  0  0  0  0  0  0  0  0
   59.2480   34.2350   45.3680 C   0  0  0  0  0  0  0  0  0  0  0  0
   58.6230   33.2310   44.6350 C   0  0  0  0  0  0  0  0  0  0  0  0
   58.5080   33.2590   43.3050 N   0  0  0  0  0  0  0  0  0  0  0  0
   57.8870   32.2540   42.6230 C   0  0  0  0  0  0  0  0  0  0  0  0
   57.7920   32.3440   41.1550 C   0  0  0  0  0  0  0  0  0  0  0  0
   57.3660   31.1950   43.2630 N   0  0  0  0  0  0  0  0  0  0  0  0
   57.4850   31.1730   44.6020 C   0  0  0  0  0  0  0  0  0  0  0  0
   57.0020   30.1830   45.2500 N   0  0  0  0  0  0  0  0  0  0  0  0
   57.5080   28.8510   45.2050 C   0  0  0  0  0  0  0  0  0  0  0  0
   57.7350   28.2550   43.9600 C   0  0  0  0  0  0  0  0  0  0  0  0
   58.2270   26.9590   43.9510 C   0  0  0  0  0  0  0  0  0  0  0  0
   58.4880   26.2670   45.1290 C   0  0  0  0  0  0  0  0  0  0  0  0
   58.2610   26.8620   46.3510 C   0  0  0  0  0  0  0  0  0  0  0  0
   57.7670   28.1640   46.3750 C   0  0  0  0  0  0  0  0  0  0  0  0
   58.1070   32.1750   45.3190 C   0  0  0  0  0  0  0  0  0  0  0  0
   58.1840   32.0680   46.7030 C   0  0  0  0  0  0  0  0  0  0  0  0
   58.2156   33.6929   49.3753 H   0  0  0  0  0  0  0  0  0  0  0  0
   58.6028   31.9445   49.2341 H   0  0  0  0  0  0  0  0  0  0  0  0
   59.9252   33.1601   49.2341 H   0  0  0  0  0  0  0  0  0  0  0  0
   59.8237   34.9313   47.3291 H   0  0  0  0  0  0  0  0  0  0  0  0
   59.6784   35.1072   44.8542 H   0  0  0  0  0  0  0  0  0  0  0  0
   57.0185   33.0768   40.8819 H   0  0  0  0  0  0  0  0  0  0  0  0
   58.7610   32.6632   40.7437 H   0  0  0  0  0  0  0  0  0  0  0  0
   57.5256   31.3592   40.7437 H   0  0  0  0  0  0  0  0  0  0  0  0
   56.8850   30.4100   42.7810 H   0  0  0  0  0  0  0  0  0  0  0  0
   57.5308   28.7944   43.0233 H   0  0  0  0  0  0  0  0  0  0  0  0
   58.4160   26.4648   42.9866 H   0  0  0  0  0  0  0  0  0  0  0  0
   58.8777   25.2393   45.0849 H   0  0  0  0  0  0  0  0  0  0  0  0
   58.4654   26.3208   47.2866 H   0  0  0  0  0  0  0  0  0  0  0  0
   57.5799   28.6535   47.3421 H   0  0  0  0  0  0  0  0  0  0  0  0
   57.7517   31.1931   47.2106 H   0  0  0  0  0  0  0  0  0  0  0  0
  1  2  1  0
  2  3  2  0
  3  4  1  0
  4  5  2  0
  5  6  1  0
  6  7  2  0
  7  8  1  0
  7  9  1  0
  9 10  1  0
 10 11  2  0
 11 12  1  0
 12 13  2  0
 13 14  1  0
 14 15  2  0
 15 16  1  0
 16 17  2  0
 10 18  1  0
 18 19  2  0
 19  2  1  0
 18  5  1  0
 17 12  1  0
  1 20  1  0
  1 21  1  0
  1 22  1  0
  3 23  1  0
  4 24  1  0
  8 25  1  0
  8 26  1  0
  8 27  1  0
  9 28  1  0
 13 29  1  0
 14 30  1  0
 15 31  1  0
 16 32  1  0
 17 33  1  0
 19 34  1  0
M  END
>  <smiles>  (33) 
Cc1ccc2nc(C)[nH]c(=Nc3ccccc3)c2c1

>  <score_type>  (33) 
oracle

>  <origin>  (33) 
adg

>  <m_score__min__energy>  (33) 
-7.2800000000000002

>  <m_primary>  (33) 
energy

$$$$
33:0
     RDKit          3D

 35 37  0  0  0  0  0  0  0  0999 V2000
   60.9400   28.6040   44.6630 C   0  0  0  0  0  0  0  0  0  0  0  0
   60.0280   29.1350   45.6770 N   0  0  0  0  0  0  0  0  0  0  0  0
   58.7090   28.8410   45.8380 C   0  0  0  0  0  0  0  0  0  0  0  0
   57.9400   27.8520   45.0060 C   0  0  0  0  0  0  0  0  0  0  0  0
   56.4690   27.9010   45.3290 C   0  0  0  0  0  0  0  0  0  0  0  0
   55.9480   26.9520   45.9730 O   0  0  0  0  0  0  0  0  0  0  0  0
   55.6200   28.9660   44.8760 N   0  0  0  0  0  0  0  0  0  0  0  0
   55.8120   29.7560   43.6640 C   0  0  0  0  0  0  0  0  0  0  0  0
   56.6770   30.9440   43.9460 C   0  0  0  0  0  0  0  0  0  0  0  0
   57.5670   31.5240   43.0640 C   0  0  0  0  0  0  0  0  0  0  0  0
   58.1350   32.5740   43.7510 C   0  0  0  0  0  0  0  0  0  0  0  0
   57.5600   32.5690   45.0060 C   0  0  0  0  0  0  0  0  0  0  0  0
   56.6960   31.5840   45.0930 O   0  0  0  0  0  0  0  0  0  0  0  0
   58.1440   29.6270   46.8380 C   0  0  0  0  0  0  0  0  0  0  0  0
   59.1690   30.4330   47.2840 C   0  0  0  0  0  0  0  0  0  0  0  0
   59.1680   31.4320   48.2550 C   0  0  0  0  0  0  0  0  0  0  0  0
   60.3690   32.1290   48.4810 C   0  0  0  0  0  0  0  0  0  0  0  0
   61.5260   31.8180   47.7340 C   0  0  0  0  0  0  0  0  0  0  0  0
   61.4960   30.8060   46.7570 C   0  0  0  0  0  0  0  0  0  0  0  0
   60.2920   30.1220   46.5590 C   0  0  0  0  0  0  0  0  0  0  0  0
   61.7894   28.1094   45.1568 H   0  0  0  0  0  0  0  0  0  0  0  0
   60.4061   27.8756   44.0350 H   0  0  0  0  0  0  0  0  0  0  0  0
   61.3099   29.4279   44.0350 H   0  0  0  0  0  0  0  0  0  0  0  0
   58.0824   28.0901   43.9416 H   0  0  0  0  0  0  0  0  0  0  0  0
   58.3137   26.8417   45.2290 H   0  0  0  0  0  0  0  0  0  0  0  0
   56.2932   29.1314   42.8969 H   0  0  0  0  0  0  0  0  0  0  0  0
   54.8318   30.1055   43.3074 H   0  0  0  0  0  0  0  0  0  0  0  0
   57.7780   31.2130   42.0302 H   0  0  0  0  0  0  0  0  0  0  0  0
   58.8943   33.2756   43.3751 H   0  0  0  0  0  0  0  0  0  0  0  0
   57.7907   33.2821   45.8112 H   0  0  0  0  0  0  0  0  0  0  0  0
   57.1038   29.6088   47.1953 H   0  0  0  0  0  0  0  0  0  0  0  0
   58.2581   31.6681   48.8262 H   0  0  0  0  0  0  0  0  0  0  0  0
   60.4068   32.9206   49.2439 H   0  0  0  0  0  0  0  0  0  0  0  0
   62.4587   32.3715   47.9174 H   0  0  0  0  0  0  0  0  0  0  0  0
   62.3914   30.5603   46.1672 H   0  0  0  0  0  0  0  0  0  0  0  0
  1  2  1  0
  2  3  1  0
  3  4  1  0
  4  5  1  0
  5  6  2  0
  5  7  1  0
  7  8  1  0
  8  9  1  0
  9 10  2  0
 10 11  1  0
 11 12  2  0
 12 13  1  0
  3 14  2  0
 14 15  1  0
 15 16  2  0
 16 17  1  0
 17 18  2  0
 18 19  1  0
 19 20  2  0
 20  2  1  0
 13  9  1  0
 20 15  1  0
  1 21  1  0
  1 22  1  0
  1 23  1  0
  4 24  1  0
  4 25  1  0
  8 26  1  0
  8 27  1  0
 10 28  1  0
 11 29  1  0
 12 30  1  0
 14 31  1  0
 16 32  1  0
 17 33  1  0
 18 34  1  0
 19 35  1  0
M  CHG  1   7  -1
M  END
>  <UniqueID>  (34) 
30

>  <SMILES>  (34) 
Cn1c(CC(=O)[N-]Cc2ccco2)cc2ccccc21

>  <Energy>  (34) 
92.55715910305972

>  <Genealogy>  (34) 
Cn1c(CC(=O)[N-]Cc2ccco2)cc2ccccc21 (protonated)
Cn1c(CC(=O)[N-]Cc2ccco2)cc2ccccc21 (3D coordinates assigned)
Cn1c(CC(=O)[N-]Cc2ccco2)cc2ccccc21 (optimized conformer: 92.55715910305972 kcal/mol)

>  <smiles>  (34) 
Cn1c(CC(=O)NCc2ccco2)cc2ccccc21

>  <score_type>  (34) 
oracle

>  <origin>  (34) 
adg

>  <m_score__min__energy>  (34) 
-10.24

>  <m_primary>  (34) 
energy

$$$$
34:0
     RDKit          3D

 54 58  0  0  0  0  0  0  0  0999 V2000
   53.8960   19.8530   45.5960 O   0  0  0  0  0  0  0  0  0  0  0  0
   54.8240   20.5680   46.0590 C   0  0  0  0  0  0  0  0  0  0  0  0
   54.4970   21.7130   46.8480 N   0  0  0  0  0  0  0  0  0  0  0  0
   55.2890   22.9050   46.9420 C   0  0  0  0  0  0  0  0  0  0  0  0
   54.8120   24.0870   46.3730 C   0  0  0  0  0  0  0  0  0  0  0  0
   55.5450   25.2280   46.4500 N   0  0  0  0  0  0  0  0  0  0  0  0
   56.7410   25.2530   47.0920 C   0  0  0  0  0  0  0  0  0  0  0  0
   57.4800   26.4830   47.1390 N   0  0  0  0  0  0  0  0  0  0  0  0
   57.3890   27.4800   46.3060 C   0  0  0  0  0  0  0  0  0  0  0  0
   56.2570   27.7870   45.6160 N   0  0  0  0  0  0  0  0  0  0  0  0
   56.6220   28.8780   44.9170 C   0  0  0  0  0  0  0  0  0  0  0  0
   55.8360   29.6230   44.0410 C   0  0  0  0  0  0  0  0  0  0  0  0
   56.4240   30.7420   43.4240 C   0  0  0  0  0  0  0  0  0  0  0  0
   57.7680   31.0850   43.6940 C   0  0  0  0  0  0  0  0  0  0  0  0
   58.5360   30.3120   44.5840 C   0  0  0  0  0  0  0  0  0  0  0  0
   57.9220   29.2080   45.1810 C   0  0  0  0  0  0  0  0  0  0  0  0
   58.4260   28.3220   46.0580 N   0  0  0  0  0  0  0  0  0  0  0  0
   59.7470   28.3220   46.6920 C   0  0  0  0  0  0  0  0  0  0  0  0
   60.0170   29.6620   47.3210 C   0  0  0  0  0  0  0  0  0  0  0  0
   59.2070   30.1310   48.3680 C   0  0  0  0  0  0  0  0  0  0  0  0
   59.4850   31.3580   48.9800 C   0  0  0  0  0  0  0  0  0  0  0  0
   60.5770   32.1190   48.5570 C   0  0  0  0  0  0  0  0  0  0  0  0
   61.3940   31.6560   47.5210 C   0  0  0  0  0  0  0  0  0  0  0  0
   61.1190   30.4310   46.9070 C   0  0  0  0  0  0  0  0  0  0  0  0
   57.2070   24.1220   47.6880 N   0  0  0  0  0  0  0  0  0  0  0  0
   56.5110   22.9580   47.6390 C   0  0  0  0  0  0  0  0  0  0  0  0
   56.9540   21.9500   48.2490 O   0  0  0  0  0  0  0  0  0  0  0  0
   56.1590   20.2740   45.7660 O   0  0  0  0  0  0  0  0  0  0  0  0
   56.7280   20.4640   44.4750 C   0  0  0  0  0  0  0  0  0  0  0  0
   56.9340   21.9310   44.2420 C   0  0  0  0  0  0  0  0  0  0  0  0
   57.9970   22.6080   44.8630 C   0  0  0  0  0  0  0  0  0  0  0  0
   58.2090   23.9670   44.6090 C   0  0  0  0  0  0  0  0  0  0  0  0
   57.3720   24.6540   43.7260 C   0  0  0  0  0  0  0  0  0  0  0  0
   56.3240   23.9820   43.0900 C   0  0  0  0  0  0  0  0  0  0  0  0
   56.1080   22.6230   43.3410 C   0  0  0  0  0  0  0  0  0  0  0  0
   53.8388   24.0945   45.8603 H   0  0  0  0  0  0  0  0  0  0  0  0
   54.7910   29.3457   43.8386 H   0  0  0  0  0  0  0  0  0  0  0  0
   55.8336   31.3543   42.7265 H   0  0  0  0  0  0  0  0  0  0  0  0
   58.2168   31.9622   43.2051 H   0  0  0  0  0  0  0  0  0  0  0  0
   59.5833   30.5679   44.8022 H   0  0  0  0  0  0  0  0  0  0  0  0
   59.7786   27.5427   47.4677 H   0  0  0  0  0  0  0  0  0  0  0  0
   60.5133   28.1208   45.9289 H   0  0  0  0  0  0  0  0  0  0  0  0
   58.3502   29.5310   48.7084 H   0  0  0  0  0  0  0  0  0  0  0  0
   58.8430   31.7236   49.7950 H   0  0  0  0  0  0  0  0  0  0  0  0
   60.7945   33.0834   49.0392 H   0  0  0  0  0  0  0  0  0  0  0  0
   62.2538   32.2564   47.1890 H   0  0  0  0  0  0  0  0  0  0  0  0
   61.7674   30.0669   46.0964 H   0  0  0  0  0  0  0  0  0  0  0  0
   57.6948   19.9424   44.4179 H   0  0  0  0  0  0  0  0  0  0  0  0
   56.0521   20.0577   43.7081 H   0  0  0  0  0  0  0  0  0  0  0  0
   58.6643   22.0679   45.5507 H   0  0  0  0  0  0  0  0  0  0  0  0
   59.0361   24.4958   45.1053 H   0  0  0  0  0  0  0  0  0  0  0  0
   57.5377   25.7239   43.5312 H   0  0  0  0  0  0  0  0  0  0  0  0
   55.6685   24.5226   42.3914 H   0  0  0  0  0  0  0  0  0  0  0  0
   55.2888   22.0946   42.8313 H   0  0  0  0  0  0  0  0  0  0  0  0
  1  2  2  0
  2  3  1  0
  3  4  1  0
  4  5  2  0
  5  6  1  0
  6  7  1  0
  7  8  1  0
  8  9  2  3
  9 10  1  0
 10 11  1  0
 11 12  2  0
 12 13  1  0
 13 14  2  0
 14 15  1  0
 15 16  2  0
 16 17  1  0
 17 18  1  0
 18 19  1  0
 19 20  2  0
 20 21  1  0
 21 22  2  0
 22 23  1  0
 23 24  2  0
  7 25  2  0
 25 26  1  0
 26 27  2  0
  2 28  1  0
 28 29  1  0
 29 30  1  0
 30 31  2  0
 31 32  1  0
 32 33  2  0
 33 34  1  0
 34 35  2  0
 26  4  1  0
 35 30  1  0
 17  9  1  0
 24 19  1  0
 16 11  1  0
  5 36  1  0
 12 37  1  0
 13 38  1  0
 14 39  1  0
 15 40  1  0
 18 41  1  0
 18 42  1  0
 20 43  1  0
 21 44  1  0
 22 45  1  0
 23 46  1  0
 24 47  1  0
 29 48  1  0
 29 49  1  0
 31 50  1  0
 32 51  1  0
 33 52  1  0
 34 53  1  0
 35 54  1  0
M  CHG  3   3  -1   6  -1  10  -1
M  END
>  <UniqueID>  (35) 
31

>  <SMILES>  (35) 
O=C([N-]c1c[n-]c(N=c2[n-]c3ccccc3n2Cc2ccccc2)nc1=O)OCc1ccccc1

>  <Energy>  (35) 
102.75422065503358

>  <Genealogy>  (35) 
O=C([N-]c1c[n-]c(N=c2[n-]c3ccccc3n2Cc2ccccc2)nc1=O)OCc1ccccc1 (protonated)
O=C([N-]c1c[n-]c(N=c2[n-]c3ccccc3n2Cc2ccccc2)nc1=O)OCc1ccccc1 (3D coordinates assigned)
O=C([N-]c1c[n-]c(N=c2[n-]c3ccccc3n2Cc2ccccc2)nc1=O)OCc1ccccc1 (optimized conformer: 102.75422065503358 kcal/mol)

>  <smiles>  (35) 
O=C(Nc1c[nH]c(N=c2[nH]c3ccccc3n2Cc2ccccc2)nc1=O)OCc1ccccc1

>  <score_type>  (35) 
oracle

>  <origin>  (35) 
adg

>  <m_score__min__energy>  (35) 
-12.58

>  <m_primary>  (35) 
energy

$$$$
35:0
     RDKit          3D

 51 55  0  0  0  0  0  0  0  0999 V2000
   58.7676   31.7791   49.4660 H   0  0  0  0  0  0  0  0  0  0  0  0
   58.9030   32.4640   48.6160 C   0  0  0  0  0  0  0  0  0  0  0  0
   58.4600   32.0990   47.3740 N   0  0  0  0  0  0  0  0  0  0  0  0
   58.6380   32.9580   46.3380 C   0  0  0  0  0  0  0  0  0  0  0  0
   59.2390   34.1730   46.4940 C   0  0  0  0  0  0  0  0  0  0  0  0
   59.7080   34.5950   47.7310 C   0  0  0  0  0  0  0  0  0  0  0  0
   60.1941   35.5736   47.8573 H   0  0  0  0  0  0  0  0  0  0  0  0
   59.5340   33.7150   48.8170 C   0  0  0  0  0  0  0  0  0  0  0  0
   59.8877   33.9993   49.8190 H   0  0  0  0  0  0  0  0  0  0  0  0
   59.2340   34.7510   45.2440 C   0  0  0  0  0  0  0  0  0  0  0  0
   59.6395   35.7400   44.9844 H   0  0  0  0  0  0  0  0  0  0  0  0
   58.6390   33.8810   44.3910 N   0  0  0  0  0  0  0  0  0  0  0  0
   58.5190   34.0410   43.3670 H   0  0  0  0  0  0  0  0  0  0  0  0
   58.2700   32.7860   45.0540 N   0  0  0  0  0  0  0  0  0  0  0  0
   57.6260   31.6300   44.4820 C   0  0  0  0  0  0  0  0  0  0  0  0
   57.3320   30.5600   45.2710 N   0  0  0  0  0  0  0  0  0  0  0  0
   56.7280   29.4490   44.7770 C   0  0  0  0  0  0  0  0  0  0  0  0
   56.4520   28.4650   45.5820 N   0  0  0  0  0  0  0  0  0  0  0  0
   57.2470   27.2910   45.8190 C   0  0  0  0  0  0  0  0  0  0  0  0
   58.0730   27.1680   46.9510 C   0  0  0  0  0  0  0  0  0  0  0  0
   58.1510   28.0000   47.6664 H   0  0  0  0  0  0  0  0  0  0  0  0
   58.7950   25.9910   47.1690 C   0  0  0  0  0  0  0  0  0  0  0  0
   59.4494   25.9041   48.0489 H   0  0  0  0  0  0  0  0  0  0  0  0
   58.6880   24.9250   46.2730 C   0  0  0  0  0  0  0  0  0  0  0  0
   59.2616   24.0030   46.4487 H   0  0  0  0  0  0  0  0  0  0  0  0
   57.8520   25.0240   45.1490 C   0  0  0  0  0  0  0  0  0  0  0  0
   57.7180   23.9140   44.2390 N   0  0  0  0  0  0  0  0  0  0  0  0
   58.3980   22.6450   44.5180 C   0  0  0  0  0  0  0  0  0  0  0  0
   58.3335   22.4299   45.5948 H   0  0  0  0  0  0  0  0  0  0  0  0
   59.4500   22.7320   44.2085 H   0  0  0  0  0  0  0  0  0  0  0  0
   57.7450   21.4940   43.7330 C   0  0  0  0  0  0  0  0  0  0  0  0
   57.9848   20.5428   44.2307 H   0  0  0  0  0  0  0  0  0  0  0  0
   58.1393   21.5141   42.7063 H   0  0  0  0  0  0  0  0  0  0  0  0
   56.2750   21.6400   43.6630 N   0  0  0  0  0  0  0  0  0  0  0  0
   55.6450   21.4640   44.9840 C   0  0  0  0  0  0  0  0  0  0  0  0
   56.3834   21.6703   45.7728 H   0  0  0  0  0  0  0  0  0  0  0  0
   54.7991   22.1602   45.0825 H   0  0  0  0  0  0  0  0  0  0  0  0
   55.2824   20.4302   45.0825 H   0  0  0  0  0  0  0  0  0  0  0  0
   55.8380   22.8990   43.0050 C   0  0  0  0  0  0  0  0  0  0  0  0
   54.9373   23.2642   43.5201 H   0  0  0  0  0  0  0  0  0  0  0  0
   55.6522   22.6584   41.9478 H   0  0  0  0  0  0  0  0  0  0  0  0
   56.8970   24.0170   43.0290 C   0  0  0  0  0  0  0  0  0  0  0  0
   56.3930   24.9946   43.0146 H   0  0  0  0  0  0  0  0  0  0  0  0
   57.5457   23.9145   42.1466 H   0  0  0  0  0  0  0  0  0  0  0  0
   57.1210   26.2070   44.9410 C   0  0  0  0  0  0  0  0  0  0  0  0
   56.4422   26.2820   44.0787 H   0  0  0  0  0  0  0  0  0  0  0  0
   56.3850   29.4030   43.4590 N   0  0  0  0  0  0  0  0  0  0  0  0
   56.6510   30.4440   42.6300 C   0  0  0  0  0  0  0  0  0  0  0  0
   56.3706   30.3862   41.5679 H   0  0  0  0  0  0  0  0  0  0  0  0
   57.2790   31.5860   43.1230 C   0  0  0  0  0  0  0  0  0  0  0  0
   57.4984   32.4360   42.4602 H   0  0  0  0  0  0  0  0  0  0  0  0
  1  2  1  0
  2  3  2  0
  3  4  1  0
  4  5  2  0
  5  6  1  0
  6  7  1  0
  6  8  2  0
  8  9  1  0
  5 10  1  0
 10 11  1  0
 10 12  2  0
 12 13  1  0
 12 14  1  0
 14 15  1  0
 15 16  2  0
 16 17  1  0
 17 18  2  0
 18 19  1  0
 19 20  2  0
 20 21  1  0
 20 22  1  0
 22 23  1  0
 22 24  2  0
 24 25  1  0
 24 26  1  0
 26 27  1  0
 27 28  1  0
 28 29  1  0
 28 30  1  0
 28 31  1  0
 31 32  1  0
 31 33  1  0
 31 34  1  0
 34 35  1  0
 35 36  1  0
 35 37  1  0
 35 38  1  0
 34 39  1  0
 39 40  1  0
 39 41  1  0
 39 42  1  0
 42 43  1  0
 42 44  1  0
 26 45  2  0
 45 46  1  0
 17 47  1  0
 47 48  1  0
 48 49  1  0
 48 50  2  0
 50 51  1  0
  8  2  1  0
 50 15  1  0
 14  4  1  0
 45 19  1  0
 42 27  1  0
M  CHG  2  12   1  47  -1
M  END
>  <UniqueID>  (36) 
32

>  <SMILES>  (36) 
CN1CCN(c2cccc(/N=c3/nc(-n4[nH+]cc5cccnc54)cc[n-]3)c2)CC1

>  <Energy>  (36) 
119.48118429276919

>  <Genealogy>  (36) 
CN1CCN(c2cccc(N=c3nc(-n4[nH+]cc5cccnc54)cc[n-]3)c2)CC1 (protonated)
CN1CCN(c2cccc(/N=c3/nc(-n4[nH+]cc5cccnc54)cc[n-]3)c2)CC1 (cis-trans isomerization)
CN1CCN(c2cccc(/N=c3/nc(-n4[nH+]cc5cccnc54)cc[n-]3)c2)CC1 (3D coordinates assigned)
CN1CCN(c2cccc(/N=c3/nc(-n4[nH+]cc5cccnc54)cc[n-]3)c2)CC1 (nonaromatic ring conformer: 119.48118429276919 kcal/mol)

>  <smiles>  (36) 
CN1CCN(c2cccc(N=c3nc(-n4ncc5cccnc54)cc[nH]3)c2)CC1

>  <score_type>  (36) 
oracle

>  <origin>  (36) 
adg

>  <m_score__min__energy>  (36) 
-9.3599999999999994

>  <m_primary>  (36) 
energy

$$$$
36:0
     RDKit          3D

 58 62  0  0  1  0  0  0  0  0999 V2000
   60.0440   27.9100   45.8610 Br  0  0  0  0  0  0  0  0  0  0  0  0
   58.6800   28.9880   45.0790 C   0  0  0  0  0  0  0  0  0  0  0  0
   57.8370   28.5170   44.0870 C   0  0  0  0  0  0  0  0  0  0  0  0
   56.8640   29.3400   43.5540 C   0  0  0  0  0  0  0  0  0  0  0  0
   56.7060   30.6310   43.9830 C   0  0  0  0  0  0  0  0  0  0  0  0
   57.5550   31.1390   44.9960 C   0  0  0  0  0  0  0  0  0  0  0  0
   57.3570   32.3710   45.5150 N   0  0  0  0  0  0  0  0  0  0  0  0
   58.0890   33.2460   45.9550 C   0  0  0  0  0  0  0  0  0  0  0  0
   58.5310   34.2040   45.0960 N   0  0  0  0  0  0  0  0  0  0  0  0
   59.3300   35.1870   45.5040 C   0  0  0  0  0  0  0  0  0  0  0  0
   59.7250   35.2610   46.7800 N   0  0  0  0  0  0  0  0  0  0  0  0
   59.2950   34.3220   47.6360 C   0  0  0  0  0  0  0  0  0  0  0  0
   59.7170   34.4260   48.9370 C   0  0  0  0  0  0  0  0  0  0  0  0
   59.2860   33.4720   49.8240 C   0  0  0  0  0  0  0  0  0  0  0  0
   58.4680   32.4220   49.5230 C   0  0  0  0  0  0  0  0  0  0  0  0
   58.0500   31.4700   50.4930 N   0  0  0  0  0  0  0  0  0  0  0  0
   58.6120   30.1370   50.5560 C   0  0  0  0  0  0  0  0  0  0  0  0
   59.0220   29.7590   49.1690 C   0  0  0  0  0  0  0  0  0  0  0  0
   60.5130   29.6750   48.9520 C   0  0  0  0  0  0  0  0  0  0  0  0
   61.1370   30.7330   49.7190 N   0  0  0  0  0  0  0  0  0  0  0  0
   62.5170   30.9500   49.3730 C   0  0  0  0  0  0  0  0  0  0  0  0
   62.6800   32.0330   48.3980 C   0  0  0  0  0  0  0  0  0  0  0  0
   61.8150   32.1300   47.3210 C   0  0  0  0  0  0  0  0  0  0  0  0
   61.9180   33.1340   46.3700 C   0  0  0  0  0  0  0  0  0  0  0  0
   62.9130   34.0880   46.4780 C   0  0  0  0  0  0  0  0  0  0  0  0
   63.7780   34.0120   47.5340 C   0  0  0  0  0  0  0  0  0  0  0  0
   63.6640   33.0090   48.4730 C   0  0  0  0  0  0  0  0  0  0  0  0
   61.0820   30.2330   51.1030 C   0  0  0  0  0  0  0  0  0  0  0  0
   59.6860   30.1390   51.5870 C   0  0  0  0  0  0  0  0  0  0  0  0
   58.0500   32.3400   48.1810 C   0  0  0  0  0  0  0  0  0  0  0  0
   58.4630   33.2750   47.2730 C   0  0  0  0  0  0  0  0  0  0  0  0
   58.5490   30.2840   45.5350 C   0  0  0  0  0  0  0  0  0  0  0  0
   57.9423   27.4846   43.7222 H   0  0  0  0  0  0  0  0  0  0  0  0
   56.2013   28.9498   42.7675 H   0  0  0  0  0  0  0  0  0  0  0  0
   55.9249   31.2689   43.5436 H   0  0  0  0  0  0  0  0  0  0  0  0
   59.6692   35.9467   44.7844 H   0  0  0  0  0  0  0  0  0  0  0  0
   60.3470   36.0430   47.0550 H   0  0  0  0  0  0  0  0  0  0  0  0
   60.3775   35.2451   49.2578 H   0  0  0  0  0  0  0  0  0  0  0  0
   59.6287   33.5611   50.8655 H   0  0  0  0  0  0  0  0  0  0  0  0
   57.3030   31.7610   51.1860 H   0  0  0  0  0  0  0  0  0  0  0  0
   57.9054   29.3588   50.8803 H   0  0  0  0  0  0  0  0  0  0  0  0
   58.5865   28.7753   48.9393 H   0  0  0  0  0  0  0  0  0  0  0  0
   58.6570   30.5594   48.5086 H   0  0  0  0  0  0  0  0  0  0  0  0
   60.8853   28.6976   49.2925 H   0  0  0  0  0  0  0  0  0  0  0  0
   60.7506   29.7862   47.8837 H   0  0  0  0  0  0  0  0  0  0  0  0
   63.0746   31.2079   50.2854 H   0  0  0  0  0  0  0  0  0  0  0  0
   62.9003   30.0251   48.9175 H   0  0  0  0  0  0  0  0  0  0  0  0
   61.0154   31.3819   47.2158 H   0  0  0  0  0  0  0  0  0  0  0  0
   61.2085   33.1714   45.5302 H   0  0  0  0  0  0  0  0  0  0  0  0
   63.0065   34.8901   45.7311 H   0  0  0  0  0  0  0  0  0  0  0  0
   64.5763   34.7618   47.6359 H   0  0  0  0  0  0  0  0  0  0  0  0
   64.3771   32.9813   49.3101 H   0  0  0  0  0  0  0  0  0  0  0  0
   61.5424   29.2348   51.1417 H   0  0  0  0  0  0  0  0  0  0  0  0
   61.6260   30.9384   51.7484 H   0  0  0  0  0  0  0  0  0  0  0  0
   59.5961   29.2053   52.1616 H   0  0  0  0  0  0  0  0  0  0  0  0
   59.5225   31.0586   52.1681 H   0  0  0  0  0  0  0  0  0  0  0  0
   57.3888   31.5208   47.8620 H   0  0  0  0  0  0  0  0  0  0  0  0
   59.2208   30.6562   46.3225 H   0  0  0  0  0  0  0  0  0  0  0  0
  1  2  1  0
  2  3  2  0
  3  4  1  0
  4  5  2  0
  5  6  1  0
  6  7  1  0
  7  8  2  0
  8  9  1  0
  9 10  2  0
 10 11  1  0
 11 12  1  0
 12 13  2  0
 13 14  1  0
 14 15  2  0
 15 16  1  0
 16 17  1  0
 17 18  1  0
 18 19  1  0
 19 20  1  0
 20 21  1  0
 21 22  1  0
 22 23  2  0
 23 24  1  0
 24 25  2  0
 25 26  1  0
 26 27  2  0
 20 28  1  0
 28 29  1  0
 15 30  1  0
 30 31  2  0
  6 32  2  0
 32  2  1  0
 31  8  1  0
 31 12  1  0
 29 17  1  0
 27 22  1  0
  3 33  1  0
  4 34  1  0
  5 35  1  0
 10 36  1  0
 11 37  1  0
 13 38  1  0
 14 39  1  0
 16 40  1  0
 17 41  1  0
 18 42  1  0
 18 43  1  0
 19 44  1  0
 19 45  1  0
 21 46  1  0
 21 47  1  0
 23 48  1  0
 24 49  1  0
 25 50  1  0
 26 51  1  0
 27 52  1  0
 28 53  1  0
 28 54  1  0
 29 55  1  0
 29 56  1  0
 30 57  1  0
 32 58  1  0
M  END
>  <smiles>  (37) 
Brc1cccc(N=c2nc[nH]c3ccc(NC4CCN(Cc5ccccc5)CC4)cc23)c1

>  <score_type>  (37) 
oracle

>  <origin>  (37) 
adg

>  <m_score__min__energy>  (37) 
-9.8399999999999999

>  <m_primary>  (37) 
energy

$$$$
37:0
     RDKit          3D

 21 21  0  0  0  0  0  0  0  0999 V2000
   56.2830   29.7120   42.7870 C   0  0  0  0  0  0  0  0  0  0  0  0
   55.9520   30.0870   44.1920 C   0  0  0  0  0  0  0  0  0  0  0  0
   55.1610   29.3660   44.8600 O   0  0  0  0  0  0  0  0  0  0  0  0
   56.5620   31.2050   44.7680 O   0  0  0  0  0  0  0  0  0  0  0  0
   57.7420   31.8110   44.2430 C   0  0  0  0  0  0  0  0  0  0  0  0
   58.3330   32.7670   45.2460 C   0  0  0  0  0  0  0  0  0  0  0  0
   58.7050   34.0580   44.8330 C   0  0  0  0  0  0  0  0  0  0  0  0
   59.2400   34.9670   45.7510 C   0  0  0  0  0  0  0  0  0  0  0  0
   59.4060   34.5960   47.0870 C   0  0  0  0  0  0  0  0  0  0  0  0
   59.0360   33.3160   47.5090 C   0  0  0  0  0  0  0  0  0  0  0  0
   58.5010   32.4010   46.5960 C   0  0  0  0  0  0  0  0  0  0  0  0
   58.1450   31.1650   47.0310 F   0  0  0  0  0  0  0  0  0  0  0  0
   57.0109   28.8873   42.7894 H   0  0  0  0  0  0  0  0  0  0  0  0
   55.3677   29.3917   42.2677 H   0  0  0  0  0  0  0  0  0  0  0  0
   56.7145   30.5804   42.2677 H   0  0  0  0  0  0  0  0  0  0  0  0
   58.4789   31.0280   44.0109 H   0  0  0  0  0  0  0  0  0  0  0  0
   57.4813   32.3675   43.3307 H   0  0  0  0  0  0  0  0  0  0  0  0
   58.5745   34.3549   43.7819 H   0  0  0  0  0  0  0  0  0  0  0  0
   59.5304   35.9752   45.4205 H   0  0  0  0  0  0  0  0  0  0  0  0
   59.8283   35.3117   47.8078 H   0  0  0  0  0  0  0  0  0  0  0  0
   59.1659   33.0271   48.5624 H   0  0  0  0  0  0  0  0  0  0  0  0
  1  2  1  0
  2  3  2  0
  2  4  1  0
  4  5  1  0
  5  6  1  0
  6  7  2  0
  7  8  1  0
  8  9  2  0
  9 10  1  0
 10 11  2  0
 11 12  1  0
 11  6  1  0
  1 13  1  0
  1 14  1  0
  1 15  1  0
  5 16  1  0
  5 17  1  0
  7 18  1  0
  8 19  1  0
  9 20  1  0
 10 21  1  0
M  END
>  <UniqueID>  (38) 
33

>  <SMILES>  (38) 
CC(=O)OCc1ccccc1F

>  <Energy>  (38) 
16.312897182531295

>  <Genealogy>  (38) 
CC(=O)OCc1ccccc1F (3D coordinates assigned)
CC(=O)OCc1ccccc1F (optimized conformer: 16.312897182531295 kcal/mol)

>  <smiles>  (38) 
CC(=O)OCc1ccccc1F

>  <score_type>  (38) 
oracle

>  <origin>  (38) 
adg

>  <m_score__min__energy>  (38) 
-5.6500000000000004

>  <m_primary>  (38) 
energy

$$$$
38:0
     RDKit          3D

 51 54  0  0  0  0  0  0  0  0999 V2000
   59.8861   28.2106   47.8099 H   0  0  0  0  0  0  0  0  0  0  0  0
   59.0830   28.4690   47.1040 C   0  0  0  0  0  0  0  0  0  0  0  0
   58.0450   27.6140   46.9160 N   0  0  0  0  0  0  0  0  0  0  0  0
   57.0250   27.8840   46.0570 C   0  0  0  0  0  0  0  0  0  0  0  0
   56.0600   27.0110   45.9510 N   0  0  0  0  0  0  0  0  0  0  0  0
   56.1490   25.5780   46.0100 C   0  0  0  0  0  0  0  0  0  0  0  0
   55.1440   24.8760   46.3050 O   0  0  0  0  0  0  0  0  0  0  0  0
   57.4650   24.9150   45.7630 C   0  0  0  0  0  0  0  0  0  0  0  0
   58.1614   25.6402   45.3168 H   0  0  0  0  0  0  0  0  0  0  0  0
   57.8724   24.5491   46.7170 H   0  0  0  0  0  0  0  0  0  0  0  0
   57.2820   23.7560   44.8240 C   0  0  0  0  0  0  0  0  0  0  0  0
   56.3790   23.8470   43.7500 C   0  0  0  0  0  0  0  0  0  0  0  0
   55.7823   24.7608   43.6123 H   0  0  0  0  0  0  0  0  0  0  0  0
   56.2360   22.7810   42.8560 C   0  0  0  0  0  0  0  0  0  0  0  0
   55.5202   22.8538   42.0239 H   0  0  0  0  0  0  0  0  0  0  0  0
   57.0020   21.6230   43.0190 C   0  0  0  0  0  0  0  0  0  0  0  0
   56.8873   20.7846   42.3163 H   0  0  0  0  0  0  0  0  0  0  0  0
   57.9140   21.5300   44.0750 C   0  0  0  0  0  0  0  0  0  0  0  0
   58.5190   20.6198   44.1997 H   0  0  0  0  0  0  0  0  0  0  0  0
   58.0580   22.5930   44.9730 C   0  0  0  0  0  0  0  0  0  0  0  0
   58.7810   22.5187   45.7987 H   0  0  0  0  0  0  0  0  0  0  0  0
   57.0670   29.0730   45.3010 C   0  0  0  0  0  0  0  0  0  0  0  0
   56.2760   29.2889   44.5677 H   0  0  0  0  0  0  0  0  0  0  0  0
   58.1210   29.9800   45.4870 C   0  0  0  0  0  0  0  0  0  0  0  0
   58.1530   31.2500   44.7260 C   0  0  0  0  0  0  0  0  0  0  0  0
   58.5940   32.4880   45.1800 C   0  0  0  0  0  0  0  0  0  0  0  0
   59.2420   32.8000   46.4730 C   0  0  0  0  0  0  0  0  0  0  0  0
   58.5320   32.7120   47.6820 C   0  0  0  0  0  0  0  0  0  0  0  0
   57.4803   32.3896   47.6753 H   0  0  0  0  0  0  0  0  0  0  0  0
   59.1520   33.0310   48.8930 C   0  0  0  0  0  0  0  0  0  0  0  0
   58.5829   32.9701   49.8323 H   0  0  0  0  0  0  0  0  0  0  0  0
   60.5020   33.4300   48.9160 C   0  0  0  0  0  0  0  0  0  0  0  0
   61.1660   33.7700   50.1030 O   0  0  0  0  0  0  0  0  0  0  0  0
   62.5480   34.1090   50.1830 C   0  0  0  0  0  0  0  0  0  0  0  0
   62.8470   34.1823   51.2390 H   0  0  0  0  0  0  0  0  0  0  0  0
   63.1458   33.3309   49.6859 H   0  0  0  0  0  0  0  0  0  0  0  0
   62.7178   35.0754   49.6859 H   0  0  0  0  0  0  0  0  0  0  0  0
   61.2150   33.4910   47.7130 C   0  0  0  0  0  0  0  0  0  0  0  0
   62.2733   33.7910   47.7212 H   0  0  0  0  0  0  0  0  0  0  0  0
   60.5940   33.1740   46.5010 C   0  0  0  0  0  0  0  0  0  0  0  0
   61.1687   33.2181   45.5641 H   0  0  0  0  0  0  0  0  0  0  0  0
   58.3460   33.4240   44.2400 N   0  0  0  0  0  0  0  0  0  0  0  0
   57.7670   32.7450   43.2290 C   0  0  0  0  0  0  0  0  0  0  0  0
   57.4447   33.2122   42.2868 H   0  0  0  0  0  0  0  0  0  0  0  0
   57.6260   31.4320   43.4980 N   0  0  0  0  0  0  0  0  0  0  0  0
   56.9950   30.4430   42.6260 C   0  0  0  0  0  0  0  0  0  0  0  0
   56.5039   29.6734   43.2396 H   0  0  0  0  0  0  0  0  0  0  0  0
   56.2459   30.9388   41.9911 H   0  0  0  0  0  0  0  0  0  0  0  0
   57.7603   29.9726   41.9911 H   0  0  0  0  0  0  0  0  0  0  0  0
   59.1330   29.6740   46.4040 C   0  0  0  0  0  0  0  0  0  0  0  0
   59.9612   30.3784   46.5712 H   0  0  0  0  0  0  0  0  0  0  0  0
  1  2  1  0
  2  3  1  0
  3  4  1  0
  4  5  2  0
  5  6  1  0
  6  7  2  0
  6  8  1  0
  8  9  1  0
  8 10  1  0
  8 11  1  0
 11 12  2  0
 12 13  1  0
 12 14  1  0
 14 15  1  0
 14 16  2  0
 16 17  1  0
 16 18  1  0
 18 19  1  0
 18 20  2  0
 20 21  1  0
  4 22  1  0
 22 23  1  0
 22 24  2  0
 24 25  1  0
 25 26  2  0
 26 27  1  0
 27 28  2  0
 28 29  1  0
 28 30  1  0
 30 31  1  0
 30 32  2  0
 32 33  1  0
 33 34  1  0
 34 35  1  0
 34 36  1  0
 34 37  1  0
 32 38  1  0
 38 39  1  0
 38 40  2  0
 40 41  1  0
 26 42  1  0
 42 43  2  0
 43 44  1  0
 43 45  1  0
 45 46  1  0
 46 47  1  0
 46 48  1  0
 46 49  1  0
 24 50  1  0
 50 51  1  0
 50  2  2  0
 20 11  1  0
 45 25  1  0
 40 27  1  0
M  CHG  1   3  -1
M  END
>  <UniqueID>  (39) 
34

>  <SMILES>  (39) 
COc1ccc(-c2ncn(C)c2-c2cc[n-]/c(=N/C(=O)Cc3ccccc3)c2)cc1

>  <Energy>  (39) 
97.83479217440788

>  <Genealogy>  (39) 
COc1ccc(-c2ncn(C)c2-c2cc[n-]c(=NC(=O)Cc3ccccc3)c2)cc1 (protonated)
COc1ccc(-c2ncn(C)c2-c2cc[n-]/c(=N/C(=O)Cc3ccccc3)c2)cc1 (cis-trans isomerization)
COc1ccc(-c2ncn(C)c2-c2cc[n-]/c(=N/C(=O)Cc3ccccc3)c2)cc1 (3D coordinates assigned)
COc1ccc(-c2ncn(C)c2-c2cc[n-]/c(=N/C(=O)Cc3ccccc3)c2)cc1 (optimized conformer: 97.83479217440788 kcal/mol)

>  <smiles>  (39) 
COc1ccc(-c2ncn(C)c2-c2cc[nH]c(=NC(=O)Cc3ccccc3)c2)cc1

>  <score_type>  (39) 
oracle

>  <origin>  (39) 
adg

>  <m_score__min__energy>  (39) 
-9.9399999999999995

>  <m_primary>  (39) 
energy

$$$$
39:0
     RDKit          3D

 22 23  0  0  0  0  0  0  0  0999 V2000
   56.7019   23.8478   46.8047 H   0  0  0  0  0  0  0  0  0  0  0  0
   56.7070   24.8930   46.4620 C   0  0  0  0  0  0  0  0  0  0  0  0
   58.0480   25.9110   46.4100 S   0  0  0  0  0  0  0  0  0  0  0  0
   57.1720   27.2150   45.7960 C   0  0  0  0  0  0  0  0  0  0  0  0
   57.6310   28.3990   45.5040 N   0  0  0  0  0  0  0  0  0  0  0  0
   56.8780   29.5780   45.1690 C   0  0  0  0  0  0  0  0  0  0  0  0
   55.6740   29.4890   44.8000 O   0  0  0  0  0  0  0  0  0  0  0  0
   57.5210   30.9100   45.2570 C   0  0  0  0  0  0  0  0  0  0  0  0
   57.3710   31.8470   44.2150 C   0  0  0  0  0  0  0  0  0  0  0  0
   56.7727   31.5874   43.3292 H   0  0  0  0  0  0  0  0  0  0  0  0
   57.9770   33.1040   44.2990 C   0  0  0  0  0  0  0  0  0  0  0  0
   57.8534   33.8287   43.4808 H   0  0  0  0  0  0  0  0  0  0  0  0
   58.7400   33.4420   45.4210 C   0  0  0  0  0  0  0  0  0  0  0  0
   59.5000   35.0200   45.5230 Cl  0  0  0  0  0  0  0  0  0  0  0  0
   58.8960   32.5220   46.4600 C   0  0  0  0  0  0  0  0  0  0  0  0
   59.4964   32.7881   47.3424 H   0  0  0  0  0  0  0  0  0  0  0  0
   58.2910   31.2630   46.3820 C   0  0  0  0  0  0  0  0  0  0  0  0
   58.4176   30.5441   47.2049 H   0  0  0  0  0  0  0  0  0  0  0  0
   55.8730   26.8870   45.6300 N   0  0  0  0  0  0  0  0  0  0  0  0
   55.1460   27.5420   45.2610 H   0  0  0  0  0  0  0  0  0  0  0  0
   55.6080   25.6050   45.9960 C   0  0  0  0  0  0  0  0  0  0  0  0
   54.6020   25.1652   45.9286 H   0  0  0  0  0  0  0  0  0  0  0  0
  1  2  1  0
  2  3  1  0
  3  4  1  0
  4  5  2  0
  5  6  1  0
  6  7  2  0
  6  8  1  0
  8  9  2  0
  9 10  1  0
  9 11  1  0
 11 12  1  0
 11 13  2  0
 13 14  1  0
 13 15  1  0
 15 16  1  0
 15 17  2  0
 17 18  1  0
  4 19  1  0
 19 20  1  0
 19 21  1  0
 21 22  1  0
 21  2  2  0
 17  8  1  0
M  END
>  <UniqueID>  (40) 
35

>  <SMILES>  (40) 
O=C(/N=c1/[nH]ccs1)c1ccc(Cl)cc1

>  <Energy>  (40) 
56.69314355648013

>  <Genealogy>  (40) 
O=C(/N=c1/[nH]ccs1)c1ccc(Cl)cc1 (cis-trans isomerization)
O=C(/N=c1/[nH]ccs1)c1ccc(Cl)cc1 (3D coordinates assigned)
O=C(/N=c1/[nH]ccs1)c1ccc(Cl)cc1 (optimized conformer: 56.69314355648013 kcal/mol)

>  <smiles>  (40) 
O=C(N=c1[nH]ccs1)c1ccc(Cl)cc1

>  <score_type>  (40) 
oracle

>  <origin>  (40) 
adg

>  <m_score__min__energy>  (40) 
-6.4199999999999999

>  <m_primary>  (40) 
energy

$$$$
40:0
     RDKit          3D

 41 43  0  0  1  0  0  0  0  0999 V2000
   59.1260   35.5140   44.8240 C   0  0  0  0  0  0  0  0  0  0  0  0
   58.8570   34.6260   45.9880 C   0  0  0  0  0  0  0  0  0  0  0  0
   57.7660   33.7920   46.0560 C   0  0  0  0  0  0  0  0  0  0  0  0
   57.6020   33.0290   47.1500 N   0  0  0  0  0  0  0  0  0  0  0  0
   58.4580   33.0360   48.2010 C   0  0  0  0  0  0  0  0  0  0  0  0
   58.1950   32.2610   49.2100 N   0  0  0  0  0  0  0  0  0  0  0  0
   59.1020   31.1500   49.4810 C   0  0  0  0  0  0  0  0  0  0  0  0
   58.8420   30.3440   50.4020 O   0  0  0  0  0  0  0  0  0  0  0  0
   60.2670   31.0980   48.6170 C   0  0  0  0  0  0  0  0  0  0  0  0
   61.2720   31.9520   48.9510 N   0  0  0  0  0  0  0  0  0  0  0  0
   62.4270   32.0370   48.2820 C   0  0  0  0  0  0  0  0  0  0  0  0
   63.5330   32.9630   48.6250 C   0  0  0  0  0  0  0  0  0  0  0  0
   62.6200   31.2070   47.1820 C   0  0  0  0  0  0  0  0  0  0  0  0
   61.6320   30.3670   46.8520 N   0  0  0  0  0  0  0  0  0  0  0  0
   60.4560   30.2930   47.5470 C   0  0  0  0  0  0  0  0  0  0  0  0
   59.5990   29.4940   47.1220 N   0  0  0  0  0  0  0  0  0  0  0  0
   58.6980   29.6810   46.0800 C   0  0  0  0  0  0  0  0  0  0  0  0
   59.1160   30.5250   45.0270 C   0  0  0  0  0  0  0  0  0  0  0  0
   58.2670   30.8290   43.9830 C   0  0  0  0  0  0  0  0  0  0  0  0
   56.9820   30.3340   43.9090 C   0  0  0  0  0  0  0  0  0  0  0  0
   56.5790   29.5060   44.9460 C   0  0  0  0  0  0  0  0  0  0  0  0
   55.2930   28.9960   44.8920 O   0  0  0  0  0  0  0  0  0  0  0  0
   57.4160   29.1920   45.9950 C   0  0  0  0  0  0  0  0  0  0  0  0
   59.5220   33.8420   48.1460 N   0  0  0  0  0  0  0  0  0  0  0  0
   59.7200   34.6150   47.0730 C   0  0  0  0  0  0  0  0  0  0  0  0
   59.4274   36.5089   45.1837 H   0  0  0  0  0  0  0  0  0  0  0  0
   59.9343   35.0843   44.2141 H   0  0  0  0  0  0  0  0  0  0  0  0
   58.2151   35.6051   44.2141 H   0  0  0  0  0  0  0  0  0  0  0  0
   57.0407   33.7501   45.2301 H   0  0  0  0  0  0  0  0  0  0  0  0
   63.6226   33.0380   49.7188 H   0  0  0  0  0  0  0  0  0  0  0  0
   64.4751   32.5804   48.2053 H   0  0  0  0  0  0  0  0  0  0  0  0
   63.3219   33.9577   48.2053 H   0  0  0  0  0  0  0  0  0  0  0  0
   63.5544   31.2403   46.6025 H   0  0  0  0  0  0  0  0  0  0  0  0
   61.7900   29.7590   46.0260 H   0  0  0  0  0  0  0  0  0  0  0  0
   60.1324   30.9455   45.0397 H   0  0  0  0  0  0  0  0  0  0  0  0
   58.6279   31.4898   43.1810 H   0  0  0  0  0  0  0  0  0  0  0  0
   56.3125   30.5826   43.0723 H   0  0  0  0  0  0  0  0  0  0  0  0
   55.1270   27.9950   44.8950 H   0  0  0  0  0  0  0  0  0  0  0  0
   57.0460   28.5283   46.7904 H   0  0  0  0  0  0  0  0  0  0  0  0
   60.2050   33.8650   48.9490 H   0  0  0  0  0  0  0  0  0  0  0  0
   60.6041   35.2691   47.0502 H   0  0  0  0  0  0  0  0  0  0  0  0
  1  2  1  0
  2  3  1  0
  3  4  2  0
  4  5  1  0
  5  6  2  3
  6  7  1  0
  7  8  2  0
  7  9  1  0
  9 10  2  0
 10 11  1  0
 11 12  1  0
 11 13  2  0
 13 14  1  0
 14 15  1  0
 15 16  2  0
 16 17  1  0
 17 18  2  0
 18 19  1  0
 19 20  2  0
 20 21  1  0
 21 22  1  0
 21 23  2  0
  5 24  1  0
 24 25  1  0
 25  2  2  0
 15  9  1  0
 23 17  1  0
  1 26  1  0
  1 27  1  0
  1 28  1  0
  3 29  1  0
 12 30  1  0
 12 31  1  0
 12 32  1  0
 13 33  1  0
 14 34  1  0
 18 35  1  0
 19 36  1  0
 20 37  1  0
 22 38  1  0
 23 39  1  0
 24 40  1  0
 25 41  1  0
M  END
>  <smiles>  (41) 
Cc1cnc(=NC(=O)c2nc(C)c[nH]c2=Nc2cccc(O)c2)[nH]c1

>  <score_type>  (41) 
oracle

>  <origin>  (41) 
adg

>  <m_score__min__energy>  (41) 
-8.2400000000000002

>  <m_primary>  (41) 
energy

$$$$
41:0
     RDKit          3D

 36 39  0  0  0  0  0  0  0  0999 V2000
   58.5100   30.2230   47.1780 O   0  0  0  0  0  0  0  0  0  0  0  0
   58.4060   31.1000   46.2730 C   0  0  0  0  0  0  0  0  0  0  0  0
   57.7940   30.7080   45.0390 C   0  0  0  0  0  0  0  0  0  0  0  0
   57.3340   29.3800   44.8720 C   0  0  0  0  0  0  0  0  0  0  0  0
   56.7340   28.9690   43.6790 C   0  0  0  0  0  0  0  0  0  0  0  0
   56.5760   29.8690   42.6260 C   0  0  0  0  0  0  0  0  0  0  0  0
   57.0190   31.1840   42.7600 C   0  0  0  0  0  0  0  0  0  0  0  0
   57.6210   31.5990   43.9540 C   0  0  0  0  0  0  0  0  0  0  0  0
   58.1560   33.1850   44.1160 S   0  0  0  0  0  0  0  0  0  0  0  0
   58.8460   33.4720   45.6240 C   0  0  0  0  0  0  0  0  0  0  0  0
   59.3500   34.7390   45.9300 C   0  0  0  0  0  0  0  0  0  0  0  0
   59.9240   34.9800   47.1760 C   0  0  0  0  0  0  0  0  0  0  0  0
   59.9900   33.9580   48.1310 C   0  0  0  0  0  0  0  0  0  0  0  0
   60.6470   34.2090   49.4620 C   0  0  0  0  0  0  0  0  0  0  0  0
   62.1010   33.8290   49.4020 C   0  0  0  0  0  0  0  0  0  0  0  0
   62.6900   33.4680   48.1790 C   0  0  0  0  0  0  0  0  0  0  0  0
   64.0330   33.0800   48.1310 C   0  0  0  0  0  0  0  0  0  0  0  0
   64.7930   33.0410   49.3030 C   0  0  0  0  0  0  0  0  0  0  0  0
   64.2110   33.3880   50.5260 C   0  0  0  0  0  0  0  0  0  0  0  0
   62.8690   33.7760   50.5780 C   0  0  0  0  0  0  0  0  0  0  0  0
   59.4930   32.6820   47.8160 C   0  0  0  0  0  0  0  0  0  0  0  0
   58.9060   32.4110   46.5570 C   0  0  0  0  0  0  0  0  0  0  0  0
   57.4508   28.6596   45.6950 H   0  0  0  0  0  0  0  0  0  0  0  0
   56.3850   27.9315   43.5702 H   0  0  0  0  0  0  0  0  0  0  0  0
   56.1016   29.5414   41.6892 H   0  0  0  0  0  0  0  0  0  0  0  0
   56.8958   31.8943   41.9291 H   0  0  0  0  0  0  0  0  0  0  0  0
   59.2933   35.5471   45.1858 H   0  0  0  0  0  0  0  0  0  0  0  0
   60.3268   35.9764   47.4106 H   0  0  0  0  0  0  0  0  0  0  0  0
   60.5602   35.2760   49.7148 H   0  0  0  0  0  0  0  0  0  0  0  0
   60.1477   33.5999   50.2299 H   0  0  0  0  0  0  0  0  0  0  0  0
   62.0928   33.4905   47.2555 H   0  0  0  0  0  0  0  0  0  0  0  0
   64.4914   32.8053   47.1696 H   0  0  0  0  0  0  0  0  0  0  0  0
   65.8495   32.7372   49.2634 H   0  0  0  0  0  0  0  0  0  0  0  0
   64.8097   33.3557   51.4482 H   0  0  0  0  0  0  0  0  0  0  0  0
   62.4123   34.0409   51.5430 H   0  0  0  0  0  0  0  0  0  0  0  0
   59.5615   31.8775   48.5630 H   0  0  0  0  0  0  0  0  0  0  0  0
  1  2  2  0
  2  3  1  0
  3  4  2  0
  4  5  1  0
  5  6  2  0
  6  7  1  0
  7  8  2  0
  8  9  1  0
  9 10  1  0
 10 11  2  0
 11 12  1  0
 12 13  2  0
 13 14  1  0
 14 15  1  0
 15 16  2  0
 16 17  1  0
 17 18  2  0
 18 19  1  0
 19 20  2  0
 13 21  1  0
 21 22  2  0
 22  2  1  0
  8  3  1  0
 22 10  1  0
 20 15  1  0
  4 23  1  0
  5 24  1  0
  6 25  1  0
  7 26  1  0
 11 27  1  0
 12 28  1  0
 14 29  1  0
 14 30  1  0
 16 31  1  0
 17 32  1  0
 18 33  1  0
 19 34  1  0
 20 35  1  0
 21 36  1  0
M  END
>  <UniqueID>  (42) 
36

>  <SMILES>  (42) 
O=c1c2ccccc2sc2ccc(Cc3ccccc3)cc12

>  <Energy>  (42) 
51.47350769916581

>  <Genealogy>  (42) 
O=c1c2ccccc2sc2ccc(Cc3ccccc3)cc12 (3D coordinates assigned)
O=c1c2ccccc2sc2ccc(Cc3ccccc3)cc12 (optimized conformer: 51.47350769916581 kcal/mol)

>  <smiles>  (42) 
O=c1c2ccccc2sc2ccc(Cc3ccccc3)cc12

>  <score_type>  (42) 
oracle

>  <origin>  (42) 
adg

>  <m_score__min__energy>  (42) 
-8.4100000000000001

>  <m_primary>  (42) 
energy

$$$$
42:0
     RDKit          3D

 25 26  0  0  0  0  0  0  0  0999 V2000
   59.5810   34.6960   47.1510 C   0  0  0  0  0  0  0  0  0  0  0  0
   58.8240   33.6160   47.6170 C   0  0  0  0  0  0  0  0  0  0  0  0
   58.1250   32.8660   46.7080 C   0  0  0  0  0  0  0  0  0  0  0  0
   58.1600   33.1630   45.3480 C   0  0  0  0  0  0  0  0  0  0  0  0
   57.3970   32.3040   44.4420 C   0  0  0  0  0  0  0  0  0  0  0  0
   56.9760   31.0580   44.8710 N   0  0  0  0  0  0  0  0  0  0  0  0
   57.3210   29.8600   44.8010 C   0  0  0  0  0  0  0  0  0  0  0  0
   57.0870   29.0900   45.9140 N   0  0  0  0  0  0  0  0  0  0  0  0
   57.3870   27.8100   46.0140 C   0  0  0  0  0  0  0  0  0  0  0  0
   57.9770   27.1680   44.9490 C   0  0  0  0  0  0  0  0  0  0  0  0
   58.2280   27.9040   43.8160 C   0  0  0  0  0  0  0  0  0  0  0  0
   57.8950   29.2150   43.7790 N   0  0  0  0  0  0  0  0  0  0  0  0
   58.9100   34.2380   44.8630 C   0  0  0  0  0  0  0  0  0  0  0  0
   59.6080   34.9830   45.7950 C   0  0  0  0  0  0  0  0  0  0  0  0
   60.1527   35.3153   47.8578 H   0  0  0  0  0  0  0  0  0  0  0  0
   58.7906   33.3741   48.6896 H   0  0  0  0  0  0  0  0  0  0  0  0
   57.5251   32.0135   47.0591 H   0  0  0  0  0  0  0  0  0  0  0  0
   56.4948   32.8643   44.1554 H   0  0  0  0  0  0  0  0  0  0  0  0
   58.1168   32.0703   43.6437 H   0  0  0  0  0  0  0  0  0  0  0  0
   57.1676   27.2597   46.9409 H   0  0  0  0  0  0  0  0  0  0  0  0
   58.2390   26.1010   45.0030 H   0  0  0  0  0  0  0  0  0  0  0  0
   58.6980   27.4291   42.9422 H   0  0  0  0  0  0  0  0  0  0  0  0
   58.1050   29.7160   42.9060 H   0  0  0  0  0  0  0  0  0  0  0  0
   58.9433   34.4798   43.7904 H   0  0  0  0  0  0  0  0  0  0  0  0
   60.2082   35.8367   45.4472 H   0  0  0  0  0  0  0  0  0  0  0  0
  1  2  2  0
  2  3  1  0
  3  4  2  0
  4  5  1  0
  5  6  1  0
  6  7  2  3
  7  8  1  0
  8  9  2  0
  9 10  1  0
 10 11  2  0
 11 12  1  0
  4 13  1  0
 13 14  2  0
 14  1  1  0
 12  7  1  0
  1 15  1  0
  2 16  1  0
  3 17  1  0
  5 18  1  0
  5 19  1  0
  9 20  1  0
 10 21  1  0
 11 22  1  0
 12 23  1  0
 13 24  1  0
 14 25  1  0
M  END
>  <smiles>  (43) 
c1ccc(CN=c2nccc[nH]2)cc1

>  <score_type>  (43) 
oracle

>  <origin>  (43) 
adg

>  <m_score__min__energy>  (43) 
-6

>  <m_primary>  (43) 
energy

$$$$
43:0
     RDKit          3D

 47 49  0  0  0  0  0  0  0  0999 V2000
   59.2680   34.4070   44.5230 C   0  0  0  0  0  0  0  0  0  0  0  0
   58.9640   33.3260   45.4720 N   0  0  2  0  0  0  0  0  0  0  0  0
   57.5540   32.9030   45.3230 C   0  0  0  0  0  0  0  0  0  0  0  0
   57.4250   31.4340   44.9860 C   0  0  0  0  0  0  0  0  0  0  0  0
   56.2740   30.9400   44.8610 O   0  0  0  0  0  0  0  0  0  0  0  0
   58.5600   30.5620   44.8840 N   0  0  0  0  0  0  0  0  0  0  0  0
   58.5560   29.1280   44.9550 C   0  0  0  0  0  0  0  0  0  0  0  0
   57.9620   28.3680   43.9320 C   0  0  0  0  0  0  0  0  0  0  0  0
   57.9100   26.9760   44.0220 C   0  0  0  0  0  0  0  0  0  0  0  0
   58.4170   26.3290   45.1470 C   0  0  0  0  0  0  0  0  0  0  0  0
   58.9620   27.0730   46.1950 C   0  0  0  0  0  0  0  0  0  0  0  0
   59.0280   28.4760   46.1190 C   0  0  0  0  0  0  0  0  0  0  0  0
   59.5820   29.2360   47.2670 C   0  0  0  0  0  0  0  0  0  0  0  0
   60.8170   29.9000   47.1460 C   0  0  0  0  0  0  0  0  0  0  0  0
   61.3390   30.6240   48.2220 C   0  0  0  0  0  0  0  0  0  0  0  0
   60.6330   30.6980   49.4250 C   0  0  0  0  0  0  0  0  0  0  0  0
   59.4030   30.0500   49.5530 C   0  0  0  0  0  0  0  0  0  0  0  0
   58.8780   29.3250   48.4800 C   0  0  0  0  0  0  0  0  0  0  0  0
   59.2840   33.8790   47.1040 S   0  0  0  0  0  0  0  0  0  0  0  0
   58.8410   35.3080   47.2600 O   0  0  0  0  0  0  0  0  0  0  0  0
   58.5250   33.0380   48.0920 O   0  0  0  0  0  0  0  0  0  0  0  0
   61.0040   33.7590   47.4750 C   0  0  0  0  0  0  0  0  0  0  0  0
   61.9310   33.4910   46.4560 C   0  0  0  0  0  0  0  0  0  0  0  0
   63.2930   33.3820   46.7560 C   0  0  0  0  0  0  0  0  0  0  0  0
   63.7350   33.5390   48.0730 C   0  0  0  0  0  0  0  0  0  0  0  0
   62.8160   33.8050   49.0920 C   0  0  0  0  0  0  0  0  0  0  0  0
   61.4540   33.9140   48.7950 C   0  0  0  0  0  0  0  0  0  0  0  0
   59.5250   35.3210   45.0784 H   0  0  0  0  0  0  0  0  0  0  0  0
   60.1178   34.1112   43.8903 H   0  0  0  0  0  0  0  0  0  0  0  0
   58.3886   34.5975   43.8903 H   0  0  0  0  0  0  0  0  0  0  0  0
   59.6040   32.5270   45.2580 H   0  0  0  0  0  0  0  0  0  0  0  0
   57.0255   33.0963   46.2681 H   0  0  0  0  0  0  0  0  0  0  0  0
   57.1177   33.4771   44.4924 H   0  0  0  0  0  0  0  0  0  0  0  0
   57.5349   28.8744   43.0538 H   0  0  0  0  0  0  0  0  0  0  0  0
   57.4680   26.3889   43.2034 H   0  0  0  0  0  0  0  0  0  0  0  0
   58.3878   25.2312   45.2094 H   0  0  0  0  0  0  0  0  0  0  0  0
   59.3434   26.5572   47.0886 H   0  0  0  0  0  0  0  0  0  0  0  0
   61.3748   29.8490   46.1993 H   0  0  0  0  0  0  0  0  0  0  0  0
   62.3072   31.1362   48.1211 H   0  0  0  0  0  0  0  0  0  0  0  0
   61.0460   31.2666   50.2712 H   0  0  0  0  0  0  0  0  0  0  0  0
   58.8464   30.1103   50.4999 H   0  0  0  0  0  0  0  0  0  0  0  0
   57.9064   28.8202   48.5856 H   0  0  0  0  0  0  0  0  0  0  0  0
   61.5858   33.3664   45.4190 H   0  0  0  0  0  0  0  0  0  0  0  0
   64.0170   33.1725   45.9548 H   0  0  0  0  0  0  0  0  0  0  0  0
   64.8063   33.4532   48.3074 H   0  0  0  0  0  0  0  0  0  0  0  0
   63.1644   33.9286   50.1280 H   0  0  0  0  0  0  0  0  0  0  0  0
   60.7327   34.1220   49.5990 H   0  0  0  0  0  0  0  0  0  0  0  0
  1  2  1  0
  2  3  1  0
  3  4  1  0
  4  5  2  0
  4  6  1  0
  6  7  1  0
  7  8  2  0
  8  9  1  0
  9 10  2  0
 10 11  1  0
 11 12  2  0
 12 13  1  0
 13 14  2  0
 14 15  1  0
 15 16  2  0
 16 17  1  0
 17 18  2  0
  2 19  1  0
 19 20  2  0
 19 21  2  0
 19 22  1  0
 22 23  2  0
 23 24  1  0
 24 25  2  0
 25 26  1  0
 26 27  2  0
 12  7  1  0
 18 13  1  0
 27 22  1  0
  1 28  1  0
  1 29  1  0
  1 30  1  0
  2 31  1  6
  3 32  1  0
  3 33  1  0
  8 34  1  0
  9 35  1  0
 10 36  1  0
 11 37  1  0
 14 38  1  0
 15 39  1  0
 16 40  1  0
 17 41  1  0
 18 42  1  0
 23 43  1  0
 24 44  1  0
 25 45  1  0
 26 46  1  0
 27 47  1  0
M  CHG  2   2   1   6  -1
M  END
>  <UniqueID>  (44) 
37

>  <SMILES>  (44) 
C[N@H+](CC(=O)[N-]c1ccccc1-c1ccccc1)S(=O)(=O)c1ccccc1

>  <Energy>  (44) 
58.932069818145536

>  <Genealogy>  (44) 
C[NH+](CC(=O)[N-]c1ccccc1-c1ccccc1)S(=O)(=O)c1ccccc1 (protonated)
C[N@H+](CC(=O)[N-]c1ccccc1-c1ccccc1)S(=O)(=O)c1ccccc1 (chirality)
C[N@H+](CC(=O)[N-]c1ccccc1-c1ccccc1)S(=O)(=O)c1ccccc1 (3D coordinates assigned)
C[N@H+](CC(=O)[N-]c1ccccc1-c1ccccc1)S(=O)(=O)c1ccccc1 (optimized conformer: 58.932069818145536 kcal/mol)

>  <smiles>  (44) 
CN(CC(=O)Nc1ccccc1-c1ccccc1)S(=O)(=O)c1ccccc1

>  <score_type>  (44) 
oracle

>  <origin>  (44) 
adg

>  <m_score__min__energy>  (44) 
-9.3499999999999996

>  <m_primary>  (44) 
energy

$$$$
44:0
     RDKit          3D

 28 29  0  0  0  0  0  0  0  0999 V2000
   55.1360   26.1500   46.0430 N   0  0  0  0  0  0  0  0  0  0  0  0
   56.4790   25.9750   45.5940 C   0  0  0  0  0  0  0  0  0  0  0  0
   56.7050   25.2340   44.6000 O   0  0  0  0  0  0  0  0  0  0  0  0
   57.5870   26.7010   46.2620 C   0  0  0  0  0  0  0  0  0  0  0  0
   58.5060   25.9540   47.0220 C   0  0  0  0  0  0  0  0  0  0  0  0
   59.5100   26.5900   47.7540 C   0  0  0  0  0  0  0  0  0  0  0  0
   59.6110   27.9790   47.7420 C   0  0  0  0  0  0  0  0  0  0  0  0
   58.7220   28.7380   46.9810 C   0  0  0  0  0  0  0  0  0  0  0  0
   57.7150   28.1180   46.2170 C   0  0  0  0  0  0  0  0  0  0  0  0
   56.8720   28.9700   45.3490 C   0  0  0  0  0  0  0  0  0  0  0  0
   55.6480   28.7060   45.2050 O   0  0  0  0  0  0  0  0  0  0  0  0
   57.4740   30.0340   44.5980 N   0  0  0  0  0  0  0  0  0  0  0  0
   57.8240   31.3350   45.0920 C   0  0  0  0  0  0  0  0  0  0  0  0
   56.9910   32.4540   44.9020 C   0  0  0  0  0  0  0  0  0  0  0  0
   57.3590   33.6990   45.4210 C   0  0  0  0  0  0  0  0  0  0  0  0
   58.5490   33.8370   46.1410 C   0  0  0  0  0  0  0  0  0  0  0  0
   58.9020   35.0450   46.6440 F   0  0  0  0  0  0  0  0  0  0  0  0
   59.3680   32.7240   46.3520 C   0  0  0  0  0  0  0  0  0  0  0  0
   59.0030   31.4770   45.8350 C   0  0  0  0  0  0  0  0  0  0  0  0
   54.8030   27.0770   46.3880 H   0  0  0  0  0  0  0  0  0  0  0  0
   58.4323   24.8566   47.0394 H   0  0  0  0  0  0  0  0  0  0  0  0
   60.2229   25.9929   48.3416 H   0  0  0  0  0  0  0  0  0  0  0  0
   60.3928   28.4781   48.3334 H   0  0  0  0  0  0  0  0  0  0  0  0
   58.8088   29.8346   46.9777 H   0  0  0  0  0  0  0  0  0  0  0  0
   56.0488   32.3486   44.3442 H   0  0  0  0  0  0  0  0  0  0  0  0
   56.7099   34.5727   45.2622 H   0  0  0  0  0  0  0  0  0  0  0  0
   60.3008   32.8292   46.9255 H   0  0  0  0  0  0  0  0  0  0  0  0
   59.6457   30.6022   46.0129 H   0  0  0  0  0  0  0  0  0  0  0  0
  1  2  1  0
  2  3  2  0
  2  4  1  0
  4  5  2  0
  5  6  1  0
  6  7  2  0
  7  8  1  0
  8  9  2  0
  9 10  1  0
 10 11  2  0
 10 12  1  0
 12 13  1  0
 13 14  2  0
 14 15  1  0
 15 16  2  0
 16 17  1  0
 16 18  1  0
 18 19  2  0
  9  4  1  0
 19 13  1  0
  1 20  1  0
  5 21  1  0
  6 22  1  0
  7 23  1  0
  8 24  1  0
 14 25  1  0
 15 26  1  0
 18 27  1  0
 19 28  1  0
M  CHG  2   1  -1  12  -1
M  END
>  <UniqueID>  (45) 
38

>  <SMILES>  (45) 
[NH-]C(=O)c1ccccc1C(=O)[N-]c1ccc(F)cc1

>  <Energy>  (45) 
40.868614388606154

>  <Genealogy>  (45) 
[NH-]C(=O)c1ccccc1C(=O)[N-]c1ccc(F)cc1 (protonated)
[NH-]C(=O)c1ccccc1C(=O)[N-]c1ccc(F)cc1 (3D coordinates assigned)
[NH-]C(=O)c1ccccc1C(=O)[N-]c1ccc(F)cc1 (optimized conformer: 40.868614388606154 kcal/mol)

>  <smiles>  (45) 
NC(=O)c1ccccc1C(=O)Nc1ccc(F)cc1

>  <score_type>  (45) 
oracle

>  <origin>  (45) 
adg

>  <m_score__min__energy>  (45) 
-11.119999999999999

>  <m_primary>  (45) 
energy

$$$$
45:0
     RDKit          3D

 48 51  0  0  1  0  0  0  0  0999 V2000
   66.0590   32.2980   50.4270 C   0  0  0  0  0  0  0  0  0  0  0  0
   64.8620   32.8740   50.9970 N   0  0  0  0  0  0  0  0  0  0  0  0
   63.7960   32.9350   50.3160 C   0  0  0  0  0  0  0  0  0  0  0  0
   63.8540   33.2660   49.0140 N   0  0  0  0  0  0  0  0  0  0  0  0
   62.7200   33.3400   48.2550 C   0  0  0  0  0  0  0  0  0  0  0  0
   62.6280   33.7580   46.5900 S   0  0  0  0  0  0  0  0  0  0  0  0
   60.8300   33.5870   46.5670 C   0  0  0  0  0  0  0  0  0  0  0  0
   60.4650   33.2230   47.8460 C   0  0  0  0  0  0  0  0  0  0  0  0
   61.4600   33.0930   48.7360 C   0  0  0  0  0  0  0  0  0  0  0  0
   61.4280   32.7500   50.0960 C   0  0  0  0  0  0  0  0  0  0  0  0
   60.2670   32.4340   50.8310 N   0  0  0  0  0  0  0  0  0  0  0  0
   59.7630   31.0720   51.0140 C   0  0  0  0  0  0  0  0  0  0  0  0
   58.3080   30.9910   50.5920 C   0  0  0  0  0  0  0  0  0  0  0  0
   57.5560   31.8540   51.4270 N   0  0  0  0  0  0  0  0  0  0  0  0
   56.5270   31.2430   52.1970 C   0  0  0  0  0  0  0  0  0  0  0  0
   58.1510   33.0020   51.9640 C   0  0  0  0  0  0  0  0  0  0  0  0
   59.4320   33.4830   51.4170 C   0  0  0  0  0  0  0  0  0  0  0  0
   62.5860   32.6870   50.8190 N   0  0  0  0  0  0  0  0  0  0  0  0
   58.9880   32.9920   48.1680 C   0  0  0  0  0  0  0  0  0  0  0  0
   58.1760   32.8210   46.9060 C   0  0  0  0  0  0  0  0  0  0  0  0
   57.8160   34.1870   46.3800 C   0  0  0  0  0  0  0  0  0  0  0  0
   58.9100   34.8010   45.5940 C   0  0  0  0  0  0  0  0  0  0  0  0
   60.0210   33.8330   45.3290 C   0  0  0  0  0  0  0  0  0  0  0  0
   66.7311   31.9746   51.2355 H   0  0  0  0  0  0  0  0  0  0  0  0
   65.7889   31.4312   49.8059 H   0  0  0  0  0  0  0  0  0  0  0  0
   66.5678   33.0499   49.8059 H   0  0  0  0  0  0  0  0  0  0  0  0
   60.3582   30.3789   50.4014 H   0  0  0  0  0  0  0  0  0  0  0  0
   59.8445   30.7987   52.0764 H   0  0  0  0  0  0  0  0  0  0  0  0
   58.2065   31.3062   49.5430 H   0  0  0  0  0  0  0  0  0  0  0  0
   57.9422   29.9578   50.6858 H   0  0  0  0  0  0  0  0  0  0  0  0
   56.7444   31.3721   53.2676 H   0  0  0  0  0  0  0  0  0  0  0  0
   55.5621   31.7146   51.9593 H   0  0  0  0  0  0  0  0  0  0  0  0
   56.4792   30.1700   51.9593 H   0  0  0  0  0  0  0  0  0  0  0  0
   57.4264   33.8214   51.8475 H   0  0  0  0  0  0  0  0  0  0  0  0
   58.4069   32.7021   52.9909 H   0  0  0  0  0  0  0  0  0  0  0  0
   59.2158   34.2276   50.6367 H   0  0  0  0  0  0  0  0  0  0  0  0
   59.9984   33.9021   52.2618 H   0  0  0  0  0  0  0  0  0  0  0  0
   62.5540   32.4300   51.8410 H   0  0  0  0  0  0  0  0  0  0  0  0
   58.8920   32.0847   48.7825 H   0  0  0  0  0  0  0  0  0  0  0  0
   58.6078   33.8695   48.7115 H   0  0  0  0  0  0  0  0  0  0  0  0
   58.7681   32.2782   46.1545 H   0  0  0  0  0  0  0  0  0  0  0  0
   57.2625   32.2470   47.1205 H   0  0  0  0  0  0  0  0  0  0  0  0
   56.9289   34.0941   45.7362 H   0  0  0  0  0  0  0  0  0  0  0  0
   57.6226   34.8371   47.2460 H   0  0  0  0  0  0  0  0  0  0  0  0
   58.5047   35.1486   44.6323 H   0  0  0  0  0  0  0  0  0  0  0  0
   59.3203   35.6378   46.1783 H   0  0  0  0  0  0  0  0  0  0  0  0
   59.5927   32.8801   44.9846 H   0  0  0  0  0  0  0  0  0  0  0  0
   60.6809   34.2609   44.5600 H   0  0  0  0  0  0  0  0  0  0  0  0
  1  2  1  0
  2  3  2  0
  3  4  1  0
  4  5  2  0
  5  6  1  0
  6  7  1  0
  7  8  2  0
  8  9  1  0
  9 10  2  0
 10 11  1  0
 11 12  1  0
 12 13  1  0
 13 14  1  0
 14 15  1  0
 14 16  1  0
 16 17  1  0
 10 18  1  0
  8 19  1  0
 19 20  1  0
 20 21  1  0
 21 22  1  0
 22 23  1  0
 18  3  1  0
  9  5  1  0
 17 11  1  0
 23  7  1  0
  1 24  1  0
  1 25  1  0
  1 26  1  0
 12 27  1  0
 12 28  1  0
 13 29  1  0
 13 30  1  0
 15 31  1  0
 15 32  1  0
 15 33  1  0
 16 34  1  0
 16 35  1  0
 17 36  1  0
 17 37  1  0
 18 38  1  0
 19 39  1  0
 19 40  1  0
 20 41  1  0
 20 42  1  0
 21 43  1  0
 21 44  1  0
 22 45  1  0
 22 46  1  0
 23 47  1  0
 23 48  1  0
M  END
>  <smiles>  (46) 
CN=c1nc2sc3c(c2c(N2CCN(C)CC2)[nH]1)CCCCC3

>  <score_type>  (46) 
oracle

>  <origin>  (46) 
adg

>  <m_score__min__energy>  (46) 
-5.9500000000000002

>  <m_primary>  (46) 
energy

$$$$
46:0
     RDKit          3D

 43 45  0  0  0  0  0  0  0  0999 V2000
   56.4180   30.1000   42.6280 C   0  0  0  0  0  0  0  0  0  0  0  0
   56.5400   30.1690   44.4000 S   0  0  0  0  0  0  0  0  0  0  0  0
   56.3210   31.5840   44.8550 O   0  0  0  0  0  0  0  0  0  0  0  0
   55.4960   29.2680   45.0000 O   0  0  0  0  0  0  0  0  0  0  0  0
   58.1190   29.6340   44.8720 N   0  0  0  0  0  0  0  0  0  0  0  0
   58.8040   30.0220   46.0720 C   0  0  0  0  0  0  0  0  0  0  0  0
   59.0850   31.3700   46.3630 C   0  0  0  0  0  0  0  0  0  0  0  0
   59.7760   31.7120   47.5290 C   0  0  0  0  0  0  0  0  0  0  0  0
   60.1960   30.7150   48.4120 C   0  0  0  0  0  0  0  0  0  0  0  0
   59.9220   29.3750   48.1360 C   0  0  0  0  0  0  0  0  0  0  0  0
   59.2210   29.0230   46.9730 C   0  0  0  0  0  0  0  0  0  0  0  0
   58.9460   27.6400   46.7090 N   0  0  0  0  0  0  0  0  0  0  0  0
   59.9580   26.8200   46.0320 C   0  0  0  0  0  0  0  0  0  0  0  0
   59.5540   25.3420   46.0020 C   0  0  0  0  0  0  0  0  0  0  0  0
   58.1570   25.1890   45.5640 N   0  0  0  0  0  0  0  0  0  0  0  0
   57.7570   24.0240   44.8100 C   0  0  0  0  0  0  0  0  0  0  0  0
   58.4430   22.8030   44.9610 C   0  0  0  0  0  0  0  0  0  0  0  0
   58.0590   21.6770   44.2270 C   0  0  0  0  0  0  0  0  0  0  0  0
   56.9890   21.7550   43.3320 C   0  0  0  0  0  0  0  0  0  0  0  0
   56.6180   20.6620   42.6210 F   0  0  0  0  0  0  0  0  0  0  0  0
   56.3010   22.9610   43.1700 C   0  0  0  0  0  0  0  0  0  0  0  0
   56.6810   24.0890   43.9020 C   0  0  0  0  0  0  0  0  0  0  0  0
   57.1310   26.1440   46.0170 C   0  0  0  0  0  0  0  0  0  0  0  0
   57.6630   27.0640   47.1180 C   0  0  0  0  0  0  0  0  0  0  0  0
   55.4929   29.5768   42.3443 H   0  0  0  0  0  0  0  0  0  0  0  0
   56.4006   31.1220   42.2216 H   0  0  0  0  0  0  0  0  0  0  0  0
   57.2849   29.5585   42.2216 H   0  0  0  0  0  0  0  0  0  0  0  0
   58.7591   32.1588   45.6691 H   0  0  0  0  0  0  0  0  0  0  0  0
   59.9892   32.7680   47.7513 H   0  0  0  0  0  0  0  0  0  0  0  0
   60.7437   30.9865   49.3265 H   0  0  0  0  0  0  0  0  0  0  0  0
   60.2567   28.5922   48.8325 H   0  0  0  0  0  0  0  0  0  0  0  0
   60.0768   27.1792   44.9991 H   0  0  0  0  0  0  0  0  0  0  0  0
   60.9029   26.9086   46.5882 H   0  0  0  0  0  0  0  0  0  0  0  0
   60.2115   24.8028   45.3041 H   0  0  0  0  0  0  0  0  0  0  0  0
   59.6516   24.9299   47.0172 H   0  0  0  0  0  0  0  0  0  0  0  0
   59.2878   22.7350   45.6622 H   0  0  0  0  0  0  0  0  0  0  0  0
   58.6002   20.7279   44.3543 H   0  0  0  0  0  0  0  0  0  0  0  0
   55.4589   23.0222   42.4650 H   0  0  0  0  0  0  0  0  0  0  0  0
   56.1361   25.0352   43.7685 H   0  0  0  0  0  0  0  0  0  0  0  0
   56.8128   26.7582   45.1617 H   0  0  0  0  0  0  0  0  0  0  0  0
   56.2856   25.5715   46.4264 H   0  0  0  0  0  0  0  0  0  0  0  0
   56.9403   27.8736   47.2977 H   0  0  0  0  0  0  0  0  0  0  0  0
   57.8050   26.4812   48.0400 H   0  0  0  0  0  0  0  0  0  0  0  0
  1  2  1  0
  2  3  2  0
  2  4  2  0
  2  5  1  0
  5  6  1  0
  6  7  2  0
  7  8  1  0
  8  9  2  0
  9 10  1  0
 10 11  2  0
 11 12  1  0
 12 13  1  0
 13 14  1  0
 14 15  1  0
 15 16  1  0
 16 17  2  0
 17 18  1  0
 18 19  2  0
 19 20  1  0
 19 21  1  0
 21 22  2  0
 15 23  1  0
 23 24  1  0
 11  6  1  0
 24 12  1  0
 22 16  1  0
  1 25  1  0
  1 26  1  0
  1 27  1  0
  7 28  1  0
  8 29  1  0
  9 30  1  0
 10 31  1  0
 13 32  1  0
 13 33  1  0
 14 34  1  0
 14 35  1  0
 17 36  1  0
 18 37  1  0
 21 38  1  0
 22 39  1  0
 23 40  1  0
 23 41  1  0
 24 42  1  0
 24 43  1  0
M  CHG  1   5  -1
M  END
>  <UniqueID>  (47) 
39

>  <SMILES>  (47) 
CS(=O)(=O)[N-]c1ccccc1N1CCN(c2ccc(F)cc2)CC1

>  <Energy>  (47) 
52.33011961408726

>  <Genealogy>  (47) 
CS(=O)(=O)[N-]c1ccccc1N1CCN(c2ccc(F)cc2)CC1 (protonated)
CS(=O)(=O)[N-]c1ccccc1N1CCN(c2ccc(F)cc2)CC1 (3D coordinates assigned)
CS(=O)(=O)[N-]c1ccccc1N1CCN(c2ccc(F)cc2)CC1 (nonaromatic ring conformer: 52.33011961408726 kcal/mol)

>  <smiles>  (47) 
CS(=O)(=O)Nc1ccccc1N1CCN(c2ccc(F)cc2)CC1

>  <score_type>  (47) 
oracle

>  <origin>  (47) 
adg

>  <m_score__min__energy>  (47) 
-9.4000000000000004

>  <m_primary>  (47) 
energy

$$$$
47:0
     RDKit          3D

 40 44  0  0  0  0  0  0  0  0999 V2000
   63.2440   28.9940   51.7530 C   0  0  0  0  0  0  0  0  0  0  0  0
   63.8440   30.1840   51.1190 N   0  0  0  0  0  0  0  0  0  0  0  0
   63.1190   30.8870   50.1840 C   0  0  0  0  0  0  0  0  0  0  0  0
   63.6650   32.0150   49.5480 C   0  0  0  0  0  0  0  0  0  0  0  0
   64.9590   32.4330   49.8880 C   0  0  0  0  0  0  0  0  0  0  0  0
   65.4630   33.4410   49.3190 O   0  0  0  0  0  0  0  0  0  0  0  0
   65.6890   31.7280   50.8540 C   0  0  0  0  0  0  0  0  0  0  0  0
   66.9860   32.1280   51.2200 C   0  0  0  0  0  0  0  0  0  0  0  0
   67.6920   31.4130   52.1810 C   0  0  0  0  0  0  0  0  0  0  0  0
   67.1030   30.3010   52.7730 C   0  0  0  0  0  0  0  0  0  0  0  0
   65.8490   29.9120   52.4170 N   0  0  0  0  0  0  0  0  0  0  0  0
   65.1160   30.5890   51.4720 C   0  0  0  0  0  0  0  0  0  0  0  0
   62.8960   32.7450   48.4580 C   0  0  1  0  0  0  0  0  0  0  0  0
   63.5450   32.5630   47.2240 O   0  0  0  0  0  0  0  0  0  0  0  0
   61.4330   32.3480   48.3350 C   0  0  0  0  0  0  0  0  0  0  0  0
   60.9720   31.2090   49.0230 C   0  0  0  0  0  0  0  0  0  0  0  0
   59.6520   30.7800   48.8820 C   0  0  0  0  0  0  0  0  0  0  0  0
   58.7630   31.4760   48.0680 C   0  0  0  0  0  0  0  0  0  0  0  0
   59.1870   32.6160   47.3750 C   0  0  0  0  0  0  0  0  0  0  0  0
   58.2830   33.3100   46.5550 C   0  0  0  0  0  0  0  0  0  0  0  0
   58.6970   34.4410   45.8530 C   0  0  0  0  0  0  0  0  0  0  0  0
   60.0120   34.8890   45.9590 C   0  0  0  0  0  0  0  0  0  0  0  0
   60.9250   34.2100   46.7710 C   0  0  0  0  0  0  0  0  0  0  0  0
   60.5310   33.0640   47.4970 C   0  0  0  0  0  0  0  0  0  0  0  0
   61.8160   30.4900   49.8690 O   0  0  0  0  0  0  0  0  0  0  0  0
   63.2955   29.0962   52.8470 H   0  0  0  0  0  0  0  0  0  0  0  0
   62.1927   28.9038   51.4423 H   0  0  0  0  0  0  0  0  0  0  0  0
   63.7966   28.0951   51.4423 H   0  0  0  0  0  0  0  0  0  0  0  0
   67.4433   33.0085   50.7451 H   0  0  0  0  0  0  0  0  0  0  0  0
   68.7067   31.7239   52.4703 H   0  0  0  0  0  0  0  0  0  0  0  0
   67.6554   29.7316   53.5350 H   0  0  0  0  0  0  0  0  0  0  0  0
   65.4720   29.0720   52.9060 H   0  0  0  0  0  0  0  0  0  0  0  0
   62.8895   33.8049   48.7523 H   0  0  0  0  0  0  0  0  0  0  0  0
   64.5170   32.7020   47.3760 H   0  0  0  0  0  0  0  0  0  0  0  0
   59.3105   29.8830   49.4193 H   0  0  0  0  0  0  0  0  0  0  0  0
   57.7238   31.1291   47.9689 H   0  0  0  0  0  0  0  0  0  0  0  0
   57.2440   32.9599   46.4661 H   0  0  0  0  0  0  0  0  0  0  0  0
   57.9834   34.9813   45.2136 H   0  0  0  0  0  0  0  0  0  0  0  0
   60.3332   35.7810   45.4012 H   0  0  0  0  0  0  0  0  0  0  0  0
   61.9611   34.5718   46.8455 H   0  0  0  0  0  0  0  0  0  0  0  0
  1  2  1  0
  2  3  1  0
  3  4  2  0
  4  5  1  0
  5  6  2  0
  5  7  1  0
  7  8  2  0
  8  9  1  0
  9 10  2  0
 10 11  1  0
 11 12  2  0
  4 13  1  0
 13 14  1  0
 13 15  1  0
 15 16  2  0
 16 17  1  0
 17 18  2  0
 18 19  1  0
 19 20  2  0
 20 21  1  0
 21 22  2  0
 22 23  1  0
 23 24  2  0
 16 25  1  0
 12  2  1  0
 24 15  1  0
 25  3  1  0
 12  7  1  0
 24 19  1  0
  1 26  1  0
  1 27  1  0
  1 28  1  0
  8 29  1  0
  9 30  1  0
 10 31  1  0
 11 32  1  0
 13 33  1  1
 14 34  1  0
 17 35  1  0
 18 36  1  0
 20 37  1  0
 21 38  1  0
 22 39  1  0
 23 40  1  0
M  CHG  1  11   1
M  END
>  <UniqueID>  (48) 
40

>  <SMILES>  (48) 
Cn1c2c(c(=O)c3ccc[nH+]c31)[C@@H](O)c1c(ccc3ccccc13)O2

>  <Energy>  (48) 
67.76693938591941

>  <Genealogy>  (48) 
Cn1c2c(c(=O)c3ccc[nH+]c31)C(O)c1c(ccc3ccccc13)O2 (protonated)
Cn1c2c(c(=O)c3ccc[nH+]c31)[C@@H](O)c1c(ccc3ccccc13)O2 (chirality)
Cn1c2c(c(=O)c3ccc[nH+]c31)[C@@H](O)c1c(ccc3ccccc13)O2 (3D coordinates assigned)
Cn1c2c(c(=O)c3ccc[nH+]c31)[C@@H](O)c1c(ccc3ccccc13)O2 (nonaromatic ring conformer: 67.76693938591941 kcal/mol)

>  <smiles>  (48) 
Cn1c2c(c(=O)c3cccnc31)C(O)c1c(ccc3ccccc13)O2

>  <score_type>  (48) 
oracle

>  <origin>  (48) 
adg

>  <m_score__min__energy>  (48) 
-5.8399999999999999

>  <m_primary>  (48) 
energy

$$$$
48:0
     RDKit          3D

 43 46  0  0  0  0  0  0  0  0999 V2000
   59.0348   32.8598   47.8478 H   0  0  0  0  0  0  0  0  0  0  0  0
   58.7010   32.5790   46.8380 C   0  0  0  0  0  0  0  0  0  0  0  0
   58.1760   31.3460   46.6170 N   0  0  0  0  0  0  0  0  0  0  0  0
   57.7680   30.9370   45.3830 C   0  0  0  0  0  0  0  0  0  0  0  0
   57.2450   29.7570   45.2050 N   0  0  0  0  0  0  0  0  0  0  0  0
   57.7430   28.5070   45.7140 C   0  0  0  0  0  0  0  0  0  0  0  0
   57.4290   27.2830   45.0970 C   0  0  0  0  0  0  0  0  0  0  0  0
   56.8050   27.2681   44.1912 H   0  0  0  0  0  0  0  0  0  0  0  0
   57.9120   26.0790   45.6370 C   0  0  0  0  0  0  0  0  0  0  0  0
   57.6110   24.8140   45.0080 N   0  0  0  0  0  0  0  0  0  0  0  0
   58.2420   23.5320   45.3710 C   0  0  0  0  0  0  0  0  0  0  0  0
   59.3335   23.6338   45.4614 H   0  0  0  0  0  0  0  0  0  0  0  0
   57.9168   23.1338   46.3435 H   0  0  0  0  0  0  0  0  0  0  0  0
   57.8650   22.6600   44.1930 C   0  0  1  0  0  0  0  0  0  0  0  0
   58.7700   22.7669   43.5769 H   0  0  0  0  0  0  0  0  0  0  0  0
   57.6560   21.1740   44.1620 C   0  0  0  0  0  0  0  0  0  0  0  0
   58.5933   20.6356   43.9583 H   0  0  0  0  0  0  0  0  0  0  0  0
   57.3002   20.7398   45.1080 H   0  0  0  0  0  0  0  0  0  0  0  0
   56.6560   21.0570   42.9760 C   0  0  0  0  0  0  0  0  0  0  0  0
   57.1810   20.6865   42.0832 H   0  0  0  0  0  0  0  0  0  0  0  0
   55.8495   20.3538   43.2311 H   0  0  0  0  0  0  0  0  0  0  0  0
   56.0900   22.4030   42.7020 N   0  0  0  0  0  0  0  0  0  0  0  0
   56.5860   22.8130   41.8750 H   0  0  0  0  0  0  0  0  0  0  0  0
   56.4870   23.1320   43.8930 C   0  0  2  0  0  0  0  0  0  0  0  0
   55.6422   22.9374   44.5700 H   0  0  0  0  0  0  0  0  0  0  0  0
   56.6470   24.6370   43.9090 C   0  0  0  0  0  0  0  0  0  0  0  0
   57.0506   25.0090   42.9557 H   0  0  0  0  0  0  0  0  0  0  0  0
   55.7047   25.1884   44.0436 H   0  0  0  0  0  0  0  0  0  0  0  0
   58.6850   26.1310   46.8090 C   0  0  0  0  0  0  0  0  0  0  0  0
   59.0834   25.2045   47.2483 H   0  0  0  0  0  0  0  0  0  0  0  0
   58.9460   27.3600   47.4140 C   0  0  0  0  0  0  0  0  0  0  0  0
   59.5414   27.3999   48.3381 H   0  0  0  0  0  0  0  0  0  0  0  0
   58.4680   28.5090   46.8670 N   0  0  0  0  0  0  0  0  0  0  0  0
   58.6740   29.4160   47.3420 H   0  0  0  0  0  0  0  0  0  0  0  0
   57.8800   31.8180   44.2960 C   0  0  0  0  0  0  0  0  0  0  0  0
   57.3690   31.3470   42.6790 Cl  0  0  0  0  0  0  0  0  0  0  0  0
   58.4200   33.0920   44.4990 C   0  0  0  0  0  0  0  0  0  0  0  0
   58.5325   33.7807   43.6486 H   0  0  0  0  0  0  0  0  0  0  0  0
   58.8190   33.4960   45.7820 C   0  0  0  0  0  0  0  0  0  0  0  0
   59.4480   34.8480   46.0020 C   0  0  0  0  0  0  0  0  0  0  0  0
   59.2400   35.6690   44.9060 F   0  0  0  0  0  0  0  0  0  0  0  0
   58.8840   35.4360   47.1180 F   0  0  0  0  0  0  0  0  0  0  0  0
   60.8130   34.7250   46.1970 F   0  0  0  0  0  0  0  0  0  0  0  0
  1  2  1  0
  2  3  1  0
  3  4  1  0
  4  5  2  0
  5  6  1  0
  6  7  2  0
  7  8  1  0
  7  9  1  0
  9 10  1  0
 10 11  1  0
 11 12  1  0
 11 13  1  0
 11 14  1  0
 14 15  1  6
 14 16  1  0
 16 17  1  0
 16 18  1  0
 16 19  1  0
 19 20  1  0
 19 21  1  0
 19 22  1  0
 22 23  1  0
 22 24  1  0
 24 25  1  1
 24 26  1  0
 26 27  1  0
 26 28  1  0
  9 29  2  0
 29 30  1  0
 29 31  1  0
 31 32  1  0
 31 33  2  0
 33 34  1  0
  4 35  1  0
 35 36  1  0
 35 37  2  0
 37 38  1  0
 37 39  1  0
 39 40  1  0
 40 41  1  0
 40 42  1  0
 40 43  1  0
 39  2  2  0
 33  6  1  0
 26 10  1  0
 24 14  1  0
M  CHG  2   3  -1  33   1
M  END
>  <UniqueID>  (49) 
41

>  <SMILES>  (49) 
FC(F)(F)c1c[n-]/c(=N\c2cc(N3C[C@H]4CCN[C@@H]4C3)cc[nH+]2)c(Cl)c1

>  <Energy>  (49) 
87.77384399899147

>  <Genealogy>  (49) 
FC(F)(F)c1c[n-]c(=Nc2cc(N3CC4CCNC4C3)cc[nH+]2)c(Cl)c1 (protonated)
FC(F)(F)c1c[n-]c(=Nc2cc(N3C[C@H]4CCN[C@@H]4C3)cc[nH+]2)c(Cl)c1 (chirality)
FC(F)(F)c1c[n-]/c(=N\c2cc(N3C[C@H]4CCN[C@@H]4C3)cc[nH+]2)c(Cl)c1 (cis-trans isomerization)
FC(F)(F)c1c[n-]/c(=N\c2cc(N3C[C@H]4CCN[C@@H]4C3)cc[nH+]2)c(Cl)c1 (3D coordinates assigned)
FC(F)(F)c1c[n-]/c(=N\c2cc(N3C[C@H]4CCN[C@@H]4C3)cc[nH+]2)c(Cl)c1 (nonaromatic ring conformer: 87.77384399899147 kcal/mol)

>  <smiles>  (49) 
FC(F)(F)c1c[nH]c(=Nc2cc(N3CC4CCNC4C3)ccn2)c(Cl)c1

>  <score_type>  (49) 
oracle

>  <origin>  (49) 
adg

>  <m_score__min__energy>  (49) 
-7.2199999999999998

>  <m_primary>  (49) 
energy

$$$$
49:0
     RDKit          3D

 43 46  0  0  0  0  0  0  0  0999 V2000
   60.0710   33.9400   47.9350 C   0  0  0  0  0  0  0  0  0  0  0  0
   60.3440   34.6150   46.7410 C   0  0  0  0  0  0  0  0  0  0  0  0
   59.4720   34.4990   45.6550 C   0  0  0  0  0  0  0  0  0  0  0  0
   58.3180   33.7030   45.7550 C   0  0  0  0  0  0  0  0  0  0  0  0
   57.3480   33.6140   44.6010 C   0  0  0  0  0  0  0  0  0  0  0  0
   57.8280   32.7020   43.5500 N   0  0  0  0  0  0  0  0  0  0  0  0
   57.7250   31.3210   43.9600 C   0  0  0  0  0  0  0  0  0  0  0  0
   58.8790   30.5620   44.2070 C   0  0  0  0  0  0  0  0  0  0  0  0
   58.7780   29.2400   44.6470 C   0  0  0  0  0  0  0  0  0  0  0  0
   57.5190   28.6450   44.8500 C   0  0  0  0  0  0  0  0  0  0  0  0
   57.4350   27.2390   45.3250 C   0  0  0  0  0  0  0  0  0  0  0  0
   57.3650   26.8630   46.6690 C   0  0  0  0  0  0  0  0  0  0  0  0
   57.2740   25.1870   46.7330 S   0  0  0  0  0  0  0  0  0  0  0  0
   57.3260   24.9950   45.0610 C   0  0  0  0  0  0  0  0  0  0  0  0
   57.2830   23.7060   44.3330 C   0  0  0  0  0  0  0  0  0  0  0  0
   56.3330   23.4730   43.3250 C   0  0  0  0  0  0  0  0  0  0  0  0
   56.3200   22.2460   42.6580 C   0  0  0  0  0  0  0  0  0  0  0  0
   57.2220   21.2820   42.9820 N   0  0  0  0  0  0  0  0  0  0  0  0
   58.1530   21.4770   43.9520 C   0  0  0  0  0  0  0  0  0  0  0  0
   58.2010   22.6890   44.6450 C   0  0  0  0  0  0  0  0  0  0  0  0
   57.4090   26.1960   44.4480 N   0  0  0  0  0  0  0  0  0  0  0  0
   56.3630   29.4120   44.6090 C   0  0  0  0  0  0  0  0  0  0  0  0
   56.4660   30.7360   44.1700 C   0  0  0  0  0  0  0  0  0  0  0  0
   58.0460   33.0350   46.9600 C   0  0  0  0  0  0  0  0  0  0  0  0
   58.9220   33.1510   48.0440 C   0  0  0  0  0  0  0  0  0  0  0  0
   60.7599   34.0298   48.7879 H   0  0  0  0  0  0  0  0  0  0  0  0
   61.2465   35.2382   46.6565 H   0  0  0  0  0  0  0  0  0  0  0  0
   59.6897   35.0328   44.7182 H   0  0  0  0  0  0  0  0  0  0  0  0
   56.3814   33.2468   44.9763 H   0  0  0  0  0  0  0  0  0  0  0  0
   57.2474   34.6175   44.1619 H   0  0  0  0  0  0  0  0  0  0  0  0
   58.8180   32.9390   43.2980 H   0  0  0  0  0  0  0  0  0  0  0  0
   57.2490   32.8470   42.6900 H   0  0  0  0  0  0  0  0  0  0  0  0
   59.8711   31.0115   44.0530 H   0  0  0  0  0  0  0  0  0  0  0  0
   59.6920   28.6581   44.8367 H   0  0  0  0  0  0  0  0  0  0  0  0
   57.3688   27.5443   47.5326 H   0  0  0  0  0  0  0  0  0  0  0  0
   55.6031   24.2528   43.0623 H   0  0  0  0  0  0  0  0  0  0  0  0
   55.5776   22.0591   41.8681 H   0  0  0  0  0  0  0  0  0  0  0  0
   58.8706   20.6787   44.1923 H   0  0  0  0  0  0  0  0  0  0  0  0
   58.9540   22.8465   45.4313 H   0  0  0  0  0  0  0  0  0  0  0  0
   55.3701   28.9659   44.7674 H   0  0  0  0  0  0  0  0  0  0  0  0
   55.5539   31.3233   43.9879 H   0  0  0  0  0  0  0  0  0  0  0  0
   57.1400   32.4179   47.0516 H   0  0  0  0  0  0  0  0  0  0  0  0
   58.7067   32.6208   48.9835 H   0  0  0  0  0  0  0  0  0  0  0  0
  1  2  2  0
  2  3  1  0
  3  4  2  0
  4  5  1  0
  5  6  1  0
  6  7  1  0
  7  8  2  0
  8  9  1  0
  9 10  2  0
 10 11  1  0
 11 12  2  0
 12 13  1  0
 13 14  1  0
 14 15  1  0
 15 16  2  0
 16 17  1  0
 17 18  2  0
 18 19  1  0
 19 20  2  0
 14 21  2  0
 10 22  1  0
 22 23  2  0
  4 24  1  0
 24 25  2  0
 25  1  1  0
 23  7  1  0
 21 11  1  0
 20 15  1  0
  1 26  1  0
  2 27  1  0
  3 28  1  0
  5 29  1  0
  5 30  1  0
  6 31  1  0
  6 32  1  0
  8 33  1  0
  9 34  1  0
 12 35  1  0
 16 36  1  0
 17 37  1  0
 19 38  1  0
 20 39  1  0
 22 40  1  0
 23 41  1  0
 24 42  1  0
 25 43  1  0
M  CHG  1   6   1
M  END
>  <UniqueID>  (50) 
42

>  <SMILES>  (50) 
c1ccc(C[NH2+]c2ccc(-c3csc(-c4ccncc4)n3)cc2)cc1

>  <Energy>  (50) 
81.31158516974102

>  <Genealogy>  (50) 
c1ccc(C[NH2+]c2ccc(-c3csc(-c4ccncc4)n3)cc2)cc1 (protonated)
c1ccc(C[NH2+]c2ccc(-c3csc(-c4ccncc4)n3)cc2)cc1 (3D coordinates assigned)
c1ccc(C[NH2+]c2ccc(-c3csc(-c4ccncc4)n3)cc2)cc1 (optimized conformer: 81.31158516974102 kcal/mol)

>  <smiles>  (50) 
c1ccc(CNc2ccc(-c3csc(-c4ccncc4)n3)cc2)cc1

>  <score_type>  (50) 
oracle

>  <origin>  (50) 
adg

>  <m_score__min__energy>  (50) 
-6.8799999999999999

>  <m_primary>  (50) 
energy

$$$$
50:0
     RDKit          3D

 39 42  0  0  0  0  0  0  0  0999 V2000
   58.7808   35.5454   46.7476 H   0  0  0  0  0  0  0  0  0  0  0  0
   58.6370   34.5850   46.2310 C   0  0  0  0  0  0  0  0  0  0  0  0
   57.4090   34.2260   45.1370 S   0  0  0  0  0  0  0  0  0  0  0  0
   57.9600   32.6600   44.8550 C   0  0  0  0  0  0  0  0  0  0  0  0
   57.2910   31.6520   44.0810 N   0  0  0  0  0  0  0  0  0  0  0  0
   56.8790   30.4840   44.4800 C   0  0  0  0  0  0  0  0  0  0  0  0
   55.5730   30.2000   44.6410 N   0  0  0  0  0  0  0  0  0  0  0  0
   55.5090   28.9770   45.0820 O   0  0  0  0  0  0  0  0  0  0  0  0
   56.7090   28.4600   45.2180 C   0  0  0  0  0  0  0  0  0  0  0  0
   56.9850   27.0900   45.7380 C   0  0  0  0  0  0  0  0  0  0  0  0
   56.9814   27.1077   46.8379 H   0  0  0  0  0  0  0  0  0  0  0  0
   56.2081   26.3985   45.3799 H   0  0  0  0  0  0  0  0  0  0  0  0
   57.9690   26.7532   45.3799 H   0  0  0  0  0  0  0  0  0  0  0  0
   57.6520   29.3960   44.8500 C   0  0  0  0  0  0  0  0  0  0  0  0
   58.7480   29.3019   44.8502 H   0  0  0  0  0  0  0  0  0  0  0  0
   59.0430   32.3880   45.6110 N   0  0  0  0  0  0  0  0  0  0  0  0
   59.4990   31.4480   45.6280 H   0  0  0  0  0  0  0  0  0  0  0  0
   59.4420   33.4510   46.3690 C   0  0  0  0  0  0  0  0  0  0  0  0
   60.6220   33.3920   47.2670 C   0  0  0  0  0  0  0  0  0  0  0  0
   61.9260   33.4750   46.7460 C   0  0  0  0  0  0  0  0  0  0  0  0
   62.0739   33.5857   45.6616 H   0  0  0  0  0  0  0  0  0  0  0  0
   63.0350   33.4180   47.5940 C   0  0  0  0  0  0  0  0  0  0  0  0
   64.0485   33.4872   47.1721 H   0  0  0  0  0  0  0  0  0  0  0  0
   62.8660   33.2730   48.9810 C   0  0  0  0  0  0  0  0  0  0  0  0
   64.0410   33.2200   49.8840 C   0  0  0  0  0  0  0  0  0  0  0  0
   64.9890   32.1890   49.7440 C   0  0  0  0  0  0  0  0  0  0  0  0
   64.8564   31.4276   48.9612 H   0  0  0  0  0  0  0  0  0  0  0  0
   66.0980   32.1260   50.5930 C   0  0  0  0  0  0  0  0  0  0  0  0
   66.8321   31.3149   50.4783 H   0  0  0  0  0  0  0  0  0  0  0  0
   66.2750   33.0910   51.5860 C   0  0  0  0  0  0  0  0  0  0  0  0
   67.1469   33.0383   52.2546 H   0  0  0  0  0  0  0  0  0  0  0  0
   65.3460   34.1230   51.7310 C   0  0  0  0  0  0  0  0  0  0  0  0
   65.4896   34.8838   52.5124 H   0  0  0  0  0  0  0  0  0  0  0  0
   64.2330   34.1930   50.8860 C   0  0  0  0  0  0  0  0  0  0  0  0
   63.3670   35.2300   51.0250 F   0  0  0  0  0  0  0  0  0  0  0  0
   61.5650   33.1940   49.5030 C   0  0  0  0  0  0  0  0  0  0  0  0
   61.4182   33.0863   50.5878 H   0  0  0  0  0  0  0  0  0  0  0  0
   60.4550   33.2510   48.6560 C   0  0  0  0  0  0  0  0  0  0  0  0
   59.4419   33.1850   49.0795 H   0  0  0  0  0  0  0  0  0  0  0  0
  1  2  1  0
  2  3  1  0
  3  4  1  0
  4  5  1  0
  5  6  2  0
  6  7  1  0
  7  8  1  0
  8  9  1  0
  9 10  1  0
 10 11  1  0
 10 12  1  0
 10 13  1  0
  9 14  2  0
 14 15  1  0
  4 16  2  0
 16 17  1  0
 16 18  1  0
 18 19  1  0
 19 20  2  0
 20 21  1  0
 20 22  1  0
 22 23  1  0
 22 24  2  0
 24 25  1  0
 25 26  2  0
 26 27  1  0
 26 28  1  0
 28 29  1  0
 28 30  2  0
 30 31  1  0
 30 32  1  0
 32 33  1  0
 32 34  2  0
 34 35  1  0
 24 36  1  0
 36 37  1  0
 36 38  2  0
 38 39  1  0
 18  2  2  0
 38 19  1  0
 14  6  1  0
 34 25  1  0
M  CHG  2   7  -1  16   1
M  END
>  <UniqueID>  (51) 
43

>  <SMILES>  (51) 
Cc1c/c(=N\c2[nH+]c(-c3ccc(-c4ccccc4F)cc3)cs2)[n-]o1

>  <Energy>  (51) 
118.62682930789018

>  <Genealogy>  (51) 
Cc1cc(=Nc2[nH+]c(-c3ccc(-c4ccccc4F)cc3)cs2)[n-]o1 (protonated)
Cc1c/c(=N\c2[nH+]c(-c3ccc(-c4ccccc4F)cc3)cs2)[n-]o1 (cis-trans isomerization)
Cc1c/c(=N\c2[nH+]c(-c3ccc(-c4ccccc4F)cc3)cs2)[n-]o1 (3D coordinates assigned)
Cc1c/c(=N\c2[nH+]c(-c3ccc(-c4ccccc4F)cc3)cs2)[n-]o1 (optimized conformer: 118.62682930789018 kcal/mol)

>  <smiles>  (51) 
Cc1cc(=Nc2nc(-c3ccc(-c4ccccc4F)cc3)cs2)[nH]o1

>  <score_type>  (51) 
oracle

>  <origin>  (51) 
adg

>  <m_score__min__energy>  (51) 
-8.9600000000000009

>  <m_primary>  (51) 
energy

$$$$
51:0
     RDKit          3D

 49 51  0  0  0  0  0  0  0  0999 V2000
   55.4130   29.4120   43.5910 O   0  0  0  0  0  0  0  0  0  0  0  0
   56.3390   29.7390   44.3790 C   0  0  0  0  0  0  0  0  0  0  0  0
   56.4320   31.1000   44.8130 N   0  0  0  0  0  0  0  0  0  0  0  0
   57.4520   32.0400   44.3590 C   0  0  0  0  0  0  0  0  0  0  0  0
   58.4930   32.2790   45.4660 C   0  0  0  0  0  0  0  0  0  0  0  0
   58.0270   31.8390   46.8080 N   0  0  0  0  0  0  0  0  0  0  0  0
   58.7330   30.6320   47.2650 C   0  0  0  0  0  0  0  0  0  0  0  0
   60.2320   30.8690   47.5080 C   0  0  0  0  0  0  0  0  0  0  0  0
   60.5770   32.2060   48.0410 N   0  0  0  0  0  0  0  0  0  0  0  0
   61.9770   32.5050   48.3490 C   0  0  0  0  0  0  0  0  0  0  0  0
   62.7270   33.4050   47.5550 C   0  0  0  0  0  0  0  0  0  0  0  0
   64.0570   33.6990   47.8600 C   0  0  0  0  0  0  0  0  0  0  0  0
   64.6800   33.0960   48.9490 C   0  0  0  0  0  0  0  0  0  0  0  0
   63.9850   32.1710   49.7380 C   0  0  0  0  0  0  0  0  0  0  0  0
   64.6460   31.5480   50.9440 C   0  0  0  0  0  0  0  0  0  0  0  0
   64.0290   30.3540   51.2760 F   0  0  0  0  0  0  0  0  0  0  0  0
   64.5530   32.4170   52.0140 F   0  0  0  0  0  0  0  0  0  0  0  0
   65.9820   31.2860   50.6910 F   0  0  0  0  0  0  0  0  0  0  0  0
   62.6360   31.8990   49.4490 C   0  0  0  0  0  0  0  0  0  0  0  0
   59.5790   33.2950   48.1340 C   0  0  0  0  0  0  0  0  0  0  0  0
   58.1320   32.8650   47.8590 C   0  0  0  0  0  0  0  0  0  0  0  0
   57.3090   28.7170   44.8130 C   0  0  0  0  0  0  0  0  0  0  0  0
   58.6790   28.8940   44.5600 C   0  0  0  0  0  0  0  0  0  0  0  0
   59.1270   30.0150   43.9380 F   0  0  0  0  0  0  0  0  0  0  0  0
   59.6000   27.9230   44.9660 C   0  0  0  0  0  0  0  0  0  0  0  0
   59.1580   26.7660   45.6140 C   0  0  0  0  0  0  0  0  0  0  0  0
   57.7950   26.5740   45.8510 C   0  0  0  0  0  0  0  0  0  0  0  0
   56.8690   27.5410   45.4490 C   0  0  0  0  0  0  0  0  0  0  0  0
   55.5450   27.3170   45.6480 F   0  0  0  0  0  0  0  0  0  0  0  0
   57.9549   31.6282   43.4716 H   0  0  0  0  0  0  0  0  0  0  0  0
   56.9696   32.9969   44.1107 H   0  0  0  0  0  0  0  0  0  0  0  0
   59.4076   31.7226   45.2129 H   0  0  0  0  0  0  0  0  0  0  0  0
   58.6727   33.3629   45.5196 H   0  0  0  0  0  0  0  0  0  0  0  0
   57.0160   31.5770   46.7260 H   0  0  0  0  0  0  0  0  0  0  0  0
   58.2747   30.2929   48.2057 H   0  0  0  0  0  0  0  0  0  0  0  0
   58.6438   29.8776   46.4695 H   0  0  0  0  0  0  0  0  0  0  0  0
   60.5845   30.1142   48.2264 H   0  0  0  0  0  0  0  0  0  0  0  0
   60.7176   30.7965   46.5236 H   0  0  0  0  0  0  0  0  0  0  0  0
   62.2540   33.8806   46.6832 H   0  0  0  0  0  0  0  0  0  0  0  0
   64.6163   34.4116   47.2359 H   0  0  0  0  0  0  0  0  0  0  0  0
   65.7232   33.3473   49.1910 H   0  0  0  0  0  0  0  0  0  0  0  0
   62.0792   31.2003   50.0907 H   0  0  0  0  0  0  0  0  0  0  0  0
   59.6243   33.7152   49.1496 H   0  0  0  0  0  0  0  0  0  0  0  0
   59.8403   34.0230   47.3519 H   0  0  0  0  0  0  0  0  0  0  0  0
   57.7039   32.4604   48.7880 H   0  0  0  0  0  0  0  0  0  0  0  0
   57.5857   33.7529   47.5081 H   0  0  0  0  0  0  0  0  0  0  0  0
   60.6733   28.0699   44.7752 H   0  0  0  0  0  0  0  0  0  0  0  0
   59.8844   26.0060   45.9376 H   0  0  0  0  0  0  0  0  0  0  0  0
   57.4493   25.6595   46.3553 H   0  0  0  0  0  0  0  0  0  0  0  0
  1  2  2  0
  2  3  1  0
  3  4  1  0
  4  5  1  0
  5  6  1  0
  6  7  1  0
  7  8  1  0
  8  9  1  0
  9 10  1  0
 10 11  2  0
 11 12  1  0
 12 13  2  0
 13 14  1  0
 14 15  1  0
 15 16  1  0
 15 17  1  0
 15 18  1  0
 14 19  2  0
  9 20  1  0
 20 21  1  0
  2 22  1  0
 22 23  2  0
 23 24  1  0
 23 25  1  0
 25 26  2  0
 26 27  1  0
 27 28  2  0
 28 29  1  0
 21  6  1  0
 28 22  1  0
 19 10  1  0
  4 30  1  0
  4 31  1  0
  5 32  1  0
  5 33  1  0
  6 34  1  0
  7 35  1  0
  7 36  1  0
  8 37  1  0
  8 38  1  0
 11 39  1  0
 12 40  1  0
 13 41  1  0
 19 42  1  0
 20 43  1  0
 20 44  1  0
 21 45  1  0
 21 46  1  0
 25 47  1  0
 26 48  1  0
 27 49  1  0
M  CHG  2   3  -1   6   1
M  END
>  <UniqueID>  (52) 
44

>  <SMILES>  (52) 
O=C([N-]CC[NH+]1CCN(c2cccc(C(F)(F)F)c2)CC1)c1c(F)cccc1F

>  <Energy>  (52) 
68.10292103750699

>  <Genealogy>  (52) 
O=C([N-]CC[NH+]1CCN(c2cccc(C(F)(F)F)c2)CC1)c1c(F)cccc1F (protonated)
O=C([N-]CC[NH+]1CCN(c2cccc(C(F)(F)F)c2)CC1)c1c(F)cccc1F (3D coordinates assigned)
O=C([N-]CC[NH+]1CCN(c2cccc(C(F)(F)F)c2)CC1)c1c(F)cccc1F (nonaromatic ring conformer: 68.10292103750699 kcal/mol)

>  <smiles>  (52) 
O=C(NCCN1CCN(c2cccc(C(F)(F)F)c2)CC1)c1c(F)cccc1F

>  <score_type>  (52) 
oracle

>  <origin>  (52) 
adg

>  <m_score__min__energy>  (52) 
-8.8100000000000005

>  <m_primary>  (52) 
energy

$$$$
52:0
     RDKit          3D

 43 46  0  0  0  0  0  0  0  0999 V2000
   59.4610   34.4250   49.1500 O   0  0  0  0  0  0  0  0  0  0  0  0
   59.9410   34.0480   48.0460 C   0  0  0  0  0  0  0  0  0  0  0  0
   59.0120   33.6740   46.9620 C   0  0  0  0  0  0  0  0  0  0  0  0
   58.1450   34.5690   46.3370 C   0  0  0  0  0  0  0  0  0  0  0  0
   57.3160   33.7280   45.1430 S   0  0  0  0  0  0  0  0  0  0  0  0
   58.0910   32.2670   45.4570 C   0  0  0  0  0  0  0  0  0  0  0  0
   57.8590   30.9890   44.7440 C   0  0  0  0  0  0  0  0  0  0  0  0
   56.8430   30.8950   43.7750 C   0  0  0  0  0  0  0  0  0  0  0  0
   56.6180   29.6920   43.0990 C   0  0  0  0  0  0  0  0  0  0  0  0
   57.4020   28.5720   43.3800 C   0  0  0  0  0  0  0  0  0  0  0  0
   58.4140   28.6530   44.3400 C   0  0  0  0  0  0  0  0  0  0  0  0
   58.6440   29.8520   45.0190 C   0  0  0  0  0  0  0  0  0  0  0  0
   58.9830   32.4070   46.4640 N   0  0  0  0  0  0  0  0  0  0  0  0
   61.3700   33.9890   47.8820 N   0  0  0  0  0  0  0  0  0  0  0  0
   61.9250   33.8490   46.5270 C   0  0  0  0  0  0  0  0  0  0  0  0
   63.4500   34.0060   46.5280 C   0  0  0  0  0  0  0  0  0  0  0  0
   64.1270   33.0450   47.5210 C   0  0  0  0  0  0  0  0  0  0  0  0
   63.3220   32.8330   48.8290 C   0  0  1  0  0  0  0  0  0  0  0  0
   64.2200   32.7510   49.9860 N   0  0  0  0  0  0  0  0  0  0  0  0
   65.5280   33.0750   49.9960 C   0  0  0  0  0  0  0  0  0  0  0  0
   66.0220   32.8640   51.2700 C   0  0  0  0  0  0  0  0  0  0  0  0
   64.9430   32.4030   52.0000 C   0  0  0  0  0  0  0  0  0  0  0  0
   63.8670   32.3460   51.1960 N   0  0  0  0  0  0  0  0  0  0  0  0
   62.2630   33.9240   49.0490 C   0  0  0  0  0  0  0  0  0  0  0  0
   58.0254   35.6347   46.5819 H   0  0  0  0  0  0  0  0  0  0  0  0
   56.2217   31.7738   43.5479 H   0  0  0  0  0  0  0  0  0  0  0  0
   55.8209   29.6281   42.3436 H   0  0  0  0  0  0  0  0  0  0  0  0
   57.2234   27.6268   42.8464 H   0  0  0  0  0  0  0  0  0  0  0  0
   59.0314   27.7700   44.5618 H   0  0  0  0  0  0  0  0  0  0  0  0
   59.4429   29.9087   45.7730 H   0  0  0  0  0  0  0  0  0  0  0  0
   61.6680   32.8534   46.1361 H   0  0  0  0  0  0  0  0  0  0  0  0
   61.4961   34.6397   45.8939 H   0  0  0  0  0  0  0  0  0  0  0  0
   63.8293   33.7972   45.5168 H   0  0  0  0  0  0  0  0  0  0  0  0
   63.6857   35.0353   46.8363 H   0  0  0  0  0  0  0  0  0  0  0  0
   64.2536   32.0694   47.0289 H   0  0  0  0  0  0  0  0  0  0  0  0
   65.0878   33.4994   47.8044 H   0  0  0  0  0  0  0  0  0  0  0  0
   62.7879   31.8773   48.7223 H   0  0  0  0  0  0  0  0  0  0  0  0
   66.1052   33.4449   49.1358 H   0  0  0  0  0  0  0  0  0  0  0  0
   67.0502   33.0275   51.6252 H   0  0  0  0  0  0  0  0  0  0  0  0
   64.9615   32.1277   53.0648 H   0  0  0  0  0  0  0  0  0  0  0  0
   62.9070   32.0390   51.4730 H   0  0  0  0  0  0  0  0  0  0  0  0
   61.6743   33.6866   49.9474 H   0  0  0  0  0  0  0  0  0  0  0  0
   62.7620   34.8954   49.1811 H   0  0  0  0  0  0  0  0  0  0  0  0
  1  2  2  0
  2  3  1  0
  3  4  2  0
  4  5  1  0
  5  6  1  0
  6  7  1  0
  7  8  2  0
  8  9  1  0
  9 10  2  0
 10 11  1  0
 11 12  2  0
  6 13  2  0
  2 14  1  0
 14 15  1  0
 15 16  1  0
 16 17  1  0
 17 18  1  0
 18 19  1  0
 19 20  1  0
 20 21  2  0
 21 22  1  0
 22 23  2  0
 18 24  1  0
 13  3  1  0
 24 14  1  0
 12  7  1  0
 23 19  1  0
  4 25  1  0
  8 26  1  0
  9 27  1  0
 10 28  1  0
 11 29  1  0
 12 30  1  0
 15 31  1  0
 15 32  1  0
 16 33  1  0
 16 34  1  0
 17 35  1  0
 17 36  1  0
 18 37  1  6
 20 38  1  0
 21 39  1  0
 22 40  1  0
 23 41  1  0
 24 42  1  0
 24 43  1  0
M  CHG  1  23   1
M  END
>  <UniqueID>  (53) 
45

>  <SMILES>  (53) 
O=C(c1csc(-c2ccccc2)n1)N1CCC[C@@H](n2ccc[nH+]2)C1

>  <Energy>  (53) 
110.94683110376698

>  <Genealogy>  (53) 
O=C(c1csc(-c2ccccc2)n1)N1CCCC(n2ccc[nH+]2)C1 (protonated)
O=C(c1csc(-c2ccccc2)n1)N1CCC[C@@H](n2ccc[nH+]2)C1 (chirality)
O=C(c1csc(-c2ccccc2)n1)N1CCC[C@@H](n2ccc[nH+]2)C1 (3D coordinates assigned)
O=C(c1csc(-c2ccccc2)n1)N1CCC[C@@H](n2ccc[nH+]2)C1 (nonaromatic ring conformer: 110.94683110376698 kcal/mol)

>  <smiles>  (53) 
O=C(c1csc(-c2ccccc2)n1)N1CCCC(n2cccn2)C1

>  <score_type>  (53) 
oracle

>  <origin>  (53) 
adg

>  <m_score__min__energy>  (53) 
-7.0899999999999999

>  <m_primary>  (53) 
energy

$$$$
53:0
     RDKit          3D

 44 46  0  0  0  0  0  0  0  0999 V2000
   57.0477   23.9561   46.8350 H   0  0  0  0  0  0  0  0  0  0  0  0
   56.9440   25.0040   46.5170 C   0  0  0  0  0  0  0  0  0  0  0  0
   58.1460   26.1820   46.5870 S   0  0  0  0  0  0  0  0  0  0  0  0
   57.1560   27.3800   45.9260 C   0  0  0  0  0  0  0  0  0  0  0  0
   57.4810   28.6240   45.7290 N   0  0  0  0  0  0  0  0  0  0  0  0
   56.6570   29.6170   45.1020 C   0  0  0  0  0  0  0  0  0  0  0  0
   55.4140   29.4180   45.0440 O   0  0  0  0  0  0  0  0  0  0  0  0
   57.2310   30.8250   44.4620 C   0  0  0  0  0  0  0  0  0  0  0  0
   57.3200   30.9220   43.0630 C   0  0  0  0  0  0  0  0  0  0  0  0
   56.9611   30.0945   42.4334 H   0  0  0  0  0  0  0  0  0  0  0  0
   57.8620   32.0640   42.4670 C   0  0  0  0  0  0  0  0  0  0  0  0
   57.9397   32.1270   41.3716 H   0  0  0  0  0  0  0  0  0  0  0  0
   58.3050   33.1250   43.2590 C   0  0  0  0  0  0  0  0  0  0  0  0
   58.7422   34.0169   42.7863 H   0  0  0  0  0  0  0  0  0  0  0  0
   58.1940   33.0570   44.6590 C   0  0  0  0  0  0  0  0  0  0  0  0
   58.6420   34.0950   45.4890 O   0  0  0  0  0  0  0  0  0  0  0  0
   59.6990   34.0030   46.4080 C   0  0  0  0  0  0  0  0  0  0  0  0
   61.0340   33.8420   45.9930 C   0  0  0  0  0  0  0  0  0  0  0  0
   61.2702   33.7718   44.9210 H   0  0  0  0  0  0  0  0  0  0  0  0
   62.0610   33.7710   46.9390 C   0  0  0  0  0  0  0  0  0  0  0  0
   63.1022   33.6423   46.6083 H   0  0  0  0  0  0  0  0  0  0  0  0
   61.7700   33.8630   48.3050 C   0  0  0  0  0  0  0  0  0  0  0  0
   63.0750   33.7940   49.4860 S   0  0  0  0  0  0  0  0  0  0  0  0
   64.4040   33.8270   48.7820 O   0  0  0  0  0  0  0  0  0  0  0  0
   62.9780   35.0010   50.3790 O   0  0  0  0  0  0  0  0  0  0  0  0
   62.9350   32.3400   50.4420 N   0  0  0  0  0  0  0  0  0  0  0  0
   62.3030   31.2850   49.6390 C   0  0  0  0  0  0  0  0  0  0  0  0
   61.8538   30.5352   50.3069 H   0  0  0  0  0  0  0  0  0  0  0  0
   61.5204   31.7264   49.0043 H   0  0  0  0  0  0  0  0  0  0  0  0
   63.0614   30.8033   49.0043 H   0  0  0  0  0  0  0  0  0  0  0  0
   64.2710   31.9100   50.8730 C   0  0  0  0  0  0  0  0  0  0  0  0
   64.3148   31.8959   51.9720 H   0  0  0  0  0  0  0  0  0  0  0  0
   64.4744   30.9010   50.4849 H   0  0  0  0  0  0  0  0  0  0  0  0
   65.0247   32.6109   50.4849 H   0  0  0  0  0  0  0  0  0  0  0  0
   60.4430   34.0480   48.7180 C   0  0  0  0  0  0  0  0  0  0  0  0
   60.2091   34.1343   49.7894 H   0  0  0  0  0  0  0  0  0  0  0  0
   59.4170   34.1230   47.7730 C   0  0  0  0  0  0  0  0  0  0  0  0
   58.3796   34.2776   48.1046 H   0  0  0  0  0  0  0  0  0  0  0  0
   57.6670   31.9030   45.2520 C   0  0  0  0  0  0  0  0  0  0  0  0
   57.5934   31.8394   46.3477 H   0  0  0  0  0  0  0  0  0  0  0  0
   55.9210   26.9020   45.6680 N   0  0  0  0  0  0  0  0  0  0  0  0
   55.1440   27.4750   45.2690 H   0  0  0  0  0  0  0  0  0  0  0  0
   55.7970   25.5870   45.9870 C   0  0  0  0  0  0  0  0  0  0  0  0
   54.8622   25.0267   45.8378 H   0  0  0  0  0  0  0  0  0  0  0  0
  1  2  1  0
  2  3  1  0
  3  4  1  0
  4  5  2  0
  5  6  1  0
  6  7  2  0
  6  8  1  0
  8  9  2  0
  9 10  1  0
  9 11  1  0
 11 12  1  0
 11 13  2  0
 13 14  1  0
 13 15  1  0
 15 16  1  0
 16 17  1  0
 17 18  2  0
 18 19  1  0
 18 20  1  0
 20 21  1  0
 20 22  2  0
 22 23  1  0
 23 24  2  0
 23 25  2  0
 23 26  1  0
 26 27  1  0
 27 28  1  0
 27 29  1  0
 27 30  1  0
 26 31  1  0
 31 32  1  0
 31 33  1  0
 31 34  1  0
 22 35  1  0
 35 36  1  0
 35 37  2  0
 37 38  1  0
 15 39  2  0
 39 40  1  0
  4 41  1  0
 41 42  1  0
 41 43  1  0
 43 44  1  0
 43  2  2  0
 39  8  1  0
 37 17  1  0
M  END
>  <UniqueID>  (54) 
46

>  <SMILES>  (54) 
CN(C)S(=O)(=O)c1ccc(Oc2cccc(C(=O)/N=c3/[nH]ccs3)c2)cc1

>  <Energy>  (54) 
88.97708641840278

>  <Genealogy>  (54) 
CN(C)S(=O)(=O)c1ccc(Oc2cccc(C(=O)/N=c3/[nH]ccs3)c2)cc1 (cis-trans isomerization)
CN(C)S(=O)(=O)c1ccc(Oc2cccc(C(=O)/N=c3/[nH]ccs3)c2)cc1 (3D coordinates assigned)
CN(C)S(=O)(=O)c1ccc(Oc2cccc(C(=O)/N=c3/[nH]ccs3)c2)cc1 (optimized conformer: 88.97708641840278 kcal/mol)

>  <smiles>  (54) 
CN(C)S(=O)(=O)c1ccc(Oc2cccc(C(=O)N=c3[nH]ccs3)c2)cc1

>  <score_type>  (54) 
oracle

>  <origin>  (54) 
adg

>  <m_score__min__energy>  (54) 
-8.6199999999999992

>  <m_primary>  (54) 
energy

$$$$
54:0
     RDKit          3D

 37 39  0  0  1  0  0  0  0  0999 V2000
   59.2590   35.2420   44.8830 C   0  0  0  0  0  0  0  0  0  0  0  0
   59.2360   34.4710   46.1500 C   0  0  0  0  0  0  0  0  0  0  0  0
   60.2270   34.5640   47.0950 C   0  0  0  0  0  0  0  0  0  0  0  0
   60.2560   33.8820   48.2720 C   0  0  0  0  0  0  0  0  0  0  0  0
   59.1980   33.0170   48.5500 C   0  0  0  0  0  0  0  0  0  0  0  0
   58.1960   32.9160   47.6100 C   0  0  0  0  0  0  0  0  0  0  0  0
   58.1860   33.6140   46.4250 C   0  0  0  0  0  0  0  0  0  0  0  0
   57.0610   33.4740   45.4230 C   0  0  0  0  0  0  0  0  0  0  0  0
   57.4630   32.6200   44.3780 N   0  0  0  0  0  0  0  0  0  0  0  0
   57.3310   31.3550   44.2670 C   0  0  0  0  0  0  0  0  0  0  0  0
   56.7970   30.8550   43.1000 C   0  0  0  0  0  0  0  0  0  0  0  0
   56.6600   29.4990   42.9950 C   0  0  0  0  0  0  0  0  0  0  0  0
   57.0170   28.6400   43.9670 N   0  0  0  0  0  0  0  0  0  0  0  0
   57.5360   29.1530   45.0980 C   0  0  0  0  0  0  0  0  0  0  0  0
   58.0600   28.1450   46.4760 S   0  0  0  0  0  0  0  0  0  0  0  0
   57.2490   26.5840   46.5360 C   0  0  0  0  0  0  0  0  0  0  0  0
   56.0080   26.3510   45.9820 C   0  0  0  0  0  0  0  0  0  0  0  0
   55.4270   25.1190   46.0590 N   0  0  0  0  0  0  0  0  0  0  0  0
   56.0700   24.1030   46.6880 C   0  0  0  0  0  0  0  0  0  0  0  0
   57.2910   24.3020   47.2430 N   0  0  0  0  0  0  0  0  0  0  0  0
   57.8890   25.5220   47.1780 C   0  0  0  0  0  0  0  0  0  0  0  0
   57.6850   30.4900   45.2320 N   0  0  0  0  0  0  0  0  0  0  0  0
   59.2911   36.3180   45.1091 H   0  0  0  0  0  0  0  0  0  0  0  0
   60.1492   34.9631   44.3002 H   0  0  0  0  0  0  0  0  0  0  0  0
   58.3537   35.0166   44.3002 H   0  0  0  0  0  0  0  0  0  0  0  0
   61.0651   35.2445   46.8839 H   0  0  0  0  0  0  0  0  0  0  0  0
   61.0871   34.0088   48.9814 H   0  0  0  0  0  0  0  0  0  0  0  0
   59.1648   32.4374   49.4843 H   0  0  0  0  0  0  0  0  0  0  0  0
   57.3554   32.2380   47.8193 H   0  0  0  0  0  0  0  0  0  0  0  0
   56.1768   33.0508   45.9221 H   0  0  0  0  0  0  0  0  0  0  0  0
   56.8131   34.4635   45.0114 H   0  0  0  0  0  0  0  0  0  0  0  0
   56.4916   31.5233   42.2814 H   0  0  0  0  0  0  0  0  0  0  0  0
   56.2355   29.0885   42.0669 H   0  0  0  0  0  0  0  0  0  0  0  0
   56.9090   27.6180   43.8770 H   0  0  0  0  0  0  0  0  0  0  0  0
   55.4794   27.1693   45.4712 H   0  0  0  0  0  0  0  0  0  0  0  0
   55.5976   23.1114   46.7480 H   0  0  0  0  0  0  0  0  0  0  0  0
   58.8794   25.6723   47.6324 H   0  0  0  0  0  0  0  0  0  0  0  0
  1  2  1  0
  2  3  2  0
  3  4  1  0
  4  5  2  0
  5  6  1  0
  6  7  2  0
  7  8  1  0
  8  9  1  0
  9 10  2  0
 10 11  1  0
 11 12  2  0
 12 13  1  0
 13 14  1  0
 14 15  1  0
 15 16  1  0
 16 17  2  0
 17 18  1  0
 18 19  2  0
 19 20  1  0
 20 21  2  0
 14 22  2  0
  7  2  1  0
 22 10  1  0
 21 16  1  0
  1 23  1  0
  1 24  1  0
  1 25  1  0
  3 26  1  0
  4 27  1  0
  5 28  1  0
  6 29  1  0
  8 30  1  0
  8 31  1  0
 11 32  1  0
 12 33  1  0
 13 34  1  0
 17 35  1  0
 19 36  1  0
 21 37  1  0
M  END
>  <smiles>  (55) 
Cc1ccccc1CN=c1cc[nH]c(Sc2cncnc2)n1

>  <score_type>  (55) 
oracle

>  <origin>  (55) 
adg

>  <m_score__min__energy>  (55) 
-7.7999999999999998

>  <m_primary>  (55) 
energy

$$$$
55:0
     RDKit          3D

 52 55  0  0  0  0  0  0  0  0999 V2000
   59.8970   28.5500   46.0700 C   0  0  0  0  0  0  0  0  0  0  0  0
   59.2290   27.2030   46.0280 C   0  0  0  0  0  0  0  0  0  0  0  0
   60.0100   26.0370   45.9970 C   0  0  0  0  0  0  0  0  0  0  0  0
   59.4030   24.7820   45.9830 C   0  0  0  0  0  0  0  0  0  0  0  0
   58.0130   24.6740   45.9850 C   0  0  0  0  0  0  0  0  0  0  0  0
   57.2080   25.8240   46.0070 C   0  0  0  0  0  0  0  0  0  0  0  0
   55.7110   25.6750   45.9510 C   0  0  0  0  0  0  0  0  0  0  0  0
   57.8230   27.0990   46.0690 C   0  0  0  0  0  0  0  0  0  0  0  0
   57.0330   28.2940   46.1340 N   0  0  0  0  0  0  0  0  0  0  0  0
   56.5630   28.9900   44.9760 C   0  0  0  0  0  0  0  0  0  0  0  0
   55.3480   29.3090   44.8750 O   0  0  0  0  0  0  0  0  0  0  0  0
   57.5260   29.3770   43.8960 C   0  0  0  0  0  0  0  0  0  0  0  0
   57.8620   30.8080   44.0010 N   0  0  0  0  0  0  0  0  0  0  0  0
   58.3850   31.2630   45.1810 C   0  0  0  0  0  0  0  0  0  0  0  0
   58.6750   32.6260   45.3720 C   0  0  0  0  0  0  0  0  0  0  0  0
   59.1710   33.1350   46.6790 C   0  0  0  0  0  0  0  0  0  0  0  0
   58.5350   34.0430   47.2810 O   0  0  0  0  0  0  0  0  0  0  0  0
   60.3680   32.5670   47.3330 C   0  0  0  0  0  0  0  0  0  0  0  0
   61.6040   33.1870   47.0970 C   0  0  0  0  0  0  0  0  0  0  0  0
   62.7610   32.7280   47.7250 C   0  0  0  0  0  0  0  0  0  0  0  0
   62.7060   31.6390   48.5930 C   0  0  0  0  0  0  0  0  0  0  0  0
   61.4870   30.9890   48.8350 C   0  0  0  0  0  0  0  0  0  0  0  0
   61.4360   29.8880   49.7030 C   0  0  0  0  0  0  0  0  0  0  0  0
   60.2260   29.2330   49.9400 C   0  0  0  0  0  0  0  0  0  0  0  0
   59.0590   29.6680   49.3100 C   0  0  0  0  0  0  0  0  0  0  0  0
   59.0920   30.7630   48.4430 C   0  0  0  0  0  0  0  0  0  0  0  0
   60.3010   31.4460   48.1980 C   0  0  0  0  0  0  0  0  0  0  0  0
   58.4440   33.5080   44.3080 C   0  0  0  0  0  0  0  0  0  0  0  0
   57.9210   33.0360   43.1080 C   0  0  0  0  0  0  0  0  0  0  0  0
   57.6220   31.6800   42.9670 C   0  0  0  0  0  0  0  0  0  0  0  0
   57.1250   31.2750   41.8810 O   0  0  0  0  0  0  0  0  0  0  0  0
   60.0470   28.8524   47.1169 H   0  0  0  0  0  0  0  0  0  0  0  0
   60.8709   28.4923   45.5619 H   0  0  0  0  0  0  0  0  0  0  0  0
   59.2616   29.2904   45.5619 H   0  0  0  0  0  0  0  0  0  0  0  0
   61.1072   26.1139   45.9837 H   0  0  0  0  0  0  0  0  0  0  0  0
   60.0231   23.8735   45.9703 H   0  0  0  0  0  0  0  0  0  0  0  0
   57.5432   23.6795   45.9692 H   0  0  0  0  0  0  0  0  0  0  0  0
   55.3080   25.6349   46.9737 H   0  0  0  0  0  0  0  0  0  0  0  0
   55.2766   26.5343   45.4192 H   0  0  0  0  0  0  0  0  0  0  0  0
   55.4545   24.7469   45.4192 H   0  0  0  0  0  0  0  0  0  0  0  0
   58.4443   28.7800   43.9973 H   0  0  0  0  0  0  0  0  0  0  0  0
   57.0611   29.1889   42.9170 H   0  0  0  0  0  0  0  0  0  0  0  0
   58.5822   30.5498   45.9949 H   0  0  0  0  0  0  0  0  0  0  0  0
   61.6609   34.0439   46.4096 H   0  0  0  0  0  0  0  0  0  0  0  0
   63.7221   33.2279   47.5344 H   0  0  0  0  0  0  0  0  0  0  0  0
   63.6222   31.2879   49.0902 H   0  0  0  0  0  0  0  0  0  0  0  0
   62.3537   29.5391   50.1992 H   0  0  0  0  0  0  0  0  0  0  0  0
   60.1924   28.3726   50.6245 H   0  0  0  0  0  0  0  0  0  0  0  0
   58.1088   29.1462   49.4970 H   0  0  0  0  0  0  0  0  0  0  0  0
   58.1676   31.0949   47.9476 H   0  0  0  0  0  0  0  0  0  0  0  0
   58.6769   34.5770   44.4217 H   0  0  0  0  0  0  0  0  0  0  0  0
   57.7437   33.7296   42.2729 H   0  0  0  0  0  0  0  0  0  0  0  0
  1  2  1  0
  2  3  2  0
  3  4  1  0
  4  5  2  0
  5  6  1  0
  6  7  1  0
  6  8  2  0
  8  9  1  0
  9 10  1  0
 10 11  2  0
 10 12  1  0
 12 13  1  0
 13 14  1  0
 14 15  2  0
 15 16  1  0
 16 17  2  0
 16 18  1  0
 18 19  2  0
 19 20  1  0
 20 21  2  0
 21 22  1  0
 22 23  2  0
 23 24  1  0
 24 25  2  0
 25 26  1  0
 26 27  2  0
 15 28  1  0
 28 29  2  0
 29 30  1  0
 30 31  2  0
  8  2  1  0
 30 13  1  0
 27 18  1  0
 27 22  1  0
  1 32  1  0
  1 33  1  0
  1 34  1  0
  3 35  1  0
  4 36  1  0
  5 37  1  0
  7 38  1  0
  7 39  1  0
  7 40  1  0
 12 41  1  0
 12 42  1  0
 14 43  1  0
 19 44  1  0
 20 45  1  0
 21 46  1  0
 23 47  1  0
 24 48  1  0
 25 49  1  0
 26 50  1  0
 28 51  1  0
 29 52  1  0
M  CHG  1   9  -1
M  END
>  <UniqueID>  (56) 
47

>  <SMILES>  (56) 
Cc1cccc(C)c1[N-]C(=O)Cn1cc(C(=O)c2cccc3ccccc23)ccc1=O

>  <Energy>  (56) 
75.18806330373701

>  <Genealogy>  (56) 
Cc1cccc(C)c1[N-]C(=O)Cn1cc(C(=O)c2cccc3ccccc23)ccc1=O (protonated)
Cc1cccc(C)c1[N-]C(=O)Cn1cc(C(=O)c2cccc3ccccc23)ccc1=O (3D coordinates assigned)
Cc1cccc(C)c1[N-]C(=O)Cn1cc(C(=O)c2cccc3ccccc23)ccc1=O (optimized conformer: 75.18806330373701 kcal/mol)

>  <smiles>  (56) 
Cc1cccc(C)c1NC(=O)Cn1cc(C(=O)c2cccc3ccccc23)ccc1=O

>  <score_type>  (56) 
oracle

>  <origin>  (56) 
adg

>  <m_score__min__energy>  (56) 
-11.41

>  <m_primary>  (56) 
energy

$$$$
56:0
     RDKit          3D

 58 61  0  0  0  0  0  0  0  0999 V2000
   56.6990   21.5680   49.7420 C   0  0  0  0  0  0  0  0  0  0  0  0
   57.3270   21.0990   48.5560 O   0  0  0  0  0  0  0  0  0  0  0  0
   56.6460   20.5820   47.4390 C   0  0  0  0  0  0  0  0  0  0  0  0
   55.9350   19.3690   47.5090 C   0  0  0  0  0  0  0  0  0  0  0  0
   55.2360   18.8930   46.4040 C   0  0  0  0  0  0  0  0  0  0  0  0
   55.2560   19.6010   45.2090 C   0  0  0  0  0  0  0  0  0  0  0  0
   55.9710   20.8070   45.1040 C   0  0  0  0  0  0  0  0  0  0  0  0
   56.0280   21.5210   43.8950 O   0  0  0  0  0  0  0  0  0  0  0  0
   57.0840   21.4270   42.9440 C   0  0  0  0  0  0  0  0  0  0  0  0
   56.6620   21.3070   46.2280 C   0  0  0  0  0  0  0  0  0  0  0  0
   57.4070   22.5840   46.1340 C   0  0  0  0  0  0  0  0  0  0  0  0
   58.6770   22.7580   45.5860 C   0  0  0  0  0  0  0  0  0  0  0  0
   59.1120   24.0900   45.5940 C   0  0  0  0  0  0  0  0  0  0  0  0
   58.1900   24.9650   46.1570 C   0  0  0  0  0  0  0  0  0  0  0  0
   58.3280   26.4230   46.2570 C   0  0  0  0  0  0  0  0  0  0  0  0
   57.7570   27.0420   47.1960 O   0  0  0  0  0  0  0  0  0  0  0  0
   59.0770   27.1420   45.2680 N   0  0  0  0  0  0  0  0  0  0  0  0
   58.5380   28.2770   44.5220 C   0  0  0  0  0  0  0  0  0  0  0  0
   59.2930   29.5690   44.9140 C   0  0  0  0  0  0  0  0  0  0  0  0
   58.4640   30.4670   45.8440 C   0  0  0  0  0  0  0  0  0  0  0  0
   57.1540   30.8530   45.2530 N   0  0  0  0  0  0  0  0  0  0  0  0
   57.2280   32.1400   44.5280 C   0  0  0  0  0  0  0  0  0  0  0  0
   58.0040   33.1600   45.3160 C   0  0  0  0  0  0  0  0  0  0  0  0
   57.8490   33.2560   46.7080 C   0  0  0  0  0  0  0  0  0  0  0  0
   58.5830   34.1960   47.4360 C   0  0  0  0  0  0  0  0  0  0  0  0
   59.4780   35.0450   46.7790 C   0  0  0  0  0  0  0  0  0  0  0  0
   59.6360   34.9570   45.3930 C   0  0  0  0  0  0  0  0  0  0  0  0
   58.9020   34.0200   44.6620 C   0  0  0  0  0  0  0  0  0  0  0  0
   56.5420   29.8080   44.3940 C   0  0  0  0  0  0  0  0  0  0  0  0
   57.0190   28.3970   44.7550 C   0  0  0  0  0  0  0  0  0  0  0  0
   56.8370   24.0890   46.6360 S   0  0  0  0  0  0  0  0  0  0  0  0
   57.2303   21.1712   50.6197 H   0  0  0  0  0  0  0  0  0  0  0  0
   56.7278   22.6674   49.7620 H   0  0  0  0  0  0  0  0  0  0  0  0
   55.6530   21.2282   49.7620 H   0  0  0  0  0  0  0  0  0  0  0  0
   55.9320   18.7923   48.4457 H   0  0  0  0  0  0  0  0  0  0  0  0
   54.6667   17.9546   46.4769 H   0  0  0  0  0  0  0  0  0  0  0  0
   54.7076   19.2147   44.3372 H   0  0  0  0  0  0  0  0  0  0  0  0
   58.0456   21.3414   43.4712 H   0  0  0  0  0  0  0  0  0  0  0  0
   56.9313   20.5389   42.3132 H   0  0  0  0  0  0  0  0  0  0  0  0
   57.0906   22.3281   42.3132 H   0  0  0  0  0  0  0  0  0  0  0  0
   59.2796   21.9294   45.1858 H   0  0  0  0  0  0  0  0  0  0  0  0
   60.0854   24.4111   45.1948 H   0  0  0  0  0  0  0  0  0  0  0  0
   58.6893   28.1165   43.4444 H   0  0  0  0  0  0  0  0  0  0  0  0
   60.2254   29.2922   45.4278 H   0  0  0  0  0  0  0  0  0  0  0  0
   59.4958   30.1340   43.9922 H   0  0  0  0  0  0  0  0  0  0  0  0
   58.2801   29.9256   46.7837 H   0  0  0  0  0  0  0  0  0  0  0  0
   59.0376   31.3905   46.0117 H   0  0  0  0  0  0  0  0  0  0  0  0
   57.7251   31.9793   43.5600 H   0  0  0  0  0  0  0  0  0  0  0  0
   56.2054   32.5170   44.3787 H   0  0  0  0  0  0  0  0  0  0  0  0
   57.1465   32.5881   47.2280 H   0  0  0  0  0  0  0  0  0  0  0  0
   58.4564   34.2678   48.5263 H   0  0  0  0  0  0  0  0  0  0  0  0
   60.0582   35.7826   47.3528 H   0  0  0  0  0  0  0  0  0  0  0  0
   60.3396   35.6268   44.8770 H   0  0  0  0  0  0  0  0  0  0  0  0
   59.0274   33.9553   43.5711 H   0  0  0  0  0  0  0  0  0  0  0  0
   55.4490   29.8513   44.5105 H   0  0  0  0  0  0  0  0  0  0  0  0
   56.8468   30.0082   43.3562 H   0  0  0  0  0  0  0  0  0  0  0  0
   56.7961   28.1970   45.8135 H   0  0  0  0  0  0  0  0  0  0  0  0
   56.4978   27.6664   44.1189 H   0  0  0  0  0  0  0  0  0  0  0  0
  1  2  1  0
  2  3  1  0
  3  4  2  0
  4  5  1  0
  5  6  2  0
  6  7  1  0
  7  8  1  0
  8  9  1  0
  7 10  2  0
 10 11  1  0
 11 12  2  0
 12 13  1  0
 13 14  2  0
 14 15  1  0
 15 16  2  0
 15 17  1  0
 17 18  1  0
 18 19  1  0
 19 20  1  0
 20 21  1  0
 21 22  1  0
 22 23  1  0
 23 24  2  0
 24 25  1  0
 25 26  2  0
 26 27  1  0
 27 28  2  0
 21 29  1  0
 29 30  1  0
 14 31  1  0
 10  3  1  0
 31 11  1  0
 30 18  1  0
 28 23  1  0
  1 32  1  0
  1 33  1  0
  1 34  1  0
  4 35  1  0
  5 36  1  0
  6 37  1  0
  9 38  1  0
  9 39  1  0
  9 40  1  0
 12 41  1  0
 13 42  1  0
 18 43  1  0
 19 44  1  0
 19 45  1  0
 20 46  1  0
 20 47  1  0
 22 48  1  0
 22 49  1  0
 24 50  1  0
 25 51  1  0
 26 52  1  0
 27 53  1  0
 28 54  1  0
 29 55  1  0
 29 56  1  0
 30 57  1  0
 30 58  1  0
M  CHG  1  17  -1
M  END
>  <UniqueID>  (57) 
48

>  <SMILES>  (57) 
COc1cccc(OC)c1-c1ccc(C(=O)[N-]C2CCN(Cc3ccccc3)CC2)s1

>  <Energy>  (57) 
98.53726922915875

>  <Genealogy>  (57) 
COc1cccc(OC)c1-c1ccc(C(=O)[N-]C2CCN(Cc3ccccc3)CC2)s1 (protonated)
COc1cccc(OC)c1-c1ccc(C(=O)[N-]C2CCN(Cc3ccccc3)CC2)s1 (3D coordinates assigned)
COc1cccc(OC)c1-c1ccc(C(=O)[N-]C2CCN(Cc3ccccc3)CC2)s1 (nonaromatic ring conformer: 98.53726922915875 kcal/mol)

>  <smiles>  (57) 
COc1cccc(OC)c1-c1ccc(C(=O)NC2CCN(Cc3ccccc3)CC2)s1

>  <score_type>  (57) 
oracle

>  <origin>  (57) 
adg

>  <m_score__min__energy>  (57) 
-9.7699999999999996

>  <m_primary>  (57) 
energy

$$$$
57:0
     RDKit          3D

 42 43  0  0  0  0  0  0  0  0999 V2000
   59.2130   29.8780   45.8270 C   0  0  0  0  0  0  0  0  0  0  0  0
   57.9240   29.8920   45.1320 N   0  0  0  0  0  0  0  0  0  0  0  0
   57.4720   28.7580   44.3370 C   0  0  0  0  0  0  0  0  0  0  0  0
   56.9080   29.3440   43.0350 C   0  0  0  0  0  0  0  0  0  0  0  0
   56.6550   30.8290   43.3000 C   0  0  0  0  0  0  0  0  0  0  0  0
   57.3150   31.0680   44.6030 C   0  0  0  0  0  0  0  0  0  0  0  0
   57.1800   32.2000   45.2380 N   0  0  0  0  0  0  0  0  0  0  0  0
   57.3560   33.5520   44.7110 C   0  0  0  0  0  0  0  0  0  0  0  0
   58.8300   33.9780   44.7000 C   0  0  0  0  0  0  0  0  0  0  0  0
   59.2930   34.9410   46.1880 S   0  0  0  0  0  0  0  0  0  0  0  0
   60.0020   33.5550   47.1070 C   0  0  0  0  0  0  0  0  0  0  0  0
   59.2030   32.7000   47.8870 C   0  0  0  0  0  0  0  0  0  0  0  0
   57.7770   32.9070   47.9380 N   0  0  0  0  0  0  0  0  0  0  0  0
   59.7910   31.6700   48.5850 N   0  0  0  0  0  0  0  0  0  0  0  0
   58.9610   30.7790   49.4170 C   0  0  0  0  0  0  0  0  0  0  0  0
   61.1450   31.4520   48.4850 C   0  0  0  0  0  0  0  0  0  0  0  0
   61.6670   30.4580   49.0650 O   0  0  0  0  0  0  0  0  0  0  0  0
   61.9390   32.2990   47.7550 N   0  0  0  0  0  0  0  0  0  0  0  0
   63.3850   32.0350   47.6430 C   0  0  0  0  0  0  0  0  0  0  0  0
   61.3820   33.3390   47.0680 C   0  0  0  0  0  0  0  0  0  0  0  0
   62.1070   34.1110   46.3790 O   0  0  0  0  0  0  0  0  0  0  0  0
   59.0436   29.8798   46.9139 H   0  0  0  0  0  0  0  0  0  0  0  0
   59.7720   28.9737   45.5446 H   0  0  0  0  0  0  0  0  0  0  0  0
   59.7916   30.7699   45.5446 H   0  0  0  0  0  0  0  0  0  0  0  0
   58.3147   28.0855   44.1187 H   0  0  0  0  0  0  0  0  0  0  0  0
   56.7126   28.1702   44.8735 H   0  0  0  0  0  0  0  0  0  0  0  0
   57.6342   29.2223   42.2178 H   0  0  0  0  0  0  0  0  0  0  0  0
   55.9824   28.8303   42.7361 H   0  0  0  0  0  0  0  0  0  0  0  0
   57.1051   31.4507   42.5120 H   0  0  0  0  0  0  0  0  0  0  0  0
   55.5852   31.0850   43.3097 H   0  0  0  0  0  0  0  0  0  0  0  0
   56.9692   33.5850   43.6818 H   0  0  0  0  0  0  0  0  0  0  0  0
   56.8071   34.2454   45.3651 H   0  0  0  0  0  0  0  0  0  0  0  0
   59.4576   33.0758   44.6543 H   0  0  0  0  0  0  0  0  0  0  0  0
   58.9849   34.6233   43.8227 H   0  0  0  0  0  0  0  0  0  0  0  0
   57.2280   32.7630   48.8120 H   0  0  0  0  0  0  0  0  0  0  0  0
   57.2310   33.2480   47.1180 H   0  0  0  0  0  0  0  0  0  0  0  0
   59.1534   30.9856   50.4802 H   0  0  0  0  0  0  0  0  0  0  0  0
   57.8981   30.9556   49.1957 H   0  0  0  0  0  0  0  0  0  0  0  0
   59.2124   29.7312   49.1957 H   0  0  0  0  0  0  0  0  0  0  0  0
   63.8222   31.9552   48.6492 H   0  0  0  0  0  0  0  0  0  0  0  0
   63.5446   31.0929   47.0981 H   0  0  0  0  0  0  0  0  0  0  0  0
   63.8672   32.8600   47.0981 H   0  0  0  0  0  0  0  0  0  0  0  0
  1  2  1  0
  2  3  1  0
  3  4  1  0
  4  5  1  0
  5  6  1  0
  6  7  2  3
  7  8  1  0
  8  9  1  0
  9 10  1  0
 10 11  1  0
 11 12  2  0
 12 13  1  0
 12 14  1  0
 14 15  1  0
 14 16  1  0
 16 17  2  0
 16 18  1  0
 18 19  1  0
 18 20  1  0
 20 21  2  0
  6  2  1  0
 20 11  1  0
  1 22  1  0
  1 23  1  0
  1 24  1  0
  3 25  1  0
  3 26  1  0
  4 27  1  0
  4 28  1  0
  5 29  1  0
  5 30  1  0
  8 31  1  0
  8 32  1  0
  9 33  1  0
  9 34  1  0
 13 35  1  0
 13 36  1  0
 15 37  1  0
 15 38  1  0
 15 39  1  0
 19 40  1  0
 19 41  1  0
 19 42  1  0
M  END
>  <UniqueID>  (58) 
49

>  <SMILES>  (58) 
CN1CCCC1=NCCSc1c(N)n(C)c(=O)n(C)c1=O

>  <Energy>  (58) 
53.94222856218733

>  <Genealogy>  (58) 
CN1CCCC1=NCCSc1c(N)n(C)c(=O)n(C)c1=O (3D coordinates assigned)
CN1CCCC1=NCCSc1c(N)n(C)c(=O)n(C)c1=O (nonaromatic ring conformer: 53.94222856218733 kcal/mol)

>  <smiles>  (58) 
CN1CCCC1=NCCSc1c(N)n(C)c(=O)n(C)c1=O

>  <score_type>  (58) 
oracle

>  <origin>  (58) 
adg

>  <m_score__min__energy>  (58) 
-7.2199999999999998

>  <m_primary>  (58) 
energy

$$$$
58:0
     RDKit          3D

 22 22  0  0  0  0  0  0  0  0999 V2000
   57.7830   34.0500   46.0180 C   0  0  0  0  0  0  0  0  0  0  0  0
   58.5020   32.8260   46.1040 O   0  0  0  0  0  0  0  0  0  0  0  0
   57.9770   31.6110   45.6510 C   0  0  0  0  0  0  0  0  0  0  0  0
   57.8050   30.6530   46.4530 O   0  0  0  0  0  0  0  0  0  0  0  0
   57.6300   31.4620   44.2270 C   0  0  0  0  0  0  0  0  0  0  0  0
   57.8930   32.3850   43.2360 C   0  0  0  0  0  0  0  0  0  0  0  0
   57.3930   31.8330   42.0740 C   0  0  0  0  0  0  0  0  0  0  0  0
   57.4520   32.4580   40.7220 C   0  0  0  0  0  0  0  0  0  0  0  0
   56.8650   30.6550   42.3180 O   0  0  0  0  0  0  0  0  0  0  0  0
   56.9880   30.3990   43.6020 C   0  0  0  0  0  0  0  0  0  0  0  0
   56.4950   29.1390   44.2520 C   0  0  0  0  0  0  0  0  0  0  0  0
   55.4600   29.4210   45.1540 O   0  0  0  0  0  0  0  0  0  0  0  0
   57.5659   34.4196   47.0310 H   0  0  0  0  0  0  0  0  0  0  0  0
   58.3879   34.7934   45.4782 H   0  0  0  0  0  0  0  0  0  0  0  0
   56.8391   33.8836   45.4782 H   0  0  0  0  0  0  0  0  0  0  0  0
   58.3957   33.3569   43.3483 H   0  0  0  0  0  0  0  0  0  0  0  0
   57.5549   33.5482   40.8262 H   0  0  0  0  0  0  0  0  0  0  0  0
   58.3165   32.0591   40.1711 H   0  0  0  0  0  0  0  0  0  0  0  0
   56.5281   32.2279   40.1711 H   0  0  0  0  0  0  0  0  0  0  0  0
   56.1217   28.4543   43.4762 H   0  0  0  0  0  0  0  0  0  0  0  0
   57.3272   28.6746   44.8014 H   0  0  0  0  0  0  0  0  0  0  0  0
   55.8900   29.7380   45.9910 H   0  0  0  0  0  0  0  0  0  0  0  0
  1  2  1  0
  2  3  1  0
  3  4  2  0
  3  5  1  0
  5  6  1  0
  6  7  2  0
  7  8  1  0
  7  9  1  0
  9 10  1  0
 10 11  1  0
 11 12  1  0
 10  5  2  0
  1 13  1  0
  1 14  1  0
  1 15  1  0
  6 16  1  0
  8 17  1  0
  8 18  1  0
  8 19  1  0
 11 20  1  0
 11 21  1  0
 12 22  1  0
M  END
>  <UniqueID>  (59) 
50

>  <SMILES>  (59) 
COC(=O)c1cc(C)oc1CO

>  <Energy>  (59) 
41.95106171957949

>  <Genealogy>  (59) 
COC(=O)c1cc(C)oc1CO (3D coordinates assigned)
COC(=O)c1cc(C)oc1CO (optimized conformer: 41.95106171957949 kcal/mol)

>  <smiles>  (59) 
COC(=O)c1cc(C)oc1CO

>  <score_type>  (59) 
oracle

>  <origin>  (59) 
adg

>  <m_score__min__energy>  (59) 
-5.04

>  <m_primary>  (59) 
energy

$$$$
59:0
     RDKit          3D

 35 37  0  0  0  0  0  0  0  0999 V2000
   63.6570   31.6250   49.2320 C   0  0  0  0  0  0  0  0  0  0  0  0
   63.0630   32.4700   48.1520 C   0  0  0  0  0  0  0  0  0  0  0  0
   63.7270   32.9170   47.0700 N   0  0  0  0  0  0  0  0  0  0  0  0
   62.9060   33.6920   46.3760 N   0  0  0  0  0  0  0  0  0  0  0  0
   61.7300   33.7580   46.9810 N   0  0  0  0  0  0  0  0  0  0  0  0
   60.6220   34.5920   46.5120 C   0  0  0  0  0  0  0  0  0  0  0  0
   59.5000   33.7460   45.9690 C   0  0  0  0  0  0  0  0  0  0  0  0
   59.5890   32.3440   45.9980 C   0  0  0  0  0  0  0  0  0  0  0  0
   58.5510   31.5610   45.4820 C   0  0  0  0  0  0  0  0  0  0  0  0
   57.4250   32.1700   44.9230 C   0  0  0  0  0  0  0  0  0  0  0  0
   57.3370   33.5630   44.8750 C   0  0  0  0  0  0  0  0  0  0  0  0
   58.3710   34.3510   45.3880 C   0  0  0  0  0  0  0  0  0  0  0  0
   61.7890   33.0040   48.1010 C   0  0  0  0  0  0  0  0  0  0  0  0
   60.7190   32.8500   49.1020 C   0  0  0  0  0  0  0  0  0  0  0  0
   60.4770   33.8670   50.0380 C   0  0  0  0  0  0  0  0  0  0  0  0
   59.4610   33.7190   50.9880 C   0  0  0  0  0  0  0  0  0  0  0  0
   58.6900   32.5530   51.0140 C   0  0  0  0  0  0  0  0  0  0  0  0
   58.9380   31.5300   50.0930 C   0  0  0  0  0  0  0  0  0  0  0  0
   59.9540   31.6750   49.1430 C   0  0  0  0  0  0  0  0  0  0  0  0
   63.3717   32.0308   50.2138 H   0  0  0  0  0  0  0  0  0  0  0  0
   63.2835   30.5946   49.1386 H   0  0  0  0  0  0  0  0  0  0  0  0
   64.7530   31.6276   49.1386 H   0  0  0  0  0  0  0  0  0  0  0  0
   64.7180   32.7160   46.8110 H   0  0  0  0  0  0  0  0  0  0  0  0
   60.2445   35.1937   47.3519 H   0  0  0  0  0  0  0  0  0  0  0  0
   60.9910   35.2431   45.7058 H   0  0  0  0  0  0  0  0  0  0  0  0
   60.4784   31.8603   46.4281 H   0  0  0  0  0  0  0  0  0  0  0  0
   58.6216   30.4638   45.5165 H   0  0  0  0  0  0  0  0  0  0  0  0
   56.6081   31.5528   44.5209 H   0  0  0  0  0  0  0  0  0  0  0  0
   56.4511   34.0415   44.4320 H   0  0  0  0  0  0  0  0  0  0  0  0
   58.3016   35.4476   45.3372 H   0  0  0  0  0  0  0  0  0  0  0  0
   61.0872   34.7821   50.0247 H   0  0  0  0  0  0  0  0  0  0  0  0
   59.2684   34.5211   51.7156 H   0  0  0  0  0  0  0  0  0  0  0  0
   57.8884   32.4402   51.7588 H   0  0  0  0  0  0  0  0  0  0  0  0
   58.3337   30.6111   50.1159 H   0  0  0  0  0  0  0  0  0  0  0  0
   60.1538   30.8652   48.4258 H   0  0  0  0  0  0  0  0  0  0  0  0
  1  2  1  0
  2  3  1  0
  3  4  2  0
  4  5  1  0
  5  6  1  0
  6  7  1  0
  7  8  2  0
  8  9  1  0
  9 10  2  0
 10 11  1  0
 11 12  2  0
  5 13  1  0
 13 14  1  0
 14 15  2  0
 15 16  1  0
 16 17  2  0
 17 18  1  0
 18 19  2  0
 13  2  2  0
 19 14  1  0
 12  7  1  0
  1 20  1  0
  1 21  1  0
  1 22  1  0
  3 23  1  0
  6 24  1  0
  6 25  1  0
  8 26  1  0
  9 27  1  0
 10 28  1  0
 11 29  1  0
 12 30  1  0
 15 31  1  0
 16 32  1  0
 17 33  1  0
 18 34  1  0
 19 35  1  0
M  CHG  1   3   1
M  END
>  <UniqueID>  (60) 
51

>  <SMILES>  (60) 
Cc1[nH+]nn(Cc2ccccc2)c1-c1ccccc1

>  <Energy>  (60) 
76.90800135226252

>  <Genealogy>  (60) 
Cc1[nH+]nn(Cc2ccccc2)c1-c1ccccc1 (protonated)
Cc1[nH+]nn(Cc2ccccc2)c1-c1ccccc1 (3D coordinates assigned)
Cc1[nH+]nn(Cc2ccccc2)c1-c1ccccc1 (optimized conformer: 76.90800135226252 kcal/mol)

>  <smiles>  (60) 
Cc1nnn(Cc2ccccc2)c1-c1ccccc1

>  <score_type>  (60) 
oracle

>  <origin>  (60) 
adg

>  <m_score__min__energy>  (60) 
-5.7699999999999996

>  <m_primary>  (60) 
energy

$$$$
60:0
     RDKit          3D

 43 45  0  0  0  0  0  0  0  0999 V2000
   55.1570   29.2540   44.8460 O   0  0  0  0  0  0  0  0  0  0  0  0
   56.3600   29.5290   45.0340 N   0  0  0  0  0  0  0  0  0  0  0  0
   57.0850   28.7640   45.9190 O   0  0  0  0  0  0  0  0  0  0  0  0
   56.9810   30.6260   44.3380 C   0  0  0  0  0  0  0  0  0  0  0  0
   56.8680   30.7370   42.9420 C   0  0  0  0  0  0  0  0  0  0  0  0
   57.4630   31.8050   42.2650 C   0  0  0  0  0  0  0  0  0  0  0  0
   58.1810   32.7720   42.9720 C   0  0  0  0  0  0  0  0  0  0  0  0
   58.3180   32.6720   44.3640 C   0  0  0  0  0  0  0  0  0  0  0  0
   59.0590   33.7320   45.1260 C   0  0  0  0  0  0  0  0  0  0  0  0
   58.5110   33.7560   46.8220 S   0  0  0  0  0  0  0  0  0  0  0  0
   56.8560   33.4650   46.9040 O   0  0  0  0  0  0  0  0  0  0  0  0
   59.4520   32.5860   47.8070 C   0  0  0  0  0  0  0  0  0  0  0  0
   59.1160   32.7280   49.2770 C   0  0  0  0  0  0  0  0  0  0  0  0
   59.6730   33.7560   50.0630 C   0  0  0  0  0  0  0  0  0  0  0  0
   59.3260   33.8850   51.4110 C   0  0  0  0  0  0  0  0  0  0  0  0
   58.4150   32.9970   51.9880 C   0  0  0  0  0  0  0  0  0  0  0  0
   57.8460   31.9820   51.2170 C   0  0  0  0  0  0  0  0  0  0  0  0
   58.1900   31.8490   49.8680 C   0  0  0  0  0  0  0  0  0  0  0  0
   60.9480   32.6480   47.5510 C   0  0  0  0  0  0  0  0  0  0  0  0
   61.5000   33.8300   47.0260 C   0  0  0  0  0  0  0  0  0  0  0  0
   62.8670   33.9150   46.7440 C   0  0  0  0  0  0  0  0  0  0  0  0
   63.6990   32.8170   46.9720 C   0  0  0  0  0  0  0  0  0  0  0  0
   63.1630   31.6300   47.4760 C   0  0  0  0  0  0  0  0  0  0  0  0
   61.7970   31.5390   47.7590 C   0  0  0  0  0  0  0  0  0  0  0  0
   57.7080   31.6050   45.0430 C   0  0  0  0  0  0  0  0  0  0  0  0
   56.3070   29.9775   42.3777 H   0  0  0  0  0  0  0  0  0  0  0  0
   57.3655   31.8842   41.1722 H   0  0  0  0  0  0  0  0  0  0  0  0
   58.6406   33.6149   42.4351 H   0  0  0  0  0  0  0  0  0  0  0  0
   60.1374   33.5173   45.0943 H   0  0  0  0  0  0  0  0  0  0  0  0
   58.8611   34.7122   44.6678 H   0  0  0  0  0  0  0  0  0  0  0  0
   56.4990   34.1710   47.4980 H   0  0  0  0  0  0  0  0  0  0  0  0
   59.1463   31.5803   47.4827 H   0  0  0  0  0  0  0  0  0  0  0  0
   60.3861   34.4622   49.6127 H   0  0  0  0  0  0  0  0  0  0  0  0
   59.7710   34.6870   52.0183 H   0  0  0  0  0  0  0  0  0  0  0  0
   58.1461   33.0976   53.0499 H   0  0  0  0  0  0  0  0  0  0  0  0
   57.1258   31.2856   51.6712 H   0  0  0  0  0  0  0  0  0  0  0  0
   57.7331   31.0510   49.2644 H   0  0  0  0  0  0  0  0  0  0  0  0
   60.8499   34.6966   46.8352 H   0  0  0  0  0  0  0  0  0  0  0  0
   63.2876   34.8485   46.3419 H   0  0  0  0  0  0  0  0  0  0  0  0
   64.7751   32.8869   46.7549 H   0  0  0  0  0  0  0  0  0  0  0  0
   63.8179   30.7637   47.6509 H   0  0  0  0  0  0  0  0  0  0  0  0
   61.3808   30.5973   48.1463 H   0  0  0  0  0  0  0  0  0  0  0  0
   57.7988   31.5329   46.1369 H   0  0  0  0  0  0  0  0  0  0  0  0
  1  2  2  0
  2  3  1  0
  2  4  1  0
  4  5  2  0
  5  6  1  0
  6  7  2  0
  7  8  1  0
  8  9  1  0
  9 10  1  0
 10 11  1  6
 10 12  1  0
 12 13  1  0
 13 14  2  0
 14 15  1  0
 15 16  2  0
 16 17  1  0
 17 18  2  0
 12 19  1  0
 19 20  2  0
 20 21  1  0
 21 22  2  0
 22 23  1  0
 23 24  2  0
  8 25  2  0
 25  4  1  0
 18 13  1  0
 24 19  1  0
  5 26  1  0
  6 27  1  0
  7 28  1  0
  9 29  1  0
  9 30  1  0
 11 31  1  0
 12 32  1  0
 14 33  1  0
 15 34  1  0
 16 35  1  0
 17 36  1  0
 18 37  1  0
 20 38  1  0
 21 39  1  0
 22 40  1  0
 23 41  1  0
 24 42  1  0
 25 43  1  0
M  CHG  3   2   1   3  -1  10   1
M  END
>  <UniqueID>  (61) 
52

>  <SMILES>  (61) 
O=[N+]([O-])c1cccc(C[S@@+](O)C(c2ccccc2)c2ccccc2)c1

>  <Energy>  (61) 
42.48295090996329

>  <Genealogy>  (61) 
O=[N+]([O-])c1cccc(C[S+](O)C(c2ccccc2)c2ccccc2)c1 (protonated)
O=[N+]([O-])c1cccc(C[S@@+](O)C(c2ccccc2)c2ccccc2)c1 (chirality)
O=[N+]([O-])c1cccc(C[S@@+](O)C(c2ccccc2)c2ccccc2)c1 (3D coordinates assigned)
O=[N+]([O-])c1cccc(C[S@@+](O)C(c2ccccc2)c2ccccc2)c1 (optimized conformer: 42.48295090996329 kcal/mol)

>  <smiles>  (61) 
O=[N+]([O-])c1cccc(C[S+]([O-])C(c2ccccc2)c2ccccc2)c1

>  <score_type>  (61) 
oracle

>  <origin>  (61) 
adg

>  <m_score__min__energy>  (61) 
-8.1699999999999999

>  <m_primary>  (61) 
energy

$$$$
61:0
     RDKit          3D

 23 24  0  0  0  0  0  0  0  0999 V2000
   57.7240   32.3250   43.9920 C   0  0  0  0  0  0  0  0  0  0  0  0
   56.9650   31.2590   44.5540 O   0  0  0  0  0  0  0  0  0  0  0  0
   57.5070   30.0370   44.9800 C   0  0  0  0  0  0  0  0  0  0  0  0
   58.8960   29.9250   45.0700 C   0  0  0  0  0  0  0  0  0  0  0  0
   59.4920   28.7340   45.4880 C   0  0  0  0  0  0  0  0  0  0  0  0
   58.6990   27.6240   45.8250 C   0  0  0  0  0  0  0  0  0  0  0  0
   57.2890   27.7220   45.7400 C   0  0  0  0  0  0  0  0  0  0  0  0
   56.7040   28.9310   45.3170 C   0  0  0  0  0  0  0  0  0  0  0  0
   56.5200   26.6390   46.0700 N   0  0  0  0  0  0  0  0  0  0  0  0
   55.1440   26.7150   45.9930 O   0  0  0  0  0  0  0  0  0  0  0  0
   57.1000   25.4730   46.4790 C   0  0  0  0  0  0  0  0  0  0  0  0
   56.2930   24.3290   46.8280 C   0  0  0  0  0  0  0  0  0  0  0  0
   55.6460   23.4130   47.1070 N   0  0  0  0  0  0  0  0  0  0  0  0
   58.4920   25.3810   46.5620 C   0  0  0  0  0  0  0  0  0  0  0  0
   59.2660   26.4500   46.2370 N   0  0  0  0  0  0  0  0  0  0  0  0
   60.6340   26.3240   46.3300 O   0  0  0  0  0  0  0  0  0  0  0  0
   58.1568   32.9328   44.8002 H   0  0  0  0  0  0  0  0  0  0  0  0
   58.5324   31.9118   43.3708 H   0  0  0  0  0  0  0  0  0  0  0  0
   57.0691   32.9537   43.3708 H   0  0  0  0  0  0  0  0  0  0  0  0
   59.5284   30.7861   44.8082 H   0  0  0  0  0  0  0  0  0  0  0  0
   60.5878   28.6640   45.5539 H   0  0  0  0  0  0  0  0  0  0  0  0
   55.6091   29.0120   45.2493 H   0  0  0  0  0  0  0  0  0  0  0  0
   58.9619   24.4423   46.8908 H   0  0  0  0  0  0  0  0  0  0  0  0
  1  2  1  0
  2  3  1  0
  3  4  2  0
  4  5  1  0
  5  6  2  0
  6  7  1  0
  7  8  2  0
  7  9  1  0
  9 10  1  0
  9 11  2  0
 11 12  1  0
 12 13  3  0
 11 14  1  0
 14 15  2  0
 15 16  1  0
  8  3  1  0
 15  6  1  0
  1 17  1  0
  1 18  1  0
  1 19  1  0
  4 20  1  0
  5 21  1  0
  8 22  1  0
 14 23  1  0
M  CHG  4   9   1  10  -1  15   1  16  -1
M  END
>  <UniqueID>  (62) 
53

>  <SMILES>  (62) 
COc1ccc2c(c1)[n+]([O-])c(C#N)c[n+]2[O-]

>  <Energy>  (62) 
29.26717610175123

>  <Genealogy>  (62) 
COc1ccc2c(c1)[n+]([O-])c(C#N)c[n+]2[O-] (3D coordinates assigned)
COc1ccc2c(c1)[n+]([O-])c(C#N)c[n+]2[O-] (optimized conformer: 29.26717610175123 kcal/mol)

>  <smiles>  (62) 
COc1ccc2c(c1)[n+]([O-])c(C#N)c[n+]2[O-]

>  <score_type>  (62) 
oracle

>  <origin>  (62) 
adg

>  <m_score__min__energy>  (62) 
-5.6699999999999999

>  <m_primary>  (62) 
energy

$$$$
62:0
     RDKit          3D

 36 38  0  0  0  0  0  0  0  0999 V2000
   56.2649   31.7716   42.9254 H   0  0  0  0  0  0  0  0  0  0  0  0
   56.6960   31.1040   43.6860 C   0  0  0  0  0  0  0  0  0  0  0  0
   57.8750   31.4640   44.3430 C   0  0  0  0  0  0  0  0  0  0  0  0
   58.3710   32.4145   44.0969 H   0  0  0  0  0  0  0  0  0  0  0  0
   58.4270   30.6210   45.3120 C   0  0  0  0  0  0  0  0  0  0  0  0
   59.3549   30.9126   45.8258 H   0  0  0  0  0  0  0  0  0  0  0  0
   57.8010   29.3980   45.6350 C   0  0  0  0  0  0  0  0  0  0  0  0
   58.3230   28.5220   46.6170 C   0  0  0  0  0  0  0  0  0  0  0  0
   59.4280   28.8440   47.2380 N   0  0  0  0  0  0  0  0  0  0  0  0
   59.6050   29.3060   48.5860 C   0  0  0  0  0  0  0  0  0  0  0  0
   58.5780   29.2850   49.4780 N   0  0  0  0  0  0  0  0  0  0  0  0
   58.7240   29.7820   50.7330 C   0  0  0  0  0  0  0  0  0  0  0  0
   57.7580   29.7340   51.5400 O   0  0  0  0  0  0  0  0  0  0  0  0
   59.9090   30.3330   51.1150 N   0  0  0  0  0  0  0  0  0  0  0  0
   60.0140   30.7140   52.0830 H   0  0  0  0  0  0  0  0  0  0  0  0
   60.9520   30.4020   50.2450 C   0  0  0  0  0  0  0  0  0  0  0  0
   62.0400   30.9260   50.6040 O   0  0  0  0  0  0  0  0  0  0  0  0
   60.8160   29.8960   48.9510 C   0  0  0  0  0  0  0  0  0  0  0  0
   61.6470   29.9610   48.2332 H   0  0  0  0  0  0  0  0  0  0  0  0
   57.6470   27.3070   46.8610 C   0  0  0  0  0  0  0  0  0  0  0  0
   58.0460   26.5975   47.6008 H   0  0  0  0  0  0  0  0  0  0  0  0
   56.4750   27.0020   46.1680 C   0  0  0  0  0  0  0  0  0  0  0  0
   55.8190   25.7910   46.4310 O   0  0  0  0  0  0  0  0  0  0  0  0
   54.7860   25.3010   45.6470 N   0  0  0  0  0  0  0  0  0  0  0  0
   54.7230   25.8690   44.7700 H   0  0  0  0  0  0  0  0  0  0  0  0
   55.0500   23.9010   45.3060 C   0  0  0  0  0  0  0  0  0  0  0  0
   55.9246   23.5491   45.8729 H   0  0  0  0  0  0  0  0  0  0  0  0
   55.2439   23.8286   44.2257 H   0  0  0  0  0  0  0  0  0  0  0  0
   53.8460   23.0310   45.6500 C   0  0  0  0  0  0  0  0  0  0  0  0
   53.7461   22.9588   46.7431 H   0  0  0  0  0  0  0  0  0  0  0  0
   52.9356   23.4812   45.2276 H   0  0  0  0  0  0  0  0  0  0  0  0
   53.9877   22.0253   45.2276 H   0  0  0  0  0  0  0  0  0  0  0  0
   55.9850   27.8720   45.2470 N   0  0  0  0  0  0  0  0  0  0  0  0
   56.6070   29.0440   44.9610 C   0  0  0  0  0  0  0  0  0  0  0  0
   56.0640   29.8970   43.9940 C   0  0  0  0  0  0  0  0  0  0  0  0
   55.1360   29.6161   43.4744 H   0  0  0  0  0  0  0  0  0  0  0  0
  1  2  1  0
  2  3  2  0
  3  4  1  0
  3  5  1  0
  5  6  1  0
  5  7  2  0
  7  8  1  0
  8  9  2  0
  9 10  1  0
 10 11  1  0
 11 12  1  0
 12 13  2  0
 12 14  1  0
 14 15  1  0
 14 16  1  0
 16 17  2  0
 16 18  1  0
 18 19  1  0
  8 20  1  0
 20 21  1  0
 20 22  2  0
 22 23  1  0
 23 24  1  0
 24 25  1  0
 24 26  1  0
 26 27  1  0
 26 28  1  0
 26 29  1  0
 29 30  1  0
 29 31  1  0
 29 32  1  0
 22 33  1  0
 33 34  1  0
 34 35  2  0
 35 36  1  0
 35  2  1  0
 34  7  1  0
 18 10  2  0
M  CHG  2  11  -1  33  -1
M  END
>  <UniqueID>  (63) 
54

>  <SMILES>  (63) 
CCNOc1c/c(=N\c2cc(=O)[nH]c(=O)[n-]2)c2ccccc2[n-]1

>  <Energy>  (63) 
49.37013606741003

>  <Genealogy>  (63) 
CCNOc1cc(=Nc2cc(=O)[nH]c(=O)[n-]2)c2ccccc2[n-]1 (protonated)
CCNOc1c/c(=N\c2cc(=O)[nH]c(=O)[n-]2)c2ccccc2[n-]1 (cis-trans isomerization)
CCNOc1c/c(=N\c2cc(=O)[nH]c(=O)[n-]2)c2ccccc2[n-]1 (3D coordinates assigned)
CCNOc1c/c(=N\c2cc(=O)[nH]c(=O)[n-]2)c2ccccc2[n-]1 (optimized conformer: 49.37013606741003 kcal/mol)

>  <smiles>  (63) 
CCNOc1cc(=Nc2cc(=O)[nH]c(=O)[nH]2)c2ccccc2[nH]1

>  <score_type>  (63) 
oracle

>  <origin>  (63) 
adg

>  <m_score__min__energy>  (63) 
-10.26

>  <m_primary>  (63) 
energy

$$$$
63:0
     RDKit          3D

 33 34  0  0  0  0  0  0  0  0999 V2000
   61.0525   29.5242   49.6992 H   0  0  0  0  0  0  0  0  0  0  0  0
   60.7460   29.3340   48.6600 C   0  0  0  0  0  0  0  0  0  0  0  0
   61.0690   30.2520   47.6570 C   0  0  0  0  0  0  0  0  0  0  0  0
   61.6229   31.1684   47.9087 H   0  0  0  0  0  0  0  0  0  0  0  0
   60.6890   30.0070   46.3340 C   0  0  0  0  0  0  0  0  0  0  0  0
   60.9361   30.7371   45.5492 H   0  0  0  0  0  0  0  0  0  0  0  0
   59.9920   28.8310   46.0020 C   0  0  0  0  0  0  0  0  0  0  0  0
   59.5630   28.5700   44.6540 N   0  0  0  0  0  0  0  0  0  0  0  0
   60.2620   28.6840   43.8860 H   0  0  0  0  0  0  0  0  0  0  0  0
   58.2450   28.1270   44.2900 C   0  0  0  0  0  0  0  0  0  0  0  0
   58.1130   27.2260   43.1820 N   0  0  0  0  0  0  0  0  0  0  0  0
   57.2250   26.7180   42.9780 H   0  0  0  0  0  0  0  0  0  0  0  0
   58.9540   26.9740   42.6180 H   0  0  0  0  0  0  0  0  0  0  0  0
   57.1980   28.5680   44.9420 N   0  0  0  0  0  0  0  0  0  0  0  0
   56.9860   28.1900   45.8920 H   0  0  0  0  0  0  0  0  0  0  0  0
   56.2930   29.5700   44.4520 C   0  0  0  0  0  0  0  0  0  0  0  0
   55.0550   29.3510   44.4930 O   0  0  0  0  0  0  0  0  0  0  0  0
   56.7600   30.8240   43.9360 N   0  0  0  0  0  0  0  0  0  0  0  0
   57.4420   31.8440   44.6800 C   0  0  0  0  0  0  0  0  0  0  0  0
   57.8030   33.0720   44.0960 C   0  0  0  0  0  0  0  0  0  0  0  0
   57.5563   33.2712   43.0427 H   0  0  0  0  0  0  0  0  0  0  0  0
   58.4740   34.0400   44.8490 C   0  0  0  0  0  0  0  0  0  0  0  0
   58.7426   35.0036   44.3914 H   0  0  0  0  0  0  0  0  0  0  0  0
   58.8040   33.7840   46.1840 C   0  0  0  0  0  0  0  0  0  0  0  0
   59.6480   34.9990   47.1270 Cl  0  0  0  0  0  0  0  0  0  0  0  0
   58.4700   32.5560   46.7630 C   0  0  0  0  0  0  0  0  0  0  0  0
   58.7356   32.3517   47.8107 H   0  0  0  0  0  0  0  0  0  0  0  0
   57.7980   31.5870   46.0100 C   0  0  0  0  0  0  0  0  0  0  0  0
   57.5477   30.6174   46.4653 H   0  0  0  0  0  0  0  0  0  0  0  0
   59.6510   27.9270   47.0210 C   0  0  0  0  0  0  0  0  0  0  0  0
   59.0796   27.0190   46.7781 H   0  0  0  0  0  0  0  0  0  0  0  0
   60.0340   28.1750   48.3430 C   0  0  0  0  0  0  0  0  0  0  0  0
   59.7741   27.4563   49.1342 H   0  0  0  0  0  0  0  0  0  0  0  0
  1  2  1  0
  2  3  2  0
  3  4  1  0
  3  5  1  0
  5  6  1  0
  5  7  2  0
  7  8  1  0
  8  9  1  0
  8 10  1  0
 10 11  1  0
 11 12  1  0
 11 13  1  0
 10 14  2  0
 14 15  1  0
 14 16  1  0
 16 17  2  0
 16 18  1  0
 18 19  1  0
 19 20  2  0
 20 21  1  0
 20 22  1  0
 22 23  1  0
 22 24  2  0
 24 25  1  0
 24 26  1  0
 26 27  1  0
 26 28  2  0
 28 29  1  0
  7 30  1  0
 30 31  1  0
 30 32  2  0
 32 33  1  0
 32  2  1  0
 28 19  1  0
M  CHG  2  14   1  18  -1
M  END
>  <UniqueID>  (64) 
55

>  <SMILES>  (64) 
N/C(Nc1ccccc1)=[NH+]\C(=O)[N-]c1ccc(Cl)cc1

>  <Energy>  (64) 
47.07614246838225

>  <Genealogy>  (64) 
NC(Nc1ccccc1)=[NH+]C(=O)[N-]c1ccc(Cl)cc1 (protonated)
N/C(Nc1ccccc1)=[NH+]\C(=O)[N-]c1ccc(Cl)cc1 (cis-trans isomerization)
N/C(Nc1ccccc1)=[NH+]\C(=O)[N-]c1ccc(Cl)cc1 (3D coordinates assigned)
N/C(Nc1ccccc1)=[NH+]\C(=O)[N-]c1ccc(Cl)cc1 (optimized conformer: 47.07614246838225 kcal/mol)

>  <smiles>  (64) 
NC(=NC(=O)Nc1ccc(Cl)cc1)Nc1ccccc1

>  <score_type>  (64) 
oracle

>  <origin>  (64) 
adg

>  <m_score__min__energy>  (64) 
-7.0999999999999996

>  <m_primary>  (64) 
energy

$$$$
64:0
     RDKit          3D

 43 45  0  0  0  0  0  0  0  0999 V2000
   61.2408   35.5728   46.8894 H   0  0  0  0  0  0  0  0  0  0  0  0
   60.7840   34.5900   46.7010 C   0  0  0  0  0  0  0  0  0  0  0  0
   61.4880   33.4210   47.0070 C   0  0  0  0  0  0  0  0  0  0  0  0
   62.8420   33.5020   47.4900 C   0  0  0  0  0  0  0  0  0  0  0  0
   63.9300   33.5660   47.8780 N   0  0  0  0  0  0  0  0  0  0  0  0
   60.8820   32.1710   46.8230 C   0  0  0  0  0  0  0  0  0  0  0  0
   61.4560   31.2540   47.0218 H   0  0  0  0  0  0  0  0  0  0  0  0
   59.5420   32.0750   46.3850 C   0  0  0  0  0  0  0  0  0  0  0  0
   58.9000   33.2630   45.9540 C   0  0  0  0  0  0  0  0  0  0  0  0
   57.7320   33.1980   45.2710 N   0  0  0  0  0  0  0  0  0  0  0  0
   57.1610   32.0170   44.9350 C   0  0  0  0  0  0  0  0  0  0  0  0
   56.2420   32.0076   44.3305 H   0  0  0  0  0  0  0  0  0  0  0  0
   57.7340   30.8020   45.3530 C   0  0  0  0  0  0  0  0  0  0  0  0
   57.2210   29.5610   44.9200 C   0  0  0  0  0  0  0  0  0  0  0  0
   56.2110   29.5270   44.0920 N   0  0  0  0  0  0  0  0  0  0  0  0
   56.2710   29.6950   42.6420 C   0  0  0  0  0  0  0  0  0  0  0  0
   56.6323   30.7065   42.4047 H   0  0  0  0  0  0  0  0  0  0  0  0
   56.9588   28.9504   42.2148 H   0  0  0  0  0  0  0  0  0  0  0  0
   55.2671   29.5546   42.2148 H   0  0  0  0  0  0  0  0  0  0  0  0
   57.8410   28.3870   45.3720 C   0  0  0  0  0  0  0  0  0  0  0  0
   57.5392   27.4117   44.9624 H   0  0  0  0  0  0  0  0  0  0  0  0
   58.8380   28.4580   46.3390 C   0  0  0  0  0  0  0  0  0  0  0  0
   59.3153   27.5321   46.6923 H   0  0  0  0  0  0  0  0  0  0  0  0
   59.2350   29.6590   46.8580 N   0  0  0  0  0  0  0  0  0  0  0  0
   59.8850   29.6360   48.1920 C   0  0  0  0  0  0  0  0  0  0  0  0
   60.8005   30.2446   48.1530 H   0  0  0  0  0  0  0  0  0  0  0  0
   60.1170   28.5903   48.4423 H   0  0  0  0  0  0  0  0  0  0  0  0
   58.9580   30.1980   49.2880 C   0  0  0  0  0  0  0  0  0  0  0  0
   58.7363   29.4016   50.0137 H   0  0  0  0  0  0  0  0  0  0  0  0
   58.0336   30.5572   48.8122 H   0  0  0  0  0  0  0  0  0  0  0  0
   59.6160   31.3740   50.0210 C   0  0  0  0  0  0  0  0  0  0  0  0
   60.6703   31.4437   49.7150 H   0  0  0  0  0  0  0  0  0  0  0  0
   59.5391   31.1982   51.1041 H   0  0  0  0  0  0  0  0  0  0  0  0
   58.9100   32.6940   49.6900 C   0  0  0  0  0  0  0  0  0  0  0  0
   58.0041   32.7813   50.3078 H   0  0  0  0  0  0  0  0  0  0  0  0
   58.6512   32.6924   48.6209 H   0  0  0  0  0  0  0  0  0  0  0  0
   59.8180   33.8890   49.9660 C   0  0  0  0  0  0  0  0  0  0  0  0
   59.9227   34.0268   51.0523 H   0  0  0  0  0  0  0  0  0  0  0  0
   60.8080   33.7074   49.5223 H   0  0  0  0  0  0  0  0  0  0  0  0
   59.3778   34.7942   49.5223 H   0  0  0  0  0  0  0  0  0  0  0  0
   58.8570   30.8310   46.2240 C   0  0  0  0  0  0  0  0  0  0  0  0
   59.5030   34.5090   46.1570 C   0  0  0  0  0  0  0  0  0  0  0  0
   58.9639   35.4288   45.8862 H   0  0  0  0  0  0  0  0  0  0  0  0
  1  2  1  0
  2  3  2  0
  3  4  1  0
  4  5  3  0
  3  6  1  0
  6  7  1  0
  6  8  2  0
  8  9  1  0
  9 10  1  0
 10 11  2  0
 11 12  1  0
 11 13  1  0
 13 14  1  0
 14 15  2  0
 15 16  1  0
 16 17  1  0
 16 18  1  0
 16 19  1  0
 14 20  1  0
 20 21  1  0
 20 22  2  0
 22 23  1  0
 22 24  1  0
 24 25  1  0
 25 26  1  0
 25 27  1  0
 25 28  1  0
 28 29  1  0
 28 30  1  0
 28 31  1  0
 31 32  1  0
 31 33  1  0
 31 34  1  0
 34 35  1  0
 34 36  1  0
 34 37  1  0
 37 38  1  0
 37 39  1  0
 37 40  1  0
 24 41  1  0
  9 42  2  0
 42 43  1  0
 42  2  1  0
 41  8  1  0
 41 13  2  0
M  END
>  <UniqueID>  (65) 
56

>  <SMILES>  (65) 
CCCCCn1cc/c(=N\C)c2cnc3ccc(C#N)cc3c21

>  <Energy>  (65) 
67.83823666229951

>  <Genealogy>  (65) 
CCCCCn1cc/c(=N\C)c2cnc3ccc(C#N)cc3c21 (cis-trans isomerization)
CCCCCn1cc/c(=N\C)c2cnc3ccc(C#N)cc3c21 (3D coordinates assigned)
CCCCCn1cc/c(=N\C)c2cnc3ccc(C#N)cc3c21 (optimized conformer: 67.83823666229951 kcal/mol)

>  <smiles>  (65) 
CCCCCn1ccc(=NC)c2cnc3ccc(C#N)cc3c21

>  <score_type>  (65) 
oracle

>  <origin>  (65) 
adg

>  <m_score__min__energy>  (65) 
-6.7999999999999998

>  <m_primary>  (65) 
energy

$$$$
65:0
     RDKit          3D

 50 53  0  0  0  0  0  0  0  0999 V2000
   53.3730   22.9640   46.2460 C   0  0  0  0  0  0  0  0  0  0  0  0
   53.3340   24.1090   45.2400 C   0  0  0  0  0  0  0  0  0  0  0  0
   54.1350   25.2040   45.6880 O   0  0  0  0  0  0  0  0  0  0  0  0
   55.5360   25.2700   45.6280 C   0  0  0  0  0  0  0  0  0  0  0  0
   56.2210   24.2100   45.0200 C   0  0  0  0  0  0  0  0  0  0  0  0
   57.6150   24.2190   44.9360 C   0  0  0  0  0  0  0  0  0  0  0  0
   58.3410   25.2940   45.4530 C   0  0  0  0  0  0  0  0  0  0  0  0
   57.6710   26.3720   46.0460 C   0  0  0  0  0  0  0  0  0  0  0  0
   58.4340   27.5080   46.5980 C   0  0  0  0  0  0  0  0  0  0  0  0
   59.0390   27.3310   47.7990 N   0  0  0  0  0  0  0  0  0  0  0  0
   59.7880   28.3020   48.3700 C   0  0  0  0  0  0  0  0  0  0  0  0
   60.4020   28.0770   49.6070 C   0  0  0  0  0  0  0  0  0  0  0  0
   61.1890   29.0740   50.1900 C   0  0  0  0  0  0  0  0  0  0  0  0
   61.3640   30.2980   49.5380 C   0  0  0  0  0  0  0  0  0  0  0  0
   60.7520   30.5310   48.3030 C   0  0  0  0  0  0  0  0  0  0  0  0
   59.9560   29.5320   47.7100 C   0  0  0  0  0  0  0  0  0  0  0  0
   59.3170   29.7150   46.4710 C   0  0  0  0  0  0  0  0  0  0  0  0
   59.4620   30.8060   45.8520 O   0  0  0  0  0  0  0  0  0  0  0  0
   58.5460   28.7100   45.9320 N   0  0  0  0  0  0  0  0  0  0  0  0
   57.8950   28.9170   44.6190 C   0  0  0  0  0  0  0  0  0  0  0  0
   56.5980   29.6530   44.7740 C   0  0  0  0  0  0  0  0  0  0  0  0
   55.5200   29.0070   44.8630 O   0  0  0  0  0  0  0  0  0  0  0  0
   56.5910   31.0810   44.8440 N   0  0  0  0  0  0  0  0  0  0  0  0
   57.4020   31.9380   43.9890 C   0  0  0  0  0  0  0  0  0  0  0  0
   57.9880   33.1470   44.7430 C   0  0  0  0  0  0  0  0  0  0  0  0
   57.0140   34.1900   45.2770 C   0  0  0  0  0  0  0  0  0  0  0  0
   57.6990   33.2260   46.2370 C   0  0  0  0  0  0  0  0  0  0  0  0
   56.2720   26.3570   46.1420 C   0  0  0  0  0  0  0  0  0  0  0  0
   53.3591   23.3725   47.2672 H   0  0  0  0  0  0  0  0  0  0  0  0
   52.4964   22.3161   46.0983 H   0  0  0  0  0  0  0  0  0  0  0  0
   54.2917   22.3773   46.0983 H   0  0  0  0  0  0  0  0  0  0  0  0
   53.7182   23.7528   44.2728 H   0  0  0  0  0  0  0  0  0  0  0  0
   52.2940   24.4518   45.1354 H   0  0  0  0  0  0  0  0  0  0  0  0
   55.6556   23.3627   44.6049 H   0  0  0  0  0  0  0  0  0  0  0  0
   58.1420   23.3779   44.4618 H   0  0  0  0  0  0  0  0  0  0  0  0
   59.4394   25.2944   45.3946 H   0  0  0  0  0  0  0  0  0  0  0  0
   60.2651   27.1143   50.1212 H   0  0  0  0  0  0  0  0  0  0  0  0
   61.6710   28.8954   51.1625 H   0  0  0  0  0  0  0  0  0  0  0  0
   61.9853   31.0804   49.9982 H   0  0  0  0  0  0  0  0  0  0  0  0
   60.8923   31.4959   47.7937 H   0  0  0  0  0  0  0  0  0  0  0  0
   58.5659   29.5021   43.9728 H   0  0  0  0  0  0  0  0  0  0  0  0
   57.6894   27.9340   44.1703 H   0  0  0  0  0  0  0  0  0  0  0  0
   58.2316   31.3428   43.5796 H   0  0  0  0  0  0  0  0  0  0  0  0
   56.7492   32.3271   43.1937 H   0  0  0  0  0  0  0  0  0  0  0  0
   58.8904   33.1831   44.1150 H   0  0  0  0  0  0  0  0  0  0  0  0
   57.2921   35.2543   45.2747 H   0  0  0  0  0  0  0  0  0  0  0  0
   55.9703   34.4622   45.0610 H   0  0  0  0  0  0  0  0  0  0  0  0
   58.4717   33.5941   46.9279 H   0  0  0  0  0  0  0  0  0  0  0  0
   57.3549   32.5137   47.0013 H   0  0  0  0  0  0  0  0  0  0  0  0
   55.7468   27.1968   46.6203 H   0  0  0  0  0  0  0  0  0  0  0  0
  1  2  1  0
  2  3  1  0
  3  4  1  0
  4  5  2  0
  5  6  1  0
  6  7  2  0
  7  8  1  0
  8  9  1  0
  9 10  2  0
 10 11  1  0
 11 12  2  0
 12 13  1  0
 13 14  2  0
 14 15  1  0
 15 16  2  0
 16 17  1  0
 17 18  2  0
 17 19  1  0
 19 20  1  0
 20 21  1  0
 21 22  2  0
 21 23  1  0
 23 24  1  0
 24 25  1  0
 25 26  1  0
 26 27  1  0
  8 28  2  0
 28  4  1  0
 19  9  1  0
 27 25  1  0
 16 11  1  0
  1 29  1  0
  1 30  1  0
  1 31  1  0
  2 32  1  0
  2 33  1  0
  5 34  1  0
  6 35  1  0
  7 36  1  0
 12 37  1  0
 13 38  1  0
 14 39  1  0
 15 40  1  0
 20 41  1  0
 20 42  1  0
 24 43  1  0
 24 44  1  0
 25 45  1  0
 26 46  1  0
 26 47  1  0
 27 48  1  0
 27 49  1  0
 28 50  1  0
M  CHG  1  23  -1
M  END
>  <UniqueID>  (66) 
57

>  <SMILES>  (66) 
CCOc1cccc(-c2nc3ccccc3c(=O)n2CC(=O)[N-]CC2CC2)c1

>  <Energy>  (66) 
326.88280293153804

>  <Genealogy>  (66) 
CCOc1cccc(-c2nc3ccccc3c(=O)n2CC(=O)[N-]CC2CC2)c1 (protonated)
CCOc1cccc(-c2nc3ccccc3c(=O)n2CC(=O)[N-]CC2CC2)c1 (3D coordinates assigned)
CCOc1cccc(-c2nc3ccccc3c(=O)n2CC(=O)[N-]CC2CC2)c1 (nonaromatic ring conformer: 326.88280293153804 kcal/mol)

>  <smiles>  (66) 
CCOc1cccc(-c2nc3ccccc3c(=O)n2CC(=O)NCC2CC2)c1

>  <score_type>  (66) 
oracle

>  <origin>  (66) 
adg

>  <m_score__min__energy>  (66) 
-9.7400000000000002

>  <m_primary>  (66) 
energy

$$$$
66:0
     RDKit          3D

 34 35  0  0  0  0  0  0  0  0999 V2000
   57.4160   33.4610   46.6850 C   0  0  0  0  0  0  0  0  0  0  0  0
   57.5190   33.6950   45.2430 N   0  0  0  0  0  0  0  0  0  0  0  0
   58.4700   32.7690   44.6060 C   0  0  0  0  0  0  0  0  0  0  0  0
   57.8790   31.3910   44.4110 C   0  0  0  0  0  0  0  0  0  0  0  0
   56.8450   31.1870   43.4920 C   0  0  0  0  0  0  0  0  0  0  0  0
   56.3280   29.9060   43.3140 C   0  0  0  0  0  0  0  0  0  0  0  0
   56.8260   28.8580   44.0260 N   0  0  0  0  0  0  0  0  0  0  0  0
   57.8410   29.0140   44.9320 C   0  0  0  0  0  0  0  0  0  0  0  0
   58.3470   27.8730   45.6690 N   0  0  0  0  0  0  0  0  0  0  0  0
   59.6120   27.2170   45.3610 C   0  0  0  0  0  0  0  0  0  0  0  0
   59.7400   26.0610   46.3450 C   0  0  0  0  0  0  0  0  0  0  0  0
   58.7480   26.3590   47.4610 C   0  0  0  0  0  0  0  0  0  0  0  0
   57.7050   27.2900   46.8450 C   0  0  2  0  0  0  0  0  0  0  0  0
   56.4700   26.5280   46.4500 C   0  0  0  0  0  0  0  0  0  0  0  0
   56.2650   25.3660   46.8920 O   0  0  0  0  0  0  0  0  0  0  0  0
   55.5250   27.1230   45.6230 O   0  0  0  0  0  0  0  0  0  0  0  0
   58.3820   30.3000   45.1290 C   0  0  0  0  0  0  0  0  0  0  0  0
   57.8016   34.3370   47.2271 H   0  0  0  0  0  0  0  0  0  0  0  0
   56.3625   33.2969   46.9555 H   0  0  0  0  0  0  0  0  0  0  0  0
   58.0065   32.5733   46.9555 H   0  0  0  0  0  0  0  0  0  0  0  0
   56.5710   33.5760   44.8150 H   0  0  0  0  0  0  0  0  0  0  0  0
   58.7560   33.1743   43.6242 H   0  0  0  0  0  0  0  0  0  0  0  0
   59.3432   32.6722   45.2679 H   0  0  0  0  0  0  0  0  0  0  0  0
   56.4429   32.0320   42.9139 H   0  0  0  0  0  0  0  0  0  0  0  0
   55.5129   29.7402   42.5942 H   0  0  0  0  0  0  0  0  0  0  0  0
   56.4050   27.9190   43.8520 H   0  0  0  0  0  0  0  0  0  0  0  0
   59.6045   26.8396   44.3278 H   0  0  0  0  0  0  0  0  0  0  0  0
   60.4579   27.9146   45.4489 H   0  0  0  0  0  0  0  0  0  0  0  0
   59.4899   25.1093   45.8534 H   0  0  0  0  0  0  0  0  0  0  0  0
   60.7665   25.9658   46.7286 H   0  0  0  0  0  0  0  0  0  0  0  0
   58.2743   25.4303   47.8120 H   0  0  0  0  0  0  0  0  0  0  0  0
   59.2399   26.8177   48.3314 H   0  0  0  0  0  0  0  0  0  0  0  0
   57.3814   28.0612   47.5595 H   0  0  0  0  0  0  0  0  0  0  0  0
   59.2011   30.4468   45.8484 H   0  0  0  0  0  0  0  0  0  0  0  0
  1  2  1  0
  2  3  1  0
  3  4  1  0
  4  5  2  0
  5  6  1  0
  6  7  2  0
  7  8  1  0
  8  9  1  0
  9 10  1  0
 10 11  1  0
 11 12  1  0
 12 13  1  0
 13 14  1  0
 14 15  2  0
 14 16  1  0
  8 17  2  0
 17  4  1  0
 13  9  1  0
  1 18  1  0
  1 19  1  0
  1 20  1  0
  2 21  1  0
  3 22  1  0
  3 23  1  0
  5 24  1  0
  6 25  1  0
  7 26  1  0
 10 27  1  0
 10 28  1  0
 11 29  1  0
 11 30  1  0
 12 31  1  0
 12 32  1  0
 13 33  1  1
 17 34  1  0
M  CHG  2   7   1  16  -1
M  END
>  <UniqueID>  (67) 
58

>  <SMILES>  (67) 
CNCc1cc[nH+]c(N2CCC[C@@H]2C(=O)[O-])c1

>  <Energy>  (67) 
33.97756248088986

>  <Genealogy>  (67) 
CNCc1cc[nH+]c(N2CCCC2C(=O)[O-])c1 (protonated)
CNCc1cc[nH+]c(N2CCC[C@@H]2C(=O)[O-])c1 (chirality)
CNCc1cc[nH+]c(N2CCC[C@@H]2C(=O)[O-])c1 (3D coordinates assigned)
CNCc1cc[nH+]c(N2CCC[C@@H]2C(=O)[O-])c1 (nonaromatic ring conformer: 33.97756248088986 kcal/mol)

>  <smiles>  (67) 
CNCc1ccnc(N2CCCC2C(=O)O)c1

>  <score_type>  (67) 
oracle

>  <origin>  (67) 
adg

>  <m_score__min__energy>  (67) 
-6.9500000000000002

>  <m_primary>  (67) 
energy

$$$$
67:0
     RDKit          3D

 44 46  0  0  0  0  0  0  0  0999 V2000
   57.2820   25.6080   44.8220 C   0  0  0  0  0  0  0  0  0  0  0  0
   56.7670   26.6950   45.7120 C   0  0  0  0  0  0  0  0  0  0  0  0
   55.5400   26.7130   45.9970 O   0  0  0  0  0  0  0  0  0  0  0  0
   57.6230   27.7350   46.2170 N   0  0  0  0  0  0  0  0  0  0  0  0
   58.6060   27.5090   47.2780 C   0  0  0  0  0  0  0  0  0  0  0  0
   59.1360   28.9060   47.6790 C   0  0  0  0  0  0  0  0  0  0  0  0
   58.4480   29.8200   46.7280 C   0  0  0  0  0  0  0  0  0  0  0  0
   58.6340   31.1950   46.5850 C   0  0  0  0  0  0  0  0  0  0  0  0
   57.9480   31.8680   45.5590 C   0  0  0  0  0  0  0  0  0  0  0  0
   58.2040   33.5940   45.3290 S   0  0  0  0  0  0  0  0  0  0  0  0
   59.1450   33.8460   44.1860 O   0  0  0  0  0  0  0  0  0  0  0  0
   56.8800   34.2410   45.0290 O   0  0  0  0  0  0  0  0  0  0  0  0
   58.8670   34.2840   46.7760 N   0  0  0  0  0  0  0  0  0  0  0  0
   60.2010   33.9930   47.2320 C   0  0  0  0  0  0  0  0  0  0  0  0
   61.2890   34.0870   46.3460 C   0  0  0  0  0  0  0  0  0  0  0  0
   62.5860   33.8030   46.7740 C   0  0  0  0  0  0  0  0  0  0  0  0
   62.8260   33.4380   48.1040 C   0  0  0  0  0  0  0  0  0  0  0  0
   64.2160   33.0960   48.5540 C   0  0  0  0  0  0  0  0  0  0  0  0
   61.7500   33.3290   48.9940 C   0  0  0  0  0  0  0  0  0  0  0  0
   60.4370   33.6050   48.5730 C   0  0  0  0  0  0  0  0  0  0  0  0
   59.3040   33.4660   49.5530 C   0  0  0  0  0  0  0  0  0  0  0  0
   57.0990   31.1450   44.6950 C   0  0  0  0  0  0  0  0  0  0  0  0
   56.9310   29.7610   44.8570 C   0  0  0  0  0  0  0  0  0  0  0  0
   57.6010   29.1230   45.9090 C   0  0  0  0  0  0  0  0  0  0  0  0
   57.6723   24.7842   45.4376 H   0  0  0  0  0  0  0  0  0  0  0  0
   56.4645   25.2358   44.1871 H   0  0  0  0  0  0  0  0  0  0  0  0
   58.0878   26.0049   44.1871 H   0  0  0  0  0  0  0  0  0  0  0  0
   58.1304   27.0194   48.1406 H   0  0  0  0  0  0  0  0  0  0  0  0
   59.4209   26.8535   46.9369 H   0  0  0  0  0  0  0  0  0  0  0  0
   58.8684   29.1453   48.7188 H   0  0  0  0  0  0  0  0  0  0  0  0
   60.2324   28.9804   47.6301 H   0  0  0  0  0  0  0  0  0  0  0  0
   59.3053   31.7428   47.2628 H   0  0  0  0  0  0  0  0  0  0  0  0
   58.2110   34.8210   47.3840 H   0  0  0  0  0  0  0  0  0  0  0  0
   61.1152   34.3882   45.3024 H   0  0  0  0  0  0  0  0  0  0  0  0
   63.4235   33.8661   46.0636 H   0  0  0  0  0  0  0  0  0  0  0  0
   64.2536   33.0867   49.6533 H   0  0  0  0  0  0  0  0  0  0  0  0
   64.4921   32.1031   48.1693 H   0  0  0  0  0  0  0  0  0  0  0  0
   64.9213   33.8474   48.1693 H   0  0  0  0  0  0  0  0  0  0  0  0
   61.9342   33.0239   50.0347 H   0  0  0  0  0  0  0  0  0  0  0  0
   59.6984   33.5144   50.5787 H   0  0  0  0  0  0  0  0  0  0  0  0
   58.5832   34.2825   49.3984 H   0  0  0  0  0  0  0  0  0  0  0  0
   58.8020   32.4995   49.3984 H   0  0  0  0  0  0  0  0  0  0  0  0
   56.5650   31.6695   43.8889 H   0  0  0  0  0  0  0  0  0  0  0  0
   56.2870   29.1894   44.1725 H   0  0  0  0  0  0  0  0  0  0  0  0
  1  2  1  0
  2  3  2  0
  2  4  1  0
  4  5  1  0
  5  6  1  0
  6  7  1  0
  7  8  2  0
  8  9  1  0
  9 10  1  0
 10 11  2  0
 10 12  2  0
 10 13  1  0
 13 14  1  0
 14 15  2  0
 15 16  1  0
 16 17  2  0
 17 18  1  0
 17 19  1  0
 19 20  2  0
 20 21  1  0
  9 22  2  0
 22 23  1  0
 23 24  2  0
 24  4  1  0
 24  7  1  0
 20 14  1  0
  1 25  1  0
  1 26  1  0
  1 27  1  0
  5 28  1  0
  5 29  1  0
  6 30  1  0
  6 31  1  0
  8 32  1  0
 13 33  1  0
 15 34  1  0
 16 35  1  0
 18 36  1  0
 18 37  1  0
 18 38  1  0
 19 39  1  0
 21 40  1  0
 21 41  1  0
 21 42  1  0
 22 43  1  0
 23 44  1  0
M  END
>  <UniqueID>  (68) 
59

>  <SMILES>  (68) 
CC(=O)N1CCc2cc(S(=O)(=O)Nc3ccc(C)cc3C)ccc21

>  <Energy>  (68) 
64.7962275835119

>  <Genealogy>  (68) 
CC(=O)N1CCc2cc(S(=O)(=O)Nc3ccc(C)cc3C)ccc21 (3D coordinates assigned)
CC(=O)N1CCc2cc(S(=O)(=O)Nc3ccc(C)cc3C)ccc21 (nonaromatic ring conformer: 64.7962275835119 kcal/mol)

>  <smiles>  (68) 
CC(=O)N1CCc2cc(S(=O)(=O)Nc3ccc(C)cc3C)ccc21

>  <score_type>  (68) 
oracle

>  <origin>  (68) 
adg

>  <m_score__min__energy>  (68) 
-8.8100000000000005

>  <m_primary>  (68) 
energy

$$$$
68:0
     RDKit          3D

 37 39  0  0  0  0  0  0  0  0999 V2000
   53.8058   25.0594   45.6513 H   0  0  0  0  0  0  0  0  0  0  0  0
   54.9010   25.1210   45.7340 C   0  0  0  0  0  0  0  0  0  0  0  0
   55.4970   26.3210   45.9620 N   0  0  0  0  0  0  0  0  0  0  0  0
   57.6810   31.0340   44.7570 C   0  0  0  0  0  0  0  0  0  0  0  0
   58.5270   32.0220   44.6400 N   0  0  0  0  0  0  0  0  0  0  0  0
   57.0110   28.8490   45.5790 C   0  0  0  0  0  0  0  0  0  0  0  0
   56.4540   31.1240   44.0890 C   0  0  0  0  0  0  0  0  0  0  0  0
   56.2133   32.0195   43.4973 H   0  0  0  0  0  0  0  0  0  0  0  0
   56.8450   26.4540   46.0930 C   0  0  0  0  0  0  0  0  0  0  0  0
   57.3330   27.6460   46.2940 N   0  0  0  0  0  0  0  0  0  0  0  0
   59.0510   32.8540   45.6860 C   0  0  0  0  0  0  0  0  0  0  0  0
   58.5380   34.1410   45.9200 C   0  0  0  0  0  0  0  0  0  0  0  0
   57.6908   34.5103   45.3234 H   0  0  0  0  0  0  0  0  0  0  0  0
   59.1010   34.9540   46.9090 C   0  0  0  0  0  0  0  0  0  0  0  0
   58.6835   35.9531   47.1024 H   0  0  0  0  0  0  0  0  0  0  0  0
   60.1940   34.4980   47.6520 C   0  0  0  0  0  0  0  0  0  0  0  0
   60.6309   35.1354   48.4349 H   0  0  0  0  0  0  0  0  0  0  0  0
   60.7330   33.2300   47.4000 C   0  0  0  0  0  0  0  0  0  0  0  0
   61.8690   32.7680   48.1530 C   0  0  0  0  0  0  0  0  0  0  0  0
   62.7820   32.3950   48.7590 N   0  0  0  0  0  0  0  0  0  0  0  0
   60.1680   32.4150   46.4100 C   0  0  0  0  0  0  0  0  0  0  0  0
   60.6029   31.4266   46.2002 H   0  0  0  0  0  0  0  0  0  0  0  0
   57.6590   25.3100   45.9650 C   0  0  0  0  0  0  0  0  0  0  0  0
   58.7525   25.3966   46.0473 H   0  0  0  0  0  0  0  0  0  0  0  0
   55.5370   30.0760   44.1750 C   0  0  0  0  0  0  0  0  0  0  0  0
   54.5729   30.1475   43.6503 H   0  0  0  0  0  0  0  0  0  0  0  0
   55.8300   28.9660   44.9050 N   0  0  0  0  0  0  0  0  0  0  0  0
   55.1410   28.1820   44.9170 H   0  0  0  0  0  0  0  0  0  0  0  0
   57.9690   29.8630   45.4880 C   0  0  0  0  0  0  0  0  0  0  0  0
   58.9437   29.7479   45.9847 H   0  0  0  0  0  0  0  0  0  0  0  0
   57.0680   24.0660   45.7330 C   0  0  0  0  0  0  0  0  0  0  0  0
   57.6958   23.1665   45.6515 H   0  0  0  0  0  0  0  0  0  0  0  0
   55.6780   23.9620   45.6040 C   0  0  0  0  0  0  0  0  0  0  0  0
   55.0280   22.6270   45.3920 C   0  0  0  0  0  0  0  0  0  0  0  0
   54.8049   22.1689   46.3669 H   0  0  0  0  0  0  0  0  0  0  0  0
   54.0937   22.7597   44.8268 H   0  0  0  0  0  0  0  0  0  0  0  0
   55.7087   21.9734   44.8268 H   0  0  0  0  0  0  0  0  0  0  0  0
  1  2  1  0
  2  3  1  0
  3  4  1  0
  4  5  2  0
  5  6  1  0
  6  7  2  0
  7  8  1  0
  7  9  1  0
  9 10  2  0
 10 11  1  0
 11 12  2  0
 12 13  1  0
 12 14  1  0
 14 15  1  0
 14 16  2  0
 16 17  1  0
 16 18  1  0
 18 19  1  0
 19 20  3  0
 18 21  2  0
 21 22  1  0
  9 23  1  0
 23 24  1  0
 23 25  2  0
 25 26  1  0
 25 27  1  0
 27 28  1  0
  4 29  1  0
 29 30  1  0
 29 31  2  0
 31 32  1  0
 31 33  1  0
 33 34  1  0
 34 35  1  0
 34 36  1  0
 34 37  1  0
 33  2  2  0
 27  6  1  0
 21 11  1  0
M  CHG  1   3  -1
M  END
>  <UniqueID>  (69) 
60

>  <SMILES>  (69) 
Cc1cc/c(=N\c2c/c(=N\c3cccc(C#N)c3)cc[nH]2)[n-]c1

>  <Energy>  (69) 
57.38361142344219

>  <Genealogy>  (69) 
Cc1ccc(=Nc2cc(=Nc3cccc(C#N)c3)cc[nH]2)[n-]c1 (protonated)
Cc1cc/c(=N\c2c/c(=N\c3cccc(C#N)c3)cc[nH]2)[n-]c1 (cis-trans isomerization)
Cc1cc/c(=N\c2c/c(=N\c3cccc(C#N)c3)cc[nH]2)[n-]c1 (3D coordinates assigned)
Cc1cc/c(=N\c2c/c(=N\c3cccc(C#N)c3)cc[nH]2)[n-]c1 (optimized conformer: 57.38361142344219 kcal/mol)

>  <smiles>  (69) 
Cc1ccc(=Nc2cc(=Nc3cccc(C#N)c3)cc[nH]2)[nH]c1

>  <score_type>  (69) 
oracle

>  <origin>  (69) 
adg

>  <m_score__min__energy>  (69) 
-10.01

>  <m_primary>  (69) 
energy

$$$$
69:0
     RDKit          3D

 46 48  0  0  0  0  0  0  0  0999 V2000
   58.5920   27.7190   44.1800 C   0  0  0  0  0  0  0  0  0  0  0  0
   59.2840   28.9190   44.5140 O   0  0  0  0  0  0  0  0  0  0  0  0
   59.4340   29.4100   45.8190 C   0  0  0  0  0  0  0  0  0  0  0  0
   59.0200   28.6850   46.9500 C   0  0  0  0  0  0  0  0  0  0  0  0
   59.1830   29.2200   48.2290 C   0  0  0  0  0  0  0  0  0  0  0  0
   59.7710   30.4880   48.4050 C   0  0  0  0  0  0  0  0  0  0  0  0
   59.9330   31.0560   49.6790 O   0  0  0  0  0  0  0  0  0  0  0  0
   58.8800   31.2590   50.6150 C   0  0  0  0  0  0  0  0  0  0  0  0
   60.2020   31.2070   47.2740 C   0  0  0  0  0  0  0  0  0  0  0  0
   60.9460   32.8000   47.4510 S   0  0  0  0  0  0  0  0  0  0  0  0
   61.8350   32.7770   48.6640 O   0  0  0  0  0  0  0  0  0  0  0  0
   61.7740   33.1040   46.2320 O   0  0  0  0  0  0  0  0  0  0  0  0
   59.7040   34.0230   47.6360 N   0  0  0  0  0  0  0  0  0  0  0  0
   58.3910   33.4180   47.9790 C   0  0  0  0  0  0  0  0  0  0  0  0
   57.3730   33.4330   46.8240 C   0  0  0  0  0  0  0  0  0  0  0  0
   58.0620   33.2890   45.5370 N   0  0  0  0  0  0  0  0  0  0  0  0
   57.6290   32.3410   44.5450 C   0  0  0  0  0  0  0  0  0  0  0  0
   57.9290   32.5250   43.1840 C   0  0  0  0  0  0  0  0  0  0  0  0
   57.4700   31.5960   42.2480 C   0  0  0  0  0  0  0  0  0  0  0  0
   56.7130   30.5020   42.6670 C   0  0  0  0  0  0  0  0  0  0  0  0
   56.4170   30.3570   44.0230 C   0  0  0  0  0  0  0  0  0  0  0  0
   56.8720   31.2720   44.9210 N   0  0  0  0  0  0  0  0  0  0  0  0
   59.1380   34.2300   45.2110 C   0  0  0  0  0  0  0  0  0  0  0  0
   59.6520   34.9350   46.4780 C   0  0  0  0  0  0  0  0  0  0  0  0
   60.0190   30.6670   45.9920 C   0  0  0  0  0  0  0  0  0  0  0  0
   58.2925   27.1996   45.1023 H   0  0  0  0  0  0  0  0  0  0  0  0
   57.6966   27.9642   43.5900 H   0  0  0  0  0  0  0  0  0  0  0  0
   59.2527   27.0668   43.5900 H   0  0  0  0  0  0  0  0  0  0  0  0
   58.5653   27.6910   46.8265 H   0  0  0  0  0  0  0  0  0  0  0  0
   58.8496   28.6468   49.1066 H   0  0  0  0  0  0  0  0  0  0  0  0
   59.2784   31.1822   51.6374 H   0  0  0  0  0  0  0  0  0  0  0  0
   58.4440   32.2577   50.4654 H   0  0  0  0  0  0  0  0  0  0  0  0
   58.1039   30.4939   50.4654 H   0  0  0  0  0  0  0  0  0  0  0  0
   58.5594   32.3729   48.2780 H   0  0  0  0  0  0  0  0  0  0  0  0
   57.9622   34.0267   48.7887 H   0  0  0  0  0  0  0  0  0  0  0  0
   56.6660   32.6001   46.9524 H   0  0  0  0  0  0  0  0  0  0  0  0
   56.8324   34.3909   46.8356 H   0  0  0  0  0  0  0  0  0  0  0  0
   58.5205   33.3937   42.8590 H   0  0  0  0  0  0  0  0  0  0  0  0
   57.7052   31.7268   41.1814 H   0  0  0  0  0  0  0  0  0  0  0  0
   56.3534   29.7620   41.9369 H   0  0  0  0  0  0  0  0  0  0  0  0
   55.8154   29.5023   44.3660 H   0  0  0  0  0  0  0  0  0  0  0  0
   59.9678   33.6803   44.7427 H   0  0  0  0  0  0  0  0  0  0  0  0
   58.7435   34.9903   44.5208 H   0  0  0  0  0  0  0  0  0  0  0  0
   60.6638   35.3206   46.2840 H   0  0  0  0  0  0  0  0  0  0  0  0
   58.9545   35.7506   46.7193 H   0  0  0  0  0  0  0  0  0  0  0  0
   60.3406   31.2413   45.1107 H   0  0  0  0  0  0  0  0  0  0  0  0
  1  2  1  0
  2  3  1  0
  3  4  2  0
  4  5  1  0
  5  6  2  0
  6  7  1  0
  7  8  1  0
  6  9  1  0
  9 10  1  0
 10 11  2  0
 10 12  2  0
 10 13  1  0
 13 14  1  0
 14 15  1  0
 15 16  1  0
 16 17  1  0
 17 18  2  0
 18 19  1  0
 19 20  2  0
 20 21  1  0
 21 22  2  0
 16 23  1  0
 23 24  1  0
  9 25  2  0
 25  3  1  0
 24 13  1  0
 22 17  1  0
  1 26  1  0
  1 27  1  0
  1 28  1  0
  4 29  1  0
  5 30  1  0
  8 31  1  0
  8 32  1  0
  8 33  1  0
 14 34  1  0
 14 35  1  0
 15 36  1  0
 15 37  1  0
 18 38  1  0
 19 39  1  0
 20 40  1  0
 21 41  1  0
 23 42  1  0
 23 43  1  0
 24 44  1  0
 24 45  1  0
 25 46  1  0
M  END
>  <UniqueID>  (70) 
61

>  <SMILES>  (70) 
COc1ccc(OC)c(S(=O)(=O)N2CCN(c3ccccn3)CC2)c1

>  <Energy>  (70) 
57.25864712366003

>  <Genealogy>  (70) 
COc1ccc(OC)c(S(=O)(=O)N2CCN(c3ccccn3)CC2)c1 (3D coordinates assigned)
COc1ccc(OC)c(S(=O)(=O)N2CCN(c3ccccn3)CC2)c1 (nonaromatic ring conformer: 57.25864712366003 kcal/mol)

>  <smiles>  (70) 
COc1ccc(OC)c(S(=O)(=O)N2CCN(c3ccccn3)CC2)c1

>  <score_type>  (70) 
oracle

>  <origin>  (70) 
adg

>  <m_score__min__energy>  (70) 
-7.3899999999999997

>  <m_primary>  (70) 
energy

$$$$
70:0
     RDKit          3D

 33 36  0  0  0  0  0  0  0  0999 V2000
   55.2186   25.2100   46.5794 H   0  0  0  0  0  0  0  0  0  0  0  0
   55.9570   25.9140   46.1680 C   0  0  0  0  0  0  0  0  0  0  0  0
   55.6740   27.0770   45.6280 O   0  0  0  0  0  0  0  0  0  0  0  0
   56.7940   27.6460   45.2480 C   0  0  0  0  0  0  0  0  0  0  0  0
   56.8740   28.9630   44.6020 C   0  0  0  0  0  0  0  0  0  0  0  0
   56.8370   30.1170   45.3200 N   0  0  0  0  0  0  0  0  0  0  0  0
   56.9070   31.2060   44.5240 C   0  0  0  0  0  0  0  0  0  0  0  0
   56.9760   32.5590   44.9940 N   0  0  0  0  0  0  0  0  0  0  0  0
   58.0370   33.2310   45.3390 C   0  0  0  0  0  0  0  0  0  0  0  0
   58.3020   34.8180   44.8700 S   0  0  0  0  0  0  0  0  0  0  0  0
   59.7650   34.9360   45.6950 C   0  0  0  0  0  0  0  0  0  0  0  0
   60.4176   35.8209   45.7276 H   0  0  0  0  0  0  0  0  0  0  0  0
   60.0070   33.7160   46.3310 C   0  0  0  0  0  0  0  0  0  0  0  0
   61.2100   33.4550   47.1600 C   0  0  0  0  0  0  0  0  0  0  0  0
   62.5000   33.7030   46.6550 C   0  0  0  0  0  0  0  0  0  0  0  0
   62.6205   34.0949   45.6343 H   0  0  0  0  0  0  0  0  0  0  0  0
   63.6300   33.4550   47.4410 C   0  0  0  0  0  0  0  0  0  0  0  0
   64.6337   33.6527   47.0367 H   0  0  0  0  0  0  0  0  0  0  0  0
   63.4870   32.9570   48.7380 C   0  0  0  0  0  0  0  0  0  0  0  0
   64.9060   32.6480   49.7230 Cl  0  0  0  0  0  0  0  0  0  0  0  0
   62.2110   32.7050   49.2500 C   0  0  0  0  0  0  0  0  0  0  0  0
   62.0975   32.3127   50.2714 H   0  0  0  0  0  0  0  0  0  0  0  0
   61.0790   32.9500   48.4680 C   0  0  0  0  0  0  0  0  0  0  0  0
   60.0783   32.7469   48.8772 H   0  0  0  0  0  0  0  0  0  0  0  0
   59.0380   32.7760   46.1330 N   0  0  0  0  0  0  0  0  0  0  0  0
   59.0530   31.8480   46.6030 H   0  0  0  0  0  0  0  0  0  0  0  0
   57.0660   30.7800   42.9070 S   0  0  0  0  0  0  0  0  0  0  0  0
   57.0000   29.1280   43.2240 C   0  0  0  0  0  0  0  0  0  0  0  0
   57.0478   28.3223   42.4766 H   0  0  0  0  0  0  0  0  0  0  0  0
   57.8660   26.8260   45.5470 C   0  0  0  0  0  0  0  0  0  0  0  0
   58.9302   27.0241   45.3515 H   0  0  0  0  0  0  0  0  0  0  0  0
   57.3220   25.7090   46.1410 C   0  0  0  0  0  0  0  0  0  0  0  0
   57.8657   24.8302   46.5181 H   0  0  0  0  0  0  0  0  0  0  0  0
  1  2  1  0
  2  3  1  0
  3  4  1  0
  4  5  1  0
  5  6  1  0
  6  7  2  0
  7  8  1  0
  8  9  2  0
  9 10  1  0
 10 11  1  0
 11 12  1  0
 11 13  2  0
 13 14  1  0
 14 15  2  0
 15 16  1  0
 15 17  1  0
 17 18  1  0
 17 19  2  0
 19 20  1  0
 19 21  1  0
 21 22  1  0
 21 23  2  0
 23 24  1  0
 13 25  1  0
 25 26  1  0
  7 27  1  0
 27 28  1  0
 28 29  1  0
  4 30  2  0
 30 31  1  0
 30 32  1  0
 32 33  1  0
 32  2  2  0
 28  5  2  0
 25  9  1  0
 23 14  1  0
M  END
>  <UniqueID>  (71) 
62

>  <SMILES>  (71) 
Clc1ccc(-c2cs/c(=N/c3nc(-c4ccco4)cs3)[nH]2)cc1

>  <Energy>  (71) 
129.87793447000513

>  <Genealogy>  (71) 
Clc1ccc(-c2cs/c(=N/c3nc(-c4ccco4)cs3)[nH]2)cc1 (cis-trans isomerization)
Clc1ccc(-c2cs/c(=N/c3nc(-c4ccco4)cs3)[nH]2)cc1 (3D coordinates assigned)
Clc1ccc(-c2cs/c(=N/c3nc(-c4ccco4)cs3)[nH]2)cc1 (optimized conformer: 129.87793447000513 kcal/mol)

>  <smiles>  (71) 
Clc1ccc(-c2csc(=Nc3nc(-c4ccco4)cs3)[nH]2)cc1

>  <score_type>  (71) 
oracle

>  <origin>  (71) 
adg

>  <m_score__min__energy>  (71) 
-8.8200000000000003

>  <m_primary>  (71) 
energy

$$$$
71:0
     RDKit          3D

 51 53  0  0  0  0  0  0  0  0999 V2000
   58.0570   26.4170   44.0640 C   0  0  0  0  0  0  0  0  0  0  0  0
   58.6300   27.6390   44.7370 C   0  0  0  0  0  0  0  0  0  0  0  0
   59.6860   27.4820   45.6460 C   0  0  0  0  0  0  0  0  0  0  0  0
   60.2290   28.5950   46.2840 C   0  0  0  0  0  0  0  0  0  0  0  0
   59.7470   29.8350   46.0190 N   0  0  0  0  0  0  0  0  0  0  0  0
   58.7310   30.0430   45.1400 C   0  0  0  0  0  0  0  0  0  0  0  0
   58.2590   31.3510   44.9030 C   0  0  0  0  0  0  0  0  0  0  0  0
   58.8570   32.4860   45.5440 N   0  0  0  0  0  0  0  0  0  0  0  0
   58.1760   33.7390   45.6900 C   0  0  0  0  0  0  0  0  0  0  0  0
   56.9780   33.8620   45.3140 O   0  0  0  0  0  0  0  0  0  0  0  0
   58.8890   34.9180   46.2820 C   0  0  0  0  0  0  0  0  0  0  0  0
   60.3990   34.6630   46.3770 C   0  0  0  0  0  0  0  0  0  0  0  0
   60.7160   33.5580   47.3110 N   0  0  0  0  0  0  0  0  0  0  0  0
   60.9400   34.0820   48.6670 C   0  0  0  0  0  0  0  0  0  0  0  0
   60.9690   32.9200   49.6650 C   0  0  0  0  0  0  0  0  0  0  0  0
   61.6850   31.7310   49.1490 N   0  0  0  0  0  0  0  0  0  0  0  0
   60.8870   30.4870   49.1020 C   0  0  0  0  0  0  0  0  0  0  0  0
   59.3740   30.7270   49.0790 C   0  0  0  0  0  0  0  0  0  0  0  0
   59.0410   31.4910   47.9530 O   0  0  0  0  0  0  0  0  0  0  0  0
   62.5660   31.9670   47.9870 C   0  0  0  0  0  0  0  0  0  0  0  0
   61.8950   32.7850   46.8570 C   0  0  0  0  0  0  0  0  0  0  0  0
   57.1640   31.5480   44.0540 C   0  0  0  0  0  0  0  0  0  0  0  0
   56.5670   30.4660   43.4060 C   0  0  0  0  0  0  0  0  0  0  0  0
   57.0460   29.1710   43.6110 C   0  0  0  0  0  0  0  0  0  0  0  0
   58.1280   28.9390   44.4830 C   0  0  0  0  0  0  0  0  0  0  0  0
   57.7212   25.7009   44.8285 H   0  0  0  0  0  0  0  0  0  0  0  0
   57.2027   26.7107   43.4363 H   0  0  0  0  0  0  0  0  0  0  0  0
   58.8291   25.9481   43.4363 H   0  0  0  0  0  0  0  0  0  0  0  0
   60.0861   26.4790   45.8555 H   0  0  0  0  0  0  0  0  0  0  0  0
   61.0506   28.4680   47.0044 H   0  0  0  0  0  0  0  0  0  0  0  0
   59.7460   32.3400   46.0720 H   0  0  0  0  0  0  0  0  0  0  0  0
   58.7132   35.7992   45.6476 H   0  0  0  0  0  0  0  0  0  0  0  0
   58.4998   35.0868   47.2969 H   0  0  0  0  0  0  0  0  0  0  0  0
   60.7792   34.4039   45.3778 H   0  0  0  0  0  0  0  0  0  0  0  0
   60.8754   35.5782   46.7583 H   0  0  0  0  0  0  0  0  0  0  0  0
   61.9005   34.6172   48.6993 H   0  0  0  0  0  0  0  0  0  0  0  0
   60.1262   34.7730   48.9322 H   0  0  0  0  0  0  0  0  0  0  0  0
   61.4700   33.2594   50.5836 H   0  0  0  0  0  0  0  0  0  0  0  0
   59.9270   32.6209   49.8517 H   0  0  0  0  0  0  0  0  0  0  0  0
   61.1643   29.9305   48.1946 H   0  0  0  0  0  0  0  0  0  0  0  0
   61.1099   29.9268   50.0221 H   0  0  0  0  0  0  0  0  0  0  0  0
   58.8498   29.7609   49.0351 H   0  0  0  0  0  0  0  0  0  0  0  0
   59.0735   31.2652   49.9901 H   0  0  0  0  0  0  0  0  0  0  0  0
   59.8710   31.5560   47.4110 H   0  0  0  0  0  0  0  0  0  0  0  0
   63.4562   32.5141   48.3309 H   0  0  0  0  0  0  0  0  0  0  0  0
   62.8169   30.9818   47.5669 H   0  0  0  0  0  0  0  0  0  0  0  0
   62.6360   33.4874   46.4478 H   0  0  0  0  0  0  0  0  0  0  0  0
   61.5416   32.0671   46.1022 H   0  0  0  0  0  0  0  0  0  0  0  0
   56.7711   32.5633   43.8964 H   0  0  0  0  0  0  0  0  0  0  0  0
   55.7152   30.6343   42.7307 H   0  0  0  0  0  0  0  0  0  0  0  0
   56.5753   28.3255   43.0879 H   0  0  0  0  0  0  0  0  0  0  0  0
  1  2  1  0
  2  3  2  0
  3  4  1  0
  4  5  2  0
  5  6  1  0
  6  7  2  0
  7  8  1  0
  8  9  1  0
  9 10  2  0
  9 11  1  0
 11 12  1  0
 12 13  1  0
 13 14  1  0
 14 15  1  0
 15 16  1  0
 16 17  1  0
 17 18  1  0
 18 19  1  0
 16 20  1  0
 20 21  1  0
  7 22  1  0
 22 23  2  0
 23 24  1  0
 24 25  2  0
 25  2  1  0
 25  6  1  0
 21 13  1  0
  1 26  1  0
  1 27  1  0
  1 28  1  0
  3 29  1  0
  4 30  1  0
  8 31  1  0
 11 32  1  0
 11 33  1  0
 12 34  1  0
 12 35  1  0
 14 36  1  0
 14 37  1  0
 15 38  1  0
 15 39  1  0
 17 40  1  0
 17 41  1  0
 18 42  1  0
 18 43  1  0
 19 44  1  0
 20 45  1  0
 20 46  1  0
 21 47  1  0
 21 48  1  0
 22 49  1  0
 23 50  1  0
 24 51  1  0
M  END
>  <UniqueID>  (72) 
63

>  <SMILES>  (72) 
Cc1ccnc2c(NC(=O)CCN3CCN(CCO)CC3)cccc12

>  <Energy>  (72) 
69.97415502437642

>  <Genealogy>  (72) 
Cc1ccnc2c(NC(=O)CCN3CCN(CCO)CC3)cccc12 (3D coordinates assigned)
Cc1ccnc2c(NC(=O)CCN3CCN(CCO)CC3)cccc12 (nonaromatic ring conformer: 69.97415502437642 kcal/mol)

>  <smiles>  (72) 
Cc1ccnc2c(NC(=O)CCN3CCN(CCO)CC3)cccc12

>  <score_type>  (72) 
oracle

>  <origin>  (72) 
adg

>  <m_score__min__energy>  (72) 
-8.3900000000000006

>  <m_primary>  (72) 
energy

$$$$
72:0
     RDKit          3D

 36 37  0  0  0  0  0  0  0  0999 V2000
   63.7460   31.0460   50.4990 C   0  0  0  0  0  0  0  0  0  0  0  0
   64.9840   31.7750   51.0060 C   0  0  0  0  0  0  0  0  0  0  0  0
   65.6540   32.9020   49.7340 S   0  0  0  0  0  0  0  0  0  0  0  0
   64.0620   33.2690   48.9940 C   0  0  0  0  0  0  0  0  0  0  0  0
   63.1160   33.9170   49.7220 N   0  0  0  0  0  0  0  0  0  0  0  0
   61.9030   34.2130   49.1900 C   0  0  0  0  0  0  0  0  0  0  0  0
   61.6150   33.8500   47.8710 C   0  0  0  0  0  0  0  0  0  0  0  0
   60.0610   34.2360   47.1360 S   0  0  0  0  0  0  0  0  0  0  0  0
   58.9780   33.9210   48.1290 O   0  0  0  0  0  0  0  0  0  0  0  0
   60.0000   35.7050   46.8210 O   0  0  0  0  0  0  0  0  0  0  0  0
   59.8080   33.2890   45.6850 N   0  0  0  0  0  0  0  0  0  0  0  0
   59.1550   34.0710   44.6160 C   0  0  0  0  0  0  0  0  0  0  0  0
   57.6580   34.3160   44.8840 C   0  0  0  0  0  0  0  0  0  0  0  0
   56.9460   33.0960   45.4970 C   0  0  0  0  0  0  0  0  0  0  0  0
   57.7680   31.8180   45.3430 C   0  0  0  0  0  0  0  0  0  0  0  0
   59.1590   31.9860   45.9800 C   0  0  0  0  0  0  0  0  0  0  0  0
   62.6040   33.1970   47.1340 C   0  0  0  0  0  0  0  0  0  0  0  0
   63.8080   32.9190   47.7030 N   0  0  0  0  0  0  0  0  0  0  0  0
   63.1507   30.6954   51.3550 H   0  0  0  0  0  0  0  0  0  0  0  0
   63.1410   31.7320   49.8880 H   0  0  0  0  0  0  0  0  0  0  0  0
   64.0525   30.1842   49.8880 H   0  0  0  0  0  0  0  0  0  0  0  0
   64.7158   32.3598   51.8982 H   0  0  0  0  0  0  0  0  0  0  0  0
   65.7534   31.0274   51.2492 H   0  0  0  0  0  0  0  0  0  0  0  0
   61.1485   34.7371   49.7950 H   0  0  0  0  0  0  0  0  0  0  0  0
   59.6610   35.0442   44.5335 H   0  0  0  0  0  0  0  0  0  0  0  0
   59.2337   33.4896   43.6856 H   0  0  0  0  0  0  0  0  0  0  0  0
   57.5609   35.1634   45.5786 H   0  0  0  0  0  0  0  0  0  0  0  0
   57.1807   34.5211   43.9144 H   0  0  0  0  0  0  0  0  0  0  0  0
   56.7781   33.2836   46.5678 H   0  0  0  0  0  0  0  0  0  0  0  0
   55.9941   32.9545   44.9643 H   0  0  0  0  0  0  0  0  0  0  0  0
   57.2419   30.9884   45.8380 H   0  0  0  0  0  0  0  0  0  0  0  0
   57.8932   31.6050   44.2711 H   0  0  0  0  0  0  0  0  0  0  0  0
   59.0530   31.8921   47.0708 H   0  0  0  0  0  0  0  0  0  0  0  0
   59.8024   31.2060   45.5468 H   0  0  0  0  0  0  0  0  0  0  0  0
   62.4096   32.9065   46.0910 H   0  0  0  0  0  0  0  0  0  0  0  0
   64.5400   32.4350   47.1400 H   0  0  0  0  0  0  0  0  0  0  0  0
  1  2  1  0
  2  3  1  0
  3  4  1  0
  4  5  2  0
  5  6  1  0
  6  7  2  0
  7  8  1  0
  8  9  2  0
  8 10  2  0
  8 11  1  0
 11 12  1  0
 12 13  1  0
 13 14  1  0
 14 15  1  0
 15 16  1  0
  7 17  1  0
 17 18  2  0
 18  4  1  0
 16 11  1  0
  1 19  1  0
  1 20  1  0
  1 21  1  0
  2 22  1  0
  2 23  1  0
  6 24  1  0
 12 25  1  0
 12 26  1  0
 13 27  1  0
 13 28  1  0
 14 29  1  0
 14 30  1  0
 15 31  1  0
 15 32  1  0
 16 33  1  0
 16 34  1  0
 17 35  1  0
 18 36  1  0
M  CHG  1  18   1
M  END
>  <UniqueID>  (73) 
64

>  <SMILES>  (73) 
CCSc1ncc(S(=O)(=O)N2CCCCC2)c[nH+]1

>  <Energy>  (73) 
35.98994090478532

>  <Genealogy>  (73) 
CCSc1ncc(S(=O)(=O)N2CCCCC2)c[nH+]1 (protonated)
CCSc1ncc(S(=O)(=O)N2CCCCC2)c[nH+]1 (3D coordinates assigned)
CCSc1ncc(S(=O)(=O)N2CCCCC2)c[nH+]1 (nonaromatic ring conformer: 35.98994090478532 kcal/mol)

>  <smiles>  (73) 
CCSc1ncc(S(=O)(=O)N2CCCCC2)cn1

>  <score_type>  (73) 
oracle

>  <origin>  (73) 
adg

>  <m_score__min__energy>  (73) 
-5.6600000000000001

>  <m_primary>  (73) 
energy

$$$$
73:0
     RDKit          3D

 39 41  0  0  0  0  0  0  0  0999 V2000
   60.0580   30.2080   48.5660 O   0  0  0  0  0  0  0  0  0  0  0  0
   59.9820   30.4770   47.3370 C   0  0  0  0  0  0  0  0  0  0  0  0
   60.8010   31.5190   46.7800 N   0  0  0  0  0  0  0  0  0  0  0  0
   61.6670   32.3350   47.5850 C   0  0  0  0  0  0  0  0  0  0  0  0
   63.0600   32.2150   47.4450 C   0  0  0  0  0  0  0  0  0  0  0  0
   63.9220   32.9650   48.2470 C   0  0  0  0  0  0  0  0  0  0  0  0
   63.4030   33.8410   49.1990 C   0  0  0  0  0  0  0  0  0  0  0  0
   62.0220   33.9700   49.3530 C   0  0  0  0  0  0  0  0  0  0  0  0
   61.1380   33.2180   48.5590 C   0  0  0  0  0  0  0  0  0  0  0  0
   59.6540   33.4580   48.7000 C   0  0  0  0  0  0  0  0  0  0  0  0
   59.0580   33.8420   47.3710 C   0  0  0  0  0  0  0  0  0  0  0  0
   59.7890   34.6330   46.4690 C   0  0  0  0  0  0  0  0  0  0  0  0
   59.2500   34.9580   45.2200 C   0  0  0  0  0  0  0  0  0  0  0  0
   57.9830   34.4920   44.8610 C   0  0  0  0  0  0  0  0  0  0  0  0
   57.2540   33.6960   45.7480 C   0  0  0  0  0  0  0  0  0  0  0  0
   57.7890   33.3680   46.9980 C   0  0  0  0  0  0  0  0  0  0  0  0
   59.0410   29.7130   46.4860 C   0  0  0  0  0  0  0  0  0  0  0  0
   58.6790   28.3990   46.8430 C   0  0  0  0  0  0  0  0  0  0  0  0
   59.1630   27.8300   47.9770 F   0  0  0  0  0  0  0  0  0  0  0  0
   57.7920   27.6680   46.0460 C   0  0  0  0  0  0  0  0  0  0  0  0
   57.2640   28.2330   44.8850 C   0  0  0  0  0  0  0  0  0  0  0  0
   57.6250   29.5290   44.5110 C   0  0  0  0  0  0  0  0  0  0  0  0
   58.5100   30.2690   45.3020 C   0  0  0  0  0  0  0  0  0  0  0  0
   58.8780   31.5050   44.8800 F   0  0  0  0  0  0  0  0  0  0  0  0
   60.7220   31.7480   45.7660 H   0  0  0  0  0  0  0  0  0  0  0  0
   63.4750   31.5238   46.6967 H   0  0  0  0  0  0  0  0  0  0  0  0
   65.0109   32.8647   48.1277 H   0  0  0  0  0  0  0  0  0  0  0  0
   64.0833   34.4317   49.8301 H   0  0  0  0  0  0  0  0  0  0  0  0
   61.6208   34.6672   50.1033 H   0  0  0  0  0  0  0  0  0  0  0  0
   59.1706   32.5388   49.0625 H   0  0  0  0  0  0  0  0  0  0  0  0
   59.4904   34.2772   49.4156 H   0  0  0  0  0  0  0  0  0  0  0  0
   60.7890   34.9981   46.7461 H   0  0  0  0  0  0  0  0  0  0  0  0
   59.8247   35.5815   44.5193 H   0  0  0  0  0  0  0  0  0  0  0  0
   57.5592   34.7518   43.8797 H   0  0  0  0  0  0  0  0  0  0  0  0
   56.2578   33.3267   45.4629 H   0  0  0  0  0  0  0  0  0  0  0  0
   57.2142   32.7367   47.6916 H   0  0  0  0  0  0  0  0  0  0  0  0
   57.5100   26.6449   46.3355 H   0  0  0  0  0  0  0  0  0  0  0  0
   56.5626   27.6570   44.2635 H   0  0  0  0  0  0  0  0  0  0  0  0
   57.2121   29.9694   43.5914 H   0  0  0  0  0  0  0  0  0  0  0  0
  1  2  2  0
  2  3  1  0
  3  4  1  0
  4  5  2  0
  5  6  1  0
  6  7  2  0
  7  8  1  0
  8  9  2  0
  9 10  1  0
 10 11  1  0
 11 12  2  0
 12 13  1  0
 13 14  2  0
 14 15  1  0
 15 16  2  0
  2 17  1  0
 17 18  2  0
 18 19  1  0
 18 20  1  0
 20 21  2  0
 21 22  1  0
 22 23  2  0
 23 24  1  0
  9  4  1  0
 16 11  1  0
 23 17  1  0
  3 25  1  0
  5 26  1  0
  6 27  1  0
  7 28  1  0
  8 29  1  0
 10 30  1  0
 10 31  1  0
 12 32  1  0
 13 33  1  0
 14 34  1  0
 15 35  1  0
 16 36  1  0
 20 37  1  0
 21 38  1  0
 22 39  1  0
M  END
>  <UniqueID>  (74) 
65

>  <SMILES>  (74) 
O=C(Nc1ccccc1Cc1ccccc1)c1c(F)cccc1F

>  <Energy>  (74) 
50.608856748346106

>  <Genealogy>  (74) 
O=C(Nc1ccccc1Cc1ccccc1)c1c(F)cccc1F (3D coordinates assigned)
O=C(Nc1ccccc1Cc1ccccc1)c1c(F)cccc1F (optimized conformer: 50.608856748346106 kcal/mol)

>  <smiles>  (74) 
O=C(Nc1ccccc1Cc1ccccc1)c1c(F)cccc1F

>  <score_type>  (74) 
oracle

>  <origin>  (74) 
adg

>  <m_score__min__energy>  (74) 
-8.0800000000000001

>  <m_primary>  (74) 
energy

$$$$
74:0
     RDKit          3D

 42 44  0  0  0  0  0  0  0  0999 V2000
   59.9510   34.3320   46.2290 C   0  0  0  0  0  0  0  0  0  0  0  0
   58.6750   34.5290   45.4180 C   0  0  0  0  0  0  0  0  0  0  0  0
   58.8000   33.9370   44.1240 O   0  0  0  0  0  0  0  0  0  0  0  0
   58.1150   32.7930   43.6790 C   0  0  0  0  0  0  0  0  0  0  0  0
   57.8030   32.7030   42.3180 C   0  0  0  0  0  0  0  0  0  0  0  0
   57.1280   31.5910   41.8160 C   0  0  0  0  0  0  0  0  0  0  0  0
   56.7530   30.5530   42.6720 C   0  0  0  0  0  0  0  0  0  0  0  0
   57.0460   30.6250   44.0440 C   0  0  0  0  0  0  0  0  0  0  0  0
   56.6560   29.5270   44.9600 C   0  0  0  0  0  0  0  0  0  0  0  0
   55.5060   29.0200   44.8640 O   0  0  0  0  0  0  0  0  0  0  0  0
   57.5290   29.0520   45.9950 N   0  0  0  0  0  0  0  0  0  0  0  0
   58.7110   29.7120   46.4730 C   0  0  0  0  0  0  0  0  0  0  0  0
   59.9750   29.4580   45.9160 C   0  0  0  0  0  0  0  0  0  0  0  0
   61.1080   30.1090   46.4130 C   0  0  0  0  0  0  0  0  0  0  0  0
   61.0000   31.0130   47.4850 C   0  0  0  0  0  0  0  0  0  0  0  0
   62.2010   31.7080   48.0120 C   0  0  0  0  0  0  0  0  0  0  0  0
   62.7140   31.3860   49.2830 C   0  0  0  0  0  0  0  0  0  0  0  0
   63.8460   32.0420   49.7780 C   0  0  0  0  0  0  0  0  0  0  0  0
   64.4780   33.0240   49.0110 C   0  0  0  0  0  0  0  0  0  0  0  0
   63.9800   33.3520   47.7480 C   0  0  0  0  0  0  0  0  0  0  0  0
   62.8470   32.7000   47.2490 C   0  0  0  0  0  0  0  0  0  0  0  0
   59.7330   31.2450   48.0530 C   0  0  0  0  0  0  0  0  0  0  0  0
   58.6030   30.5920   47.5550 C   0  0  0  0  0  0  0  0  0  0  0  0
   57.7420   31.7420   44.5400 C   0  0  0  0  0  0  0  0  0  0  0  0
   59.7127   34.3688   47.3022 H   0  0  0  0  0  0  0  0  0  0  0  0
   60.3934   33.3549   45.9849 H   0  0  0  0  0  0  0  0  0  0  0  0
   60.6675   35.1302   45.9849 H   0  0  0  0  0  0  0  0  0  0  0  0
   57.8339   34.0599   45.9495 H   0  0  0  0  0  0  0  0  0  0  0  0
   58.4974   35.6078   45.2966 H   0  0  0  0  0  0  0  0  0  0  0  0
   58.0930   33.5172   41.6376 H   0  0  0  0  0  0  0  0  0  0  0  0
   56.8903   31.5311   40.7437 H   0  0  0  0  0  0  0  0  0  0  0  0
   56.2259   29.6752   42.2700 H   0  0  0  0  0  0  0  0  0  0  0  0
   60.0739   28.7439   45.0852 H   0  0  0  0  0  0  0  0  0  0  0  0
   62.0919   29.9126   45.9620 H   0  0  0  0  0  0  0  0  0  0  0  0
   62.2212   30.6131   49.8911 H   0  0  0  0  0  0  0  0  0  0  0  0
   64.2391   31.7843   50.7725 H   0  0  0  0  0  0  0  0  0  0  0  0
   65.3680   33.5389   49.4019 H   0  0  0  0  0  0  0  0  0  0  0  0
   64.4794   34.1243   47.1445 H   0  0  0  0  0  0  0  0  0  0  0  0
   62.4583   32.9639   46.2544 H   0  0  0  0  0  0  0  0  0  0  0  0
   59.6321   31.9455   48.8951 H   0  0  0  0  0  0  0  0  0  0  0  0
   57.6210   30.7711   48.0171 H   0  0  0  0  0  0  0  0  0  0  0  0
   57.9972   31.7955   45.6087 H   0  0  0  0  0  0  0  0  0  0  0  0
  1  2  1  0
  2  3  1  0
  3  4  1  0
  4  5  2  0
  5  6  1  0
  6  7  2  0
  7  8  1  0
  8  9  1  0
  9 10  2  0
  9 11  1  0
 11 12  1  0
 12 13  2  0
 13 14  1  0
 14 15  2  0
 15 16  1  0
 16 17  2  0
 17 18  1  0
 18 19  2  0
 19 20  1  0
 20 21  2  0
 15 22  1  0
 22 23  2  0
  8 24  2  0
 24  4  1  0
 23 12  1  0
 21 16  1  0
  1 25  1  0
  1 26  1  0
  1 27  1  0
  2 28  1  0
  2 29  1  0
  5 30  1  0
  6 31  1  0
  7 32  1  0
 13 33  1  0
 14 34  1  0
 17 35  1  0
 18 36  1  0
 19 37  1  0
 20 38  1  0
 21 39  1  0
 22 40  1  0
 23 41  1  0
 24 42  1  0
M  CHG  1  11  -1
M  END
>  <UniqueID>  (75) 
66

>  <SMILES>  (75) 
CCOc1cccc(C(=O)[N-]c2ccc(-c3ccccc3)cc2)c1

>  <Energy>  (75) 
54.66427560788748

>  <Genealogy>  (75) 
CCOc1cccc(C(=O)[N-]c2ccc(-c3ccccc3)cc2)c1 (protonated)
CCOc1cccc(C(=O)[N-]c2ccc(-c3ccccc3)cc2)c1 (3D coordinates assigned)
CCOc1cccc(C(=O)[N-]c2ccc(-c3ccccc3)cc2)c1 (optimized conformer: 54.66427560788748 kcal/mol)

>  <smiles>  (75) 
CCOc1cccc(C(=O)Nc2ccc(-c3ccccc3)cc2)c1

>  <score_type>  (75) 
oracle

>  <origin>  (75) 
adg

>  <m_score__min__energy>  (75) 
-9.4399999999999995

>  <m_primary>  (75) 
energy

$$$$
75:0
     RDKit          3D

 48 51  0  0  0  0  0  0  0  0999 V2000
   64.9558   33.9484   48.2319 H   0  0  0  0  0  0  0  0  0  0  0  0
   63.8840   33.7260   48.1230 C   0  0  0  0  0  0  0  0  0  0  0  0
   63.3790   33.3160   46.8870 C   0  0  0  0  0  0  0  0  0  0  0  0
   64.0559   33.2114   46.0263 H   0  0  0  0  0  0  0  0  0  0  0  0
   62.0170   33.0380   46.7390 C   0  0  0  0  0  0  0  0  0  0  0  0
   61.6293   32.7066   45.7644 H   0  0  0  0  0  0  0  0  0  0  0  0
   61.1370   33.1800   47.8320 C   0  0  0  0  0  0  0  0  0  0  0  0
   59.7480   32.9150   47.7350 C   0  0  0  0  0  0  0  0  0  0  0  0
   59.0970   32.5390   46.4600 C   0  0  0  0  0  0  0  0  0  0  0  0
   59.0690   33.4410   45.3860 C   0  0  0  0  0  0  0  0  0  0  0  0
   59.5488   34.4256   45.4877 H   0  0  0  0  0  0  0  0  0  0  0  0
   58.4370   33.0990   44.1890 C   0  0  0  0  0  0  0  0  0  0  0  0
   58.4273   33.8123   43.3517 H   0  0  0  0  0  0  0  0  0  0  0  0
   57.8130   31.8470   44.0490 C   0  0  0  0  0  0  0  0  0  0  0  0
   57.1650   31.4670   42.8560 C   0  0  0  0  0  0  0  0  0  0  0  0
   57.1310   32.2490   41.8660 O   0  0  0  0  0  0  0  0  0  0  0  0
   56.5690   30.2460   42.7630 N   0  0  0  0  0  0  0  0  0  0  0  0
   56.0920   29.9710   41.8750 H   0  0  0  0  0  0  0  0  0  0  0  0
   56.5760   29.3650   43.7990 C   0  0  0  0  0  0  0  0  0  0  0  0
   56.0844   28.3872   43.6885 H   0  0  0  0  0  0  0  0  0  0  0  0
   57.2030   29.6940   45.0010 C   0  0  0  0  0  0  0  0  0  0  0  0
   57.2070   28.9799   45.8377 H   0  0  0  0  0  0  0  0  0  0  0  0
   57.8270   30.9400   45.1340 C   0  0  0  0  0  0  0  0  0  0  0  0
   58.4650   31.2930   46.3330 C   0  0  0  0  0  0  0  0  0  0  0  0
   58.4696   30.5888   47.1780 H   0  0  0  0  0  0  0  0  0  0  0  0
   58.9500   33.0240   48.8830 C   0  0  0  0  0  0  0  0  0  0  0  0
   57.8741   32.8025   48.8258 H   0  0  0  0  0  0  0  0  0  0  0  0
   59.5170   33.4130   50.0990 C   0  0  0  0  0  0  0  0  0  0  0  0
   58.7640   33.5160   51.1520 N   0  0  0  0  0  0  0  0  0  0  0  0
   57.7600   32.5290   51.5440 C   0  0  0  0  0  0  0  0  0  0  0  0
   56.8526   32.6767   50.9400 H   0  0  0  0  0  0  0  0  0  0  0  0
   57.5314   32.6602   52.6119 H   0  0  0  0  0  0  0  0  0  0  0  0
   58.2900   31.0990   51.3210 C   0  0  0  0  0  0  0  0  0  0  0  0
   59.1834   30.9648   51.9485 H   0  0  0  0  0  0  0  0  0  0  0  0
   58.4948   31.0124   50.2437 H   0  0  0  0  0  0  0  0  0  0  0  0
   57.3320   30.0160   51.6480 N   0  0  0  0  0  0  0  0  0  0  0  0
   55.9900   30.5130   51.9910 C   0  0  0  0  0  0  0  0  0  0  0  0
   55.8823   30.5529   53.0850 H   0  0  0  0  0  0  0  0  0  0  0  0
   55.8542   31.5211   51.5722 H   0  0  0  0  0  0  0  0  0  0  0  0
   55.2304   29.8366   51.5722 H   0  0  0  0  0  0  0  0  0  0  0  0
   57.8310   29.0790   52.6650 C   0  0  0  0  0  0  0  0  0  0  0  0
   57.6182   29.4785   53.6675 H   0  0  0  0  0  0  0  0  0  0  0  0
   57.3313   28.1065   52.5442 H   0  0  0  0  0  0  0  0  0  0  0  0
   58.9168   28.9509   52.5442 H   0  0  0  0  0  0  0  0  0  0  0  0
   60.8500   33.6820   50.1670 N   0  0  0  0  0  0  0  0  0  0  0  0
   61.6650   33.5780   49.0850 C   0  0  0  0  0  0  0  0  0  0  0  0
   63.0300   33.8540   49.2210 C   0  0  0  0  0  0  0  0  0  0  0  0
   63.4314   34.1724   50.1944 H   0  0  0  0  0  0  0  0  0  0  0  0
  1  2  1  0
  2  3  2  0
  3  4  1  0
  3  5  1  0
  5  6  1  0
  5  7  2  0
  7  8  1  0
  8  9  1  0
  9 10  2  0
 10 11  1  0
 10 12  1  0
 12 13  1  0
 12 14  2  0
 14 15  1  0
 15 16  2  0
 15 17  1  0
 17 18  1  0
 17 19  1  0
 19 20  1  0
 19 21  2  0
 21 22  1  0
 21 23  1  0
 23 24  2  0
 24 25  1  0
  8 26  2  0
 26 27  1  0
 26 28  1  0
 28 29  2  0
 29 30  1  0
 30 31  1  0
 30 32  1  0
 30 33  1  0
 33 34  1  0
 33 35  1  0
 33 36  1  0
 36 37  1  0
 37 38  1  0
 37 39  1  0
 37 40  1  0
 36 41  1  0
 41 42  1  0
 41 43  1  0
 41 44  1  0
 28 45  1  0
 45 46  1  0
 46 47  2  0
 47 48  1  0
 47  2  1  0
 46  7  1  0
 24  9  1  0
 23 14  1  0
M  CHG  1  45  -1
M  END
>  <UniqueID>  (76) 
67

>  <SMILES>  (76) 
CN(C)CC/N=c1/cc(-c2ccc3c(=O)[nH]ccc3c2)c2ccccc2[n-]1

>  <Energy>  (76) 
70.11280452644975

>  <Genealogy>  (76) 
CN(C)CCN=c1cc(-c2ccc3c(=O)[nH]ccc3c2)c2ccccc2[n-]1 (protonated)
CN(C)CC/N=c1/cc(-c2ccc3c(=O)[nH]ccc3c2)c2ccccc2[n-]1 (cis-trans isomerization)
CN(C)CC/N=c1/cc(-c2ccc3c(=O)[nH]ccc3c2)c2ccccc2[n-]1 (3D coordinates assigned)
CN(C)CC/N=c1/cc(-c2ccc3c(=O)[nH]ccc3c2)c2ccccc2[n-]1 (optimized conformer: 70.11280452644975 kcal/mol)

>  <smiles>  (76) 
CN(C)CCN=c1cc(-c2ccc3c(=O)[nH]ccc3c2)c2ccccc2[nH]1

>  <score_type>  (76) 
oracle

>  <origin>  (76) 
adg

>  <m_score__min__energy>  (76) 
-9.5399999999999991

>  <m_primary>  (76) 
energy

$$$$
76:0
     RDKit          3D

 45 46  0  0  0  0  0  0  0  0999 V2000
   59.2030   25.6500   46.8120 C   0  0  0  0  0  0  0  0  0  0  0  0
   58.6830   26.8900   46.1310 C   0  0  0  0  0  0  0  0  0  0  0  0
   59.5970   27.8060   45.6040 C   0  0  0  0  0  0  0  0  0  0  0  0
   59.1490   28.9450   44.9380 C   0  0  0  0  0  0  0  0  0  0  0  0
   60.0050   29.7350   44.4510 O   0  0  0  0  0  0  0  0  0  0  0  0
   57.8060   29.1930   44.8050 N   0  0  0  0  0  0  0  0  0  0  0  0
   57.3330   30.3650   44.0390 C   0  0  0  0  0  0  0  0  0  0  0  0
   58.0210   31.6600   44.5060 C   0  0  0  0  0  0  0  0  0  0  0  0
   57.7810   31.9410   46.0050 C   0  0  0  0  0  0  0  0  0  0  0  0
   57.6200   33.3740   46.3370 N   0  0  0  0  0  0  0  0  0  0  0  0
   57.3570   34.2130   45.1580 C   0  0  0  0  0  0  0  0  0  0  0  0
   58.7370   33.9080   47.1340 C   0  0  0  0  0  0  0  0  0  0  0  0
   56.8870   28.3240   45.3390 C   0  0  0  0  0  0  0  0  0  0  0  0
   55.5250   28.6050   45.2270 O   0  0  0  0  0  0  0  0  0  0  0  0
   57.2990   27.1440   45.9950 C   0  0  0  0  0  0  0  0  0  0  0  0
   56.2580   26.1420   46.4660 C   0  0  0  0  0  0  0  0  0  0  0  0
   55.9930   25.0940   45.4120 C   0  0  0  0  0  0  0  0  0  0  0  0
   56.9670   24.8010   44.4410 C   0  0  0  0  0  0  0  0  0  0  0  0
   56.7220   23.8290   43.4670 C   0  0  0  0  0  0  0  0  0  0  0  0
   55.5090   23.1340   43.4580 C   0  0  0  0  0  0  0  0  0  0  0  0
   54.5410   23.4080   44.4270 C   0  0  0  0  0  0  0  0  0  0  0  0
   54.7820   24.3790   45.4040 C   0  0  0  0  0  0  0  0  0  0  0  0
   59.1483   25.7805   47.9029 H   0  0  0  0  0  0  0  0  0  0  0  0
   58.5918   24.7849   46.5151 H   0  0  0  0  0  0  0  0  0  0  0  0
   60.2484   25.4796   46.5151 H   0  0  0  0  0  0  0  0  0  0  0  0
   60.6766   27.6269   45.7155 H   0  0  0  0  0  0  0  0  0  0  0  0
   57.5535   30.2077   42.9729 H   0  0  0  0  0  0  0  0  0  0  0  0
   56.2506   30.4708   44.2040 H   0  0  0  0  0  0  0  0  0  0  0  0
   59.1033   31.5687   44.3317 H   0  0  0  0  0  0  0  0  0  0  0  0
   57.5919   32.4954   43.9333 H   0  0  0  0  0  0  0  0  0  0  0  0
   56.8676   31.4111   46.3130 H   0  0  0  0  0  0  0  0  0  0  0  0
   58.6775   31.5925   46.5387 H   0  0  0  0  0  0  0  0  0  0  0  0
   57.0428   35.2155   45.4841 H   0  0  0  0  0  0  0  0  0  0  0  0
   58.2728   34.2942   44.5541 H   0  0  0  0  0  0  0  0  0  0  0  0
   56.5587   33.7569   44.5541 H   0  0  0  0  0  0  0  0  0  0  0  0
   58.5087   33.7989   48.2045 H   0  0  0  0  0  0  0  0  0  0  0  0
   59.6558   33.3517   46.8965 H   0  0  0  0  0  0  0  0  0  0  0  0
   58.8810   34.9723   46.8965 H   0  0  0  0  0  0  0  0  0  0  0  0
   56.6223   25.6485   47.3791 H   0  0  0  0  0  0  0  0  0  0  0  0
   55.3201   26.6814   46.6645 H   0  0  0  0  0  0  0  0  0  0  0  0
   57.9263   25.3393   44.4480 H   0  0  0  0  0  0  0  0  0  0  0  0
   57.4854   23.6104   42.7058 H   0  0  0  0  0  0  0  0  0  0  0  0
   55.3170   22.3719   42.6884 H   0  0  0  0  0  0  0  0  0  0  0  0
   53.5877   22.8592   44.4216 H   0  0  0  0  0  0  0  0  0  0  0  0
   54.0202   24.5847   46.1704 H   0  0  0  0  0  0  0  0  0  0  0  0
  1  2  1  0
  2  3  2  0
  3  4  1  0
  4  5  2  0
  4  6  1  0
  6  7  1  0
  7  8  1  0
  8  9  1  0
  9 10  1  0
 10 11  1  0
 10 12  1  0
  6 13  1  0
 13 14  1  0
 13 15  2  0
 15 16  1  0
 16 17  1  0
 17 18  2  0
 18 19  1  0
 19 20  2  0
 20 21  1  0
 21 22  2  0
 15  2  1  0
 22 17  1  0
  1 23  1  0
  1 24  1  0
  1 25  1  0
  3 26  1  0
  7 27  1  0
  7 28  1  0
  8 29  1  0
  8 30  1  0
  9 31  1  0
  9 32  1  0
 11 33  1  0
 11 34  1  0
 11 35  1  0
 12 36  1  0
 12 37  1  0
 12 38  1  0
 16 39  1  0
 16 40  1  0
 18 41  1  0
 19 42  1  0
 20 43  1  0
 21 44  1  0
 22 45  1  0
M  CHG  1  14  -1
M  END
>  <UniqueID>  (77) 
68

>  <SMILES>  (77) 
Cc1cc(=O)n(CCCN(C)C)c([O-])c1Cc1ccccc1

>  <Energy>  (77) 
48.853183025639716

>  <Genealogy>  (77) 
Cc1cc(=O)n(CCCN(C)C)c([O-])c1Cc1ccccc1 (protonated)
Cc1cc(=O)n(CCCN(C)C)c([O-])c1Cc1ccccc1 (3D coordinates assigned)
Cc1cc(=O)n(CCCN(C)C)c([O-])c1Cc1ccccc1 (optimized conformer: 48.853183025639716 kcal/mol)

>  <smiles>  (77) 
Cc1cc(=O)n(CCCN(C)C)c(O)c1Cc1ccccc1

>  <score_type>  (77) 
oracle

>  <origin>  (77) 
adg

>  <m_score__min__energy>  (77) 
-10.26

>  <m_primary>  (77) 
energy

$$$$
77:0
     RDKit          3D

 31 32  0  0  0  0  0  0  0  0999 V2000
   60.0890   27.5620   47.3200 C   0  0  0  0  0  0  0  0  0  0  0  0
   59.1040   27.8690   46.2420 C   0  0  0  0  0  0  0  0  0  0  0  0
   58.0740   28.7840   46.3340 C   0  0  0  0  0  0  0  0  0  0  0  0
   57.4220   28.7310   45.1170 C   0  0  0  0  0  0  0  0  0  0  0  0
   56.2490   29.5390   44.7360 C   0  0  0  0  0  0  0  0  0  0  0  0
   55.1460   28.9670   44.5170 O   0  0  0  0  0  0  0  0  0  0  0  0
   56.3510   30.9580   44.6160 N   0  0  0  0  0  0  0  0  0  0  0  0
   57.7660   31.7410   43.9980 S   0  0  0  0  0  0  0  0  0  0  0  0
   58.8400   30.7160   43.7690 O   0  0  0  0  0  0  0  0  0  0  0  0
   57.4270   32.4000   42.6900 O   0  0  0  0  0  0  0  0  0  0  0  0
   58.3440   32.9340   45.1570 C   0  0  0  0  0  0  0  0  0  0  0  0
   59.0500   34.0630   44.7220 C   0  0  0  0  0  0  0  0  0  0  0  0
   59.5080   35.0060   45.6480 C   0  0  0  0  0  0  0  0  0  0  0  0
   59.2640   34.8230   47.0120 C   0  0  0  0  0  0  0  0  0  0  0  0
   58.5640   33.6960   47.4520 C   0  0  0  0  0  0  0  0  0  0  0  0
   58.1070   32.7510   46.5280 C   0  0  0  0  0  0  0  0  0  0  0  0
   58.1020   27.7830   44.3620 C   0  0  0  0  0  0  0  0  0  0  0  0
   57.7970   27.3520   42.9640 C   0  0  0  0  0  0  0  0  0  0  0  0
   59.0970   27.2880   45.0640 O   0  0  0  0  0  0  0  0  0  0  0  0
   59.6157   27.7095   48.3020 H   0  0  0  0  0  0  0  0  0  0  0  0
   60.4214   26.5176   47.2264 H   0  0  0  0  0  0  0  0  0  0  0  0
   60.9559   28.2326   47.2264 H   0  0  0  0  0  0  0  0  0  0  0  0
   57.8249   29.4213   47.1953 H   0  0  0  0  0  0  0  0  0  0  0  0
   59.2448   34.2084   43.6492 H   0  0  0  0  0  0  0  0  0  0  0  0
   60.0606   35.8922   45.3025 H   0  0  0  0  0  0  0  0  0  0  0  0
   59.6229   35.5660   47.7394 H   0  0  0  0  0  0  0  0  0  0  0  0
   58.3725   33.5523   48.5256 H   0  0  0  0  0  0  0  0  0  0  0  0
   57.5605   31.8623   46.8766 H   0  0  0  0  0  0  0  0  0  0  0  0
   57.1617   26.4543   42.9874 H   0  0  0  0  0  0  0  0  0  0  0  0
   57.2692   28.1610   42.4378 H   0  0  0  0  0  0  0  0  0  0  0  0
   58.7355   27.1234   42.4378 H   0  0  0  0  0  0  0  0  0  0  0  0
  1  2  1  0
  2  3  2  0
  3  4  1  0
  4  5  1  0
  5  6  2  0
  5  7  1  0
  7  8  1  0
  8  9  2  0
  8 10  2  0
  8 11  1  0
 11 12  2  0
 12 13  1  0
 13 14  2  0
 14 15  1  0
 15 16  2  0
  4 17  2  0
 17 18  1  0
 17 19  1  0
 19  2  1  0
 16 11  1  0
  1 20  1  0
  1 21  1  0
  1 22  1  0
  3 23  1  0
 12 24  1  0
 13 25  1  0
 14 26  1  0
 15 27  1  0
 16 28  1  0
 18 29  1  0
 18 30  1  0
 18 31  1  0
M  CHG  1   7  -1
M  END
>  <UniqueID>  (78) 
69

>  <SMILES>  (78) 
Cc1cc(C(=O)[N-]S(=O)(=O)c2ccccc2)c(C)o1

>  <Energy>  (78) 
56.91467759807629

>  <Genealogy>  (78) 
Cc1cc(C(=O)[N-]S(=O)(=O)c2ccccc2)c(C)o1 (protonated)
Cc1cc(C(=O)[N-]S(=O)(=O)c2ccccc2)c(C)o1 (3D coordinates assigned)
Cc1cc(C(=O)[N-]S(=O)(=O)c2ccccc2)c(C)o1 (optimized conformer: 56.91467759807629 kcal/mol)

>  <smiles>  (78) 
Cc1cc(C(=O)NS(=O)(=O)c2ccccc2)c(C)o1

>  <score_type>  (78) 
oracle

>  <origin>  (78) 
adg

>  <m_score__min__energy>  (78) 
-8.9299999999999997

>  <m_primary>  (78) 
energy

$$$$
78:0
     RDKit          3D

 56 58  0  0  0  0  0  0  0  0999 V2000
   54.5070   25.0000   45.6290 C   0  0  0  0  0  0  0  0  0  0  0  0
   54.9490   26.3040   45.9930 O   0  0  0  0  0  0  0  0  0  0  0  0
   56.2900   26.7150   45.9910 C   0  0  0  0  0  0  0  0  0  0  0  0
   56.7090   27.9260   45.4090 C   0  0  0  0  0  0  0  0  0  0  0  0
   58.0600   28.2910   45.4330 C   0  0  0  0  0  0  0  0  0  0  0  0
   59.0100   27.4510   46.0340 C   0  0  0  0  0  0  0  0  0  0  0  0
   60.4610   27.8530   46.0730 C   0  0  0  0  0  0  0  0  0  0  0  0
   60.6790   29.3160   45.6550 C   0  0  0  0  0  0  0  0  0  0  0  0
   60.9250   30.1760   46.8160 N   0  0  0  0  0  0  0  0  0  0  0  0
   60.2280   30.0960   48.0730 C   0  0  0  0  0  0  0  0  0  0  0  0
   59.0440   29.5570   48.1520 N   0  0  0  0  0  0  0  0  0  0  0  0
   60.8560   30.6600   49.2400 N   0  0  0  0  0  0  0  0  0  0  0  0
   60.5190   30.2390   50.6010 C   0  0  0  0  0  0  0  0  0  0  0  0
   59.8070   31.3370   51.3600 C   0  0  0  0  0  0  0  0  0  0  0  0
   60.1600   31.6050   52.6920 C   0  0  0  0  0  0  0  0  0  0  0  0
   59.5120   32.6160   53.4030 C   0  0  0  0  0  0  0  0  0  0  0  0
   58.5110   33.3550   52.7780 C   0  0  0  0  0  0  0  0  0  0  0  0
   58.1740   33.0910   51.4890 N   0  0  0  0  0  0  0  0  0  0  0  0
   58.7910   32.1190   50.7650 C   0  0  0  0  0  0  0  0  0  0  0  0
   58.3730   31.8950   49.4500 O   0  0  0  0  0  0  0  0  0  0  0  0
   58.6010   32.7770   48.3840 C   0  0  0  0  0  0  0  0  0  0  0  0
   57.7920   32.6680   47.2480 C   0  0  0  0  0  0  0  0  0  0  0  0
   57.9970   33.5070   46.1480 C   0  0  0  0  0  0  0  0  0  0  0  0
   59.0090   34.4770   46.1780 C   0  0  0  0  0  0  0  0  0  0  0  0
   59.2770   35.3260   44.9710 C   0  0  0  0  0  0  0  0  0  0  0  0
   59.8190   34.5920   47.3180 C   0  0  0  0  0  0  0  0  0  0  0  0
   59.6090   33.7580   48.4200 C   0  0  0  0  0  0  0  0  0  0  0  0
   58.5880   26.2480   46.6170 C   0  0  0  0  0  0  0  0  0  0  0  0
   57.2400   25.8830   46.5940 C   0  0  0  0  0  0  0  0  0  0  0  0
   54.3081   24.4132   46.5379 H   0  0  0  0  0  0  0  0  0  0  0  0
   53.5851   25.0781   45.0340 H   0  0  0  0  0  0  0  0  0  0  0  0
   55.2864   24.5015   45.0340 H   0  0  0  0  0  0  0  0  0  0  0  0
   55.9713   28.5887   44.9330 H   0  0  0  0  0  0  0  0  0  0  0  0
   58.3786   29.2408   44.9786 H   0  0  0  0  0  0  0  0  0  0  0  0
   60.8364   27.7196   47.0983 H   0  0  0  0  0  0  0  0  0  0  0  0
   61.0029   27.2171   45.3574 H   0  0  0  0  0  0  0  0  0  0  0  0
   61.5463   29.3695   44.9805 H   0  0  0  0  0  0  0  0  0  0  0  0
   59.7678   29.6700   45.1505 H   0  0  0  0  0  0  0  0  0  0  0  0
   61.7350   30.8320   46.7530 H   0  0  0  0  0  0  0  0  0  0  0  0
   58.1780   30.1310   48.2350 H   0  0  0  0  0  0  0  0  0  0  0  0
   58.9070   28.5240   48.1600 H   0  0  0  0  0  0  0  0  0  0  0  0
   61.6630   31.3070   49.0900 H   0  0  0  0  0  0  0  0  0  0  0  0
   59.8641   29.3566   50.5505 H   0  0  0  0  0  0  0  0  0  0  0  0
   61.4536   30.0028   51.1309 H   0  0  0  0  0  0  0  0  0  0  0  0
   60.9513   31.0152   53.1777 H   0  0  0  0  0  0  0  0  0  0  0  0
   59.7892   32.8269   54.4464 H   0  0  0  0  0  0  0  0  0  0  0  0
   57.9925   34.1536   53.3288 H   0  0  0  0  0  0  0  0  0  0  0  0
   56.9888   31.9170   47.2197 H   0  0  0  0  0  0  0  0  0  0  0  0
   57.3618   33.4055   45.2557 H   0  0  0  0  0  0  0  0  0  0  0  0
   59.5938   36.3295   45.2915 H   0  0  0  0  0  0  0  0  0  0  0  0
   60.0734   34.8652   44.3681 H   0  0  0  0  0  0  0  0  0  0  0  0
   58.3604   35.4060   44.3681 H   0  0  0  0  0  0  0  0  0  0  0  0
   60.6232   35.3421   47.3446 H   0  0  0  0  0  0  0  0  0  0  0  0
   60.2339   33.8690   49.3184 H   0  0  0  0  0  0  0  0  0  0  0  0
   59.3244   25.5862   47.0964 H   0  0  0  0  0  0  0  0  0  0  0  0
   56.9229   24.9350   47.0531 H   0  0  0  0  0  0  0  0  0  0  0  0
  1  2  1  0
  2  3  1  0
  3  4  2  0
  4  5  1  0
  5  6  2  0
  6  7  1  0
  7  8  1  0
  8  9  1  0
  9 10  1  0
 10 11  2  0
 10 12  1  0
 12 13  1  0
 13 14  1  0
 14 15  2  0
 15 16  1  0
 16 17  2  0
 17 18  1  0
 18 19  2  0
 19 20  1  0
 20 21  1  0
 21 22  2  0
 22 23  1  0
 23 24  2  0
 24 25  1  0
 24 26  1  0
 26 27  2  0
  6 28  1  0
 28 29  2  0
 29  3  1  0
 19 14  1  0
 27 21  1  0
  1 30  1  0
  1 31  1  0
  1 32  1  0
  4 33  1  0
  5 34  1  0
  7 35  1  0
  7 36  1  0
  8 37  1  0
  8 38  1  0
  9 39  1  0
 11 40  1  0
 11 41  1  0
 12 42  1  0
 13 43  1  0
 13 44  1  0
 15 45  1  0
 16 46  1  0
 17 47  1  0
 22 48  1  0
 23 49  1  0
 25 50  1  0
 25 51  1  0
 25 52  1  0
 26 53  1  0
 27 54  1  0
 28 55  1  0
 29 56  1  0
M  CHG  1  11   1
M  END
>  <UniqueID>  (79) 
70

>  <SMILES>  (79) 
COc1ccc(CCNC(=[NH2+])NCc2cccnc2Oc2ccc(C)cc2)cc1

>  <Energy>  (79) 
59.35255304087412

>  <Genealogy>  (79) 
COc1ccc(CCNC(=[NH2+])NCc2cccnc2Oc2ccc(C)cc2)cc1 (protonated)
COc1ccc(CCNC(=[NH2+])NCc2cccnc2Oc2ccc(C)cc2)cc1 (3D coordinates assigned)
COc1ccc(CCNC(=[NH2+])NCc2cccnc2Oc2ccc(C)cc2)cc1 (optimized conformer: 59.35255304087412 kcal/mol)

>  <smiles>  (79) 
COc1ccc(CCNC(=N)NCc2cccnc2Oc2ccc(C)cc2)cc1

>  <score_type>  (79) 
oracle

>  <origin>  (79) 
adg

>  <m_score__min__energy>  (79) 
-6.5999999999999996

>  <m_primary>  (79) 
energy

$$$$
79:0
     RDKit          3D

 28 29  0  0  0  0  0  0  0  0999 V2000
   59.6623   25.4200   47.0097 H   0  0  0  0  0  0  0  0  0  0  0  0
   59.0380   26.1720   46.5050 C   0  0  0  0  0  0  0  0  0  0  0  0
   59.6370   27.2400   45.8330 C   0  0  0  0  0  0  0  0  0  0  0  0
   60.7329   27.3342   45.8178 H   0  0  0  0  0  0  0  0  0  0  0  0
   58.8460   28.1890   45.1800 C   0  0  0  0  0  0  0  0  0  0  0  0
   59.3218   29.0373   44.6662 H   0  0  0  0  0  0  0  0  0  0  0  0
   57.4500   28.0660   45.1760 C   0  0  0  0  0  0  0  0  0  0  0  0
   56.6690   29.0740   44.5130 N   0  0  0  0  0  0  0  0  0  0  0  0
   57.0420   30.3000   44.2830 C   0  0  0  0  0  0  0  0  0  0  0  0
   57.0450   31.2280   45.2790 N   0  0  0  0  0  0  0  0  0  0  0  0
   57.4090   32.5160   45.0460 C   0  0  0  0  0  0  0  0  0  0  0  0
   57.3830   33.5110   46.1620 C   0  0  0  0  0  0  0  0  0  0  0  0
   57.3968   32.9813   47.1259 H   0  0  0  0  0  0  0  0  0  0  0  0
   58.2644   34.1653   46.0905 H   0  0  0  0  0  0  0  0  0  0  0  0
   56.4687   34.1184   46.0905 H   0  0  0  0  0  0  0  0  0  0  0  0
   57.7720   32.9070   43.7560 C   0  0  0  0  0  0  0  0  0  0  0  0
   58.0526   33.9493   43.5443 H   0  0  0  0  0  0  0  0  0  0  0  0
   57.7720   31.9480   42.7380 C   0  0  0  0  0  0  0  0  0  0  0  0
   58.1180   32.3410   41.3320 C   0  0  0  0  0  0  0  0  0  0  0  0
   58.8448   33.1665   41.3503 H   0  0  0  0  0  0  0  0  0  0  0  0
   58.5556   31.4788   40.8074 H   0  0  0  0  0  0  0  0  0  0  0  0
   57.2073   32.6658   40.8074 H   0  0  0  0  0  0  0  0  0  0  0  0
   57.3900   30.6680   43.0180 N   0  0  0  0  0  0  0  0  0  0  0  0
   57.3640   29.9570   42.2510 H   0  0  0  0  0  0  0  0  0  0  0  0
   56.8480   27.0060   45.8830 C   0  0  0  0  0  0  0  0  0  0  0  0
   55.4990   26.9150   45.9860 F   0  0  0  0  0  0  0  0  0  0  0  0
   57.6450   26.0590   46.5360 C   0  0  0  0  0  0  0  0  0  0  0  0
   57.1742   25.2237   47.0750 H   0  0  0  0  0  0  0  0  0  0  0  0
  1  2  1  0
  2  3  2  0
  3  4  1  0
  3  5  1  0
  5  6  1  0
  5  7  2  0
  7  8  1  0
  8  9  2  0
  9 10  1  0
 10 11  2  0
 11 12  1  0
 12 13  1  0
 12 14  1  0
 12 15  1  0
 11 16  1  0
 16 17  1  0
 16 18  2  0
 18 19  1  0
 19 20  1  0
 19 21  1  0
 19 22  1  0
 18 23  1  0
 23 24  1  0
  7 25  1  0
 25 26  1  0
 25 27  2  0
 27 28  1  0
 27  2  1  0
 23  9  1  0
M  END
>  <UniqueID>  (80) 
71

>  <SMILES>  (80) 
Cc1cc(C)[nH]/c(=N/c2ccccc2F)n1

>  <Energy>  (80) 
34.20639127229893

>  <Genealogy>  (80) 
Cc1cc(C)[nH]/c(=N/c2ccccc2F)n1 (cis-trans isomerization)
Cc1cc(C)[nH]/c(=N/c2ccccc2F)n1 (3D coordinates assigned)
Cc1cc(C)[nH]/c(=N/c2ccccc2F)n1 (optimized conformer: 34.20639127229893 kcal/mol)

>  <smiles>  (80) 
Cc1cc(C)[nH]c(=Nc2ccccc2F)n1

>  <score_type>  (80) 
oracle

>  <origin>  (80) 
adg

>  <m_score__min__energy>  (80) 
-6.8200000000000003

>  <m_primary>  (80) 
energy

$$$$
80:0
     RDKit          3D

 41 43  0  0  0  0  0  0  0  0999 V2000
   58.7650   34.9630   44.8700 C   0  0  0  0  0  0  0  0  0  0  0  0
   57.4050   33.8130   45.2390 S   0  0  0  0  0  0  0  0  0  0  0  0
   58.5090   32.4870   45.7210 C   0  0  0  0  0  0  0  0  0  0  0  0
   58.1960   31.2070   45.3980 N   0  0  0  0  0  0  0  0  0  0  0  0
   59.0030   30.1680   45.7400 C   0  0  0  0  0  0  0  0  0  0  0  0
   58.6250   28.8210   45.3790 N   0  0  0  0  0  0  0  0  0  0  0  0
   57.8850   28.5920   44.1300 C   0  0  0  0  0  0  0  0  0  0  0  0
   58.1480   27.1770   43.6100 C   0  0  0  0  0  0  0  0  0  0  0  0
   57.9140   26.2190   44.6220 O   0  0  0  0  0  0  0  0  0  0  0  0
   58.8620   26.3850   45.6570 C   0  0  0  0  0  0  0  0  0  0  0  0
   58.6710   27.7310   46.3630 C   0  0  0  0  0  0  0  0  0  0  0  0
   60.1830   30.4320   46.4540 C   0  0  0  0  0  0  0  0  0  0  0  0
   60.5000   31.7590   46.7810 C   0  0  0  0  0  0  0  0  0  0  0  0
   61.7360   32.0720   47.5420 C   0  0  0  0  0  0  0  0  0  0  0  0
   62.6050   33.0910   47.1120 C   0  0  0  0  0  0  0  0  0  0  0  0
   63.7660   33.3840   47.8330 C   0  0  0  0  0  0  0  0  0  0  0  0
   64.0870   32.6550   48.9860 C   0  0  0  0  0  0  0  0  0  0  0  0
   65.3130   32.9930   49.7810 C   0  0  0  0  0  0  0  0  0  0  0  0
   63.2150   31.6490   49.4290 C   0  0  0  0  0  0  0  0  0  0  0  0
   62.0520   31.3560   48.7100 C   0  0  0  0  0  0  0  0  0  0  0  0
   59.6520   32.7610   46.4020 N   0  0  0  0  0  0  0  0  0  0  0  0
   59.1998   35.3307   45.8111 H   0  0  0  0  0  0  0  0  0  0  0  0
   59.5388   34.4411   44.2878 H   0  0  0  0  0  0  0  0  0  0  0  0
   58.3789   35.8127   44.2878 H   0  0  0  0  0  0  0  0  0  0  0  0
   56.8082   28.7154   44.3181 H   0  0  0  0  0  0  0  0  0  0  0  0
   58.2210   29.3190   43.3760 H   0  0  0  0  0  0  0  0  0  0  0  0
   57.4791   26.9749   42.7604 H   0  0  0  0  0  0  0  0  0  0  0  0
   59.1995   27.1070   43.2945 H   0  0  0  0  0  0  0  0  0  0  0  0
   58.7408   25.5736   46.3898 H   0  0  0  0  0  0  0  0  0  0  0  0
   59.8701   26.3587   45.2176 H   0  0  0  0  0  0  0  0  0  0  0  0
   57.7280   27.7132   46.9291 H   0  0  0  0  0  0  0  0  0  0  0  0
   59.5171   27.9004   47.0453 H   0  0  0  0  0  0  0  0  0  0  0  0
   60.8497   29.6096   46.7528 H   0  0  0  0  0  0  0  0  0  0  0  0
   62.3692   33.6615   46.2016 H   0  0  0  0  0  0  0  0  0  0  0  0
   64.4315   34.1914   47.4935 H   0  0  0  0  0  0  0  0  0  0  0  0
   65.0828   32.9295   50.8548 H   0  0  0  0  0  0  0  0  0  0  0  0
   66.1164   32.2828   49.5357 H   0  0  0  0  0  0  0  0  0  0  0  0
   65.6390   34.0145   49.5357 H   0  0  0  0  0  0  0  0  0  0  0  0
   63.4473   31.0881   50.3463 H   0  0  0  0  0  0  0  0  0  0  0  0
   61.3794   30.5594   49.0608 H   0  0  0  0  0  0  0  0  0  0  0  0
   59.8810   33.7560   46.6190 H   0  0  0  0  0  0  0  0  0  0  0  0
  1  2  1  0
  2  3  1  0
  3  4  2  0
  4  5  1  0
  5  6  1  0
  6  7  1  0
  7  8  1  0
  8  9  1  0
  9 10  1  0
 10 11  1  0
  5 12  2  0
 12 13  1  0
 13 14  1  0
 14 15  2  0
 15 16  1  0
 16 17  2  0
 17 18  1  0
 17 19  1  0
 19 20  2  0
 13 21  2  0
 21  3  1  0
 11  6  1  0
 20 14  1  0
  1 22  1  0
  1 23  1  0
  1 24  1  0
  7 25  1  0
  7 26  1  0
  8 27  1  0
  8 28  1  0
 10 29  1  0
 10 30  1  0
 11 31  1  0
 11 32  1  0
 12 33  1  0
 15 34  1  0
 16 35  1  0
 18 36  1  0
 18 37  1  0
 18 38  1  0
 19 39  1  0
 20 40  1  0
 21 41  1  0
M  CHG  1  21   1
M  END
>  <UniqueID>  (81) 
72

>  <SMILES>  (81) 
CSc1nc(N2CCOCC2)cc(-c2ccc(C)cc2)[nH+]1

>  <Energy>  (81) 
46.019871452031786

>  <Genealogy>  (81) 
CSc1nc(N2CCOCC2)cc(-c2ccc(C)cc2)[nH+]1 (protonated)
CSc1nc(N2CCOCC2)cc(-c2ccc(C)cc2)[nH+]1 (3D coordinates assigned)
CSc1nc(N2CCOCC2)cc(-c2ccc(C)cc2)[nH+]1 (nonaromatic ring conformer: 46.019871452031786 kcal/mol)

>  <smiles>  (81) 
CSc1nc(-c2ccc(C)cc2)cc(N2CCOCC2)n1

>  <score_type>  (81) 
oracle

>  <origin>  (81) 
adg

>  <m_score__min__energy>  (81) 
-5.2400000000000002

>  <m_primary>  (81) 
energy

$$$$
81:0
     RDKit          3D

 41 44  0  0  0  0  0  0  0  0999 V2000
   59.5350   26.9090   47.4750 C   0  0  0  0  0  0  0  0  0  0  0  0
   59.1370   27.9950   46.5550 N   0  0  0  0  0  0  0  0  0  0  0  0
   59.7940   29.2000   46.6180 C   0  0  0  0  0  0  0  0  0  0  0  0
   60.7390   29.3860   47.4330 O   0  0  0  0  0  0  0  0  0  0  0  0
   59.4250   30.2400   45.7730 C   0  0  0  0  0  0  0  0  0  0  0  0
   58.3960   30.0540   44.8580 C   0  0  0  0  0  0  0  0  0  0  0  0
   58.0090   31.1210   43.9730 N   0  0  0  0  0  0  0  0  0  0  0  0
   57.5610   30.9510   42.7420 N   0  0  0  0  0  0  0  0  0  0  0  0
   57.4440   32.1220   42.1400 N   0  0  0  0  0  0  0  0  0  0  0  0
   57.8160   33.0850   42.9740 N   0  0  0  0  0  0  0  0  0  0  0  0
   58.1660   32.4560   44.1160 C   0  0  0  0  0  0  0  0  0  0  0  0
   58.6090   33.1670   45.3350 C   0  0  0  0  0  0  0  0  0  0  0  0
   58.0780   32.8440   46.5980 C   0  0  0  0  0  0  0  0  0  0  0  0
   58.5000   33.5330   47.7380 C   0  0  0  0  0  0  0  0  0  0  0  0
   59.4440   34.5580   47.6280 C   0  0  0  0  0  0  0  0  0  0  0  0
   59.9610   34.9000   46.3750 C   0  0  0  0  0  0  0  0  0  0  0  0
   59.5410   34.2120   45.2320 C   0  0  0  0  0  0  0  0  0  0  0  0
   57.7760   28.8030   44.7900 C   0  0  0  0  0  0  0  0  0  0  0  0
   56.8500   28.6120   43.9520 O   0  0  0  0  0  0  0  0  0  0  0  0
   58.1690   27.7940   45.6350 N   0  0  0  0  0  0  0  0  0  0  0  0
   57.5270   26.5090   45.5050 C   0  0  0  0  0  0  0  0  0  0  0  0
   57.9160   25.6280   44.4840 C   0  0  0  0  0  0  0  0  0  0  0  0
   57.2940   24.3820   44.3580 C   0  0  0  0  0  0  0  0  0  0  0  0
   56.2800   24.0120   45.2490 C   0  0  0  0  0  0  0  0  0  0  0  0
   55.8880   24.8890   46.2650 C   0  0  0  0  0  0  0  0  0  0  0  0
   56.5080   26.1350   46.3930 C   0  0  0  0  0  0  0  0  0  0  0  0
   59.4116   27.2457   48.5149 H   0  0  0  0  0  0  0  0  0  0  0  0
   58.9015   26.0274   47.2974 H   0  0  0  0  0  0  0  0  0  0  0  0
   60.5881   26.6455   47.2974 H   0  0  0  0  0  0  0  0  0  0  0  0
   59.9459   31.2072   45.8284 H   0  0  0  0  0  0  0  0  0  0  0  0
   57.3720   30.0300   42.2870 H   0  0  0  0  0  0  0  0  0  0  0  0
   57.3271   32.0452   46.6880 H   0  0  0  0  0  0  0  0  0  0  0  0
   58.0888   33.2684   48.7233 H   0  0  0  0  0  0  0  0  0  0  0  0
   59.7800   35.0953   48.5271 H   0  0  0  0  0  0  0  0  0  0  0  0
   60.6989   35.7111   46.2879 H   0  0  0  0  0  0  0  0  0  0  0  0
   59.9431   34.4912   44.2469 H   0  0  0  0  0  0  0  0  0  0  0  0
   58.7114   25.9182   43.7818 H   0  0  0  0  0  0  0  0  0  0  0  0
   57.6018   23.6923   43.5583 H   0  0  0  0  0  0  0  0  0  0  0  0
   55.7915   23.0314   45.1500 H   0  0  0  0  0  0  0  0  0  0  0  0
   55.0905   24.5979   46.9645 H   0  0  0  0  0  0  0  0  0  0  0  0
   56.1961   26.8238   47.1919 H   0  0  0  0  0  0  0  0  0  0  0  0
  1  2  1  0
  2  3  1  0
  3  4  2  0
  3  5  1  0
  5  6  2  0
  6  7  1  0
  7  8  1  0
  8  9  2  0
  9 10  1  0
 10 11  2  0
 11 12  1  0
 12 13  2  0
 13 14  1  0
 14 15  2  0
 15 16  1  0
 16 17  2  0
  6 18  1  0
 18 19  2  0
 18 20  1  0
 20 21  1  0
 21 22  2  0
 22 23  1  0
 23 24  2  0
 24 25  1  0
 25 26  2  0
 20  2  1  0
 26 21  1  0
 11  7  1  0
 17 12  1  0
  1 27  1  0
  1 28  1  0
  1 29  1  0
  5 30  1  0
  8 31  1  0
 13 32  1  0
 14 33  1  0
 15 34  1  0
 16 35  1  0
 17 36  1  0
 22 37  1  0
 23 38  1  0
 24 39  1  0
 25 40  1  0
 26 41  1  0
M  CHG  1   8   1
M  END
>  <UniqueID>  (82) 
73

>  <SMILES>  (82) 
Cn1c(=O)cc(-n2[nH+]nnc2-c2ccccc2)c(=O)n1-c1ccccc1

>  <Energy>  (82) 
110.09217566082204

>  <Genealogy>  (82) 
Cn1c(=O)cc(-n2[nH+]nnc2-c2ccccc2)c(=O)n1-c1ccccc1 (protonated)
Cn1c(=O)cc(-n2[nH+]nnc2-c2ccccc2)c(=O)n1-c1ccccc1 (3D coordinates assigned)
Cn1c(=O)cc(-n2[nH+]nnc2-c2ccccc2)c(=O)n1-c1ccccc1 (optimized conformer: 110.09217566082204 kcal/mol)

>  <smiles>  (82) 
Cn1c(=O)cc(-n2nnnc2-c2ccccc2)c(=O)n1-c1ccccc1

>  <score_type>  (82) 
oracle

>  <origin>  (82) 
adg

>  <m_score__min__energy>  (82) 
-6.9299999999999997

>  <m_primary>  (82) 
energy

$$$$
82:0
     RDKit          3D

 29 31  0  0  0  0  0  0  0  0999 V2000
   59.6330   35.0210   46.9050 F   0  0  0  0  0  0  0  0  0  0  0  0
   58.9670   34.0590   46.2180 C   0  0  0  0  0  0  0  0  0  0  0  0
   58.4950   34.4200   44.9670 C   0  0  0  0  0  0  0  0  0  0  0  0
   57.8100   33.4570   44.2410 C   0  0  0  0  0  0  0  0  0  0  0  0
   57.5970   32.1740   44.7340 C   0  0  0  0  0  0  0  0  0  0  0  0
   56.8650   31.1710   43.9390 C   0  0  0  0  0  0  0  0  0  0  0  0
   55.8680   30.3840   44.4900 C   0  0  0  0  0  0  0  0  0  0  0  0
   55.4440   29.6060   43.4770 N   0  0  0  0  0  0  0  0  0  0  0  0
   56.1200   29.8780   42.3720 N   0  0  0  0  0  0  0  0  0  0  0  0
   57.0280   30.8560   42.6050 C   0  0  0  0  0  0  0  0  0  0  0  0
   58.0780   31.8340   45.9910 C   0  0  0  0  0  0  0  0  0  0  0  0
   57.8390   30.5540   46.4270 O   0  0  0  0  0  0  0  0  0  0  0  0
   58.6800   29.4780   46.2980 C   0  0  0  0  0  0  0  0  0  0  0  0
   59.6010   29.3370   45.2770 C   0  0  0  0  0  0  0  0  0  0  0  0
   60.4040   28.1960   45.2500 C   0  0  0  0  0  0  0  0  0  0  0  0
   60.3020   27.2160   46.2080 C   0  0  0  0  0  0  0  0  0  0  0  0
   59.3970   27.3920   47.1790 N   0  0  0  0  0  0  0  0  0  0  0  0
   58.5930   28.4710   47.2600 C   0  0  0  0  0  0  0  0  0  0  0  0
   58.7630   32.7860   46.7260 C   0  0  0  0  0  0  0  0  0  0  0  0
   58.6571   35.4310   44.5649 H   0  0  0  0  0  0  0  0  0  0  0  0
   57.4232   33.7160   43.2444 H   0  0  0  0  0  0  0  0  0  0  0  0
   55.5028   30.3927   45.5276 H   0  0  0  0  0  0  0  0  0  0  0  0
   55.9610   29.3980   41.4630 H   0  0  0  0  0  0  0  0  0  0  0  0
   57.7369   31.3000   41.8906 H   0  0  0  0  0  0  0  0  0  0  0  0
   59.6991   30.1097   44.5003 H   0  0  0  0  0  0  0  0  0  0  0  0
   61.1386   28.0778   44.4398 H   0  0  0  0  0  0  0  0  0  0  0  0
   60.9400   26.3204   46.1782 H   0  0  0  0  0  0  0  0  0  0  0  0
   57.8691   28.5575   48.0837 H   0  0  0  0  0  0  0  0  0  0  0  0
   59.1494   32.5295   47.7235 H   0  0  0  0  0  0  0  0  0  0  0  0
  1  2  1  0
  2  3  2  0
  3  4  1  0
  4  5  2  0
  5  6  1  0
  6  7  1  0
  7  8  2  0
  8  9  1  0
  9 10  1  0
  5 11  1  0
 11 12  1  0
 12 13  1  0
 13 14  2  0
 14 15  1  0
 15 16  2  0
 16 17  1  0
 17 18  2  0
 11 19  2  0
 19  2  1  0
 10  6  2  0
 18 13  1  0
  3 20  1  0
  4 21  1  0
  7 22  1  0
  9 23  1  0
 10 24  1  0
 14 25  1  0
 15 26  1  0
 16 27  1  0
 18 28  1  0
 19 29  1  0
M  END
>  <smiles>  (83) 
Fc1ccc(-c2cn[nH]c2)c(Oc2cccnc2)c1

>  <score_type>  (83) 
oracle

>  <origin>  (83) 
adg

>  <m_score__min__energy>  (83) 
-6.2599999999999998

>  <m_primary>  (83) 
energy

$$$$
83:0
     RDKit          3D

 39 40  0  0  0  0  0  0  0  0999 V2000
   57.9020   24.2780   45.8500 C   0  0  0  0  0  0  0  0  0  0  0  0
   57.3510   25.3140   44.9840 N   0  0  0  0  0  0  0  0  0  0  0  0
   56.7100   26.6070   45.9500 S   0  0  0  0  0  0  0  0  0  0  0  0
   55.2170   26.4630   46.0630 O   0  0  0  0  0  0  0  0  0  0  0  0
   57.3030   26.5330   47.3280 O   0  0  0  0  0  0  0  0  0  0  0  0
   57.1200   28.1640   45.2320 C   0  0  0  0  0  0  0  0  0  0  0  0
   56.1150   29.0550   44.8340 C   0  0  0  0  0  0  0  0  0  0  0  0
   56.4520   30.2770   44.2460 C   0  0  0  0  0  0  0  0  0  0  0  0
   57.7990   30.6220   44.0490 C   0  0  0  0  0  0  0  0  0  0  0  0
   58.1530   31.9260   43.3880 C   0  0  0  0  0  0  0  0  0  0  0  0
   57.4710   33.0300   44.0530 N   0  0  0  0  0  0  0  0  0  0  0  0
   57.6200   33.3340   45.4450 C   0  0  0  0  0  0  0  0  0  0  0  0
   56.6560   33.8380   46.0820 O   0  0  0  0  0  0  0  0  0  0  0  0
   58.9020   33.0570   46.1340 C   0  0  0  0  0  0  0  0  0  0  0  0
   59.9860   33.9430   46.0090 C   0  0  0  0  0  0  0  0  0  0  0  0
   61.1950   33.6830   46.6620 C   0  0  0  0  0  0  0  0  0  0  0  0
   61.3480   32.5370   47.4490 C   0  0  0  0  0  0  0  0  0  0  0  0
   62.5840   32.3280   48.0820 O   0  0  0  0  0  0  0  0  0  0  0  0
   63.6850   33.2340   48.0570 C   0  0  0  0  0  0  0  0  0  0  0  0
   64.7070   32.7190   48.8320 F   0  0  0  0  0  0  0  0  0  0  0  0
   63.3060   34.4590   48.5760 F   0  0  0  0  0  0  0  0  0  0  0  0
   64.1440   33.3910   46.7620 F   0  0  0  0  0  0  0  0  0  0  0  0
   60.2660   31.6460   47.5770 C   0  0  0  0  0  0  0  0  0  0  0  0
   59.0570   31.9050   46.9250 C   0  0  0  0  0  0  0  0  0  0  0  0
   58.8030   29.7220   44.4420 C   0  0  0  0  0  0  0  0  0  0  0  0
   58.4640   28.5010   45.0300 C   0  0  0  0  0  0  0  0  0  0  0  0
   57.7514   24.5612   46.9022 H   0  0  0  0  0  0  0  0  0  0  0  0
   57.3922   23.3239   45.6505 H   0  0  0  0  0  0  0  0  0  0  0  0
   58.9781   24.1674   45.6505 H   0  0  0  0  0  0  0  0  0  0  0  0
   55.0576   28.7920   44.9848 H   0  0  0  0  0  0  0  0  0  0  0  0
   55.6581   30.9723   43.9358 H   0  0  0  0  0  0  0  0  0  0  0  0
   59.2403   32.0810   43.4495 H   0  0  0  0  0  0  0  0  0  0  0  0
   57.8371   31.8916   42.3349 H   0  0  0  0  0  0  0  0  0  0  0  0
   59.8825   34.8482   45.3926 H   0  0  0  0  0  0  0  0  0  0  0  0
   62.0338   34.3866   46.5556 H   0  0  0  0  0  0  0  0  0  0  0  0
   60.3723   30.7411   48.1933 H   0  0  0  0  0  0  0  0  0  0  0  0
   58.2188   31.2007   47.0318 H   0  0  0  0  0  0  0  0  0  0  0  0
   59.8610   29.9797   44.2861 H   0  0  0  0  0  0  0  0  0  0  0  0
   59.2560   27.8015   45.3355 H   0  0  0  0  0  0  0  0  0  0  0  0
  1  2  1  0
  2  3  1  0
  3  4  2  0
  3  5  2  0
  3  6  1  0
  6  7  2  0
  7  8  1  0
  8  9  2  0
  9 10  1  0
 10 11  1  0
 11 12  1  0
 12 13  2  0
 12 14  1  0
 14 15  2  0
 15 16  1  0
 16 17  2  0
 17 18  1  0
 18 19  1  0
 19 20  1  0
 19 21  1  0
 19 22  1  0
 17 23  1  0
 23 24  2  0
  9 25  1  0
 25 26  2  0
 26  6  1  0
 24 14  1  0
  1 27  1  0
  1 28  1  0
  1 29  1  0
  7 30  1  0
  8 31  1  0
 10 32  1  0
 10 33  1  0
 15 34  1  0
 16 35  1  0
 23 36  1  0
 24 37  1  0
 25 38  1  0
 26 39  1  0
M  CHG  2   2  -1  11  -1
M  END
>  <UniqueID>  (84) 
74

>  <SMILES>  (84) 
C[N-]S(=O)(=O)c1ccc(C[N-]C(=O)c2ccc(OC(F)(F)F)cc2)cc1

>  <Energy>  (84) 
35.90615945701718

>  <Genealogy>  (84) 
C[N-]S(=O)(=O)c1ccc(C[N-]C(=O)c2ccc(OC(F)(F)F)cc2)cc1 (protonated)
C[N-]S(=O)(=O)c1ccc(C[N-]C(=O)c2ccc(OC(F)(F)F)cc2)cc1 (3D coordinates assigned)
C[N-]S(=O)(=O)c1ccc(C[N-]C(=O)c2ccc(OC(F)(F)F)cc2)cc1 (optimized conformer: 35.90615945701718 kcal/mol)

>  <smiles>  (84) 
CNS(=O)(=O)c1ccc(CNC(=O)c2ccc(OC(F)(F)F)cc2)cc1

>  <score_type>  (84) 
oracle

>  <origin>  (84) 
adg

>  <m_score__min__energy>  (84) 
-10.07

>  <m_primary>  (84) 
energy

$$$$
84:0
     RDKit          3D

 56 59  0  0  1  0  0  0  0  0999 V2000
   67.6050   33.8590   50.8890 C   0  0  0  0  0  0  0  0  0  0  0  0
   66.6400   32.9290   51.4150 N   0  0  0  0  0  0  0  0  0  0  0  0
   66.3720   31.9160   50.4460 C   0  0  0  0  0  0  0  0  0  0  0  0
   64.8950   31.7150   50.1650 C   0  0  0  0  0  0  0  0  0  0  0  0
   64.2620   33.0120   49.9460 N   0  0  0  0  0  0  0  0  0  0  0  0
   63.5030   33.2910   48.7790 C   0  0  0  0  0  0  0  0  0  0  0  0
   62.1730   33.5430   48.8930 N   0  0  0  0  0  0  0  0  0  0  0  0
   61.4430   33.7920   47.7810 C   0  0  0  0  0  0  0  0  0  0  0  0
   60.1810   34.0450   47.8200 N   0  0  0  0  0  0  0  0  0  0  0  0
   59.3240   33.5540   46.7950 C   0  0  0  0  0  0  0  0  0  0  0  0
   58.8050   34.5380   45.9420 C   0  0  0  0  0  0  0  0  0  0  0  0
   57.9630   34.2200   44.9030 C   0  0  0  0  0  0  0  0  0  0  0  0
   57.6470   32.8910   44.7330 C   0  0  0  0  0  0  0  0  0  0  0  0
   58.1670   31.8980   45.5870 C   0  0  0  0  0  0  0  0  0  0  0  0
   57.7290   30.5480   45.2920 C   0  0  0  0  0  0  0  0  0  0  0  0
   56.5170   30.4610   44.8710 O   0  0  0  0  0  0  0  0  0  0  0  0
   58.4940   29.3740   45.4200 N   0  0  0  0  0  0  0  0  0  0  0  0
   59.8930   29.4690   44.9460 C   0  0  0  0  0  0  0  0  0  0  0  0
   58.0960   28.1340   45.9490 C   0  0  0  0  0  0  0  0  0  0  0  0
   58.9400   27.5020   46.8840 C   0  0  0  0  0  0  0  0  0  0  0  0
   58.6370   26.2820   47.4300 C   0  0  0  0  0  0  0  0  0  0  0  0
   57.4880   25.6130   47.0890 C   0  0  0  0  0  0  0  0  0  0  0  0
   56.6480   26.1950   46.1860 C   0  0  0  0  0  0  0  0  0  0  0  0
   56.9610   27.4430   45.6290 C   0  0  0  0  0  0  0  0  0  0  0  0
   59.0120   32.2260   46.6280 C   0  0  0  0  0  0  0  0  0  0  0  0
   62.0550   33.7870   46.5340 C   0  0  0  0  0  0  0  0  0  0  0  0
   63.4080   33.5290   46.4320 C   0  0  0  0  0  0  0  0  0  0  0  0
   64.0940   33.2860   47.5800 N   0  0  0  0  0  0  0  0  0  0  0  0
   64.4540   34.0040   50.9840 C   0  0  0  0  0  0  0  0  0  0  0  0
   65.5040   33.5950   51.9610 C   0  0  0  0  0  0  0  0  0  0  0  0
   68.1236   34.3588   51.7204 H   0  0  0  0  0  0  0  0  0  0  0  0
   68.3376   33.3177   50.2723 H   0  0  0  0  0  0  0  0  0  0  0  0
   67.0911   34.6111   50.2723 H   0  0  0  0  0  0  0  0  0  0  0  0
   66.8694   32.1951   49.5054 H   0  0  0  0  0  0  0  0  0  0  0  0
   66.7522   30.9694   50.8576 H   0  0  0  0  0  0  0  0  0  0  0  0
   64.7738   31.0913   49.2671 H   0  0  0  0  0  0  0  0  0  0  0  0
   64.4223   31.2159   51.0237 H   0  0  0  0  0  0  0  0  0  0  0  0
   59.0783   35.5905   46.1082 H   0  0  0  0  0  0  0  0  0  0  0  0
   57.5586   34.9951   44.2354 H   0  0  0  0  0  0  0  0  0  0  0  0
   56.9745   32.5980   43.9133 H   0  0  0  0  0  0  0  0  0  0  0  0
   60.5709   29.5150   45.8111 H   0  0  0  0  0  0  0  0  0  0  0  0
   60.1347   28.5852   44.3373 H   0  0  0  0  0  0  0  0  0  0  0  0
   60.0130   30.3774   44.3373 H   0  0  0  0  0  0  0  0  0  0  0  0
   59.8714   28.0037   47.1851 H   0  0  0  0  0  0  0  0  0  0  0  0
   59.3286   25.8298   48.1561 H   0  0  0  0  0  0  0  0  0  0  0  0
   57.2513   24.6343   47.5319 H   0  0  0  0  0  0  0  0  0  0  0  0
   55.7198   25.6825   45.8930 H   0  0  0  0  0  0  0  0  0  0  0  0
   56.2629   27.8852   44.9030 H   0  0  0  0  0  0  0  0  0  0  0  0
   59.4198   31.4546   47.2978 H   0  0  0  0  0  0  0  0  0  0  0  0
   61.4629   33.9882   45.6291 H   0  0  0  0  0  0  0  0  0  0  0  0
   63.9132   33.5205   45.4549 H   0  0  0  0  0  0  0  0  0  0  0  0
   65.1110   33.0950   47.4690 H   0  0  0  0  0  0  0  0  0  0  0  0
   64.7544   34.9534   50.5166 H   0  0  0  0  0  0  0  0  0  0  0  0
   63.5054   34.1118   51.5303 H   0  0  0  0  0  0  0  0  0  0  0  0
   65.8591   34.5017   52.4727 H   0  0  0  0  0  0  0  0  0  0  0  0
   65.0219   32.8628   52.6255 H   0  0  0  0  0  0  0  0  0  0  0  0
  1  2  1  0
  2  3  1  0
  3  4  1  0
  4  5  1  0
  5  6  1  0
  6  7  2  0
  7  8  1  0
  8  9  2  0
  9 10  1  0
 10 11  2  0
 11 12  1  0
 12 13  2  0
 13 14  1  0
 14 15  1  0
 15 16  2  0
 15 17  1  0
 17 18  1  0
 17 19  1  0
 19 20  2  0
 20 21  1  0
 21 22  2  0
 22 23  1  0
 23 24  2  0
 14 25  2  0
  8 26  1  0
 26 27  2  0
 27 28  1  0
  5 29  1  0
 29 30  1  0
 30  2  1  0
 28  6  1  0
 25 10  1  0
 24 19  1  0
  1 31  1  0
  1 32  1  0
  1 33  1  0
  3 34  1  0
  3 35  1  0
  4 36  1  0
  4 37  1  0
 11 38  1  0
 12 39  1  0
 13 40  1  0
 18 41  1  0
 18 42  1  0
 18 43  1  0
 20 44  1  0
 21 45  1  0
 22 46  1  0
 23 47  1  0
 24 48  1  0
 25 49  1  0
 26 50  1  0
 27 51  1  0
 28 52  1  0
 29 53  1  0
 29 54  1  0
 30 55  1  0
 30 56  1  0
M  END
>  <smiles>  (85) 
CN1CCN(c2nc(=Nc3cccc(C(=O)N(C)c4ccccc4)c3)cc[nH]2)CC1

>  <score_type>  (85) 
oracle

>  <origin>  (85) 
adg

>  <m_score__min__energy>  (85) 
-9.5500000000000007

>  <m_primary>  (85) 
energy

$$$$
85:0
     RDKit          3D

 36 38  0  0  0  0  0  0  0  0999 V2000
   56.2891   31.4482   43.5075 H   0  0  0  0  0  0  0  0  0  0  0  0
   56.7420   31.3310   44.5030 C   0  0  0  0  0  0  0  0  0  0  0  0
   56.7270   32.3570   45.3090 N   0  0  0  0  0  0  0  0  0  0  0  0
   57.8060   33.2750   45.5640 C   0  0  0  0  0  0  0  0  0  0  0  0
   58.1460   34.2590   44.6190 C   0  0  0  0  0  0  0  0  0  0  0  0
   57.5933   34.3154   43.6696 H   0  0  0  0  0  0  0  0  0  0  0  0
   59.1760   35.1640   44.8720 C   0  0  0  0  0  0  0  0  0  0  0  0
   59.4410   35.9171   44.1153 H   0  0  0  0  0  0  0  0  0  0  0  0
   59.8720   35.1190   46.0800 C   0  0  0  0  0  0  0  0  0  0  0  0
   60.6898   35.8299   46.2692 H   0  0  0  0  0  0  0  0  0  0  0  0
   59.5310   34.1690   47.0540 C   0  0  0  0  0  0  0  0  0  0  0  0
   60.2210   34.1320   48.2760 C   0  0  0  0  0  0  0  0  0  0  0  0
   61.0320   34.8495   48.4696 H   0  0  0  0  0  0  0  0  0  0  0  0
   59.8810   33.1870   49.2470 C   0  0  0  0  0  0  0  0  0  0  0  0
   60.4238   33.1631   50.2035 H   0  0  0  0  0  0  0  0  0  0  0  0
   58.8540   32.2730   49.0060 C   0  0  0  0  0  0  0  0  0  0  0  0
   58.5904   31.5309   49.7740 H   0  0  0  0  0  0  0  0  0  0  0  0
   58.1590   32.2960   47.7940 C   0  0  0  0  0  0  0  0  0  0  0  0
   57.3530   31.5698   47.6122 H   0  0  0  0  0  0  0  0  0  0  0  0
   58.4840   33.2430   46.8040 C   0  0  0  0  0  0  0  0  0  0  0  0
   57.3320   30.0200   44.8490 C   0  0  0  0  0  0  0  0  0  0  0  0
   58.7240   29.9090   44.9240 C   0  0  0  0  0  0  0  0  0  0  0  0
   59.3509   30.7924   44.7330 H   0  0  0  0  0  0  0  0  0  0  0  0
   59.3300   28.6840   45.2400 C   0  0  0  0  0  0  0  0  0  0  0  0
   60.8290   28.5910   45.3860 C   0  0  0  0  0  0  0  0  0  0  0  0
   61.1540   27.3890   45.9870 F   0  0  0  0  0  0  0  0  0  0  0  0
   61.3120   29.6290   46.1640 F   0  0  0  0  0  0  0  0  0  0  0  0
   61.4460   28.6580   44.1480 F   0  0  0  0  0  0  0  0  0  0  0  0
   58.5190   27.5730   45.5190 C   0  0  0  0  0  0  0  0  0  0  0  0
   58.9870   26.6235   45.8179 H   0  0  0  0  0  0  0  0  0  0  0  0
   57.1180   27.6530   45.4230 C   0  0  0  0  0  0  0  0  0  0  0  0
   56.3120   26.4880   45.6960 N   0  0  0  0  0  0  0  0  0  0  0  0
   55.1310   26.6130   46.0820 O   0  0  0  0  0  0  0  0  0  0  0  0
   56.8000   25.2200   45.4780 O   0  0  0  0  0  0  0  0  0  0  0  0
   56.5270   28.8810   45.0560 C   0  0  0  0  0  0  0  0  0  0  0  0
   55.1510   28.9710   44.8670 O   0  0  0  0  0  0  0  0  0  0  0  0
  1  2  1  0
  2  3  2  0
  3  4  1  0
  4  5  2  0
  5  6  1  0
  5  7  1  0
  7  8  1  0
  7  9  2  0
  9 10  1  0
  9 11  1  0
 11 12  2  0
 12 13  1  0
 12 14  1  0
 14 15  1  0
 14 16  2  0
 16 17  1  0
 16 18  1  0
 18 19  1  0
 18 20  2  0
  2 21  1  0
 21 22  2  0
 22 23  1  0
 22 24  1  0
 24 25  1  0
 25 26  1  0
 25 27  1  0
 25 28  1  0
 24 29  2  0
 29 30  1  0
 29 31  1  0
 31 32  1  0
 32 33  2  0
 32 34  1  0
 31 35  2  0
 35 36  1  0
 20  4  1  0
 35 21  1  0
 20 11  1  0
M  CHG  3  32   1  34  -1  36  -1
M  END
>  <UniqueID>  (86) 
75

>  <SMILES>  (86) 
O=[N+]([O-])c1cc(C(F)(F)F)cc(/C=N\c2cccc3ccccc23)c1[O-]

>  <Energy>  (86) 
59.04644434921602

>  <Genealogy>  (86) 
O=[N+]([O-])c1cc(C(F)(F)F)cc(C=Nc2cccc3ccccc23)c1[O-] (protonated)
O=[N+]([O-])c1cc(C(F)(F)F)cc(/C=N\c2cccc3ccccc23)c1[O-] (cis-trans isomerization)
O=[N+]([O-])c1cc(C(F)(F)F)cc(/C=N\c2cccc3ccccc23)c1[O-] (3D coordinates assigned)
O=[N+]([O-])c1cc(C(F)(F)F)cc(/C=N\c2cccc3ccccc23)c1[O-] (optimized conformer: 59.04644434921602 kcal/mol)

>  <smiles>  (86) 
O=[N+]([O-])c1cc(C(F)(F)F)cc(C=Nc2cccc3ccccc23)c1O

>  <score_type>  (86) 
oracle

>  <origin>  (86) 
adg

>  <m_score__min__energy>  (86) 
-12.77

>  <m_primary>  (86) 
energy

$$$$
86:0
     RDKit          3D

 42 44  0  0  0  0  0  0  0  0999 V2000
   56.5885   34.0013   44.1275 H   0  0  0  0  0  0  0  0  0  0  0  0
   57.5110   33.5370   44.5060 C   0  0  0  0  0  0  0  0  0  0  0  0
   57.7340   32.1130   44.1860 C   0  0  0  0  0  0  0  0  0  0  0  0
   58.4630   31.8280   43.2010 O   0  0  0  0  0  0  0  0  0  0  0  0
   57.0090   31.0870   44.8840 N   0  0  0  0  0  0  0  0  0  0  0  0
   57.1480   29.7920   44.8170 C   0  0  0  0  0  0  0  0  0  0  0  0
   55.9210   28.9760   44.9040 C   0  0  0  0  0  0  0  0  0  0  0  0
   55.8970   27.9130   45.5790 O   0  0  0  0  0  0  0  0  0  0  0  0
   54.7720   29.3780   44.2340 O   0  0  0  0  0  0  0  0  0  0  0  0
   58.5050   29.1090   44.8100 C   0  0  0  0  0  0  0  0  0  0  0  0
   58.3611   28.0193   44.7682 H   0  0  0  0  0  0  0  0  0  0  0  0
   59.0703   29.4519   43.9309 H   0  0  0  0  0  0  0  0  0  0  0  0
   59.2810   29.4590   46.0540 C   0  0  0  0  0  0  0  0  0  0  0  0
   58.9230   28.8890   47.2870 C   0  0  0  0  0  0  0  0  0  0  0  0
   58.0959   28.1653   47.3333 H   0  0  0  0  0  0  0  0  0  0  0  0
   59.6080   29.2330   48.4550 C   0  0  0  0  0  0  0  0  0  0  0  0
   59.3224   28.7749   49.4134 H   0  0  0  0  0  0  0  0  0  0  0  0
   60.6580   30.1600   48.4090 C   0  0  0  0  0  0  0  0  0  0  0  0
   61.3420   30.5250   49.5790 C   0  0  0  0  0  0  0  0  0  0  0  0
   61.0553   30.0818   50.5441 H   0  0  0  0  0  0  0  0  0  0  0  0
   62.3870   31.4510   49.5190 C   0  0  0  0  0  0  0  0  0  0  0  0
   62.9203   31.7353   50.4381 H   0  0  0  0  0  0  0  0  0  0  0  0
   62.7570   32.0170   48.2970 C   0  0  0  0  0  0  0  0  0  0  0  0
   63.5802   32.7456   48.2574 H   0  0  0  0  0  0  0  0  0  0  0  0
   62.0850   31.6610   47.1240 C   0  0  0  0  0  0  0  0  0  0  0  0
   62.3806   32.1091   46.1639 H   0  0  0  0  0  0  0  0  0  0  0  0
   61.0330   30.7320   47.1700 C   0  0  0  0  0  0  0  0  0  0  0  0
   60.3470   30.3720   46.0010 C   0  0  0  0  0  0  0  0  0  0  0  0
   60.6458   30.8076   45.0361 H   0  0  0  0  0  0  0  0  0  0  0  0
   58.3420   34.3110   45.2210 C   0  0  0  0  0  0  0  0  0  0  0  0
   58.7186   35.2287   44.7457 H   0  0  0  0  0  0  0  0  0  0  0  0
   58.7880   34.0220   46.5980 C   0  0  0  0  0  0  0  0  0  0  0  0
   59.8080   34.7790   47.2010 C   0  0  0  0  0  0  0  0  0  0  0  0
   60.2980   35.5866   46.6374 H   0  0  0  0  0  0  0  0  0  0  0  0
   60.2010   34.5080   48.5150 C   0  0  0  0  0  0  0  0  0  0  0  0
   61.0085   35.0935   48.9788 H   0  0  0  0  0  0  0  0  0  0  0  0
   59.5690   33.4940   49.2400 C   0  0  0  0  0  0  0  0  0  0  0  0
   59.8855   33.2755   50.2706 H   0  0  0  0  0  0  0  0  0  0  0  0
   58.5340   32.7570   48.6550 C   0  0  0  0  0  0  0  0  0  0  0  0
   58.0321   31.9637   49.2283 H   0  0  0  0  0  0  0  0  0  0  0  0
   58.1370   33.0280   47.3420 C   0  0  0  0  0  0  0  0  0  0  0  0
   57.3106   32.4590   46.8910 H   0  0  0  0  0  0  0  0  0  0  0  0
  1  2  1  0
  2  3  1  0
  3  4  2  0
  3  5  1  0
  5  6  2  3
  6  7  1  0
  7  8  2  0
  7  9  1  0
  6 10  1  0
 10 11  1  0
 10 12  1  0
 10 13  1  0
 13 14  2  0
 14 15  1  0
 14 16  1  0
 16 17  1  0
 16 18  2  0
 18 19  1  0
 19 20  1  0
 19 21  2  0
 21 22  1  0
 21 23  1  0
 23 24  1  0
 23 25  2  0
 25 26  1  0
 25 27  1  0
 27 28  2  0
 28 29  1  0
  2 30  2  0
 30 31  1  0
 30 32  1  0
 32 33  2  0
 33 34  1  0
 33 35  1  0
 35 36  1  0
 35 37  2  0
 37 38  1  0
 37 39  1  0
 39 40  1  0
 39 41  2  0
 41 42  1  0
 28 13  1  0
 41 32  1  0
 27 18  1  0
M  CHG  1   9  -1
M  END
>  <UniqueID>  (87) 
76

>  <SMILES>  (87) 
O=C(/C=C\c1ccccc1)N=C(Cc1ccc2ccccc2c1)C(=O)[O-]

>  <Energy>  (87) 
55.01856580149549

>  <Genealogy>  (87) 
O=C(C=Cc1ccccc1)N=C(Cc1ccc2ccccc2c1)C(=O)[O-] (protonated)
O=C(/C=C\c1ccccc1)N=C(Cc1ccc2ccccc2c1)C(=O)[O-] (cis-trans isomerization)
O=C(/C=C\c1ccccc1)N=C(Cc1ccc2ccccc2c1)C(=O)[O-] (3D coordinates assigned)
O=C(/C=C\c1ccccc1)N=C(Cc1ccc2ccccc2c1)C(=O)[O-] (optimized conformer: 55.01856580149549 kcal/mol)

>  <smiles>  (87) 
O=C(C=Cc1ccccc1)N=C(Cc1ccc2ccccc2c1)C(=O)O

>  <score_type>  (87) 
oracle

>  <origin>  (87) 
adg

>  <m_score__min__energy>  (87) 
-11.1

>  <m_primary>  (87) 
energy

$$$$
87:0
     RDKit          3D

 57 59  0  0  0  0  0  0  0  0999 V2000
   63.7460   31.4710   50.1250 C   0  0  0  0  0  0  0  0  0  0  0  0
   63.5320   31.7880   48.7040 N   0  0  0  0  0  0  0  0  0  0  0  0
   62.1080   31.6040   48.3440 C   0  0  0  0  0  0  0  0  0  0  0  0
   61.7540   32.3710   47.0630 C   0  0  0  0  0  0  0  0  0  0  0  0
   61.9590   33.8360   47.2090 N   0  0  0  0  0  0  0  0  0  0  0  0
   60.6780   34.5440   47.4200 C   0  0  0  0  0  0  0  0  0  0  0  0
   59.5600   33.8580   46.6790 C   0  0  0  0  0  0  0  0  0  0  0  0
   59.3570   34.1000   45.3110 C   0  0  0  0  0  0  0  0  0  0  0  0
   58.3750   33.3950   44.6090 C   0  0  0  0  0  0  0  0  0  0  0  0
   57.5960   32.4230   45.2640 C   0  0  0  0  0  0  0  0  0  0  0  0
   56.6510   31.6340   44.5900 O   0  0  0  0  0  0  0  0  0  0  0  0
   56.9130   30.8440   43.4270 C   0  0  0  0  0  0  0  0  0  0  0  0
   56.6700   29.3480   43.6860 C   0  0  0  0  0  0  0  0  0  0  0  0
   56.8070   28.9850   45.1740 C   0  0  0  0  0  0  0  0  0  0  0  0
   57.8270   27.9240   45.3590 N   0  0  0  0  0  0  0  0  0  0  0  0
   58.1990   27.6980   46.7830 C   0  0  0  0  0  0  0  0  0  0  0  0
   59.5530   28.3180   47.1920 C   0  0  0  0  0  0  0  0  0  0  0  0
   59.8470   29.5900   46.3970 C   0  0  0  0  0  0  0  0  0  0  0  0
   59.8860   29.3040   44.8880 C   0  0  0  0  0  0  0  0  0  0  0  0
   59.0120   28.0960   44.4850 C   0  0  0  0  0  0  0  0  0  0  0  0
   57.7750   32.2130   46.6340 C   0  0  0  0  0  0  0  0  0  0  0  0
   58.7570   32.9170   47.3380 C   0  0  0  0  0  0  0  0  0  0  0  0
   62.9520   34.1870   48.2570 C   0  0  0  0  0  0  0  0  0  0  0  0
   64.0620   33.1310   48.3610 C   0  0  0  0  0  0  0  0  0  0  0  0
   63.2390   32.2220   50.7486 H   0  0  0  0  0  0  0  0  0  0  0  0
   63.3351   30.4745   50.3443 H   0  0  0  0  0  0  0  0  0  0  0  0
   64.8239   31.4795   50.3443 H   0  0  0  0  0  0  0  0  0  0  0  0
   61.9138   30.5329   48.1858 H   0  0  0  0  0  0  0  0  0  0  0  0
   61.4887   31.9943   49.1651 H   0  0  0  0  0  0  0  0  0  0  0  0
   62.3901   32.0045   46.2438 H   0  0  0  0  0  0  0  0  0  0  0  0
   60.6884   32.1993   46.8511 H   0  0  0  0  0  0  0  0  0  0  0  0
   60.4448   34.5552   48.4949 H   0  0  0  0  0  0  0  0  0  0  0  0
   60.7757   35.5713   47.0390 H   0  0  0  0  0  0  0  0  0  0  0  0
   59.9731   34.8473   44.7895 H   0  0  0  0  0  0  0  0  0  0  0  0
   58.2106   33.6007   43.5410 H   0  0  0  0  0  0  0  0  0  0  0  0
   56.2509   31.1767   42.6140 H   0  0  0  0  0  0  0  0  0  0  0  0
   57.9706   30.9764   43.1550 H   0  0  0  0  0  0  0  0  0  0  0  0
   55.6542   29.0912   43.3510 H   0  0  0  0  0  0  0  0  0  0  0  0
   57.4311   28.7815   43.1293 H   0  0  0  0  0  0  0  0  0  0  0  0
   57.1090   29.8796   45.7384 H   0  0  0  0  0  0  0  0  0  0  0  0
   55.8382   28.6143   45.5400 H   0  0  0  0  0  0  0  0  0  0  0  0
   57.4141   28.1352   47.4177 H   0  0  0  0  0  0  0  0  0  0  0  0
   58.2981   26.6103   46.9140 H   0  0  0  0  0  0  0  0  0  0  0  0
   59.5247   28.5643   48.2637 H   0  0  0  0  0  0  0  0  0  0  0  0
   60.3467   27.5864   46.9804 H   0  0  0  0  0  0  0  0  0  0  0  0
   59.0604   30.3312   46.6017 H   0  0  0  0  0  0  0  0  0  0  0  0
   60.8307   29.9742   46.7048 H   0  0  0  0  0  0  0  0  0  0  0  0
   59.5242   30.1939   44.3522 H   0  0  0  0  0  0  0  0  0  0  0  0
   60.9262   29.0632   44.6233 H   0  0  0  0  0  0  0  0  0  0  0  0
   58.6670   28.2419   43.4507 H   0  0  0  0  0  0  0  0  0  0  0  0
   59.6309   27.1923   44.5866 H   0  0  0  0  0  0  0  0  0  0  0  0
   57.1385   31.4883   47.1627 H   0  0  0  0  0  0  0  0  0  0  0  0
   58.8998   32.7316   48.4128 H   0  0  0  0  0  0  0  0  0  0  0  0
   63.4053   35.1579   48.0083 H   0  0  0  0  0  0  0  0  0  0  0  0
   62.4296   34.2332   49.2240 H   0  0  0  0  0  0  0  0  0  0  0  0
   64.5831   33.0692   47.3942 H   0  0  0  0  0  0  0  0  0  0  0  0
   64.7447   33.4389   49.1667 H   0  0  0  0  0  0  0  0  0  0  0  0
  1  2  1  0
  2  3  1  0
  3  4  1  0
  4  5  1  0
  5  6  1  0
  6  7  1  0
  7  8  2  0
  8  9  1  0
  9 10  2  0
 10 11  1  0
 11 12  1  0
 12 13  1  0
 13 14  1  0
 14 15  1  0
 15 16  1  0
 16 17  1  0
 17 18  1  0
 18 19  1  0
 19 20  1  0
 10 21  1  0
 21 22  2  0
  5 23  1  0
 23 24  1  0
 24  2  1  0
 22  7  1  0
 20 15  1  0
  1 25  1  0
  1 26  1  0
  1 27  1  0
  3 28  1  0
  3 29  1  0
  4 30  1  0
  4 31  1  0
  6 32  1  0
  6 33  1  0
  8 34  1  0
  9 35  1  0
 12 36  1  0
 12 37  1  0
 13 38  1  0
 13 39  1  0
 14 40  1  0
 14 41  1  0
 16 42  1  0
 16 43  1  0
 17 44  1  0
 17 45  1  0
 18 46  1  0
 18 47  1  0
 19 48  1  0
 19 49  1  0
 20 50  1  0
 20 51  1  0
 21 52  1  0
 22 53  1  0
 23 54  1  0
 23 55  1  0
 24 56  1  0
 24 57  1  0
M  END
>  <UniqueID>  (88) 
77

>  <SMILES>  (88) 
CN1CCN(Cc2ccc(OCCCN3CCCCC3)cc2)CC1

>  <Energy>  (88) 
73.72199069596734

>  <Genealogy>  (88) 
CN1CCN(Cc2ccc(OCCCN3CCCCC3)cc2)CC1 (3D coordinates assigned)
CN1CCN(Cc2ccc(OCCCN3CCCCC3)cc2)CC1 (nonaromatic ring conformer: 73.72199069596734 kcal/mol)

>  <smiles>  (88) 
CN1CCN(Cc2ccc(OCCCN3CCCCC3)cc2)CC1

>  <score_type>  (88) 
oracle

>  <origin>  (88) 
adg

>  <m_score__min__energy>  (88) 
-7.5199999999999996

>  <m_primary>  (88) 
energy

$$$$
88:0
     RDKit          3D

 35 37  0  0  0  0  0  0  0  0999 V2000
   57.3340   31.7890   41.6530 C   0  0  0  0  0  0  0  0  0  0  0  0
   57.4460   31.8440   43.1420 C   0  0  0  0  0  0  0  0  0  0  0  0
   58.1490   32.7490   43.7830 O   0  0  0  0  0  0  0  0  0  0  0  0
   58.0520   32.4870   45.0710 C   0  0  0  0  0  0  0  0  0  0  0  0
   58.7190   33.2980   46.1170 C   0  0  0  0  0  0  0  0  0  0  0  0
   59.2560   34.5540   45.7820 C   0  0  0  0  0  0  0  0  0  0  0  0
   59.8890   35.3370   46.7520 C   0  0  0  0  0  0  0  0  0  0  0  0
   59.9940   34.8750   48.0660 C   0  0  0  0  0  0  0  0  0  0  0  0
   59.4650   33.6300   48.4120 C   0  0  0  0  0  0  0  0  0  0  0  0
   58.8300   32.8430   47.4450 C   0  0  0  0  0  0  0  0  0  0  0  0
   57.2770   31.4040   45.3000 N   0  0  0  0  0  0  0  0  0  0  0  0
   56.8730   31.0020   44.0810 C   0  0  0  0  0  0  0  0  0  0  0  0
   56.0040   29.8310   43.8530 C   0  0  0  0  0  0  0  0  0  0  0  0
   55.4670   29.6810   42.7240 O   0  0  0  0  0  0  0  0  0  0  0  0
   55.7300   28.8700   44.8800 N   0  0  0  0  0  0  0  0  0  0  0  0
   56.6970   28.0370   45.5350 C   0  0  0  0  0  0  0  0  0  0  0  0
   58.0180   28.4710   45.7560 C   0  0  0  0  0  0  0  0  0  0  0  0
   58.9360   27.6310   46.3940 C   0  0  0  0  0  0  0  0  0  0  0  0
   58.5490   26.3520   46.8010 C   0  0  0  0  0  0  0  0  0  0  0  0
   57.2450   25.9060   46.5640 C   0  0  0  0  0  0  0  0  0  0  0  0
   56.7630   24.2960   47.0670 Cl  0  0  0  0  0  0  0  0  0  0  0  0
   56.3250   26.7450   45.9250 C   0  0  0  0  0  0  0  0  0  0  0  0
   56.3789   31.3200   41.3742 H   0  0  0  0  0  0  0  0  0  0  0  0
   57.3744   32.8095   41.2443 H   0  0  0  0  0  0  0  0  0  0  0  0
   58.1662   31.1971   41.2443 H   0  0  0  0  0  0  0  0  0  0  0  0
   59.1773   34.9231   44.7488 H   0  0  0  0  0  0  0  0  0  0  0  0
   60.3050   36.3183   46.4800 H   0  0  0  0  0  0  0  0  0  0  0  0
   60.4932   35.4917   48.8279 H   0  0  0  0  0  0  0  0  0  0  0  0
   59.5477   33.2671   49.4471 H   0  0  0  0  0  0  0  0  0  0  0  0
   58.4151   31.8631   47.7238 H   0  0  0  0  0  0  0  0  0  0  0  0
   57.0210   30.9670   46.2120 H   0  0  0  0  0  0  0  0  0  0  0  0
   58.3287   29.4733   45.4260 H   0  0  0  0  0  0  0  0  0  0  0  0
   59.9640   27.9778   46.5756 H   0  0  0  0  0  0  0  0  0  0  0  0
   59.2707   25.6950   47.3084 H   0  0  0  0  0  0  0  0  0  0  0  0
   55.3036   26.3872   45.7281 H   0  0  0  0  0  0  0  0  0  0  0  0
  1  2  1  0
  2  3  1  0
  3  4  1  0
  4  5  1  0
  5  6  2  0
  6  7  1  0
  7  8  2  0
  8  9  1  0
  9 10  2  0
  4 11  2  0
 11 12  1  0
 12 13  1  0
 13 14  2  0
 13 15  1  0
 15 16  1  0
 16 17  2  0
 17 18  1  0
 18 19  2  0
 19 20  1  0
 20 21  1  0
 20 22  2  0
 12  2  2  0
 22 16  1  0
 10  5  1  0
  1 23  1  0
  1 24  1  0
  1 25  1  0
  6 26  1  0
  7 27  1  0
  8 28  1  0
  9 29  1  0
 10 30  1  0
 11 31  1  0
 17 32  1  0
 18 33  1  0
 19 34  1  0
 22 35  1  0
M  CHG  2  11   1  15  -1
M  END
>  <UniqueID>  (89) 
78

>  <SMILES>  (89) 
Cc1oc(-c2ccccc2)[nH+]c1C(=O)[N-]c1cccc(Cl)c1

>  <Energy>  (89) 
75.03385095328774

>  <Genealogy>  (89) 
Cc1oc(-c2ccccc2)[nH+]c1C(=O)[N-]c1cccc(Cl)c1 (protonated)
Cc1oc(-c2ccccc2)[nH+]c1C(=O)[N-]c1cccc(Cl)c1 (3D coordinates assigned)
Cc1oc(-c2ccccc2)[nH+]c1C(=O)[N-]c1cccc(Cl)c1 (optimized conformer: 75.03385095328774 kcal/mol)

>  <smiles>  (89) 
Cc1oc(-c2ccccc2)nc1C(=O)Nc1cccc(Cl)c1

>  <score_type>  (89) 
oracle

>  <origin>  (89) 
adg

>  <m_score__min__energy>  (89) 
-7.9900000000000002

>  <m_primary>  (89) 
energy

$$$$
89:0
     RDKit          3D

 53 56  0  0  0  0  0  0  0  0999 V2000
   66.9000   30.9070   50.8510 C   0  0  0  0  0  0  0  0  0  0  0  0
   66.7220   32.1930   50.2710 O   0  0  0  0  0  0  0  0  0  0  0  0
   66.1840   33.3050   50.9410 C   0  0  0  0  0  0  0  0  0  0  0  0
   67.0060   34.2830   51.5400 C   0  0  0  0  0  0  0  0  0  0  0  0
   66.4370   35.3970   52.1610 C   0  0  0  0  0  0  0  0  0  0  0  0
   65.0480   35.5470   52.1960 C   0  0  0  0  0  0  0  0  0  0  0  0
   64.2220   34.5770   51.6220 C   0  0  0  0  0  0  0  0  0  0  0  0
   64.7830   33.4510   51.0010 C   0  0  0  0  0  0  0  0  0  0  0  0
   63.9190   32.4700   50.4090 N   0  0  0  0  0  0  0  0  0  0  0  0
   63.9180   32.2970   48.9520 C   0  0  0  0  0  0  0  0  0  0  0  0
   62.4970   32.0180   48.4120 C   0  0  0  0  0  0  0  0  0  0  0  0
   61.5660   31.4680   49.4310 N   0  0  0  0  0  0  0  0  0  0  0  0
   60.2990   30.5340   48.6530 S   0  0  0  0  0  0  0  0  0  0  0  0
   59.3450   30.0000   49.6820 O   0  0  0  0  0  0  0  0  0  0  0  0
   60.9190   29.3540   47.9580 O   0  0  0  0  0  0  0  0  0  0  0  0
   59.3950   31.5210   47.4900 C   0  0  0  0  0  0  0  0  0  0  0  0
   58.6490   30.8810   46.4870 C   0  0  0  0  0  0  0  0  0  0  0  0
   57.8670   31.6130   45.5820 C   0  0  0  0  0  0  0  0  0  0  0  0
   57.0640   30.9060   44.5500 C   0  0  0  0  0  0  0  0  0  0  0  0
   57.3190   30.8400   43.1900 C   0  0  0  0  0  0  0  0  0  0  0  0
   56.2760   30.0860   42.6880 C   0  0  0  0  0  0  0  0  0  0  0  0
   55.4910   29.7480   43.6840 O   0  0  0  0  0  0  0  0  0  0  0  0
   55.9320   30.2240   44.8140 N   0  0  0  0  0  0  0  0  0  0  0  0
   57.8500   33.0180   45.6880 C   0  0  0  0  0  0  0  0  0  0  0  0
   58.5930   33.6710   46.6780 C   0  0  0  0  0  0  0  0  0  0  0  0
   59.3690   32.9300   47.5900 C   0  0  0  0  0  0  0  0  0  0  0  0
   60.1180   33.5610   48.5980 O   0  0  0  0  0  0  0  0  0  0  0  0
   59.6440   33.8260   49.9240 C   0  0  0  0  0  0  0  0  0  0  0  0
   62.2590   30.6480   50.4400 C   0  0  0  0  0  0  0  0  0  0  0  0
   63.1760   31.5400   51.2720 C   0  0  0  0  0  0  0  0  0  0  0  0
   66.8879   30.9944   51.9475 H   0  0  0  0  0  0  0  0  0  0  0  0
   66.0852   30.2427   50.5271 H   0  0  0  0  0  0  0  0  0  0  0  0
   67.8646   30.4890   50.5271 H   0  0  0  0  0  0  0  0  0  0  0  0
   68.0997   34.1675   51.5177 H   0  0  0  0  0  0  0  0  0  0  0  0
   67.0832   36.1577   52.6234 H   0  0  0  0  0  0  0  0  0  0  0  0
   64.6037   36.4310   52.6767 H   0  0  0  0  0  0  0  0  0  0  0  0
   63.1291   34.6966   51.6572 H   0  0  0  0  0  0  0  0  0  0  0  0
   64.3039   33.2144   48.4835 H   0  0  0  0  0  0  0  0  0  0  0  0
   64.5539   31.4332   48.7082 H   0  0  0  0  0  0  0  0  0  0  0  0
   62.0783   32.9620   48.0332 H   0  0  0  0  0  0  0  0  0  0  0  0
   62.5971   31.2562   47.6248 H   0  0  0  0  0  0  0  0  0  0  0  0
   58.6787   29.7841   46.4098 H   0  0  0  0  0  0  0  0  0  0  0  0
   58.1590   31.2856   42.6369 H   0  0  0  0  0  0  0  0  0  0  0  0
   56.1284   29.8148   41.6322 H   0  0  0  0  0  0  0  0  0  0  0  0
   57.2454   33.6087   44.9841 H   0  0  0  0  0  0  0  0  0  0  0  0
   58.5707   34.7688   46.7441 H   0  0  0  0  0  0  0  0  0  0  0  0
   60.3604   33.4255   50.6564 H   0  0  0  0  0  0  0  0  0  0  0  0
   59.5421   34.9119   50.0668 H   0  0  0  0  0  0  0  0  0  0  0  0
   58.6656   33.3440   50.0668 H   0  0  0  0  0  0  0  0  0  0  0  0
   61.5176   30.1692   51.0966 H   0  0  0  0  0  0  0  0  0  0  0  0
   62.8560   29.8726   49.9377 H   0  0  0  0  0  0  0  0  0  0  0  0
   62.5689   32.1163   51.9856 H   0  0  0  0  0  0  0  0  0  0  0  0
   63.8954   30.9045   51.8092 H   0  0  0  0  0  0  0  0  0  0  0  0
  1  2  1  0
  2  3  1  0
  3  4  2  0
  4  5  1  0
  5  6  2  0
  6  7  1  0
  7  8  2  0
  8  9  1  0
  9 10  1  0
 10 11  1  0
 11 12  1  0
 12 13  1  0
 13 14  2  0
 13 15  2  0
 13 16  1  0
 16 17  2  0
 17 18  1  0
 18 19  1  0
 19 20  1  0
 20 21  2  0
 21 22  1  0
 22 23  1  0
 18 24  2  0
 24 25  1  0
 25 26  2  0
 26 27  1  0
 27 28  1  0
 12 29  1  0
 29 30  1  0
  8  3  1  0
 30  9  1  0
 26 16  1  0
 23 19  2  0
  1 31  1  0
  1 32  1  0
  1 33  1  0
  4 34  1  0
  5 35  1  0
  6 36  1  0
  7 37  1  0
 10 38  1  0
 10 39  1  0
 11 40  1  0
 11 41  1  0
 17 42  1  0
 20 43  1  0
 21 44  1  0
 24 45  1  0
 25 46  1  0
 28 47  1  0
 28 48  1  0
 28 49  1  0
 29 50  1  0
 29 51  1  0
 30 52  1  0
 30 53  1  0
M  END
>  <UniqueID>  (90) 
79

>  <SMILES>  (90) 
COc1ccccc1N1CCN(S(=O)(=O)c2cc(-c3ccon3)ccc2OC)CC1

>  <Energy>  (90) 
97.72366151485622

>  <Genealogy>  (90) 
COc1ccccc1N1CCN(S(=O)(=O)c2cc(-c3ccon3)ccc2OC)CC1 (3D coordinates assigned)
COc1ccccc1N1CCN(S(=O)(=O)c2cc(-c3ccon3)ccc2OC)CC1 (nonaromatic ring conformer: 97.72366151485622 kcal/mol)

>  <smiles>  (90) 
COc1ccccc1N1CCN(S(=O)(=O)c2cc(-c3ccon3)ccc2OC)CC1

>  <score_type>  (90) 
oracle

>  <origin>  (90) 
adg

>  <m_score__min__energy>  (90) 
-8.1600000000000001

>  <m_primary>  (90) 
energy

$$$$
90:0
     RDKit          3D

 57 61  0  0  1  0  0  0  0  0999 V2000
   55.9860   26.3210   46.1550 N   0  0  0  0  0  0  0  0  0  0  0  0
   56.8390   27.2900   46.2000 C   0  0  0  0  0  0  0  0  0  0  0  0
   57.0680   28.0350   45.1050 N   0  0  0  0  0  0  0  0  0  0  0  0
   57.9610   29.0380   45.1750 C   0  0  0  0  0  0  0  0  0  0  0  0
   58.1680   29.7450   44.1180 N   0  0  0  0  0  0  0  0  0  0  0  0
   57.2860   30.7310   43.5770 C   0  0  0  0  0  0  0  0  0  0  0  0
   57.9430   32.0880   43.4330 C   0  0  0  0  0  0  0  0  0  0  0  0
   58.4280   32.5840   44.7010 N   0  0  0  0  0  0  0  0  0  0  0  0
   57.3400   32.6800   45.6500 C   0  0  0  0  0  0  0  0  0  0  0  0
   57.8070   33.3640   46.9210 C   0  0  0  0  0  0  0  0  0  0  0  0
   58.2510   34.6240   46.6030 O   0  0  0  0  0  0  0  0  0  0  0  0
   59.3880   34.4920   45.7760 C   0  0  0  0  0  0  0  0  0  0  0  0
   58.9150   33.9300   44.4530 C   0  0  0  0  0  0  0  0  0  0  0  0
   58.6470   29.3180   46.3400 C   0  0  0  0  0  0  0  0  0  0  0  0
   59.5450   30.3380   46.3870 N   0  0  0  0  0  0  0  0  0  0  0  0
   60.2020   30.5830   47.5570 C   0  0  0  0  0  0  0  0  0  0  0  0
   61.1710   31.6700   47.6350 C   0  0  0  0  0  0  0  0  0  0  0  0
   62.4420   31.4190   47.1370 C   0  0  0  0  0  0  0  0  0  0  0  0
   63.3940   32.4240   47.1890 C   0  0  0  0  0  0  0  0  0  0  0  0
   63.0720   33.6600   47.7360 C   0  0  0  0  0  0  0  0  0  0  0  0
   61.8070   33.8690   48.2180 C   0  0  0  0  0  0  0  0  0  0  0  0
   60.8420   32.8820   48.1750 C   0  0  0  0  0  0  0  0  0  0  0  0
   59.9390   29.7890   48.6680 C   0  0  0  0  0  0  0  0  0  0  0  0
   60.6120   30.0080   49.9460 C   0  0  0  0  0  0  0  0  0  0  0  0
   59.9920   30.8800   50.8440 C   0  0  0  0  0  0  0  0  0  0  0  0
   60.6010   31.1120   52.0640 C   0  0  0  0  0  0  0  0  0  0  0  0
   61.7950   30.4970   52.3900 C   0  0  0  0  0  0  0  0  0  0  0  0
   62.4060   29.6340   51.4930 C   0  0  0  0  0  0  0  0  0  0  0  0
   61.8100   29.3830   50.2510 C   0  0  0  0  0  0  0  0  0  0  0  0
   59.0280   28.7760   48.5700 N   0  0  0  0  0  0  0  0  0  0  0  0
   58.3730   28.5220   47.4260 C   0  0  0  0  0  0  0  0  0  0  0  0
   57.4790   27.5130   47.3710 N   0  0  0  0  0  0  0  0  0  0  0  0
   55.1360   26.3030   46.7550 H   0  0  0  0  0  0  0  0  0  0  0  0
   56.5550   27.8260   44.2370 H   0  0  0  0  0  0  0  0  0  0  0  0
   56.9499   30.3958   42.5847 H   0  0  0  0  0  0  0  0  0  0  0  0
   56.4439   30.8424   44.2759 H   0  0  0  0  0  0  0  0  0  0  0  0
   58.7899   32.0020   42.7363 H   0  0  0  0  0  0  0  0  0  0  0  0
   57.1906   32.7949   43.0532 H   0  0  0  0  0  0  0  0  0  0  0  0
   56.5206   33.2631   45.2045 H   0  0  0  0  0  0  0  0  0  0  0  0
   56.9911   31.6665   45.8972 H   0  0  0  0  0  0  0  0  0  0  0  0
   56.9711   33.4343   47.6326 H   0  0  0  0  0  0  0  0  0  0  0  0
   58.6201   32.7845   47.3825 H   0  0  0  0  0  0  0  0  0  0  0  0
   59.8582   35.4744   45.6218 H   0  0  0  0  0  0  0  0  0  0  0  0
   60.1330   33.8281   46.2388 H   0  0  0  0  0  0  0  0  0  0  0  0
   58.1049   34.5540   44.0477 H   0  0  0  0  0  0  0  0  0  0  0  0
   59.7362   33.9168   43.7212 H   0  0  0  0  0  0  0  0  0  0  0  0
   62.6896   30.4370   46.7076 H   0  0  0  0  0  0  0  0  0  0  0  0
   64.4057   32.2434   46.7969 H   0  0  0  0  0  0  0  0  0  0  0  0
   63.8242   34.4613   47.7814 H   0  0  0  0  0  0  0  0  0  0  0  0
   61.5532   34.8481   48.6504 H   0  0  0  0  0  0  0  0  0  0  0  0
   59.8309   33.0670   48.5667 H   0  0  0  0  0  0  0  0  0  0  0  0
   59.0417   31.3707   50.5869 H   0  0  0  0  0  0  0  0  0  0  0  0
   60.1285   31.7955   52.7848 H   0  0  0  0  0  0  0  0  0  0  0  0
   62.2630   30.6931   53.3660 H   0  0  0  0  0  0  0  0  0  0  0  0
   63.3568   29.1476   51.7565 H   0  0  0  0  0  0  0  0  0  0  0  0
   62.2849   28.7013   49.5300 H   0  0  0  0  0  0  0  0  0  0  0  0
   57.2610   26.9030   48.1850 H   0  0  0  0  0  0  0  0  0  0  0  0
  1  2  2  3
  2  3  1  0
  3  4  1  0
  4  5  2  0
  5  6  1  0
  6  7  1  0
  7  8  1  0
  8  9  1  0
  9 10  1  0
 10 11  1  0
 11 12  1  0
 12 13  1  0
  4 14  1  0
 14 15  2  0
 15 16  1  0
 16 17  1  0
 17 18  2  0
 18 19  1  0
 19 20  2  0
 20 21  1  0
 21 22  2  0
 16 23  2  0
 23 24  1  0
 24 25  2  0
 25 26  1  0
 26 27  2  0
 27 28  1  0
 28 29  2  0
 23 30  1  0
 30 31  2  0
 31 32  1  0
 32  2  1  0
 13  8  1  0
 31 14  1  0
 22 17  1  0
 29 24  1  0
  1 33  1  0
  3 34  1  0
  6 35  1  0
  6 36  1  0
  7 37  1  0
  7 38  1  0
  9 39  1  0
  9 40  1  0
 10 41  1  0
 10 42  1  0
 12 43  1  0
 12 44  1  0
 13 45  1  0
 13 46  1  0
 18 47  1  0
 19 48  1  0
 20 49  1  0
 21 50  1  0
 22 51  1  0
 25 52  1  0
 26 53  1  0
 27 54  1  0
 28 55  1  0
 29 56  1  0
 32 57  1  0
M  END
>  <smiles>  (91) 
N=c1[nH]c(=NCCN2CCOCC2)c2nc(-c3ccccc3)c(-c3ccccc3)nc2[nH]1

>  <score_type>  (91) 
oracle

>  <origin>  (91) 
adg

>  <m_score__min__energy>  (91) 
-8.3100000000000005

>  <m_primary>  (91) 
energy

$$$$
91:0
     RDKit          3D

 57 60  0  0  1  0  0  0  0  0999 V2000
   54.7290   26.3430   45.9940 N   0  0  0  0  0  0  0  0  0  0  0  0
   56.2300   25.5270   46.1060 S   0  0  0  0  0  0  0  0  0  0  0  0
   56.4860   24.5910   44.9670 O   0  0  0  0  0  0  0  0  0  0  0  0
   56.2730   24.7140   47.3870 O   0  0  0  0  0  0  0  0  0  0  0  0
   57.5300   26.6840   46.1790 C   0  0  0  0  0  0  0  0  0  0  0  0
   58.0810   27.1520   44.9930 C   0  0  0  0  0  0  0  0  0  0  0  0
   59.1150   28.0710   44.9920 C   0  0  0  0  0  0  0  0  0  0  0  0
   59.6040   28.5290   46.2200 C   0  0  0  0  0  0  0  0  0  0  0  0
   60.6690   29.4770   46.1760 N   0  0  0  0  0  0  0  0  0  0  0  0
   60.4680   30.7150   46.5200 C   0  0  0  0  0  0  0  0  0  0  0  0
   61.5090   31.5230   46.8450 N   0  0  0  0  0  0  0  0  0  0  0  0
   61.3300   32.8130   47.2080 C   0  0  0  0  0  0  0  0  0  0  0  0
   62.3710   33.6860   47.5670 N   0  0  0  0  0  0  0  0  0  0  0  0
   63.0730   33.7160   48.8140 C   0  0  0  0  0  0  0  0  0  0  0  0
   62.2950   32.8570   49.8040 C   0  0  0  0  0  0  0  0  0  0  0  0
   63.0580   32.5070   51.0320 C   0  0  0  0  0  0  0  0  0  0  0  0
   64.2910   31.7200   50.5870 C   0  0  0  0  0  0  0  0  0  0  0  0
   65.1480   32.6910   49.8290 C   0  0  0  0  0  0  0  0  0  0  0  0
   64.4350   33.0920   48.5570 C   0  0  0  0  0  0  0  0  0  0  0  0
   60.0060   33.2410   47.2200 C   0  0  0  0  0  0  0  0  0  0  0  0
   58.9650   32.4040   46.8860 C   0  0  0  0  0  0  0  0  0  0  0  0
   57.7510   32.8240   46.9050 N   0  0  0  0  0  0  0  0  0  0  0  0
   57.0030   33.2170   45.7600 C   0  0  0  0  0  0  0  0  0  0  0  0
   57.0480   32.0910   44.7690 C   0  0  0  0  0  0  0  0  0  0  0  0
   57.4760   32.1070   43.4810 C   0  0  0  0  0  0  0  0  0  0  0  0
   57.3260   30.8340   42.9750 C   0  0  0  0  0  0  0  0  0  0  0  0
   56.8000   30.0960   44.0200 C   0  0  0  0  0  0  0  0  0  0  0  0
   56.6420   30.8580   45.0730 O   0  0  0  0  0  0  0  0  0  0  0  0
   59.1920   31.1260   46.5320 N   0  0  0  0  0  0  0  0  0  0  0  0
   59.0610   28.0700   47.4070 C   0  0  0  0  0  0  0  0  0  0  0  0
   58.0170   27.1400   47.4050 C   0  0  0  0  0  0  0  0  0  0  0  0
   54.4990   26.7320   46.9310 H   0  0  0  0  0  0  0  0  0  0  0  0
   54.7900   27.0880   45.2640 H   0  0  0  0  0  0  0  0  0  0  0  0
   57.6868   26.7841   44.0342 H   0  0  0  0  0  0  0  0  0  0  0  0
   59.5434   28.4338   44.0460 H   0  0  0  0  0  0  0  0  0  0  0  0
   62.4420   31.1120   46.7920 H   0  0  0  0  0  0  0  0  0  0  0  0
   62.6550   34.3980   46.8230 H   0  0  0  0  0  0  0  0  0  0  0  0
   63.1804   34.7350   49.2142 H   0  0  0  0  0  0  0  0  0  0  0  0
   61.3910   33.4075   50.1037 H   0  0  0  0  0  0  0  0  0  0  0  0
   62.0649   31.9110   49.2920 H   0  0  0  0  0  0  0  0  0  0  0  0
   63.3648   33.4224   51.5592 H   0  0  0  0  0  0  0  0  0  0  0  0
   62.4404   31.9106   51.7197 H   0  0  0  0  0  0  0  0  0  0  0  0
   64.8338   31.3327   51.4618 H   0  0  0  0  0  0  0  0  0  0  0  0
   64.0152   30.8549   49.9660 H   0  0  0  0  0  0  0  0  0  0  0  0
   65.3288   33.5830   50.4468 H   0  0  0  0  0  0  0  0  0  0  0  0
   66.1110   32.2206   49.5815 H   0  0  0  0  0  0  0  0  0  0  0  0
   65.0593   33.8210   48.0195 H   0  0  0  0  0  0  0  0  0  0  0  0
   64.2733   32.1778   47.9670 H   0  0  0  0  0  0  0  0  0  0  0  0
   59.7842   34.2800   47.5051 H   0  0  0  0  0  0  0  0  0  0  0  0
   55.9607   33.4208   46.0467 H   0  0  0  0  0  0  0  0  0  0  0  0
   57.4287   34.1309   45.3202 H   0  0  0  0  0  0  0  0  0  0  0  0
   57.8712   32.9787   42.9389 H   0  0  0  0  0  0  0  0  0  0  0  0
   57.5709   30.4819   41.9621 H   0  0  0  0  0  0  0  0  0  0  0  0
   56.5509   29.0256   43.9732 H   0  0  0  0  0  0  0  0  0  0  0  0
   58.3910   30.5120   46.2840 H   0  0  0  0  0  0  0  0  0  0  0  0
   59.4556   28.4414   48.3642 H   0  0  0  0  0  0  0  0  0  0  0  0
   57.5883   26.7752   48.3501 H   0  0  0  0  0  0  0  0  0  0  0  0
  1  2  1  0
  2  3  2  0
  2  4  2  0
  2  5  1  0
  5  6  2  0
  6  7  1  0
  7  8  2  0
  8  9  1  0
  9 10  2  0
 10 11  1  0
 11 12  1  0
 12 13  1  0
 13 14  1  0
 14 15  1  0
 15 16  1  0
 16 17  1  0
 17 18  1  0
 18 19  1  0
 12 20  2  0
 20 21  1  0
 21 22  2  0
 22 23  1  0
 23 24  1  0
 24 25  2  0
 25 26  1  0
 26 27  2  0
 27 28  1  0
 21 29  1  0
  8 30  1  0
 30 31  2  0
 31  5  1  0
 29 10  1  0
 19 14  1  0
 28 24  1  0
  1 32  1  0
  1 33  1  0
  6 34  1  0
  7 35  1  0
 11 36  1  0
 13 37  1  0
 14 38  1  0
 15 39  1  0
 15 40  1  0
 16 41  1  0
 16 42  1  0
 17 43  1  0
 17 44  1  0
 18 45  1  0
 18 46  1  0
 19 47  1  0
 19 48  1  0
 20 49  1  0
 23 50  1  0
 23 51  1  0
 25 52  1  0
 26 53  1  0
 27 54  1  0
 29 55  1  0
 30 56  1  0
 31 57  1  0
M  END
>  <smiles>  (92) 
NS(=O)(=O)c1ccc(N=c2[nH]c(NC3CCCCC3)cc(=NCc3ccco3)[nH]2)cc1

>  <score_type>  (92) 
oracle

>  <origin>  (92) 
adg

>  <m_score__min__energy>  (92) 
-9.7599999999999998

>  <m_primary>  (92) 
energy

$$$$
92:0
     RDKit          3D

 24 24  0  0  0  0  0  0  0  0999 V2000
   59.6539   29.8683   44.2911 H   0  0  0  0  0  0  0  0  0  0  0  0
   58.6030   30.1520   44.4500 C   0  0  0  0  0  0  0  0  0  0  0  0
   57.6580   29.2480   44.1490 C   0  0  0  0  0  0  0  0  0  0  0  0
   57.9152   28.4521   43.4345 H   0  0  0  0  0  0  0  0  0  0  0  0
   56.3340   29.2540   44.7000 N   0  0  0  0  0  0  0  0  0  0  0  0
   55.8980   28.2170   45.2410 O   0  0  0  0  0  0  0  0  0  0  0  0
   55.4730   30.3110   44.5080 O   0  0  0  0  0  0  0  0  0  0  0  0
   58.3260   31.5040   44.9810 C   0  0  0  0  0  0  0  0  0  0  0  0
   57.9410   32.5400   44.0970 C   0  0  0  0  0  0  0  0  0  0  0  0
   57.7900   32.2860   42.6200 C   0  0  0  0  0  0  0  0  0  0  0  0
   57.2336   31.3500   42.4639 H   0  0  0  0  0  0  0  0  0  0  0  0
   57.2411   33.1202   42.1587 H   0  0  0  0  0  0  0  0  0  0  0  0
   58.7851   32.2023   42.1587 H   0  0  0  0  0  0  0  0  0  0  0  0
   57.6770   33.8220   44.6050 C   0  0  0  0  0  0  0  0  0  0  0  0
   57.3731   34.6281   43.9211 H   0  0  0  0  0  0  0  0  0  0  0  0
   57.7970   34.0810   45.9690 C   0  0  0  0  0  0  0  0  0  0  0  0
   57.5785   35.0869   46.3570 H   0  0  0  0  0  0  0  0  0  0  0  0
   58.1930   33.0700   46.8440 C   0  0  0  0  0  0  0  0  0  0  0  0
   58.2811   33.2832   47.9195 H   0  0  0  0  0  0  0  0  0  0  0  0
   58.4800   31.7830   46.3640 C   0  0  0  0  0  0  0  0  0  0  0  0
   58.9160   30.7200   47.3380 C   0  0  0  0  0  0  0  0  0  0  0  0
   58.7676   31.0817   48.3662 H   0  0  0  0  0  0  0  0  0  0  0  0
   58.3184   29.8102   47.1796 H   0  0  0  0  0  0  0  0  0  0  0  0
   59.9803   30.4918   47.1796 H   0  0  0  0  0  0  0  0  0  0  0  0
  1  2  1  0
  2  3  2  0
  3  4  1  0
  3  5  1  0
  5  6  2  0
  5  7  1  0
  2  8  1  0
  8  9  2  0
  9 10  1  0
 10 11  1  0
 10 12  1  0
 10 13  1  0
  9 14  1  0
 14 15  1  0
 14 16  2  0
 16 17  1  0
 16 18  1  0
 18 19  1  0
 18 20  2  0
 20 21  1  0
 21 22  1  0
 21 23  1  0
 21 24  1  0
 20  8  1  0
M  CHG  2   5   1   7  -1
M  END
>  <UniqueID>  (93) 
80

>  <SMILES>  (93) 
Cc1cccc(C)c1/C=C\[N+](=O)[O-]

>  <Energy>  (93) 
31.828563839116875

>  <Genealogy>  (93) 
Cc1cccc(C)c1/C=C\[N+](=O)[O-] (cis-trans isomerization)
Cc1cccc(C)c1/C=C\[N+](=O)[O-] (3D coordinates assigned)
Cc1cccc(C)c1/C=C\[N+](=O)[O-] (optimized conformer: 31.828563839116875 kcal/mol)

>  <smiles>  (93) 
Cc1cccc(C)c1C=C[N+](=O)[O-]

>  <score_type>  (93) 
oracle

>  <origin>  (93) 
adg

>  <m_score__min__energy>  (93) 
-6.2000000000000002

>  <m_primary>  (93) 
energy

$$$$
