0:0
     RDKit          3D

 54 55  0  0  0  0  0  0  0  0999 V2000
   59.2990   30.2520   49.2170 N   0  0  0  0  0  0  0  0  0  0  0  0
   58.9840   29.5280   48.0260 C   0  0  0  0  0  0  0  0  0  0  0  0
   58.1780   30.1390   47.0150 N   0  0  0  0  0  0  0  0  0  0  0  0
   59.3970   28.3120   47.8450 N   0  0  0  0  0  0  0  0  0  0  0  0
   60.1450   27.8380   46.6890 C   0  0  0  0  0  0  0  0  0  0  0  0
   59.4430   26.6350   46.0580 C   0  0  0  0  0  0  0  0  0  0  0  0
   58.2890   27.0270   45.1010 C   0  0  0  0  0  0  0  0  0  0  0  0
   56.9520   27.3550   45.8240 C   0  0  1  0  0  0  0  0  0  0  0  0
   56.2700   28.4810   45.1760 N   0  0  0  0  0  0  0  0  0  0  0  0
   56.6150   29.2250   43.9920 C   0  0  0  0  0  0  0  0  0  0  0  0
   57.0110   28.5870   42.9750 O   0  0  0  0  0  0  0  0  0  0  0  0
   56.5450   30.7210   43.9100 C   0  0  0  0  0  0  0  0  0  0  0  0
   56.8090   31.3200   45.2130 N   0  0  0  0  0  0  0  0  0  0  0  0
   57.3320   32.6310   45.4300 C   0  0  0  0  0  0  0  0  0  0  0  0
   57.4180   33.4510   44.4790 O   0  0  0  0  0  0  0  0  0  0  0  0
   57.7080   33.0600   46.7460 N   0  0  0  0  0  0  0  0  0  0  0  0
   59.0530   33.3120   47.1730 C   0  0  0  0  0  0  0  0  0  0  0  0
   60.1290   33.3050   46.2740 C   0  0  0  0  0  0  0  0  0  0  0  0
   61.4320   33.5630   46.7140 C   0  0  0  0  0  0  0  0  0  0  0  0
   61.6630   33.8480   48.0590 C   0  0  0  0  0  0  0  0  0  0  0  0
   60.5920   33.8830   48.9590 C   0  0  0  0  0  0  0  0  0  0  0  0
   59.2910   33.6270   48.5210 C   0  0  0  0  0  0  0  0  0  0  0  0
   56.0200   26.1710   46.0060 C   0  0  0  0  0  0  0  0  0  0  0  0
   54.7750   26.3410   45.9970 O   0  0  0  0  0  0  0  0  0  0  0  0
   56.5250   24.8610   46.3090 N   0  0  0  0  0  0  0  0  0  0  0  0
   56.7680   23.8120   45.3680 C   0  0  0  0  0  0  0  0  0  0  0  0
   55.9990   23.7540   44.2000 C   0  0  0  0  0  0  0  0  0  0  0  0
   56.2740   22.7840   43.2270 C   0  0  0  0  0  0  0  0  0  0  0  0
   57.3280   21.8880   43.4060 C   0  0  0  0  0  0  0  0  0  0  0  0
   58.1290   21.9770   44.5450 C   0  0  0  0  0  0  0  0  0  0  0  0
   57.8480   22.9300   45.5290 C   0  0  0  0  0  0  0  0  0  0  0  0
   59.7350   29.8050   50.0450 H   0  0  0  0  0  0  0  0  0  0  0  0
   58.9880   31.2440   49.3080 H   0  0  0  0  0  0  0  0  0  0  0  0
   57.8430   29.5830   46.1940 H   0  0  0  0  0  0  0  0  0  0  0  0
   57.8940   31.1380   47.0910 H   0  0  0  0  0  0  0  0  0  0  0  0
   60.2163   28.6467   45.9467 H   0  0  0  0  0  0  0  0  0  0  0  0
   61.1510   27.5345   47.0143 H   0  0  0  0  0  0  0  0  0  0  0  0
   60.1861   26.0567   45.4894 H   0  0  0  0  0  0  0  0  0  0  0  0
   59.0000   26.0511   46.8782 H   0  0  0  0  0  0  0  0  0  0  0  0
   58.5998   27.9139   44.5293 H   0  0  0  0  0  0  0  0  0  0  0  0
   58.0979   26.1548   44.4586 H   0  0  0  0  0  0  0  0  0  0  0  0
   57.2366   27.6455   46.8461 H   0  0  0  0  0  0  0  0  0  0  0  0
   57.2948   31.0789   43.1891 H   0  0  0  0  0  0  0  0  0  0  0  0
   55.5351   31.0112   43.5847 H   0  0  0  0  0  0  0  0  0  0  0  0
   59.9466   33.0941   45.2099 H   0  0  0  0  0  0  0  0  0  0  0  0
   62.2702   33.5410   46.0020 H   0  0  0  0  0  0  0  0  0  0  0  0
   62.6859   34.0451   48.4123 H   0  0  0  0  0  0  0  0  0  0  0  0
   60.7762   34.1137   50.0186 H   0  0  0  0  0  0  0  0  0  0  0  0
   58.4526   33.6720   49.2316 H   0  0  0  0  0  0  0  0  0  0  0  0
   55.1784   24.4702   44.0459 H   0  0  0  0  0  0  0  0  0  0  0  0
   55.6563   22.7288   42.3185 H   0  0  0  0  0  0  0  0  0  0  0  0
   57.5272   21.1132   42.6511 H   0  0  0  0  0  0  0  0  0  0  0  0
   58.9837   21.2958   44.6692 H   0  0  0  0  0  0  0  0  0  0  0  0
   58.4747   22.9886   46.4311 H   0  0  0  0  0  0  0  0  0  0  0  0
  1  2  1  0
  2  3  1  0
  2  4  2  3
  4  5  1  0
  5  6  1  0
  6  7  1  0
  7  8  1  0
  8  9  1  0
  9 10  1  0
 10 11  2  0
 10 12  1  0
 12 13  1  0
 13 14  1  0
 14 15  2  0
 14 16  1  0
 16 17  1  0
 17 18  2  0
 18 19  1  0
 19 20  2  0
 20 21  1  0
 21 22  2  0
  8 23  1  0
 23 24  2  0
 23 25  1  0
 25 26  1  0
 26 27  2  0
 27 28  1  0
 28 29  2  0
 29 30  1  0
 30 31  2  0
 22 17  1  0
 31 26  1  0
  1 32  1  0
  1 33  1  0
  3 34  1  0
  3 35  1  0
  5 36  1  0
  5 37  1  0
  6 38  1  0
  6 39  1  0
  7 40  1  0
  7 41  1  0
  8 42  1  1
 12 43  1  0
 12 44  1  0
 18 45  1  0
 19 46  1  0
 20 47  1  0
 21 48  1  0
 22 49  1  0
 27 50  1  0
 28 51  1  0
 29 52  1  0
 30 53  1  0
 31 54  1  0
M  CHG  4   9  -1  13  -1  16  -1  25  -1
M  END
>  <UniqueID>  (1) 
1

>  <SMILES>  (1) 
NC(N)=NCCC[C@@H]([N-]C(=O)C[N-]C(=O)[N-]c1ccccc1)C(=O)[N-]c1ccccc1

>  <Energy>  (1) 
57.42073094258969

>  <Genealogy>  (1) 
NC(N)=NCCCC([N-]C(=O)C[N-]C(=O)[N-]c1ccccc1)C(=O)[N-]c1ccccc1 (protonated)
NC(N)=NCCC[C@@H]([N-]C(=O)C[N-]C(=O)[N-]c1ccccc1)C(=O)[N-]c1ccccc1 (chirality)
NC(N)=NCCC[C@@H]([N-]C(=O)C[N-]C(=O)[N-]c1ccccc1)C(=O)[N-]c1ccccc1 (3D coordinates assigned)
NC(N)=NCCC[C@@H]([N-]C(=O)C[N-]C(=O)[N-]c1ccccc1)C(=O)[N-]c1ccccc1 (optimized conformer: 57.42073094258969 kcal/mol)

>  <smiles>  (1) 
NC(N)=NCCCC(NC(=O)CNC(=O)Nc1ccccc1)C(=O)Nc1ccccc1

>  <score_type>  (1) 
oracle

>  <origin>  (1) 
adg

>  <m_score__min__energy>  (1) 
-14.24

>  <m_primary>  (1) 
energy

$$$$
1:0
     RDKit          3D

 22 22  0  0  0  0  0  0  0  0999 V2000
   57.8560   32.3210   41.2580 C   0  0  0  0  0  0  0  0  0  0  0  0
   57.1520   31.8720   42.4120 O   0  0  0  0  0  0  0  0  0  0  0  0
   57.5710   32.0830   43.7360 C   0  0  0  0  0  0  0  0  0  0  0  0
   58.1310   33.3070   44.1530 C   0  0  0  0  0  0  0  0  0  0  0  0
   58.5440   33.4940   45.4850 C   0  0  0  0  0  0  0  0  0  0  0  0
   59.1170   34.7460   45.9080 N   0  0  0  0  0  0  0  0  0  0  0  0
   59.5460   35.5670   45.0710 O   0  0  0  0  0  0  0  0  0  0  0  0
   59.2010   35.0600   47.2450 O   0  0  0  0  0  0  0  0  0  0  0  0
   58.3900   32.4410   46.3990 C   0  0  0  0  0  0  0  0  0  0  0  0
   57.8350   31.2270   45.9950 C   0  0  0  0  0  0  0  0  0  0  0  0
   57.4240   31.0400   44.6680 C   0  0  0  0  0  0  0  0  0  0  0  0
   56.7220   29.4980   44.1720 S   0  0  0  0  0  0  0  0  0  0  0  0
   55.1460   29.3310   44.8620 N   0  0  0  0  0  0  0  0  0  0  0  0
   57.5800   28.3550   44.6360 O   0  0  0  0  0  0  0  0  0  0  0  0
   56.6220   29.4540   42.6730 O   0  0  0  0  0  0  0  0  0  0  0  0
   58.7456   32.8884   41.5689 H   0  0  0  0  0  0  0  0  0  0  0  0
   58.1660   31.4534   40.6570 H   0  0  0  0  0  0  0  0  0  0  0  0
   57.2001   32.9679   40.6570 H   0  0  0  0  0  0  0  0  0  0  0  0
   58.2467   34.1264   43.4283 H   0  0  0  0  0  0  0  0  0  0  0  0
   58.7097   32.5739   47.4431 H   0  0  0  0  0  0  0  0  0  0  0  0
   57.7190   30.4105   46.7229 H   0  0  0  0  0  0  0  0  0  0  0  0
   55.2250   28.6350   45.6360 H   0  0  0  0  0  0  0  0  0  0  0  0
  1  2  1  0
  2  3  1  0
  3  4  2  0
  4  5  1  0
  5  6  1  0
  6  7  2  0
  6  8  1  0
  5  9  2  0
  9 10  1  0
 10 11  2  0
 11 12  1  0
 12 13  1  0
 12 14  2  0
 12 15  2  0
 11  3  1  0
  1 16  1  0
  1 17  1  0
  1 18  1  0
  4 19  1  0
  9 20  1  0
 10 21  1  0
 13 22  1  0
M  CHG  3   6   1   8  -1  13  -1
M  END
>  <UniqueID>  (2) 
2

>  <SMILES>  (2) 
COc1cc([N+](=O)[O-])ccc1S([NH-])(=O)=O

>  <Energy>  (2) 
21.513088816832063

>  <Genealogy>  (2) 
COc1cc([N+](=O)[O-])ccc1S([NH-])(=O)=O (protonated)
COc1cc([N+](=O)[O-])ccc1S([NH-])(=O)=O (3D coordinates assigned)
COc1cc([N+](=O)[O-])ccc1S([NH-])(=O)=O (optimized conformer: 21.513088816832063 kcal/mol)

>  <smiles>  (2) 
COc1cc([N+](=O)[O-])ccc1S(N)(=O)=O

>  <score_type>  (2) 
oracle

>  <origin>  (2) 
adg

>  <m_score__min__energy>  (2) 
-8.6400000000000006

>  <m_primary>  (2) 
energy

$$$$
2:0
     RDKit          3D

 50 53  0  0  0  0  0  0  0  0999 V2000
   68.7520   34.2400   51.3430 C   0  0  0  0  0  0  0  0  0  0  0  0
   67.2680   34.0650   51.2780 C   0  0  0  0  0  0  0  0  0  0  0  0
   66.4400   34.6900   52.2290 C   0  0  0  0  0  0  0  0  0  0  0  0
   65.0370   34.5540   52.1540 C   0  0  0  0  0  0  0  0  0  0  0  0
   64.1890   35.2800   53.1620 C   0  0  0  0  0  0  0  0  0  0  0  0
   64.5010   33.7440   51.1230 C   0  0  0  0  0  0  0  0  0  0  0  0
   63.1500   33.4270   50.8220 C   0  0  0  0  0  0  0  0  0  0  0  0
   62.0300   33.8350   51.6130 N   0  0  0  0  0  0  0  0  0  0  0  0
   63.0120   32.6470   49.6560 C   0  0  0  0  0  0  0  0  0  0  0  0
   61.7600   32.0970   49.0890 C   0  0  0  0  0  0  0  0  0  0  0  0
   60.6750   32.7190   49.2450 O   0  0  0  0  0  0  0  0  0  0  0  0
   61.7620   30.8280   48.4100 N   0  0  0  0  0  0  0  0  0  0  0  0
   60.6620   30.3460   47.6200 C   0  0  0  0  0  0  0  0  0  0  0  0
   59.4270   30.0180   48.2080 C   0  0  0  0  0  0  0  0  0  0  0  0
   58.3690   29.5590   47.4170 C   0  0  0  0  0  0  0  0  0  0  0  0
   58.5290   29.4150   46.0340 C   0  0  0  0  0  0  0  0  0  0  0  0
   57.4350   28.9110   45.2560 N   0  0  0  0  0  0  0  0  0  0  0  0
   56.3070   29.6730   44.8050 C   0  0  0  0  0  0  0  0  0  0  0  0
   55.1580   29.1640   44.8750 O   0  0  0  0  0  0  0  0  0  0  0  0
   56.4480   30.9990   44.2760 N   0  0  0  0  0  0  0  0  0  0  0  0
   57.3040   32.0250   44.7990 C   0  0  0  0  0  0  0  0  0  0  0  0
   57.4000   32.2720   46.1810 C   0  0  0  0  0  0  0  0  0  0  0  0
   58.2250   33.2950   46.6560 C   0  0  0  0  0  0  0  0  0  0  0  0
   58.9750   34.0650   45.7600 C   0  0  0  0  0  0  0  0  0  0  0  0
   60.0050   35.3520   46.3570 Cl  0  0  0  0  0  0  0  0  0  0  0  0
   58.9070   33.8030   44.3880 C   0  0  0  0  0  0  0  0  0  0  0  0
   58.0800   32.7810   43.9110 C   0  0  0  0  0  0  0  0  0  0  0  0
   59.7430   29.7940   45.4390 C   0  0  0  0  0  0  0  0  0  0  0  0
   60.8000   30.2550   46.2280 C   0  0  0  0  0  0  0  0  0  0  0  0
   64.5480   32.3410   49.0190 S   0  0  0  0  0  0  0  0  0  0  0  0
   65.3750   33.1850   50.2000 C   0  0  0  0  0  0  0  0  0  0  0  0
   66.7190   33.3380   50.2690 N   0  0  0  0  0  0  0  0  0  0  0  0
   69.0710   34.2776   52.3950 H   0  0  0  0  0  0  0  0  0  0  0  0
   69.2434   33.3936   50.8409 H   0  0  0  0  0  0  0  0  0  0  0  0
   69.0330   35.1775   50.8409 H   0  0  0  0  0  0  0  0  0  0  0  0
   66.8889   35.2881   53.0357 H   0  0  0  0  0  0  0  0  0  0  0  0
   64.5103   35.0050   54.1775 H   0  0  0  0  0  0  0  0  0  0  0  0
   64.3024   36.3653   53.0229 H   0  0  0  0  0  0  0  0  0  0  0  0
   63.1342   35.0007   53.0229 H   0  0  0  0  0  0  0  0  0  0  0  0
   61.0560   33.7350   51.2540 H   0  0  0  0  0  0  0  0  0  0  0  0
   62.1510   34.1370   52.6020 H   0  0  0  0  0  0  0  0  0  0  0  0
   62.5620   30.1760   48.5680 H   0  0  0  0  0  0  0  0  0  0  0  0
   59.2928   30.1230   49.2947 H   0  0  0  0  0  0  0  0  0  0  0  0
   57.4051   29.3096   47.8846 H   0  0  0  0  0  0  0  0  0  0  0  0
   56.8241   31.6582   46.8893 H   0  0  0  0  0  0  0  0  0  0  0  0
   58.2850   33.4953   47.7359 H   0  0  0  0  0  0  0  0  0  0  0  0
   59.5041   34.4009   43.6838 H   0  0  0  0  0  0  0  0  0  0  0  0
   58.0387   32.5696   42.8323 H   0  0  0  0  0  0  0  0  0  0  0  0
   59.8624   29.7277   44.3475 H   0  0  0  0  0  0  0  0  0  0  0  0
   61.7477   30.5488   45.7532 H   0  0  0  0  0  0  0  0  0  0  0  0
  1  2  1  0
  2  3  2  0
  3  4  1  0
  4  5  1  0
  4  6  2  0
  6  7  1  0
  7  8  1  0
  7  9  2  0
  9 10  1  0
 10 11  2  0
 10 12  1  0
 12 13  1  0
 13 14  2  0
 14 15  1  0
 15 16  2  0
 16 17  1  0
 17 18  1  0
 18 19  2  0
 18 20  1  0
 20 21  1  0
 21 22  2  0
 22 23  1  0
 23 24  2  0
 24 25  1  0
 24 26  1  0
 26 27  2  0
 16 28  1  0
 28 29  2  0
  9 30  1  0
 30 31  1  0
 31 32  2  0
 32  2  1  0
 31  6  1  0
 29 13  1  0
 27 21  1  0
  1 33  1  0
  1 34  1  0
  1 35  1  0
  3 36  1  0
  5 37  1  0
  5 38  1  0
  5 39  1  0
  8 40  1  0
  8 41  1  0
 12 42  1  0
 14 43  1  0
 15 44  1  0
 22 45  1  0
 23 46  1  0
 26 47  1  0
 27 48  1  0
 28 49  1  0
 29 50  1  0
M  CHG  2  17  -1  20  -1
M  END
>  <UniqueID>  (3) 
3

>  <SMILES>  (3) 
Cc1cc(C)c2c(N)c(C(=O)Nc3ccc([N-]C(=O)[N-]c4ccc(Cl)cc4)cc3)sc2n1

>  <Energy>  (3) 
103.90850120558271

>  <Genealogy>  (3) 
Cc1cc(C)c2c(N)c(C(=O)Nc3ccc([N-]C(=O)[N-]c4ccc(Cl)cc4)cc3)sc2n1 (protonated)
Cc1cc(C)c2c(N)c(C(=O)Nc3ccc([N-]C(=O)[N-]c4ccc(Cl)cc4)cc3)sc2n1 (3D coordinates assigned)
Cc1cc(C)c2c(N)c(C(=O)Nc3ccc([N-]C(=O)[N-]c4ccc(Cl)cc4)cc3)sc2n1 (optimized conformer: 103.90850120558271 kcal/mol)

>  <smiles>  (3) 
Cc1cc(C)c2c(N)c(C(=O)Nc3ccc(NC(=O)Nc4ccc(Cl)cc4)cc3)sc2n1

>  <score_type>  (3) 
oracle

>  <origin>  (3) 
adg

>  <m_score__min__energy>  (3) 
-10.92

>  <m_primary>  (3) 
energy

$$$$
3:0
     RDKit          3D

 51 54  0  0  0  0  0  0  0  0999 V2000
   63.5460   33.0780   46.8510 C   0  0  0  0  0  0  0  0  0  0  0  0
   62.7030   32.1260   47.4920 O   0  0  0  0  0  0  0  0  0  0  0  0
   61.7820   32.4320   48.5060 C   0  0  0  0  0  0  0  0  0  0  0  0
   61.9440   33.5530   49.3450 C   0  0  0  0  0  0  0  0  0  0  0  0
   60.9960   33.8450   50.3280 C   0  0  0  0  0  0  0  0  0  0  0  0
   59.8790   33.0260   50.4880 C   0  0  0  0  0  0  0  0  0  0  0  0
   59.7070   31.9100   49.6690 C   0  0  0  0  0  0  0  0  0  0  0  0
   60.6540   31.6000   48.6790 C   0  0  0  0  0  0  0  0  0  0  0  0
   60.4630   30.4400   47.8500 N   0  0  0  0  0  0  0  0  0  0  0  0
   60.2490   29.1210   48.4580 C   0  0  0  0  0  0  0  0  0  0  0  0
   59.1820   28.3210   47.6850 C   0  0  0  0  0  0  0  0  0  0  0  0
   59.1370   28.6410   46.2380 N   0  0  0  0  0  0  0  0  0  0  0  0
   58.5930   27.5400   45.4120 C   0  0  0  0  0  0  0  0  0  0  0  0
   57.7360   28.0180   44.2230 C   0  0  0  0  0  0  0  0  0  0  0  0
   56.2920   28.9740   44.8070 S   0  0  0  0  0  0  0  0  0  0  0  0
   57.1080   30.5640   44.7060 C   0  0  0  0  0  0  0  0  0  0  0  0
   57.4440   31.0790   43.4940 N   0  0  0  0  0  0  0  0  0  0  0  0
   58.0610   32.2840   43.3850 C   0  0  0  0  0  0  0  0  0  0  0  0
   58.3520   32.7270   42.2420 O   0  0  0  0  0  0  0  0  0  0  0  0
   58.3650   33.0180   44.5440 C   0  0  0  0  0  0  0  0  0  0  0  0
   59.0010   34.2710   44.5010 C   0  0  0  0  0  0  0  0  0  0  0  0
   59.2800   34.9550   45.6880 C   0  0  0  0  0  0  0  0  0  0  0  0
   58.9280   34.3970   46.9220 C   0  0  0  0  0  0  0  0  0  0  0  0
   58.2960   33.1520   46.9750 C   0  0  0  0  0  0  0  0  0  0  0  0
   58.0130   32.4590   45.7920 C   0  0  0  0  0  0  0  0  0  0  0  0
   57.3970   31.2500   45.8420 N   0  0  0  0  0  0  0  0  0  0  0  0
   60.3840   29.2190   45.7090 C   0  0  0  0  0  0  0  0  0  0  0  0
   60.6370   30.5600   46.3970 C   0  0  0  0  0  0  0  0  0  0  0  0
   64.0725   33.6726   47.6120 H   0  0  0  0  0  0  0  0  0  0  0  0
   64.2807   32.5530   46.2229 H   0  0  0  0  0  0  0  0  0  0  0  0
   62.9359   33.7438   46.2229 H   0  0  0  0  0  0  0  0  0  0  0  0
   62.8235   34.2026   49.2246 H   0  0  0  0  0  0  0  0  0  0  0  0
   61.1308   34.7227   50.9772 H   0  0  0  0  0  0  0  0  0  0  0  0
   59.1324   33.2602   51.2611 H   0  0  0  0  0  0  0  0  0  0  0  0
   58.8233   31.2680   49.7994 H   0  0  0  0  0  0  0  0  0  0  0  0
   61.1962   28.5618   48.4460 H   0  0  0  0  0  0  0  0  0  0  0  0
   59.8983   29.2647   49.4907 H   0  0  0  0  0  0  0  0  0  0  0  0
   59.4008   27.2489   47.7980 H   0  0  0  0  0  0  0  0  0  0  0  0
   58.2037   28.5936   48.1075 H   0  0  0  0  0  0  0  0  0  0  0  0
   59.4358   26.9531   45.0180 H   0  0  0  0  0  0  0  0  0  0  0  0
   57.9343   26.9467   46.0632 H   0  0  0  0  0  0  0  0  0  0  0  0
   58.3497   28.6550   43.5691 H   0  0  0  0  0  0  0  0  0  0  0  0
   57.3760   27.1372   43.6711 H   0  0  0  0  0  0  0  0  0  0  0  0
   59.2792   34.7134   43.5331 H   0  0  0  0  0  0  0  0  0  0  0  0
   59.7779   35.9352   45.6517 H   0  0  0  0  0  0  0  0  0  0  0  0
   59.1494   34.9399   47.8527 H   0  0  0  0  0  0  0  0  0  0  0  0
   58.0207   32.7162   47.9467 H   0  0  0  0  0  0  0  0  0  0  0  0
   61.2225   28.5362   45.9107 H   0  0  0  0  0  0  0  0  0  0  0  0
   60.2953   29.3676   44.6227 H   0  0  0  0  0  0  0  0  0  0  0  0
   61.6650   30.8874   46.1825 H   0  0  0  0  0  0  0  0  0  0  0  0
   59.9140   31.2953   46.0142 H   0  0  0  0  0  0  0  0  0  0  0  0
  1  2  1  0
  2  3  1  0
  3  4  2  0
  4  5  1  0
  5  6  2  0
  6  7  1  0
  7  8  2  0
  8  9  1  0
  9 10  1  0
 10 11  1  0
 11 12  1  0
 12 13  1  0
 13 14  1  0
 14 15  1  0
 15 16  1  0
 16 17  2  0
 17 18  1  0
 18 19  2  0
 18 20  1  0
 20 21  2  0
 21 22  1  0
 22 23  2  0
 23 24  1  0
 24 25  2  0
 25 26  1  0
 12 27  1  0
 27 28  1  0
  8  3  1  0
 28  9  1  0
 26 16  1  0
 25 20  1  0
  1 29  1  0
  1 30  1  0
  1 31  1  0
  4 32  1  0
  5 33  1  0
  6 34  1  0
  7 35  1  0
 10 36  1  0
 10 37  1  0
 11 38  1  0
 11 39  1  0
 13 40  1  0
 13 41  1  0
 14 42  1  0
 14 43  1  0
 21 44  1  0
 22 45  1  0
 23 46  1  0
 24 47  1  0
 27 48  1  0
 27 49  1  0
 28 50  1  0
 28 51  1  0
M  CHG  1  26  -1
M  END
>  <UniqueID>  (4) 
4

>  <SMILES>  (4) 
COc1ccccc1N1CCN(CCSc2nc(=O)c3ccccc3[n-]2)CC1

>  <Energy>  (4) 
66.89982869451573

>  <Genealogy>  (4) 
COc1ccccc1N1CCN(CCSc2nc(=O)c3ccccc3[n-]2)CC1 (protonated)
COc1ccccc1N1CCN(CCSc2nc(=O)c3ccccc3[n-]2)CC1 (3D coordinates assigned)
COc1ccccc1N1CCN(CCSc2nc(=O)c3ccccc3[n-]2)CC1 (nonaromatic ring conformer: 66.89982869451573 kcal/mol)

>  <smiles>  (4) 
COc1ccccc1N1CCN(CCSc2nc(=O)c3ccccc3[nH]2)CC1

>  <score_type>  (4) 
oracle

>  <origin>  (4) 
adg

>  <m_score__min__energy>  (4) 
-10.5

>  <m_primary>  (4) 
energy

$$$$
4:0
     RDKit          3D

 46 48  0  0  0  0  0  0  0  0999 V2000
   60.8200   27.3100   47.1410 O   0  0  0  0  0  0  0  0  0  0  0  0
   59.7910   27.6990   47.7580 C   0  0  0  0  0  0  0  0  0  0  0  0
   59.9340   28.5010   48.9440 N   0  0  0  0  0  0  0  0  0  0  0  0
   61.2130   29.0860   49.3370 C   0  0  0  0  0  0  0  0  0  0  0  0
   61.2320   30.5430   48.9710 C   0  0  0  0  0  0  0  0  0  0  0  0
   61.8750   30.9650   47.7950 C   0  0  0  0  0  0  0  0  0  0  0  0
   61.9560   32.3270   47.4880 C   0  0  0  0  0  0  0  0  0  0  0  0
   61.4070   33.2750   48.3560 C   0  0  0  0  0  0  0  0  0  0  0  0
   61.4910   34.5960   48.0590 F   0  0  0  0  0  0  0  0  0  0  0  0
   60.7770   32.8630   49.5330 C   0  0  0  0  0  0  0  0  0  0  0  0
   60.6930   31.5020   49.8440 C   0  0  0  0  0  0  0  0  0  0  0  0
   58.4530   27.3600   47.2160 C   0  0  0  0  0  0  0  0  0  0  0  0
   57.8760   26.1130   47.5100 C   0  0  0  0  0  0  0  0  0  0  0  0
   56.6390   25.7600   46.9690 C   0  0  0  0  0  0  0  0  0  0  0  0
   55.9650   26.6370   46.1160 C   0  0  0  0  0  0  0  0  0  0  0  0
   54.7190   26.2760   45.6200 O   0  0  0  0  0  0  0  0  0  0  0  0
   56.5390   27.8780   45.7940 C   0  0  0  0  0  0  0  0  0  0  0  0
   55.9090   28.7830   44.8830 N   0  0  0  0  0  0  0  0  0  0  0  0
   56.7540   29.6030   43.6070 S   0  0  0  0  0  0  0  0  0  0  0  0
   56.9290   28.6950   42.4230 O   0  0  0  0  0  0  0  0  0  0  0  0
   55.9310   30.7840   43.1800 O   0  0  0  0  0  0  0  0  0  0  0  0
   58.3460   30.2090   44.1600 C   0  0  0  0  0  0  0  0  0  0  0  0
   58.2270   31.5070   44.9160 C   0  0  0  0  0  0  0  0  0  0  0  0
   58.3490   31.5280   46.3160 C   0  0  0  0  0  0  0  0  0  0  0  0
   58.2200   32.7310   47.0170 C   0  0  0  0  0  0  0  0  0  0  0  0
   57.9830   33.9220   46.3270 C   0  0  0  0  0  0  0  0  0  0  0  0
   57.8800   33.9140   44.9350 C   0  0  0  0  0  0  0  0  0  0  0  0
   58.0010   32.7130   44.2290 C   0  0  0  0  0  0  0  0  0  0  0  0
   57.7540   28.2520   46.3830 C   0  0  0  0  0  0  0  0  0  0  0  0
   59.0850   28.8850   49.4130 H   0  0  0  0  0  0  0  0  0  0  0  0
   61.3463   28.9793   50.4237 H   0  0  0  0  0  0  0  0  0  0  0  0
   62.0295   28.5664   48.8142 H   0  0  0  0  0  0  0  0  0  0  0  0
   62.3158   30.2221   47.1140 H   0  0  0  0  0  0  0  0  0  0  0  0
   62.4525   32.6527   46.5620 H   0  0  0  0  0  0  0  0  0  0  0  0
   60.3465   33.6101   50.2160 H   0  0  0  0  0  0  0  0  0  0  0  0
   60.2032   31.1817   50.7754 H   0  0  0  0  0  0  0  0  0  0  0  0
   58.4033   25.4098   48.1715 H   0  0  0  0  0  0  0  0  0  0  0  0
   56.1922   24.7856   47.2157 H   0  0  0  0  0  0  0  0  0  0  0  0
   58.8031   29.4556   44.8185 H   0  0  0  0  0  0  0  0  0  0  0  0
   58.9668   30.3909   43.2704 H   0  0  0  0  0  0  0  0  0  0  0  0
   58.5468   30.5941   46.8626 H   0  0  0  0  0  0  0  0  0  0  0  0
   58.3053   32.7394   48.1137 H   0  0  0  0  0  0  0  0  0  0  0  0
   57.8775   34.8666   46.8807 H   0  0  0  0  0  0  0  0  0  0  0  0
   57.7033   34.8543   44.3923 H   0  0  0  0  0  0  0  0  0  0  0  0
   57.9191   32.7116   43.1321 H   0  0  0  0  0  0  0  0  0  0  0  0
   58.1656   29.2540   46.1919 H   0  0  0  0  0  0  0  0  0  0  0  0
  1  2  2  0
  2  3  1  0
  3  4  1  0
  4  5  1  0
  5  6  2  0
  6  7  1  0
  7  8  2  0
  8  9  1  0
  8 10  1  0
 10 11  2  0
  2 12  1  0
 12 13  2  0
 13 14  1  0
 14 15  2  0
 15 16  1  0
 15 17  1  0
 17 18  1  0
 18 19  1  0
 19 20  2  0
 19 21  2  0
 19 22  1  0
 22 23  1  0
 23 24  2  0
 24 25  1  0
 25 26  2  0
 26 27  1  0
 27 28  2  0
 17 29  2  0
 11  5  1  0
 29 12  1  0
 28 23  1  0
  3 30  1  0
  4 31  1  0
  4 32  1  0
  6 33  1  0
  7 34  1  0
 10 35  1  0
 11 36  1  0
 13 37  1  0
 14 38  1  0
 22 39  1  0
 22 40  1  0
 24 41  1  0
 25 42  1  0
 26 43  1  0
 27 44  1  0
 28 45  1  0
 29 46  1  0
M  CHG  2  16  -1  18  -1
M  END
>  <UniqueID>  (5) 
5

>  <SMILES>  (5) 
O=C(NCc1ccc(F)cc1)c1ccc([O-])c([N-]S(=O)(=O)Cc2ccccc2)c1

>  <Energy>  (5) 
48.64235461066382

>  <Genealogy>  (5) 
O=C(NCc1ccc(F)cc1)c1ccc([O-])c([N-]S(=O)(=O)Cc2ccccc2)c1 (protonated)
O=C(NCc1ccc(F)cc1)c1ccc([O-])c([N-]S(=O)(=O)Cc2ccccc2)c1 (3D coordinates assigned)
O=C(NCc1ccc(F)cc1)c1ccc([O-])c([N-]S(=O)(=O)Cc2ccccc2)c1 (optimized conformer: 48.64235461066382 kcal/mol)

>  <smiles>  (5) 
O=C(NCc1ccc(F)cc1)c1ccc(O)c(NS(=O)(=O)Cc2ccccc2)c1

>  <score_type>  (5) 
oracle

>  <origin>  (5) 
adg

>  <m_score__min__energy>  (5) 
-13.44

>  <m_primary>  (5) 
energy

$$$$
5:0
     RDKit          3D

 68 71  0  0  0  0  0  0  0  0999 V2000
   56.0730   27.9210   44.5440 H   0  0  0  0  0  0  0  0  0  0  0  0
   57.0580   28.2290   44.7050 N   0  0  0  0  0  0  0  0  0  0  0  0
   57.8470   27.5810   45.5010 C   0  0  0  0  0  0  0  0  0  0  0  0
   58.5060   28.2450   46.4860 N   0  0  0  0  0  0  0  0  0  0  0  0
   59.3340   27.5960   47.3470 C   0  0  0  0  0  0  0  0  0  0  0  0
   60.0110   28.3420   48.3220 O   0  0  0  0  0  0  0  0  0  0  0  0
   59.6030   29.5890   48.8170 C   0  0  0  0  0  0  0  0  0  0  0  0
   59.4070   29.8120   50.1920 C   0  0  0  0  0  0  0  0  0  0  0  0
   59.5684   28.9931   50.9085 H   0  0  0  0  0  0  0  0  0  0  0  0
   59.0080   31.0700   50.6510 C   0  0  0  0  0  0  0  0  0  0  0  0
   58.8607   31.2414   51.7275 H   0  0  0  0  0  0  0  0  0  0  0  0
   58.7960   32.1110   49.7420 C   0  0  0  0  0  0  0  0  0  0  0  0
   58.5055   33.1065   50.1089 H   0  0  0  0  0  0  0  0  0  0  0  0
   58.9520   31.8930   48.3610 C   0  0  0  0  0  0  0  0  0  0  0  0
   58.7730   32.9810   47.4280 N   0  0  0  0  0  0  0  0  0  0  0  0
   57.7530   33.2060   47.3700 H   0  0  0  0  0  0  0  0  0  0  0  0
   59.0600   32.6730   46.4710 H   0  0  0  0  0  0  0  0  0  0  0  0
   59.5410   34.1740   47.8590 C   0  0  1  0  0  0  0  0  0  0  0  0
   59.1282   34.4997   48.8252 H   0  0  0  0  0  0  0  0  0  0  0  0
   61.0190   33.8340   48.0680 C   0  0  0  0  0  0  0  0  0  0  0  0
   61.6110   33.8780   49.3540 C   0  0  0  0  0  0  0  0  0  0  0  0
   60.8860   34.2080   50.4540 F   0  0  0  0  0  0  0  0  0  0  0  0
   62.9700   33.5890   49.5180 C   0  0  0  0  0  0  0  0  0  0  0  0
   63.4192   33.6197   50.5216 H   0  0  0  0  0  0  0  0  0  0  0  0
   63.7580   33.2620   48.4140 C   0  0  0  0  0  0  0  0  0  0  0  0
   64.8259   33.0354   48.5492 H   0  0  0  0  0  0  0  0  0  0  0  0
   63.1930   33.2220   47.1380 C   0  0  0  0  0  0  0  0  0  0  0  0
   63.8173   32.9641   46.2698 H   0  0  0  0  0  0  0  0  0  0  0  0
   61.8350   33.5090   46.9600 C   0  0  0  0  0  0  0  0  0  0  0  0
   61.3270   33.4740   45.6990 F   0  0  0  0  0  0  0  0  0  0  0  0
   59.3760   35.3470   46.8620 C   0  0  0  0  0  0  0  0  0  0  0  0
   58.6413   36.0588   47.2664 H   0  0  0  0  0  0  0  0  0  0  0  0
   60.3566   35.8276   46.7302 H   0  0  0  0  0  0  0  0  0  0  0  0
   58.9030   34.8680   45.5200 C   0  0  0  0  0  0  0  0  0  0  0  0
   59.5930   35.1110   44.4910 O   0  0  0  0  0  0  0  0  0  0  0  0
   57.6990   34.1500   45.4350 O   0  0  0  0  0  0  0  0  0  0  0  0
   57.5630   32.8650   44.8900 C   0  0  0  0  0  0  0  0  0  0  0  0
   57.2570   31.8750   45.6090 O   0  0  0  0  0  0  0  0  0  0  0  0
   57.7980   32.6600   43.4310 C   0  0  0  0  0  0  0  0  0  0  0  0
   58.6200   31.9429   43.2892 H   0  0  0  0  0  0  0  0  0  0  0  0
   56.8832   32.2662   42.9640 H   0  0  0  0  0  0  0  0  0  0  0  0
   58.0640   33.6198   42.9640 H   0  0  0  0  0  0  0  0  0  0  0  0
   59.3480   30.6220   47.9080 C   0  0  0  0  0  0  0  0  0  0  0  0
   59.4584   30.4380   46.8291 H   0  0  0  0  0  0  0  0  0  0  0  0
   59.5270   26.2130   47.2010 C   0  0  0  0  0  0  0  0  0  0  0  0
   60.2014   25.6669   47.8770 H   0  0  0  0  0  0  0  0  0  0  0  0
   58.8470   25.5440   46.1820 C   0  0  0  0  0  0  0  0  0  0  0  0
   59.0450   24.1710   46.0110 O   0  0  0  0  0  0  0  0  0  0  0  0
   58.1260   23.3680   45.3300 C   0  0  0  0  0  0  0  0  0  0  0  0
   58.6070   22.4650   44.3750 C   0  0  0  0  0  0  0  0  0  0  0  0
   59.6850   22.4179   44.1612 H   0  0  0  0  0  0  0  0  0  0  0  0
   57.7290   21.6260   43.6940 C   0  0  0  0  0  0  0  0  0  0  0  0
   58.1151   20.9205   42.9435 H   0  0  0  0  0  0  0  0  0  0  0  0
   56.3620   21.6780   43.9610 C   0  0  0  0  0  0  0  0  0  0  0  0
   55.6755   21.0080   43.4227 H   0  0  0  0  0  0  0  0  0  0  0  0
   55.8520   22.5810   44.9140 C   0  0  0  0  0  0  0  0  0  0  0  0
   54.4760   22.6440   45.1970 O   0  0  0  0  0  0  0  0  0  0  0  0
   53.8610   22.0930   46.3570 C   0  0  0  0  0  0  0  0  0  0  0  0
   54.3319   22.5149   47.2571 H   0  0  0  0  0  0  0  0  0  0  0  0
   52.7887   22.3382   46.3550 H   0  0  0  0  0  0  0  0  0  0  0  0
   53.9873   21.0003   46.3550 H   0  0  0  0  0  0  0  0  0  0  0  0
   56.7360   23.4480   45.5990 C   0  0  0  0  0  0  0  0  0  0  0  0
   56.1820   24.4070   46.5920 C   0  0  0  0  0  0  0  0  0  0  0  0
   56.6859   24.5222   47.5630 H   0  0  0  0  0  0  0  0  0  0  0  0
   55.1230   25.1100   46.3450 N   0  0  0  0  0  0  0  0  0  0  0  0
   55.2270   26.3930   45.8580 O   0  0  0  0  0  0  0  0  0  0  0  0
   55.8970   26.6000   45.1290 H   0  0  0  0  0  0  0  0  0  0  0  0
   58.0190   26.2410   45.3550 N   0  0  0  0  0  0  0  0  0  0  0  0
  1  2  1  0
  2  3  2  0
  3  4  1  0
  4  5  2  0
  5  6  1  0
  6  7  1  0
  7  8  2  0
  8  9  1  0
  8 10  1  0
 10 11  1  0
 10 12  2  0
 12 13  1  0
 12 14  1  0
 14 15  1  0
 15 16  1  0
 15 17  1  0
 15 18  1  0
 18 19  1  1
 18 20  1  0
 20 21  2  0
 21 22  1  0
 21 23  1  0
 23 24  1  0
 23 25  2  0
 25 26  1  0
 25 27  1  0
 27 28  1  0
 27 29  2  0
 29 30  1  0
 18 31  1  0
 31 32  1  0
 31 33  1  0
 31 34  1  0
 34 35  2  0
 34 36  1  0
 36 37  1  0
 37 38  2  0
 37 39  1  0
 39 40  1  0
 39 41  1  0
 39 42  1  0
 14 43  2  0
 43 44  1  0
  5 45  1  0
 45 46  1  0
 45 47  2  0
 47 48  1  0
 48 49  1  0
 49 50  2  0
 50 51  1  0
 50 52  1  0
 52 53  1  0
 52 54  2  0
 54 55  1  0
 54 56  1  0
 56 57  1  0
 57 58  1  0
 58 59  1  0
 58 60  1  0
 58 61  1  0
 56 62  2  0
 62 63  1  0
 63 64  1  0
 63 65  2  3
 65 66  1  0
 66 67  1  0
 47 68  1  0
 68  3  1  0
 43  7  1  0
 62 49  1  0
 29 20  1  0
M  CHG  2  15   1  68  -1
M  END
>  <UniqueID>  (6) 
6

>  <SMILES>  (6) 
[H]/N=c1/nc(Oc2cccc([NH2+][C@H](CC(=O)OC(C)=O)c3c(F)cccc3F)c2)cc(Oc2cccc(OC)c2C=NO)[n-]1

>  <Energy>  (6) 
89.0771456316788

>  <Genealogy>  (6) 
COc1cccc(Oc2cc(Oc3cccc([NH2+]C(CC(=O)OC(C)=O)c4c(F)cccc4F)c3)nc(=N)[n-]2)c1C=NO (protonated)
COc1cccc(Oc2cc(Oc3cccc([NH2+][C@H](CC(=O)OC(C)=O)c4c(F)cccc4F)c3)nc(=N)[n-]2)c1C=NO (chirality)
[H]/N=c1/nc(Oc2cccc([NH2+][C@H](CC(=O)OC(C)=O)c3c(F)cccc3F)c2)cc(Oc2cccc(OC)c2C=NO)[n-]1 (cis-trans isomerization)
[H]/N=c1/nc(Oc2cccc([NH2+][C@H](CC(=O)OC(C)=O)c3c(F)cccc3F)c2)cc(Oc2cccc(OC)c2C=NO)[n-]1 (3D coordinates assigned)
[H]/N=c1/nc(Oc2cccc([NH2+][C@H](CC(=O)OC(C)=O)c3c(F)cccc3F)c2)cc(Oc2cccc(OC)c2C=NO)[n-]1 (optimized conformer: 89.0771456316788 kcal/mol)

>  <smiles>  (6) 
COc1cccc(Oc2cc(Oc3cccc(NC(CC(=O)OC(C)=O)c4c(F)cccc4F)c3)nc(=N)[nH]2)c1C=NO

>  <score_type>  (6) 
oracle

>  <origin>  (6) 
adg

>  <m_score__min__energy>  (6) 
-9.4800000000000004

>  <m_primary>  (6) 
energy

$$$$
6:0
     RDKit          3D

 41 43  0  0  0  0  0  0  0  0999 V2000
   57.3170   24.3560   48.2040 C   0  0  0  0  0  0  0  0  0  0  0  0
   57.3310   23.0370   48.7380 O   0  0  0  0  0  0  0  0  0  0  0  0
   56.6320   21.9790   48.1470 C   0  0  0  0  0  0  0  0  0  0  0  0
   57.2420   21.0900   47.4950 O   0  0  0  0  0  0  0  0  0  0  0  0
   55.1500   21.8740   48.3410 C   0  0  0  0  0  0  0  0  0  0  0  0
   54.5070   20.9840   47.2730 C   0  0  0  0  0  0  0  0  0  0  0  0
   53.3630   21.9160   46.1890 S   0  0  0  0  0  0  0  0  0  0  0  0
   54.5330   23.2180   45.8140 C   0  0  0  0  0  0  0  0  0  0  0  0
   55.6210   23.0200   45.0270 N   0  0  0  0  0  0  0  0  0  0  0  0
   56.1920   24.2330   45.0200 C   0  0  0  0  0  0  0  0  0  0  0  0
   57.3580   24.6210   44.3660 C   0  0  0  0  0  0  0  0  0  0  0  0
   57.7630   25.9620   44.4950 C   0  0  0  0  0  0  0  0  0  0  0  0
   57.0090   26.8770   45.2690 C   0  0  0  0  0  0  0  0  0  0  0  0
   57.4630   28.2330   45.3590 N   0  0  0  0  0  0  0  0  0  0  0  0
   56.7380   29.5830   44.5460 S   0  0  0  0  0  0  0  0  0  0  0  0
   55.2680   29.6210   44.8610 O   0  0  0  0  0  0  0  0  0  0  0  0
   56.9090   29.4140   43.0630 O   0  0  0  0  0  0  0  0  0  0  0  0
   57.5280   31.0760   45.0440 C   0  0  0  0  0  0  0  0  0  0  0  0
   58.2920   31.0980   46.2190 C   0  0  0  0  0  0  0  0  0  0  0  0
   58.9230   32.2780   46.6250 C   0  0  0  0  0  0  0  0  0  0  0  0
   58.7920   33.4410   45.8600 C   0  0  0  0  0  0  0  0  0  0  0  0
   59.6530   35.0550   46.4150 Br  0  0  0  0  0  0  0  0  0  0  0  0
   58.0250   33.4240   44.6900 C   0  0  0  0  0  0  0  0  0  0  0  0
   57.3970   32.2450   44.2800 C   0  0  0  0  0  0  0  0  0  0  0  0
   55.8300   26.4370   45.9200 C   0  0  0  0  0  0  0  0  0  0  0  0
   55.4610   25.1030   45.7670 C   0  0  0  0  0  0  0  0  0  0  0  0
   54.3910   24.4840   46.2880 N   0  0  0  0  0  0  0  0  0  0  0  0
   57.3093   25.0850   49.0277 H   0  0  0  0  0  0  0  0  0  0  0  0
   58.2136   24.5108   47.5858 H   0  0  0  0  0  0  0  0  0  0  0  0
   56.4174   24.4918   47.5858 H   0  0  0  0  0  0  0  0  0  0  0  0
   54.9487   21.4442   49.3333 H   0  0  0  0  0  0  0  0  0  0  0  0
   54.7181   22.8821   48.2567 H   0  0  0  0  0  0  0  0  0  0  0  0
   55.3023   20.5443   46.6532 H   0  0  0  0  0  0  0  0  0  0  0  0
   53.9239   20.2069   47.7888 H   0  0  0  0  0  0  0  0  0  0  0  0
   57.9419   23.9045   43.7696 H   0  0  0  0  0  0  0  0  0  0  0  0
   58.6773   26.3042   43.9880 H   0  0  0  0  0  0  0  0  0  0  0  0
   58.3954   30.1847   46.8233 H   0  0  0  0  0  0  0  0  0  0  0  0
   59.5229   32.2913   47.5469 H   0  0  0  0  0  0  0  0  0  0  0  0
   57.9161   34.3406   44.0917 H   0  0  0  0  0  0  0  0  0  0  0  0
   56.7990   32.2336   43.3568 H   0  0  0  0  0  0  0  0  0  0  0  0
   55.2255   27.1271   46.5269 H   0  0  0  0  0  0  0  0  0  0  0  0
  1  2  1  0
  2  3  1  0
  3  4  2  0
  3  5  1  0
  5  6  1  0
  6  7  1  0
  7  8  1  0
  8  9  2  0
  9 10  1  0
 10 11  2  0
 11 12  1  0
 12 13  2  0
 13 14  1  0
 14 15  1  0
 15 16  2  0
 15 17  2  0
 15 18  1  0
 18 19  2  0
 19 20  1  0
 20 21  2  0
 21 22  1  0
 21 23  1  0
 23 24  2  0
 13 25  1  0
 25 26  2  0
 26 27  1  0
 27  8  1  0
 26 10  1  0
 24 18  1  0
  1 28  1  0
  1 29  1  0
  1 30  1  0
  5 31  1  0
  5 32  1  0
  6 33  1  0
  6 34  1  0
 11 35  1  0
 12 36  1  0
 19 37  1  0
 20 38  1  0
 23 39  1  0
 24 40  1  0
 25 41  1  0
M  CHG  2  14  -1  27  -1
M  END
>  <UniqueID>  (7) 
7

>  <SMILES>  (7) 
COC(=O)CCSc1nc2ccc([N-]S(=O)(=O)c3ccc(Br)cc3)cc2[n-]1

>  <Energy>  (7) 
72.26105078179833

>  <Genealogy>  (7) 
COC(=O)CCSc1nc2ccc([N-]S(=O)(=O)c3ccc(Br)cc3)cc2[n-]1 (protonated)
COC(=O)CCSc1nc2ccc([N-]S(=O)(=O)c3ccc(Br)cc3)cc2[n-]1 (3D coordinates assigned)
COC(=O)CCSc1nc2ccc([N-]S(=O)(=O)c3ccc(Br)cc3)cc2[n-]1 (optimized conformer: 72.26105078179833 kcal/mol)

>  <smiles>  (7) 
COC(=O)CCSc1nc2ccc(NS(=O)(=O)c3ccc(Br)cc3)cc2[nH]1

>  <score_type>  (7) 
oracle

>  <origin>  (7) 
adg

>  <m_score__min__energy>  (7) 
-11.68

>  <m_primary>  (7) 
energy

$$$$
7:0
     RDKit          3D

 22 22  0  0  0  0  0  0  0  0999 V2000
   55.1540   29.3520   44.8650 N   0  0  0  0  0  0  0  0  0  0  0  0
   56.7970   29.8240   44.6000 S   0  0  0  0  0  0  0  0  0  0  0  0
   57.0190   30.1160   43.1420 O   0  0  0  0  0  0  0  0  0  0  0  0
   57.6980   28.6950   45.0130 O   0  0  0  0  0  0  0  0  0  0  0  0
   57.1750   31.2020   45.5430 O   0  0  0  0  0  0  0  0  0  0  0  0
   58.4630   31.5890   45.9380 C   0  0  0  0  0  0  0  0  0  0  0  0
   58.7830   32.9510   45.8980 C   0  0  0  0  0  0  0  0  0  0  0  0
   60.0520   33.3980   46.2800 C   0  0  0  0  0  0  0  0  0  0  0  0
   61.0180   32.4830   46.7160 C   0  0  0  0  0  0  0  0  0  0  0  0
   62.6220   33.0400   47.1830 S   0  0  0  0  0  0  0  0  0  0  0  0
   63.7440   31.7310   47.0540 N   0  0  0  0  0  0  0  0  0  0  0  0
   62.5910   33.5440   48.5990 O   0  0  0  0  0  0  0  0  0  0  0  0
   63.0540   34.1610   46.2820 O   0  0  0  0  0  0  0  0  0  0  0  0
   60.7070   31.1180   46.7570 C   0  0  0  0  0  0  0  0  0  0  0  0
   59.4390   30.6700   46.3750 C   0  0  0  0  0  0  0  0  0  0  0  0
   55.1480   28.6340   45.6220 H   0  0  0  0  0  0  0  0  0  0  0  0
   58.0284   33.6776   45.5625 H   0  0  0  0  0  0  0  0  0  0  0  0
   60.2917   34.4707   46.2378 H   0  0  0  0  0  0  0  0  0  0  0  0
   64.4840   32.0290   46.3790 H   0  0  0  0  0  0  0  0  0  0  0  0
   64.2070   31.6340   47.9860 H   0  0  0  0  0  0  0  0  0  0  0  0
   61.4648   30.3943   47.0917 H   0  0  0  0  0  0  0  0  0  0  0  0
   59.2019   29.5966   46.4155 H   0  0  0  0  0  0  0  0  0  0  0  0
  1  2  1  0
  2  3  2  0
  2  4  2  0
  2  5  1  0
  5  6  1  0
  6  7  2  0
  7  8  1  0
  8  9  2  0
  9 10  1  0
 10 11  1  0
 10 12  2  0
 10 13  2  0
  9 14  1  0
 14 15  2  0
 15  6  1  0
  1 16  1  0
  7 17  1  0
  8 18  1  0
 11 19  1  0
 11 20  1  0
 14 21  1  0
 15 22  1  0
M  CHG  1   1  -1
M  END
>  <UniqueID>  (8) 
8

>  <SMILES>  (8) 
[NH-]S(=O)(=O)Oc1ccc(S(N)(=O)=O)cc1

>  <Energy>  (8) 
17.52073073692847

>  <Genealogy>  (8) 
[NH-]S(=O)(=O)Oc1ccc(S(N)(=O)=O)cc1 (protonated)
[NH-]S(=O)(=O)Oc1ccc(S(N)(=O)=O)cc1 (3D coordinates assigned)
[NH-]S(=O)(=O)Oc1ccc(S(N)(=O)=O)cc1 (optimized conformer: 17.52073073692847 kcal/mol)

>  <smiles>  (8) 
NS(=O)(=O)Oc1ccc(S(N)(=O)=O)cc1

>  <score_type>  (8) 
oracle

>  <origin>  (8) 
adg

>  <m_score__min__energy>  (8) 
-9.1199999999999992

>  <m_primary>  (8) 
energy

$$$$
8:0
     RDKit          3D

 38 39  0  0  0  0  0  0  0  0999 V2000
   57.4010   31.9580   41.7350 C   0  0  0  0  0  0  0  0  0  0  0  0
   57.3510   30.9450   42.7330 O   0  0  0  0  0  0  0  0  0  0  0  0
   56.9660   31.2040   44.0530 C   0  0  0  0  0  0  0  0  0  0  0  0
   55.8880   30.7250   44.5010 O   0  0  0  0  0  0  0  0  0  0  0  0
   57.8260   32.0380   44.9210 C   0  0  0  0  0  0  0  0  0  0  0  0
   58.1510   33.3560   44.5570 C   0  0  0  0  0  0  0  0  0  0  0  0
   58.9620   34.1400   45.3820 C   0  0  0  0  0  0  0  0  0  0  0  0
   59.4630   33.6220   46.5860 C   0  0  0  0  0  0  0  0  0  0  0  0
   60.3020   34.4820   47.4950 C   0  0  0  0  0  0  0  0  0  0  0  0
   61.6010   33.8540   47.7560 N   0  0  0  0  0  0  0  0  0  0  0  0
   62.6790   33.8350   46.7780 C   0  0  0  0  0  0  0  0  0  0  0  0
   63.4810   32.5710   47.1170 C   0  0  0  0  0  0  0  0  0  0  0  0
   62.8340   32.0180   48.2980 N   0  0  0  0  0  0  0  0  0  0  0  0
   61.8180   32.7410   48.6180 C   0  0  0  0  0  0  0  0  0  0  0  0
   61.0130   32.4500   49.7710 N   0  0  0  0  0  0  0  0  0  0  0  0
   60.6090   33.5100   50.6940 C   0  0  0  0  0  0  0  0  0  0  0  0
   60.6610   31.0610   50.0670 C   0  0  0  0  0  0  0  0  0  0  0  0
   59.1410   32.3060   46.9510 C   0  0  0  0  0  0  0  0  0  0  0  0
   58.3310   31.5210   46.1270 C   0  0  0  0  0  0  0  0  0  0  0  0
   57.4497   32.9455   42.2171 H   0  0  0  0  0  0  0  0  0  0  0  0
   58.2930   31.8115   41.1082 H   0  0  0  0  0  0  0  0  0  0  0  0
   56.4989   31.9001   41.1082 H   0  0  0  0  0  0  0  0  0  0  0  0
   57.7641   33.7736   43.6157 H   0  0  0  0  0  0  0  0  0  0  0  0
   59.2093   35.1700   45.0855 H   0  0  0  0  0  0  0  0  0  0  0  0
   60.4639   35.4597   47.0177 H   0  0  0  0  0  0  0  0  0  0  0  0
   59.7721   34.6047   48.4511 H   0  0  0  0  0  0  0  0  0  0  0  0
   62.2762   33.7778   45.7560 H   0  0  0  0  0  0  0  0  0  0  0  0
   63.2955   34.7452   46.8164 H   0  0  0  0  0  0  0  0  0  0  0  0
   63.4424   31.8539   46.2838 H   0  0  0  0  0  0  0  0  0  0  0  0
   64.5439   32.7919   47.2942 H   0  0  0  0  0  0  0  0  0  0  0  0
   60.7408   33.1641   51.7299 H   0  0  0  0  0  0  0  0  0  0  0  0
   61.2304   34.4014   50.5232 H   0  0  0  0  0  0  0  0  0  0  0  0
   59.5519   33.7617   50.5232 H   0  0  0  0  0  0  0  0  0  0  0  0
   60.6243   30.9163   51.1568 H   0  0  0  0  0  0  0  0  0  0  0  0
   59.6764   30.8319   49.6334 H   0  0  0  0  0  0  0  0  0  0  0  0
   61.4176   30.3906   49.6334 H   0  0  0  0  0  0  0  0  0  0  0  0
   59.5290   31.8897   47.8923 H   0  0  0  0  0  0  0  0  0  0  0  0
   58.0864   30.4905   46.4239 H   0  0  0  0  0  0  0  0  0  0  0  0
  1  2  1  0
  2  3  1  0
  3  4  2  0
  3  5  1  0
  5  6  2  0
  6  7  1  0
  7  8  2  0
  8  9  1  0
  9 10  1  0
 10 11  1  0
 11 12  1  0
 12 13  1  0
 13 14  2  0
 14 15  1  0
 15 16  1  0
 15 17  1  0
  8 18  1  0
 18 19  2  0
 19  5  1  0
 14 10  1  0
  1 20  1  0
  1 21  1  0
  1 22  1  0
  6 23  1  0
  7 24  1  0
  9 25  1  0
  9 26  1  0
 11 27  1  0
 11 28  1  0
 12 29  1  0
 12 30  1  0
 16 31  1  0
 16 32  1  0
 16 33  1  0
 17 34  1  0
 17 35  1  0
 17 36  1  0
 18 37  1  0
 19 38  1  0
M  END
>  <UniqueID>  (9) 
9

>  <SMILES>  (9) 
COC(=O)c1ccc(CN2CCN=C2N(C)C)cc1

>  <Energy>  (9) 
46.28546988344995

>  <Genealogy>  (9) 
COC(=O)c1ccc(CN2CCN=C2N(C)C)cc1 (3D coordinates assigned)
COC(=O)c1ccc(CN2CCN=C2N(C)C)cc1 (nonaromatic ring conformer: 46.28546988344995 kcal/mol)

>  <smiles>  (9) 
COC(=O)c1ccc(CN2CCN=C2N(C)C)cc1

>  <score_type>  (9) 
oracle

>  <origin>  (9) 
adg

>  <m_score__min__energy>  (9) 
-6.1299999999999999

>  <m_primary>  (9) 
energy

$$$$
9:0
     RDKit          3D

 34 36  0  0  1  0  0  0  0  0999 V2000
   56.1640   24.6940   45.8190 C   0  0  0  0  0  0  0  0  0  0  0  0
   59.8790   28.4770   46.6750 N   0  0  0  0  0  0  0  0  0  0  0  0
   58.7230   28.3160   46.2970 C   0  0  0  0  0  0  0  0  0  0  0  0
   58.0490   27.2050   46.6630 N   0  0  0  0  0  0  0  0  0  0  0  0
   56.7870   26.9400   46.3010 C   0  0  0  0  0  0  0  0  0  0  0  0
   56.2220   25.8370   46.7050 N   0  0  0  0  0  0  0  0  0  0  0  0
   60.4930   29.1660   47.6850 C   0  0  0  0  0  0  0  0  0  0  0  0
   60.7820   30.5360   47.4720 C   0  0  0  0  0  0  0  0  0  0  0  0
   61.3020   31.2730   48.5070 C   0  0  0  0  0  0  0  0  0  0  0  0
   61.5590   30.7370   49.7600 C   0  0  0  0  0  0  0  0  0  0  0  0
   61.2790   29.4050   49.9680 C   0  0  0  0  0  0  0  0  0  0  0  0
   60.7550   28.6150   48.9650 C   0  0  0  0  0  0  0  0  0  0  0  0
   60.3940   26.9180   49.2170 Cl  0  0  0  0  0  0  0  0  0  0  0  0
   58.1030   29.2490   45.5060 C   0  0  0  0  0  0  0  0  0  0  0  0
   58.7280   30.3920   45.1020 C   0  0  0  0  0  0  0  0  0  0  0  0
   58.0330   31.3100   44.2910 C   0  0  0  0  0  0  0  0  0  0  0  0
   56.7590   30.9760   43.9650 C   0  0  0  0  0  0  0  0  0  0  0  0
   56.1070   29.8340   44.3570 C   0  0  0  0  0  0  0  0  0  0  0  0
   54.8240   29.5660   43.9880 O   0  0  0  0  0  0  0  0  0  0  0  0
   56.8000   28.9530   45.1470 C   0  0  0  0  0  0  0  0  0  0  0  0
   56.1580   27.8370   45.5280 N   0  0  0  0  0  0  0  0  0  0  0  0
   56.1171   23.7704   46.4146 H   0  0  0  0  0  0  0  0  0  0  0  0
   55.2684   24.7670   45.1845 H   0  0  0  0  0  0  0  0  0  0  0  0
   57.0624   24.6759   45.1845 H   0  0  0  0  0  0  0  0  0  0  0  0
   58.5190   26.4910   47.2650 H   0  0  0  0  0  0  0  0  0  0  0  0
   60.5930   31.0018   46.4936 H   0  0  0  0  0  0  0  0  0  0  0  0
   61.5248   32.3363   48.3347 H   0  0  0  0  0  0  0  0  0  0  0  0
   61.9753   31.3592   50.5659 H   0  0  0  0  0  0  0  0  0  0  0  0
   61.4772   28.9610   50.9547 H   0  0  0  0  0  0  0  0  0  0  0  0
   59.7653   30.5949   45.4068 H   0  0  0  0  0  0  0  0  0  0  0  0
   58.4966   32.2444   43.9418 H   0  0  0  0  0  0  0  0  0  0  0  0
   56.2007   31.6814   43.3320 H   0  0  0  0  0  0  0  0  0  0  0  0
   54.3550   28.8140   44.4950 H   0  0  0  0  0  0  0  0  0  0  0  0
   55.1610   27.6510   45.2290 H   0  0  0  0  0  0  0  0  0  0  0  0
  1  2  1  0
  2  3  2  0
  3  4  1  0
  4  5  1  0
  5  6  2  0
  6  7  1  0
  7  8  2  0
  8  9  1  0
  9 10  2  0
 10 11  1  0
 11 12  2  0
 12 13  1  0
  5 14  1  0
 14 15  2  0
 15 16  1  0
 16 17  2  0
 17 18  1  0
 18 19  1  0
 18 20  2  0
 20 21  1  0
 21  3  1  0
 12  7  1  0
 20 14  1  0
  1 22  1  0
  1 23  1  0
  1 24  1  0
  4 25  1  0
  8 26  1  0
  9 27  1  0
 10 28  1  0
 11 29  1  0
 15 30  1  0
 16 31  1  0
 17 32  1  0
 19 33  1  0
 21 34  1  0
M  END
>  <smiles>  (10) 
CN=c1[nH]c(=Nc2ccccc2Cl)c2cccc(O)c2[nH]1

>  <score_type>  (10) 
oracle

>  <origin>  (10) 
adg

>  <m_score__min__energy>  (10) 
-8.1400000000000006

>  <m_primary>  (10) 
energy

$$$$
10:0
     RDKit          3D

 46 48  0  0  0  0  0  0  0  0999 V2000
   52.7580   28.4250   52.5050 O   0  0  0  0  0  0  0  0  0  0  0  0
   53.2070   29.5670   52.8000 C   0  0  0  0  0  0  0  0  0  0  0  0
   54.1880   29.7020   53.9250 C   0  0  0  0  0  0  0  0  0  0  0  0
   55.4580   29.1720   53.5500 O   0  0  0  0  0  0  0  0  0  0  0  0
   56.4280   29.8510   52.7930 C   0  0  0  0  0  0  0  0  0  0  0  0
   57.7530   29.4060   52.8630 C   0  0  0  0  0  0  0  0  0  0  0  0
   58.7560   30.0400   52.1260 C   0  0  0  0  0  0  0  0  0  0  0  0
   58.4510   31.1370   51.3000 C   0  0  0  0  0  0  0  0  0  0  0  0
   59.5150   31.8100   50.5190 C   0  0  0  0  0  0  0  0  0  0  0  0
   60.6700   31.9440   51.0080 O   0  0  0  0  0  0  0  0  0  0  0  0
   59.2370   32.3080   49.2050 N   0  0  0  0  0  0  0  0  0  0  0  0
   59.5780   33.6550   48.7610 C   0  0  0  0  0  0  0  0  0  0  0  0
   59.0100   33.9120   47.3910 C   0  0  0  0  0  0  0  0  0  0  0  0
   57.7830   33.3460   47.0070 C   0  0  0  0  0  0  0  0  0  0  0  0
   57.2710   33.5790   45.7270 C   0  0  0  0  0  0  0  0  0  0  0  0
   57.9810   34.3740   44.8220 C   0  0  0  0  0  0  0  0  0  0  0  0
   59.2050   34.9350   45.1940 C   0  0  0  0  0  0  0  0  0  0  0  0
   59.7200   34.7050   46.4740 C   0  0  0  0  0  0  0  0  0  0  0  0
   57.1220   31.5870   51.2340 C   0  0  0  0  0  0  0  0  0  0  0  0
   56.1190   30.9530   51.9750 C   0  0  0  0  0  0  0  0  0  0  0  0
   52.7470   30.7320   52.0990 N   0  0  0  0  0  0  0  0  0  0  0  0
   52.1180   30.6900   50.8060 C   0  0  0  0  0  0  0  0  0  0  0  0
   52.3730   29.6340   49.9100 C   0  0  0  0  0  0  0  0  0  0  0  0
   51.7790   29.6210   48.6460 C   0  0  0  0  0  0  0  0  0  0  0  0
   50.9360   30.6640   48.2570 C   0  0  0  0  0  0  0  0  0  0  0  0
   50.6910   31.7260   49.1300 C   0  0  0  0  0  0  0  0  0  0  0  0
   51.2810   31.7460   50.3980 C   0  0  0  0  0  0  0  0  0  0  0  0
   51.0250   32.8120   51.2530 O   0  0  0  0  0  0  0  0  0  0  0  0
   54.3013   30.7660   54.1801 H   0  0  0  0  0  0  0  0  0  0  0  0
   53.8117   29.1406   54.7929 H   0  0  0  0  0  0  0  0  0  0  0  0
   58.0069   28.5491   53.5043 H   0  0  0  0  0  0  0  0  0  0  0  0
   59.7928   29.6785   52.1921 H   0  0  0  0  0  0  0  0  0  0  0  0
   59.1625   34.3868   49.4694 H   0  0  0  0  0  0  0  0  0  0  0  0
   60.6729   33.7518   48.7187 H   0  0  0  0  0  0  0  0  0  0  0  0
   57.2233   32.7176   47.7155 H   0  0  0  0  0  0  0  0  0  0  0  0
   56.3083   33.1363   45.4315 H   0  0  0  0  0  0  0  0  0  0  0  0
   57.5753   34.5578   43.8162 H   0  0  0  0  0  0  0  0  0  0  0  0
   59.7640   35.5578   44.4801 H   0  0  0  0  0  0  0  0  0  0  0  0
   60.6848   35.1468   46.7638 H   0  0  0  0  0  0  0  0  0  0  0  0
   56.8678   32.4450   50.5944 H   0  0  0  0  0  0  0  0  0  0  0  0
   55.0830   31.3182   51.9177 H   0  0  0  0  0  0  0  0  0  0  0  0
   52.8500   31.6580   52.5720 H   0  0  0  0  0  0  0  0  0  0  0  0
   53.0439   28.8146   50.2073 H   0  0  0  0  0  0  0  0  0  0  0  0
   51.9756   28.7875   47.9556 H   0  0  0  0  0  0  0  0  0  0  0  0
   50.4650   30.6491   47.2631 H   0  0  0  0  0  0  0  0  0  0  0  0
   50.0316   32.5498   48.8193 H   0  0  0  0  0  0  0  0  0  0  0  0
  1  2  2  0
  2  3  1  0
  3  4  1  0
  4  5  1  0
  5  6  2  0
  6  7  1  0
  7  8  2  0
  8  9  1  0
  9 10  2  0
  9 11  1  0
 11 12  1  0
 12 13  1  0
 13 14  2  0
 14 15  1  0
 15 16  2  0
 16 17  1  0
 17 18  2  0
  8 19  1  0
 19 20  2  0
  2 21  1  0
 21 22  1  0
 22 23  2  0
 23 24  1  0
 24 25  2  0
 25 26  1  0
 26 27  2  0
 27 28  1  0
 20  5  1  0
 27 22  1  0
 18 13  1  0
  3 29  1  0
  3 30  1  0
  6 31  1  0
  7 32  1  0
 12 33  1  0
 12 34  1  0
 14 35  1  0
 15 36  1  0
 16 37  1  0
 17 38  1  0
 18 39  1  0
 19 40  1  0
 20 41  1  0
 21 42  1  0
 23 43  1  0
 24 44  1  0
 25 45  1  0
 26 46  1  0
M  CHG  2  11  -1  28  -1
M  END
>  <UniqueID>  (11) 
10

>  <SMILES>  (11) 
O=C(COc1ccc(C(=O)[N-]Cc2ccccc2)cc1)Nc1ccccc1[O-]

>  <Energy>  (11) 
49.82354194297033

>  <Genealogy>  (11) 
O=C(COc1ccc(C(=O)[N-]Cc2ccccc2)cc1)Nc1ccccc1[O-] (protonated)
O=C(COc1ccc(C(=O)[N-]Cc2ccccc2)cc1)Nc1ccccc1[O-] (3D coordinates assigned)
O=C(COc1ccc(C(=O)[N-]Cc2ccccc2)cc1)Nc1ccccc1[O-] (optimized conformer: 49.82354194297033 kcal/mol)

>  <smiles>  (11) 
O=C(COc1ccc(C(=O)NCc2ccccc2)cc1)Nc1ccccc1O

>  <score_type>  (11) 
oracle

>  <origin>  (11) 
adg

>  <m_score__min__energy>  (11) 
-13.32

>  <m_primary>  (11) 
energy

$$$$
11:0
     RDKit          3D

 47 50  0  0  0  0  0  0  0  0999 V2000
   57.7267   32.0428   41.1064 H   0  0  0  0  0  0  0  0  0  0  0  0
   57.6410   31.9950   42.2020 C   0  0  0  0  0  0  0  0  0  0  0  0
   57.0380   30.8890   42.8040 C   0  0  0  0  0  0  0  0  0  0  0  0
   56.6607   30.0650   42.1806 H   0  0  0  0  0  0  0  0  0  0  0  0
   56.9110   30.8230   44.1950 C   0  0  0  0  0  0  0  0  0  0  0  0
   56.3080   29.6550   44.7780 N   0  0  0  0  0  0  0  0  0  0  0  0
   56.8640   28.8260   45.6130 C   0  0  0  0  0  0  0  0  0  0  0  0
   57.7980   29.2440   46.5080 N   0  0  0  0  0  0  0  0  0  0  0  0
   58.3460   28.3690   47.3870 C   0  0  0  0  0  0  0  0  0  0  0  0
   59.3300   28.8160   48.3140 N   0  0  0  0  0  0  0  0  0  0  0  0
   60.7770   29.0880   48.3220 C   0  0  0  0  0  0  0  0  0  0  0  0
   61.3793   28.1897   48.1212 H   0  0  0  0  0  0  0  0  0  0  0  0
   61.1599   29.7885   47.5653 H   0  0  0  0  0  0  0  0  0  0  0  0
   60.8470   29.5230   49.7520 C   0  0  0  0  0  0  0  0  0  0  0  0
   61.5554   29.1068   50.4834 H   0  0  0  0  0  0  0  0  0  0  0  0
   61.1080   30.9190   49.8960 O   0  0  0  0  0  0  0  0  0  0  0  0
   61.6370   31.7610   48.9040 C   0  0  0  0  0  0  0  0  0  0  0  0
   63.0290   31.9350   48.8750 C   0  0  0  0  0  0  0  0  0  0  0  0
   63.8100   31.2980   49.7820 F   0  0  0  0  0  0  0  0  0  0  0  0
   63.6240   32.7600   47.9150 C   0  0  0  0  0  0  0  0  0  0  0  0
   64.7165   32.8872   47.9009 H   0  0  0  0  0  0  0  0  0  0  0  0
   62.8330   33.4220   46.9750 C   0  0  0  0  0  0  0  0  0  0  0  0
   63.4120   34.2220   46.0450 F   0  0  0  0  0  0  0  0  0  0  0  0
   61.4470   33.2590   46.9900 C   0  0  0  0  0  0  0  0  0  0  0  0
   60.8267   33.7818   46.2471 H   0  0  0  0  0  0  0  0  0  0  0  0
   60.8420   32.4340   47.9450 C   0  0  0  0  0  0  0  0  0  0  0  0
   59.4930   32.3060   47.9200 F   0  0  0  0  0  0  0  0  0  0  0  0
   59.3790   29.2380   49.7250 C   0  0  0  0  0  0  0  0  0  0  0  0
   59.0891   28.4353   50.4190 H   0  0  0  0  0  0  0  0  0  0  0  0
   58.7042   30.0517   50.0292 H   0  0  0  0  0  0  0  0  0  0  0  0
   57.9570   27.0700   47.3790 N   0  0  0  0  0  0  0  0  0  0  0  0
   57.0270   26.6420   46.4860 C   0  0  0  0  0  0  0  0  0  0  0  0
   56.5610   25.2200   46.5120 C   0  0  0  0  0  0  0  0  0  0  0  0
   56.5590   24.7440   47.8110 F   0  0  0  0  0  0  0  0  0  0  0  0
   57.3990   24.4300   45.7460 F   0  0  0  0  0  0  0  0  0  0  0  0
   55.2780   25.1510   46.0010 F   0  0  0  0  0  0  0  0  0  0  0  0
   56.4720   27.5260   45.6170 N   0  0  0  0  0  0  0  0  0  0  0  0
   57.4440   31.8610   44.9850 C   0  0  0  0  0  0  0  0  0  0  0  0
   57.3936   31.7910   46.0816 H   0  0  0  0  0  0  0  0  0  0  0  0
   58.0400   32.9860   44.3860 C   0  0  0  0  0  0  0  0  0  0  0  0
   58.5830   34.0770   45.2350 C   0  0  0  0  0  0  0  0  0  0  0  0
   59.5420   34.7770   44.8130 O   0  0  0  0  0  0  0  0  0  0  0  0
   58.0550   34.3450   46.5370 N   0  0  0  0  0  0  0  0  0  0  0  0
   58.4190   35.1530   47.0900 H   0  0  0  0  0  0  0  0  0  0  0  0
   57.3740   33.7020   46.9970 H   0  0  0  0  0  0  0  0  0  0  0  0
   58.1360   33.0410   42.9840 C   0  0  0  0  0  0  0  0  0  0  0  0
   58.6031   33.9119   42.5010 H   0  0  0  0  0  0  0  0  0  0  0  0
  1  2  1  0
  2  3  2  0
  3  4  1  0
  3  5  1  0
  5  6  1  0
  6  7  2  0
  7  8  1  0
  8  9  2  0
  9 10  1  0
 10 11  1  0
 11 12  1  0
 11 13  1  0
 11 14  1  0
 14 15  1  0
 14 16  1  0
 16 17  1  0
 17 18  2  0
 18 19  1  0
 18 20  1  0
 20 21  1  0
 20 22  2  0
 22 23  1  0
 22 24  1  0
 24 25  1  0
 24 26  2  0
 26 27  1  0
 14 28  1  0
 28 29  1  0
 28 30  1  0
  9 31  1  0
 31 32  1  0
 32 33  1  0
 33 34  1  0
 33 35  1  0
 33 36  1  0
 32 37  2  0
  5 38  2  0
 38 39  1  0
 38 40  1  0
 40 41  1  0
 41 42  2  0
 41 43  1  0
 43 44  1  0
 43 45  1  0
 40 46  2  0
 46 47  1  0
 46  2  1  0
 37  7  1  0
 28 10  1  0
 26 17  1  0
M  CHG  1  31  -1
M  END
>  <UniqueID>  (12) 
11

>  <SMILES>  (12) 
NC(=O)c1cccc(/N=c2\nc(N3CC(Oc4c(F)cc(F)cc4F)C3)[n-]c(C(F)(F)F)n2)c1

>  <Energy>  (12) 
103.38314282272331

>  <Genealogy>  (12) 
NC(=O)c1cccc(N=c2nc(N3CC(Oc4c(F)cc(F)cc4F)C3)[n-]c(C(F)(F)F)n2)c1 (protonated)
NC(=O)c1cccc(/N=c2\nc(N3CC(Oc4c(F)cc(F)cc4F)C3)[n-]c(C(F)(F)F)n2)c1 (cis-trans isomerization)
NC(=O)c1cccc(/N=c2\nc(N3CC(Oc4c(F)cc(F)cc4F)C3)[n-]c(C(F)(F)F)n2)c1 (3D coordinates assigned)
NC(=O)c1cccc(/N=c2\nc(N3CC(Oc4c(F)cc(F)cc4F)C3)[n-]c(C(F)(F)F)n2)c1 (nonaromatic ring conformer: 103.38314282272331 kcal/mol)

>  <smiles>  (12) 
NC(=O)c1cccc(N=c2nc(N3CC(Oc4c(F)cc(F)cc4F)C3)[nH]c(C(F)(F)F)n2)c1

>  <score_type>  (12) 
oracle

>  <origin>  (12) 
adg

>  <m_score__min__energy>  (12) 
-9.2100000000000009

>  <m_primary>  (12) 
energy

$$$$
12:0
     RDKit          3D

 68 72  0  0  0  0  0  0  0  0999 V2000
   56.4597   20.6942   43.6045 H   0  0  0  0  0  0  0  0  0  0  0  0
   56.2840   21.6320   44.1520 C   0  0  0  0  0  0  0  0  0  0  0  0
   55.7890   21.5960   45.4580 C   0  0  0  0  0  0  0  0  0  0  0  0
   55.5638   20.6304   45.9343 H   0  0  0  0  0  0  0  0  0  0  0  0
   55.5800   22.7860   46.1590 C   0  0  0  0  0  0  0  0  0  0  0  0
   55.1668   22.7553   47.1780 H   0  0  0  0  0  0  0  0  0  0  0  0
   55.8950   24.0230   45.5690 C   0  0  0  0  0  0  0  0  0  0  0  0
   55.6610   25.2670   46.2480 N   0  0  0  0  0  0  0  0  0  0  0  0
   56.3900   26.3440   46.1910 C   0  0  0  0  0  0  0  0  0  0  0  0
   55.8710   27.4590   45.6210 N   0  0  0  0  0  0  0  0  0  0  0  0
   56.6270   28.5760   45.4630 C   0  0  0  0  0  0  0  0  0  0  0  0
   56.1380   29.6630   44.9400 N   0  0  0  0  0  0  0  0  0  0  0  0
   56.8520   30.7970   44.4170 C   0  0  0  0  0  0  0  0  0  0  0  0
   57.4760   31.6630   45.3230 C   0  0  0  0  0  0  0  0  0  0  0  0
   57.3941   31.4710   46.4030 H   0  0  0  0  0  0  0  0  0  0  0  0
   58.2020   32.7690   44.8710 C   0  0  0  0  0  0  0  0  0  0  0  0
   58.6765   33.4480   45.5947 H   0  0  0  0  0  0  0  0  0  0  0  0
   58.3250   33.0120   43.5030 C   0  0  0  0  0  0  0  0  0  0  0  0
   58.8924   33.8858   43.1502 H   0  0  0  0  0  0  0  0  0  0  0  0
   57.7270   32.1450   42.5750 C   0  0  0  0  0  0  0  0  0  0  0  0
   57.9170   32.3710   41.1060 C   0  0  0  0  0  0  0  0  0  0  0  0
   58.6178   33.2046   40.9509 H   0  0  0  0  0  0  0  0  0  0  0  0
   58.3238   31.4592   40.6443 H   0  0  0  0  0  0  0  0  0  0  0  0
   56.9489   32.6151   40.6443 H   0  0  0  0  0  0  0  0  0  0  0  0
   57.0190   31.0220   43.0360 C   0  0  0  0  0  0  0  0  0  0  0  0
   56.5914   30.3124   42.3124 H   0  0  0  0  0  0  0  0  0  0  0  0
   57.9090   28.5760   45.9010 N   0  0  0  0  0  0  0  0  0  0  0  0
   58.4380   27.4780   46.4940 C   0  0  0  0  0  0  0  0  0  0  0  0
   59.6750   27.5120   46.8890 N   0  0  0  0  0  0  0  0  0  0  0  0
   60.1470   27.7980   48.2140 C   0  0  0  0  0  0  0  0  0  0  0  0
   60.5130   26.7710   49.0990 C   0  0  0  0  0  0  0  0  0  0  0  0
   60.5244   25.7270   48.7526 H   0  0  0  0  0  0  0  0  0  0  0  0
   60.8630   27.0710   50.4190 C   0  0  0  0  0  0  0  0  0  0  0  0
   61.1893   26.2673   51.0954 H   0  0  0  0  0  0  0  0  0  0  0  0
   60.8000   28.3870   50.8820 C   0  0  0  0  0  0  0  0  0  0  0  0
   61.0690   28.6151   51.9239 H   0  0  0  0  0  0  0  0  0  0  0  0
   60.3940   29.4210   50.0210 C   0  0  0  0  0  0  0  0  0  0  0  0
   60.2050   30.7920   50.5310 C   0  0  0  0  0  0  0  0  0  0  0  0
   60.4460   31.7840   49.7920 O   0  0  0  0  0  0  0  0  0  0  0  0
   59.6600   31.0010   51.8360 N   0  0  0  0  0  0  0  0  0  0  0  0
   58.2650   30.8660   52.1360 C   0  0  0  0  0  0  0  0  0  0  0  0
   57.7240   29.5860   52.3250 C   0  0  0  0  0  0  0  0  0  0  0  0
   58.3842   28.7063   52.3129 H   0  0  0  0  0  0  0  0  0  0  0  0
   56.3490   29.4210   52.5290 C   0  0  0  0  0  0  0  0  0  0  0  0
   55.9333   28.4126   52.6718 H   0  0  0  0  0  0  0  0  0  0  0  0
   55.5000   30.5360   52.5520 C   0  0  0  0  0  0  0  0  0  0  0  0
   53.7600   30.3280   52.7410 S   0  0  0  0  0  0  0  0  0  0  0  0
   53.3870   30.6410   54.1620 O   0  0  0  0  0  0  0  0  0  0  0  0
   53.3650   28.9090   52.4380 O   0  0  0  0  0  0  0  0  0  0  0  0
   52.8920   31.3990   51.6840 N   0  0  0  0  0  0  0  0  0  0  0  0
   51.9470   31.0520   50.8580 C   0  0  0  0  0  0  0  0  0  0  0  0
   50.9940   32.0000   50.3540 N   0  0  0  0  0  0  0  0  0  0  0  0
   50.1870   31.6680   49.7830 H   0  0  0  0  0  0  0  0  0  0  0  0
   51.0390   33.0160   50.5800 H   0  0  0  0  0  0  0  0  0  0  0  0
   51.8590   29.6900   50.4390 N   0  0  0  0  0  0  0  0  0  0  0  0
   52.5800   28.9970   50.7470 H   0  0  0  0  0  0  0  0  0  0  0  0
   51.0950   29.3750   49.8050 H   0  0  0  0  0  0  0  0  0  0  0  0
   56.0340   31.8160   52.3630 C   0  0  0  0  0  0  0  0  0  0  0  0
   55.3713   32.6938   52.3773 H   0  0  0  0  0  0  0  0  0  0  0  0
   57.4070   31.9830   52.1560 C   0  0  0  0  0  0  0  0  0  0  0  0
   57.8191   32.9921   52.0080 H   0  0  0  0  0  0  0  0  0  0  0  0
   60.0800   29.1180   48.6830 C   0  0  0  0  0  0  0  0  0  0  0  0
   59.7790   29.9245   47.9982 H   0  0  0  0  0  0  0  0  0  0  0  0
   57.6790   26.3560   46.6300 N   0  0  0  0  0  0  0  0  0  0  0  0
   56.3530   24.0510   44.2440 C   0  0  0  0  0  0  0  0  0  0  0  0
   56.5537   25.0156   43.7548 H   0  0  0  0  0  0  0  0  0  0  0  0
   56.5560   22.8590   43.5410 C   0  0  0  0  0  0  0  0  0  0  0  0
   56.9299   22.8874   42.5069 H   0  0  0  0  0  0  0  0  0  0  0  0
  1  2  1  0
  2  3  2  0
  3  4  1  0
  3  5  1  0
  5  6  1  0
  5  7  2  0
  7  8  1  0
  8  9  2  0
  9 10  1  0
 10 11  1  0
 11 12  2  3
 12 13  1  0
 13 14  2  0
 14 15  1  0
 14 16  1  0
 16 17  1  0
 16 18  2  0
 18 19  1  0
 18 20  1  0
 20 21  1  0
 21 22  1  0
 21 23  1  0
 21 24  1  0
 20 25  2  0
 25 26  1  0
 11 27  1  0
 27 28  1  0
 28 29  2  0
 29 30  1  0
 30 31  2  0
 31 32  1  0
 31 33  1  0
 33 34  1  0
 33 35  2  0
 35 36  1  0
 35 37  1  0
 37 38  1  0
 38 39  2  0
 38 40  1  0
 40 41  1  0
 41 42  2  0
 42 43  1  0
 42 44  1  0
 44 45  1  0
 44 46  2  0
 46 47  1  0
 47 48  2  0
 47 49  2  0
 47 50  1  0
 50 51  2  3
 51 52  1  0
 52 53  1  0
 52 54  1  0
 51 55  1  0
 55 56  1  0
 55 57  1  0
 46 58  1  0
 58 59  1  0
 58 60  2  0
 60 61  1  0
 37 62  2  0
 62 63  1  0
 28 64  1  0
  7 65  1  0
 65 66  1  0
 65 67  2  0
 67 68  1  0
 67  2  1  0
 64  9  1  0
 25 13  1  0
 62 30  1  0
 60 41  1  0
M  CHG  4  10  -1  27  -1  40  -1  64  -1
M  END
>  <UniqueID>  (13) 
12

>  <SMILES>  (13) 
Cc1cccc(N=c2[n-]/c(=N/c3ccccc3)[n-]/c(=N\c3cccc(C(=O)[N-]c4ccc(S(=O)(=O)N=C(N)N)cc4)c3)[n-]2)c1

>  <Energy>  (13) 
104.87200979283185

>  <Genealogy>  (13) 
Cc1cccc(N=c2[n-]c(=Nc3ccccc3)[n-]c(=Nc3cccc(C(=O)[N-]c4ccc(S(=O)(=O)N=C(N)N)cc4)c3)[n-]2)c1 (protonated)
Cc1cccc(N=c2[n-]/c(=N/c3ccccc3)[n-]/c(=N\c3cccc(C(=O)[N-]c4ccc(S(=O)(=O)N=C(N)N)cc4)c3)[n-]2)c1 (cis-trans isomerization)
Cc1cccc(N=c2[n-]/c(=N/c3ccccc3)[n-]/c(=N\c3cccc(C(=O)[N-]c4ccc(S(=O)(=O)N=C(N)N)cc4)c3)[n-]2)c1 (3D coordinates assigned)
Cc1cccc(N=c2[n-]/c(=N/c3ccccc3)[n-]/c(=N\c3cccc(C(=O)[N-]c4ccc(S(=O)(=O)N=C(N)N)cc4)c3)[n-]2)c1 (optimized conformer: 104.87200979283185 kcal/mol)

>  <smiles>  (13) 
Cc1cccc(N=c2[nH]c(=Nc3ccccc3)[nH]c(=Nc3cccc(C(=O)Nc4ccc(S(=O)(=O)N=C(N)N)cc4)c3)[nH]2)c1

>  <score_type>  (13) 
oracle

>  <origin>  (13) 
adg

>  <m_score__min__energy>  (13) 
-16.719999999999999

>  <m_primary>  (13) 
energy

$$$$
13:0
     RDKit          3D

 46 49  0  0  0  0  0  0  0  0999 V2000
   55.2060   30.4660   53.8880 O   0  0  0  0  0  0  0  0  0  0  0  0
   55.4150   30.8790   52.7170 C   0  0  0  0  0  0  0  0  0  0  0  0
   54.3180   31.4220   51.9720 N   0  0  0  0  0  0  0  0  0  0  0  0
   53.0600   30.7280   51.7170 C   0  0  0  0  0  0  0  0  0  0  0  0
   51.9960   31.2770   52.6260 C   0  0  0  0  0  0  0  0  0  0  0  0
   51.9700   30.9010   53.9800 C   0  0  0  0  0  0  0  0  0  0  0  0
   51.0020   31.4290   54.8400 C   0  0  0  0  0  0  0  0  0  0  0  0
   50.0620   32.3420   54.3600 C   0  0  0  0  0  0  0  0  0  0  0  0
   50.0890   32.7350   53.0190 C   0  0  0  0  0  0  0  0  0  0  0  0
   51.0550   32.2120   52.1520 C   0  0  0  0  0  0  0  0  0  0  0  0
   51.0730   32.6260   50.8240 O   0  0  0  0  0  0  0  0  0  0  0  0
   56.7700   30.7550   52.1440 C   0  0  0  0  0  0  0  0  0  0  0  0
   57.3660   29.4950   51.9790 C   0  0  0  0  0  0  0  0  0  0  0  0
   58.6430   29.3880   51.4250 C   0  0  0  0  0  0  0  0  0  0  0  0
   59.3290   30.5360   51.0160 C   0  0  0  0  0  0  0  0  0  0  0  0
   60.5680   30.4310   50.4890 N   0  0  0  0  0  0  0  0  0  0  0  0
   61.2810   31.5120   50.0750 C   0  0  0  0  0  0  0  0  0  0  0  0
   60.7170   32.7800   50.1440 N   0  0  0  0  0  0  0  0  0  0  0  0
   59.4660   32.9200   50.7140 C   0  0  0  0  0  0  0  0  0  0  0  0
   58.9550   34.0670   50.8600 O   0  0  0  0  0  0  0  0  0  0  0  0
   58.7400   31.7980   51.1490 C   0  0  0  0  0  0  0  0  0  0  0  0
   57.4510   31.9030   51.7110 C   0  0  0  0  0  0  0  0  0  0  0  0
   61.4380   34.0230   49.7540 C   0  0  0  0  0  0  0  0  0  0  0  0
   62.3280   33.8690   48.5160 C   0  0  0  0  0  0  0  0  0  0  0  0
   63.7410   33.3950   48.8770 C   0  0  0  0  0  0  0  0  0  0  0  0
   63.7410   32.1880   49.8210 C   0  0  0  0  0  0  0  0  0  0  0  0
   62.6340   31.1930   49.4700 C   0  0  0  0  0  0  0  0  0  0  0  0
   52.7623   30.8803   50.6691 H   0  0  0  0  0  0  0  0  0  0  0  0
   53.1878   29.6522   51.9073 H   0  0  0  0  0  0  0  0  0  0  0  0
   52.7143   30.1883   54.3649 H   0  0  0  0  0  0  0  0  0  0  0  0
   50.9814   31.1242   55.8967 H   0  0  0  0  0  0  0  0  0  0  0  0
   49.2991   32.7527   55.0377 H   0  0  0  0  0  0  0  0  0  0  0  0
   49.3490   33.4573   52.6441 H   0  0  0  0  0  0  0  0  0  0  0  0
   56.8248   28.5883   52.2874 H   0  0  0  0  0  0  0  0  0  0  0  0
   59.1104   28.3989   51.3100 H   0  0  0  0  0  0  0  0  0  0  0  0
   56.9766   32.8904   51.8105 H   0  0  0  0  0  0  0  0  0  0  0  0
   60.6920   34.8046   49.5478 H   0  0  0  0  0  0  0  0  0  0  0  0
   62.1027   34.2798   50.5920 H   0  0  0  0  0  0  0  0  0  0  0  0
   61.8694   33.1336   47.8387 H   0  0  0  0  0  0  0  0  0  0  0  0
   62.4137   34.8548   48.0356 H   0  0  0  0  0  0  0  0  0  0  0  0
   64.2653   33.1165   47.9509 H   0  0  0  0  0  0  0  0  0  0  0  0
   64.2441   34.2226   49.3986 H   0  0  0  0  0  0  0  0  0  0  0  0
   64.7135   31.6791   49.7483 H   0  0  0  0  0  0  0  0  0  0  0  0
   63.5614   32.5530   50.8430 H   0  0  0  0  0  0  0  0  0  0  0  0
   62.5243   31.1743   48.3756 H   0  0  0  0  0  0  0  0  0  0  0  0
   62.9419   30.2243   49.8904 H   0  0  0  0  0  0  0  0  0  0  0  0
  1  2  2  0
  2  3  1  0
  3  4  1  0
  4  5  1  0
  5  6  2  0
  6  7  1  0
  7  8  2  0
  8  9  1  0
  9 10  2  0
 10 11  1  0
  2 12  1  0
 12 13  2  0
 13 14  1  0
 14 15  2  0
 15 16  1  0
 16 17  2  0
 17 18  1  0
 18 19  1  0
 19 20  2  0
 19 21  1  0
 21 22  2  0
 18 23  1  0
 23 24  1  0
 24 25  1  0
 25 26  1  0
 26 27  1  0
 10  5  1  0
 22 12  1  0
 21 15  1  0
 27 17  1  0
  4 28  1  0
  4 29  1  0
  6 30  1  0
  7 31  1  0
  8 32  1  0
  9 33  1  0
 13 34  1  0
 14 35  1  0
 22 36  1  0
 23 37  1  0
 23 38  1  0
 24 39  1  0
 24 40  1  0
 25 41  1  0
 25 42  1  0
 26 43  1  0
 26 44  1  0
 27 45  1  0
 27 46  1  0
M  CHG  2   3  -1  11  -1
M  END
>  <UniqueID>  (14) 
13

>  <SMILES>  (14) 
O=C([N-]Cc1ccccc1[O-])c1ccc2nc3n(c(=O)c2c1)CCCCC3

>  <Energy>  (14) 
69.70301361919937

>  <Genealogy>  (14) 
O=C([N-]Cc1ccccc1[O-])c1ccc2nc3n(c(=O)c2c1)CCCCC3 (protonated)
O=C([N-]Cc1ccccc1[O-])c1ccc2nc3n(c(=O)c2c1)CCCCC3 (3D coordinates assigned)
O=C([N-]Cc1ccccc1[O-])c1ccc2nc3n(c(=O)c2c1)CCCCC3 (nonaromatic ring conformer: 69.70301361919937 kcal/mol)

>  <smiles>  (14) 
O=C(NCc1ccccc1O)c1ccc2nc3n(c(=O)c2c1)CCCCC3

>  <score_type>  (14) 
oracle

>  <origin>  (14) 
adg

>  <m_score__min__energy>  (14) 
-11.59

>  <m_primary>  (14) 
energy

$$$$
14:0
     RDKit          3D

 40 41  0  0  0  0  0  0  0  0999 V2000
   54.9040   24.8900   45.3020 C   0  0  0  0  0  0  0  0  0  0  0  0
   56.0080   25.5380   46.0710 C   0  0  0  0  0  0  0  0  0  0  0  0
   56.2450   25.1600   47.2500 O   0  0  0  0  0  0  0  0  0  0  0  0
   56.7240   26.6440   45.5020 N   0  0  0  0  0  0  0  0  0  0  0  0
   57.9520   27.1600   46.0440 C   0  0  0  0  0  0  0  0  0  0  0  0
   59.1710   26.8050   45.4500 C   0  0  0  0  0  0  0  0  0  0  0  0
   60.3740   27.2880   45.9700 C   0  0  0  0  0  0  0  0  0  0  0  0
   60.3710   28.1170   47.0940 C   0  0  0  0  0  0  0  0  0  0  0  0
   59.1680   28.4620   47.7180 C   0  0  0  0  0  0  0  0  0  0  0  0
   59.2210   29.2830   48.8570 O   0  0  0  0  0  0  0  0  0  0  0  0
   60.2830   30.1850   49.1710 C   0  0  0  0  0  0  0  0  0  0  0  0
   60.1310   31.4680   48.4010 C   0  0  0  0  0  0  0  0  0  0  0  0
   61.1540   32.1600   48.1610 O   0  0  0  0  0  0  0  0  0  0  0  0
   58.8660   31.9000   47.8770 N   0  0  0  0  0  0  0  0  0  0  0  0
   58.4860   31.9470   46.4960 C   0  0  0  0  0  0  0  0  0  0  0  0
   58.7780   33.0950   45.7500 C   0  0  0  0  0  0  0  0  0  0  0  0
   58.4120   33.1750   44.4040 C   0  0  0  0  0  0  0  0  0  0  0  0
   57.7300   32.1160   43.7990 C   0  0  0  0  0  0  0  0  0  0  0  0
   57.3960   30.9770   44.5450 C   0  0  0  0  0  0  0  0  0  0  0  0
   56.5320   29.6380   43.7960 S   0  0  0  0  0  0  0  0  0  0  0  0
   55.3100   29.0660   44.8750 N   0  0  0  0  0  0  0  0  0  0  0  0
   55.8990   30.1000   42.5140 O   0  0  0  0  0  0  0  0  0  0  0  0
   57.4850   28.5170   43.4870 O   0  0  0  0  0  0  0  0  0  0  0  0
   57.7690   30.8980   45.8940 C   0  0  0  0  0  0  0  0  0  0  0  0
   57.9560   27.9720   47.1920 C   0  0  0  0  0  0  0  0  0  0  0  0
   54.1724   24.4606   46.0022 H   0  0  0  0  0  0  0  0  0  0  0  0
   54.4086   25.6406   44.6687 H   0  0  0  0  0  0  0  0  0  0  0  0
   55.3179   24.0915   44.6687 H   0  0  0  0  0  0  0  0  0  0  0  0
   56.2900   27.1460   44.6940 H   0  0  0  0  0  0  0  0  0  0  0  0
   59.1802   26.1436   44.5711 H   0  0  0  0  0  0  0  0  0  0  0  0
   61.3267   27.0146   45.4928 H   0  0  0  0  0  0  0  0  0  0  0  0
   61.3220   28.5014   47.4914 H   0  0  0  0  0  0  0  0  0  0  0  0
   60.2638   30.4053   50.2485 H   0  0  0  0  0  0  0  0  0  0  0  0
   61.2397   29.7169   48.8960 H   0  0  0  0  0  0  0  0  0  0  0  0
   59.2986   33.9389   46.2262 H   0  0  0  0  0  0  0  0  0  0  0  0
   58.6611   34.0730   43.8196 H   0  0  0  0  0  0  0  0  0  0  0  0
   57.4548   32.1762   42.7357 H   0  0  0  0  0  0  0  0  0  0  0  0
   54.3890   29.3480   44.4700 H   0  0  0  0  0  0  0  0  0  0  0  0
   57.4992   30.0103   46.4849 H   0  0  0  0  0  0  0  0  0  0  0  0
   57.0054   28.2268   47.6834 H   0  0  0  0  0  0  0  0  0  0  0  0
  1  2  1  0
  2  3  2  0
  2  4  1  0
  4  5  1  0
  5  6  2  0
  6  7  1  0
  7  8  2  0
  8  9  1  0
  9 10  1  0
 10 11  1  0
 11 12  1  0
 12 13  2  0
 12 14  1  0
 14 15  1  0
 15 16  2  0
 16 17  1  0
 17 18  2  0
 18 19  1  0
 19 20  1  0
 20 21  1  0
 20 22  2  0
 20 23  2  0
 19 24  2  0
  9 25  2  0
 25  5  1  0
 24 15  1  0
  1 26  1  0
  1 27  1  0
  1 28  1  0
  4 29  1  0
  6 30  1  0
  7 31  1  0
  8 32  1  0
 11 33  1  0
 11 34  1  0
 16 35  1  0
 17 36  1  0
 18 37  1  0
 21 38  1  0
 24 39  1  0
 25 40  1  0
M  CHG  2  14  -1  21  -1
M  END
>  <UniqueID>  (15) 
14

>  <SMILES>  (15) 
CC(=O)Nc1cccc(OCC(=O)[N-]c2cccc(S([NH-])(=O)=O)c2)c1

>  <Energy>  (15) 
44.097896440069334

>  <Genealogy>  (15) 
CC(=O)Nc1cccc(OCC(=O)[N-]c2cccc(S([NH-])(=O)=O)c2)c1 (protonated)
CC(=O)Nc1cccc(OCC(=O)[N-]c2cccc(S([NH-])(=O)=O)c2)c1 (3D coordinates assigned)
CC(=O)Nc1cccc(OCC(=O)[N-]c2cccc(S([NH-])(=O)=O)c2)c1 (optimized conformer: 44.097896440069334 kcal/mol)

>  <smiles>  (15) 
CC(=O)Nc1cccc(OCC(=O)Nc2cccc(S(N)(=O)=O)c2)c1

>  <score_type>  (15) 
oracle

>  <origin>  (15) 
adg

>  <m_score__min__energy>  (15) 
-12.07

>  <m_primary>  (15) 
energy

$$$$
15:0
     RDKit          3D

 29 30  0  0  0  0  0  0  0  0999 V2000
   56.4220   22.4030   48.1590 H   0  0  0  0  0  0  0  0  0  0  0  0
   57.2980   22.8400   47.8980 O   0  0  0  0  0  0  0  0  0  0  0  0
   57.3330   23.9660   47.0780 C   0  0  0  0  0  0  0  0  0  0  0  0
   58.4940   24.2610   46.3600 C   0  0  0  0  0  0  0  0  0  0  0  0
   59.3717   23.6032   46.4432 H   0  0  0  0  0  0  0  0  0  0  0  0
   58.5450   25.3890   45.5360 C   0  0  0  0  0  0  0  0  0  0  0  0
   59.4587   25.6054   44.9630 H   0  0  0  0  0  0  0  0  0  0  0  0
   57.4390   26.2480   45.4340 C   0  0  0  0  0  0  0  0  0  0  0  0
   57.5490   27.4290   44.5470 C   0  0  0  0  0  0  0  0  0  0  0  0
   57.2279   27.3315   43.4994 H   0  0  0  0  0  0  0  0  0  0  0  0
   58.0220   28.6100   44.9640 C   0  0  0  0  0  0  0  0  0  0  0  0
   59.0791   28.6757   45.2612 H   0  0  0  0  0  0  0  0  0  0  0  0
   57.1910   29.8300   45.0440 C   0  0  0  0  0  0  0  0  0  0  0  0
   55.9400   29.7060   44.9460 O   0  0  0  0  0  0  0  0  0  0  0  0
   57.7640   31.1770   45.2690 C   0  0  0  0  0  0  0  0  0  0  0  0
   57.5370   32.1930   44.3250 C   0  0  0  0  0  0  0  0  0  0  0  0
   56.9199   31.9860   43.4382 H   0  0  0  0  0  0  0  0  0  0  0  0
   58.0890   33.4640   44.5040 C   0  0  0  0  0  0  0  0  0  0  0  0
   57.8985   34.2546   43.7633 H   0  0  0  0  0  0  0  0  0  0  0  0
   58.8810   33.7320   45.6200 C   0  0  0  0  0  0  0  0  0  0  0  0
   59.3161   34.7328   45.7581 H   0  0  0  0  0  0  0  0  0  0  0  0
   59.1220   32.7290   46.5630 C   0  0  0  0  0  0  0  0  0  0  0  0
   59.7464   32.9439   47.4428 H   0  0  0  0  0  0  0  0  0  0  0  0
   58.5730   31.4520   46.3940 C   0  0  0  0  0  0  0  0  0  0  0  0
   58.8790   30.2430   47.6370 Cl  0  0  0  0  0  0  0  0  0  0  0  0
   56.2550   25.9300   46.1360 C   0  0  0  0  0  0  0  0  0  0  0  0
   55.1070   26.7020   45.9980 O   0  0  0  0  0  0  0  0  0  0  0  0
   56.2140   24.8000   46.9620 C   0  0  0  0  0  0  0  0  0  0  0  0
   55.2973   24.5660   47.5231 H   0  0  0  0  0  0  0  0  0  0  0  0
  1  2  1  0
  2  3  1  0
  3  4  2  0
  4  5  1  0
  4  6  1  0
  6  7  1  0
  6  8  2  0
  8  9  1  0
  9 10  1  0
  9 11  2  0
 11 12  1  0
 11 13  1  0
 13 14  2  0
 13 15  1  0
 15 16  2  0
 16 17  1  0
 16 18  1  0
 18 19  1  0
 18 20  2  0
 20 21  1  0
 20 22  1  0
 22 23  1  0
 22 24  2  0
 24 25  1  0
  8 26  1  0
 26 27  1  0
 26 28  2  0
 28 29  1  0
 28  3  1  0
 24 15  1  0
M  CHG  1  27  -1
M  END
>  <UniqueID>  (16) 
15

>  <SMILES>  (16) 
O=C(/C=C/c1ccc(O)cc1[O-])c1ccccc1Cl

>  <Energy>  (16) 
40.86733045523211

>  <Genealogy>  (16) 
O=C(C=Cc1ccc(O)cc1[O-])c1ccccc1Cl (protonated)
O=C(/C=C/c1ccc(O)cc1[O-])c1ccccc1Cl (cis-trans isomerization)
O=C(/C=C/c1ccc(O)cc1[O-])c1ccccc1Cl (3D coordinates assigned)
O=C(/C=C/c1ccc(O)cc1[O-])c1ccccc1Cl (optimized conformer: 40.86733045523211 kcal/mol)

>  <smiles>  (16) 
O=C(C=Cc1ccc(O)cc1O)c1ccccc1Cl

>  <score_type>  (16) 
oracle

>  <origin>  (16) 
adg

>  <m_score__min__energy>  (16) 
-11.779999999999999

>  <m_primary>  (16) 
energy

$$$$
16:0
     RDKit          3D

 31 33  0  0  0  0  0  0  0  0999 V2000
   58.4700   32.2103   43.5934 H   0  0  0  0  0  0  0  0  0  0  0  0
   58.0120   31.9150   44.5490 C   0  0  0  0  0  0  0  0  0  0  0  0
   57.1160   30.9740   44.5610 N   0  0  0  0  0  0  0  0  0  0  0  0
   57.3070   29.6140   44.9860 C   0  0  0  0  0  0  0  0  0  0  0  0
   56.1730   28.8180   45.2020 C   0  0  0  0  0  0  0  0  0  0  0  0
   54.9050   29.3500   44.9850 O   0  0  0  0  0  0  0  0  0  0  0  0
   56.3000   27.4900   45.6260 C   0  0  0  0  0  0  0  0  0  0  0  0
   55.1520   26.7250   45.8210 O   0  0  0  0  0  0  0  0  0  0  0  0
   57.5740   26.9400   45.8540 C   0  0  0  0  0  0  0  0  0  0  0  0
   57.7280   25.6080   46.2820 C   0  0  0  0  0  0  0  0  0  0  0  0
   56.8408   24.9768   46.4385 H   0  0  0  0  0  0  0  0  0  0  0  0
   59.0040   25.0840   46.5090 C   0  0  0  0  0  0  0  0  0  0  0  0
   59.1171   24.0412   46.8402 H   0  0  0  0  0  0  0  0  0  0  0  0
   60.1350   25.8790   46.3170 C   0  0  0  0  0  0  0  0  0  0  0  0
   61.1362   25.4618   46.5001 H   0  0  0  0  0  0  0  0  0  0  0  0
   59.9990   27.2030   45.8930 C   0  0  0  0  0  0  0  0  0  0  0  0
   60.8939   27.8251   45.7442 H   0  0  0  0  0  0  0  0  0  0  0  0
   58.7250   27.7430   45.6560 C   0  0  0  0  0  0  0  0  0  0  0  0
   58.5850   29.0720   45.2310 C   0  0  0  0  0  0  0  0  0  0  0  0
   59.4793   29.6963   45.0877 H   0  0  0  0  0  0  0  0  0  0  0  0
   58.4300   32.5990   45.7960 C   0  0  0  0  0  0  0  0  0  0  0  0
   58.4930   31.8460   46.9820 C   0  0  0  0  0  0  0  0  0  0  0  0
   58.2352   30.7768   46.9627 H   0  0  0  0  0  0  0  0  0  0  0  0
   58.8800   32.4430   48.1850 C   0  0  0  0  0  0  0  0  0  0  0  0
   58.9250   31.8432   49.1060 H   0  0  0  0  0  0  0  0  0  0  0  0
   59.2090   33.7970   48.2200 C   0  0  0  0  0  0  0  0  0  0  0  0
   59.5146   34.2640   49.1679 H   0  0  0  0  0  0  0  0  0  0  0  0
   59.1510   34.5610   47.0530 C   0  0  0  0  0  0  0  0  0  0  0  0
   59.4106   35.6295   47.0849 H   0  0  0  0  0  0  0  0  0  0  0  0
   58.7640   33.9740   45.8420 C   0  0  0  0  0  0  0  0  0  0  0  0
   58.7160   34.7690   44.7010 O   0  0  0  0  0  0  0  0  0  0  0  0
  1  2  1  0
  2  3  2  0
  3  4  1  0
  4  5  2  0
  5  6  1  0
  5  7  1  0
  7  8  1  0
  7  9  2  0
  9 10  1  0
 10 11  1  0
 10 12  2  0
 12 13  1  0
 12 14  1  0
 14 15  1  0
 14 16  2  0
 16 17  1  0
 16 18  1  0
 18 19  2  0
 19 20  1  0
  2 21  1  0
 21 22  2  0
 22 23  1  0
 22 24  1  0
 24 25  1  0
 24 26  2  0
 26 27  1  0
 26 28  1  0
 28 29  1  0
 28 30  2  0
 30 31  1  0
 19  4  1  0
 30 21  1  0
 18  9  1  0
M  CHG  3   6  -1   8  -1  31  -1
M  END
>  <UniqueID>  (17) 
16

>  <SMILES>  (17) 
[O-]c1ccccc1/C=N/c1cc2ccccc2c([O-])c1[O-]

>  <Energy>  (17) 
43.3399379935679

>  <Genealogy>  (17) 
[O-]c1ccccc1C=Nc1cc2ccccc2c([O-])c1[O-] (protonated)
[O-]c1ccccc1/C=N/c1cc2ccccc2c([O-])c1[O-] (cis-trans isomerization)
[O-]c1ccccc1/C=N/c1cc2ccccc2c([O-])c1[O-] (3D coordinates assigned)
[O-]c1ccccc1/C=N/c1cc2ccccc2c([O-])c1[O-] (optimized conformer: 43.3399379935679 kcal/mol)

>  <smiles>  (17) 
Oc1ccccc1C=Nc1cc2ccccc2c(O)c1O

>  <score_type>  (17) 
oracle

>  <origin>  (17) 
adg

>  <m_score__min__energy>  (17) 
-15.699999999999999

>  <m_primary>  (17) 
energy

$$$$
17:0
     RDKit          3D

 57 61  0  0  0  0  0  0  0  0999 V2000
   50.9980   31.6440   50.2920 N   0  0  0  0  0  0  0  0  0  0  0  0
   51.2250   31.8220   51.9940 S   0  0  0  0  0  0  0  0  0  0  0  0
   51.3600   33.2800   52.3310 O   0  0  0  0  0  0  0  0  0  0  0  0
   50.0320   31.2670   52.7200 O   0  0  0  0  0  0  0  0  0  0  0  0
   52.6800   30.9650   52.4880 C   0  0  0  0  0  0  0  0  0  0  0  0
   53.9180   31.2960   51.9230 C   0  0  0  0  0  0  0  0  0  0  0  0
   55.0730   30.6100   52.3080 C   0  0  0  0  0  0  0  0  0  0  0  0
   55.0060   29.5740   53.2580 C   0  0  0  0  0  0  0  0  0  0  0  0
   56.2280   28.8410   53.6700 C   0  0  0  0  0  0  0  0  0  0  0  0
   56.1730   27.4750   54.0330 C   0  0  0  0  0  0  0  0  0  0  0  0
   57.3380   26.7880   54.4220 C   0  0  0  0  0  0  0  0  0  0  0  0
   58.5660   27.4630   54.4420 C   0  0  0  0  0  0  0  0  0  0  0  0
   58.5810   28.7700   54.0810 N   0  0  0  0  0  0  0  0  0  0  0  0
   59.6300   29.5630   54.0170 N   0  0  0  0  0  0  0  0  0  0  0  0
   59.1290   30.7440   53.5800 C   0  0  0  0  0  0  0  0  0  0  0  0
   59.8390   31.8200   53.4090 N   0  0  0  0  0  0  0  0  0  0  0  0
   60.7460   32.0940   52.3270 C   0  0  0  0  0  0  0  0  0  0  0  0
   61.5000   31.0800   51.7050 C   0  0  0  0  0  0  0  0  0  0  0  0
   62.3420   31.3860   50.6310 C   0  0  0  0  0  0  0  0  0  0  0  0
   62.4230   32.7000   50.1510 C   0  0  0  0  0  0  0  0  0  0  0  0
   63.4660   33.0990   48.7900 S   0  0  0  0  0  0  0  0  0  0  0  0
   64.8510   32.5520   48.9920 O   0  0  0  0  0  0  0  0  0  0  0  0
   63.5510   34.5930   48.6690 O   0  0  0  0  0  0  0  0  0  0  0  0
   62.7990   32.4430   47.3290 N   0  0  0  0  0  0  0  0  0  0  0  0
   61.4750   32.7310   46.8430 C   0  0  0  0  0  0  0  0  0  0  0  0
   60.5260   31.6970   46.7930 C   0  0  0  0  0  0  0  0  0  0  0  0
   59.2280   31.9430   46.3380 C   0  0  0  0  0  0  0  0  0  0  0  0
   58.8470   33.2280   45.9200 C   0  0  0  0  0  0  0  0  0  0  0  0
   57.4380   33.4640   45.4340 C   0  0  0  0  0  0  0  0  0  0  0  0
   57.0350   32.3980   44.6480 F   0  0  0  0  0  0  0  0  0  0  0  0
   57.3990   34.6230   44.6780 F   0  0  0  0  0  0  0  0  0  0  0  0
   56.5490   33.5900   46.4870 F   0  0  0  0  0  0  0  0  0  0  0  0
   59.8030   34.2590   45.9400 C   0  0  0  0  0  0  0  0  0  0  0  0
   61.1020   34.0150   46.4010 C   0  0  0  0  0  0  0  0  0  0  0  0
   61.6530   33.7040   50.7500 C   0  0  0  0  0  0  0  0  0  0  0  0
   60.8120   33.3990   51.8240 C   0  0  0  0  0  0  0  0  0  0  0  0
   57.7890   30.7240   53.3770 N   0  0  0  0  0  0  0  0  0  0  0  0
   57.4900   29.4530   53.7100 C   0  0  0  0  0  0  0  0  0  0  0  0
   53.7600   29.2470   53.8210 C   0  0  0  0  0  0  0  0  0  0  0  0
   52.6050   29.9340   53.4350 C   0  0  0  0  0  0  0  0  0  0  0  0
   50.2660   32.3360   50.0090 H   0  0  0  0  0  0  0  0  0  0  0  0
   53.9814   32.0987   51.1736 H   0  0  0  0  0  0  0  0  0  0  0  0
   56.0424   30.8820   51.8649 H   0  0  0  0  0  0  0  0  0  0  0  0
   55.2098   26.9443   54.0110 H   0  0  0  0  0  0  0  0  0  0  0  0
   57.2850   25.7273   54.7087 H   0  0  0  0  0  0  0  0  0  0  0  0
   59.4905   26.9477   54.7417 H   0  0  0  0  0  0  0  0  0  0  0  0
   61.4264   30.0433   52.0653 H   0  0  0  0  0  0  0  0  0  0  0  0
   62.9425   30.5928   50.1617 H   0  0  0  0  0  0  0  0  0  0  0  0
   63.4130   31.7990   46.7790 H   0  0  0  0  0  0  0  0  0  0  0  0
   60.8073   30.6835   47.1152 H   0  0  0  0  0  0  0  0  0  0  0  0
   58.4972   31.1215   46.3070 H   0  0  0  0  0  0  0  0  0  0  0  0
   59.5279   35.2651   45.5906 H   0  0  0  0  0  0  0  0  0  0  0  0
   61.8374   34.8329   46.4182 H   0  0  0  0  0  0  0  0  0  0  0  0
   61.7100   34.7363   50.3743 H   0  0  0  0  0  0  0  0  0  0  0  0
   60.1972   34.1904   52.2776 H   0  0  0  0  0  0  0  0  0  0  0  0
   53.6932   28.4448   54.5707 H   0  0  0  0  0  0  0  0  0  0  0  0
   51.6340   29.6645   53.8760 H   0  0  0  0  0  0  0  0  0  0  0  0
  1  2  1  0
  2  3  2  0
  2  4  2  0
  2  5  1  0
  5  6  2  0
  6  7  1  0
  7  8  2  0
  8  9  1  0
  9 10  2  0
 10 11  1  0
 11 12  2  0
 12 13  1  0
 13 14  1  0
 14 15  1  0
 15 16  2  3
 16 17  1  0
 17 18  2  0
 18 19  1  0
 19 20  2  0
 20 21  1  0
 21 22  2  0
 21 23  2  0
 21 24  1  0
 24 25  1  0
 25 26  2  0
 26 27  1  0
 27 28  2  0
 28 29  1  0
 29 30  1  0
 29 31  1  0
 29 32  1  0
 28 33  1  0
 33 34  2  0
 20 35  1  0
 35 36  2  0
 15 37  1  0
 37 38  2  0
  8 39  1  0
 39 40  2  0
 40  5  1  0
 38  9  1  0
 38 13  1  0
 36 17  1  0
 34 25  1  0
  1 41  1  0
  6 42  1  0
  7 43  1  0
 10 44  1  0
 11 45  1  0
 12 46  1  0
 18 47  1  0
 19 48  1  0
 24 49  1  0
 26 50  1  0
 27 51  1  0
 33 52  1  0
 34 53  1  0
 35 54  1  0
 36 55  1  0
 39 56  1  0
 40 57  1  0
M  CHG  2   1  -1  14  -1
M  END
>  <UniqueID>  (18) 
17

>  <SMILES>  (18) 
[NH-]S(=O)(=O)c1ccc(-c2cccn3[n-]c(=Nc4ccc(S(=O)(=O)Nc5ccc(C(F)(F)F)cc5)cc4)nc23)cc1

>  <Energy>  (18) 
117.07983197168083

>  <Genealogy>  (18) 
[NH-]S(=O)(=O)c1ccc(-c2cccn3[n-]c(=Nc4ccc(S(=O)(=O)Nc5ccc(C(F)(F)F)cc5)cc4)nc23)cc1 (protonated)
[NH-]S(=O)(=O)c1ccc(-c2cccn3[n-]c(=Nc4ccc(S(=O)(=O)Nc5ccc(C(F)(F)F)cc5)cc4)nc23)cc1 (3D coordinates assigned)
[NH-]S(=O)(=O)c1ccc(-c2cccn3[n-]c(=Nc4ccc(S(=O)(=O)Nc5ccc(C(F)(F)F)cc5)cc4)nc23)cc1 (optimized conformer: 117.07983197168083 kcal/mol)

>  <smiles>  (18) 
NS(=O)(=O)c1ccc(-c2cccn3[nH]c(=Nc4ccc(S(=O)(=O)Nc5ccc(C(F)(F)F)cc5)cc4)nc23)cc1

>  <score_type>  (18) 
oracle

>  <origin>  (18) 
adg

>  <m_score__min__energy>  (18) 
-14.130000000000001

>  <m_primary>  (18) 
energy

$$$$
18:0
     RDKit          3D

 46 48  0  0  0  0  0  0  0  0999 V2000
   57.1730   21.0960   42.9830 C   0  0  0  0  0  0  0  0  0  0  0  0
   57.7880   22.0700   43.8820 N   0  0  0  0  0  0  0  0  0  0  0  0
   58.9470   21.9230   44.5450 C   0  0  0  0  0  0  0  0  0  0  0  0
   59.1670   23.0660   45.2810 C   0  0  0  0  0  0  0  0  0  0  0  0
   58.1490   23.9310   45.0940 N   0  0  0  0  0  0  0  0  0  0  0  0
   57.3190   23.2830   44.2490 C   0  0  0  0  0  0  0  0  0  0  0  0
   55.7840   24.0030   43.6530 S   0  0  0  0  0  0  0  0  0  0  0  0
   54.8120   23.6290   45.1620 C   0  0  0  0  0  0  0  0  0  0  0  0
   53.9760   24.8240   45.6260 C   0  0  0  0  0  0  0  0  0  0  0  0
   54.7980   26.0260   45.6780 N   0  0  0  0  0  0  0  0  0  0  0  0
   56.0760   26.0750   46.3220 C   0  0  0  0  0  0  0  0  0  0  0  0
   56.3780   25.1980   47.1770 O   0  0  0  0  0  0  0  0  0  0  0  0
   57.0300   27.1640   46.0060 C   0  0  0  0  0  0  0  0  0  0  0  0
   58.3540   27.1140   46.4850 C   0  0  0  0  0  0  0  0  0  0  0  0
   59.2540   28.1390   46.1780 C   0  0  0  0  0  0  0  0  0  0  0  0
   58.8500   29.2170   45.3910 C   0  0  0  0  0  0  0  0  0  0  0  0
   57.5340   29.2850   44.9080 C   0  0  0  0  0  0  0  0  0  0  0  0
   57.0010   30.6540   43.9360 S   0  0  0  0  0  0  0  0  0  0  0  0
   55.7720   30.2700   43.1600 O   0  0  0  0  0  0  0  0  0  0  0  0
   58.1010   31.0430   42.9870 O   0  0  0  0  0  0  0  0  0  0  0  0
   56.6240   31.9820   44.9860 N   0  0  0  0  0  0  0  0  0  0  0  0
   57.5900   32.8480   45.5970 C   0  0  0  0  0  0  0  0  0  0  0  0
   58.2510   33.8610   44.8770 C   0  0  0  0  0  0  0  0  0  0  0  0
   59.1700   34.6950   45.5190 C   0  0  0  0  0  0  0  0  0  0  0  0
   59.4410   34.5280   46.8800 C   0  0  0  0  0  0  0  0  0  0  0  0
   60.3290   35.3450   47.5000 F   0  0  0  0  0  0  0  0  0  0  0  0
   58.7930   33.5210   47.6020 C   0  0  0  0  0  0  0  0  0  0  0  0
   59.0570   33.3510   48.9220 F   0  0  0  0  0  0  0  0  0  0  0  0
   57.8740   32.6830   46.9620 C   0  0  0  0  0  0  0  0  0  0  0  0
   56.6270   28.2620   45.2220 C   0  0  0  0  0  0  0  0  0  0  0  0
   56.6780   20.3121   43.5750 H   0  0  0  0  0  0  0  0  0  0  0  0
   56.4296   21.6009   42.3486 H   0  0  0  0  0  0  0  0  0  0  0  0
   57.9484   20.6418   42.3486 H   0  0  0  0  0  0  0  0  0  0  0  0
   59.6057   21.0429   44.5067 H   0  0  0  0  0  0  0  0  0  0  0  0
   60.0409   23.2463   45.9242 H   0  0  0  0  0  0  0  0  0  0  0  0
   54.1372   22.7870   44.9483 H   0  0  0  0  0  0  0  0  0  0  0  0
   55.5209   23.3820   45.9660 H   0  0  0  0  0  0  0  0  0  0  0  0
   53.1462   24.9819   44.9213 H   0  0  0  0  0  0  0  0  0  0  0  0
   53.5817   24.6162   46.6317 H   0  0  0  0  0  0  0  0  0  0  0  0
   58.6811   26.2649   47.1032 H   0  0  0  0  0  0  0  0  0  0  0  0
   60.2850   28.0949   46.5588 H   0  0  0  0  0  0  0  0  0  0  0  0
   59.5651   30.0167   45.1480 H   0  0  0  0  0  0  0  0  0  0  0  0
   58.0433   33.9965   43.8053 H   0  0  0  0  0  0  0  0  0  0  0  0
   59.6821   35.4859   44.9513 H   0  0  0  0  0  0  0  0  0  0  0  0
   57.3701   31.8888   47.5324 H   0  0  0  0  0  0  0  0  0  0  0  0
   55.5924   28.3180   44.8527 H   0  0  0  0  0  0  0  0  0  0  0  0
  1  2  1  0
  2  3  1  0
  3  4  2  0
  4  5  1  0
  5  6  2  0
  6  7  1  0
  7  8  1  0
  8  9  1  0
  9 10  1  0
 10 11  1  0
 11 12  2  0
 11 13  1  0
 13 14  2  0
 14 15  1  0
 15 16  2  0
 16 17  1  0
 17 18  1  0
 18 19  2  0
 18 20  2  0
 18 21  1  0
 21 22  1  0
 22 23  2  0
 23 24  1  0
 24 25  2  0
 25 26  1  0
 25 27  1  0
 27 28  1  0
 27 29  2  0
 17 30  2  0
  6  2  1  0
 30 13  1  0
 29 22  1  0
  1 31  1  0
  1 32  1  0
  1 33  1  0
  3 34  1  0
  4 35  1  0
  8 36  1  0
  8 37  1  0
  9 38  1  0
  9 39  1  0
 14 40  1  0
 15 41  1  0
 16 42  1  0
 23 43  1  0
 24 44  1  0
 29 45  1  0
 30 46  1  0
M  CHG  2  10  -1  21  -1
M  END
>  <UniqueID>  (19) 
18

>  <SMILES>  (19) 
Cn1ccnc1SCC[N-]C(=O)c1cccc(S(=O)(=O)[N-]c2ccc(F)c(F)c2)c1

>  <Energy>  (19) 
74.04315736759898

>  <Genealogy>  (19) 
Cn1ccnc1SCC[N-]C(=O)c1cccc(S(=O)(=O)[N-]c2ccc(F)c(F)c2)c1 (protonated)
Cn1ccnc1SCC[N-]C(=O)c1cccc(S(=O)(=O)[N-]c2ccc(F)c(F)c2)c1 (3D coordinates assigned)
Cn1ccnc1SCC[N-]C(=O)c1cccc(S(=O)(=O)[N-]c2ccc(F)c(F)c2)c1 (optimized conformer: 74.04315736759898 kcal/mol)

>  <smiles>  (19) 
Cn1ccnc1SCCNC(=O)c1cccc(S(=O)(=O)Nc2ccc(F)c(F)c2)c1

>  <score_type>  (19) 
oracle

>  <origin>  (19) 
adg

>  <m_score__min__energy>  (19) 
-12.279999999999999

>  <m_primary>  (19) 
energy

$$$$
19:0
     RDKit          3D

 43 46  0  0  0  0  0  0  0  0999 V2000
   63.7200   31.6710   46.7690 O   0  0  0  0  0  0  0  0  0  0  0  0
   63.0310   32.2700   47.6380 C   0  0  0  0  0  0  0  0  0  0  0  0
   62.5940   31.5820   48.7850 O   0  0  0  0  0  0  0  0  0  0  0  0
   62.6610   33.7300   47.4700 C   0  0  0  0  0  0  0  0  0  0  0  0
   61.2120   33.8090   47.2670 C   0  0  0  0  0  0  0  0  0  0  0  0
   60.7480   34.2300   46.0140 C   0  0  0  0  0  0  0  0  0  0  0  0
   59.4000   34.3790   45.7850 C   0  0  0  0  0  0  0  0  0  0  0  0
   58.4380   34.1260   46.7560 C   0  0  0  0  0  0  0  0  0  0  0  0
   58.8940   33.7110   47.9800 C   0  0  0  0  0  0  0  0  0  0  0  0
   60.2490   33.5620   48.2090 C   0  0  0  0  0  0  0  0  0  0  0  0
   60.6020   33.1500   49.5490 N   0  0  0  0  0  0  0  0  0  0  0  0
   59.5770   32.7200   50.3840 C   0  0  0  0  0  0  0  0  0  0  0  0
   59.1980   33.6070   51.4100 C   0  0  0  0  0  0  0  0  0  0  0  0
   58.2200   33.2920   52.3260 C   0  0  0  0  0  0  0  0  0  0  0  0
   57.6370   32.0990   52.2020 N   0  0  0  0  0  0  0  0  0  0  0  0
   57.9750   31.2390   51.2380 C   0  0  0  0  0  0  0  0  0  0  0  0
   57.3400   30.1360   51.2350 O   0  0  0  0  0  0  0  0  0  0  0  0
   58.9630   31.5050   50.2770 C   0  0  0  0  0  0  0  0  0  0  0  0
   59.1660   30.5250   49.2320 C   0  0  0  0  0  0  0  0  0  0  0  0
   59.9800   30.7870   48.1800 N   0  0  0  0  0  0  0  0  0  0  0  0
   60.0690   29.7540   47.3530 C   0  0  0  0  0  0  0  0  0  0  0  0
   60.7520   29.5350   46.1770 C   0  0  0  0  0  0  0  0  0  0  0  0
   60.6480   28.3220   45.5210 C   0  0  0  0  0  0  0  0  0  0  0  0
   59.8480   27.2990   46.0430 C   0  0  0  0  0  0  0  0  0  0  0  0
   59.1820   27.5570   47.2220 C   0  0  0  0  0  0  0  0  0  0  0  0
   59.2870   28.7650   47.8730 C   0  0  0  0  0  0  0  0  0  0  0  0
   58.7520   29.2800   49.0250 N   0  0  0  0  0  0  0  0  0  0  0  0
   61.6380   31.2610   48.8610 H   0  0  0  0  0  0  0  0  0  0  0  0
   62.9429   34.2928   48.3721 H   0  0  0  0  0  0  0  0  0  0  0  0
   63.1918   34.1623   46.6090 H   0  0  0  0  0  0  0  0  0  0  0  0
   61.4661   34.4427   45.2084 H   0  0  0  0  0  0  0  0  0  0  0  0
   59.0689   34.7128   44.7905 H   0  0  0  0  0  0  0  0  0  0  0  0
   57.3645   34.2525   46.5522 H   0  0  0  0  0  0  0  0  0  0  0  0
   58.1768   33.4950   48.7856 H   0  0  0  0  0  0  0  0  0  0  0  0
   61.6080   33.2610   49.7360 H   0  0  0  0  0  0  0  0  0  0  0  0
   59.6998   34.5833   51.4818 H   0  0  0  0  0  0  0  0  0  0  0  0
   57.9324   33.9924   53.1240 H   0  0  0  0  0  0  0  0  0  0  0  0
   56.9000   31.8470   52.8830 H   0  0  0  0  0  0  0  0  0  0  0  0
   61.3847   30.3306   45.7567 H   0  0  0  0  0  0  0  0  0  0  0  0
   61.1980   28.1600   44.5822 H   0  0  0  0  0  0  0  0  0  0  0  0
   59.7545   26.3287   45.5332 H   0  0  0  0  0  0  0  0  0  0  0  0
   58.5459   26.7718   47.6566 H   0  0  0  0  0  0  0  0  0  0  0  0
   58.1460   28.7120   49.5970 H   0  0  0  0  0  0  0  0  0  0  0  0
  1  2  2  0
  2  3  1  0
  2  4  1  0
  4  5  1  0
  5  6  2  0
  6  7  1  0
  7  8  2  0
  8  9  1  0
  9 10  2  0
 10 11  1  0
 11 12  1  0
 12 13  1  0
 13 14  2  0
 14 15  1  0
 15 16  1  0
 16 17  2  0
 16 18  1  0
 18 19  1  0
 19 20  2  0
 20 21  1  0
 21 22  2  0
 22 23  1  0
 23 24  2  0
 24 25  1  0
 25 26  2  0
 26 27  1  0
 10  5  1  0
 18 12  2  0
 27 19  1  0
 26 21  1  0
  3 28  1  0
  4 29  1  0
  4 30  1  0
  6 31  1  0
  7 32  1  0
  8 33  1  0
  9 34  1  0
 11 35  1  0
 13 36  1  0
 14 37  1  0
 15 38  1  0
 22 39  1  0
 23 40  1  0
 24 41  1  0
 25 42  1  0
 27 43  1  0
M  END
>  <smiles>  (20) 
O=C(O)Cc1ccccc1Nc1cc[nH]c(=O)c1-c1nc2ccccc2[nH]1

>  <score_type>  (20) 
oracle

>  <origin>  (20) 
adg

>  <m_score__min__energy>  (20) 
-9.1600000000000001

>  <m_primary>  (20) 
energy

$$$$
20:0
     RDKit          3D

 43 45  0  0  0  0  0  0  0  0999 V2000
   59.9050   32.9660   50.9170 C   0  0  0  0  0  0  0  0  0  0  0  0
   60.7250   33.9710   50.3280 O   0  0  0  0  0  0  0  0  0  0  0  0
   61.4520   33.8100   49.1370 C   0  0  0  0  0  0  0  0  0  0  0  0
   62.8420   33.5800   49.1400 C   0  0  0  0  0  0  0  0  0  0  0  0
   63.5390   33.4440   47.9370 C   0  0  0  0  0  0  0  0  0  0  0  0
   62.8620   33.5370   46.7210 C   0  0  0  0  0  0  0  0  0  0  0  0
   61.4850   33.7650   46.7030 C   0  0  0  0  0  0  0  0  0  0  0  0
   60.7680   33.8890   47.9050 C   0  0  0  0  0  0  0  0  0  0  0  0
   59.2890   34.1820   47.8630 C   0  0  0  0  0  0  0  0  0  0  0  0
   58.6650   33.5040   46.6800 C   0  0  0  0  0  0  0  0  0  0  0  0
   58.0890   32.2910   46.7400 N   0  0  0  0  0  0  0  0  0  0  0  0
   57.6880   32.0640   45.4710 C   0  0  0  0  0  0  0  0  0  0  0  0
   57.0630   30.9870   45.0920 N   0  0  0  0  0  0  0  0  0  0  0  0
   57.6050   29.6550   45.0610 C   0  0  0  0  0  0  0  0  0  0  0  0
   58.9520   29.4860   44.7160 C   0  0  0  0  0  0  0  0  0  0  0  0
   59.5240   28.2120   44.7000 C   0  0  0  0  0  0  0  0  0  0  0  0
   58.7590   27.0940   45.0440 C   0  0  0  0  0  0  0  0  0  0  0  0
   57.4170   27.2500   45.4160 C   0  0  0  0  0  0  0  0  0  0  0  0
   56.4530   25.8540   45.8900 S   0  0  0  0  0  0  0  0  0  0  0  0
   54.7880   26.3070   45.9810 N   0  0  0  0  0  0  0  0  0  0  0  0
   56.9070   25.3440   47.2290 O   0  0  0  0  0  0  0  0  0  0  0  0
   56.6210   24.7610   44.8740 O   0  0  0  0  0  0  0  0  0  0  0  0
   56.8470   28.5300   45.4420 C   0  0  0  0  0  0  0  0  0  0  0  0
   57.9560   33.0720   44.6160 N   0  0  0  0  0  0  0  0  0  0  0  0
   58.5780   33.9820   45.3870 C   0  0  0  0  0  0  0  0  0  0  0  0
   59.0930   35.2890   44.8790 C   0  0  0  0  0  0  0  0  0  0  0  0
   59.9650   33.0396   52.0129 H   0  0  0  0  0  0  0  0  0  0  0  0
   58.8625   33.1090   50.5965 H   0  0  0  0  0  0  0  0  0  0  0  0
   60.2543   31.9734   50.5965 H   0  0  0  0  0  0  0  0  0  0  0  0
   63.3818   33.5071   50.0957 H   0  0  0  0  0  0  0  0  0  0  0  0
   64.6240   33.2632   47.9487 H   0  0  0  0  0  0  0  0  0  0  0  0
   63.4138   33.4306   45.7754 H   0  0  0  0  0  0  0  0  0  0  0  0
   60.9576   33.8482   45.7413 H   0  0  0  0  0  0  0  0  0  0  0  0
   58.8180   33.8116   48.7854 H   0  0  0  0  0  0  0  0  0  0  0  0
   59.1385   35.2683   47.7774 H   0  0  0  0  0  0  0  0  0  0  0  0
   59.5634   30.3626   44.4559 H   0  0  0  0  0  0  0  0  0  0  0  0
   60.5794   28.0881   44.4159 H   0  0  0  0  0  0  0  0  0  0  0  0
   59.2106   26.0912   45.0227 H   0  0  0  0  0  0  0  0  0  0  0  0
   54.7230   27.0910   46.6690 H   0  0  0  0  0  0  0  0  0  0  0  0
   55.8022   28.6571   45.7616 H   0  0  0  0  0  0  0  0  0  0  0  0
   59.3487   35.9379   45.7296 H   0  0  0  0  0  0  0  0  0  0  0  0
   59.9904   35.1165   44.2667 H   0  0  0  0  0  0  0  0  0  0  0  0
   58.3191   35.7750   44.2667 H   0  0  0  0  0  0  0  0  0  0  0  0
  1  2  1  0
  2  3  1  0
  3  4  2  0
  4  5  1  0
  5  6  2  0
  6  7  1  0
  7  8  2  0
  8  9  1  0
  9 10  1  0
 10 11  1  0
 11 12  1  0
 12 13  2  3
 13 14  1  0
 14 15  2  0
 15 16  1  0
 16 17  2  0
 17 18  1  0
 18 19  1  0
 19 20  1  0
 19 21  2  0
 19 22  2  0
 18 23  2  0
 12 24  1  0
 24 25  1  0
 25 26  1  0
  8  3  1  0
 25 10  2  0
 23 14  1  0
  1 27  1  0
  1 28  1  0
  1 29  1  0
  4 30  1  0
  5 31  1  0
  6 32  1  0
  7 33  1  0
  9 34  1  0
  9 35  1  0
 15 36  1  0
 16 37  1  0
 17 38  1  0
 20 39  1  0
 23 40  1  0
 26 41  1  0
 26 42  1  0
 26 43  1  0
M  CHG  3  11  -1  20  -1  24  -1
M  END
>  <UniqueID>  (21) 
19

>  <SMILES>  (21) 
COc1ccccc1Cc1[n-]c(=Nc2cccc(S([NH-])(=O)=O)c2)[n-]c1C

>  <Energy>  (21) 
74.28465172276485

>  <Genealogy>  (21) 
COc1ccccc1Cc1[n-]c(=Nc2cccc(S([NH-])(=O)=O)c2)[n-]c1C (protonated)
COc1ccccc1Cc1[n-]c(=Nc2cccc(S([NH-])(=O)=O)c2)[n-]c1C (3D coordinates assigned)
COc1ccccc1Cc1[n-]c(=Nc2cccc(S([NH-])(=O)=O)c2)[n-]c1C (optimized conformer: 74.28465172276485 kcal/mol)

>  <smiles>  (21) 
COc1ccccc1Cc1[nH]c(=Nc2cccc(S(N)(=O)=O)c2)[nH]c1C

>  <score_type>  (21) 
oracle

>  <origin>  (21) 
adg

>  <m_score__min__energy>  (21) 
-13.699999999999999

>  <m_primary>  (21) 
energy

$$$$
21:0
     RDKit          3D

 38 39  0  0  0  0  0  0  0  0999 V2000
   54.8860   26.3230   45.9950 N   0  0  0  0  0  0  0  0  0  0  0  0
   56.5850   26.0130   45.9410 S   0  0  0  0  0  0  0  0  0  0  0  0
   57.0560   25.5960   47.3070 O   0  0  0  0  0  0  0  0  0  0  0  0
   56.8650   24.9010   44.9700 O   0  0  0  0  0  0  0  0  0  0  0  0
   57.4270   27.4690   45.4220 C   0  0  0  0  0  0  0  0  0  0  0  0
   58.7760   27.3940   45.0510 C   0  0  0  0  0  0  0  0  0  0  0  0
   59.4480   28.5370   44.6100 C   0  0  0  0  0  0  0  0  0  0  0  0
   58.7780   29.7620   44.5400 C   0  0  0  0  0  0  0  0  0  0  0  0
   57.4360   29.8560   44.9270 C   0  0  0  0  0  0  0  0  0  0  0  0
   56.7580   31.1120   44.7930 N   0  0  0  0  0  0  0  0  0  0  0  0
   57.3990   32.3420   44.4460 C   0  0  0  0  0  0  0  0  0  0  0  0
   57.8400   32.5250   43.2800 O   0  0  0  0  0  0  0  0  0  0  0  0
   57.6310   33.3670   45.5030 C   0  0  0  0  0  0  0  0  0  0  0  0
   58.8580   34.0720   45.1750 N   0  0  0  0  0  0  0  0  0  0  0  0
   59.5490   34.9570   46.0590 C   0  0  0  0  0  0  0  0  0  0  0  0
   59.7970   36.1410   45.7070 O   0  0  0  0  0  0  0  0  0  0  0  0
   59.9300   34.4940   47.4370 C   0  0  0  0  0  0  0  0  0  0  0  0
   60.2980   33.0270   47.4460 C   0  0  0  0  0  0  0  0  0  0  0  0
   59.3230   32.0760   47.7990 C   0  0  0  0  0  0  0  0  0  0  0  0
   59.6510   30.7200   47.8780 C   0  0  0  0  0  0  0  0  0  0  0  0
   60.9550   30.2980   47.6170 C   0  0  0  0  0  0  0  0  0  0  0  0
   61.9380   31.2310   47.2800 C   0  0  0  0  0  0  0  0  0  0  0  0
   61.6220   32.5930   47.1940 C   0  0  0  0  0  0  0  0  0  0  0  0
   62.9140   33.7210   46.8000 Cl  0  0  0  0  0  0  0  0  0  0  0  0
   56.7570   28.7000   45.3560 C   0  0  0  0  0  0  0  0  0  0  0  0
   54.7380   27.0870   46.6920 H   0  0  0  0  0  0  0  0  0  0  0  0
   59.3076   26.4326   45.1070 H   0  0  0  0  0  0  0  0  0  0  0  0
   60.5064   28.4728   44.3173 H   0  0  0  0  0  0  0  0  0  0  0  0
   59.3077   30.6560   44.1792 H   0  0  0  0  0  0  0  0  0  0  0  0
   56.7888   34.0741   45.5301 H   0  0  0  0  0  0  0  0  0  0  0  0
   57.7141   32.8893   46.4904 H   0  0  0  0  0  0  0  0  0  0  0  0
   60.7923   35.0811   47.7858 H   0  0  0  0  0  0  0  0  0  0  0  0
   59.0649   34.6372   48.1011 H   0  0  0  0  0  0  0  0  0  0  0  0
   58.2949   32.4024   48.0144 H   0  0  0  0  0  0  0  0  0  0  0  0
   58.8793   29.9835   48.1466 H   0  0  0  0  0  0  0  0  0  0  0  0
   61.2091   29.2294   47.6767 H   0  0  0  0  0  0  0  0  0  0  0  0
   62.9662   30.8945   47.0810 H   0  0  0  0  0  0  0  0  0  0  0  0
   55.6963   28.7620   45.6408 H   0  0  0  0  0  0  0  0  0  0  0  0
  1  2  1  0
  2  3  2  0
  2  4  2  0
  2  5  1  0
  5  6  2  0
  6  7  1  0
  7  8  2  0
  8  9  1  0
  9 10  1  0
 10 11  1  0
 11 12  2  0
 11 13  1  0
 13 14  1  0
 14 15  1  0
 15 16  2  0
 15 17  1  0
 17 18  1  0
 18 19  2  0
 19 20  1  0
 20 21  2  0
 21 22  1  0
 22 23  2  0
 23 24  1  0
  9 25  2  0
 25  5  1  0
 23 18  1  0
  1 26  1  0
  6 27  1  0
  7 28  1  0
  8 29  1  0
 13 30  1  0
 13 31  1  0
 17 32  1  0
 17 33  1  0
 19 34  1  0
 20 35  1  0
 21 36  1  0
 22 37  1  0
 25 38  1  0
M  CHG  3   1  -1  10  -1  14  -1
M  END
>  <UniqueID>  (22) 
20

>  <SMILES>  (22) 
[NH-]S(=O)(=O)c1cccc([N-]C(=O)C[N-]C(=O)Cc2ccccc2Cl)c1

>  <Energy>  (22) 
36.94311869570066

>  <Genealogy>  (22) 
[NH-]S(=O)(=O)c1cccc([N-]C(=O)C[N-]C(=O)Cc2ccccc2Cl)c1 (protonated)
[NH-]S(=O)(=O)c1cccc([N-]C(=O)C[N-]C(=O)Cc2ccccc2Cl)c1 (3D coordinates assigned)
[NH-]S(=O)(=O)c1cccc([N-]C(=O)C[N-]C(=O)Cc2ccccc2Cl)c1 (optimized conformer: 36.94311869570066 kcal/mol)

>  <smiles>  (22) 
NS(=O)(=O)c1cccc(NC(=O)CNC(=O)Cc2ccccc2Cl)c1

>  <score_type>  (22) 
oracle

>  <origin>  (22) 
adg

>  <m_score__min__energy>  (22) 
-13.550000000000001

>  <m_primary>  (22) 
energy

$$$$
22:0
     RDKit          3D

 44 46  0  0  0  0  0  0  0  0999 V2000
   55.1550   29.3420   44.8830 N   0  0  0  0  0  0  0  0  0  0  0  0
   56.7270   29.3380   44.1680 S   0  0  0  0  0  0  0  0  0  0  0  0
   57.3990   28.0200   44.4360 O   0  0  0  0  0  0  0  0  0  0  0  0
   56.6040   29.5240   42.6810 O   0  0  0  0  0  0  0  0  0  0  0  0
   57.6840   30.6450   44.8560 C   0  0  0  0  0  0  0  0  0  0  0  0
   58.7140   30.3630   45.7640 C   0  0  0  0  0  0  0  0  0  0  0  0
   59.4670   31.4020   46.3200 C   0  0  0  0  0  0  0  0  0  0  0  0
   59.2010   32.7380   45.9650 C   0  0  0  0  0  0  0  0  0  0  0  0
   59.9230   33.8090   46.5130 O   0  0  0  0  0  0  0  0  0  0  0  0
   60.9780   33.6940   47.4300 C   0  0  0  0  0  0  0  0  0  0  0  0
   62.2930   33.4060   47.0190 C   0  0  0  0  0  0  0  0  0  0  0  0
   63.3210   33.3150   47.9630 C   0  0  0  0  0  0  0  0  0  0  0  0
   63.0510   33.5180   49.3230 C   0  0  0  0  0  0  0  0  0  0  0  0
   64.3600   33.4280   50.4980 S   0  0  0  0  0  0  0  0  0  0  0  0
   65.6760   33.2780   49.7880 O   0  0  0  0  0  0  0  0  0  0  0  0
   64.3860   34.7050   51.2920 O   0  0  0  0  0  0  0  0  0  0  0  0
   64.1020   32.0720   51.5710 N   0  0  0  0  0  0  0  0  0  0  0  0
   62.9820   32.3640   52.4930 C   0  0  0  0  0  0  0  0  0  0  0  0
   62.3770   31.0630   53.0460 C   0  0  0  0  0  0  0  0  0  0  0  0
   61.8590   30.1930   52.0450 O   0  0  0  0  0  0  0  0  0  0  0  0
   62.4220   30.3990   50.7570 C   0  0  0  0  0  0  0  0  0  0  0  0
   63.9030   30.8170   50.8040 C   0  0  0  0  0  0  0  0  0  0  0  0
   61.7460   33.8310   49.7300 C   0  0  0  0  0  0  0  0  0  0  0  0
   60.7180   33.9210   48.7860 C   0  0  0  0  0  0  0  0  0  0  0  0
   58.1530   33.0150   45.0800 C   0  0  0  0  0  0  0  0  0  0  0  0
   57.4010   31.9770   44.5240 C   0  0  0  0  0  0  0  0  0  0  0  0
   55.1620   28.6200   45.6390 H   0  0  0  0  0  0  0  0  0  0  0  0
   58.9308   29.3206   46.0402 H   0  0  0  0  0  0  0  0  0  0  0  0
   60.2696   31.1746   47.0370 H   0  0  0  0  0  0  0  0  0  0  0  0
   62.5128   33.2520   45.9522 H   0  0  0  0  0  0  0  0  0  0  0  0
   64.3455   33.0831   47.6366 H   0  0  0  0  0  0  0  0  0  0  0  0
   64.9760   31.9710   52.1410 H   0  0  0  0  0  0  0  0  0  0  0  0
   63.3534   32.9734   53.3301 H   0  0  0  0  0  0  0  0  0  0  0  0
   62.2024   32.9082   51.9397 H   0  0  0  0  0  0  0  0  0  0  0  0
   63.1608   30.5252   53.5996 H   0  0  0  0  0  0  0  0  0  0  0  0
   61.5296   31.3528   53.6847 H   0  0  0  0  0  0  0  0  0  0  0  0
   62.3407   29.4625   50.1857 H   0  0  0  0  0  0  0  0  0  0  0  0
   61.8646   31.2206   50.2834 H   0  0  0  0  0  0  0  0  0  0  0  0
   64.4839   30.0136   51.2805 H   0  0  0  0  0  0  0  0  0  0  0  0
   64.2396   30.9925   49.7716 H   0  0  0  0  0  0  0  0  0  0  0  0
   61.5304   34.0062   50.7943 H   0  0  0  0  0  0  0  0  0  0  0  0
   59.6978   34.1720   49.1119 H   0  0  0  0  0  0  0  0  0  0  0  0
   57.9195   34.0580   44.8201 H   0  0  0  0  0  0  0  0  0  0  0  0
   56.5843   32.2058   43.8235 H   0  0  0  0  0  0  0  0  0  0  0  0
  1  2  1  0
  2  3  2  0
  2  4  2  0
  2  5  1  0
  5  6  2  0
  6  7  1  0
  7  8  2  0
  8  9  1  0
  9 10  1  0
 10 11  2  0
 11 12  1  0
 12 13  2  0
 13 14  1  0
 14 15  2  0
 14 16  2  0
 14 17  1  0
 17 18  1  0
 18 19  1  0
 19 20  1  0
 20 21  1  0
 21 22  1  0
 13 23  1  0
 23 24  2  0
  8 25  1  0
 25 26  2  0
 26  5  1  0
 24 10  1  0
 22 17  1  0
  1 27  1  0
  6 28  1  0
  7 29  1  0
 11 30  1  0
 12 31  1  0
 17 32  1  0
 18 33  1  0
 18 34  1  0
 19 35  1  0
 19 36  1  0
 21 37  1  0
 21 38  1  0
 22 39  1  0
 22 40  1  0
 23 41  1  0
 24 42  1  0
 25 43  1  0
 26 44  1  0
M  CHG  2   1  -1  17   1
M  END
>  <UniqueID>  (23) 
21

>  <SMILES>  (23) 
[NH-]S(=O)(=O)c1ccc(Oc2ccc(S(=O)(=O)[NH+]3CCOCC3)cc2)cc1

>  <Energy>  (23) 
63.73055247946754

>  <Genealogy>  (23) 
[NH-]S(=O)(=O)c1ccc(Oc2ccc(S(=O)(=O)[NH+]3CCOCC3)cc2)cc1 (protonated)
[NH-]S(=O)(=O)c1ccc(Oc2ccc(S(=O)(=O)[NH+]3CCOCC3)cc2)cc1 (3D coordinates assigned)
[NH-]S(=O)(=O)c1ccc(Oc2ccc(S(=O)(=O)[NH+]3CCOCC3)cc2)cc1 (nonaromatic ring conformer: 63.73055247946754 kcal/mol)

>  <smiles>  (23) 
NS(=O)(=O)c1ccc(Oc2ccc(S(=O)(=O)N3CCOCC3)cc2)cc1

>  <score_type>  (23) 
oracle

>  <origin>  (23) 
adg

>  <m_score__min__energy>  (23) 
-9.6899999999999995

>  <m_primary>  (23) 
energy

$$$$
23:0
     RDKit          3D

 53 56  0  0  0  0  0  0  0  0999 V2000
   65.9060   29.7440   53.2800 O   0  0  0  0  0  0  0  0  0  0  0  0
   65.8960   29.5700   52.0310 C   0  0  0  0  0  0  0  0  0  0  0  0
   66.6260   28.4090   51.4670 C   0  0  0  0  0  0  0  0  0  0  0  0
   67.8360   28.5850   50.7670 C   0  0  0  0  0  0  0  0  0  0  0  0
   68.5090   27.4820   50.2330 C   0  0  0  0  0  0  0  0  0  0  0  0
   67.9800   26.1970   50.3810 C   0  0  0  0  0  0  0  0  0  0  0  0
   66.7720   26.0150   51.0580 C   0  0  0  0  0  0  0  0  0  0  0  0
   66.0940   27.1150   51.5940 C   0  0  0  0  0  0  0  0  0  0  0  0
   65.1630   30.5400   51.1780 C   0  0  0  0  0  0  0  0  0  0  0  0
   65.8540   31.6030   50.5720 C   0  0  0  0  0  0  0  0  0  0  0  0
   65.1810   32.5040   49.7410 C   0  0  0  0  0  0  0  0  0  0  0  0
   63.8050   32.3590   49.5010 C   0  0  0  0  0  0  0  0  0  0  0  0
   63.1170   33.2710   48.6250 N   0  0  0  0  0  0  0  0  0  0  0  0
   63.0790   32.9930   47.1810 C   0  0  0  0  0  0  0  0  0  0  0  0
   62.0240   33.8480   46.4620 C   0  0  0  0  0  0  0  0  0  0  0  0
   60.8120   33.9710   47.2850 N   0  0  0  0  0  0  0  0  0  0  0  0
   59.5250   33.9660   46.6550 C   0  0  0  0  0  0  0  0  0  0  0  0
   58.8940   35.0530   46.5470 O   0  0  0  0  0  0  0  0  0  0  0  0
   58.9290   32.7040   46.1520 C   0  0  0  0  0  0  0  0  0  0  0  0
   59.2750   31.4690   46.7290 C   0  0  0  0  0  0  0  0  0  0  0  0
   58.6960   30.2840   46.2670 C   0  0  0  0  0  0  0  0  0  0  0  0
   57.7740   30.3050   45.2070 C   0  0  0  0  0  0  0  0  0  0  0  0
   57.1140   29.0310   44.7430 C   0  0  0  0  0  0  0  0  0  0  0  0
   55.7370   29.1110   44.8830 F   0  0  0  0  0  0  0  0  0  0  0  0
   57.5610   27.9500   45.4850 F   0  0  0  0  0  0  0  0  0  0  0  0
   57.4190   28.8220   43.4100 F   0  0  0  0  0  0  0  0  0  0  0  0
   57.4070   31.5410   44.6490 C   0  0  0  0  0  0  0  0  0  0  0  0
   57.9840   32.7280   45.1120 C   0  0  0  0  0  0  0  0  0  0  0  0
   60.8980   34.3000   48.7130 C   0  0  0  0  0  0  0  0  0  0  0  0
   62.3540   34.3990   49.1710 C   0  0  0  0  0  0  0  0  0  0  0  0
   63.1170   31.2890   50.0930 C   0  0  0  0  0  0  0  0  0  0  0  0
   63.7890   30.3840   50.9180 C   0  0  0  0  0  0  0  0  0  0  0  0
   68.2531   29.5949   50.6400 H   0  0  0  0  0  0  0  0  0  0  0  0
   69.4575   27.6260   49.6949 H   0  0  0  0  0  0  0  0  0  0  0  0
   68.5142   25.3301   49.9649 H   0  0  0  0  0  0  0  0  0  0  0  0
   66.3527   25.0042   51.1700 H   0  0  0  0  0  0  0  0  0  0  0  0
   65.1385   26.9658   52.1181 H   0  0  0  0  0  0  0  0  0  0  0  0
   66.9319   31.7272   50.7526 H   0  0  0  0  0  0  0  0  0  0  0  0
   65.7331   33.3319   49.2722 H   0  0  0  0  0  0  0  0  0  0  0  0
   64.0675   33.2110   46.7505 H   0  0  0  0  0  0  0  0  0  0  0  0
   62.8122   31.9347   47.0438 H   0  0  0  0  0  0  0  0  0  0  0  0
   62.4371   34.8500   46.2741 H   0  0  0  0  0  0  0  0  0  0  0  0
   61.7602   33.3618   45.5112 H   0  0  0  0  0  0  0  0  0  0  0  0
   60.0066   31.4356   47.5498 H   0  0  0  0  0  0  0  0  0  0  0  0
   58.9644   29.3265   46.7373 H   0  0  0  0  0  0  0  0  0  0  0  0
   56.6603   31.5755   43.8420 H   0  0  0  0  0  0  0  0  0  0  0  0
   57.6959   33.6879   44.6586 H   0  0  0  0  0  0  0  0  0  0  0  0
   60.3999   35.2647   48.8896 H   0  0  0  0  0  0  0  0  0  0  0  0
   60.4065   33.4993   49.2852 H   0  0  0  0  0  0  0  0  0  0  0  0
   62.7880   35.3435   48.8111 H   0  0  0  0  0  0  0  0  0  0  0  0
   62.3951   34.3714   50.2699 H   0  0  0  0  0  0  0  0  0  0  0  0
   62.0405   31.1619   49.9061 H   0  0  0  0  0  0  0  0  0  0  0  0
   63.2401   29.5434   51.3676 H   0  0  0  0  0  0  0  0  0  0  0  0
  1  2  2  0
  2  3  1  0
  3  4  2  0
  4  5  1  0
  5  6  2  0
  6  7  1  0
  7  8  2  0
  2  9  1  0
  9 10  2  0
 10 11  1  0
 11 12  2  0
 12 13  1  0
 13 14  1  0
 14 15  1  0
 15 16  1  0
 16 17  1  0
 17 18  2  0
 17 19  1  0
 19 20  2  0
 20 21  1  0
 21 22  2  0
 22 23  1  0
 23 24  1  0
 23 25  1  0
 23 26  1  0
 22 27  1  0
 27 28  2  0
 16 29  1  0
 29 30  1  0
 12 31  1  0
 31 32  2  0
  8  3  1  0
 32  9  1  0
 30 13  1  0
 28 19  1  0
  4 33  1  0
  5 34  1  0
  6 35  1  0
  7 36  1  0
  8 37  1  0
 10 38  1  0
 11 39  1  0
 14 40  1  0
 14 41  1  0
 15 42  1  0
 15 43  1  0
 20 44  1  0
 21 45  1  0
 27 46  1  0
 28 47  1  0
 29 48  1  0
 29 49  1  0
 30 50  1  0
 30 51  1  0
 31 52  1  0
 32 53  1  0
M  END
>  <UniqueID>  (24) 
22

>  <SMILES>  (24) 
O=C(c1ccccc1)c1ccc(N2CCN(C(=O)c3ccc(C(F)(F)F)cc3)CC2)cc1

>  <Energy>  (24) 
73.78060173022547

>  <Genealogy>  (24) 
O=C(c1ccccc1)c1ccc(N2CCN(C(=O)c3ccc(C(F)(F)F)cc3)CC2)cc1 (3D coordinates assigned)
O=C(c1ccccc1)c1ccc(N2CCN(C(=O)c3ccc(C(F)(F)F)cc3)CC2)cc1 (nonaromatic ring conformer: 73.78060173022547 kcal/mol)

>  <smiles>  (24) 
O=C(c1ccccc1)c1ccc(N2CCN(C(=O)c3ccc(C(F)(F)F)cc3)CC2)cc1

>  <score_type>  (24) 
oracle

>  <origin>  (24) 
adg

>  <m_score__min__energy>  (24) 
-8.75

>  <m_primary>  (24) 
energy

$$$$
24:0
     RDKit          3D

 33 35  0  0  0  0  0  0  0  0999 V2000
   59.2710   35.3300   45.2450 C   0  0  0  0  0  0  0  0  0  0  0  0
   58.9830   34.0320   45.8680 N   0  0  0  0  0  0  0  0  0  0  0  0
   59.3340   33.8570   47.2850 C   0  0  0  0  0  0  0  0  0  0  0  0
   58.5150   32.7360   47.9190 C   0  0  0  0  0  0  0  0  0  0  0  0
   58.7080   31.4410   47.1360 C   0  0  0  0  0  0  0  0  0  0  0  0
   58.3780   31.6260   45.6710 C   0  0  0  0  0  0  0  0  0  0  0  0
   57.9480   30.5270   44.8860 C   0  0  0  0  0  0  0  0  0  0  0  0
   57.8440   29.2050   45.4330 N   0  0  0  0  0  0  0  0  0  0  0  0
   56.6560   28.4100   45.2880 C   0  0  0  0  0  0  0  0  0  0  0  0
   55.5880   28.9470   44.8860 O   0  0  0  0  0  0  0  0  0  0  0  0
   56.6540   26.9740   45.6240 C   0  0  0  0  0  0  0  0  0  0  0  0
   57.8120   26.1470   45.5450 C   0  0  0  0  0  0  0  0  0  0  0  0
   57.6470   24.8400   45.8740 N   0  0  0  0  0  0  0  0  0  0  0  0
   56.0390   24.8110   46.2390 S   0  0  0  0  0  0  0  0  0  0  0  0
   55.5060   26.3550   46.0120 N   0  0  0  0  0  0  0  0  0  0  0  0
   57.5790   30.7310   43.5520 C   0  0  0  0  0  0  0  0  0  0  0  0
   57.6840   31.9920   42.9740 C   0  0  0  0  0  0  0  0  0  0  0  0
   58.1550   33.0700   43.7220 C   0  0  0  0  0  0  0  0  0  0  0  0
   58.5150   32.9070   45.0760 C   0  0  0  0  0  0  0  0  0  0  0  0
   59.4382   36.0837   46.0285 H   0  0  0  0  0  0  0  0  0  0  0  0
   60.1721   35.2448   44.6199 H   0  0  0  0  0  0  0  0  0  0  0  0
   58.4184   35.6339   44.6199 H   0  0  0  0  0  0  0  0  0  0  0  0
   60.4029   33.6091   47.3625 H   0  0  0  0  0  0  0  0  0  0  0  0
   59.1151   34.7942   47.8177 H   0  0  0  0  0  0  0  0  0  0  0  0
   58.8452   32.5863   48.9575 H   0  0  0  0  0  0  0  0  0  0  0  0
   57.4505   33.0128   47.9019 H   0  0  0  0  0  0  0  0  0  0  0  0
   59.7559   31.1197   47.2288 H   0  0  0  0  0  0  0  0  0  0  0  0
   58.0282   30.6819   47.5503 H   0  0  0  0  0  0  0  0  0  0  0  0
   58.5560   28.9150   46.1400 H   0  0  0  0  0  0  0  0  0  0  0  0
   58.7884   26.5466   45.2338 H   0  0  0  0  0  0  0  0  0  0  0  0
   57.2027   29.8871   42.9551 H   0  0  0  0  0  0  0  0  0  0  0  0
   57.3944   32.1390   41.9230 H   0  0  0  0  0  0  0  0  0  0  0  0
   58.2470   34.0596   43.2506 H   0  0  0  0  0  0  0  0  0  0  0  0
  1  2  1  0
  2  3  1  0
  3  4  1  0
  4  5  1  0
  5  6  1  0
  6  7  2  0
  7  8  1  0
  8  9  1  0
  9 10  2  0
  9 11  1  0
 11 12  1  0
 12 13  2  0
 13 14  1  0
 14 15  1  0
  7 16  1  0
 16 17  2  0
 17 18  1  0
 18 19  2  0
 19  2  1  0
 19  6  1  0
 15 11  2  0
  1 20  1  0
  1 21  1  0
  1 22  1  0
  3 23  1  0
  3 24  1  0
  4 25  1  0
  4 26  1  0
  5 27  1  0
  5 28  1  0
  8 29  1  0
 12 30  1  0
 16 31  1  0
 17 32  1  0
 18 33  1  0
M  END
>  <UniqueID>  (25) 
23

>  <SMILES>  (25) 
CN1CCCc2c(NC(=O)c3cnsn3)cccc21

>  <Energy>  (25) 
76.65937333371673

>  <Genealogy>  (25) 
CN1CCCc2c(NC(=O)c3cnsn3)cccc21 (3D coordinates assigned)
CN1CCCc2c(NC(=O)c3cnsn3)cccc21 (nonaromatic ring conformer: 76.65937333371673 kcal/mol)

>  <smiles>  (25) 
CN1CCCc2c(NC(=O)c3cnsn3)cccc21

>  <score_type>  (25) 
oracle

>  <origin>  (25) 
adg

>  <m_score__min__energy>  (25) 
-7.21

>  <m_primary>  (25) 
energy

$$$$
25:0
     RDKit          3D

 38 39  0  0  0  0  0  0  0  0999 V2000
   59.1860   29.6380   49.0870 C   0  0  0  0  0  0  0  0  0  0  0  0
   59.2860   30.6880   50.0410 O   0  0  0  0  0  0  0  0  0  0  0  0
   58.5610   31.8800   49.9310 C   0  0  0  0  0  0  0  0  0  0  0  0
   57.6810   32.1650   50.7900 O   0  0  0  0  0  0  0  0  0  0  0  0
   58.8340   32.8050   48.8090 C   0  0  0  0  0  0  0  0  0  0  0  0
   59.8280   33.7870   48.9250 C   0  0  0  0  0  0  0  0  0  0  0  0
   60.0900   34.6600   47.8690 C   0  0  0  0  0  0  0  0  0  0  0  0
   59.3530   34.5850   46.6770 C   0  0  0  0  0  0  0  0  0  0  0  0
   59.6560   35.5450   45.5580 C   0  0  0  0  0  0  0  0  0  0  0  0
   58.3370   33.6100   46.5510 C   0  0  0  0  0  0  0  0  0  0  0  0
   57.5560   33.4840   45.2970 C   0  0  0  0  0  0  0  0  0  0  0  0
   57.6410   32.4680   44.4830 N   0  0  0  0  0  0  0  0  0  0  0  0
   57.4170   31.0850   44.7970 C   0  0  0  0  0  0  0  0  0  0  0  0
   56.3070   30.3860   44.2890 C   0  0  0  0  0  0  0  0  0  0  0  0
   56.1190   29.0370   44.6030 C   0  0  0  0  0  0  0  0  0  0  0  0
   57.0510   28.3640   45.4050 C   0  0  0  0  0  0  0  0  0  0  0  0
   56.7970   26.6730   45.8220 S   0  0  0  0  0  0  0  0  0  0  0  0
   55.1050   26.3680   45.9860 N   0  0  0  0  0  0  0  0  0  0  0  0
   57.4900   26.3550   47.1180 O   0  0  0  0  0  0  0  0  0  0  0  0
   57.3660   25.7930   44.7450 O   0  0  0  0  0  0  0  0  0  0  0  0
   58.1740   29.0510   45.8860 C   0  0  0  0  0  0  0  0  0  0  0  0
   58.3610   30.4010   45.5710 C   0  0  0  0  0  0  0  0  0  0  0  0
   58.1040   32.7140   47.6110 C   0  0  0  0  0  0  0  0  0  0  0  0
   59.0943   28.6747   49.6102 H   0  0  0  0  0  0  0  0  0  0  0  0
   58.2991   29.7987   48.4565 H   0  0  0  0  0  0  0  0  0  0  0  0
   60.0873   29.6284   48.4565 H   0  0  0  0  0  0  0  0  0  0  0  0
   60.4064   33.8698   49.8570 H   0  0  0  0  0  0  0  0  0  0  0  0
   60.8829   35.4155   47.9717 H   0  0  0  0  0  0  0  0  0  0  0  0
   59.9619   36.5141   45.9790 H   0  0  0  0  0  0  0  0  0  0  0  0
   60.4703   35.1409   44.9386 H   0  0  0  0  0  0  0  0  0  0  0  0
   58.7573   35.6816   44.9386 H   0  0  0  0  0  0  0  0  0  0  0  0
   56.8623   34.2971   45.0370 H   0  0  0  0  0  0  0  0  0  0  0  0
   55.5836   30.9034   43.6417 H   0  0  0  0  0  0  0  0  0  0  0  0
   55.2375   28.5022   44.2198 H   0  0  0  0  0  0  0  0  0  0  0  0
   54.7300   27.0810   46.6510 H   0  0  0  0  0  0  0  0  0  0  0  0
   58.9104   28.5271   46.5130 H   0  0  0  0  0  0  0  0  0  0  0  0
   59.2556   30.9282   45.9340 H   0  0  0  0  0  0  0  0  0  0  0  0
   57.3394   31.9309   47.5005 H   0  0  0  0  0  0  0  0  0  0  0  0
  1  2  1  0
  2  3  1  0
  3  4  2  0
  3  5  1  0
  5  6  2  0
  6  7  1  0
  7  8  2  0
  8  9  1  0
  8 10  1  0
 10 11  1  0
 11 12  2  3
 12 13  1  0
 13 14  2  0
 14 15  1  0
 15 16  2  0
 16 17  1  0
 17 18  1  0
 17 19  2  0
 17 20  2  0
 16 21  1  0
 21 22  2  0
 10 23  2  0
 23  5  1  0
 22 13  1  0
  1 24  1  0
  1 25  1  0
  1 26  1  0
  6 27  1  0
  7 28  1  0
  9 29  1  0
  9 30  1  0
  9 31  1  0
 11 32  1  0
 14 33  1  0
 15 34  1  0
 18 35  1  0
 21 36  1  0
 22 37  1  0
 23 38  1  0
M  CHG  1  18  -1
M  END
>  <UniqueID>  (26) 
24

>  <SMILES>  (26) 
COC(=O)c1ccc(C)c(C=Nc2ccc(S([NH-])(=O)=O)cc2)c1

>  <Energy>  (26) 
47.80559908122026

>  <Genealogy>  (26) 
COC(=O)c1ccc(C)c(C=Nc2ccc(S([NH-])(=O)=O)cc2)c1 (protonated)
COC(=O)c1ccc(C)c(C=Nc2ccc(S([NH-])(=O)=O)cc2)c1 (3D coordinates assigned)
COC(=O)c1ccc(C)c(C=Nc2ccc(S([NH-])(=O)=O)cc2)c1 (optimized conformer: 47.80559908122026 kcal/mol)

>  <smiles>  (26) 
COC(=O)c1ccc(C)c(C=Nc2ccc(S(N)(=O)=O)cc2)c1

>  <score_type>  (26) 
oracle

>  <origin>  (26) 
adg

>  <m_score__min__energy>  (26) 
-11.01

>  <m_primary>  (26) 
energy

$$$$
26:0
     RDKit          3D

 40 42  0  0  0  0  0  0  0  0999 V2000
   56.3019   34.2252   46.5653 H   0  0  0  0  0  0  0  0  0  0  0  0
   57.2790   33.8370   46.2420 C   0  0  0  0  0  0  0  0  0  0  0  0
   58.3660   34.6050   46.3960 C   0  0  0  0  0  0  0  0  0  0  0  0
   58.2878   35.6715   46.1383 H   0  0  0  0  0  0  0  0  0  0  0  0
   59.6690   34.1000   46.8940 C   0  0  0  0  0  0  0  0  0  0  0  0
   59.7410   33.6040   48.2080 C   0  0  0  0  0  0  0  0  0  0  0  0
   58.8382   33.5929   48.8364 H   0  0  0  0  0  0  0  0  0  0  0  0
   60.9490   33.1250   48.7230 C   0  0  0  0  0  0  0  0  0  0  0  0
   60.9904   32.7307   49.7491 H   0  0  0  0  0  0  0  0  0  0  0  0
   62.1040   33.1460   47.9370 C   0  0  0  0  0  0  0  0  0  0  0  0
   63.7540   32.4950   48.6450 Br  0  0  0  0  0  0  0  0  0  0  0  0
   62.0510   33.6530   46.6350 C   0  0  0  0  0  0  0  0  0  0  0  0
   62.9614   33.6757   46.0180 H   0  0  0  0  0  0  0  0  0  0  0  0
   60.8450   34.1310   46.1150 C   0  0  0  0  0  0  0  0  0  0  0  0
   60.8124   34.5339   45.0920 H   0  0  0  0  0  0  0  0  0  0  0  0
   57.3520   32.4910   45.6540 C   0  0  0  0  0  0  0  0  0  0  0  0
   56.7790   32.1400   44.4790 N   0  0  0  0  0  0  0  0  0  0  0  0
   57.1080   30.8420   44.3490 C   0  0  0  0  0  0  0  0  0  0  0  0
   56.6560   30.0140   43.2640 C   0  0  0  0  0  0  0  0  0  0  0  0
   56.2930   29.3460   42.3910 N   0  0  0  0  0  0  0  0  0  0  0  0
   57.8580   30.4560   45.4430 C   0  0  0  0  0  0  0  0  0  0  0  0
   58.4020   29.1520   45.7250 N   0  0  0  0  0  0  0  0  0  0  0  0
   59.3960   28.6020   44.8470 C   0  0  0  0  0  0  0  0  0  0  0  0
   59.0480   27.9190   43.8450 O   0  0  0  0  0  0  0  0  0  0  0  0
   60.8470   28.8390   45.1170 C   0  0  0  0  0  0  0  0  0  0  0  0
   61.2764   29.3993   44.2733 H   0  0  0  0  0  0  0  0  0  0  0  0
   61.3302   27.8582   45.2373 H   0  0  0  0  0  0  0  0  0  0  0  0
   61.0800   29.6380   46.4100 C   0  0  0  0  0  0  0  0  0  0  0  0
   60.5009   30.5708   46.3431 H   0  0  0  0  0  0  0  0  0  0  0  0
   62.1658   29.8002   46.4782 H   0  0  0  0  0  0  0  0  0  0  0  0
   60.6720   28.9150   47.7080 C   0  0  0  0  0  0  0  0  0  0  0  0
   61.3167   29.2773   48.5224 H   0  0  0  0  0  0  0  0  0  0  0  0
   60.7888   27.8374   47.5207 H   0  0  0  0  0  0  0  0  0  0  0  0
   59.2030   29.1380   48.1180 C   0  0  0  0  0  0  0  0  0  0  0  0
   59.0313   30.2175   48.2410 H   0  0  0  0  0  0  0  0  0  0  0  0
   59.0320   28.5910   49.0569 H   0  0  0  0  0  0  0  0  0  0  0  0
   58.2090   28.5960   47.0740 C   0  0  0  0  0  0  0  0  0  0  0  0
   57.1893   28.8397   47.4069 H   0  0  0  0  0  0  0  0  0  0  0  0
   58.3805   27.5119   47.0011 H   0  0  0  0  0  0  0  0  0  0  0  0
   57.9890   31.4930   46.2310 O   0  0  0  0  0  0  0  0  0  0  0  0
  1  2  1  0
  2  3  2  0
  3  4  1  0
  3  5  1  0
  5  6  2  0
  6  7  1  0
  6  8  1  0
  8  9  1  0
  8 10  2  0
 10 11  1  0
 10 12  1  0
 12 13  1  0
 12 14  2  0
 14 15  1  0
  2 16  1  0
 16 17  2  0
 17 18  1  0
 18 19  1  0
 19 20  3  0
 18 21  2  0
 21 22  1  0
 22 23  1  0
 23 24  2  0
 23 25  1  0
 25 26  1  0
 25 27  1  0
 25 28  1  0
 28 29  1  0
 28 30  1  0
 28 31  1  0
 31 32  1  0
 31 33  1  0
 31 34  1  0
 34 35  1  0
 34 36  1  0
 34 37  1  0
 37 38  1  0
 37 39  1  0
 21 40  1  0
 14  5  1  0
 40 16  1  0
 37 22  1  0
M  END
>  <UniqueID>  (27) 
25

>  <SMILES>  (27) 
N#Cc1nc(/C=C/c2ccc(Br)cc2)oc1N1CCCCCC1=O

>  <Energy>  (27) 
81.63041758913099

>  <Genealogy>  (27) 
N#Cc1nc(/C=C/c2ccc(Br)cc2)oc1N1CCCCCC1=O (cis-trans isomerization)
N#Cc1nc(/C=C/c2ccc(Br)cc2)oc1N1CCCCCC1=O (3D coordinates assigned)
N#Cc1nc(/C=C/c2ccc(Br)cc2)oc1N1CCCCCC1=O (nonaromatic ring conformer: 81.63041758913099 kcal/mol)

>  <smiles>  (27) 
N#Cc1nc(C=Cc2ccc(Br)cc2)oc1N1CCCCCC1=O

>  <score_type>  (27) 
oracle

>  <origin>  (27) 
adg

>  <m_score__min__energy>  (27) 
-6.6799999999999997

>  <m_primary>  (27) 
energy

$$$$
27:0
     RDKit          3D

 41 43  0  0  0  0  0  0  0  0999 V2000
   58.8720   29.3480   52.0130 C   0  0  0  0  0  0  0  0  0  0  0  0
   58.0640   29.6720   50.8880 O   0  0  0  0  0  0  0  0  0  0  0  0
   58.5210   30.2420   49.6850 C   0  0  0  0  0  0  0  0  0  0  0  0
   58.7070   31.6360   49.6470 C   0  0  0  0  0  0  0  0  0  0  0  0
   58.3820   32.6400   51.1020 S   0  0  0  0  0  0  0  0  0  0  0  0
   59.7930   33.7470   50.7980 C   0  0  0  0  0  0  0  0  0  0  0  0
   59.1340   32.2620   48.4720 C   0  0  0  0  0  0  0  0  0  0  0  0
   59.4080   31.5050   47.3340 C   0  0  0  0  0  0  0  0  0  0  0  0
   59.2960   30.1130   47.3700 C   0  0  0  0  0  0  0  0  0  0  0  0
   59.5060   29.3640   46.1680 N   0  0  0  0  0  0  0  0  0  0  0  0
   58.8910   28.3000   45.7240 C   0  0  0  0  0  0  0  0  0  0  0  0
   59.3400   27.1040   46.1830 N   0  0  0  0  0  0  0  0  0  0  0  0
   58.8910   25.9200   45.7050 C   0  0  0  0  0  0  0  0  0  0  0  0
   57.9350   25.9070   44.6780 C   0  0  0  0  0  0  0  0  0  0  0  0
   57.4010   24.6320   44.0450 C   0  0  0  0  0  0  0  0  0  0  0  0
   57.7670   23.3100   44.7070 C   0  0  0  0  0  0  0  0  0  0  0  0
   56.3480   23.8530   44.8210 C   0  0  0  0  0  0  0  0  0  0  0  0
   57.4270   27.0980   44.2550 N   0  0  0  0  0  0  0  0  0  0  0  0
   57.8240   28.2970   44.7770 C   0  0  0  0  0  0  0  0  0  0  0  0
   56.7670   29.6910   44.4500 S   0  0  0  0  0  0  0  0  0  0  0  0
   55.1270   29.3400   44.8640 N   0  0  0  0  0  0  0  0  0  0  0  0
   56.8600   30.1110   43.0120 O   0  0  0  0  0  0  0  0  0  0  0  0
   57.2260   30.8510   45.2890 O   0  0  0  0  0  0  0  0  0  0  0  0
   58.8000   29.4820   48.5240 C   0  0  0  0  0  0  0  0  0  0  0  0
   58.5910   28.1420   48.4920 F   0  0  0  0  0  0  0  0  0  0  0  0
   58.3190   29.5697   52.9377 H   0  0  0  0  0  0  0  0  0  0  0  0
   59.1266   28.2782   51.9856 H   0  0  0  0  0  0  0  0  0  0  0  0
   59.7952   29.9455   51.9856 H   0  0  0  0  0  0  0  0  0  0  0  0
   60.2138   34.0771   51.7592 H   0  0  0  0  0  0  0  0  0  0  0  0
   60.5636   33.2100   50.2255 H   0  0  0  0  0  0  0  0  0  0  0  0
   59.4549   34.6233   50.2255 H   0  0  0  0  0  0  0  0  0  0  0  0
   59.2541   33.3551   48.4455 H   0  0  0  0  0  0  0  0  0  0  0  0
   59.7137   32.0059   46.4036 H   0  0  0  0  0  0  0  0  0  0  0  0
   59.2727   24.9749   46.1186 H   0  0  0  0  0  0  0  0  0  0  0  0
   57.4760   25.0375   43.0252 H   0  0  0  0  0  0  0  0  0  0  0  0
   57.9684   22.4225   44.0891 H   0  0  0  0  0  0  0  0  0  0  0  0
   58.5357   22.9853   45.4237 H   0  0  0  0  0  0  0  0  0  0  0  0
   55.5248   23.3574   44.2855 H   0  0  0  0  0  0  0  0  0  0  0  0
   55.6677   24.0826   45.6543 H   0  0  0  0  0  0  0  0  0  0  0  0
   56.6710   27.0880   43.5350 H   0  0  0  0  0  0  0  0  0  0  0  0
   55.1500   28.6300   45.6290 H   0  0  0  0  0  0  0  0  0  0  0  0
  1  2  1  0
  2  3  1  0
  3  4  2  0
  4  5  1  0
  5  6  1  0
  4  7  1  0
  7  8  2  0
  8  9  1  0
  9 10  1  0
 10 11  2  3
 11 12  1  0
 12 13  1  0
 13 14  2  0
 14 15  1  0
 15 16  1  0
 16 17  1  0
 14 18  1  0
 18 19  2  0
 19 20  1  0
 20 21  1  0
 20 22  2  0
 20 23  2  0
  9 24  2  0
 24 25  1  0
 24  3  1  0
 19 11  1  0
 17 15  1  0
  1 26  1  0
  1 27  1  0
  1 28  1  0
  6 29  1  0
  6 30  1  0
  6 31  1  0
  7 32  1  0
  8 33  1  0
 13 34  1  0
 15 35  1  0
 16 36  1  0
 16 37  1  0
 17 38  1  0
 17 39  1  0
 18 40  1  0
 21 41  1  0
M  CHG  3  12  -1  18   1  21  -1
M  END
>  <UniqueID>  (28) 
26

>  <SMILES>  (28) 
COc1c(SC)ccc(N=c2[n-]cc(C3CC3)[nH+]c2S([NH-])(=O)=O)c1F

>  <Energy>  (28) 
329.98202069555504

>  <Genealogy>  (28) 
COc1c(SC)ccc(N=c2[n-]cc(C3CC3)[nH+]c2S([NH-])(=O)=O)c1F (protonated)
COc1c(SC)ccc(N=c2[n-]cc(C3CC3)[nH+]c2S([NH-])(=O)=O)c1F (3D coordinates assigned)
COc1c(SC)ccc(N=c2[n-]cc(C3CC3)[nH+]c2S([NH-])(=O)=O)c1F (nonaromatic ring conformer: 329.98202069555504 kcal/mol)

>  <smiles>  (28) 
COc1c(SC)ccc(N=c2[nH]cc(C3CC3)nc2S(N)(=O)=O)c1F

>  <score_type>  (28) 
oracle

>  <origin>  (28) 
adg

>  <m_score__min__energy>  (28) 
-10.17

>  <m_primary>  (28) 
energy

$$$$
28:0
     RDKit          3D

 45 47  0  0  0  0  0  0  0  0999 V2000
   56.0190   24.0630   44.5750 C   0  0  0  0  0  0  0  0  0  0  0  0
   55.7960   25.4280   45.6970 S   0  0  0  0  0  0  0  0  0  0  0  0
   56.0760   24.9480   47.0930 O   0  0  0  0  0  0  0  0  0  0  0  0
   54.3830   25.9350   45.6340 O   0  0  0  0  0  0  0  0  0  0  0  0
   56.9060   26.7070   45.3130 N   0  0  0  0  0  0  0  0  0  0  0  0
   58.1190   26.9820   46.0380 C   0  0  0  0  0  0  0  0  0  0  0  0
   59.1880   26.0670   46.0830 C   0  0  0  0  0  0  0  0  0  0  0  0
   60.3450   26.3680   46.8060 C   0  0  0  0  0  0  0  0  0  0  0  0
   60.4580   27.5860   47.4800 C   0  0  0  0  0  0  0  0  0  0  0  0
   59.4130   28.5250   47.4190 C   0  0  0  0  0  0  0  0  0  0  0  0
   59.4780   29.7790   48.1130 N   0  0  0  0  0  0  0  0  0  0  0  0
   60.4340   30.8270   47.8960 C   0  0  0  0  0  0  0  0  0  0  0  0
   61.6670   30.5640   47.8970 O   0  0  0  0  0  0  0  0  0  0  0  0
   59.9640   32.2000   47.5880 C   0  0  0  0  0  0  0  0  0  0  0  0
   60.7260   33.2980   48.0290 C   0  0  0  0  0  0  0  0  0  0  0  0
   60.2950   34.6060   47.7980 C   0  0  0  0  0  0  0  0  0  0  0  0
   59.1010   34.8390   47.1170 C   0  0  0  0  0  0  0  0  0  0  0  0
   58.3380   33.7640   46.6590 C   0  0  0  0  0  0  0  0  0  0  0  0
   58.7520   32.4400   46.8900 C   0  0  0  0  0  0  0  0  0  0  0  0
   57.9940   31.3560   46.3280 N   0  0  0  0  0  0  0  0  0  0  0  0
   57.6290   31.2690   44.9380 C   0  0  0  0  0  0  0  0  0  0  0  0
   56.8140   30.2250   44.4580 C   0  0  0  0  0  0  0  0  0  0  0  0
   56.4910   30.1520   43.0990 C   0  0  0  0  0  0  0  0  0  0  0  0
   56.9850   31.1080   42.2090 C   0  0  0  0  0  0  0  0  0  0  0  0
   57.8080   32.1370   42.6740 C   0  0  0  0  0  0  0  0  0  0  0  0
   58.1330   32.2140   44.0320 C   0  0  0  0  0  0  0  0  0  0  0  0
   58.2460   28.2060   46.7150 C   0  0  0  0  0  0  0  0  0  0  0  0
   56.1703   23.1372   45.1494 H   0  0  0  0  0  0  0  0  0  0  0  0
   55.1258   23.9596   43.9413 H   0  0  0  0  0  0  0  0  0  0  0  0
   56.8986   24.2492   43.9413 H   0  0  0  0  0  0  0  0  0  0  0  0
   56.6290   27.3480   44.5370 H   0  0  0  0  0  0  0  0  0  0  0  0
   59.1119   25.1100   45.5461 H   0  0  0  0  0  0  0  0  0  0  0  0
   61.1708   25.6423   46.8446 H   0  0  0  0  0  0  0  0  0  0  0  0
   61.3656   27.8111   48.0593 H   0  0  0  0  0  0  0  0  0  0  0  0
   61.6723   33.1238   48.5620 H   0  0  0  0  0  0  0  0  0  0  0  0
   60.8986   35.4539   48.1539 H   0  0  0  0  0  0  0  0  0  0  0  0
   58.7604   35.8700   46.9407 H   0  0  0  0  0  0  0  0  0  0  0  0
   57.4030   33.9543   46.1116 H   0  0  0  0  0  0  0  0  0  0  0  0
   57.7350   30.5640   46.9590 H   0  0  0  0  0  0  0  0  0  0  0  0
   56.4304   29.4647   45.1542 H   0  0  0  0  0  0  0  0  0  0  0  0
   55.8467   29.3401   42.7307 H   0  0  0  0  0  0  0  0  0  0  0  0
   56.7261   31.0510   41.1414 H   0  0  0  0  0  0  0  0  0  0  0  0
   58.2005   32.8870   41.9715 H   0  0  0  0  0  0  0  0  0  0  0  0
   58.7882   33.0209   44.3921 H   0  0  0  0  0  0  0  0  0  0  0  0
   57.4146   28.9259   46.6916 H   0  0  0  0  0  0  0  0  0  0  0  0
  1  2  1  0
  2  3  2  0
  2  4  2  0
  2  5  1  0
  5  6  1  0
  6  7  2  0
  7  8  1  0
  8  9  2  0
  9 10  1  0
 10 11  1  0
 11 12  1  0
 12 13  2  0
 12 14  1  0
 14 15  2  0
 15 16  1  0
 16 17  2  0
 17 18  1  0
 18 19  2  0
 19 20  1  0
 20 21  1  0
 21 22  2  0
 22 23  1  0
 23 24  2  0
 24 25  1  0
 25 26  2  0
 10 27  2  0
 27  6  1  0
 19 14  1  0
 26 21  1  0
  1 28  1  0
  1 29  1  0
  1 30  1  0
  5 31  1  0
  7 32  1  0
  8 33  1  0
  9 34  1  0
 15 35  1  0
 16 36  1  0
 17 37  1  0
 18 38  1  0
 20 39  1  0
 22 40  1  0
 23 41  1  0
 24 42  1  0
 25 43  1  0
 26 44  1  0
 27 45  1  0
M  CHG  1  11  -1
M  END
>  <UniqueID>  (29) 
27

>  <SMILES>  (29) 
CS(=O)(=O)Nc1cccc([N-]C(=O)c2ccccc2Nc2ccccc2)c1

>  <Energy>  (29) 
59.385810211322145

>  <Genealogy>  (29) 
CS(=O)(=O)Nc1cccc([N-]C(=O)c2ccccc2Nc2ccccc2)c1 (protonated)
CS(=O)(=O)Nc1cccc([N-]C(=O)c2ccccc2Nc2ccccc2)c1 (3D coordinates assigned)
CS(=O)(=O)Nc1cccc([N-]C(=O)c2ccccc2Nc2ccccc2)c1 (optimized conformer: 59.385810211322145 kcal/mol)

>  <smiles>  (29) 
CS(=O)(=O)Nc1cccc(NC(=O)c2ccccc2Nc2ccccc2)c1

>  <score_type>  (29) 
oracle

>  <origin>  (29) 
adg

>  <m_score__min__energy>  (29) 
-10.640000000000001

>  <m_primary>  (29) 
energy

$$$$
29:0
     RDKit          3D

 47 49  0  0  0  0  0  0  0  0999 V2000
   55.0660   26.3910   45.9450 N   0  0  0  0  0  0  0  0  0  0  0  0
   56.6250   25.7250   46.2720 S   0  0  0  0  0  0  0  0  0  0  0  0
   57.0740   24.8970   45.1010 O   0  0  0  0  0  0  0  0  0  0  0  0
   56.5490   24.8420   47.4850 O   0  0  0  0  0  0  0  0  0  0  0  0
   57.7740   27.0290   46.5580 C   0  0  0  0  0  0  0  0  0  0  0  0
   58.7180   26.9200   47.5870 C   0  0  0  0  0  0  0  0  0  0  0  0
   59.6240   27.9590   47.8250 C   0  0  0  0  0  0  0  0  0  0  0  0
   59.6000   29.1190   47.0290 C   0  0  0  0  0  0  0  0  0  0  0  0
   60.5040   30.2110   47.2660 N   0  0  0  0  0  0  0  0  0  0  0  0
   61.2040   30.4240   48.5030 C   0  0  0  0  0  0  0  0  0  0  0  0
   61.2180   29.5330   49.3950 O   0  0  0  0  0  0  0  0  0  0  0  0
   61.9770   31.6900   48.7240 C   0  0  0  0  0  0  0  0  0  0  0  0
   61.4300   32.4310   49.8820 N   0  0  0  0  0  0  0  0  0  0  0  0
   61.4510   33.9050   49.6770 C   0  0  0  0  0  0  0  0  0  0  0  0
   60.0910   34.4960   49.2570 C   0  0  0  0  0  0  0  0  0  0  0  0
   59.3010   33.4970   48.5310 N   0  0  0  0  0  0  0  0  0  0  0  0
   58.8110   33.7510   47.2010 C   0  0  0  0  0  0  0  0  0  0  0  0
   57.6540   33.1060   46.7330 C   0  0  0  0  0  0  0  0  0  0  0  0
   57.1890   33.3400   45.4350 C   0  0  0  0  0  0  0  0  0  0  0  0
   57.8800   34.2120   44.5900 C   0  0  0  0  0  0  0  0  0  0  0  0
   59.0370   34.8520   45.0420 C   0  0  0  0  0  0  0  0  0  0  0  0
   59.5040   34.6220   46.3390 C   0  0  0  0  0  0  0  0  0  0  0  0
   59.0470   32.2040   49.1770 C   0  0  0  0  0  0  0  0  0  0  0  0
   60.0930   31.9330   50.2730 C   0  0  0  0  0  0  0  0  0  0  0  0
   58.6300   29.2350   46.0210 C   0  0  0  0  0  0  0  0  0  0  0  0
   57.7260   28.1950   45.7850 C   0  0  0  0  0  0  0  0  0  0  0  0
   55.1500   27.4280   46.0420 H   0  0  0  0  0  0  0  0  0  0  0  0
   58.7471   26.0141   48.2103 H   0  0  0  0  0  0  0  0  0  0  0  0
   60.3589   27.8687   48.6385 H   0  0  0  0  0  0  0  0  0  0  0  0
   60.7350   30.8370   46.4600 H   0  0  0  0  0  0  0  0  0  0  0  0
   63.0312   31.4423   48.9170 H   0  0  0  0  0  0  0  0  0  0  0  0
   61.8958   32.3198   47.8258 H   0  0  0  0  0  0  0  0  0  0  0  0
   61.7597   34.3814   50.6192 H   0  0  0  0  0  0  0  0  0  0  0  0
   62.1534   34.1031   48.8539 H   0  0  0  0  0  0  0  0  0  0  0  0
   59.5398   34.8107   50.1554 H   0  0  0  0  0  0  0  0  0  0  0  0
   60.2657   35.3595   48.5984 H   0  0  0  0  0  0  0  0  0  0  0  0
   57.1105   32.4126   47.3916 H   0  0  0  0  0  0  0  0  0  0  0  0
   56.2780   32.8368   45.0789 H   0  0  0  0  0  0  0  0  0  0  0  0
   57.5133   34.3947   43.5691 H   0  0  0  0  0  0  0  0  0  0  0  0
   59.5810   35.5379   44.3760 H   0  0  0  0  0  0  0  0  0  0  0  0
   60.4182   35.1243   46.6883 H   0  0  0  0  0  0  0  0  0  0  0  0
   58.0442   32.2162   49.6290 H   0  0  0  0  0  0  0  0  0  0  0  0
   59.1124   31.4093   48.4192 H   0  0  0  0  0  0  0  0  0  0  0  0
   59.7800   32.4384   51.1985 H   0  0  0  0  0  0  0  0  0  0  0  0
   60.1605   30.8455   50.4241 H   0  0  0  0  0  0  0  0  0  0  0  0
   58.5808   30.1502   45.4128 H   0  0  0  0  0  0  0  0  0  0  0  0
   56.9738   28.2934   44.9885 H   0  0  0  0  0  0  0  0  0  0  0  0
  1  2  1  0
  2  3  2  0
  2  4  2  0
  2  5  1  0
  5  6  2  0
  6  7  1  0
  7  8  2  0
  8  9  1  0
  9 10  1  0
 10 11  2  0
 10 12  1  0
 12 13  1  0
 13 14  1  0
 14 15  1  0
 15 16  1  0
 16 17  1  0
 17 18  2  0
 18 19  1  0
 19 20  2  0
 20 21  1  0
 21 22  2  0
 16 23  1  0
 23 24  1  0
  8 25  1  0
 25 26  2  0
 26  5  1  0
 24 13  1  0
 22 17  1  0
  1 27  1  0
  6 28  1  0
  7 29  1  0
  9 30  1  0
 12 31  1  0
 12 32  1  0
 14 33  1  0
 14 34  1  0
 15 35  1  0
 15 36  1  0
 18 37  1  0
 19 38  1  0
 20 39  1  0
 21 40  1  0
 22 41  1  0
 23 42  1  0
 23 43  1  0
 24 44  1  0
 24 45  1  0
 25 46  1  0
 26 47  1  0
M  CHG  1   1  -1
M  END
>  <UniqueID>  (30) 
28

>  <SMILES>  (30) 
[NH-]S(=O)(=O)c1ccc(NC(=O)CN2CCN(c3ccccc3)CC2)cc1

>  <Energy>  (30) 
62.356324710612256

>  <Genealogy>  (30) 
[NH-]S(=O)(=O)c1ccc(NC(=O)CN2CCN(c3ccccc3)CC2)cc1 (protonated)
[NH-]S(=O)(=O)c1ccc(NC(=O)CN2CCN(c3ccccc3)CC2)cc1 (3D coordinates assigned)
[NH-]S(=O)(=O)c1ccc(NC(=O)CN2CCN(c3ccccc3)CC2)cc1 (nonaromatic ring conformer: 62.356324710612256 kcal/mol)

>  <smiles>  (30) 
NS(=O)(=O)c1ccc(NC(=O)CN2CCN(c3ccccc3)CC2)cc1

>  <score_type>  (30) 
oracle

>  <origin>  (30) 
adg

>  <m_score__min__energy>  (30) 
-10.93

>  <m_primary>  (30) 
energy

$$$$
30:0
     RDKit          3D

 42 44  0  0  0  0  0  0  0  0999 V2000
   54.7960   26.3240   46.0410 N   0  0  0  0  0  0  0  0  0  0  0  0
   56.1280   25.2250   46.1250 S   0  0  0  0  0  0  0  0  0  0  0  0
   55.8990   24.0590   45.2050 O   0  0  0  0  0  0  0  0  0  0  0  0
   56.2400   24.7190   47.5350 O   0  0  0  0  0  0  0  0  0  0  0  0
   57.5980   26.0450   45.7120 N   0  0  0  0  0  0  0  0  0  0  0  0
   58.2410   27.0350   46.5250 C   0  0  0  0  0  0  0  0  0  0  0  0
   59.2840   26.6230   47.3630 C   0  0  0  0  0  0  0  0  0  0  0  0
   59.9350   27.5370   48.1910 C   0  0  0  0  0  0  0  0  0  0  0  0
   59.5640   28.8890   48.1770 C   0  0  0  0  0  0  0  0  0  0  0  0
   60.2020   29.8510   49.0270 N   0  0  0  0  0  0  0  0  0  0  0  0
   59.5580   30.9840   49.6270 C   0  0  0  0  0  0  0  0  0  0  0  0
   59.8890   31.3300   50.7900 O   0  0  0  0  0  0  0  0  0  0  0  0
   58.5450   31.7300   48.9390 N   0  0  0  0  0  0  0  0  0  0  0  0
   58.7700   32.6880   47.8950 C   0  0  0  0  0  0  0  0  0  0  0  0
   60.0580   33.2090   47.7180 C   0  0  0  0  0  0  0  0  0  0  0  0
   60.3080   34.1500   46.7140 C   0  0  0  0  0  0  0  0  0  0  0  0
   59.2740   34.5610   45.8680 C   0  0  0  0  0  0  0  0  0  0  0  0
   57.9930   34.0260   46.0190 C   0  0  0  0  0  0  0  0  0  0  0  0
   56.9970   34.4080   45.1820 F   0  0  0  0  0  0  0  0  0  0  0  0
   57.7400   33.0880   47.0250 C   0  0  0  0  0  0  0  0  0  0  0  0
   58.5710   29.3190   47.2920 C   0  0  0  0  0  0  0  0  0  0  0  0
   57.8860   28.4000   46.4760 C   0  0  0  0  0  0  0  0  0  0  0  0
   56.9130   28.8360   45.5650 O   0  0  0  0  0  0  0  0  0  0  0  0
   57.1200   29.7560   44.5260 C   0  0  0  0  0  0  0  0  0  0  0  0
   57.9080   30.9100   44.6970 C   0  0  0  0  0  0  0  0  0  0  0  0
   58.0740   31.8110   43.6410 C   0  0  0  0  0  0  0  0  0  0  0  0
   57.4470   31.5760   42.4150 C   0  0  0  0  0  0  0  0  0  0  0  0
   56.6460   30.4440   42.2460 C   0  0  0  0  0  0  0  0  0  0  0  0
   56.4780   29.5400   43.3010 C   0  0  0  0  0  0  0  0  0  0  0  0
   55.1890   27.2880   45.9930 H   0  0  0  0  0  0  0  0  0  0  0  0
   59.5932   25.5674   47.3684 H   0  0  0  0  0  0  0  0  0  0  0  0
   60.7416   27.1963   48.8568 H   0  0  0  0  0  0  0  0  0  0  0  0
   60.8773   32.8763   48.3722 H   0  0  0  0  0  0  0  0  0  0  0  0
   61.3184   34.5667   46.5901 H   0  0  0  0  0  0  0  0  0  0  0  0
   59.4695   35.3062   45.0829 H   0  0  0  0  0  0  0  0  0  0  0  0
   56.7321   32.6617   47.1361 H   0  0  0  0  0  0  0  0  0  0  0  0
   58.3221   30.3888   47.2328 H   0  0  0  0  0  0  0  0  0  0  0  0
   58.3946   31.1033   45.6644 H   0  0  0  0  0  0  0  0  0  0  0  0
   58.6991   32.7061   43.7757 H   0  0  0  0  0  0  0  0  0  0  0  0
   57.5840   32.2822   41.5828 H   0  0  0  0  0  0  0  0  0  0  0  0
   56.1468   30.2630   41.2826 H   0  0  0  0  0  0  0  0  0  0  0  0
   55.8382   28.6553   43.1669 H   0  0  0  0  0  0  0  0  0  0  0  0
  1  2  1  0
  2  3  2  0
  2  4  2  0
  2  5  1  0
  5  6  1  0
  6  7  2  0
  7  8  1  0
  8  9  2  0
  9 10  1  0
 10 11  1  0
 11 12  2  0
 11 13  1  0
 13 14  1  0
 14 15  2  0
 15 16  1  0
 16 17  2  0
 17 18  1  0
 18 19  1  0
 18 20  2  0
  9 21  1  0
 21 22  2  0
 22 23  1  0
 23 24  1  0
 24 25  2  0
 25 26  1  0
 26 27  2  0
 27 28  1  0
 28 29  2  0
 22  6  1  0
 29 24  1  0
 20 14  1  0
  1 30  1  0
  7 31  1  0
  8 32  1  0
 15 33  1  0
 16 34  1  0
 17 35  1  0
 20 36  1  0
 21 37  1  0
 25 38  1  0
 26 39  1  0
 27 40  1  0
 28 41  1  0
 29 42  1  0
M  CHG  4   1  -1   5  -1  10  -1  13  -1
M  END
>  <UniqueID>  (31) 
29

>  <SMILES>  (31) 
[NH-]S(=O)(=O)[N-]c1ccc([N-]C(=O)[N-]c2cccc(F)c2)cc1Oc1ccccc1

>  <Energy>  (31) 
61.83008004264908

>  <Genealogy>  (31) 
[NH-]S(=O)(=O)[N-]c1ccc([N-]C(=O)[N-]c2cccc(F)c2)cc1Oc1ccccc1 (protonated)
[NH-]S(=O)(=O)[N-]c1ccc([N-]C(=O)[N-]c2cccc(F)c2)cc1Oc1ccccc1 (3D coordinates assigned)
[NH-]S(=O)(=O)[N-]c1ccc([N-]C(=O)[N-]c2cccc(F)c2)cc1Oc1ccccc1 (optimized conformer: 61.83008004264908 kcal/mol)

>  <smiles>  (31) 
NS(=O)(=O)Nc1ccc(NC(=O)Nc2cccc(F)c2)cc1Oc1ccccc1

>  <score_type>  (31) 
oracle

>  <origin>  (31) 
adg

>  <m_score__min__energy>  (31) 
-14.58

>  <m_primary>  (31) 
energy

$$$$
31:0
     RDKit          3D

 57 59  0  0  0  0  0  0  0  0999 V2000
   59.6460   35.5340   45.6080 C   0  0  0  0  0  0  0  0  0  0  0  0
   60.2370   35.2390   46.8700 O   0  0  0  0  0  0  0  0  0  0  0  0
   60.1140   34.0100   47.5370 C   0  0  0  0  0  0  0  0  0  0  0  0
   59.0890   33.7650   48.4680 C   0  0  0  0  0  0  0  0  0  0  0  0
   59.0070   32.5340   49.1220 C   0  0  0  0  0  0  0  0  0  0  0  0
   59.9420   31.5220   48.8560 C   0  0  0  0  0  0  0  0  0  0  0  0
   59.8330   30.1910   49.5710 C   0  0  0  0  0  0  0  0  0  0  0  0
   59.0250   29.1530   48.7740 C   0  0  0  0  0  0  0  0  0  0  0  0
   59.6360   28.9490   47.4570 N   0  0  0  0  0  0  0  0  0  0  0  0
   59.8190   27.2600   47.0760 S   0  0  0  0  0  0  0  0  0  0  0  0
   60.7760   27.1260   45.9240 O   0  0  0  0  0  0  0  0  0  0  0  0
   60.4280   26.5590   48.2580 O   0  0  0  0  0  0  0  0  0  0  0  0
   58.2900   26.4780   46.6300 C   0  0  0  0  0  0  0  0  0  0  0  0
   58.1330   25.1070   46.8810 C   0  0  0  0  0  0  0  0  0  0  0  0
   56.9290   24.4650   46.5830 C   0  0  0  0  0  0  0  0  0  0  0  0
   55.8710   25.1870   46.0290 C   0  0  0  0  0  0  0  0  0  0  0  0
   56.0160   26.5510   45.7650 C   0  0  0  0  0  0  0  0  0  0  0  0
   57.2200   27.2110   46.0670 C   0  0  0  0  0  0  0  0  0  0  0  0
   57.3990   28.5910   45.7240 N   0  0  0  0  0  0  0  0  0  0  0  0
   56.5390   29.3590   44.8760 C   0  0  0  0  0  0  0  0  0  0  0  0
   55.2980   29.1360   44.8590 O   0  0  0  0  0  0  0  0  0  0  0  0
   57.0930   30.4810   44.0940 C   0  0  0  0  0  0  0  0  0  0  0  0
   56.8960   30.4960   42.7030 C   0  0  0  0  0  0  0  0  0  0  0  0
   57.3700   31.5580   41.9290 C   0  0  0  0  0  0  0  0  0  0  0  0
   58.0580   32.6090   42.5330 C   0  0  0  0  0  0  0  0  0  0  0  0
   58.2860   32.5980   43.9090 C   0  0  0  0  0  0  0  0  0  0  0  0
   57.8150   31.5380   44.7040 C   0  0  0  0  0  0  0  0  0  0  0  0
   58.1010   31.5540   46.1830 C   0  0  0  0  0  0  0  0  0  0  0  0
   60.9480   31.7580   47.9040 C   0  0  0  0  0  0  0  0  0  0  0  0
   61.0570   33.0070   47.2650 C   0  0  0  0  0  0  0  0  0  0  0  0
   62.0940   33.2980   46.3650 O   0  0  0  0  0  0  0  0  0  0  0  0
   63.4420   33.5550   46.7450 C   0  0  0  0  0  0  0  0  0  0  0  0
   58.6718   36.0203   45.7641 H   0  0  0  0  0  0  0  0  0  0  0  0
   60.3060   36.2084   45.0427 H   0  0  0  0  0  0  0  0  0  0  0  0
   59.5038   34.6012   45.0427 H   0  0  0  0  0  0  0  0  0  0  0  0
   58.3470   34.5482   48.6825 H   0  0  0  0  0  0  0  0  0  0  0  0
   58.2031   32.3562   49.8515 H   0  0  0  0  0  0  0  0  0  0  0  0
   60.8464   29.7965   49.7364 H   0  0  0  0  0  0  0  0  0  0  0  0
   59.3045   30.3660   50.5197 H   0  0  0  0  0  0  0  0  0  0  0  0
   59.0143   28.1997   49.3227 H   0  0  0  0  0  0  0  0  0  0  0  0
   57.9957   29.5183   48.6430 H   0  0  0  0  0  0  0  0  0  0  0  0
   59.0070   29.3690   46.7350 H   0  0  0  0  0  0  0  0  0  0  0  0
   58.9645   24.5330   47.3159 H   0  0  0  0  0  0  0  0  0  0  0  0
   56.8146   23.3898   46.7851 H   0  0  0  0  0  0  0  0  0  0  0  0
   54.9214   24.6812   45.7999 H   0  0  0  0  0  0  0  0  0  0  0  0
   55.1825   27.1125   45.3178 H   0  0  0  0  0  0  0  0  0  0  0  0
   56.3637   29.6639   42.2190 H   0  0  0  0  0  0  0  0  0  0  0  0
   57.2002   31.5648   40.8422 H   0  0  0  0  0  0  0  0  0  0  0  0
   58.4220   33.4490   41.9231 H   0  0  0  0  0  0  0  0  0  0  0  0
   58.8392   33.4259   44.3765 H   0  0  0  0  0  0  0  0  0  0  0  0
   57.1540   31.5010   46.7402 H   0  0  0  0  0  0  0  0  0  0  0  0
   58.7291   30.6896   46.4444 H   0  0  0  0  0  0  0  0  0  0  0  0
   58.6287   32.4831   46.4444 H   0  0  0  0  0  0  0  0  0  0  0  0
   61.6592   30.9566   47.6551 H   0  0  0  0  0  0  0  0  0  0  0  0
   63.5172   33.5693   47.8423 H   0  0  0  0  0  0  0  0  0  0  0  0
   64.0933   32.7648   46.3431 H   0  0  0  0  0  0  0  0  0  0  0  0
   63.7568   34.5293   46.3431 H   0  0  0  0  0  0  0  0  0  0  0  0
  1  2  1  0
  2  3  1  0
  3  4  2  0
  4  5  1  0
  5  6  2  0
  6  7  1  0
  7  8  1  0
  8  9  1  0
  9 10  1  0
 10 11  2  0
 10 12  2  0
 10 13  1  0
 13 14  2  0
 14 15  1  0
 15 16  2  0
 16 17  1  0
 17 18  2  0
 18 19  1  0
 19 20  1  0
 20 21  2  0
 20 22  1  0
 22 23  2  0
 23 24  1  0
 24 25  2  0
 25 26  1  0
 26 27  2  0
 27 28  1  0
  6 29  1  0
 29 30  2  0
 30 31  1  0
 31 32  1  0
 30  3  1  0
 18 13  1  0
 27 22  1  0
  1 33  1  0
  1 34  1  0
  1 35  1  0
  4 36  1  0
  5 37  1  0
  7 38  1  0
  7 39  1  0
  8 40  1  0
  8 41  1  0
  9 42  1  0
 14 43  1  0
 15 44  1  0
 16 45  1  0
 17 46  1  0
 23 47  1  0
 24 48  1  0
 25 49  1  0
 26 50  1  0
 28 51  1  0
 28 52  1  0
 28 53  1  0
 29 54  1  0
 32 55  1  0
 32 56  1  0
 32 57  1  0
M  CHG  1  19  -1
M  END
>  <UniqueID>  (32) 
30

>  <SMILES>  (32) 
COc1ccc(CCNS(=O)(=O)c2ccccc2[N-]C(=O)c2ccccc2C)cc1OC

>  <Energy>  (32) 
61.035891065749375

>  <Genealogy>  (32) 
COc1ccc(CCNS(=O)(=O)c2ccccc2[N-]C(=O)c2ccccc2C)cc1OC (protonated)
COc1ccc(CCNS(=O)(=O)c2ccccc2[N-]C(=O)c2ccccc2C)cc1OC (3D coordinates assigned)
COc1ccc(CCNS(=O)(=O)c2ccccc2[N-]C(=O)c2ccccc2C)cc1OC (optimized conformer: 61.035891065749375 kcal/mol)

>  <smiles>  (32) 
COc1ccc(CCNS(=O)(=O)c2ccccc2NC(=O)c2ccccc2C)cc1OC

>  <score_type>  (32) 
oracle

>  <origin>  (32) 
adg

>  <m_score__min__energy>  (32) 
-12.01

>  <m_primary>  (32) 
energy

$$$$
32:0
     RDKit          3D

 50 52  0  0  0  0  0  0  0  0999 V2000
   60.9370   30.6960   48.3470 C   0  0  0  0  0  0  0  0  0  0  0  0
   60.2950   30.3830   47.0500 N   0  0  0  0  0  0  0  0  0  0  0  0
   58.9130   30.9340   47.0420 C   0  0  0  0  0  0  0  0  0  0  0  0
   58.8610   32.2390   46.2790 C   0  0  0  0  0  0  0  0  0  0  0  0
   59.7050   33.2540   46.6200 N   0  0  0  0  0  0  0  0  0  0  0  0
   59.7040   34.4490   45.9700 C   0  0  0  0  0  0  0  0  0  0  0  0
   58.8180   34.6730   44.9150 C   0  0  0  0  0  0  0  0  0  0  0  0
   57.9330   33.6600   44.5440 C   0  0  0  0  0  0  0  0  0  0  0  0
   57.9420   32.4340   45.2230 C   0  0  0  0  0  0  0  0  0  0  0  0
   57.0090   31.4040   44.8310 C   0  0  0  0  0  0  0  0  0  0  0  0
   56.2620   30.5780   44.5150 N   0  0  0  0  0  0  0  0  0  0  0  0
   60.3110   28.9280   46.7150 C   0  0  0  0  0  0  0  0  0  0  0  0
   59.6060   28.6150   45.3670 C   0  0  0  0  0  0  0  0  0  0  0  0
   59.2580   27.1230   45.2410 C   0  0  0  0  0  0  0  0  0  0  0  0
   58.3970   26.6210   46.3400 N   0  0  0  0  0  0  0  0  0  0  0  0
   56.7980   26.1570   45.7970 S   0  0  0  0  0  0  0  0  0  0  0  0
   55.9770   27.4040   45.6360 O   0  0  0  0  0  0  0  0  0  0  0  0
   56.1210   25.2870   46.8200 O   0  0  0  0  0  0  0  0  0  0  0  0
   56.8600   25.3470   44.2580 N   0  0  0  0  0  0  0  0  0  0  0  0
   57.1550   23.9510   44.1130 C   0  0  0  0  0  0  0  0  0  0  0  0
   56.4190   23.1840   43.1970 C   0  0  0  0  0  0  0  0  0  0  0  0
   56.7130   21.8300   43.0110 C   0  0  0  0  0  0  0  0  0  0  0  0
   57.7320   21.2270   43.7530 C   0  0  0  0  0  0  0  0  0  0  0  0
   58.4500   21.9750   44.6880 C   0  0  0  0  0  0  0  0  0  0  0  0
   58.1590   23.3300   44.8750 C   0  0  0  0  0  0  0  0  0  0  0  0
   58.2920   27.5290   47.4990 C   0  0  0  0  0  0  0  0  0  0  0  0
   59.6640   28.1010   47.8710 C   0  0  0  0  0  0  0  0  0  0  0  0
   60.2794   30.3754   49.1685 H   0  0  0  0  0  0  0  0  0  0  0  0
   61.8979   30.1653   48.4181 H   0  0  0  0  0  0  0  0  0  0  0  0
   61.1107   31.7799   48.4181 H   0  0  0  0  0  0  0  0  0  0  0  0
   58.2382   30.2090   46.5634 H   0  0  0  0  0  0  0  0  0  0  0  0
   58.6006   31.1193   48.0803 H   0  0  0  0  0  0  0  0  0  0  0  0
   60.4033   35.2408   46.2766 H   0  0  0  0  0  0  0  0  0  0  0  0
   58.8174   35.6357   44.3829 H   0  0  0  0  0  0  0  0  0  0  0  0
   57.2267   33.8240   43.7168 H   0  0  0  0  0  0  0  0  0  0  0  0
   61.3652   28.6361   46.5991 H   0  0  0  0  0  0  0  0  0  0  0  0
   58.6790   29.2039   45.3042 H   0  0  0  0  0  0  0  0  0  0  0  0
   60.2951   28.8768   44.5505 H   0  0  0  0  0  0  0  0  0  0  0  0
   58.7316   26.9676   44.2877 H   0  0  0  0  0  0  0  0  0  0  0  0
   60.2045   26.5648   45.2909 H   0  0  0  0  0  0  0  0  0  0  0  0
   56.9450   25.9590   43.4160 H   0  0  0  0  0  0  0  0  0  0  0  0
   55.6059   23.6509   42.6219 H   0  0  0  0  0  0  0  0  0  0  0  0
   56.1418   21.2389   42.2800 H   0  0  0  0  0  0  0  0  0  0  0  0
   57.9683   20.1636   43.6005 H   0  0  0  0  0  0  0  0  0  0  0  0
   59.2459   21.4977   45.2785 H   0  0  0  0  0  0  0  0  0  0  0  0
   58.7186   23.9122   45.6219 H   0  0  0  0  0  0  0  0  0  0  0  0
   57.6127   28.3569   47.2476 H   0  0  0  0  0  0  0  0  0  0  0  0
   57.9036   26.9606   48.3570 H   0  0  0  0  0  0  0  0  0  0  0  0
   59.5457   28.7554   48.7472 H   0  0  0  0  0  0  0  0  0  0  0  0
   60.3299   27.2512   48.0819 H   0  0  0  0  0  0  0  0  0  0  0  0
  1  2  1  0
  2  3  1  0
  3  4  1  0
  4  5  2  0
  5  6  1  0
  6  7  2  0
  7  8  1  0
  8  9  2  0
  9 10  1  0
 10 11  3  0
  2 12  1  0
 12 13  1  0
 13 14  1  0
 14 15  1  0
 15 16  1  0
 16 17  2  0
 16 18  2  0
 16 19  1  0
 19 20  1  0
 20 21  2  0
 21 22  1  0
 22 23  2  0
 23 24  1  0
 24 25  2  0
 15 26  1  0
 26 27  1  0
  9  4  1  0
 27 12  1  0
 25 20  1  0
  1 28  1  0
  1 29  1  0
  1 30  1  0
  3 31  1  0
  3 32  1  0
  6 33  1  0
  7 34  1  0
  8 35  1  0
 12 36  1  0
 13 37  1  0
 13 38  1  0
 14 39  1  0
 14 40  1  0
 19 41  1  0
 21 42  1  0
 22 43  1  0
 23 44  1  0
 24 45  1  0
 25 46  1  0
 26 47  1  0
 26 48  1  0
 27 49  1  0
 27 50  1  0
M  END
>  <UniqueID>  (33) 
31

>  <SMILES>  (33) 
CN(Cc1ncccc1C#N)C1CCN(S(=O)(=O)Nc2ccccc2)CC1

>  <Energy>  (33) 
69.28633494713155

>  <Genealogy>  (33) 
CN(Cc1ncccc1C#N)C1CCN(S(=O)(=O)Nc2ccccc2)CC1 (3D coordinates assigned)
CN(Cc1ncccc1C#N)C1CCN(S(=O)(=O)Nc2ccccc2)CC1 (nonaromatic ring conformer: 69.28633494713155 kcal/mol)

>  <smiles>  (33) 
CN(Cc1ncccc1C#N)C1CCN(S(=O)(=O)Nc2ccccc2)CC1

>  <score_type>  (33) 
oracle

>  <origin>  (33) 
adg

>  <m_score__min__energy>  (33) 
-9.0199999999999996

>  <m_primary>  (33) 
energy

$$$$
33:0
     RDKit          3D

 40 42  0  0  0  0  0  0  0  0999 V2000
   60.3707   26.3042   48.1900 H   0  0  0  0  0  0  0  0  0  0  0  0
   59.5570   26.8350   47.6740 C   0  0  0  0  0  0  0  0  0  0  0  0
   58.3730   26.1360   46.7070 S   0  0  0  0  0  0  0  0  0  0  0  0
   57.5960   27.5970   46.3990 C   0  0  0  0  0  0  0  0  0  0  0  0
   56.5480   27.7760   45.6480 N   0  0  0  0  0  0  0  0  0  0  0  0
   56.2780   28.8800   44.7670 C   0  0  0  0  0  0  0  0  0  0  0  0
   55.1370   29.4150   44.8080 O   0  0  0  0  0  0  0  0  0  0  0  0
   57.2250   29.2750   43.6590 C   0  0  0  0  0  0  0  0  0  0  0  0
   58.2574   29.2113   44.0333 H   0  0  0  0  0  0  0  0  0  0  0  0
   57.0681   28.5886   42.8139 H   0  0  0  0  0  0  0  0  0  0  0  0
   56.9110   30.9810   43.0730 S   0  0  0  0  0  0  0  0  0  0  0  0
   57.7340   31.7750   44.4510 C   0  0  0  0  0  0  0  0  0  0  0  0
   58.2680   33.0140   44.2910 N   0  0  0  0  0  0  0  0  0  0  0  0
   58.8580   33.6670   45.3250 C   0  0  0  0  0  0  0  0  0  0  0  0
   59.3290   34.8230   45.1360 O   0  0  0  0  0  0  0  0  0  0  0  0
   58.9280   33.0520   46.5850 C   0  0  0  0  0  0  0  0  0  0  0  0
   59.6070   33.8730   47.9920 S   0  0  0  0  0  0  0  0  0  0  0  0
   59.0400   33.3040   49.2650 O   0  0  0  0  0  0  0  0  0  0  0  0
   59.2540   35.3340   47.9430 O   0  0  0  0  0  0  0  0  0  0  0  0
   61.3560   33.6630   47.9830 C   0  0  0  0  0  0  0  0  0  0  0  0
   62.0830   33.6600   49.1840 C   0  0  0  0  0  0  0  0  0  0  0  0
   61.5602   33.7871   50.1434 H   0  0  0  0  0  0  0  0  0  0  0  0
   63.4760   33.4950   49.1610 C   0  0  0  0  0  0  0  0  0  0  0  0
   64.0425   33.4820   50.1038 H   0  0  0  0  0  0  0  0  0  0  0  0
   64.1460   33.3470   47.9430 C   0  0  0  0  0  0  0  0  0  0  0  0
   65.2378   33.2136   47.9270 H   0  0  0  0  0  0  0  0  0  0  0  0
   63.4250   33.3690   46.7450 C   0  0  0  0  0  0  0  0  0  0  0  0
   63.9514   33.2597   45.7853 H   0  0  0  0  0  0  0  0  0  0  0  0
   62.0330   33.5300   46.7650 C   0  0  0  0  0  0  0  0  0  0  0  0
   61.4703   33.5519   45.8201 H   0  0  0  0  0  0  0  0  0  0  0  0
   58.3820   31.7720   46.7230 C   0  0  0  0  0  0  0  0  0  0  0  0
   58.4223   31.2625   47.6970 H   0  0  0  0  0  0  0  0  0  0  0  0
   57.8020   31.1540   45.6610 N   0  0  0  0  0  0  0  0  0  0  0  0
   57.3900   30.1990   45.7840 H   0  0  0  0  0  0  0  0  0  0  0  0
   58.2340   28.6260   46.9990 N   0  0  0  0  0  0  0  0  0  0  0  0
   59.3220   28.2070   47.7040 C   0  0  0  0  0  0  0  0  0  0  0  0
   60.1780   29.1530   48.4750 C   0  0  0  0  0  0  0  0  0  0  0  0
   60.0287   28.9879   49.5522 H   0  0  0  0  0  0  0  0  0  0  0  0
   61.2345   28.9819   48.2208 H   0  0  0  0  0  0  0  0  0  0  0  0
   59.9025   30.1872   48.2208 H   0  0  0  0  0  0  0  0  0  0  0  0
  1  2  1  0
  2  3  1  0
  3  4  1  0
  4  5  2  0
  5  6  1  0
  6  7  2  0
  6  8  1  0
  8  9  1  0
  8 10  1  0
  8 11  1  0
 11 12  1  0
 12 13  2  0
 13 14  1  0
 14 15  2  0
 14 16  1  0
 16 17  1  0
 17 18  2  0
 17 19  2  0
 17 20  1  0
 20 21  2  0
 21 22  1  0
 21 23  1  0
 23 24  1  0
 23 25  2  0
 25 26  1  0
 25 27  1  0
 27 28  1  0
 27 29  2  0
 29 30  1  0
 16 31  2  0
 31 32  1  0
 31 33  1  0
 33 34  1  0
  4 35  1  0
 35 36  1  0
 36 37  1  0
 37 38  1  0
 37 39  1  0
 37 40  1  0
 36  2  2  0
 33 12  1  0
 29 20  1  0
M  CHG  1  35  -1
M  END
>  <UniqueID>  (34) 
32

>  <SMILES>  (34) 
Cc1cs/c(=N\C(=O)CSc2nc(=O)c(S(=O)(=O)c3ccccc3)c[nH]2)[n-]1

>  <Energy>  (34) 
73.49844228060988

>  <Genealogy>  (34) 
Cc1csc(=NC(=O)CSc2nc(=O)c(S(=O)(=O)c3ccccc3)c[nH]2)[n-]1 (protonated)
Cc1cs/c(=N\C(=O)CSc2nc(=O)c(S(=O)(=O)c3ccccc3)c[nH]2)[n-]1 (cis-trans isomerization)
Cc1cs/c(=N\C(=O)CSc2nc(=O)c(S(=O)(=O)c3ccccc3)c[nH]2)[n-]1 (3D coordinates assigned)
Cc1cs/c(=N\C(=O)CSc2nc(=O)c(S(=O)(=O)c3ccccc3)c[nH]2)[n-]1 (optimized conformer: 73.49844228060988 kcal/mol)

>  <smiles>  (34) 
Cc1csc(=NC(=O)CSc2nc(=O)c(S(=O)(=O)c3ccccc3)c[nH]2)[nH]1

>  <score_type>  (34) 
oracle

>  <origin>  (34) 
adg

>  <m_score__min__energy>  (34) 
-11.130000000000001

>  <m_primary>  (34) 
energy

$$$$
34:0
     RDKit          3D

 52 55  0  0  0  0  0  0  0  0999 V2000
   56.3820   26.4930   46.4780 O   0  0  0  0  0  0  0  0  0  0  0  0
   56.9000   26.7820   45.3650 C   0  0  0  0  0  0  0  0  0  0  0  0
   57.0420   25.7660   44.3590 N   0  0  0  0  0  0  0  0  0  0  0  0
   57.0650   24.3560   44.6460 C   0  0  0  0  0  0  0  0  0  0  0  0
   57.7690   23.8930   45.7690 C   0  0  0  0  0  0  0  0  0  0  0  0
   57.7870   22.5300   46.0810 C   0  0  0  0  0  0  0  0  0  0  0  0
   57.0870   21.6170   45.2850 C   0  0  0  0  0  0  0  0  0  0  0  0
   57.1140   19.8690   45.6820 S   0  0  0  0  0  0  0  0  0  0  0  0
   55.3900   19.8320   46.2680 C   0  0  0  0  0  0  0  0  0  0  0  0
   54.5430   19.5250   45.2200 F   0  0  0  0  0  0  0  0  0  0  0  0
   55.0560   21.0760   46.7700 F   0  0  0  0  0  0  0  0  0  0  0  0
   56.3700   22.0730   44.1720 C   0  0  0  0  0  0  0  0  0  0  0  0
   56.3510   23.4350   43.8580 C   0  0  0  0  0  0  0  0  0  0  0  0
   57.3100   28.1820   45.0940 C   0  0  0  0  0  0  0  0  0  0  0  0
   58.4700   28.7080   45.6910 C   0  0  0  0  0  0  0  0  0  0  0  0
   58.8650   30.0260   45.4380 C   0  0  0  0  0  0  0  0  0  0  0  0
   58.1140   30.8360   44.5750 C   0  0  0  0  0  0  0  0  0  0  0  0
   58.5340   32.2610   44.3250 C   0  0  0  0  0  0  0  0  0  0  0  0
   57.6180   33.2100   44.9990 N   0  0  0  0  0  0  0  0  0  0  0  0
   58.0330   34.6250   44.8800 C   0  0  0  0  0  0  0  0  0  0  0  0
   59.3610   34.9200   45.5970 C   0  0  0  0  0  0  0  0  0  0  0  0
   59.4630   34.2310   46.9340 C   0  0  0  0  0  0  0  0  0  0  0  0
   60.5160   34.5690   47.7980 C   0  0  0  0  0  0  0  0  0  0  0  0
   60.6650   33.9110   49.0210 C   0  0  0  0  0  0  0  0  0  0  0  0
   59.7670   32.9070   49.3890 C   0  0  0  0  0  0  0  0  0  0  0  0
   58.7210   32.5560   48.5330 C   0  0  0  0  0  0  0  0  0  0  0  0
   58.5710   33.1990   47.2950 C   0  0  0  0  0  0  0  0  0  0  0  0
   57.3950   32.8500   46.4130 C   0  0  0  0  0  0  0  0  0  0  0  0
   56.9610   30.3140   43.9700 C   0  0  0  0  0  0  0  0  0  0  0  0
   56.5650   28.9980   44.2230 C   0  0  0  0  0  0  0  0  0  0  0  0
   57.0120   26.0590   43.3570 H   0  0  0  0  0  0  0  0  0  0  0  0
   58.3099   24.6070   46.4075 H   0  0  0  0  0  0  0  0  0  0  0  0
   58.3531   22.1747   46.9547 H   0  0  0  0  0  0  0  0  0  0  0  0
   55.2892   19.0679   47.0528 H   0  0  0  0  0  0  0  0  0  0  0  0
   55.8202   21.3574   43.5430 H   0  0  0  0  0  0  0  0  0  0  0  0
   55.7748   23.7885   42.9902 H   0  0  0  0  0  0  0  0  0  0  0  0
   59.0716   28.0777   46.3624 H   0  0  0  0  0  0  0  0  0  0  0  0
   59.7690   30.4285   45.9185 H   0  0  0  0  0  0  0  0  0  0  0  0
   59.5532   32.4088   44.7115 H   0  0  0  0  0  0  0  0  0  0  0  0
   58.5013   32.4513   43.2421 H   0  0  0  0  0  0  0  0  0  0  0  0
   58.1479   34.8688   43.8135 H   0  0  0  0  0  0  0  0  0  0  0  0
   57.2555   35.2390   45.3581 H   0  0  0  0  0  0  0  0  0  0  0  0
   60.1893   34.5769   44.9597 H   0  0  0  0  0  0  0  0  0  0  0  0
   59.4094   36.0042   45.7762 H   0  0  0  0  0  0  0  0  0  0  0  0
   61.2280   35.3566   47.5104 H   0  0  0  0  0  0  0  0  0  0  0  0
   61.4905   34.1839   49.6949 H   0  0  0  0  0  0  0  0  0  0  0  0
   59.8836   32.3921   50.3540 H   0  0  0  0  0  0  0  0  0  0  0  0
   58.0105   31.7709   48.8310 H   0  0  0  0  0  0  0  0  0  0  0  0
   57.2166   31.7664   46.4765 H   0  0  0  0  0  0  0  0  0  0  0  0
   56.5287   33.4260   46.7703 H   0  0  0  0  0  0  0  0  0  0  0  0
   56.3655   30.9439   43.2929 H   0  0  0  0  0  0  0  0  0  0  0  0
   55.6634   28.5967   43.7372 H   0  0  0  0  0  0  0  0  0  0  0  0
  1  2  2  0
  2  3  1  0
  3  4  1  0
  4  5  2  0
  5  6  1  0
  6  7  2  0
  7  8  1  0
  8  9  1  0
  9 10  1  0
  9 11  1  0
  7 12  1  0
 12 13  2  0
  2 14  1  0
 14 15  2  0
 15 16  1  0
 16 17  2  0
 17 18  1  0
 18 19  1  0
 19 20  1  0
 20 21  1  0
 21 22  1  0
 22 23  2  0
 23 24  1  0
 24 25  2  0
 25 26  1  0
 26 27  2  0
 27 28  1  0
 17 29  1  0
 29 30  2  0
 13  4  1  0
 30 14  1  0
 28 19  1  0
 27 22  1  0
  3 31  1  0
  5 32  1  0
  6 33  1  0
  9 34  1  0
 12 35  1  0
 13 36  1  0
 15 37  1  0
 16 38  1  0
 18 39  1  0
 18 40  1  0
 20 41  1  0
 20 42  1  0
 21 43  1  0
 21 44  1  0
 23 45  1  0
 24 46  1  0
 25 47  1  0
 26 48  1  0
 28 49  1  0
 28 50  1  0
 29 51  1  0
 30 52  1  0
M  END
>  <UniqueID>  (35) 
33

>  <SMILES>  (35) 
O=C(Nc1ccc(SC(F)F)cc1)c1ccc(CN2CCc3ccccc3C2)cc1

>  <Energy>  (35) 
63.155731819448185

>  <Genealogy>  (35) 
O=C(Nc1ccc(SC(F)F)cc1)c1ccc(CN2CCc3ccccc3C2)cc1 (3D coordinates assigned)
O=C(Nc1ccc(SC(F)F)cc1)c1ccc(CN2CCc3ccccc3C2)cc1 (nonaromatic ring conformer: 63.155731819448185 kcal/mol)

>  <smiles>  (35) 
O=C(Nc1ccc(SC(F)F)cc1)c1ccc(CN2CCc3ccccc3C2)cc1

>  <score_type>  (35) 
oracle

>  <origin>  (35) 
adg

>  <m_score__min__energy>  (35) 
-8.3800000000000008

>  <m_primary>  (35) 
energy

$$$$
35:0
     RDKit          3D

 41 42  0  0  0  0  0  0  0  0999 V2000
   62.7090   33.9000   50.5750 C   0  0  0  0  0  0  0  0  0  0  0  0
   61.8340   33.2540   49.5810 N   0  0  0  0  0  0  0  0  0  0  0  0
   62.0470   31.7880   49.5990 C   0  0  0  0  0  0  0  0  0  0  0  0
   61.7010   31.1910   48.2670 C   0  0  0  0  0  0  0  0  0  0  0  0
   62.6240   30.9880   47.4320 O   0  0  0  0  0  0  0  0  0  0  0  0
   60.3440   30.8170   47.9700 N   0  0  0  0  0  0  0  0  0  0  0  0
   59.9380   30.1400   46.7670 C   0  0  0  0  0  0  0  0  0  0  0  0
   60.7950   29.2500   46.0940 C   0  0  0  0  0  0  0  0  0  0  0  0
   60.3650   28.6000   44.9350 C   0  0  0  0  0  0  0  0  0  0  0  0
   59.0840   28.8360   44.4300 C   0  0  0  0  0  0  0  0  0  0  0  0
   58.2300   29.7390   45.0750 C   0  0  0  0  0  0  0  0  0  0  0  0
   56.6240   30.0450   44.4260 S   0  0  0  0  0  0  0  0  0  0  0  0
   55.5190   28.8650   45.0390 N   0  0  0  0  0  0  0  0  0  0  0  0
   56.1510   31.4100   44.8420 O   0  0  0  0  0  0  0  0  0  0  0  0
   56.6670   29.9670   42.9270 O   0  0  0  0  0  0  0  0  0  0  0  0
   58.6690   30.4040   46.2290 C   0  0  0  0  0  0  0  0  0  0  0  0
   62.0940   33.8380   48.2440 C   0  0  0  0  0  0  0  0  0  0  0  0
   60.8320   33.9210   47.4210 C   0  0  0  0  0  0  0  0  0  0  0  0
   59.5810   34.0650   48.0460 C   0  0  0  0  0  0  0  0  0  0  0  0
   58.4150   34.1440   47.2780 C   0  0  0  0  0  0  0  0  0  0  0  0
   58.4890   34.0910   45.8830 C   0  0  0  0  0  0  0  0  0  0  0  0
   57.0280   34.2300   44.9210 Cl  0  0  0  0  0  0  0  0  0  0  0  0
   59.7280   33.9330   45.2540 C   0  0  0  0  0  0  0  0  0  0  0  0
   60.8940   33.8360   46.0200 C   0  0  0  0  0  0  0  0  0  0  0  0
   62.3639   33.6452   51.5879 H   0  0  0  0  0  0  0  0  0  0  0  0
   63.7416   33.5460   50.4396 H   0  0  0  0  0  0  0  0  0  0  0  0
   62.6747   34.9911   50.4396 H   0  0  0  0  0  0  0  0  0  0  0  0
   63.1026   31.5782   49.8266 H   0  0  0  0  0  0  0  0  0  0  0  0
   61.3980   31.3434   50.3678 H   0  0  0  0  0  0  0  0  0  0  0  0
   59.6430   30.8900   48.7410 H   0  0  0  0  0  0  0  0  0  0  0  0
   61.8076   29.0654   46.4821 H   0  0  0  0  0  0  0  0  0  0  0  0
   61.0374   27.8997   44.4179 H   0  0  0  0  0  0  0  0  0  0  0  0
   58.7457   28.3116   43.5242 H   0  0  0  0  0  0  0  0  0  0  0  0
   54.6110   29.3530   45.2080 H   0  0  0  0  0  0  0  0  0  0  0  0
   58.0125   31.1394   46.7171 H   0  0  0  0  0  0  0  0  0  0  0  0
   62.5055   34.8503   48.3702 H   0  0  0  0  0  0  0  0  0  0  0  0
   62.8074   33.1878   47.7166 H   0  0  0  0  0  0  0  0  0  0  0  0
   59.5191   34.1157   49.1431 H   0  0  0  0  0  0  0  0  0  0  0  0
   57.4379   34.2480   47.7724 H   0  0  0  0  0  0  0  0  0  0  0  0
   59.7854   33.8850   44.1566 H   0  0  0  0  0  0  0  0  0  0  0  0
   61.8648   33.6924   45.5230 H   0  0  0  0  0  0  0  0  0  0  0  0
  1  2  1  0
  2  3  1  0
  3  4  1  0
  4  5  2  0
  4  6  1  0
  6  7  1  0
  7  8  2  0
  8  9  1  0
  9 10  2  0
 10 11  1  0
 11 12  1  0
 12 13  1  0
 12 14  2  0
 12 15  2  0
 11 16  2  0
  2 17  1  0
 17 18  1  0
 18 19  2  0
 19 20  1  0
 20 21  2  0
 21 22  1  0
 21 23  1  0
 23 24  2  0
 16  7  1  0
 24 18  1  0
  1 25  1  0
  1 26  1  0
  1 27  1  0
  3 28  1  0
  3 29  1  0
  6 30  1  0
  8 31  1  0
  9 32  1  0
 10 33  1  0
 13 34  1  0
 16 35  1  0
 17 36  1  0
 17 37  1  0
 19 38  1  0
 20 39  1  0
 23 40  1  0
 24 41  1  0
M  CHG  1  13  -1
M  END
>  <UniqueID>  (36) 
34

>  <SMILES>  (36) 
CN(CC(=O)Nc1cccc(S([NH-])(=O)=O)c1)Cc1ccc(Cl)cc1

>  <Energy>  (36) 
40.89442355389563

>  <Genealogy>  (36) 
CN(CC(=O)Nc1cccc(S([NH-])(=O)=O)c1)Cc1ccc(Cl)cc1 (protonated)
CN(CC(=O)Nc1cccc(S([NH-])(=O)=O)c1)Cc1ccc(Cl)cc1 (3D coordinates assigned)
CN(CC(=O)Nc1cccc(S([NH-])(=O)=O)c1)Cc1ccc(Cl)cc1 (optimized conformer: 40.89442355389563 kcal/mol)

>  <smiles>  (36) 
CN(CC(=O)Nc1cccc(S(N)(=O)=O)c1)Cc1ccc(Cl)cc1

>  <score_type>  (36) 
oracle

>  <origin>  (36) 
adg

>  <m_score__min__energy>  (36) 
-11.970000000000001

>  <m_primary>  (36) 
energy

$$$$
36:0
     RDKit          3D

 48 50  0  0  0  0  0  0  0  0999 V2000
   58.3280   27.7580   43.8050 C   0  0  0  0  0  0  0  0  0  0  0  0
   57.4500   28.3520   44.8230 N   0  0  0  0  0  0  0  0  0  0  0  0
   56.6430   27.3460   45.5440 C   0  0  0  0  0  0  0  0  0  0  0  0
   57.3970   26.6340   46.6480 C   0  0  0  0  0  0  0  0  0  0  0  0
   56.8580   25.6500   47.2200 O   0  0  0  0  0  0  0  0  0  0  0  0
   58.7430   26.9800   47.0000 N   0  0  0  0  0  0  0  0  0  0  0  0
   59.2540   28.3080   47.1670 C   0  0  0  0  0  0  0  0  0  0  0  0
   60.2400   28.7740   46.2880 C   0  0  0  0  0  0  0  0  0  0  0  0
   60.7750   30.0560   46.4450 C   0  0  0  0  0  0  0  0  0  0  0  0
   60.3420   30.8730   47.4940 C   0  0  0  0  0  0  0  0  0  0  0  0
   59.3800   30.4020   48.3960 C   0  0  0  0  0  0  0  0  0  0  0  0
   58.8570   31.4150   49.7280 Cl  0  0  0  0  0  0  0  0  0  0  0  0
   58.8450   29.1180   48.2390 C   0  0  0  0  0  0  0  0  0  0  0  0
   56.4710   29.6220   44.1270 S   0  0  0  0  0  0  0  0  0  0  0  0
   55.1730   29.7460   44.8760 O   0  0  0  0  0  0  0  0  0  0  0  0
   56.1650   29.3230   42.6840 O   0  0  0  0  0  0  0  0  0  0  0  0
   57.3410   31.1500   44.2410 C   0  0  0  0  0  0  0  0  0  0  0  0
   57.7280   31.8190   43.0730 C   0  0  0  0  0  0  0  0  0  0  0  0
   58.3950   33.0440   43.1560 C   0  0  0  0  0  0  0  0  0  0  0  0
   58.6830   33.6030   44.4040 C   0  0  0  0  0  0  0  0  0  0  0  0
   58.3120   32.9310   45.5820 C   0  0  0  0  0  0  0  0  0  0  0  0
   58.5710   33.4870   46.8790 N   0  0  0  0  0  0  0  0  0  0  0  0
   59.5620   34.4750   47.1940 C   0  0  0  0  0  0  0  0  0  0  0  0
   59.2480   35.6920   47.1040 O   0  0  0  0  0  0  0  0  0  0  0  0
   60.9170   34.1080   47.6690 C   0  0  0  0  0  0  0  0  0  0  0  0
   61.2210   34.0710   49.0400 C   0  0  0  0  0  0  0  0  0  0  0  0
   62.5050   33.7280   49.4650 C   0  0  0  0  0  0  0  0  0  0  0  0
   63.4850   33.4360   48.5140 C   0  0  0  0  0  0  0  0  0  0  0  0
   64.6490   33.1250   48.8790 O   0  0  0  0  0  0  0  0  0  0  0  0
   63.1840   33.4910   47.1900 N   0  0  0  0  0  0  0  0  0  0  0  0
   61.9400   33.8220   46.7510 C   0  0  0  0  0  0  0  0  0  0  0  0
   57.6240   31.7160   45.4910 C   0  0  0  0  0  0  0  0  0  0  0  0
   59.1420   27.2073   44.2991 H   0  0  0  0  0  0  0  0  0  0  0  0
   57.7463   27.0672   43.1770 H   0  0  0  0  0  0  0  0  0  0  0  0
   58.7528   28.5550   43.1770 H   0  0  0  0  0  0  0  0  0  0  0  0
   55.7738   27.8527   45.9887 H   0  0  0  0  0  0  0  0  0  0  0  0
   56.3537   26.5807   44.8087 H   0  0  0  0  0  0  0  0  0  0  0  0
   60.5948   28.1286   45.4709 H   0  0  0  0  0  0  0  0  0  0  0  0
   61.5377   30.4226   45.7423 H   0  0  0  0  0  0  0  0  0  0  0  0
   60.7568   31.8851   47.6106 H   0  0  0  0  0  0  0  0  0  0  0  0
   58.1018   28.7422   48.9576 H   0  0  0  0  0  0  0  0  0  0  0  0
   57.5066   31.3796   42.0892 H   0  0  0  0  0  0  0  0  0  0  0  0
   58.6940   33.5695   42.2371 H   0  0  0  0  0  0  0  0  0  0  0  0
   59.2013   34.5713   44.4649 H   0  0  0  0  0  0  0  0  0  0  0  0
   60.4446   34.3131   49.7806 H   0  0  0  0  0  0  0  0  0  0  0  0
   62.7429   33.6880   50.5382 H   0  0  0  0  0  0  0  0  0  0  0  0
   61.7344   33.8658   45.6713 H   0  0  0  0  0  0  0  0  0  0  0  0
   57.3027   31.2010   46.4084 H   0  0  0  0  0  0  0  0  0  0  0  0
  1  2  1  0
  2  3  1  0
  3  4  1  0
  4  5  2  0
  4  6  1  0
  6  7  1  0
  7  8  2  0
  8  9  1  0
  9 10  2  0
 10 11  1  0
 11 12  1  0
 11 13  2  0
  2 14  1  0
 14 15  2  0
 14 16  2  0
 14 17  1  0
 17 18  2  0
 18 19  1  0
 19 20  2  0
 20 21  1  0
 21 22  1  0
 22 23  1  0
 23 24  2  0
 23 25  1  0
 25 26  1  0
 26 27  2  0
 27 28  1  0
 28 29  2  0
 28 30  1  0
 30 31  1  0
 21 32  2  0
 13  7  1  0
 32 17  1  0
 31 25  2  0
  1 33  1  0
  1 34  1  0
  1 35  1  0
  3 36  1  0
  3 37  1  0
  8 38  1  0
  9 39  1  0
 10 40  1  0
 13 41  1  0
 18 42  1  0
 19 43  1  0
 20 44  1  0
 26 45  1  0
 27 46  1  0
 31 47  1  0
 32 48  1  0
M  CHG  3   6  -1  22  -1  30  -1
M  END
>  <UniqueID>  (37) 
35

>  <SMILES>  (37) 
CN(CC(=O)[N-]c1cccc(Cl)c1)S(=O)(=O)c1cccc([N-]C(=O)c2ccc(=O)[n-]c2)c1

>  <Energy>  (37) 
64.98033654637425

>  <Genealogy>  (37) 
CN(CC(=O)[N-]c1cccc(Cl)c1)S(=O)(=O)c1cccc([N-]C(=O)c2ccc(=O)[n-]c2)c1 (protonated)
CN(CC(=O)[N-]c1cccc(Cl)c1)S(=O)(=O)c1cccc([N-]C(=O)c2ccc(=O)[n-]c2)c1 (3D coordinates assigned)
CN(CC(=O)[N-]c1cccc(Cl)c1)S(=O)(=O)c1cccc([N-]C(=O)c2ccc(=O)[n-]c2)c1 (optimized conformer: 64.98033654637425 kcal/mol)

>  <smiles>  (37) 
CN(CC(=O)Nc1cccc(Cl)c1)S(=O)(=O)c1cccc(NC(=O)c2ccc(=O)[nH]c2)c1

>  <score_type>  (37) 
oracle

>  <origin>  (37) 
adg

>  <m_score__min__energy>  (37) 
-14.85

>  <m_primary>  (37) 
energy

$$$$
37:0
     RDKit          3D

 47 49  0  0  0  0  0  0  0  0999 V2000
   60.1360   23.0570   45.6130 N   0  0  0  0  0  0  0  0  0  0  0  0
   58.4200   23.0150   45.4130 S   0  0  0  0  0  0  0  0  0  0  0  0
   57.8020   22.2680   46.5620 O   0  0  0  0  0  0  0  0  0  0  0  0
   58.0800   22.3000   44.1350 O   0  0  0  0  0  0  0  0  0  0  0  0
   57.7930   24.6590   45.3630 C   0  0  0  0  0  0  0  0  0  0  0  0
   58.1420   25.5160   44.3110 C   0  0  0  0  0  0  0  0  0  0  0  0
   57.6360   26.8180   44.2650 C   0  0  0  0  0  0  0  0  0  0  0  0
   56.7570   27.2750   45.2650 C   0  0  0  0  0  0  0  0  0  0  0  0
   56.2430   28.6170   45.2580 N   0  0  0  0  0  0  0  0  0  0  0  0
   56.5680   29.6010   44.2630 C   0  0  0  0  0  0  0  0  0  0  0  0
   57.0060   29.2460   43.1370 O   0  0  0  0  0  0  0  0  0  0  0  0
   56.3020   30.9880   44.4970 N   0  0  0  0  0  0  0  0  0  0  0  0
   57.2180   31.9130   45.0980 C   0  0  0  0  0  0  0  0  0  0  0  0
   58.3070   31.4710   45.8670 C   0  0  0  0  0  0  0  0  0  0  0  0
   59.1740   32.3950   46.4560 C   0  0  0  0  0  0  0  0  0  0  0  0
   58.9600   33.7710   46.2870 C   0  0  0  0  0  0  0  0  0  0  0  0
   59.8190   34.7570   46.9660 C   0  0  0  0  0  0  0  0  0  0  0  0
   59.9980   35.8830   46.4320 O   0  0  0  0  0  0  0  0  0  0  0  0
   60.4140   34.4960   48.2460 N   0  0  0  0  0  0  0  0  0  0  0  0
   59.6960   34.1600   49.4760 C   0  0  0  0  0  0  0  0  0  0  0  0
   59.6340   32.6690   49.6860 C   0  0  0  0  0  0  0  0  0  0  0  0
   60.6590   31.8370   49.2010 C   0  0  0  0  0  0  0  0  0  0  0  0
   60.5840   30.4530   49.3720 C   0  0  0  0  0  0  0  0  0  0  0  0
   59.4930   29.8870   50.0380 C   0  0  0  0  0  0  0  0  0  0  0  0
   58.4760   30.7070   50.5380 C   0  0  0  0  0  0  0  0  0  0  0  0
   57.3950   30.1450   51.2040 O   0  0  0  0  0  0  0  0  0  0  0  0
   58.5480   32.0950   50.3680 C   0  0  0  0  0  0  0  0  0  0  0  0
   57.9090   34.2100   45.4670 C   0  0  0  0  0  0  0  0  0  0  0  0
   57.0460   33.2840   44.8730 C   0  0  0  0  0  0  0  0  0  0  0  0
   56.4240   26.4170   46.3240 C   0  0  0  0  0  0  0  0  0  0  0  0
   56.9300   25.1150   46.3680 C   0  0  0  0  0  0  0  0  0  0  0  0
   60.5210   22.2270   45.1070 H   0  0  0  0  0  0  0  0  0  0  0  0
   58.8172   25.1626   43.5178 H   0  0  0  0  0  0  0  0  0  0  0  0
   57.9261   27.4891   43.4431 H   0  0  0  0  0  0  0  0  0  0  0  0
   55.5210   28.8680   45.9710 H   0  0  0  0  0  0  0  0  0  0  0  0
   58.4780   30.3933   46.0061 H   0  0  0  0  0  0  0  0  0  0  0  0
   60.0271   32.0423   47.0541 H   0  0  0  0  0  0  0  0  0  0  0  0
   60.2140   34.6206   50.3301 H   0  0  0  0  0  0  0  0  0  0  0  0
   58.6675   34.5411   49.3919 H   0  0  0  0  0  0  0  0  0  0  0  0
   61.5240   32.2786   48.6845 H   0  0  0  0  0  0  0  0  0  0  0  0
   61.3846   29.8073   48.9820 H   0  0  0  0  0  0  0  0  0  0  0  0
   59.4342   28.7964   50.1689 H   0  0  0  0  0  0  0  0  0  0  0  0
   57.7514   32.7384   50.7699 H   0  0  0  0  0  0  0  0  0  0  0  0
   57.7637   35.2861   45.2910 H   0  0  0  0  0  0  0  0  0  0  0  0
   56.2283   33.6343   44.2260 H   0  0  0  0  0  0  0  0  0  0  0  0
   55.7596   26.7718   47.1257 H   0  0  0  0  0  0  0  0  0  0  0  0
   56.6496   24.4458   47.1948 H   0  0  0  0  0  0  0  0  0  0  0  0
  1  2  1  0
  2  3  2  0
  2  4  2  0
  2  5  1  0
  5  6  2  0
  6  7  1  0
  7  8  2  0
  8  9  1  0
  9 10  1  0
 10 11  2  0
 10 12  1  0
 12 13  1  0
 13 14  2  0
 14 15  1  0
 15 16  2  0
 16 17  1  0
 17 18  2  0
 17 19  1  0
 19 20  1  0
 20 21  1  0
 21 22  2  0
 22 23  1  0
 23 24  2  0
 24 25  1  0
 25 26  1  0
 25 27  2  0
 16 28  1  0
 28 29  2  0
  8 30  1  0
 30 31  2  0
 31  5  1  0
 29 13  1  0
 27 21  1  0
  1 32  1  0
  6 33  1  0
  7 34  1  0
  9 35  1  0
 14 36  1  0
 15 37  1  0
 20 38  1  0
 20 39  1  0
 22 40  1  0
 23 41  1  0
 24 42  1  0
 27 43  1  0
 28 44  1  0
 29 45  1  0
 30 46  1  0
 31 47  1  0
M  CHG  4   1  -1  12  -1  19  -1  26  -1
M  END
>  <UniqueID>  (38) 
36

>  <SMILES>  (38) 
[NH-]S(=O)(=O)c1ccc(NC(=O)[N-]c2ccc(C(=O)[N-]Cc3cccc([O-])c3)cc2)cc1

>  <Energy>  (38) 
57.59771917066719

>  <Genealogy>  (38) 
[NH-]S(=O)(=O)c1ccc(NC(=O)[N-]c2ccc(C(=O)[N-]Cc3cccc([O-])c3)cc2)cc1 (protonated)
[NH-]S(=O)(=O)c1ccc(NC(=O)[N-]c2ccc(C(=O)[N-]Cc3cccc([O-])c3)cc2)cc1 (3D coordinates assigned)
[NH-]S(=O)(=O)c1ccc(NC(=O)[N-]c2ccc(C(=O)[N-]Cc3cccc([O-])c3)cc2)cc1 (optimized conformer: 57.59771917066719 kcal/mol)

>  <smiles>  (38) 
NS(=O)(=O)c1ccc(NC(=O)Nc2ccc(C(=O)NCc3cccc(O)c3)cc2)cc1

>  <score_type>  (38) 
oracle

>  <origin>  (38) 
adg

>  <m_score__min__energy>  (38) 
-14.82

>  <m_primary>  (38) 
energy

$$$$
38:0
     RDKit          3D

 40 42  0  0  0  0  0  0  0  0999 V2000
   54.6030   25.9730   45.9920 O   0  0  0  0  0  0  0  0  0  0  0  0
   55.8040   26.3270   45.8450 C   0  0  0  0  0  0  0  0  0  0  0  0
   56.8850   25.2920   45.8410 C   0  0  0  0  0  0  0  0  0  0  0  0
   56.8910   24.3420   47.4010 S   0  0  0  0  0  0  0  0  0  0  0  0
   56.9250   22.7400   46.5990 C   0  0  0  0  0  0  0  0  0  0  0  0
   56.5380   22.6200   45.3020 N   0  0  0  0  0  0  0  0  0  0  0  0
   56.5450   21.4110   44.6820 C   0  0  0  0  0  0  0  0  0  0  0  0
   56.1840   21.3200   43.4800 O   0  0  0  0  0  0  0  0  0  0  0  0
   56.9550   20.2730   45.3800 C   0  0  0  0  0  0  0  0  0  0  0  0
   57.3530   20.4180   46.7090 C   0  0  0  0  0  0  0  0  0  0  0  0
   57.3340   21.6440   47.2930 N   0  0  0  0  0  0  0  0  0  0  0  0
   56.1380   27.7020   45.6240 N   0  0  0  0  0  0  0  0  0  0  0  0
   57.4550   28.2750   45.6660 C   0  0  0  0  0  0  0  0  0  0  0  0
   58.5390   27.5580   46.2080 C   0  0  0  0  0  0  0  0  0  0  0  0
   59.8270   28.0970   46.1870 C   0  0  0  0  0  0  0  0  0  0  0  0
   60.0510   29.3480   45.6170 C   0  0  0  0  0  0  0  0  0  0  0  0
   58.9920   30.0620   45.0560 C   0  0  0  0  0  0  0  0  0  0  0  0
   57.6900   29.5310   45.0610 C   0  0  0  0  0  0  0  0  0  0  0  0
   56.5840   30.3100   44.4530 C   0  0  0  0  0  0  0  0  0  0  0  0
   55.8330   29.7650   43.6010 O   0  0  0  0  0  0  0  0  0  0  0  0
   56.2940   31.6550   44.8610 N   0  0  0  0  0  0  0  0  0  0  0  0
   57.2600   32.6540   45.2190 C   0  0  0  0  0  0  0  0  0  0  0  0
   57.4290   33.0770   46.5510 C   0  0  0  0  0  0  0  0  0  0  0  0
   58.3880   34.0440   46.8660 C   0  0  0  0  0  0  0  0  0  0  0  0
   59.1960   34.5820   45.8600 C   0  0  0  0  0  0  0  0  0  0  0  0
   59.0500   34.1480   44.5400 C   0  0  0  0  0  0  0  0  0  0  0  0
   58.0910   33.1810   44.2220 C   0  0  0  0  0  0  0  0  0  0  0  0
   56.7186   24.6019   45.0007 H   0  0  0  0  0  0  0  0  0  0  0  0
   57.8551   25.8002   45.7375 H   0  0  0  0  0  0  0  0  0  0  0  0
   56.9639   19.2864   44.8936 H   0  0  0  0  0  0  0  0  0  0  0  0
   57.6821   19.5398   47.2838 H   0  0  0  0  0  0  0  0  0  0  0  0
   58.3699   26.5656   46.6514 H   0  0  0  0  0  0  0  0  0  0  0  0
   60.6657   27.5330   46.6211 H   0  0  0  0  0  0  0  0  0  0  0  0
   61.0652   29.7739   45.6092 H   0  0  0  0  0  0  0  0  0  0  0  0
   59.1770   31.0485   44.6060 H   0  0  0  0  0  0  0  0  0  0  0  0
   56.8042   32.6451   47.3467 H   0  0  0  0  0  0  0  0  0  0  0  0
   58.5070   34.3818   47.9061 H   0  0  0  0  0  0  0  0  0  0  0  0
   59.9467   35.3470   46.1077 H   0  0  0  0  0  0  0  0  0  0  0  0
   59.6902   34.5674   43.7499 H   0  0  0  0  0  0  0  0  0  0  0  0
   57.9887   32.8325   43.1837 H   0  0  0  0  0  0  0  0  0  0  0  0
  1  2  2  0
  2  3  1  0
  3  4  1  0
  4  5  1  0
  5  6  2  0
  6  7  1  0
  7  8  2  0
  7  9  1  0
  9 10  2  0
 10 11  1  0
  2 12  1  0
 12 13  1  0
 13 14  2  0
 14 15  1  0
 15 16  2  0
 16 17  1  0
 17 18  2  0
 18 19  1  0
 19 20  2  0
 19 21  1  0
 21 22  1  0
 22 23  2  0
 23 24  1  0
 24 25  2  0
 25 26  1  0
 26 27  2  0
 11  5  1  0
 18 13  1  0
 27 22  1  0
  3 28  1  0
  3 29  1  0
  9 30  1  0
 10 31  1  0
 14 32  1  0
 15 33  1  0
 16 34  1  0
 17 35  1  0
 23 36  1  0
 24 37  1  0
 25 38  1  0
 26 39  1  0
 27 40  1  0
M  CHG  3  11  -1  12  -1  21  -1
M  END
>  <UniqueID>  (39) 
37

>  <SMILES>  (39) 
O=C(CSc1nc(=O)cc[n-]1)[N-]c1ccccc1C(=O)[N-]c1ccccc1

>  <Energy>  (39) 
50.27923141401922

>  <Genealogy>  (39) 
O=C(CSc1nc(=O)cc[n-]1)[N-]c1ccccc1C(=O)[N-]c1ccccc1 (protonated)
O=C(CSc1nc(=O)cc[n-]1)[N-]c1ccccc1C(=O)[N-]c1ccccc1 (3D coordinates assigned)
O=C(CSc1nc(=O)cc[n-]1)[N-]c1ccccc1C(=O)[N-]c1ccccc1 (optimized conformer: 50.27923141401922 kcal/mol)

>  <smiles>  (39) 
O=C(CSc1nc(=O)cc[nH]1)Nc1ccccc1C(=O)Nc1ccccc1

>  <score_type>  (39) 
oracle

>  <origin>  (39) 
adg

>  <m_score__min__energy>  (39) 
-14.34

>  <m_primary>  (39) 
energy

$$$$
39:0
     RDKit          3D

 24 25  0  0  0  0  0  0  0  0999 V2000
   60.3217   26.2633   46.7910 H   0  0  0  0  0  0  0  0  0  0  0  0
   59.2400   26.3520   46.6120 C   0  0  0  0  0  0  0  0  0  0  0  0
   58.7760   27.2070   45.6620 N   0  0  0  0  0  0  0  0  0  0  0  0
   57.4440   27.3430   45.3980 C   0  0  0  0  0  0  0  0  0  0  0  0
   57.0200   28.1810   44.4970 N   0  0  0  0  0  0  0  0  0  0  0  0
   56.3340   29.4180   44.7420 C   0  0  0  0  0  0  0  0  0  0  0  0
   55.1380   29.3800   45.1370 O   0  0  0  0  0  0  0  0  0  0  0  0
   56.9580   30.7250   44.4650 C   0  0  0  0  0  0  0  0  0  0  0  0
   56.8620   31.7740   45.2510 O   0  0  0  0  0  0  0  0  0  0  0  0
   57.5410   32.7590   44.7110 C   0  0  0  0  0  0  0  0  0  0  0  0
   57.6740   34.1140   45.3190 C   0  0  0  0  0  0  0  0  0  0  0  0
   57.6654   34.0263   46.4155 H   0  0  0  0  0  0  0  0  0  0  0  0
   58.6212   34.5699   44.9950 H   0  0  0  0  0  0  0  0  0  0  0  0
   56.8335   34.7454   44.9950 H   0  0  0  0  0  0  0  0  0  0  0  0
   58.1210   32.3460   43.5280 C   0  0  0  0  0  0  0  0  0  0  0  0
   58.7521   32.9429   42.8532 H   0  0  0  0  0  0  0  0  0  0  0  0
   57.7440   31.0290   43.3690 C   0  0  0  0  0  0  0  0  0  0  0  0
   58.0134   30.3580   42.5401 H   0  0  0  0  0  0  0  0  0  0  0  0
   56.5170   26.5970   46.1410 C   0  0  0  0  0  0  0  0  0  0  0  0
   55.1510   26.7250   45.9090 O   0  0  0  0  0  0  0  0  0  0  0  0
   56.9740   25.7130   47.1230 C   0  0  0  0  0  0  0  0  0  0  0  0
   56.2562   25.1185   47.7072 H   0  0  0  0  0  0  0  0  0  0  0  0
   58.3440   25.5870   47.3600 C   0  0  0  0  0  0  0  0  0  0  0  0
   58.7134   24.8919   48.1284 H   0  0  0  0  0  0  0  0  0  0  0  0
  1  2  1  0
  2  3  1  0
  3  4  1  0
  4  5  2  0
  5  6  1  0
  6  7  2  0
  6  8  1  0
  8  9  1  0
  9 10  1  0
 10 11  1  0
 11 12  1  0
 11 13  1  0
 11 14  1  0
 10 15  2  0
 15 16  1  0
 15 17  1  0
 17 18  1  0
  4 19  1  0
 19 20  1  0
 19 21  2  0
 21 22  1  0
 21 23  1  0
 23 24  1  0
 23  2  2  0
 17  8  2  0
M  CHG  2   3  -1  20  -1
M  END
>  <UniqueID>  (40) 
38

>  <SMILES>  (40) 
Cc1ccc(C(=O)/N=c2\[n-]cccc2[O-])o1

>  <Energy>  (40) 
55.57939792365169

>  <Genealogy>  (40) 
Cc1ccc(C(=O)N=c2[n-]cccc2[O-])o1 (protonated)
Cc1ccc(C(=O)/N=c2\[n-]cccc2[O-])o1 (cis-trans isomerization)
Cc1ccc(C(=O)/N=c2\[n-]cccc2[O-])o1 (3D coordinates assigned)
Cc1ccc(C(=O)/N=c2\[n-]cccc2[O-])o1 (optimized conformer: 55.57939792365169 kcal/mol)

>  <smiles>  (40) 
Cc1ccc(C(=O)N=c2[nH]cccc2O)o1

>  <score_type>  (40) 
oracle

>  <origin>  (40) 
adg

>  <m_score__min__energy>  (40) 
-11.99

>  <m_primary>  (40) 
energy

$$$$
40:0
     RDKit          3D

 72 76  0  0  1  0  0  0  0  0999 V2000
   58.4020   27.4690   43.7440 C   0  0  0  0  0  0  0  0  0  0  0  0
   57.4430   28.2810   44.3480 O   0  0  0  0  0  0  0  0  0  0  0  0
   57.6750   29.5430   44.8740 C   0  0  0  0  0  0  0  0  0  0  0  0
   57.4710   30.7120   44.1760 C   0  0  0  0  0  0  0  0  0  0  0  0
   57.7080   31.9460   44.7240 C   0  0  0  0  0  0  0  0  0  0  0  0
   57.4980   33.0830   44.0140 N   0  0  0  0  0  0  0  0  0  0  0  0
   57.7390   34.2810   44.5720 C   0  0  0  0  0  0  0  0  0  0  0  0
   58.1960   34.3730   45.8550 N   0  0  0  0  0  0  0  0  0  0  0  0
   58.4060   33.2310   46.5660 C   0  0  0  0  0  0  0  0  0  0  0  0
   58.8450   33.3770   47.7920 N   0  0  0  0  0  0  0  0  0  0  0  0
   60.2460   33.3910   48.0410 C   0  0  0  0  0  0  0  0  0  0  0  0
   61.1120   33.2020   46.9880 C   0  0  0  0  0  0  0  0  0  0  0  0
   62.4760   33.2130   47.2140 C   0  0  0  0  0  0  0  0  0  0  0  0
   63.0460   33.4050   48.4490 C   0  0  0  0  0  0  0  0  0  0  0  0
   64.3450   33.4320   48.7710 O   0  0  0  0  0  0  0  0  0  0  0  0
   65.1760   32.9070   49.7080 C   0  0  0  0  0  0  0  0  0  0  0  0
   64.5090   32.2280   50.8380 C   0  0  0  0  0  0  0  0  0  0  0  0
   64.1700   30.9050   50.8910 C   0  0  0  0  0  0  0  0  0  0  0  0
   63.5390   30.3050   51.9620 C   0  0  0  0  0  0  0  0  0  0  0  0
   63.2230   31.0840   53.0650 C   0  0  0  0  0  0  0  0  0  0  0  0
   63.5580   32.4270   53.0310 C   0  0  0  0  0  0  0  0  0  0  0  0
   63.2570   33.2140   54.1080 F   0  0  0  0  0  0  0  0  0  0  0  0
   64.1890   33.0110   51.9520 C   0  0  0  0  0  0  0  0  0  0  0  0
   62.1280   33.5950   49.5040 C   0  0  0  0  0  0  0  0  0  0  0  0
   60.7720   33.5870   49.2980 C   0  0  0  0  0  0  0  0  0  0  0  0
   59.6900   33.8330   50.6740 Cl  0  0  0  0  0  0  0  0  0  0  0  0
   58.1730   31.9810   46.0310 C   0  0  0  0  0  0  0  0  0  0  0  0
   58.3900   30.8470   46.7640 C   0  0  0  0  0  0  0  0  0  0  0  0
   58.1370   29.6120   46.1730 C   0  0  0  0  0  0  0  0  0  0  0  0
   58.3510   28.4470   46.8980 O   0  0  0  0  0  0  0  0  0  0  0  0
   58.8730   28.5800   48.2070 C   0  0  0  0  0  0  0  0  0  0  0  0
   60.3800   28.6840   48.2060 C   0  0  0  0  0  0  0  0  0  0  0  0
   60.8080   30.0190   48.7230 C   0  0  0  0  0  0  0  0  0  0  0  0
   60.3480   30.2850   50.1250 C   0  0  0  0  0  0  0  0  0  0  0  0
   60.3200   29.0640   50.9970 C   0  0  0  0  0  0  0  0  0  0  0  0
   59.6960   29.4140   52.3530 C   0  0  0  0  0  0  0  0  0  0  0  0
   58.5230   30.2270   52.2110 N   0  0  0  0  0  0  0  0  0  0  0  0
   58.4130   31.5020   52.6720 C   0  0  0  0  0  0  0  0  0  0  0  0
   57.1420   31.9470   52.3440 C   0  0  0  0  0  0  0  0  0  0  0  0
   56.5360   30.8850   51.6820 C   0  0  0  0  0  0  0  0  0  0  0  0
   57.4000   29.8760   51.6250 N   0  0  0  0  0  0  0  0  0  0  0  0
   58.9971   26.9651   44.5199 H   0  0  0  0  0  0  0  0  0  0  0  0
   57.9024   26.7152   43.1178 H   0  0  0  0  0  0  0  0  0  0  0  0
   59.0631   28.0861   43.1178 H   0  0  0  0  0  0  0  0  0  0  0  0
   57.1044   30.6537   43.1405 H   0  0  0  0  0  0  0  0  0  0  0  0
   57.1500   33.0600   43.0310 H   0  0  0  0  0  0  0  0  0  0  0  0
   57.5662   35.1976   43.9888 H   0  0  0  0  0  0  0  0  0  0  0  0
   60.7210   33.0431   45.9722 H   0  0  0  0  0  0  0  0  0  0  0  0
   63.1443   33.0589   46.3540 H   0  0  0  0  0  0  0  0  0  0  0  0
   65.8293   32.1752   49.2103 H   0  0  0  0  0  0  0  0  0  0  0  0
   65.7179   33.7592   50.1439 H   0  0  0  0  0  0  0  0  0  0  0  0
   64.4164   30.2766   50.0224 H   0  0  0  0  0  0  0  0  0  0  0  0
   63.2924   29.2332   51.9411 H   0  0  0  0  0  0  0  0  0  0  0  0
   62.7210   30.6477   53.9411 H   0  0  0  0  0  0  0  0  0  0  0  0
   64.4381   34.0823   51.9676 H   0  0  0  0  0  0  0  0  0  0  0  0
   62.5117   33.7544   50.5225 H   0  0  0  0  0  0  0  0  0  0  0  0
   58.7569   30.9093   47.7991 H   0  0  0  0  0  0  0  0  0  0  0  0
   58.4544   29.4878   48.6660 H   0  0  0  0  0  0  0  0  0  0  0  0
   58.5942   27.6817   48.7775 H   0  0  0  0  0  0  0  0  0  0  0  0
   60.7986   27.8950   48.8480 H   0  0  0  0  0  0  0  0  0  0  0  0
   60.7462   28.5651   47.1756 H   0  0  0  0  0  0  0  0  0  0  0  0
   61.9067   30.0666   48.7007 H   0  0  0  0  0  0  0  0  0  0  0  0
   60.3480   30.7820   48.0779 H   0  0  0  0  0  0  0  0  0  0  0  0
   61.0288   31.0198   50.5795 H   0  0  0  0  0  0  0  0  0  0  0  0
   59.3137   30.6534   50.0575 H   0  0  0  0  0  0  0  0  0  0  0  0
   59.7213   28.2801   50.5100 H   0  0  0  0  0  0  0  0  0  0  0  0
   61.3471   28.7013   51.1505 H   0  0  0  0  0  0  0  0  0  0  0  0
   59.4218   28.4820   52.8689 H   0  0  0  0  0  0  0  0  0  0  0  0
   60.4374   29.9854   52.9308 H   0  0  0  0  0  0  0  0  0  0  0  0
   59.1875   32.0729   53.2051 H   0  0  0  0  0  0  0  0  0  0  0  0
   56.7048   32.9327   52.5616 H   0  0  0  0  0  0  0  0  0  0  0  0
   55.5144   30.8804   51.2743 H   0  0  0  0  0  0  0  0  0  0  0  0
  1  2  1  0
  2  3  1  0
  3  4  2  0
  4  5  1  0
  5  6  1  0
  6  7  1  0
  7  8  2  0
  8  9  1  0
  9 10  2  0
 10 11  1  0
 11 12  2  0
 12 13  1  0
 13 14  2  0
 14 15  1  0
 15 16  1  0
 16 17  1  0
 17 18  2  0
 18 19  1  0
 19 20  2  0
 20 21  1  0
 21 22  1  0
 21 23  2  0
 14 24  1  0
 24 25  2  0
 25 26  1  0
  9 27  1  0
 27 28  1  0
 28 29  2  0
 29 30  1  0
 30 31  1  0
 31 32  1  0
 32 33  1  0
 33 34  1  0
 34 35  1  0
 35 36  1  0
 36 37  1  0
 37 38  1  0
 38 39  2  0
 39 40  1  0
 40 41  2  0
 29  3  1  0
 41 37  1  0
 27  5  2  0
 25 11  1  0
 23 17  1  0
  1 42  1  0
  1 43  1  0
  1 44  1  0
  4 45  1  0
  6 46  1  0
  7 47  1  0
 12 48  1  0
 13 49  1  0
 16 50  1  0
 16 51  1  0
 18 52  1  0
 19 53  1  0
 20 54  1  0
 23 55  1  0
 24 56  1  0
 28 57  1  0
 31 58  1  0
 31 59  1  0
 32 60  1  0
 32 61  1  0
 33 62  1  0
 33 63  1  0
 34 64  1  0
 34 65  1  0
 35 66  1  0
 35 67  1  0
 36 68  1  0
 36 69  1  0
 38 70  1  0
 39 71  1  0
 40 72  1  0
M  END
>  <smiles>  (41) 
COc1cc2[nH]cnc(=Nc3ccc(OCc4cccc(F)c4)cc3Cl)c2cc1OCCCCCCn1cccn1

>  <score_type>  (41) 
oracle

>  <origin>  (41) 
adg

>  <m_score__min__energy>  (41) 
-9.3599999999999994

>  <m_primary>  (41) 
energy

$$$$
41:0
     RDKit          3D

 30 31  0  0  0  0  0  0  0  0999 V2000
   53.6430   24.8490   45.6130 C   0  0  0  0  0  0  0  0  0  0  0  0
   54.6260   25.8960   45.8530 N   0  0  0  0  0  0  0  0  0  0  0  0
   55.9860   25.6140   46.1990 C   0  0  0  0  0  0  0  0  0  0  0  0
   56.2800   25.2230   47.3600 O   0  0  0  0  0  0  0  0  0  0  0  0
   57.0240   25.7750   45.2320 N   0  0  0  0  0  0  0  0  0  0  0  0
   57.9590   26.8930   45.2550 C   0  0  0  0  0  0  0  0  0  0  0  0
   57.7140   27.7660   46.4870 C   0  0  0  0  0  0  0  0  0  0  0  0
   57.9650   29.2250   46.1940 C   0  0  0  0  0  0  0  0  0  0  0  0
   57.2660   30.0480   45.2940 C   0  0  0  0  0  0  0  0  0  0  0  0
   56.1150   29.6890   44.4430 C   0  0  0  0  0  0  0  0  0  0  0  0
   55.1570   29.0030   44.8830 O   0  0  0  0  0  0  0  0  0  0  0  0
   56.0910   30.1060   43.1180 O   0  0  0  0  0  0  0  0  0  0  0  0
   57.7910   31.2940   45.2630 N   0  0  0  0  0  0  0  0  0  0  0  0
   58.8230   31.2650   46.1230 C   0  0  0  0  0  0  0  0  0  0  0  0
   59.6700   32.3310   46.4080 C   0  0  0  0  0  0  0  0  0  0  0  0
   60.7150   32.1240   47.3210 C   0  0  0  0  0  0  0  0  0  0  0  0
   61.8080   33.4380   47.7100 Cl  0  0  0  0  0  0  0  0  0  0  0  0
   60.8900   30.8620   47.9230 C   0  0  0  0  0  0  0  0  0  0  0  0
   60.0250   29.7940   47.6230 C   0  0  0  0  0  0  0  0  0  0  0  0
   60.3150   28.2450   48.4010 Cl  0  0  0  0  0  0  0  0  0  0  0  0
   58.9780   30.0290   46.7080 C   0  0  0  0  0  0  0  0  0  0  0  0
   53.2785   24.4607   46.5755 H   0  0  0  0  0  0  0  0  0  0  0  0
   52.7992   25.2624   45.0411 H   0  0  0  0  0  0  0  0  0  0  0  0
   54.1087   24.0329   45.0411 H   0  0  0  0  0  0  0  0  0  0  0  0
   58.9878   26.5048   45.2843 H   0  0  0  0  0  0  0  0  0  0  0  0
   57.8109   27.5014   44.3506 H   0  0  0  0  0  0  0  0  0  0  0  0
   56.6701   27.6415   46.8106 H   0  0  0  0  0  0  0  0  0  0  0  0
   58.4111   27.4492   47.2768 H   0  0  0  0  0  0  0  0  0  0  0  0
   59.5242   33.3109   45.9299 H   0  0  0  0  0  0  0  0  0  0  0  0
   61.7133   30.7101   48.6365 H   0  0  0  0  0  0  0  0  0  0  0  0
  1  2  1  0
  2  3  1  0
  3  4  2  0
  3  5  1  0
  5  6  1  0
  6  7  1  0
  7  8  1  0
  8  9  2  0
  9 10  1  0
 10 11  2  0
 10 12  1  0
  9 13  1  0
 13 14  1  0
 14 15  2  0
 15 16  1  0
 16 17  1  0
 16 18  2  0
 18 19  1  0
 19 20  1  0
 19 21  2  0
 21  8  1  0
 21 14  1  0
  1 22  1  0
  1 23  1  0
  1 24  1  0
  6 25  1  0
  6 26  1  0
  7 27  1  0
  7 28  1  0
 15 29  1  0
 18 30  1  0
M  CHG  4   2  -1   5  -1  12  -1  13  -1
M  END
>  <UniqueID>  (42) 
39

>  <SMILES>  (42) 
C[N-]C(=O)[N-]CCc1c(C(=O)[O-])[n-]c2cc(Cl)cc(Cl)c12

>  <Energy>  (42) 
57.41442014602816

>  <Genealogy>  (42) 
C[N-]C(=O)[N-]CCc1c(C(=O)[O-])[n-]c2cc(Cl)cc(Cl)c12 (protonated)
C[N-]C(=O)[N-]CCc1c(C(=O)[O-])[n-]c2cc(Cl)cc(Cl)c12 (3D coordinates assigned)
C[N-]C(=O)[N-]CCc1c(C(=O)[O-])[n-]c2cc(Cl)cc(Cl)c12 (optimized conformer: 57.41442014602816 kcal/mol)

>  <smiles>  (42) 
CNC(=O)NCCc1c(C(=O)O)[nH]c2cc(Cl)cc(Cl)c12

>  <score_type>  (42) 
oracle

>  <origin>  (42) 
adg

>  <m_score__min__energy>  (42) 
-14.609999999999999

>  <m_primary>  (42) 
energy

$$$$
42:0
     RDKit          3D

 54 57  0  0  0  0  0  0  0  0999 V2000
   57.0580   29.1210   46.0160 O   0  0  0  0  0  0  0  0  0  0  0  0
   56.7840   29.8950   44.7560 S   0  0  0  0  0  0  0  0  0  0  0  0
   55.2990   30.0850   44.6250 O   0  0  0  0  0  0  0  0  0  0  0  0
   57.3730   29.0040   43.3840 N   0  0  0  0  0  0  0  0  0  0  0  0
   58.3020   27.9660   43.8410 C   0  0  0  0  0  0  0  0  0  0  0  0
   59.5430   28.5990   44.4760 C   0  0  0  0  0  0  0  0  0  0  0  0
   59.8430   27.9570   45.7980 C   0  0  0  0  0  0  0  0  0  0  0  0
   59.9170   26.5960   46.0740 C   0  0  0  0  0  0  0  0  0  0  0  0
   60.1430   26.4090   47.3630 O   0  0  0  0  0  0  0  0  0  0  0  0
   60.2100   27.5890   47.9340 C   0  0  0  0  0  0  0  0  0  0  0  0
   60.4180   27.8720   49.2810 C   0  0  0  0  0  0  0  0  0  0  0  0
   60.4260   29.2230   49.6770 C   0  0  0  0  0  0  0  0  0  0  0  0
   60.2300   30.2540   48.7250 C   0  0  0  0  0  0  0  0  0  0  0  0
   60.2250   31.9430   49.2360 S   0  0  0  0  0  0  0  0  0  0  0  0
   58.9520   32.5970   48.7770 O   0  0  0  0  0  0  0  0  0  0  0  0
   60.2640   32.0030   50.7380 O   0  0  0  0  0  0  0  0  0  0  0  0
   61.5950   32.8130   48.5900 N   0  0  0  0  0  0  0  0  0  0  0  0
   62.7950   31.9610   48.6020 C   0  0  0  0  0  0  0  0  0  0  0  0
   64.0470   32.7940   48.2690 C   0  0  0  0  0  0  0  0  0  0  0  0
   63.7120   34.0640   47.4680 C   0  0  0  0  0  0  0  0  0  0  0  0
   62.5570   33.8130   46.4950 C   0  0  0  0  0  0  0  0  0  0  0  0
   61.2980   33.2880   47.2220 C   0  0  0  0  0  0  0  0  0  0  0  0
   60.0320   29.9310   47.3680 C   0  0  0  0  0  0  0  0  0  0  0  0
   60.0300   28.5830   47.0120 C   0  0  0  0  0  0  0  0  0  0  0  0
   57.5630   31.4750   44.8260 C   0  0  0  0  0  0  0  0  0  0  0  0
   57.9570   32.1310   43.6490 C   0  0  0  0  0  0  0  0  0  0  0  0
   58.5190   33.4110   43.7130 C   0  0  0  0  0  0  0  0  0  0  0  0
   58.6870   34.0410   44.9500 C   0  0  0  0  0  0  0  0  0  0  0  0
   59.2270   35.2840   45.0090 F   0  0  0  0  0  0  0  0  0  0  0  0
   58.2920   33.3930   46.1230 C   0  0  0  0  0  0  0  0  0  0  0  0
   57.7290   32.1140   46.0620 C   0  0  0  0  0  0  0  0  0  0  0  0
   57.9050   29.6880   42.7990 H   0  0  0  0  0  0  0  0  0  0  0  0
   57.7983   27.3315   44.5851 H   0  0  0  0  0  0  0  0  0  0  0  0
   58.6137   27.3618   42.9763 H   0  0  0  0  0  0  0  0  0  0  0  0
   60.4030   28.4624   43.8039 H   0  0  0  0  0  0  0  0  0  0  0  0
   59.3530   29.6706   44.6362 H   0  0  0  0  0  0  0  0  0  0  0  0
   59.8042   25.7938   45.3299 H   0  0  0  0  0  0  0  0  0  0  0  0
   60.5713   27.0654   50.0130 H   0  0  0  0  0  0  0  0  0  0  0  0
   60.5858   29.4804   50.7345 H   0  0  0  0  0  0  0  0  0  0  0  0
   62.9121   31.5135   49.6000 H   0  0  0  0  0  0  0  0  0  0  0  0
   62.6798   31.1710   47.8453 H   0  0  0  0  0  0  0  0  0  0  0  0
   64.5355   33.0884   49.2095 H   0  0  0  0  0  0  0  0  0  0  0  0
   64.7081   32.1713   47.6484 H   0  0  0  0  0  0  0  0  0  0  0  0
   63.4260   34.8643   48.1664 H   0  0  0  0  0  0  0  0  0  0  0  0
   64.6001   34.3560   46.8883 H   0  0  0  0  0  0  0  0  0  0  0  0
   62.3076   34.7565   45.9874 H   0  0  0  0  0  0  0  0  0  0  0  0
   62.8785   33.0484   45.7725 H   0  0  0  0  0  0  0  0  0  0  0  0
   60.5600   34.1014   47.2828 H   0  0  0  0  0  0  0  0  0  0  0  0
   60.9099   32.4343   46.6471 H   0  0  0  0  0  0  0  0  0  0  0  0
   59.8837   30.7174   46.6133 H   0  0  0  0  0  0  0  0  0  0  0  0
   57.8237   31.6380   42.6747 H   0  0  0  0  0  0  0  0  0  0  0  0
   58.8289   33.9220   42.7895 H   0  0  0  0  0  0  0  0  0  0  0  0
   58.4239   33.8893   47.0958 H   0  0  0  0  0  0  0  0  0  0  0  0
   57.4156   31.6082   46.9872 H   0  0  0  0  0  0  0  0  0  0  0  0
  1  2  2  0
  2  3  2  0
  2  4  1  0
  4  5  1  0
  5  6  1  0
  6  7  1  0
  7  8  2  0
  8  9  1  0
  9 10  1  0
 10 11  2  0
 11 12  1  0
 12 13  2  0
 13 14  1  0
 14 15  2  0
 14 16  2  0
 14 17  1  0
 17 18  1  0
 18 19  1  0
 19 20  1  0
 20 21  1  0
 21 22  1  0
 13 23  1  0
 23 24  2  0
  2 25  1  0
 25 26  2  0
 26 27  1  0
 27 28  2  0
 28 29  1  0
 28 30  1  0
 30 31  2  0
 24  7  1  0
 31 25  1  0
 24 10  1  0
 22 17  1  0
  4 32  1  0
  5 33  1  0
  5 34  1  0
  6 35  1  0
  6 36  1  0
  8 37  1  0
 11 38  1  0
 12 39  1  0
 18 40  1  0
 18 41  1  0
 19 42  1  0
 19 43  1  0
 20 44  1  0
 20 45  1  0
 21 46  1  0
 21 47  1  0
 22 48  1  0
 22 49  1  0
 23 50  1  0
 26 51  1  0
 27 52  1  0
 30 53  1  0
 31 54  1  0
M  END
>  <UniqueID>  (43) 
40

>  <SMILES>  (43) 
O=S(=O)(NCCc1coc2ccc(S(=O)(=O)N3CCCCC3)cc12)c1ccc(F)cc1

>  <Energy>  (43) 
86.23737053847768

>  <Genealogy>  (43) 
O=S(=O)(NCCc1coc2ccc(S(=O)(=O)N3CCCCC3)cc12)c1ccc(F)cc1 (3D coordinates assigned)
O=S(=O)(NCCc1coc2ccc(S(=O)(=O)N3CCCCC3)cc12)c1ccc(F)cc1 (nonaromatic ring conformer: 86.23737053847768 kcal/mol)

>  <smiles>  (43) 
O=S(=O)(NCCc1coc2ccc(S(=O)(=O)N3CCCCC3)cc12)c1ccc(F)cc1

>  <score_type>  (43) 
oracle

>  <origin>  (43) 
adg

>  <m_score__min__energy>  (43) 
-10.75

>  <m_primary>  (43) 
energy

$$$$
43:0
     RDKit          3D

 34 36  0  0  0  0  0  0  0  0999 V2000
   59.7300   30.2850   45.5240 O   0  0  0  0  0  0  0  0  0  0  0  0
   58.5790   29.5130   45.4260 C   0  0  0  0  0  0  0  0  0  0  0  0
   58.5240   28.1470   45.6150 C   0  0  0  0  0  0  0  0  0  0  0  0
   57.2170   27.7790   45.4420 C   0  0  0  0  0  0  0  0  0  0  0  0
   56.5170   28.9340   45.1550 C   0  0  0  0  0  0  0  0  0  0  0  0
   55.1480   29.0020   44.9220 O   0  0  0  0  0  0  0  0  0  0  0  0
   57.3490   30.0020   45.1370 N   0  0  0  0  0  0  0  0  0  0  0  0
   56.9650   31.4010   44.8960 C   0  0  0  0  0  0  0  0  0  0  0  0
   57.4940   31.9080   43.5260 C   0  0  0  0  0  0  0  0  0  0  0  0
   58.5230   33.0390   43.6560 C   0  0  0  0  0  0  0  0  0  0  0  0
   57.9820   34.2100   44.4940 C   0  0  0  0  0  0  0  0  0  0  0  0
   57.1980   33.7690   45.7500 C   0  0  0  0  0  0  0  0  0  0  0  0
   57.3960   32.2860   46.0830 C   0  0  0  0  0  0  0  0  0  0  0  0
   56.7130   26.3790   45.5800 C   0  0  0  0  0  0  0  0  0  0  0  0
   57.8330   25.4020   45.8810 C   0  0  0  0  0  0  0  0  0  0  0  0
   57.4140   23.7000   46.0270 Cl  0  0  0  0  0  0  0  0  0  0  0  0
   59.1250   25.7690   46.0510 C   0  0  0  0  0  0  0  0  0  0  0  0
   59.6240   27.1980   45.9630 C   0  0  0  0  0  0  0  0  0  0  0  0
   55.8687   31.4645   44.8315 H   0  0  0  0  0  0  0  0  0  0  0  0
   57.9657   31.0650   42.9998 H   0  0  0  0  0  0  0  0  0  0  0  0
   56.6333   32.3114   42.9724 H   0  0  0  0  0  0  0  0  0  0  0  0
   59.4280   32.6431   44.1399 H   0  0  0  0  0  0  0  0  0  0  0  0
   58.7467   33.4154   42.6469 H   0  0  0  0  0  0  0  0  0  0  0  0
   58.8330   34.8282   44.8159 H   0  0  0  0  0  0  0  0  0  0  0  0
   57.2777   34.7625   43.8547 H   0  0  0  0  0  0  0  0  0  0  0  0
   57.5386   34.3700   46.6060 H   0  0  0  0  0  0  0  0  0  0  0  0
   56.1284   33.9224   45.5438 H   0  0  0  0  0  0  0  0  0  0  0  0
   58.4582   32.1036   46.3030 H   0  0  0  0  0  0  0  0  0  0  0  0
   56.7776   32.0331   46.9568 H   0  0  0  0  0  0  0  0  0  0  0  0
   55.9805   26.3439   46.3999 H   0  0  0  0  0  0  0  0  0  0  0  0
   56.2530   26.0865   44.6246 H   0  0  0  0  0  0  0  0  0  0  0  0
   59.8600   24.9796   46.2669 H   0  0  0  0  0  0  0  0  0  0  0  0
   60.0502   27.4873   46.9350 H   0  0  0  0  0  0  0  0  0  0  0  0
   60.3837   27.2476   45.1690 H   0  0  0  0  0  0  0  0  0  0  0  0
  1  2  1  0
  2  3  2  0
  3  4  1  0
  4  5  2  0
  5  6  1  0
  5  7  1  0
  7  8  1  0
  8  9  1  0
  9 10  1  0
 10 11  1  0
 11 12  1  0
 12 13  1  0
  4 14  1  0
 14 15  1  0
 15 16  1  0
 15 17  2  0
 17 18  1  0
  7  2  1  0
 13  8  1  0
 18  3  1  0
  8 19  1  0
  9 20  1  0
  9 21  1  0
 10 22  1  0
 10 23  1  0
 11 24  1  0
 11 25  1  0
 12 26  1  0
 12 27  1  0
 13 28  1  0
 13 29  1  0
 14 30  1  0
 14 31  1  0
 17 32  1  0
 18 33  1  0
 18 34  1  0
M  CHG  2   1  -1   6  -1
M  END
>  <UniqueID>  (44) 
41

>  <SMILES>  (44) 
[O-]c1c2c(c([O-])n1C1CCCCC1)CC(Cl)=CC2

>  <Energy>  (44) 
70.21607216897713

>  <Genealogy>  (44) 
[O-]c1c2c(c([O-])n1C1CCCCC1)CC(Cl)=CC2 (protonated)
[O-]c1c2c(c([O-])n1C1CCCCC1)CC(Cl)=CC2 (3D coordinates assigned)
[O-]c1c2c(c([O-])n1C1CCCCC1)CC(Cl)=CC2 (nonaromatic ring conformer: 70.21607216897713 kcal/mol)

>  <smiles>  (44) 
Oc1c2c(c(O)n1C1CCCCC1)CC(Cl)=CC2

>  <score_type>  (44) 
oracle

>  <origin>  (44) 
adg

>  <m_score__min__energy>  (44) 
-11.380000000000001

>  <m_primary>  (44) 
energy

$$$$
44:0
     RDKit          3D

 39 41  0  0  0  0  0  0  0  0999 V2000
   61.1120   26.7610   47.8650 C   0  0  0  0  0  0  0  0  0  0  0  0
   59.9410   27.0530   46.9910 C   0  0  0  0  0  0  0  0  0  0  0  0
   59.9930   27.3280   45.6290 C   0  0  0  0  0  0  0  0  0  0  0  0
   58.7290   27.4830   45.0490 C   0  0  0  0  0  0  0  0  0  0  0  0
   57.6840   27.3140   45.9520 C   0  0  0  0  0  0  0  0  0  0  0  0
   56.2520   27.4030   45.6410 C   0  0  0  0  0  0  0  0  0  0  0  0
   55.5010   26.4200   45.8830 O   0  0  0  0  0  0  0  0  0  0  0  0
   55.7120   28.6220   45.1150 N   0  0  0  0  0  0  0  0  0  0  0  0
   56.4530   29.7040   44.5300 C   0  0  0  0  0  0  0  0  0  0  0  0
   56.3090   30.0600   43.1770 C   0  0  0  0  0  0  0  0  0  0  0  0
   57.0800   31.0920   42.6370 C   0  0  0  0  0  0  0  0  0  0  0  0
   58.0000   31.7740   43.4370 C   0  0  0  0  0  0  0  0  0  0  0  0
   58.1560   31.4320   44.7870 C   0  0  0  0  0  0  0  0  0  0  0  0
   59.1340   32.1260   45.5820 N   0  0  0  0  0  0  0  0  0  0  0  0
   59.8630   31.5220   46.6650 C   0  0  0  0  0  0  0  0  0  0  0  0
   59.4550   30.4420   47.1720 O   0  0  0  0  0  0  0  0  0  0  0  0
   61.0840   32.1740   47.1970 C   0  0  0  0  0  0  0  0  0  0  0  0
   62.2840   31.4400   47.2470 C   0  0  0  0  0  0  0  0  0  0  0  0
   63.4500   32.0140   47.7590 C   0  0  0  0  0  0  0  0  0  0  0  0
   63.4360   33.3270   48.2260 C   0  0  0  0  0  0  0  0  0  0  0  0
   62.2580   34.0720   48.1800 C   0  0  0  0  0  0  0  0  0  0  0  0
   61.0810   33.5100   47.6700 C   0  0  0  0  0  0  0  0  0  0  0  0
   59.6520   34.5380   47.5910 Cl  0  0  0  0  0  0  0  0  0  0  0  0
   57.3950   30.3750   45.3200 C   0  0  0  0  0  0  0  0  0  0  0  0
   58.3300   26.9680   47.4690 S   0  0  0  0  0  0  0  0  0  0  0  0
   60.8099   26.8363   48.9200 H   0  0  0  0  0  0  0  0  0  0  0  0
   61.4780   25.7441   47.6601 H   0  0  0  0  0  0  0  0  0  0  0  0
   61.9126   27.4870   47.6601 H   0  0  0  0  0  0  0  0  0  0  0  0
   60.9330   27.4149   45.0644 H   0  0  0  0  0  0  0  0  0  0  0  0
   58.5766   27.7154   43.9847 H   0  0  0  0  0  0  0  0  0  0  0  0
   55.5875   29.5244   42.5425 H   0  0  0  0  0  0  0  0  0  0  0  0
   56.9624   31.3685   41.5788 H   0  0  0  0  0  0  0  0  0  0  0  0
   58.6055   32.5842   43.0047 H   0  0  0  0  0  0  0  0  0  0  0  0
   59.2490   33.1530   45.4300 H   0  0  0  0  0  0  0  0  0  0  0  0
   62.3038   30.4036   46.8790 H   0  0  0  0  0  0  0  0  0  0  0  0
   64.3807   31.4287   47.7936 H   0  0  0  0  0  0  0  0  0  0  0  0
   64.3548   33.7760   48.6312 H   0  0  0  0  0  0  0  0  0  0  0  0
   62.2533   35.1089   48.5471 H   0  0  0  0  0  0  0  0  0  0  0  0
   57.5414   30.0728   46.3675 H   0  0  0  0  0  0  0  0  0  0  0  0
  1  2  1  0
  2  3  2  0
  3  4  1  0
  4  5  2  0
  5  6  1  0
  6  7  2  0
  6  8  1  0
  8  9  1  0
  9 10  2  0
 10 11  1  0
 11 12  2  0
 12 13  1  0
 13 14  1  0
 14 15  1  0
 15 16  2  0
 15 17  1  0
 17 18  2  0
 18 19  1  0
 19 20  2  0
 20 21  1  0
 21 22  2  0
 22 23  1  0
 13 24  2  0
  5 25  1  0
 25  2  1  0
 24  9  1  0
 22 17  1  0
  1 26  1  0
  1 27  1  0
  1 28  1  0
  3 29  1  0
  4 30  1  0
 10 31  1  0
 11 32  1  0
 12 33  1  0
 14 34  1  0
 18 35  1  0
 19 36  1  0
 20 37  1  0
 21 38  1  0
 24 39  1  0
M  CHG  1   8  -1
M  END
>  <UniqueID>  (45) 
42

>  <SMILES>  (45) 
Cc1ccc(C(=O)[N-]c2cccc(NC(=O)c3ccccc3Cl)c2)s1

>  <Energy>  (45) 
77.4688054146424

>  <Genealogy>  (45) 
Cc1ccc(C(=O)[N-]c2cccc(NC(=O)c3ccccc3Cl)c2)s1 (protonated)
Cc1ccc(C(=O)[N-]c2cccc(NC(=O)c3ccccc3Cl)c2)s1 (3D coordinates assigned)
Cc1ccc(C(=O)[N-]c2cccc(NC(=O)c3ccccc3Cl)c2)s1 (optimized conformer: 77.4688054146424 kcal/mol)

>  <smiles>  (45) 
Cc1ccc(C(=O)Nc2cccc(NC(=O)c3ccccc3Cl)c2)s1

>  <score_type>  (45) 
oracle

>  <origin>  (45) 
adg

>  <m_score__min__energy>  (45) 
-11.25

>  <m_primary>  (45) 
energy

$$$$
45:0
     RDKit          3D

 58 61  0  0  0  0  0  0  0  0999 V2000
   67.3180   35.2930   51.6310 C   0  0  0  0  0  0  0  0  0  0  0  0
   66.1890   34.4440   51.5010 O   0  0  0  0  0  0  0  0  0  0  0  0
   65.0850   33.6110   51.3780 C   0  0  0  0  0  0  0  0  0  0  0  0
   63.8320   34.0650   51.7930 C   0  0  0  0  0  0  0  0  0  0  0  0
   62.7070   33.2530   51.6550 C   0  0  0  0  0  0  0  0  0  0  0  0
   62.8150   31.9880   51.0510 C   0  0  0  0  0  0  0  0  0  0  0  0
   61.6780   31.1230   50.8710 N   0  0  0  0  0  0  0  0  0  0  0  0
   61.3670   30.4480   49.8000 C   0  0  0  0  0  0  0  0  0  0  0  0
   60.9800   29.1500   49.8710 N   0  0  0  0  0  0  0  0  0  0  0  0
   60.6790   28.4520   48.7510 C   0  0  0  0  0  0  0  0  0  0  0  0
   60.3560   27.2400   48.8610 O   0  0  0  0  0  0  0  0  0  0  0  0
   60.7420   29.0580   47.5240 N   0  0  0  0  0  0  0  0  0  0  0  0
   60.4440   28.3020   46.2910 C   0  0  0  0  0  0  0  0  0  0  0  0
   59.0140   28.5130   45.8610 C   0  0  0  0  0  0  0  0  0  0  0  0
   58.0220   27.5870   46.2210 C   0  0  0  0  0  0  0  0  0  0  0  0
   56.7050   27.7550   45.7860 C   0  0  0  0  0  0  0  0  0  0  0  0
   56.3610   28.8500   44.9870 C   0  0  0  0  0  0  0  0  0  0  0  0
   55.0610   28.9660   44.5050 O   0  0  0  0  0  0  0  0  0  0  0  0
   57.3360   29.8090   44.6570 C   0  0  0  0  0  0  0  0  0  0  0  0
   57.0050   30.9700   43.8130 C   0  0  0  0  0  0  0  0  0  0  0  0
   56.3720   30.7840   42.7410 O   0  0  0  0  0  0  0  0  0  0  0  0
   57.4120   32.3000   44.1500 N   0  0  0  0  0  0  0  0  0  0  0  0
   56.9870   33.0450   45.3320 C   0  0  0  0  0  0  0  0  0  0  0  0
   58.1780   33.4280   46.1690 C   0  0  0  0  0  0  0  0  0  0  0  0
   58.2300   33.0540   47.5220 C   0  0  0  0  0  0  0  0  0  0  0  0
   59.3310   33.4020   48.3090 C   0  0  0  0  0  0  0  0  0  0  0  0
   60.3820   34.1380   47.7530 C   0  0  0  0  0  0  0  0  0  0  0  0
   60.3320   34.5260   46.4070 C   0  0  0  0  0  0  0  0  0  0  0  0
   59.2340   34.1750   45.6180 C   0  0  0  0  0  0  0  0  0  0  0  0
   58.6610   29.6230   45.0800 C   0  0  0  0  0  0  0  0  0  0  0  0
   61.0840   30.3840   47.4620 C   0  0  0  0  0  0  0  0  0  0  0  0
   61.1170   30.9900   46.3570 O   0  0  0  0  0  0  0  0  0  0  0  0
   61.3990   31.0630   48.5950 N   0  0  0  0  0  0  0  0  0  0  0  0
   64.0830   31.5180   50.6740 C   0  0  0  0  0  0  0  0  0  0  0  0
   65.2260   32.3300   50.8280 C   0  0  0  0  0  0  0  0  0  0  0  0
   66.5080   31.9030   50.4510 O   0  0  0  0  0  0  0  0  0  0  0  0
   67.1330   30.7150   50.9250 C   0  0  0  0  0  0  0  0  0  0  0  0
   67.5339   35.4553   52.6973 H   0  0  0  0  0  0  0  0  0  0  0  0
   68.1876   34.8232   51.1482 H   0  0  0  0  0  0  0  0  0  0  0  0
   67.1080   36.2588   51.1482 H   0  0  0  0  0  0  0  0  0  0  0  0
   63.7316   35.0689   52.2313 H   0  0  0  0  0  0  0  0  0  0  0  0
   61.7305   33.6037   52.0203 H   0  0  0  0  0  0  0  0  0  0  0  0
   61.1150   28.6429   45.4888 H   0  0  0  0  0  0  0  0  0  0  0  0
   60.5959   27.2310   46.4908 H   0  0  0  0  0  0  0  0  0  0  0  0
   58.2835   26.7232   46.8499 H   0  0  0  0  0  0  0  0  0  0  0  0
   55.9356   27.0231   46.0731 H   0  0  0  0  0  0  0  0  0  0  0  0
   56.4589   33.9564   45.0151 H   0  0  0  0  0  0  0  0  0  0  0  0
   56.3192   32.4097   45.9324 H   0  0  0  0  0  0  0  0  0  0  0  0
   57.3996   32.4841   47.9644 H   0  0  0  0  0  0  0  0  0  0  0  0
   59.3709   33.0972   49.3652 H   0  0  0  0  0  0  0  0  0  0  0  0
   61.2486   34.4127   48.3723 H   0  0  0  0  0  0  0  0  0  0  0  0
   61.1581   35.1074   45.9716 H   0  0  0  0  0  0  0  0  0  0  0  0
   59.1955   34.4838   44.5629 H   0  0  0  0  0  0  0  0  0  0  0  0
   59.4309   30.3556   44.7960 H   0  0  0  0  0  0  0  0  0  0  0  0
   64.1862   30.5064   50.2543 H   0  0  0  0  0  0  0  0  0  0  0  0
   67.1332   30.7146   52.0250 H   0  0  0  0  0  0  0  0  0  0  0  0
   66.5795   29.8380   50.5581 H   0  0  0  0  0  0  0  0  0  0  0  0
   68.1692   30.6744   50.5581 H   0  0  0  0  0  0  0  0  0  0  0  0
  1  2  1  0
  2  3  1  0
  3  4  2  0
  4  5  1  0
  5  6  2  0
  6  7  1  0
  7  8  2  3
  8  9  1  0
  9 10  1  0
 10 11  2  0
 10 12  1  0
 12 13  1  0
 13 14  1  0
 14 15  2  0
 15 16  1  0
 16 17  2  0
 17 18  1  0
 17 19  1  0
 19 20  1  0
 20 21  2  0
 20 22  1  0
 22 23  1  0
 23 24  1  0
 24 25  2  0
 25 26  1  0
 26 27  2  0
 27 28  1  0
 28 29  2  0
 19 30  2  0
 12 31  1  0
 31 32  2  0
 31 33  1  0
  6 34  1  0
 34 35  2  0
 35 36  1  0
 36 37  1  0
 35  3  1  0
 33  8  1  0
 30 14  1  0
 29 24  1  0
  1 38  1  0
  1 39  1  0
  1 40  1  0
  4 41  1  0
  5 42  1  0
 13 43  1  0
 13 44  1  0
 15 45  1  0
 16 46  1  0
 23 47  1  0
 23 48  1  0
 25 49  1  0
 26 50  1  0
 27 51  1  0
 28 52  1  0
 29 53  1  0
 30 54  1  0
 34 55  1  0
 37 56  1  0
 37 57  1  0
 37 58  1  0
M  CHG  4   9  -1  18  -1  22  -1  33  -1
M  END
>  <UniqueID>  (46) 
43

>  <SMILES>  (46) 
COc1ccc(N=c2[n-]c(=O)n(Cc3ccc([O-])c(C(=O)[N-]Cc4ccccc4)c3)c(=O)[n-]2)cc1OC

>  <Energy>  (46) 
128.71224409464023

>  <Genealogy>  (46) 
COc1ccc(N=c2[n-]c(=O)n(Cc3ccc([O-])c(C(=O)[N-]Cc4ccccc4)c3)c(=O)[n-]2)cc1OC (protonated)
COc1ccc(N=c2[n-]c(=O)n(Cc3ccc([O-])c(C(=O)[N-]Cc4ccccc4)c3)c(=O)[n-]2)cc1OC (3D coordinates assigned)
COc1ccc(N=c2[n-]c(=O)n(Cc3ccc([O-])c(C(=O)[N-]Cc4ccccc4)c3)c(=O)[n-]2)cc1OC (optimized conformer: 128.71224409464023 kcal/mol)

>  <smiles>  (46) 
COc1ccc(N=c2[nH]c(=O)n(Cc3ccc(O)c(C(=O)NCc4ccccc4)c3)c(=O)[nH]2)cc1OC

>  <score_type>  (46) 
oracle

>  <origin>  (46) 
adg

>  <m_score__min__energy>  (46) 
-15.06

>  <m_primary>  (46) 
energy

$$$$
46:0
     RDKit          3D

 42 46  0  0  0  0  0  0  0  0999 V2000
   58.2399   26.6668   44.0799 H   0  0  0  0  0  0  0  0  0  0  0  0
   57.6790   27.0480   44.9460 C   0  0  0  0  0  0  0  0  0  0  0  0
   57.1850   26.0720   45.9290 C   0  0  0  0  0  0  0  0  0  0  0  0
   57.9350   25.0720   46.4230 N   0  0  0  0  0  0  0  0  0  0  0  0
   57.0670   24.3800   47.1930 C   0  0  0  0  0  0  0  0  0  0  0  0
   57.4060   23.3610   47.8490 O   0  0  0  0  0  0  0  0  0  0  0  0
   55.8060   24.8610   47.1980 N   0  0  0  0  0  0  0  0  0  0  0  0
   55.8930   25.9230   46.3820 C   0  0  0  0  0  0  0  0  0  0  0  0
   54.8060   26.7150   46.0280 O   0  0  0  0  0  0  0  0  0  0  0  0
   57.4900   28.3730   45.0370 C   0  0  0  0  0  0  0  0  0  0  0  0
   56.7800   29.1610   44.1370 C   0  0  0  0  0  0  0  0  0  0  0  0
   56.2592   28.7862   43.2435 H   0  0  0  0  0  0  0  0  0  0  0  0
   56.8250   30.4580   44.5240 N   0  0  0  0  0  0  0  0  0  0  0  0
   57.5430   30.5110   45.6350 N   0  0  0  0  0  0  0  0  0  0  0  0
   57.9070   31.6030   46.3680 C   0  0  0  0  0  0  0  0  0  0  0  0
   57.5270   32.8160   46.0720 N   0  0  0  0  0  0  0  0  0  0  0  0
   58.2880   34.0430   46.2830 C   0  0  0  0  0  0  0  0  0  0  0  0
   57.7068   34.4366   47.1299 H   0  0  0  0  0  0  0  0  0  0  0  0
   58.8550   34.6440   45.0100 C   0  0  0  0  0  0  0  0  0  0  0  0
   58.5882   34.2152   44.0328 H   0  0  0  0  0  0  0  0  0  0  0  0
   58.8711   35.6494   44.5641 H   0  0  0  0  0  0  0  0  0  0  0  0
   59.7600   33.8730   45.9570 C   0  0  0  0  0  0  0  0  0  0  0  0
   60.1484   32.8861   45.6653 H   0  0  0  0  0  0  0  0  0  0  0  0
   60.7029   34.0891   46.4807 H   0  0  0  0  0  0  0  0  0  0  0  0
   58.7180   31.4050   47.4490 N   0  0  0  0  0  0  0  0  0  0  0  0
   59.0390   32.2300   48.0050 H   0  0  0  0  0  0  0  0  0  0  0  0
   59.1460   30.1450   47.7820 C   0  0  0  0  0  0  0  0  0  0  0  0
   59.9940   29.9310   48.8760 O   0  0  0  0  0  0  0  0  0  0  0  0
   61.2100   30.5930   49.0950 C   0  0  0  0  0  0  0  0  0  0  0  0
   61.8650   30.5560   50.3390 C   0  0  0  0  0  0  0  0  0  0  0  0
   61.4155   30.0055   51.1785 H   0  0  0  0  0  0  0  0  0  0  0  0
   63.0850   31.2160   50.5130 C   0  0  0  0  0  0  0  0  0  0  0  0
   63.5883   31.1903   51.4908 H   0  0  0  0  0  0  0  0  0  0  0  0
   63.6680   31.9100   49.4450 C   0  0  0  0  0  0  0  0  0  0  0  0
   64.9260   32.5860   49.6310 C   0  0  0  0  0  0  0  0  0  0  0  0
   65.9370   33.1280   49.7800 N   0  0  0  0  0  0  0  0  0  0  0  0
   63.0270   31.9330   48.1980 C   0  0  0  0  0  0  0  0  0  0  0  0
   63.5830   32.5930   47.1490 F   0  0  0  0  0  0  0  0  0  0  0  0
   61.8070   31.2720   48.0260 C   0  0  0  0  0  0  0  0  0  0  0  0
   61.3125   31.2855   47.0435 H   0  0  0  0  0  0  0  0  0  0  0  0
   58.7820   29.0770   47.0180 N   0  0  0  0  0  0  0  0  0  0  0  0
   57.9610   29.2840   45.9640 C   0  0  0  0  0  0  0  0  0  0  0  0
  1  2  1  0
  2  3  1  0
  3  4  1  0
  4  5  1  0
  5  6  2  0
  5  7  1  0
  7  8  1  0
  8  9  1  0
  2 10  2  3
 10 11  1  0
 11 12  1  0
 11 13  2  0
 13 14  1  0
 14 15  1  0
 15 16  2  0
 16 17  1  0
 17 18  1  0
 17 19  1  0
 19 20  1  0
 19 21  1  0
 19 22  1  0
 22 23  1  0
 22 24  1  0
 15 25  1  0
 25 26  1  0
 25 27  2  0
 27 28  1  0
 28 29  1  0
 29 30  2  0
 30 31  1  0
 30 32  1  0
 32 33  1  0
 32 34  2  0
 34 35  1  0
 35 36  3  0
 34 37  1  0
 37 38  1  0
 37 39  2  0
 39 40  1  0
 27 41  1  0
 41 42  2  0
  8  3  2  0
 42 10  1  0
 42 14  1  0
 22 17  1  0
 39 29  1  0
M  CHG  4   4  -1   7  -1   9  -1  25   1
M  END
>  <UniqueID>  (47) 
44

>  <SMILES>  (47) 
N#Cc1ccc(Oc2nc3c(=Cc4[n-]c(=O)[n-]c4[O-])cnn3/c(=N\C3CC3)[nH+]2)cc1F

>  <Energy>  (47) 
395.00595547813134

>  <Genealogy>  (47) 
N#Cc1ccc(Oc2nc3c(=Cc4[n-]c(=O)[n-]c4[O-])cnn3c(=NC3CC3)[nH+]2)cc1F (protonated)
N#Cc1ccc(Oc2nc3c(=Cc4[n-]c(=O)[n-]c4[O-])cnn3/c(=N\C3CC3)[nH+]2)cc1F (cis-trans isomerization)
N#Cc1ccc(Oc2nc3c(=Cc4[n-]c(=O)[n-]c4[O-])cnn3/c(=N\C3CC3)[nH+]2)cc1F (3D coordinates assigned)
N#Cc1ccc(Oc2nc3c(=Cc4[n-]c(=O)[n-]c4[O-])cnn3/c(=N\C3CC3)[nH+]2)cc1F (nonaromatic ring conformer: 395.00595547813134 kcal/mol)

>  <smiles>  (47) 
N#Cc1ccc(Oc2nc(=NC3CC3)n3ncc(=Cc4[nH]c(=O)[nH]c4O)c3n2)cc1F

>  <score_type>  (47) 
oracle

>  <origin>  (47) 
adg

>  <m_score__min__energy>  (47) 
-15.41

>  <m_primary>  (47) 
energy

$$$$
47:0
     RDKit          3D

 47 49  0  0  0  0  0  0  0  0999 V2000
   51.3710   32.2860   51.2360 N   0  0  0  0  0  0  0  0  0  0  0  0
   51.7460   30.6150   51.4630 S   0  0  0  0  0  0  0  0  0  0  0  0
   50.6450   29.9560   52.2460 O   0  0  0  0  0  0  0  0  0  0  0  0
   51.8560   29.9380   50.1240 O   0  0  0  0  0  0  0  0  0  0  0  0
   53.2680   30.4690   52.3360 C   0  0  0  0  0  0  0  0  0  0  0  0
   53.2710   30.1030   53.6880 C   0  0  0  0  0  0  0  0  0  0  0  0
   54.4780   29.9840   54.3780 C   0  0  0  0  0  0  0  0  0  0  0  0
   55.6890   30.2160   53.7210 C   0  0  0  0  0  0  0  0  0  0  0  0
   55.7060   30.5630   52.3580 C   0  0  0  0  0  0  0  0  0  0  0  0
   56.9960   30.7990   51.6660 C   0  0  0  0  0  0  0  0  0  0  0  0
   57.7950   29.8350   51.5050 O   0  0  0  0  0  0  0  0  0  0  0  0
   57.3190   32.0920   51.1260 N   0  0  0  0  0  0  0  0  0  0  0  0
   58.6470   32.5000   50.7520 C   0  0  0  0  0  0  0  0  0  0  0  0
   59.3540   33.3850   51.5810 C   0  0  0  0  0  0  0  0  0  0  0  0
   60.6510   33.7810   51.2500 C   0  0  0  0  0  0  0  0  0  0  0  0
   61.2610   33.2920   50.0940 C   0  0  0  0  0  0  0  0  0  0  0  0
   60.5780   32.3950   49.2660 C   0  0  0  0  0  0  0  0  0  0  0  0
   61.3630   31.7910   47.8050 S   0  0  0  0  0  0  0  0  0  0  0  0
   60.4520   30.8400   47.0790 O   0  0  0  0  0  0  0  0  0  0  0  0
   62.6060   31.0460   48.2040 O   0  0  0  0  0  0  0  0  0  0  0  0
   61.8050   33.0950   46.7370 N   0  0  0  0  0  0  0  0  0  0  0  0
   60.9320   34.2590   46.9110 C   0  0  0  0  0  0  0  0  0  0  0  0
   59.5630   34.0090   46.3350 C   0  0  0  0  0  0  0  0  0  0  0  0
   58.4650   33.7800   47.1800 C   0  0  0  0  0  0  0  0  0  0  0  0
   57.2010   33.5300   46.6400 C   0  0  0  0  0  0  0  0  0  0  0  0
   57.0220   33.5130   45.2550 C   0  0  0  0  0  0  0  0  0  0  0  0
   58.1080   33.7470   44.4060 C   0  0  0  0  0  0  0  0  0  0  0  0
   59.3770   33.9940   44.9420 C   0  0  0  0  0  0  0  0  0  0  0  0
   59.2770   31.9910   49.6000 C   0  0  0  0  0  0  0  0  0  0  0  0
   54.4830   30.6960   51.6740 C   0  0  0  0  0  0  0  0  0  0  0  0
   50.3750   32.3340   50.9270 H   0  0  0  0  0  0  0  0  0  0  0  0
   52.3205   29.9091   54.2066 H   0  0  0  0  0  0  0  0  0  0  0  0
   54.4760   29.7067   55.4425 H   0  0  0  0  0  0  0  0  0  0  0  0
   56.6359   30.1267   54.2736 H   0  0  0  0  0  0  0  0  0  0  0  0
   56.5280   32.7270   50.8720 H   0  0  0  0  0  0  0  0  0  0  0  0
   58.8828   33.7691   52.4977 H   0  0  0  0  0  0  0  0  0  0  0  0
   61.1939   34.4807   51.9024 H   0  0  0  0  0  0  0  0  0  0  0  0
   62.2805   33.6125   49.8335 H   0  0  0  0  0  0  0  0  0  0  0  0
   60.8344   34.4761   47.9849 H   0  0  0  0  0  0  0  0  0  0  0  0
   61.3810   35.1114   46.3802 H   0  0  0  0  0  0  0  0  0  0  0  0
   58.6007   33.7975   48.2715 H   0  0  0  0  0  0  0  0  0  0  0  0
   56.3455   33.3463   47.3066 H   0  0  0  0  0  0  0  0  0  0  0  0
   56.0261   33.3154   44.8318 H   0  0  0  0  0  0  0  0  0  0  0  0
   57.9648   33.7369   43.3154 H   0  0  0  0  0  0  0  0  0  0  0  0
   60.2301   34.1767   44.2720 H   0  0  0  0  0  0  0  0  0  0  0  0
   58.7458   31.2725   48.9584 H   0  0  0  0  0  0  0  0  0  0  0  0
   54.4804   30.9804   50.6114 H   0  0  0  0  0  0  0  0  0  0  0  0
  1  2  1  0
  2  3  2  0
  2  4  2  0
  2  5  1  0
  5  6  2  0
  6  7  1  0
  7  8  2  0
  8  9  1  0
  9 10  1  0
 10 11  2  0
 10 12  1  0
 12 13  1  0
 13 14  2  0
 14 15  1  0
 15 16  2  0
 16 17  1  0
 17 18  1  0
 18 19  2  0
 18 20  2  0
 18 21  1  0
 21 22  1  0
 22 23  1  0
 23 24  2  0
 24 25  1  0
 25 26  2  0
 26 27  1  0
 27 28  2  0
 17 29  2  0
  9 30  2  0
 30  5  1  0
 29 13  1  0
 28 23  1  0
  1 31  1  0
  6 32  1  0
  7 33  1  0
  8 34  1  0
 12 35  1  0
 14 36  1  0
 15 37  1  0
 16 38  1  0
 22 39  1  0
 22 40  1  0
 24 41  1  0
 25 42  1  0
 26 43  1  0
 27 44  1  0
 28 45  1  0
 29 46  1  0
 30 47  1  0
M  CHG  2   1  -1  21  -1
M  END
>  <UniqueID>  (48) 
45

>  <SMILES>  (48) 
[NH-]S(=O)(=O)c1cccc(C(=O)Nc2cccc(S(=O)(=O)[N-]Cc3ccccc3)c2)c1

>  <Energy>  (48) 
52.53129100524128

>  <Genealogy>  (48) 
[NH-]S(=O)(=O)c1cccc(C(=O)Nc2cccc(S(=O)(=O)[N-]Cc3ccccc3)c2)c1 (protonated)
[NH-]S(=O)(=O)c1cccc(C(=O)Nc2cccc(S(=O)(=O)[N-]Cc3ccccc3)c2)c1 (3D coordinates assigned)
[NH-]S(=O)(=O)c1cccc(C(=O)Nc2cccc(S(=O)(=O)[N-]Cc3ccccc3)c2)c1 (optimized conformer: 52.53129100524128 kcal/mol)

>  <smiles>  (48) 
NS(=O)(=O)c1cccc(C(=O)Nc2cccc(S(=O)(=O)NCc3ccccc3)c2)c1

>  <score_type>  (48) 
oracle

>  <origin>  (48) 
adg

>  <m_score__min__energy>  (48) 
-13.210000000000001

>  <m_primary>  (48) 
energy

$$$$
48:0
     RDKit          3D

 23 24  0  0  0  0  0  0  0  0999 V2000
   59.7490   29.4020   44.4570 O   0  0  0  0  0  0  0  0  0  0  0  0
   58.6170   28.9480   44.7750 C   0  0  0  0  0  0  0  0  0  0  0  0
   58.4490   27.8310   45.5110 N   0  0  0  0  0  0  0  0  0  0  0  0
   57.1150   27.6930   45.6460 C   0  0  0  0  0  0  0  0  0  0  0  0
   56.5100   28.7390   44.9820 C   0  0  0  0  0  0  0  0  0  0  0  0
   55.1420   28.9650   44.9000 O   0  0  0  0  0  0  0  0  0  0  0  0
   57.4500   29.5250   44.4220 N   0  0  0  0  0  0  0  0  0  0  0  0
   57.2490   30.7760   43.6930 C   0  0  0  0  0  0  0  0  0  0  0  0
   57.8140   31.9270   44.4790 C   0  0  0  0  0  0  0  0  0  0  0  0
   57.8100   31.8940   45.8830 C   0  0  0  0  0  0  0  0  0  0  0  0
   58.3710   32.9460   46.6140 C   0  0  0  0  0  0  0  0  0  0  0  0
   58.9470   34.0330   45.9490 C   0  0  0  0  0  0  0  0  0  0  0  0
   59.6520   35.3510   46.8660 Cl  0  0  0  0  0  0  0  0  0  0  0  0
   58.9650   34.0660   44.5500 C   0  0  0  0  0  0  0  0  0  0  0  0
   58.4050   33.0140   43.8170 C   0  0  0  0  0  0  0  0  0  0  0  0
   59.1910   27.2100   45.9040 H   0  0  0  0  0  0  0  0  0  0  0  0
   56.5998   26.8877   46.1901 H   0  0  0  0  0  0  0  0  0  0  0  0
   57.7572   30.7157   42.7193 H   0  0  0  0  0  0  0  0  0  0  0  0
   56.1712   30.9366   43.5425 H   0  0  0  0  0  0  0  0  0  0  0  0
   57.3639   31.0375   46.4097 H   0  0  0  0  0  0  0  0  0  0  0  0
   58.3592   32.9184   47.7136 H   0  0  0  0  0  0  0  0  0  0  0  0
   59.4198   34.9197   44.0262 H   0  0  0  0  0  0  0  0  0  0  0  0
   58.4281   33.0391   42.7175 H   0  0  0  0  0  0  0  0  0  0  0  0
  1  2  2  0
  2  3  1  0
  3  4  1  0
  4  5  2  0
  5  6  1  0
  5  7  1  0
  7  8  1  0
  8  9  1  0
  9 10  2  0
 10 11  1  0
 11 12  2  0
 12 13  1  0
 12 14  1  0
 14 15  2  0
  7  2  1  0
 15  9  1  0
  3 16  1  0
  4 17  1  0
  8 18  1  0
  8 19  1  0
 10 20  1  0
 11 21  1  0
 14 22  1  0
 15 23  1  0
M  CHG  1   6  -1
M  END
>  <UniqueID>  (49) 
46

>  <SMILES>  (49) 
O=c1[nH]cc([O-])n1Cc1ccc(Cl)cc1

>  <Energy>  (49) 
55.26265011449381

>  <Genealogy>  (49) 
O=c1[nH]cc([O-])n1Cc1ccc(Cl)cc1 (protonated)
O=c1[nH]cc([O-])n1Cc1ccc(Cl)cc1 (3D coordinates assigned)
O=c1[nH]cc([O-])n1Cc1ccc(Cl)cc1 (optimized conformer: 55.26265011449381 kcal/mol)

>  <smiles>  (49) 
O=c1[nH]cc(O)n1Cc1ccc(Cl)cc1

>  <score_type>  (49) 
oracle

>  <origin>  (49) 
adg

>  <m_score__min__energy>  (49) 
-9.1799999999999997

>  <m_primary>  (49) 
energy

$$$$
49:0
     RDKit          3D

 43 46  0  0  0  0  0  0  0  0999 V2000
   63.7239   33.7623   45.7359 H   0  0  0  0  0  0  0  0  0  0  0  0
   63.4190   33.4680   46.7510 C   0  0  0  0  0  0  0  0  0  0  0  0
   63.3970   34.2660   47.7950 O   0  0  0  0  0  0  0  0  0  0  0  0
   62.9850   33.5890   48.8430 C   0  0  0  0  0  0  0  0  0  0  0  0
   62.8611   33.9981   49.8565 H   0  0  0  0  0  0  0  0  0  0  0  0
   62.7320   32.2830   48.4720 C   0  0  0  0  0  0  0  0  0  0  0  0
   62.2070   31.2120   49.3430 C   0  0  0  0  0  0  0  0  0  0  0  0
   62.9610   30.7040   50.2130 O   0  0  0  0  0  0  0  0  0  0  0  0
   60.8410   30.7820   49.2750 N   0  0  0  0  0  0  0  0  0  0  0  0
   60.2270   30.3990   48.1940 C   0  0  0  0  0  0  0  0  0  0  0  0
   60.6000   29.3150   47.4610 N   0  0  0  0  0  0  0  0  0  0  0  0
   59.7010   29.3110   46.4590 C   0  0  0  0  0  0  0  0  0  0  0  0
   59.6300   28.4240   45.3890 C   0  0  0  0  0  0  0  0  0  0  0  0
   60.3419   27.5910   45.2927 H   0  0  0  0  0  0  0  0  0  0  0  0
   58.6160   28.6290   44.4340 C   0  0  0  0  0  0  0  0  0  0  0  0
   58.5272   27.9452   43.5770 H   0  0  0  0  0  0  0  0  0  0  0  0
   57.7110   29.7070   44.5680 C   0  0  0  0  0  0  0  0  0  0  0  0
   56.4590   29.9520   43.3650 Cl  0  0  0  0  0  0  0  0  0  0  0  0
   57.8110   30.5880   45.6630 C   0  0  0  0  0  0  0  0  0  0  0  0
   57.1170   31.4335   45.7795 H   0  0  0  0  0  0  0  0  0  0  0  0
   58.8230   30.3490   46.5950 C   0  0  0  0  0  0  0  0  0  0  0  0
   59.1330   31.0400   47.7060 N   0  0  0  0  0  0  0  0  0  0  0  0
   58.5300   32.2790   48.2000 C   0  0  0  0  0  0  0  0  0  0  0  0
   57.5708   32.4464   47.6882 H   0  0  0  0  0  0  0  0  0  0  0  0
   58.3649   32.1924   49.2841 H   0  0  0  0  0  0  0  0  0  0  0  0
   59.4640   33.4630   47.9270 C   0  0  0  0  0  0  0  0  0  0  0  0
   59.8190   33.8723   48.8843 H   0  0  0  0  0  0  0  0  0  0  0  0
   60.3156   33.1129   47.3252 H   0  0  0  0  0  0  0  0  0  0  0  0
   58.7520   34.5230   47.1780 N   0  0  0  0  0  0  0  0  0  0  0  0
   57.6990   33.9560   46.3230 C   0  0  0  0  0  0  0  0  0  0  0  0
   57.3069   33.0323   46.7736 H   0  0  0  0  0  0  0  0  0  0  0  0
   56.8664   34.6664   46.2134 H   0  0  0  0  0  0  0  0  0  0  0  0
   58.3190   33.6500   44.9730 C   0  0  0  0  0  0  0  0  0  0  0  0
   58.6355   32.5977   44.9228 H   0  0  0  0  0  0  0  0  0  0  0  0
   57.6084   33.8056   44.1479 H   0  0  0  0  0  0  0  0  0  0  0  0
   59.5180   34.5720   44.8720 C   0  0  0  0  0  0  0  0  0  0  0  0
   60.4243   33.9981   44.6287 H   0  0  0  0  0  0  0  0  0  0  0  0
   59.3893   35.3217   44.0774 H   0  0  0  0  0  0  0  0  0  0  0  0
   59.6520   35.2220   46.2450 C   0  0  0  0  0  0  0  0  0  0  0  0
   60.6908   35.1374   46.5967 H   0  0  0  0  0  0  0  0  0  0  0  0
   59.3846   36.2874   46.1874 H   0  0  0  0  0  0  0  0  0  0  0  0
   63.0020   32.2050   47.1200 C   0  0  0  0  0  0  0  0  0  0  0  0
   62.9050   31.3211   46.4724 H   0  0  0  0  0  0  0  0  0  0  0  0
  1  2  1  0
  2  3  1  0
  3  4  1  0
  4  5  1  0
  4  6  2  0
  6  7  1  0
  7  8  2  0
  7  9  1  0
  9 10  2  0
 10 11  1  0
 11 12  1  0
 12 13  2  0
 13 14  1  0
 13 15  1  0
 15 16  1  0
 15 17  2  0
 17 18  1  0
 17 19  1  0
 19 20  1  0
 19 21  2  0
 21 22  1  0
 22 23  1  0
 23 24  1  0
 23 25  1  0
 23 26  1  0
 26 27  1  0
 26 28  1  0
 26 29  1  0
 29 30  1  0
 30 31  1  0
 30 32  1  0
 30 33  1  0
 33 34  1  0
 33 35  1  0
 33 36  1  0
 36 37  1  0
 36 38  1  0
 36 39  1  0
 39 40  1  0
 39 41  1  0
  6 42  1  0
 42 43  1  0
 42  2  2  0
 22 10  1  0
 39 29  1  0
 21 12  1  0
M  CHG  1  11  -1
M  END
>  <UniqueID>  (50) 
47

>  <SMILES>  (50) 
O=C(/N=c1\[n-]c2ccc(Cl)cc2n1CCN1CCCC1)c1ccoc1

>  <Energy>  (50) 
116.51334760871168

>  <Genealogy>  (50) 
O=C(N=c1[n-]c2ccc(Cl)cc2n1CCN1CCCC1)c1ccoc1 (protonated)
O=C(/N=c1\[n-]c2ccc(Cl)cc2n1CCN1CCCC1)c1ccoc1 (cis-trans isomerization)
O=C(/N=c1\[n-]c2ccc(Cl)cc2n1CCN1CCCC1)c1ccoc1 (3D coordinates assigned)
O=C(/N=c1\[n-]c2ccc(Cl)cc2n1CCN1CCCC1)c1ccoc1 (nonaromatic ring conformer: 116.51334760871168 kcal/mol)

>  <smiles>  (50) 
O=C(N=c1[nH]c2ccc(Cl)cc2n1CCN1CCCC1)c1ccoc1

>  <score_type>  (50) 
oracle

>  <origin>  (50) 
adg

>  <m_score__min__energy>  (50) 
-8.8800000000000008

>  <m_primary>  (50) 
energy

$$$$
50:0
     RDKit          3D

 43 45  0  0  0  0  0  0  0  0999 V2000
   59.5540   35.1940   45.3590 C   0  0  0  0  0  0  0  0  0  0  0  0
   59.6550   33.8700   45.9660 N   0  0  0  0  0  0  0  0  0  0  0  0
   60.7570   33.2390   46.4220 C   0  0  0  0  0  0  0  0  0  0  0  0
   62.1260   33.8400   46.5120 C   0  0  0  0  0  0  0  0  0  0  0  0
   62.7960   33.4210   47.7830 C   0  0  0  0  0  0  0  0  0  0  0  0
   62.8060   34.1340   48.9750 C   0  0  0  0  0  0  0  0  0  0  0  0
   63.5110   33.4880   49.9960 C   0  0  0  0  0  0  0  0  0  0  0  0
   64.0560   32.2690   49.6130 C   0  0  0  0  0  0  0  0  0  0  0  0
   63.6610   31.9950   48.0020 S   0  0  0  0  0  0  0  0  0  0  0  0
   60.4730   31.9840   46.8240 N   0  0  0  0  0  0  0  0  0  0  0  0
   59.1840   31.7860   46.5960 N   0  0  0  0  0  0  0  0  0  0  0  0
   58.7000   32.9260   46.0690 C   0  0  0  0  0  0  0  0  0  0  0  0
   57.0000   33.1060   45.5080 S   0  0  0  0  0  0  0  0  0  0  0  0
   57.1430   31.9250   44.1190 C   0  0  0  0  0  0  0  0  0  0  0  0
   57.2250   30.5110   44.6100 C   0  0  0  0  0  0  0  0  0  0  0  0
   56.1610   29.8790   44.8490 O   0  0  0  0  0  0  0  0  0  0  0  0
   58.5080   29.9230   44.8830 N   0  0  0  0  0  0  0  0  0  0  0  0
   58.6870   28.6130   45.4430 C   0  0  0  0  0  0  0  0  0  0  0  0
   59.9380   28.1860   45.9220 C   0  0  0  0  0  0  0  0  0  0  0  0
   60.0790   26.9120   46.4800 C   0  0  0  0  0  0  0  0  0  0  0  0
   58.9760   26.0610   46.5750 C   0  0  0  0  0  0  0  0  0  0  0  0
   57.7200   26.4850   46.1230 C   0  0  0  0  0  0  0  0  0  0  0  0
   56.3270   25.4150   46.2350 S   0  0  0  0  0  0  0  0  0  0  0  0
   54.8820   26.3270   45.9870 N   0  0  0  0  0  0  0  0  0  0  0  0
   56.2890   24.7690   47.5920 O   0  0  0  0  0  0  0  0  0  0  0  0
   56.4270   24.3380   45.1900 O   0  0  0  0  0  0  0  0  0  0  0  0
   57.5800   27.7610   45.5620 C   0  0  0  0  0  0  0  0  0  0  0  0
   59.4958   35.9564   46.1498 H   0  0  0  0  0  0  0  0  0  0  0  0
   60.4406   35.3799   44.7350 H   0  0  0  0  0  0  0  0  0  0  0  0
   58.6495   35.2432   44.7350 H   0  0  0  0  0  0  0  0  0  0  0  0
   62.7279   33.5010   45.6559 H   0  0  0  0  0  0  0  0  0  0  0  0
   62.0364   34.9363   46.4999 H   0  0  0  0  0  0  0  0  0  0  0  0
   62.3101   35.1075   49.1031 H   0  0  0  0  0  0  0  0  0  0  0  0
   63.6233   33.9061   51.0072 H   0  0  0  0  0  0  0  0  0  0  0  0
   64.6455   31.5975   50.2545 H   0  0  0  0  0  0  0  0  0  0  0  0
   56.2612   32.0278   43.4695 H   0  0  0  0  0  0  0  0  0  0  0  0
   58.0650   32.1530   43.5641 H   0  0  0  0  0  0  0  0  0  0  0  0
   59.3500   30.5400   44.8190 H   0  0  0  0  0  0  0  0  0  0  0  0
   60.8080   28.8561   45.8575 H   0  0  0  0  0  0  0  0  0  0  0  0
   61.0617   26.5790   46.8453 H   0  0  0  0  0  0  0  0  0  0  0  0
   59.0938   25.0557   47.0057 H   0  0  0  0  0  0  0  0  0  0  0  0
   55.1500   27.3360   46.0150 H   0  0  0  0  0  0  0  0  0  0  0  0
   56.5930   28.0974   45.2118 H   0  0  0  0  0  0  0  0  0  0  0  0
  1  2  1  0
  2  3  1  0
  3  4  1  0
  4  5  1  0
  5  6  2  0
  6  7  1  0
  7  8  2  0
  8  9  1  0
  3 10  2  0
 10 11  1  0
 11 12  2  0
 12 13  1  0
 13 14  1  0
 14 15  1  0
 15 16  2  0
 15 17  1  0
 17 18  1  0
 18 19  2  0
 19 20  1  0
 20 21  2  0
 21 22  1  0
 22 23  1  0
 23 24  1  0
 23 25  2  0
 23 26  2  0
 22 27  2  0
 12  2  1  0
 27 18  1  0
  9  5  1  0
  1 28  1  0
  1 29  1  0
  1 30  1  0
  4 31  1  0
  4 32  1  0
  6 33  1  0
  7 34  1  0
  8 35  1  0
 14 36  1  0
 14 37  1  0
 17 38  1  0
 19 39  1  0
 20 40  1  0
 21 41  1  0
 24 42  1  0
 27 43  1  0
M  CHG  1  24  -1
M  END
>  <UniqueID>  (51) 
48

>  <SMILES>  (51) 
Cn1c(Cc2cccs2)nnc1SCC(=O)Nc1cccc(S([NH-])(=O)=O)c1

>  <Energy>  (51) 
99.78306562582482

>  <Genealogy>  (51) 
Cn1c(Cc2cccs2)nnc1SCC(=O)Nc1cccc(S([NH-])(=O)=O)c1 (protonated)
Cn1c(Cc2cccs2)nnc1SCC(=O)Nc1cccc(S([NH-])(=O)=O)c1 (3D coordinates assigned)
Cn1c(Cc2cccs2)nnc1SCC(=O)Nc1cccc(S([NH-])(=O)=O)c1 (optimized conformer: 99.78306562582482 kcal/mol)

>  <smiles>  (51) 
Cn1c(Cc2cccs2)nnc1SCC(=O)Nc1cccc(S(N)(=O)=O)c1

>  <score_type>  (51) 
oracle

>  <origin>  (51) 
adg

>  <m_score__min__energy>  (51) 
-12.84

>  <m_primary>  (51) 
energy

$$$$
51:0
     RDKit          3D

 47 50  0  0  0  0  0  0  0  0999 V2000
   61.4850   31.0990   48.3960 C   0  0  0  0  0  0  0  0  0  0  0  0
   60.7050   30.0930   49.0320 O   0  0  0  0  0  0  0  0  0  0  0  0
   59.6880   30.3500   49.9640 C   0  0  0  0  0  0  0  0  0  0  0  0
   58.8720   31.4700   49.7660 C   0  0  0  0  0  0  0  0  0  0  0  0
   57.8430   31.7680   50.6620 C   0  0  0  0  0  0  0  0  0  0  0  0
   57.6210   30.9500   51.7810 C   0  0  0  0  0  0  0  0  0  0  0  0
   56.4670   31.2280   52.7020 C   0  0  0  0  0  0  0  0  0  0  0  0
   56.4430   30.2370   53.7770 N   0  0  0  0  0  0  0  0  0  0  0  0
   55.7500   28.9890   53.6500 C   0  0  0  0  0  0  0  0  0  0  0  0
   54.4170   28.8120   53.2900 C   0  0  0  0  0  0  0  0  0  0  0  0
   53.4520   29.8440   52.8450 C   0  0  0  0  0  0  0  0  0  0  0  0
   53.5090   30.3890   51.5500 C   0  0  0  0  0  0  0  0  0  0  0  0
   52.5800   31.3520   51.1460 C   0  0  0  0  0  0  0  0  0  0  0  0
   51.5770   31.7730   52.0230 C   0  0  0  0  0  0  0  0  0  0  0  0
   50.6550   32.7300   51.6200 O   0  0  0  0  0  0  0  0  0  0  0  0
   51.5010   31.2230   53.3070 C   0  0  0  0  0  0  0  0  0  0  0  0
   52.4280   30.2600   53.7140 C   0  0  0  0  0  0  0  0  0  0  0  0
   54.0830   27.5060   53.4340 N   0  0  0  0  0  0  0  0  0  0  0  0
   55.2160   26.9300   53.8840 C   0  0  0  0  0  0  0  0  0  0  0  0
   55.3550   25.5880   54.2310 C   0  0  0  0  0  0  0  0  0  0  0  0
   56.5860   25.1740   54.7640 C   0  0  0  0  0  0  0  0  0  0  0  0
   57.6360   26.1020   54.9450 C   0  0  0  0  0  0  0  0  0  0  0  0
   58.9230   25.6740   55.5830 C   0  0  0  0  0  0  0  0  0  0  0  0
   57.4260   27.4480   54.5950 C   0  0  0  0  0  0  0  0  0  0  0  0
   56.2330   27.7950   54.0410 N   0  0  0  0  0  0  0  0  0  0  0  0
   58.4320   29.8230   51.9800 C   0  0  0  0  0  0  0  0  0  0  0  0
   59.4610   29.5250   51.0820 C   0  0  0  0  0  0  0  0  0  0  0  0
   61.9700   31.7245   49.1599 H   0  0  0  0  0  0  0  0  0  0  0  0
   62.2538   30.6247   47.7682 H   0  0  0  0  0  0  0  0  0  0  0  0
   60.8342   31.7254   47.7682 H   0  0  0  0  0  0  0  0  0  0  0  0
   59.0429   32.1216   48.8964 H   0  0  0  0  0  0  0  0  0  0  0  0
   57.2042   32.6469   50.4902 H   0  0  0  0  0  0  0  0  0  0  0  0
   56.5784   32.2334   53.1342 H   0  0  0  0  0  0  0  0  0  0  0  0
   55.5266   31.1715   52.1341 H   0  0  0  0  0  0  0  0  0  0  0  0
   56.7410   30.5430   54.7310 H   0  0  0  0  0  0  0  0  0  0  0  0
   54.2896   30.0554   50.8505 H   0  0  0  0  0  0  0  0  0  0  0  0
   52.6387   31.7798   50.1343 H   0  0  0  0  0  0  0  0  0  0  0  0
   50.7096   31.5494   53.9978 H   0  0  0  0  0  0  0  0  0  0  0  0
   52.3561   29.8242   54.7215 H   0  0  0  0  0  0  0  0  0  0  0  0
   54.5278   24.8764   54.0920 H   0  0  0  0  0  0  0  0  0  0  0  0
   56.7341   24.1202   55.0426 H   0  0  0  0  0  0  0  0  0  0  0  0
   58.8189   25.7086   56.6775 H   0  0  0  0  0  0  0  0  0  0  0  0
   59.1639   24.6474   55.2699 H   0  0  0  0  0  0  0  0  0  0  0  0
   59.7307   26.3519   55.2699 H   0  0  0  0  0  0  0  0  0  0  0  0
   58.2082   28.2025   54.7653 H   0  0  0  0  0  0  0  0  0  0  0  0
   58.2573   29.1699   52.8477 H   0  0  0  0  0  0  0  0  0  0  0  0
   60.0959   28.6425   51.2495 H   0  0  0  0  0  0  0  0  0  0  0  0
  1  2  1  0
  2  3  1  0
  3  4  2  0
  4  5  1  0
  5  6  2  0
  6  7  1  0
  7  8  1  0
  8  9  1  0
  9 10  2  0
 10 11  1  0
 11 12  2  0
 12 13  1  0
 13 14  2  0
 14 15  1  0
 14 16  1  0
 16 17  2  0
 10 18  1  0
 18 19  2  0
 19 20  1  0
 20 21  2  0
 21 22  1  0
 22 23  1  0
 22 24  2  0
 24 25  1  0
  6 26  1  0
 26 27  2  0
 27  3  1  0
 25  9  1  0
 17 11  1  0
 25 19  1  0
  1 28  1  0
  1 29  1  0
  1 30  1  0
  4 31  1  0
  5 32  1  0
  7 33  1  0
  7 34  1  0
  8 35  1  0
 12 36  1  0
 13 37  1  0
 16 38  1  0
 17 39  1  0
 20 40  1  0
 21 41  1  0
 23 42  1  0
 23 43  1  0
 23 44  1  0
 24 45  1  0
 26 46  1  0
 27 47  1  0
M  CHG  1  15  -1
M  END
>  <UniqueID>  (52) 
49

>  <SMILES>  (52) 
COc1ccc(CNc2c(-c3ccc([O-])cc3)nc3ccc(C)cn23)cc1

>  <Energy>  (52) 
90.54731673481403

>  <Genealogy>  (52) 
COc1ccc(CNc2c(-c3ccc([O-])cc3)nc3ccc(C)cn23)cc1 (protonated)
COc1ccc(CNc2c(-c3ccc([O-])cc3)nc3ccc(C)cn23)cc1 (3D coordinates assigned)
COc1ccc(CNc2c(-c3ccc([O-])cc3)nc3ccc(C)cn23)cc1 (optimized conformer: 90.54731673481403 kcal/mol)

>  <smiles>  (52) 
COc1ccc(CNc2c(-c3ccc(O)cc3)nc3ccc(C)cn23)cc1

>  <score_type>  (52) 
oracle

>  <origin>  (52) 
adg

>  <m_score__min__energy>  (52) 
-10.82

>  <m_primary>  (52) 
energy

$$$$
52:0
     RDKit          3D

 63 67  0  0  0  0  0  0  0  0999 V2000
   53.1970   28.4160   54.9340 C   0  0  0  0  0  0  0  0  0  0  0  0
   54.2070   28.9150   54.0060 N   0  0  0  0  0  0  0  0  0  0  0  0
   55.4860   28.5430   54.0860 N   0  0  0  0  0  0  0  0  0  0  0  0
   56.1000   29.1470   53.0560 C   0  0  0  0  0  0  0  0  0  0  0  0
   57.3740   29.6510   52.9300 C   0  0  0  0  0  0  0  0  0  0  0  0
   57.2090   30.7500   52.0670 C   0  0  0  0  0  0  0  0  0  0  0  0
   58.2510   31.7580   51.7710 C   0  0  0  0  0  0  0  0  0  0  0  0
   58.0510   33.0500   52.2820 C   0  0  0  0  0  0  0  0  0  0  0  0
   58.9490   34.0730   52.0060 C   0  0  0  0  0  0  0  0  0  0  0  0
   60.0350   33.8360   51.1750 C   0  0  0  0  0  0  0  0  0  0  0  0
   60.2410   32.5780   50.6010 C   0  0  0  0  0  0  0  0  0  0  0  0
   61.3250   32.4650   49.6640 N   0  0  0  0  0  0  0  0  0  0  0  0
   61.3300   31.7660   48.4060 C   0  0  0  0  0  0  0  0  0  0  0  0
   62.4060   31.2270   48.0360 O   0  0  0  0  0  0  0  0  0  0  0  0
   60.1340   31.6590   47.5320 C   0  0  0  0  0  0  0  0  0  0  0  0
   59.4500   30.4460   47.3770 C   0  0  0  0  0  0  0  0  0  0  0  0
   58.3970   30.3410   46.4690 C   0  0  0  0  0  0  0  0  0  0  0  0
   57.9800   31.4610   45.7260 C   0  0  0  0  0  0  0  0  0  0  0  0
   56.9410   31.3510   44.7370 N   0  0  0  0  0  0  0  0  0  0  0  0
   56.3640   29.8660   44.0500 S   0  0  0  0  0  0  0  0  0  0  0  0
   57.6710   28.6570   44.0130 C   0  0  0  0  0  0  0  0  0  0  0  0
   55.1930   29.3500   44.8410 O   0  0  0  0  0  0  0  0  0  0  0  0
   55.9160   30.1310   42.6400 O   0  0  0  0  0  0  0  0  0  0  0  0
   58.5840   32.7160   45.9610 C   0  0  0  0  0  0  0  0  0  0  0  0
   58.1140   33.9460   45.2150 C   0  0  0  0  0  0  0  0  0  0  0  0
   56.7860   34.2290   45.4810 F   0  0  0  0  0  0  0  0  0  0  0  0
   58.2420   33.7530   43.8500 F   0  0  0  0  0  0  0  0  0  0  0  0
   58.8840   35.0290   45.5900 F   0  0  0  0  0  0  0  0  0  0  0  0
   59.6740   32.7950   46.8490 C   0  0  0  0  0  0  0  0  0  0  0  0
   59.3900   31.4860   50.9550 C   0  0  0  0  0  0  0  0  0  0  0  0
   59.6380   30.0850   50.4130 C   0  0  0  0  0  0  0  0  0  0  0  0
   60.9940   29.7350   50.5140 O   0  0  0  0  0  0  0  0  0  0  0  0
   55.8910   30.9470   51.7750 N   0  0  0  0  0  0  0  0  0  0  0  0
   55.2620   29.9260   52.3750 C   0  0  0  0  0  0  0  0  0  0  0  0
   54.0380   29.8290   53.0000 C   0  0  0  0  0  0  0  0  0  0  0  0
   52.8670   30.7110   52.7670 C   0  0  0  0  0  0  0  0  0  0  0  0
   52.5310   31.1560   51.4740 C   0  0  0  0  0  0  0  0  0  0  0  0
   51.4150   31.9760   51.2740 C   0  0  0  0  0  0  0  0  0  0  0  0
   50.6060   32.3360   52.3560 C   0  0  0  0  0  0  0  0  0  0  0  0
   50.9100   31.8740   53.6400 C   0  0  0  0  0  0  0  0  0  0  0  0
   52.0350   31.0670   53.8470 C   0  0  0  0  0  0  0  0  0  0  0  0
   53.5344   28.5827   55.9676 H   0  0  0  0  0  0  0  0  0  0  0  0
   52.2498   28.9498   54.7669 H   0  0  0  0  0  0  0  0  0  0  0  0
   53.0455   27.3394   54.7669 H   0  0  0  0  0  0  0  0  0  0  0  0
   58.3010   29.2825   53.3936 H   0  0  0  0  0  0  0  0  0  0  0  0
   57.1711   33.2550   52.9095 H   0  0  0  0  0  0  0  0  0  0  0  0
   58.7996   35.0702   52.4457 H   0  0  0  0  0  0  0  0  0  0  0  0
   60.7443   34.6501   50.9649 H   0  0  0  0  0  0  0  0  0  0  0  0
   59.7455   29.5714   47.9751 H   0  0  0  0  0  0  0  0  0  0  0  0
   57.8884   29.3753   46.3324 H   0  0  0  0  0  0  0  0  0  0  0  0
   57.9559   28.3934   45.0423 H   0  0  0  0  0  0  0  0  0  0  0  0
   57.3223   27.7561   43.4869 H   0  0  0  0  0  0  0  0  0  0  0  0
   58.5421   29.0747   43.4869 H   0  0  0  0  0  0  0  0  0  0  0  0
   60.1725   33.7623   47.0097 H   0  0  0  0  0  0  0  0  0  0  0  0
   59.0377   29.3657   50.9894 H   0  0  0  0  0  0  0  0  0  0  0  0
   59.3512   30.0661   49.3512 H   0  0  0  0  0  0  0  0  0  0  0  0
   61.4860   30.3250   49.8840 H   0  0  0  0  0  0  0  0  0  0  0  0
   55.4550   31.7950   51.3470 H   0  0  0  0  0  0  0  0  0  0  0  0
   53.1501   30.8570   50.6153 H   0  0  0  0  0  0  0  0  0  0  0  0
   51.1737   32.3381   50.2637 H   0  0  0  0  0  0  0  0  0  0  0  0
   49.7305   32.9826   52.1970 H   0  0  0  0  0  0  0  0  0  0  0  0
   50.2645   32.1449   54.4885 H   0  0  0  0  0  0  0  0  0  0  0  0
   52.2711   30.7083   54.8597 H   0  0  0  0  0  0  0  0  0  0  0  0
  1  2  1  0
  2  3  1  0
  3  4  2  0
  4  5  1  0
  5  6  2  0
  6  7  1  0
  7  8  2  0
  8  9  1  0
  9 10  2  0
 10 11  1  0
 11 12  1  0
 12 13  1  0
 13 14  2  0
 13 15  1  0
 15 16  2  0
 16 17  1  0
 17 18  2  0
 18 19  1  0
 19 20  1  0
 20 21  1  0
 20 22  2  0
 20 23  2  0
 18 24  1  0
 24 25  1  0
 25 26  1  0
 25 27  1  0
 25 28  1  0
 24 29  2  0
 11 30  2  0
 30 31  1  0
 31 32  1  0
  6 33  1  0
 33 34  1  0
 34 35  2  0
 35 36  1  0
 36 37  2  0
 37 38  1  0
 38 39  2  0
 39 40  1  0
 40 41  2  0
 35  2  1  0
 41 36  1  0
 34  4  1  0
 30  7  1  0
 29 15  1  0
  1 42  1  0
  1 43  1  0
  1 44  1  0
  5 45  1  0
  8 46  1  0
  9 47  1  0
 10 48  1  0
 16 49  1  0
 17 50  1  0
 21 51  1  0
 21 52  1  0
 21 53  1  0
 29 54  1  0
 31 55  1  0
 31 56  1  0
 32 57  1  0
 33 58  1  0
 37 59  1  0
 38 60  1  0
 39 61  1  0
 40 62  1  0
 41 63  1  0
M  CHG  2  12  -1  19  -1
M  END
>  <UniqueID>  (53) 
50

>  <SMILES>  (53) 
Cn1nc2cc(-c3cccc([N-]C(=O)c4ccc([N-]S(C)(=O)=O)c(C(F)(F)F)c4)c3CO)[nH]c2c1-c1ccccc1

>  <Energy>  (53) 
184.30714875061656

>  <Genealogy>  (53) 
Cn1nc2cc(-c3cccc([N-]C(=O)c4ccc([N-]S(C)(=O)=O)c(C(F)(F)F)c4)c3CO)[nH]c2c1-c1ccccc1 (protonated)
Cn1nc2cc(-c3cccc([N-]C(=O)c4ccc([N-]S(C)(=O)=O)c(C(F)(F)F)c4)c3CO)[nH]c2c1-c1ccccc1 (3D coordinates assigned)
Cn1nc2cc(-c3cccc([N-]C(=O)c4ccc([N-]S(C)(=O)=O)c(C(F)(F)F)c4)c3CO)[nH]c2c1-c1ccccc1 (optimized conformer: 184.30714875061656 kcal/mol)

>  <smiles>  (53) 
Cn1nc2cc(-c3cccc(NC(=O)c4ccc(NS(C)(=O)=O)c(C(F)(F)F)c4)c3CO)[nH]c2c1-c1ccccc1

>  <score_type>  (53) 
oracle

>  <origin>  (53) 
adg

>  <m_score__min__energy>  (53) 
-11.74

>  <m_primary>  (53) 
energy

$$$$
53:0
     RDKit          3D

 70 73  0  0  0  0  0  0  0  0999 V2000
   65.3970   30.6930   52.4320 N   0  0  0  0  0  0  0  0  0  0  0  0
   64.5020   30.7050   51.6990 C   0  0  0  0  0  0  0  0  0  0  0  0
   63.3880   30.7180   50.7870 C   0  0  0  0  0  0  0  0  0  0  0  0
   62.4050   29.7350   50.8700 C   0  0  0  0  0  0  0  0  0  0  0  0
   61.3250   29.7500   49.9890 C   0  0  0  0  0  0  0  0  0  0  0  0
   61.1810   30.7750   49.0330 C   0  0  0  0  0  0  0  0  0  0  0  0
   59.9710   30.7260   48.1170 C   0  0  0  0  0  0  0  0  0  0  0  0
   59.8950   29.4680   47.3420 N   0  0  0  0  0  0  0  0  0  0  0  0
   60.1110   29.6360   45.8790 C   0  0  0  0  0  0  0  0  0  0  0  0
   58.8480   29.6770   45.0360 C   0  0  0  0  0  0  0  0  0  0  0  0
   57.9030   30.7070   45.1850 C   0  0  0  0  0  0  0  0  0  0  0  0
   56.7390   30.7210   44.4110 C   0  0  0  0  0  0  0  0  0  0  0  0
   56.4930   29.6950   43.4960 C   0  0  0  0  0  0  0  0  0  0  0  0
   57.3980   28.6400   43.3750 C   0  0  0  0  0  0  0  0  0  0  0  0
   58.5610   28.6220   44.1500 C   0  0  0  0  0  0  0  0  0  0  0  0
   58.6840   28.6840   47.6820 C   0  0  0  0  0  0  0  0  0  0  0  0
   58.7010   27.3410   46.9920 C   0  0  0  0  0  0  0  0  0  0  0  0
   57.4990   26.7480   46.5790 C   0  0  0  0  0  0  0  0  0  0  0  0
   57.4990   25.4850   45.9820 C   0  0  0  0  0  0  0  0  0  0  0  0
   58.7040   24.7900   45.7810 C   0  0  0  0  0  0  0  0  0  0  0  0
   58.7020   23.4370   45.1750 C   0  0  0  0  0  0  0  0  0  0  0  0
   59.5000   22.5590   45.6020 O   0  0  0  0  0  0  0  0  0  0  0  0
   57.7540   23.1160   44.1440 N   0  0  0  0  0  0  0  0  0  0  0  0
   57.4050   21.9320   43.7260 C   0  0  0  0  0  0  0  0  0  0  0  0
   56.6980   21.8200   42.4900 N   0  0  0  0  0  0  0  0  0  0  0  0
   57.7610   20.7380   44.4320 N   0  0  0  0  0  0  0  0  0  0  0  0
   59.9090   25.3930   46.1780 C   0  0  0  0  0  0  0  0  0  0  0  0
   59.9070   26.6570   46.7740 C   0  0  0  0  0  0  0  0  0  0  0  0
   62.2070   31.7560   48.9220 C   0  0  0  0  0  0  0  0  0  0  0  0
   62.2020   33.0220   47.6790 S   0  0  0  0  0  0  0  0  0  0  0  0
   61.5270   32.5010   46.4430 O   0  0  0  0  0  0  0  0  0  0  0  0
   63.6170   33.3760   47.3060 O   0  0  0  0  0  0  0  0  0  0  0  0
   61.3500   34.4340   48.2470 N   0  0  0  0  0  0  0  0  0  0  0  0
   59.9340   34.1670   48.5130 C   0  0  0  0  0  0  0  0  0  0  0  0
   59.1400   34.1530   47.2340 C   0  0  0  0  0  0  0  0  0  0  0  0
   59.6420   34.7650   46.0740 C   0  0  0  0  0  0  0  0  0  0  0  0
   58.8760   34.7930   44.9040 C   0  0  0  0  0  0  0  0  0  0  0  0
   57.6100   34.2000   44.8830 C   0  0  0  0  0  0  0  0  0  0  0  0
   57.1150   33.5680   46.0260 C   0  0  0  0  0  0  0  0  0  0  0  0
   57.8800   33.5360   47.1960 C   0  0  0  0  0  0  0  0  0  0  0  0
   63.3000   31.7080   49.8040 C   0  0  0  0  0  0  0  0  0  0  0  0
   62.4810   28.9454   51.6321 H   0  0  0  0  0  0  0  0  0  0  0  0
   60.5731   28.9488   50.0409 H   0  0  0  0  0  0  0  0  0  0  0  0
   59.0617   30.8182   48.7291 H   0  0  0  0  0  0  0  0  0  0  0  0
   60.0625   31.5546   47.3993 H   0  0  0  0  0  0  0  0  0  0  0  0
   60.6549   30.5791   45.7220 H   0  0  0  0  0  0  0  0  0  0  0  0
   60.6672   28.7459   45.5498 H   0  0  0  0  0  0  0  0  0  0  0  0
   58.0810   31.5087   45.9168 H   0  0  0  0  0  0  0  0  0  0  0  0
   56.0153   31.5418   44.5229 H   0  0  0  0  0  0  0  0  0  0  0  0
   55.5875   29.7186   42.8719 H   0  0  0  0  0  0  0  0  0  0  0  0
   57.1959   27.8213   42.6687 H   0  0  0  0  0  0  0  0  0  0  0  0
   59.2584   27.7754   44.0666 H   0  0  0  0  0  0  0  0  0  0  0  0
   58.6488   28.5294   48.7705 H   0  0  0  0  0  0  0  0  0  0  0  0
   57.7978   29.2416   47.3446 H   0  0  0  0  0  0  0  0  0  0  0  0
   56.5485   27.2817   46.7264 H   0  0  0  0  0  0  0  0  0  0  0  0
   56.5481   25.0307   45.6666 H   0  0  0  0  0  0  0  0  0  0  0  0
   56.4470   22.6720   41.9420 H   0  0  0  0  0  0  0  0  0  0  0  0
   56.4410   20.8810   42.1090 H   0  0  0  0  0  0  0  0  0  0  0  0
   57.3810   19.8180   44.1170 H   0  0  0  0  0  0  0  0  0  0  0  0
   58.5080   20.7200   45.1600 H   0  0  0  0  0  0  0  0  0  0  0  0
   60.8614   24.8662   46.0185 H   0  0  0  0  0  0  0  0  0  0  0  0
   60.8585   27.1197   47.0748 H   0  0  0  0  0  0  0  0  0  0  0  0
   59.8386   33.1887   49.0067 H   0  0  0  0  0  0  0  0  0  0  0  0
   59.5419   34.9646   49.1612 H   0  0  0  0  0  0  0  0  0  0  0  0
   60.6415   35.2241   46.0856 H   0  0  0  0  0  0  0  0  0  0  0  0
   59.2696   35.2815   44.0004 H   0  0  0  0  0  0  0  0  0  0  0  0
   57.0035   34.2312   43.9658 H   0  0  0  0  0  0  0  0  0  0  0  0
   56.1222   33.0949   46.0057 H   0  0  0  0  0  0  0  0  0  0  0  0
   57.4928   33.0253   48.0900 H   0  0  0  0  0  0  0  0  0  0  0  0
   64.0979   32.4604   49.7196 H   0  0  0  0  0  0  0  0  0  0  0  0
  1  2  3  0
  2  3  1  0
  3  4  2  0
  4  5  1  0
  5  6  2  0
  6  7  1  0
  7  8  1  0
  8  9  1  0
  9 10  1  0
 10 11  2  0
 11 12  1  0
 12 13  2  0
 13 14  1  0
 14 15  2  0
  8 16  1  0
 16 17  1  0
 17 18  2  0
 18 19  1  0
 19 20  2  0
 20 21  1  0
 21 22  2  0
 21 23  1  0
 23 24  2  3
 24 25  1  0
 24 26  1  0
 20 27  1  0
 27 28  2  0
  6 29  1  0
 29 30  1  0
 30 31  2  0
 30 32  2  0
 30 33  1  0
 33 34  1  0
 34 35  1  0
 35 36  2  0
 36 37  1  0
 37 38  2  0
 38 39  1  0
 39 40  2  0
 29 41  2  0
 41  3  1  0
 15 10  1  0
 28 17  1  0
 40 35  1  0
  4 42  1  0
  5 43  1  0
  7 44  1  0
  7 45  1  0
  9 46  1  0
  9 47  1  0
 11 48  1  0
 12 49  1  0
 13 50  1  0
 14 51  1  0
 15 52  1  0
 16 53  1  0
 16 54  1  0
 18 55  1  0
 19 56  1  0
 25 57  1  0
 25 58  1  0
 26 59  1  0
 26 60  1  0
 27 61  1  0
 28 62  1  0
 34 63  1  0
 34 64  1  0
 36 65  1  0
 37 66  1  0
 38 67  1  0
 39 68  1  0
 40 69  1  0
 41 70  1  0
M  CHG  1  33  -1
M  END
>  <UniqueID>  (54) 
51

>  <SMILES>  (54) 
N#Cc1ccc(CN(Cc2ccccc2)Cc2ccc(C(=O)N=C(N)N)cc2)c(S(=O)(=O)[N-]Cc2ccccc2)c1

>  <Energy>  (54) 
80.65155907551589

>  <Genealogy>  (54) 
N#Cc1ccc(CN(Cc2ccccc2)Cc2ccc(C(=O)N=C(N)N)cc2)c(S(=O)(=O)[N-]Cc2ccccc2)c1 (protonated)
N#Cc1ccc(CN(Cc2ccccc2)Cc2ccc(C(=O)N=C(N)N)cc2)c(S(=O)(=O)[N-]Cc2ccccc2)c1 (3D coordinates assigned)
N#Cc1ccc(CN(Cc2ccccc2)Cc2ccc(C(=O)N=C(N)N)cc2)c(S(=O)(=O)[N-]Cc2ccccc2)c1 (optimized conformer: 80.65155907551589 kcal/mol)

>  <smiles>  (54) 
N#Cc1ccc(CN(Cc2ccccc2)Cc2ccc(C(=O)N=C(N)N)cc2)c(S(=O)(=O)NCc2ccccc2)c1

>  <score_type>  (54) 
oracle

>  <origin>  (54) 
adg

>  <m_score__min__energy>  (54) 
-12.390000000000001

>  <m_primary>  (54) 
energy

$$$$
54:0
     RDKit          3D

 48 51  0  0  0  0  0  0  0  0999 V2000
   54.6420   23.2120   45.6040 C   0  0  0  0  0  0  0  0  0  0  0  0
   55.1620   24.6050   45.7410 C   0  0  0  0  0  0  0  0  0  0  0  0
   54.3740   25.6910   45.8570 N   0  0  0  0  0  0  0  0  0  0  0  0
   55.1610   26.7180   46.0000 O   0  0  0  0  0  0  0  0  0  0  0  0
   56.4230   26.3570   45.9870 C   0  0  0  0  0  0  0  0  0  0  0  0
   57.3890   27.2190   46.1140 N   0  0  0  0  0  0  0  0  0  0  0  0
   58.4620   27.8020   44.8810 S   0  0  0  0  0  0  0  0  0  0  0  0
   58.5810   26.8060   43.7630 O   0  0  0  0  0  0  0  0  0  0  0  0
   59.8160   28.0650   45.4790 O   0  0  0  0  0  0  0  0  0  0  0  0
   57.8100   29.3080   44.2360 C   0  0  0  0  0  0  0  0  0  0  0  0
   57.0270   29.3320   43.0700 C   0  0  0  0  0  0  0  0  0  0  0  0
   56.6270   30.6030   42.6860 C   0  0  0  0  0  0  0  0  0  0  0  0
   57.2480   31.6990   43.7930 S   0  0  0  0  0  0  0  0  0  0  0  0
   58.0280   30.5820   44.7840 C   0  0  0  0  0  0  0  0  0  0  0  0
   58.8030   30.9380   45.9960 C   0  0  0  0  0  0  0  0  0  0  0  0
   59.0250   30.0690   46.8790 O   0  0  0  0  0  0  0  0  0  0  0  0
   59.2670   32.2850   46.1920 N   0  0  0  0  0  0  0  0  0  0  0  0
   60.2940   32.6450   47.1320 C   0  0  0  0  0  0  0  0  0  0  0  0
   61.3990   31.8000   47.3010 C   0  0  0  0  0  0  0  0  0  0  0  0
   62.4010   32.1160   48.2220 C   0  0  0  0  0  0  0  0  0  0  0  0
   62.3020   33.2730   49.0130 C   0  0  0  0  0  0  0  0  0  0  0  0
   63.3650   33.6300   49.9840 C   0  0  0  0  0  0  0  0  0  0  0  0
   63.3300   34.7640   50.5350 O   0  0  0  0  0  0  0  0  0  0  0  0
   64.4680   32.7010   50.3320 C   0  0  0  0  0  0  0  0  0  0  0  0
   64.2050   31.4600   50.9450 C   0  0  0  0  0  0  0  0  0  0  0  0
   65.2560   30.6030   51.2850 C   0  0  0  0  0  0  0  0  0  0  0  0
   66.5760   30.9760   51.0270 C   0  0  0  0  0  0  0  0  0  0  0  0
   66.8500   32.2110   50.4350 C   0  0  0  0  0  0  0  0  0  0  0  0
   65.8030   33.0730   50.0930 C   0  0  0  0  0  0  0  0  0  0  0  0
   61.1910   34.1180   48.8480 C   0  0  0  0  0  0  0  0  0  0  0  0
   60.1900   33.8010   47.9260 C   0  0  0  0  0  0  0  0  0  0  0  0
   56.4910   24.9770   45.8240 C   0  0  0  0  0  0  0  0  0  0  0  0
   57.8620   23.8770   45.7640 Cl  0  0  0  0  0  0  0  0  0  0  0  0
   54.4810   22.7808   46.6031 H   0  0  0  0  0  0  0  0  0  0  0  0
   53.6895   23.2286   45.0540 H   0  0  0  0  0  0  0  0  0  0  0  0
   55.3724   22.6004   45.0540 H   0  0  0  0  0  0  0  0  0  0  0  0
   56.7555   28.4240   42.5116 H   0  0  0  0  0  0  0  0  0  0  0  0
   56.0104   30.8492   41.8090 H   0  0  0  0  0  0  0  0  0  0  0  0
   58.7800   33.0590   45.6860 H   0  0  0  0  0  0  0  0  0  0  0  0
   61.4782   30.8799   46.7034 H   0  0  0  0  0  0  0  0  0  0  0  0
   63.2734   31.4545   48.3286 H   0  0  0  0  0  0  0  0  0  0  0  0
   63.1671   31.1638   51.1572 H   0  0  0  0  0  0  0  0  0  0  0  0
   65.0421   29.6326   51.7569 H   0  0  0  0  0  0  0  0  0  0  0  0
   67.4007   30.2972   51.2900 H   0  0  0  0  0  0  0  0  0  0  0  0
   67.8911   32.5062   50.2374 H   0  0  0  0  0  0  0  0  0  0  0  0
   66.0251   34.0478   49.6343 H   0  0  0  0  0  0  0  0  0  0  0  0
   61.1089   35.0356   49.4491 H   0  0  0  0  0  0  0  0  0  0  0  0
   59.3153   34.4597   47.8206 H   0  0  0  0  0  0  0  0  0  0  0  0
  1  2  1  0
  2  3  1  0
  3  4  1  0
  4  5  1  0
  5  6  2  3
  6  7  1  0
  7  8  2  0
  7  9  2  0
  7 10  1  0
 10 11  1  0
 11 12  2  0
 12 13  1  0
 13 14  1  0
 14 15  1  0
 15 16  2  0
 15 17  1  0
 17 18  1  0
 18 19  2  0
 19 20  1  0
 20 21  2  0
 21 22  1  0
 22 23  2  0
 22 24  1  0
 24 25  2  0
 25 26  1  0
 26 27  2  0
 27 28  1  0
 28 29  2  0
 21 30  1  0
 30 31  2  0
  5 32  1  0
 32 33  1  0
 32  2  2  0
 14 10  2  0
 31 18  1  0
 29 24  1  0
  1 34  1  0
  1 35  1  0
  1 36  1  0
 11 37  1  0
 12 38  1  0
 17 39  1  0
 19 40  1  0
 20 41  1  0
 25 42  1  0
 26 43  1  0
 27 44  1  0
 28 45  1  0
 29 46  1  0
 30 47  1  0
 31 48  1  0
M  CHG  1   3  -1
M  END
>  <UniqueID>  (55) 
52

>  <SMILES>  (55) 
Cc1[n-]oc(=NS(=O)(=O)c2ccsc2C(=O)Nc2ccc(C(=O)c3ccccc3)cc2)c1Cl

>  <Energy>  (55) 
129.18783397805015

>  <Genealogy>  (55) 
Cc1[n-]oc(=NS(=O)(=O)c2ccsc2C(=O)Nc2ccc(C(=O)c3ccccc3)cc2)c1Cl (protonated)
Cc1[n-]oc(=NS(=O)(=O)c2ccsc2C(=O)Nc2ccc(C(=O)c3ccccc3)cc2)c1Cl (3D coordinates assigned)
Cc1[n-]oc(=NS(=O)(=O)c2ccsc2C(=O)Nc2ccc(C(=O)c3ccccc3)cc2)c1Cl (optimized conformer: 129.18783397805015 kcal/mol)

>  <smiles>  (55) 
Cc1[nH]oc(=NS(=O)(=O)c2ccsc2C(=O)Nc2ccc(C(=O)c3ccccc3)cc2)c1Cl

>  <score_type>  (55) 
oracle

>  <origin>  (55) 
adg

>  <m_score__min__energy>  (55) 
-12.970000000000001

>  <m_primary>  (55) 
energy

$$$$
55:0
     RDKit          3D

 43 46  0  0  0  0  0  0  0  0999 V2000
   58.7570   28.9640   52.0850 C   0  0  0  0  0  0  0  0  0  0  0  0
   57.6330   29.8330   52.6690 C   0  0  0  0  0  0  0  0  0  0  0  0
   57.9310   30.1270   54.1460 C   0  0  0  0  0  0  0  0  0  0  0  0
   56.4180   29.0720   52.6020 O   0  0  0  0  0  0  0  0  0  0  0  0
   55.1610   29.6560   52.4310 C   0  0  0  0  0  0  0  0  0  0  0  0
   54.0020   28.9240   52.6910 C   0  0  0  0  0  0  0  0  0  0  0  0
   52.7460   29.5120   52.5130 C   0  0  0  0  0  0  0  0  0  0  0  0
   52.6370   30.8400   52.0590 C   0  0  0  0  0  0  0  0  0  0  0  0
   51.3080   31.4660   51.8660 C   0  0  0  0  0  0  0  0  0  0  0  0
   51.0730   32.3450   50.7660 N   0  0  0  0  0  0  0  0  0  0  0  0
   50.3700   31.2280   52.6720 O   0  0  0  0  0  0  0  0  0  0  0  0
   53.8130   31.5660   51.7870 C   0  0  0  0  0  0  0  0  0  0  0  0
   55.0700   30.9730   51.9740 C   0  0  0  0  0  0  0  0  0  0  0  0
   56.3090   31.6920   51.6460 C   0  0  0  0  0  0  0  0  0  0  0  0
   57.5130   31.1560   51.9030 C   0  0  0  0  0  0  0  0  0  0  0  0
   58.6930   31.9110   51.5660 N   0  0  0  0  0  0  0  0  0  0  0  0
   59.3860   32.4960   52.5520 N   0  0  0  0  0  0  0  0  0  0  0  0
   60.5070   33.2270   52.3110 C   0  0  0  0  0  0  0  0  0  0  0  0
   61.1170   33.7650   53.2740 O   0  0  0  0  0  0  0  0  0  0  0  0
   60.9710   33.3730   50.9950 C   0  0  0  0  0  0  0  0  0  0  0  0
   62.1250   34.1230   50.6980 C   0  0  0  0  0  0  0  0  0  0  0  0
   62.5650   34.2430   49.3780 C   0  0  0  0  0  0  0  0  0  0  0  0
   61.8650   33.6200   48.3450 C   0  0  0  0  0  0  0  0  0  0  0  0
   60.7190   32.8720   48.6260 C   0  0  0  0  0  0  0  0  0  0  0  0
   60.2600   32.7420   49.9510 C   0  0  0  0  0  0  0  0  0  0  0  0
   59.1100   31.9980   50.2650 C   0  0  0  0  0  0  0  0  0  0  0  0
   58.4670   31.4100   49.3500 O   0  0  0  0  0  0  0  0  0  0  0  0
   59.3372   28.5154   52.9048 H   0  0  0  0  0  0  0  0  0  0  0  0
   58.3200   28.1666   51.4660 H   0  0  0  0  0  0  0  0  0  0  0  0
   59.4187   29.5877   51.4660 H   0  0  0  0  0  0  0  0  0  0  0  0
   57.2919   29.4965   54.7816 H   0  0  0  0  0  0  0  0  0  0  0  0
   58.9881   29.9082   54.3574 H   0  0  0  0  0  0  0  0  0  0  0  0
   57.7265   31.1870   54.3574 H   0  0  0  0  0  0  0  0  0  0  0  0
   54.0765   27.8824   53.0367 H   0  0  0  0  0  0  0  0  0  0  0  0
   51.8363   28.9326   52.7293 H   0  0  0  0  0  0  0  0  0  0  0  0
   50.2740   32.1870   50.1150 H   0  0  0  0  0  0  0  0  0  0  0  0
   53.7451   32.6029   51.4262 H   0  0  0  0  0  0  0  0  0  0  0  0
   56.2490   32.6873   51.1815 H   0  0  0  0  0  0  0  0  0  0  0  0
   59.0660   32.3900   53.5430 H   0  0  0  0  0  0  0  0  0  0  0  0
   62.6819   34.6161   51.5084 H   0  0  0  0  0  0  0  0  0  0  0  0
   63.4668   34.8310   49.1522 H   0  0  0  0  0  0  0  0  0  0  0  0
   62.2159   33.7178   47.3071 H   0  0  0  0  0  0  0  0  0  0  0  0
   60.1719   32.3816   47.8073 H   0  0  0  0  0  0  0  0  0  0  0  0
  1  2  1  0
  2  3  1  0
  2  4  1  0
  4  5  1  0
  5  6  2  0
  6  7  1  0
  7  8  2  0
  8  9  1  0
  9 10  1  0
  9 11  2  0
  8 12  1  0
 12 13  2  0
 13 14  1  0
 14 15  2  0
 15 16  1  0
 16 17  1  0
 17 18  1  0
 18 19  2  0
 18 20  1  0
 20 21  2  0
 21 22  1  0
 22 23  2  0
 23 24  1  0
 24 25  2  0
 25 26  1  0
 26 27  2  0
 15  2  1  0
 26 16  1  0
 13  5  1  0
 25 20  1  0
  1 28  1  0
  1 29  1  0
  1 30  1  0
  3 31  1  0
  3 32  1  0
  3 33  1  0
  6 34  1  0
  7 35  1  0
 10 36  1  0
 12 37  1  0
 14 38  1  0
 17 39  1  0
 21 40  1  0
 22 41  1  0
 23 42  1  0
 24 43  1  0
M  CHG  1  10  -1
M  END
>  <UniqueID>  (56) 
53

>  <SMILES>  (56) 
CC1(C)Oc2ccc(C([NH-])=O)cc2C=C1n1[nH]c(=O)c2ccccc2c1=O

>  <Energy>  (56) 
61.66887562711649

>  <Genealogy>  (56) 
CC1(C)Oc2ccc(C([NH-])=O)cc2C=C1n1[nH]c(=O)c2ccccc2c1=O (protonated)
CC1(C)Oc2ccc(C([NH-])=O)cc2C=C1n1[nH]c(=O)c2ccccc2c1=O (3D coordinates assigned)
CC1(C)Oc2ccc(C([NH-])=O)cc2C=C1n1[nH]c(=O)c2ccccc2c1=O (nonaromatic ring conformer: 61.66887562711649 kcal/mol)

>  <smiles>  (56) 
CC1(C)Oc2ccc(C(N)=O)cc2C=C1n1[nH]c(=O)c2ccccc2c1=O

>  <score_type>  (56) 
oracle

>  <origin>  (56) 
adg

>  <m_score__min__energy>  (56) 
-10.81

>  <m_primary>  (56) 
energy

$$$$
56:0
     RDKit          3D

 41 43  0  0  0  0  0  0  0  0999 V2000
   54.8070   26.3450   46.0030 O   0  0  0  0  0  0  0  0  0  0  0  0
   55.9840   26.0950   46.3800 C   0  0  0  0  0  0  0  0  0  0  0  0
   56.2650   24.8310   46.8850 O   0  0  0  0  0  0  0  0  0  0  0  0
   57.0410   27.1330   46.2800 C   0  0  0  0  0  0  0  0  0  0  0  0
   58.3420   26.8480   46.7350 C   0  0  0  0  0  0  0  0  0  0  0  0
   59.3530   27.8080   46.6530 C   0  0  0  0  0  0  0  0  0  0  0  0
   59.0880   29.0760   46.1320 C   0  0  0  0  0  0  0  0  0  0  0  0
   60.1620   30.0250   46.0480 N   0  0  0  0  0  0  0  0  0  0  0  0
   60.6350   30.8770   47.1020 C   0  0  0  0  0  0  0  0  0  0  0  0
   61.7150   31.5100   46.9530 O   0  0  0  0  0  0  0  0  0  0  0  0
   59.8200   31.0560   48.3340 C   0  0  0  0  0  0  0  0  0  0  0  0
   59.2880   29.9210   48.9790 C   0  0  0  0  0  0  0  0  0  0  0  0
   58.5100   30.0520   50.1290 C   0  0  0  0  0  0  0  0  0  0  0  0
   58.2520   31.3130   50.6590 C   0  0  0  0  0  0  0  0  0  0  0  0
   58.7720   32.4510   50.0420 C   0  0  0  0  0  0  0  0  0  0  0  0
   59.5590   32.3410   48.8770 C   0  0  0  0  0  0  0  0  0  0  0  0
   60.0990   33.4780   48.2490 O   0  0  0  0  0  0  0  0  0  0  0  0
   59.3600   34.4600   47.5220 C   0  0  0  0  0  0  0  0  0  0  0  0
   58.7340   33.8560   46.2930 C   0  0  0  0  0  0  0  0  0  0  0  0
   59.3300   34.0220   45.0320 C   0  0  0  0  0  0  0  0  0  0  0  0
   58.7480   33.4500   43.8970 C   0  0  0  0  0  0  0  0  0  0  0  0
   57.5720   32.7030   44.0130 C   0  0  0  0  0  0  0  0  0  0  0  0
   56.9800   32.5220   45.2660 C   0  0  0  0  0  0  0  0  0  0  0  0
   57.5600   33.0920   46.4040 C   0  0  0  0  0  0  0  0  0  0  0  0
   57.8000   29.3640   45.6490 C   0  0  0  0  0  0  0  0  0  0  0  0
   56.7820   28.4070   45.7250 C   0  0  0  0  0  0  0  0  0  0  0  0
   55.5210   28.7370   45.2390 O   0  0  0  0  0  0  0  0  0  0  0  0
   58.5650   25.8582   47.1599 H   0  0  0  0  0  0  0  0  0  0  0  0
   60.3670   27.5630   47.0019 H   0  0  0  0  0  0  0  0  0  0  0  0
   59.4890   28.9197   48.5702 H   0  0  0  0  0  0  0  0  0  0  0  0
   58.0992   29.1566   50.6184 H   0  0  0  0  0  0  0  0  0  0  0  0
   57.6372   31.4123   51.5657 H   0  0  0  0  0  0  0  0  0  0  0  0
   58.5661   33.4439   50.4684 H   0  0  0  0  0  0  0  0  0  0  0  0
   58.5676   34.8663   48.1678 H   0  0  0  0  0  0  0  0  0  0  0  0
   60.0478   35.2600   47.2107 H   0  0  0  0  0  0  0  0  0  0  0  0
   60.2584   34.6044   44.9372 H   0  0  0  0  0  0  0  0  0  0  0  0
   59.2160   33.5879   42.9111 H   0  0  0  0  0  0  0  0  0  0  0  0
   57.1127   32.2577   43.1181 H   0  0  0  0  0  0  0  0  0  0  0  0
   56.0570   31.9307   45.3573 H   0  0  0  0  0  0  0  0  0  0  0  0
   57.0953   32.9416   47.3896 H   0  0  0  0  0  0  0  0  0  0  0  0
   57.5905   30.3496   45.2077 H   0  0  0  0  0  0  0  0  0  0  0  0
  1  2  2  0
  2  3  1  0
  2  4  1  0
  4  5  2  0
  5  6  1  0
  6  7  2  0
  7  8  1  0
  8  9  1  0
  9 10  2  0
  9 11  1  0
 11 12  2  0
 12 13  1  0
 13 14  2  0
 14 15  1  0
 15 16  2  0
 16 17  1  0
 17 18  1  0
 18 19  1  0
 19 20  2  0
 20 21  1  0
 21 22  2  0
 22 23  1  0
 23 24  2  0
  7 25  1  0
 25 26  2  0
 26 27  1  0
 26  4  1  0
 16 11  1  0
 24 19  1  0
  5 28  1  0
  6 29  1  0
 12 30  1  0
 13 31  1  0
 14 32  1  0
 15 33  1  0
 18 34  1  0
 18 35  1  0
 20 36  1  0
 21 37  1  0
 22 38  1  0
 23 39  1  0
 24 40  1  0
 25 41  1  0
M  CHG  3   3  -1   8  -1  27  -1
M  END
>  <UniqueID>  (57) 
54

>  <SMILES>  (57) 
O=C([O-])c1ccc([N-]C(=O)c2ccccc2OCc2ccccc2)cc1[O-]

>  <Energy>  (57) 
52.48527303885948

>  <Genealogy>  (57) 
O=C([O-])c1ccc([N-]C(=O)c2ccccc2OCc2ccccc2)cc1[O-] (protonated)
O=C([O-])c1ccc([N-]C(=O)c2ccccc2OCc2ccccc2)cc1[O-] (3D coordinates assigned)
O=C([O-])c1ccc([N-]C(=O)c2ccccc2OCc2ccccc2)cc1[O-] (optimized conformer: 52.48527303885948 kcal/mol)

>  <smiles>  (57) 
O=C(O)c1ccc(NC(=O)c2ccccc2OCc2ccccc2)cc1O

>  <score_type>  (57) 
oracle

>  <origin>  (57) 
adg

>  <m_score__min__energy>  (57) 
-15.300000000000001

>  <m_primary>  (57) 
energy

$$$$
57:0
     RDKit          3D

 44 46  0  0  0  0  0  0  0  0999 V2000
   57.7410   25.9740   42.7140 C   0  0  0  0  0  0  0  0  0  0  0  0
   57.9400   25.5960   44.1530 C   0  0  0  0  0  0  0  0  0  0  0  0
   58.1250   24.2390   44.4960 C   0  0  0  0  0  0  0  0  0  0  0  0
   58.3320   23.8650   45.8400 C   0  0  0  0  0  0  0  0  0  0  0  0
   58.4920   22.6520   46.1370 O   0  0  0  0  0  0  0  0  0  0  0  0
   58.3590   24.8090   46.8210 N   0  0  0  0  0  0  0  0  0  0  0  0
   58.1880   26.1140   46.4970 C   0  0  0  0  0  0  0  0  0  0  0  0
   58.1960   27.1310   47.3680 N   0  0  0  0  0  0  0  0  0  0  0  0
   57.9780   28.2460   46.6350 C   0  0  0  0  0  0  0  0  0  0  0  0
   57.9400   29.6340   47.2210 C   0  0  0  0  0  0  0  0  0  0  0  0
   59.3260   30.2150   47.3750 C   0  0  0  0  0  0  0  0  0  0  0  0
   60.2140   29.6270   48.2950 C   0  0  0  0  0  0  0  0  0  0  0  0
   61.5100   30.1220   48.4470 C   0  0  0  0  0  0  0  0  0  0  0  0
   61.9350   31.2110   47.6870 C   0  0  0  0  0  0  0  0  0  0  0  0
   61.0640   31.8120   46.7760 C   0  0  0  0  0  0  0  0  0  0  0  0
   59.7560   31.3270   46.6100 C   0  0  0  0  0  0  0  0  0  0  0  0
   58.8600   31.9810   45.6960 N   0  0  0  0  0  0  0  0  0  0  0  0
   58.2710   33.5900   45.9610 S   0  0  0  0  0  0  0  0  0  0  0  0
   57.4110   33.9880   44.7950 O   0  0  0  0  0  0  0  0  0  0  0  0
   57.4420   33.6360   47.2130 O   0  0  0  0  0  0  0  0  0  0  0  0
   59.6340   34.7320   46.0770 C   0  0  0  0  0  0  0  0  0  0  0  0
   59.3450   35.8720   45.3530 F   0  0  0  0  0  0  0  0  0  0  0  0
   59.8490   35.0740   47.3980 F   0  0  0  0  0  0  0  0  0  0  0  0
   60.7740   34.1410   45.5660 F   0  0  0  0  0  0  0  0  0  0  0  0
   57.8670   27.9280   45.2740 C   0  0  0  0  0  0  0  0  0  0  0  0
   57.6270   28.9190   44.1650 C   0  0  0  0  0  0  0  0  0  0  0  0
   56.4600   29.8030   44.4830 C   0  0  0  0  0  0  0  0  0  0  0  0
   56.5750   31.0550   44.4290 O   0  0  0  0  0  0  0  0  0  0  0  0
   55.2430   29.2410   44.8480 O   0  0  0  0  0  0  0  0  0  0  0  0
   57.9840   26.5370   45.2040 C   0  0  0  0  0  0  0  0  0  0  0  0
   57.2293   26.9461   42.6576 H   0  0  0  0  0  0  0  0  0  0  0  0
   58.7187   26.0449   42.2149 H   0  0  0  0  0  0  0  0  0  0  0  0
   57.1292   25.2081   42.2149 H   0  0  0  0  0  0  0  0  0  0  0  0
   58.1076   23.4691   43.7105 H   0  0  0  0  0  0  0  0  0  0  0  0
   58.3420   27.0660   48.4010 H   0  0  0  0  0  0  0  0  0  0  0  0
   57.3525   30.2851   46.5569 H   0  0  0  0  0  0  0  0  0  0  0  0
   57.4820   29.5718   48.2192 H   0  0  0  0  0  0  0  0  0  0  0  0
   59.8836   28.7696   48.8997 H   0  0  0  0  0  0  0  0  0  0  0  0
   62.1967   29.6527   49.1669 H   0  0  0  0  0  0  0  0  0  0  0  0
   62.9581   31.5973   47.8053 H   0  0  0  0  0  0  0  0  0  0  0  0
   61.4052   32.6732   46.1828 H   0  0  0  0  0  0  0  0  0  0  0  0
   58.6720   31.5550   44.7630 H   0  0  0  0  0  0  0  0  0  0  0  0
   58.5254   29.5405   44.0364 H   0  0  0  0  0  0  0  0  0  0  0  0
   57.4077   28.3657   43.2399 H   0  0  0  0  0  0  0  0  0  0  0  0
  1  2  1  0
  2  3  2  0
  3  4  1  0
  4  5  2  0
  4  6  1  0
  6  7  1  0
  7  8  1  0
  8  9  1  0
  9 10  1  0
 10 11  1  0
 11 12  2  0
 12 13  1  0
 13 14  2  0
 14 15  1  0
 15 16  2  0
 16 17  1  0
 17 18  1  0
 18 19  2  0
 18 20  2  0
 18 21  1  0
 21 22  1  0
 21 23  1  0
 21 24  1  0
  9 25  2  0
 25 26  1  0
 26 27  1  0
 27 28  2  0
 27 29  1  0
 25 30  1  0
 30  2  1  0
 30  7  2  0
 16 11  1  0
  1 31  1  0
  1 32  1  0
  1 33  1  0
  3 34  1  0
  8 35  1  0
 10 36  1  0
 10 37  1  0
 12 38  1  0
 13 39  1  0
 14 40  1  0
 15 41  1  0
 17 42  1  0
 26 43  1  0
 26 44  1  0
M  CHG  2   6  -1  29  -1
M  END
>  <UniqueID>  (58) 
55

>  <SMILES>  (58) 
Cc1cc(=O)[n-]c2[nH]c(Cc3ccccc3NS(=O)(=O)C(F)(F)F)c(CC(=O)[O-])c12

>  <Energy>  (58) 
80.56943770315911

>  <Genealogy>  (58) 
Cc1cc(=O)[n-]c2[nH]c(Cc3ccccc3NS(=O)(=O)C(F)(F)F)c(CC(=O)[O-])c12 (protonated)
Cc1cc(=O)[n-]c2[nH]c(Cc3ccccc3NS(=O)(=O)C(F)(F)F)c(CC(=O)[O-])c12 (3D coordinates assigned)
Cc1cc(=O)[n-]c2[nH]c(Cc3ccccc3NS(=O)(=O)C(F)(F)F)c(CC(=O)[O-])c12 (optimized conformer: 80.56943770315911 kcal/mol)

>  <smiles>  (58) 
Cc1cc(=O)[nH]c2[nH]c(Cc3ccccc3NS(=O)(=O)C(F)(F)F)c(CC(=O)O)c12

>  <score_type>  (58) 
oracle

>  <origin>  (58) 
adg

>  <m_score__min__energy>  (58) 
-11.6

>  <m_primary>  (58) 
energy

$$$$
58:0
     RDKit          3D

 68 72  0  0  0  0  0  0  0  0999 V2000
   64.2160   33.5640   51.4550 C   0  0  0  0  0  0  0  0  0  0  0  0
   62.7280   33.8240   51.6800 C   0  0  0  0  0  0  0  0  0  0  0  0
   61.8560   32.9310   50.7770 C   0  0  1  0  0  0  0  0  0  0  0  0
   60.4770   33.4250   50.7520 N   0  0  0  0  0  0  0  0  0  0  0  0
   59.3540   32.5560   50.9160 C   0  0  0  0  0  0  0  0  0  0  0  0
   59.0360   31.2890   50.4590 C   0  0  0  0  0  0  0  0  0  0  0  0
   59.6950   30.3090   49.6520 N   0  0  0  0  0  0  0  0  0  0  0  0
   60.0620   29.1770   50.4670 C   0  0  0  0  0  0  0  0  0  0  0  0
   59.6780   29.1330   51.8190 C   0  0  0  0  0  0  0  0  0  0  0  0
   60.0230   28.0410   52.6190 C   0  0  0  0  0  0  0  0  0  0  0  0
   60.7410   26.9730   52.0740 C   0  0  0  0  0  0  0  0  0  0  0  0
   61.1250   27.0010   50.7310 C   0  0  0  0  0  0  0  0  0  0  0  0
   60.7930   28.0990   49.9190 C   0  0  0  0  0  0  0  0  0  0  0  0
   61.1300   28.1160   48.5610 O   0  0  0  0  0  0  0  0  0  0  0  0
   60.3860   28.7700   47.5720 C   0  0  0  0  0  0  0  0  0  0  0  0
   60.6290   29.9730   47.2840 O   0  0  0  0  0  0  0  0  0  0  0  0
   59.3030   28.0490   46.8830 C   0  0  0  0  0  0  0  0  0  0  0  0
   59.4290   26.6760   46.6180 C   0  0  0  0  0  0  0  0  0  0  0  0
   58.4060   25.9890   45.9590 C   0  0  0  0  0  0  0  0  0  0  0  0
   58.5800   24.2790   45.6110 Cl  0  0  0  0  0  0  0  0  0  0  0  0
   57.2470   26.6670   45.5700 C   0  0  0  0  0  0  0  0  0  0  0  0
   57.1030   28.0270   45.8500 C   0  0  0  0  0  0  0  0  0  0  0  0
   58.1210   28.7260   46.5240 C   0  0  0  0  0  0  0  0  0  0  0  0
   57.9970   30.0870   46.8370 O   0  0  0  0  0  0  0  0  0  0  0  0
   57.7850   31.1230   45.9180 C   0  0  0  0  0  0  0  0  0  0  0  0
   57.0170   30.9560   44.9300 O   0  0  0  0  0  0  0  0  0  0  0  0
   58.4200   32.4380   46.1530 C   0  0  0  0  0  0  0  0  0  0  0  0
   58.6610   33.3080   45.0720 C   0  0  0  0  0  0  0  0  0  0  0  0
   59.2360   34.5630   45.2880 C   0  0  0  0  0  0  0  0  0  0  0  0
   59.5820   34.9610   46.5810 C   0  0  0  0  0  0  0  0  0  0  0  0
   59.3550   34.1030   47.6610 C   0  0  0  0  0  0  0  0  0  0  0  0
   58.7780   32.8460   47.4510 C   0  0  0  0  0  0  0  0  0  0  0  0
   57.8180   31.3610   51.1100 C   0  0  0  0  0  0  0  0  0  0  0  0
   56.8260   30.5930   51.2290 O   0  0  0  0  0  0  0  0  0  0  0  0
   58.1360   32.6210   51.5710 C   0  0  0  0  0  0  0  0  0  0  0  0
   57.5500   33.4790   52.2820 O   0  0  0  0  0  0  0  0  0  0  0  0
   62.4030   32.8860   49.3650 C   0  0  0  0  0  0  0  0  0  0  0  0
   62.7410   31.6600   48.7620 C   0  0  0  0  0  0  0  0  0  0  0  0
   63.2530   31.6290   47.4600 C   0  0  0  0  0  0  0  0  0  0  0  0
   63.4330   32.8180   46.7510 C   0  0  0  0  0  0  0  0  0  0  0  0
   63.1050   34.0400   47.3420 C   0  0  0  0  0  0  0  0  0  0  0  0
   62.5920   34.0770   48.6420 C   0  0  0  0  0  0  0  0  0  0  0  0
   64.7238   33.4753   52.4268 H   0  0  0  0  0  0  0  0  0  0  0  0
   64.3434   32.6300   50.8881 H   0  0  0  0  0  0  0  0  0  0  0  0
   64.6526   34.3995   50.8881 H   0  0  0  0  0  0  0  0  0  0  0  0
   62.4838   33.6153   52.7320 H   0  0  0  0  0  0  0  0  0  0  0  0
   62.5197   34.8749   51.4307 H   0  0  0  0  0  0  0  0  0  0  0  0
   61.8723   31.9130   51.1935 H   0  0  0  0  0  0  0  0  0  0  0  0
   60.2900   34.4080   50.4460 H   0  0  0  0  0  0  0  0  0  0  0  0
   59.0580   30.0150   48.8760 H   0  0  0  0  0  0  0  0  0  0  0  0
   60.5430   30.7420   49.2180 H   0  0  0  0  0  0  0  0  0  0  0  0
   59.1015   29.9648   52.2500 H   0  0  0  0  0  0  0  0  0  0  0  0
   59.7293   28.0217   53.6789 H   0  0  0  0  0  0  0  0  0  0  0  0
   61.0040   26.1097   52.7029 H   0  0  0  0  0  0  0  0  0  0  0  0
   61.6907   26.1585   50.3065 H   0  0  0  0  0  0  0  0  0  0  0  0
   60.3367   26.1389   46.9304 H   0  0  0  0  0  0  0  0  0  0  0  0
   56.4467   26.1276   45.0421 H   0  0  0  0  0  0  0  0  0  0  0  0
   56.1885   28.5550   45.5419 H   0  0  0  0  0  0  0  0  0  0  0  0
   58.3948   32.9974   44.0509 H   0  0  0  0  0  0  0  0  0  0  0  0
   59.4163   35.2382   44.4386 H   0  0  0  0  0  0  0  0  0  0  0  0
   60.0333   35.9499   46.7497 H   0  0  0  0  0  0  0  0  0  0  0  0
   59.6308   34.4170   48.6785 H   0  0  0  0  0  0  0  0  0  0  0  0
   58.6035   32.1739   48.3041 H   0  0  0  0  0  0  0  0  0  0  0  0
   62.6019   30.7207   49.3174 H   0  0  0  0  0  0  0  0  0  0  0  0
   63.5138   30.6669   46.9948 H   0  0  0  0  0  0  0  0  0  0  0  0
   63.8332   32.7923   45.7267 H   0  0  0  0  0  0  0  0  0  0  0  0
   63.2507   34.9761   46.7831 H   0  0  0  0  0  0  0  0  0  0  0  0
   62.3349   35.0428   49.1015 H   0  0  0  0  0  0  0  0  0  0  0  0
  1  2  1  0
  2  3  1  0
  3  4  1  0
  4  5  1  0
  5  6  2  0
  6  7  1  0
  7  8  1  0
  8  9  2  0
  9 10  1  0
 10 11  2  0
 11 12  1  0
 12 13  2  0
 13 14  1  0
 14 15  1  0
 15 16  2  0
 15 17  1  0
 17 18  2  0
 18 19  1  0
 19 20  1  0
 19 21  2  0
 21 22  1  0
 22 23  2  0
 23 24  1  0
 24 25  1  0
 25 26  2  0
 25 27  1  0
 27 28  2  0
 28 29  1  0
 29 30  2  0
 30 31  1  0
 31 32  2  0
  6 33  1  0
 33 34  2  0
 33 35  1  0
 35 36  2  0
  3 37  1  0
 37 38  2  0
 38 39  1  0
 39 40  2  0
 40 41  1  0
 41 42  2  0
 35  5  1  0
 42 37  1  0
 13  8  1  0
 23 17  1  0
 32 27  1  0
  1 43  1  0
  1 44  1  0
  1 45  1  0
  2 46  1  0
  2 47  1  0
  3 48  1  1
  4 49  1  0
  7 50  1  0
  7 51  1  0
  9 52  1  0
 10 53  1  0
 11 54  1  0
 12 55  1  0
 18 56  1  0
 21 57  1  0
 22 58  1  0
 28 59  1  0
 29 60  1  0
 30 61  1  0
 31 62  1  0
 32 63  1  0
 38 64  1  0
 39 65  1  0
 40 66  1  0
 41 67  1  0
 42 68  1  0
M  CHG  1   7   1
M  END
>  <UniqueID>  (59) 
56

>  <SMILES>  (59) 
CC[C@@H](Nc1c([NH2+]c2ccccc2OC(=O)c2cc(Cl)ccc2OC(=O)c2ccccc2)c(=O)c1=O)c1ccccc1

>  <Energy>  (59) 
66.08932188447638

>  <Genealogy>  (59) 
CCC(Nc1c([NH2+]c2ccccc2OC(=O)c2cc(Cl)ccc2OC(=O)c2ccccc2)c(=O)c1=O)c1ccccc1 (protonated)
CC[C@@H](Nc1c([NH2+]c2ccccc2OC(=O)c2cc(Cl)ccc2OC(=O)c2ccccc2)c(=O)c1=O)c1ccccc1 (chirality)
CC[C@@H](Nc1c([NH2+]c2ccccc2OC(=O)c2cc(Cl)ccc2OC(=O)c2ccccc2)c(=O)c1=O)c1ccccc1 (3D coordinates assigned)
CC[C@@H](Nc1c([NH2+]c2ccccc2OC(=O)c2cc(Cl)ccc2OC(=O)c2ccccc2)c(=O)c1=O)c1ccccc1 (optimized conformer: 66.08932188447638 kcal/mol)

>  <smiles>  (59) 
CCC(Nc1c(Nc2ccccc2OC(=O)c2cc(Cl)ccc2OC(=O)c2ccccc2)c(=O)c1=O)c1ccccc1

>  <score_type>  (59) 
oracle

>  <origin>  (59) 
adg

>  <m_score__min__energy>  (59) 
-7.7300000000000004

>  <m_primary>  (59) 
energy

$$$$
59:0
     RDKit          3D

 25 26  0  0  0  0  0  0  0  0999 V2000
   57.6276   34.6983   47.0031 H   0  0  0  0  0  0  0  0  0  0  0  0
   57.7400   33.9150   46.2390 C   0  0  0  0  0  0  0  0  0  0  0  0
   58.1420   32.3080   46.5290 S   0  0  0  0  0  0  0  0  0  0  0  0
   58.1240   31.8240   44.9190 C   0  0  0  0  0  0  0  0  0  0  0  0
   58.3450   30.4220   44.4330 C   0  0  0  0  0  0  0  0  0  0  0  0
   59.3598   30.1061   44.7166 H   0  0  0  0  0  0  0  0  0  0  0  0
   58.2118   30.4218   43.3411 H   0  0  0  0  0  0  0  0  0  0  0  0
   57.3520   29.4440   45.0170 C   0  0  0  0  0  0  0  0  0  0  0  0
   56.1190   29.7020   44.9630 O   0  0  0  0  0  0  0  0  0  0  0  0
   57.7560   28.2130   45.6430 N   0  0  0  0  0  0  0  0  0  0  0  0
   57.0210   27.1810   45.9410 C   0  0  0  0  0  0  0  0  0  0  0  0
   57.4520   26.0870   46.5990 N   0  0  0  0  0  0  0  0  0  0  0  0
   56.3250   25.3470   46.6570 C   0  0  0  0  0  0  0  0  0  0  0  0
   56.2430   23.7360   47.4310 S   0  0  0  0  0  0  0  0  0  0  0  0
   56.8960   22.8760   45.9660 C   0  0  0  0  0  0  0  0  0  0  0  0
   57.5324   22.0379   46.2862 H   0  0  0  0  0  0  0  0  0  0  0  0
   56.0598   22.4920   45.3632 H   0  0  0  0  0  0  0  0  0  0  0  0
   57.4904   23.5783   45.3632 H   0  0  0  0  0  0  0  0  0  0  0  0
   55.2690   25.9460   46.0730 N   0  0  0  0  0  0  0  0  0  0  0  0
   55.7190   27.1030   45.6250 N   0  0  0  0  0  0  0  0  0  0  0  0
   55.1430   27.8140   45.1200 H   0  0  0  0  0  0  0  0  0  0  0  0
   57.7810   32.9150   44.1300 C   0  0  0  0  0  0  0  0  0  0  0  0
   57.6822   32.8645   43.0356 H   0  0  0  0  0  0  0  0  0  0  0  0
   57.5740   34.0850   44.8700 C   0  0  0  0  0  0  0  0  0  0  0  0
   57.3053   35.0479   44.4111 H   0  0  0  0  0  0  0  0  0  0  0  0
  1  2  1  0
  2  3  1  0
  3  4  1  0
  4  5  1  0
  5  6  1  0
  5  7  1  0
  5  8  1  0
  8  9  2  0
  8 10  1  0
 10 11  2  0
 11 12  1  0
 12 13  2  0
 13 14  1  0
 14 15  1  0
 15 16  1  0
 15 17  1  0
 15 18  1  0
 13 19  1  0
 19 20  1  0
 20 21  1  0
  4 22  2  0
 22 23  1  0
 22 24  1  0
 24 25  1  0
 24  2  2  0
 20 11  1  0
M  CHG  1  19  -1
M  END
>  <UniqueID>  (60) 
57

>  <SMILES>  (60) 
CSc1n/c(=N\C(=O)Cc2cccs2)[nH][n-]1

>  <Energy>  (60) 
83.00679911314307

>  <Genealogy>  (60) 
CSc1nc(=NC(=O)Cc2cccs2)[nH][n-]1 (protonated)
CSc1n/c(=N\C(=O)Cc2cccs2)[nH][n-]1 (cis-trans isomerization)
CSc1n/c(=N\C(=O)Cc2cccs2)[nH][n-]1 (3D coordinates assigned)
CSc1n/c(=N\C(=O)Cc2cccs2)[nH][n-]1 (optimized conformer: 83.00679911314307 kcal/mol)

>  <smiles>  (60) 
CSc1nc(=NC(=O)Cc2cccs2)[nH][nH]1

>  <score_type>  (60) 
oracle

>  <origin>  (60) 
adg

>  <m_score__min__energy>  (60) 
-8.5199999999999996

>  <m_primary>  (60) 
energy

$$$$
60:0
     RDKit          3D

 54 57  0  0  0  0  0  0  0  0999 V2000
   56.5970   26.2850   45.8470 C   0  0  0  0  0  0  0  0  0  0  0  0
   55.8580   27.4740   45.5880 O   0  0  0  0  0  0  0  0  0  0  0  0
   56.4340   28.7040   45.2370 C   0  0  0  0  0  0  0  0  0  0  0  0
   57.5160   29.2600   45.9450 C   0  0  0  0  0  0  0  0  0  0  0  0
   58.0600   30.4870   45.5540 C   0  0  0  0  0  0  0  0  0  0  0  0
   57.5300   31.1790   44.4540 C   0  0  0  0  0  0  0  0  0  0  0  0
   58.1350   32.4810   44.0010 C   0  0  0  0  0  0  0  0  0  0  0  0
   58.9130   33.0780   45.0840 N   0  0  0  0  0  0  0  0  0  0  0  0
   58.3700   34.0720   45.9630 C   0  0  0  0  0  0  0  0  0  0  0  0
   57.2030   34.5130   45.7740 O   0  0  0  0  0  0  0  0  0  0  0  0
   59.1630   34.5310   47.1520 C   0  0  0  0  0  0  0  0  0  0  0  0
   59.7790   33.3940   47.8450 N   0  0  0  0  0  0  0  0  0  0  0  0
   59.3510   33.0340   49.1700 C   0  0  0  0  0  0  0  0  0  0  0  0
   59.6930   33.8500   50.2800 C   0  0  0  0  0  0  0  0  0  0  0  0
   59.2510   33.5220   51.5750 C   0  0  0  0  0  0  0  0  0  0  0  0
   58.4720   32.3790   51.7240 C   0  0  0  0  0  0  0  0  0  0  0  0
   58.1420   31.5920   50.6690 C   0  0  0  0  0  0  0  0  0  0  0  0
   58.5610   31.8800   49.3740 C   0  0  0  0  0  0  0  0  0  0  0  0
   57.3660   30.5380   51.1070 O   0  0  0  0  0  0  0  0  0  0  0  0
   57.1990   30.6700   52.5260 C   0  0  0  0  0  0  0  0  0  0  0  0
   57.9180   31.8600   52.8770 O   0  0  0  0  0  0  0  0  0  0  0  0
   61.1930   32.6480   47.1560 S   0  0  0  0  0  0  0  0  0  0  0  0
   60.8130   31.3210   46.5640 O   0  0  0  0  0  0  0  0  0  0  0  0
   61.7600   33.5210   46.0720 O   0  0  0  0  0  0  0  0  0  0  0  0
   62.4220   32.4460   48.4000 C   0  0  0  0  0  0  0  0  0  0  0  0
   62.2470   31.5220   49.4410 C   0  0  0  0  0  0  0  0  0  0  0  0
   63.2260   31.3860   50.4310 C   0  0  0  0  0  0  0  0  0  0  0  0
   64.3830   32.1720   50.3840 C   0  0  0  0  0  0  0  0  0  0  0  0
   64.5590   33.0960   49.3510 C   0  0  0  0  0  0  0  0  0  0  0  0
   63.5810   33.2340   48.3600 C   0  0  0  0  0  0  0  0  0  0  0  0
   56.4530   30.6230   43.7460 C   0  0  0  0  0  0  0  0  0  0  0  0
   55.9100   29.3950   44.1380 C   0  0  0  0  0  0  0  0  0  0  0  0
   56.6877   26.1390   46.9335 H   0  0  0  0  0  0  0  0  0  0  0  0
   56.0743   25.4245   45.4038 H   0  0  0  0  0  0  0  0  0  0  0  0
   57.5999   26.3728   45.4038 H   0  0  0  0  0  0  0  0  0  0  0  0
   57.9357   28.7263   46.8104 H   0  0  0  0  0  0  0  0  0  0  0  0
   58.9077   30.9122   46.1113 H   0  0  0  0  0  0  0  0  0  0  0  0
   58.7935   32.2958   43.1395 H   0  0  0  0  0  0  0  0  0  0  0  0
   57.3284   33.1719   43.7145 H   0  0  0  0  0  0  0  0  0  0  0  0
   59.8930   32.7480   45.2330 H   0  0  0  0  0  0  0  0  0  0  0  0
   59.9535   35.2171   46.8138 H   0  0  0  0  0  0  0  0  0  0  0  0
   58.4831   35.0402   47.8508 H   0  0  0  0  0  0  0  0  0  0  0  0
   60.3098   34.7478   50.1263 H   0  0  0  0  0  0  0  0  0  0  0  0
   59.5126   34.1484   52.4406 H   0  0  0  0  0  0  0  0  0  0  0  0
   58.2851   31.2277   48.5323 H   0  0  0  0  0  0  0  0  0  0  0  0
   56.1341   30.7725   52.7818 H   0  0  0  0  0  0  0  0  0  0  0  0
   57.5706   29.7884   53.0688 H   0  0  0  0  0  0  0  0  0  0  0  0
   61.3383   30.9033   49.4789 H   0  0  0  0  0  0  0  0  0  0  0  0
   63.0864   30.6611   51.2465 H   0  0  0  0  0  0  0  0  0  0  0  0
   65.1541   32.0622   51.1607 H   0  0  0  0  0  0  0  0  0  0  0  0
   65.4673   33.7156   49.3168 H   0  0  0  0  0  0  0  0  0  0  0  0
   63.7217   33.9623   47.5477 H   0  0  0  0  0  0  0  0  0  0  0  0
   56.0342   31.1553   42.8792 H   0  0  0  0  0  0  0  0  0  0  0  0
   55.0644   28.9688   43.5782 H   0  0  0  0  0  0  0  0  0  0  0  0
  1  2  1  0
  2  3  1  0
  3  4  2  0
  4  5  1  0
  5  6  2  0
  6  7  1  0
  7  8  1  0
  8  9  1  0
  9 10  2  0
  9 11  1  0
 11 12  1  0
 12 13  1  0
 13 14  2  0
 14 15  1  0
 15 16  2  0
 16 17  1  0
 17 18  2  0
 17 19  1  0
 19 20  1  0
 20 21  1  0
 12 22  1  0
 22 23  2  0
 22 24  2  0
 22 25  1  0
 25 26  2  0
 26 27  1  0
 27 28  2  0
 28 29  1  0
 29 30  2  0
  6 31  1  0
 31 32  2  0
 32  3  1  0
 18 13  1  0
 30 25  1  0
 21 16  1  0
  1 33  1  0
  1 34  1  0
  1 35  1  0
  4 36  1  0
  5 37  1  0
  7 38  1  0
  7 39  1  0
  8 40  1  0
 11 41  1  0
 11 42  1  0
 14 43  1  0
 15 44  1  0
 18 45  1  0
 20 46  1  0
 20 47  1  0
 26 48  1  0
 27 49  1  0
 28 50  1  0
 29 51  1  0
 30 52  1  0
 31 53  1  0
 32 54  1  0
M  END
>  <UniqueID>  (61) 
58

>  <SMILES>  (61) 
COc1ccc(CNC(=O)CN(c2ccc3c(c2)OCO3)S(=O)(=O)c2ccccc2)cc1

>  <Energy>  (61) 
87.09263469055655

>  <Genealogy>  (61) 
COc1ccc(CNC(=O)CN(c2ccc3c(c2)OCO3)S(=O)(=O)c2ccccc2)cc1 (3D coordinates assigned)
COc1ccc(CNC(=O)CN(c2ccc3c(c2)OCO3)S(=O)(=O)c2ccccc2)cc1 (nonaromatic ring conformer: 87.09263469055655 kcal/mol)

>  <smiles>  (61) 
COc1ccc(CNC(=O)CN(c2ccc3c(c2)OCO3)S(=O)(=O)c2ccccc2)cc1

>  <score_type>  (61) 
oracle

>  <origin>  (61) 
adg

>  <m_score__min__energy>  (61) 
-9.6400000000000006

>  <m_primary>  (61) 
energy

$$$$
61:0
     RDKit          3D

 64 67  0  0  0  0  0  0  0  0999 V2000
   59.0170   34.4130   44.5870 C   0  0  0  0  0  0  0  0  0  0  0  0
   58.7650   33.4730   45.6800 N   0  0  0  0  0  0  0  0  0  0  0  0
   58.1950   32.1790   45.4080 C   0  0  0  0  0  0  0  0  0  0  0  0
   58.4110   31.1050   46.2890 C   0  0  0  0  0  0  0  0  0  0  0  0
   57.8370   29.8560   46.0330 C   0  0  0  0  0  0  0  0  0  0  0  0
   57.0580   29.6630   44.8900 C   0  0  0  0  0  0  0  0  0  0  0  0
   56.8520   30.7190   43.9980 C   0  0  0  0  0  0  0  0  0  0  0  0
   57.4200   31.9700   44.2510 C   0  0  0  0  0  0  0  0  0  0  0  0
   59.2770   33.9020   47.2900 S   0  0  0  0  0  0  0  0  0  0  0  0
   58.5810   33.0450   48.3090 O   0  0  0  0  0  0  0  0  0  0  0  0
   58.9280   35.3400   47.5590 O   0  0  0  0  0  0  0  0  0  0  0  0
   61.0140   33.6530   47.4440 C   0  0  0  0  0  0  0  0  0  0  0  0
   61.8530   33.8550   46.3390 C   0  0  0  0  0  0  0  0  0  0  0  0
   63.2280   33.6470   46.4590 C   0  0  0  0  0  0  0  0  0  0  0  0
   63.7740   33.2450   47.6800 C   0  0  0  0  0  0  0  0  0  0  0  0
   62.9500   33.0440   48.7950 C   0  0  0  0  0  0  0  0  0  0  0  0
   63.5650   32.6900   50.0440 N   0  0  0  0  0  0  0  0  0  0  0  0
   63.1330   31.6950   50.9850 C   0  0  0  0  0  0  0  0  0  0  0  0
   63.7530   30.5980   51.0270 O   0  0  0  0  0  0  0  0  0  0  0  0
   61.9510   31.8900   51.8570 C   0  0  0  0  0  0  0  0  0  0  0  0
   62.1230   32.3570   53.1730 C   0  0  0  0  0  0  0  0  0  0  0  0
   61.0220   32.5250   54.0140 C   0  0  0  0  0  0  0  0  0  0  0  0
   59.7380   32.2350   53.5500 C   0  0  0  0  0  0  0  0  0  0  0  0
   59.5500   31.7760   52.2450 C   0  0  0  0  0  0  0  0  0  0  0  0
   60.6520   31.6030   51.3840 C   0  0  0  0  0  0  0  0  0  0  0  0
   60.4990   31.1340   50.0670 O   0  0  0  0  0  0  0  0  0  0  0  0
   59.7720   29.9700   49.6770 C   0  0  0  0  0  0  0  0  0  0  0  0
   60.5920   28.7240   49.8230 C   0  0  0  0  0  0  0  0  0  0  0  0
   61.7440   28.8080   50.3290 O   0  0  0  0  0  0  0  0  0  0  0  0
   60.1100   27.4740   49.3070 N   0  0  0  0  0  0  0  0  0  0  0  0
   59.6260   27.2300   47.9780 C   0  0  0  0  0  0  0  0  0  0  0  0
   60.3890   27.6770   46.8940 C   0  0  0  0  0  0  0  0  0  0  0  0
   59.9540   27.4510   45.5830 C   0  0  0  0  0  0  0  0  0  0  0  0
   58.7480   26.7880   45.3460 C   0  0  0  0  0  0  0  0  0  0  0  0
   57.9550   26.3680   46.4220 C   0  0  0  0  0  0  0  0  0  0  0  0
   56.4320   25.5300   46.1300 S   0  0  0  0  0  0  0  0  0  0  0  0
   55.1570   26.6880   45.9690 N   0  0  0  0  0  0  0  0  0  0  0  0
   56.1280   24.6070   47.2780 O   0  0  0  0  0  0  0  0  0  0  0  0
   56.5300   24.7160   44.8720 O   0  0  0  0  0  0  0  0  0  0  0  0
   58.3910   26.5960   47.7360 C   0  0  0  0  0  0  0  0  0  0  0  0
   61.5680   33.2780   48.6750 C   0  0  0  0  0  0  0  0  0  0  0  0
   59.2807   35.3966   45.0028 H   0  0  0  0  0  0  0  0  0  0  0  0
   59.8474   34.0419   43.9683 H   0  0  0  0  0  0  0  0  0  0  0  0
   58.1123   34.5070   43.9683 H   0  0  0  0  0  0  0  0  0  0  0  0
   59.0345   31.2479   47.1839 H   0  0  0  0  0  0  0  0  0  0  0  0
   57.9994   29.0235   46.7334 H   0  0  0  0  0  0  0  0  0  0  0  0
   56.6065   28.6797   44.6918 H   0  0  0  0  0  0  0  0  0  0  0  0
   56.2420   30.5649   43.0957 H   0  0  0  0  0  0  0  0  0  0  0  0
   57.2610   32.7963   43.5425 H   0  0  0  0  0  0  0  0  0  0  0  0
   61.4275   34.1775   45.3772 H   0  0  0  0  0  0  0  0  0  0  0  0
   63.8836   33.8002   45.5891 H   0  0  0  0  0  0  0  0  0  0  0  0
   64.8588   33.0851   47.7668 H   0  0  0  0  0  0  0  0  0  0  0  0
   63.1325   32.5914   53.5417 H   0  0  0  0  0  0  0  0  0  0  0  0
   61.1662   32.8861   55.0430 H   0  0  0  0  0  0  0  0  0  0  0  0
   58.8716   32.3685   54.2145 H   0  0  0  0  0  0  0  0  0  0  0  0
   58.5353   31.5480   51.8867 H   0  0  0  0  0  0  0  0  0  0  0  0
   58.8759   29.8821   50.3089 H   0  0  0  0  0  0  0  0  0  0  0  0
   59.5004   30.0771   48.6164 H   0  0  0  0  0  0  0  0  0  0  0  0
   61.3353   28.2086   47.0728 H   0  0  0  0  0  0  0  0  0  0  0  0
   60.5645   27.7970   44.7359 H   0  0  0  0  0  0  0  0  0  0  0  0
   58.4204   26.5954   44.3137 H   0  0  0  0  0  0  0  0  0  0  0  0
   55.5130   27.4530   45.3490 H   0  0  0  0  0  0  0  0  0  0  0  0
   57.7648   26.2778   48.5826 H   0  0  0  0  0  0  0  0  0  0  0  0
   60.9172   33.1657   49.5547 H   0  0  0  0  0  0  0  0  0  0  0  0
  1  2  1  0
  2  3  1  0
  3  4  2  0
  4  5  1  0
  5  6  2  0
  6  7  1  0
  7  8  2  0
  2  9  1  0
  9 10  2  0
  9 11  2  0
  9 12  1  0
 12 13  2  0
 13 14  1  0
 14 15  2  0
 15 16  1  0
 16 17  1  0
 17 18  1  0
 18 19  2  0
 18 20  1  0
 20 21  2  0
 21 22  1  0
 22 23  2  0
 23 24  1  0
 24 25  2  0
 25 26  1  0
 26 27  1  0
 27 28  1  0
 28 29  2  0
 28 30  1  0
 30 31  1  0
 31 32  2  0
 32 33  1  0
 33 34  2  0
 34 35  1  0
 35 36  1  0
 36 37  1  0
 36 38  2  0
 36 39  2  0
 35 40  2  0
 16 41  2  0
  8  3  1  0
 41 12  1  0
 25 20  1  0
 40 31  1  0
  1 42  1  0
  1 43  1  0
  1 44  1  0
  4 45  1  0
  5 46  1  0
  6 47  1  0
  7 48  1  0
  8 49  1  0
 13 50  1  0
 14 51  1  0
 15 52  1  0
 21 53  1  0
 22 54  1  0
 23 55  1  0
 24 56  1  0
 27 57  1  0
 27 58  1  0
 32 59  1  0
 33 60  1  0
 34 61  1  0
 37 62  1  0
 40 63  1  0
 41 64  1  0
M  CHG  3  17  -1  30  -1  37  -1
M  END
>  <UniqueID>  (62) 
59

>  <SMILES>  (62) 
CN(c1ccccc1)S(=O)(=O)c1cccc([N-]C(=O)c2ccccc2OCC(=O)[N-]c2cccc(S([NH-])(=O)=O)c2)c1

>  <Energy>  (62) 
83.68617690041403

>  <Genealogy>  (62) 
CN(c1ccccc1)S(=O)(=O)c1cccc([N-]C(=O)c2ccccc2OCC(=O)[N-]c2cccc(S([NH-])(=O)=O)c2)c1 (protonated)
CN(c1ccccc1)S(=O)(=O)c1cccc([N-]C(=O)c2ccccc2OCC(=O)[N-]c2cccc(S([NH-])(=O)=O)c2)c1 (3D coordinates assigned)
CN(c1ccccc1)S(=O)(=O)c1cccc([N-]C(=O)c2ccccc2OCC(=O)[N-]c2cccc(S([NH-])(=O)=O)c2)c1 (optimized conformer: 83.68617690041403 kcal/mol)

>  <smiles>  (62) 
CN(c1ccccc1)S(=O)(=O)c1cccc(NC(=O)c2ccccc2OCC(=O)Nc2cccc(S(N)(=O)=O)c2)c1

>  <score_type>  (62) 
oracle

>  <origin>  (62) 
adg

>  <m_score__min__energy>  (62) 
-14.390000000000001

>  <m_primary>  (62) 
energy

$$$$
62:0
     RDKit          3D

 56 59  0  0  0  0  0  0  0  0999 V2000
   53.6872   23.8900   45.7394 H   0  0  0  0  0  0  0  0  0  0  0  0
   54.6660   24.0920   46.1990 C   0  0  0  0  0  0  0  0  0  0  0  0
   55.2680   25.2940   46.0090 N   0  0  0  0  0  0  0  0  0  0  0  0
   56.4800   25.5910   46.5520 C   0  0  0  0  0  0  0  0  0  0  0  0
   57.0880   26.9170   46.3020 C   0  0  0  0  0  0  0  0  0  0  0  0
   57.7610   27.4780   47.2100 O   0  0  0  0  0  0  0  0  0  0  0  0
   56.9430   27.5490   45.0180 N   0  0  0  0  0  0  0  0  0  0  0  0
   56.7010   26.9510   44.1970 H   0  0  0  0  0  0  0  0  0  0  0  0
   57.2250   28.9380   44.7730 C   0  0  0  0  0  0  0  0  0  0  0  0
   58.5350   29.4110   44.9290 C   0  0  0  0  0  0  0  0  0  0  0  0
   59.3276   28.7229   45.2580 H   0  0  0  0  0  0  0  0  0  0  0  0
   58.8430   30.7500   44.6700 C   0  0  0  0  0  0  0  0  0  0  0  0
   59.8701   31.1136   44.8211 H   0  0  0  0  0  0  0  0  0  0  0  0
   57.8490   31.6340   44.2180 C   0  0  0  0  0  0  0  0  0  0  0  0
   58.1780   33.0850   43.9250 C   0  0  0  0  0  0  0  0  0  0  0  0
   57.4398   33.4690   43.2056 H   0  0  0  0  0  0  0  0  0  0  0  0
   59.2042   33.1059   43.5293 H   0  0  0  0  0  0  0  0  0  0  0  0
   58.1610   33.9580   45.1210 N   0  0  0  0  0  0  0  0  0  0  0  0
   59.4790   34.5480   45.4470 C   0  0  0  0  0  0  0  0  0  0  0  0
   59.7265   35.3141   44.6974 H   0  0  0  0  0  0  0  0  0  0  0  0
   60.2342   33.7483   45.4412 H   0  0  0  0  0  0  0  0  0  0  0  0
   59.4580   35.1940   46.8380 C   0  0  0  0  0  0  0  0  0  0  0  0
   58.7010   35.9921   46.8462 H   0  0  0  0  0  0  0  0  0  0  0  0
   60.4633   35.5924   47.0397 H   0  0  0  0  0  0  0  0  0  0  0  0
   59.1330   34.2160   47.9080 N   0  0  0  0  0  0  0  0  0  0  0  0
   60.3410   33.7940   48.6330 C   0  0  0  0  0  0  0  0  0  0  0  0
   60.1595   33.8574   49.7161 H   0  0  0  0  0  0  0  0  0  0  0  0
   60.5873   32.7566   48.3626 H   0  0  0  0  0  0  0  0  0  0  0  0
   61.1797   34.4524   48.3626 H   0  0  0  0  0  0  0  0  0  0  0  0
   58.3810   33.0310   47.4310 C   0  0  0  0  0  0  0  0  0  0  0  0
   57.7934   32.6196   48.2650 H   0  0  0  0  0  0  0  0  0  0  0  0
   59.1020   32.2877   47.0600 H   0  0  0  0  0  0  0  0  0  0  0  0
   57.4310   33.4000   46.2840 C   0  0  0  0  0  0  0  0  0  0  0  0
   56.7112   34.1493   46.6452 H   0  0  0  0  0  0  0  0  0  0  0  0
   56.9180   32.4834   45.9573 H   0  0  0  0  0  0  0  0  0  0  0  0
   56.5350   31.1610   44.0680 C   0  0  0  0  0  0  0  0  0  0  0  0
   55.7410   31.8499   43.7439 H   0  0  0  0  0  0  0  0  0  0  0  0
   56.2280   29.8230   44.3270 C   0  0  0  0  0  0  0  0  0  0  0  0
   55.2000   29.4598   44.1811 H   0  0  0  0  0  0  0  0  0  0  0  0
   57.1340   24.6290   47.3420 C   0  0  0  0  0  0  0  0  0  0  0  0
   58.1191   24.8507   47.7785 H   0  0  0  0  0  0  0  0  0  0  0  0
   56.5230   23.3790   47.5730 C   0  0  0  0  0  0  0  0  0  0  0  0
   57.0790   22.4400   48.2910 N   0  0  0  0  0  0  0  0  0  0  0  0
   56.7850   22.0880   49.6510 C   0  0  0  0  0  0  0  0  0  0  0  0
   55.4740   21.7330   49.9950 C   0  0  0  0  0  0  0  0  0  0  0  0
   54.6971   21.6869   49.2176 H   0  0  0  0  0  0  0  0  0  0  0  0
   55.1490   21.4370   51.3230 C   0  0  0  0  0  0  0  0  0  0  0  0
   54.1234   21.1371   51.5841 H   0  0  0  0  0  0  0  0  0  0  0  0
   56.1260   21.5220   52.3180 C   0  0  0  0  0  0  0  0  0  0  0  0
   55.8705   21.2834   53.3610 H   0  0  0  0  0  0  0  0  0  0  0  0
   57.4280   21.9100   51.9890 C   0  0  0  0  0  0  0  0  0  0  0  0
   58.1953   21.9825   52.7739 H   0  0  0  0  0  0  0  0  0  0  0  0
   57.7550   22.2060   50.6620 C   0  0  0  0  0  0  0  0  0  0  0  0
   58.7744   22.5322   50.4083 H   0  0  0  0  0  0  0  0  0  0  0  0
   55.2850   23.1130   46.9750 C   0  0  0  0  0  0  0  0  0  0  0  0
   54.8025   22.1348   47.1171 H   0  0  0  0  0  0  0  0  0  0  0  0
  1  2  1  0
  2  3  1  0
  3  4  1  0
  4  5  1  0
  5  6  2  0
  5  7  1  0
  7  8  1  0
  7  9  1  0
  9 10  2  0
 10 11  1  0
 10 12  1  0
 12 13  1  0
 12 14  2  0
 14 15  1  0
 15 16  1  0
 15 17  1  0
 15 18  1  0
 18 19  1  0
 19 20  1  0
 19 21  1  0
 19 22  1  0
 22 23  1  0
 22 24  1  0
 22 25  1  0
 25 26  1  0
 26 27  1  0
 26 28  1  0
 26 29  1  0
 25 30  1  0
 30 31  1  0
 30 32  1  0
 30 33  1  0
 33 34  1  0
 33 35  1  0
 14 36  1  0
 36 37  1  0
 36 38  2  0
 38 39  1  0
  4 40  2  0
 40 41  1  0
 40 42  1  0
 42 43  2  0
 43 44  1  0
 44 45  2  0
 45 46  1  0
 45 47  1  0
 47 48  1  0
 47 49  2  0
 49 50  1  0
 49 51  1  0
 51 52  1  0
 51 53  2  0
 53 54  1  0
 42 55  1  0
 55 56  1  0
 55  2  2  0
 38  9  1  0
 53 44  1  0
 33 18  1  0
M  CHG  1   3  -1
M  END
>  <UniqueID>  (63) 
60

>  <SMILES>  (63) 
CN1CCN(Cc2ccc(NC(=O)c3c/c(=N\c4ccccc4)cc[n-]3)cc2)CC1

>  <Energy>  (63) 
87.87356824210649

>  <Genealogy>  (63) 
CN1CCN(Cc2ccc(NC(=O)c3cc(=Nc4ccccc4)cc[n-]3)cc2)CC1 (protonated)
CN1CCN(Cc2ccc(NC(=O)c3c/c(=N\c4ccccc4)cc[n-]3)cc2)CC1 (cis-trans isomerization)
CN1CCN(Cc2ccc(NC(=O)c3c/c(=N\c4ccccc4)cc[n-]3)cc2)CC1 (3D coordinates assigned)
CN1CCN(Cc2ccc(NC(=O)c3c/c(=N\c4ccccc4)cc[n-]3)cc2)CC1 (nonaromatic ring conformer: 87.87356824210649 kcal/mol)

>  <smiles>  (63) 
CN1CCN(Cc2ccc(NC(=O)c3cc(=Nc4ccccc4)cc[nH]3)cc2)CC1

>  <score_type>  (63) 
oracle

>  <origin>  (63) 
adg

>  <m_score__min__energy>  (63) 
-10.51

>  <m_primary>  (63) 
energy

$$$$
63:0
     RDKit          3D

 42 44  0  0  0  0  0  0  0  0999 V2000
   58.9160   31.4850   48.9120 C   0  0  0  0  0  0  0  0  0  0  0  0
   58.8910   32.9280   48.4120 C   0  0  0  0  0  0  0  0  0  0  0  0
   58.5170   32.9900   46.9530 C   0  0  0  0  0  0  0  0  0  0  0  0
   58.7190   34.1640   46.2130 C   0  0  0  0  0  0  0  0  0  0  0  0
   58.3350   34.2270   44.8700 C   0  0  0  0  0  0  0  0  0  0  0  0
   57.7550   33.1100   44.2560 C   0  0  0  0  0  0  0  0  0  0  0  0
   57.5720   31.9210   44.9710 C   0  0  0  0  0  0  0  0  0  0  0  0
   56.9810   30.7970   44.2990 N   0  0  0  0  0  0  0  0  0  0  0  0
   56.7060   29.5090   44.8730 C   0  0  0  0  0  0  0  0  0  0  0  0
   55.5180   29.1330   45.0560 O   0  0  0  0  0  0  0  0  0  0  0  0
   57.8330   28.6280   45.2450 C   0  0  0  0  0  0  0  0  0  0  0  0
   59.1210   29.1890   45.2510 C   0  0  0  0  0  0  0  0  0  0  0  0
   60.2390   28.4100   45.5560 C   0  0  0  0  0  0  0  0  0  0  0  0
   60.0880   27.0600   45.8660 C   0  0  0  0  0  0  0  0  0  0  0  0
   58.8160   26.4870   45.8880 C   0  0  0  0  0  0  0  0  0  0  0  0
   57.6700   27.2520   45.5870 C   0  0  0  0  0  0  0  0  0  0  0  0
   56.3690   26.6380   45.7500 N   0  0  0  0  0  0  0  0  0  0  0  0
   56.5060   25.2050   45.7320 C   0  0  0  0  0  0  0  0  0  0  0  0
   56.2250   24.4690   44.5680 C   0  0  0  0  0  0  0  0  0  0  0  0
   56.3470   23.0800   44.6120 C   0  0  0  0  0  0  0  0  0  0  0  0
   56.1030   22.3880   43.5850 O   0  0  0  0  0  0  0  0  0  0  0  0
   56.7300   22.4700   45.7650 N   0  0  0  0  0  0  0  0  0  0  0  0
   56.9960   23.1930   46.8870 C   0  0  0  0  0  0  0  0  0  0  0  0
   57.3520   22.6100   47.9430 O   0  0  0  0  0  0  0  0  0  0  0  0
   56.8800   24.5470   46.8650 N   0  0  0  0  0  0  0  0  0  0  0  0
   57.9270   31.8740   46.3330 C   0  0  0  0  0  0  0  0  0  0  0  0
   58.9161   31.4780   50.0120 H   0  0  0  0  0  0  0  0  0  0  0  0
   58.0269   30.9533   48.5421 H   0  0  0  0  0  0  0  0  0  0  0  0
   59.8230   30.9844   48.5421 H   0  0  0  0  0  0  0  0  0  0  0  0
   58.1538   33.4981   48.9965 H   0  0  0  0  0  0  0  0  0  0  0  0
   59.8963   33.3576   48.5337 H   0  0  0  0  0  0  0  0  0  0  0  0
   59.1819   35.0397   46.6915 H   0  0  0  0  0  0  0  0  0  0  0  0
   58.4883   35.1530   44.2964 H   0  0  0  0  0  0  0  0  0  0  0  0
   57.4408   33.1676   43.2034 H   0  0  0  0  0  0  0  0  0  0  0  0
   59.2503   30.2550   45.0125 H   0  0  0  0  0  0  0  0  0  0  0  0
   61.2413   28.8632   45.5515 H   0  0  0  0  0  0  0  0  0  0  0  0
   60.9718   26.4458   46.0934 H   0  0  0  0  0  0  0  0  0  0  0  0
   58.7054   25.4229   46.1439 H   0  0  0  0  0  0  0  0  0  0  0  0
   55.8880   26.9330   46.6250 H   0  0  0  0  0  0  0  0  0  0  0  0
   55.7440   26.9340   44.9640 H   0  0  0  0  0  0  0  0  0  0  0  0
   55.9157   24.9771   43.6427 H   0  0  0  0  0  0  0  0  0  0  0  0
   57.7418   30.9593   46.9152 H   0  0  0  0  0  0  0  0  0  0  0  0
  1  2  1  0
  2  3  1  0
  3  4  2  0
  4  5  1  0
  5  6  2  0
  6  7  1  0
  7  8  1  0
  8  9  1  0
  9 10  2  0
  9 11  1  0
 11 12  2  0
 12 13  1  0
 13 14  2  0
 14 15  1  0
 15 16  2  0
 16 17  1  0
 17 18  1  0
 18 19  2  0
 19 20  1  0
 20 21  2  0
 20 22  1  0
 22 23  1  0
 23 24  2  0
 23 25  1  0
  7 26  2  0
 26  3  1  0
 16 11  1  0
 25 18  1  0
  1 27  1  0
  1 28  1  0
  1 29  1  0
  2 30  1  0
  2 31  1  0
  4 32  1  0
  5 33  1  0
  6 34  1  0
 12 35  1  0
 13 36  1  0
 14 37  1  0
 15 38  1  0
 17 39  1  0
 17 40  1  0
 19 41  1  0
 26 42  1  0
M  CHG  4   8  -1  17   1  22  -1  25  -1
M  END
>  <UniqueID>  (64) 
61

>  <SMILES>  (64) 
CCc1cccc([N-]C(=O)c2ccccc2[NH2+]c2cc(=O)[n-]c(=O)[n-]2)c1

>  <Energy>  (64) 
54.96979476745335

>  <Genealogy>  (64) 
CCc1cccc([N-]C(=O)c2ccccc2[NH2+]c2cc(=O)[n-]c(=O)[n-]2)c1 (protonated)
CCc1cccc([N-]C(=O)c2ccccc2[NH2+]c2cc(=O)[n-]c(=O)[n-]2)c1 (3D coordinates assigned)
CCc1cccc([N-]C(=O)c2ccccc2[NH2+]c2cc(=O)[n-]c(=O)[n-]2)c1 (optimized conformer: 54.96979476745335 kcal/mol)

>  <smiles>  (64) 
CCc1cccc(NC(=O)c2ccccc2Nc2cc(=O)[nH]c(=O)[nH]2)c1

>  <score_type>  (64) 
oracle

>  <origin>  (64) 
adg

>  <m_score__min__energy>  (64) 
-11.84

>  <m_primary>  (64) 
energy

$$$$
64:0
     RDKit          3D

 44 46  0  0  0  0  0  0  0  0999 V2000
   53.0510   24.0820   45.1210 C   0  0  0  0  0  0  0  0  0  0  0  0
   53.9890   24.9620   45.7320 O   0  0  0  0  0  0  0  0  0  0  0  0
   55.3790   24.7710   45.7170 C   0  0  0  0  0  0  0  0  0  0  0  0
   56.0290   24.5270   46.9310 C   0  0  0  0  0  0  0  0  0  0  0  0
   57.4130   24.3300   46.9710 C   0  0  0  0  0  0  0  0  0  0  0  0
   58.1740   24.3740   45.7890 C   0  0  0  0  0  0  0  0  0  0  0  0
   59.6410   24.1630   45.8310 C   0  0  0  0  0  0  0  0  0  0  0  0
   60.1170   23.0210   45.5850 O   0  0  0  0  0  0  0  0  0  0  0  0
   60.5110   25.2420   46.1980 N   0  0  0  0  0  0  0  0  0  0  0  0
   60.1430   26.6180   46.3670 C   0  0  0  0  0  0  0  0  0  0  0  0
   59.0840   26.9310   47.2250 C   0  0  0  0  0  0  0  0  0  0  0  0
   58.6780   28.2560   47.4020 C   0  0  0  0  0  0  0  0  0  0  0  0
   59.3190   29.2970   46.7050 C   0  0  0  0  0  0  0  0  0  0  0  0
   58.8890   30.7020   46.8910 C   0  0  0  0  0  0  0  0  0  0  0  0
   59.5130   31.4510   47.6910 O   0  0  0  0  0  0  0  0  0  0  0  0
   57.7300   31.1950   46.2030 N   0  0  0  0  0  0  0  0  0  0  0  0
   57.5870   31.3770   44.7840 C   0  0  0  0  0  0  0  0  0  0  0  0
   58.1330   32.5130   44.1540 C   0  0  0  0  0  0  0  0  0  0  0  0
   58.0240   32.6810   42.7740 C   0  0  0  0  0  0  0  0  0  0  0  0
   57.3850   31.7150   42.0010 C   0  0  0  0  0  0  0  0  0  0  0  0
   56.8600   30.5710   42.6040 C   0  0  0  0  0  0  0  0  0  0  0  0
   56.9570   30.3790   43.9970 C   0  0  0  0  0  0  0  0  0  0  0  0
   56.3830   29.1420   44.5950 C   0  0  0  0  0  0  0  0  0  0  0  0
   55.1540   29.0810   44.8690 O   0  0  0  0  0  0  0  0  0  0  0  0
   57.1770   28.0360   44.8700 O   0  0  0  0  0  0  0  0  0  0  0  0
   60.3670   28.9780   45.8230 C   0  0  0  0  0  0  0  0  0  0  0  0
   60.7710   27.6520   45.6490 C   0  0  0  0  0  0  0  0  0  0  0  0
   57.5190   24.6180   44.5690 C   0  0  0  0  0  0  0  0  0  0  0  0
   56.1350   24.8160   44.5320 C   0  0  0  0  0  0  0  0  0  0  0  0
   52.4849   23.5509   45.9004 H   0  0  0  0  0  0  0  0  0  0  0  0
   52.3572   24.6626   44.4953 H   0  0  0  0  0  0  0  0  0  0  0  0
   53.5862   23.3526   44.4953 H   0  0  0  0  0  0  0  0  0  0  0  0
   55.4462   24.4897   47.8632 H   0  0  0  0  0  0  0  0  0  0  0  0
   57.9099   24.1393   47.9337 H   0  0  0  0  0  0  0  0  0  0  0  0
   58.5654   26.1258   47.7660 H   0  0  0  0  0  0  0  0  0  0  0  0
   57.8519   28.4870   48.0906 H   0  0  0  0  0  0  0  0  0  0  0  0
   58.6501   33.2744   44.7564 H   0  0  0  0  0  0  0  0  0  0  0  0
   58.4435   33.5781   42.2952 H   0  0  0  0  0  0  0  0  0  0  0  0
   57.2939   31.8537   40.9136 H   0  0  0  0  0  0  0  0  0  0  0  0
   56.3642   29.8094   41.9842 H   0  0  0  0  0  0  0  0  0  0  0  0
   60.8731   29.7797   45.2652 H   0  0  0  0  0  0  0  0  0  0  0  0
   61.5842   27.4153   44.9471 H   0  0  0  0  0  0  0  0  0  0  0  0
   58.1001   24.6535   43.6357 H   0  0  0  0  0  0  0  0  0  0  0  0
   55.6352   25.0079   43.5711 H   0  0  0  0  0  0  0  0  0  0  0  0
  1  2  1  0
  2  3  1  0
  3  4  2  0
  4  5  1  0
  5  6  2  0
  6  7  1  0
  7  8  2  0
  7  9  1  0
  9 10  1  0
 10 11  2  0
 11 12  1  0
 12 13  2  0
 13 14  1  0
 14 15  2  0
 14 16  1  0
 16 17  1  0
 17 18  2  0
 18 19  1  0
 19 20  2  0
 20 21  1  0
 21 22  2  0
 22 23  1  0
 23 24  2  0
 23 25  1  0
 13 26  1  0
 26 27  2  0
  6 28  1  0
 28 29  2  0
 29  3  1  0
 27 10  1  0
 22 17  1  0
  1 30  1  0
  1 31  1  0
  1 32  1  0
  4 33  1  0
  5 34  1  0
 11 35  1  0
 12 36  1  0
 18 37  1  0
 19 38  1  0
 20 39  1  0
 21 40  1  0
 26 41  1  0
 27 42  1  0
 28 43  1  0
 29 44  1  0
M  CHG  3   9  -1  16  -1  25  -1
M  END
>  <UniqueID>  (65) 
62

>  <SMILES>  (65) 
COc1ccc(C(=O)[N-]c2ccc(C(=O)[N-]c3ccccc3C(=O)[O-])cc2)cc1

>  <Energy>  (65) 
58.282824389728475

>  <Genealogy>  (65) 
COc1ccc(C(=O)[N-]c2ccc(C(=O)[N-]c3ccccc3C(=O)[O-])cc2)cc1 (protonated)
COc1ccc(C(=O)[N-]c2ccc(C(=O)[N-]c3ccccc3C(=O)[O-])cc2)cc1 (3D coordinates assigned)
COc1ccc(C(=O)[N-]c2ccc(C(=O)[N-]c3ccccc3C(=O)[O-])cc2)cc1 (optimized conformer: 58.282824389728475 kcal/mol)

>  <smiles>  (65) 
COc1ccc(C(=O)Nc2ccc(C(=O)Nc3ccccc3C(=O)O)cc2)cc1

>  <score_type>  (65) 
oracle

>  <origin>  (65) 
adg

>  <m_score__min__energy>  (65) 
-14.67

>  <m_primary>  (65) 
energy

$$$$
65:0
     RDKit          3D

 42 44  0  0  0  0  0  0  0  0999 V2000
   56.0808   30.7192   44.2426 H   0  0  0  0  0  0  0  0  0  0  0  0
   56.6320   29.9260   44.7690 C   0  0  0  0  0  0  0  0  0  0  0  0
   56.0000   28.7680   45.1000 N   0  0  0  0  0  0  0  0  0  0  0  0
   56.6360   27.7460   45.7330 C   0  0  0  0  0  0  0  0  0  0  0  0
   55.9490   26.6760   46.0270 N   0  0  0  0  0  0  0  0  0  0  0  0
   56.0660   25.3710   45.4380 C   0  0  0  0  0  0  0  0  0  0  0  0
   54.9460   24.5300   45.4150 C   0  0  0  0  0  0  0  0  0  0  0  0
   54.0060   24.8574   45.8833 H   0  0  0  0  0  0  0  0  0  0  0  0
   55.0170   23.2770   44.8000 C   0  0  0  0  0  0  0  0  0  0  0  0
   54.1396   22.6135   44.8021 H   0  0  0  0  0  0  0  0  0  0  0  0
   56.2040   22.8650   44.1810 C   0  0  0  0  0  0  0  0  0  0  0  0
   56.2770   21.5750   43.5450 C   0  0  0  0  0  0  0  0  0  0  0  0
   56.3330   20.5390   43.0330 N   0  0  0  0  0  0  0  0  0  0  0  0
   57.3160   23.7160   44.1700 C   0  0  0  0  0  0  0  0  0  0  0  0
   58.2467   23.3980   43.6774 H   0  0  0  0  0  0  0  0  0  0  0  0
   57.2440   24.9700   44.7850 C   0  0  0  0  0  0  0  0  0  0  0  0
   58.1124   25.6447   44.7575 H   0  0  0  0  0  0  0  0  0  0  0  0
   57.9950   27.8970   46.0770 C   0  0  0  0  0  0  0  0  0  0  0  0
   58.5253   27.0905   46.6045 H   0  0  0  0  0  0  0  0  0  0  0  0
   58.6630   29.0760   45.7440 C   0  0  0  0  0  0  0  0  0  0  0  0
   59.7285   29.1925   45.9914 H   0  0  0  0  0  0  0  0  0  0  0  0
   57.9770   30.1130   45.0940 C   0  0  0  0  0  0  0  0  0  0  0  0
   58.6060   31.3090   44.7220 O   0  0  0  0  0  0  0  0  0  0  0  0
   58.8200   32.4120   45.5640 C   0  0  0  0  0  0  0  0  0  0  0  0
   57.9390   33.5060   45.5890 C   0  0  0  0  0  0  0  0  0  0  0  0
   57.0441   33.5042   44.9494 H   0  0  0  0  0  0  0  0  0  0  0  0
   58.1960   34.5950   46.4230 C   0  0  0  0  0  0  0  0  0  0  0  0
   57.5013   35.4477   46.4426 H   0  0  0  0  0  0  0  0  0  0  0  0
   59.3340   34.6040   47.2330 C   0  0  0  0  0  0  0  0  0  0  0  0
   59.5278   35.4636   47.8914 H   0  0  0  0  0  0  0  0  0  0  0  0
   60.2320   33.5260   47.2140 C   0  0  0  0  0  0  0  0  0  0  0  0
   61.4000   33.5750   48.0550 N   0  0  0  0  0  0  0  0  0  0  0  0
   61.2730   33.6770   49.0870 H   0  0  0  0  0  0  0  0  0  0  0  0
   63.0270   33.3550   47.4910 S   0  0  0  0  0  0  0  0  0  0  0  0
   63.9770   33.8010   48.5670 O   0  0  0  0  0  0  0  0  0  0  0  0
   63.2650   34.1860   46.2630 O   0  0  0  0  0  0  0  0  0  0  0  0
   63.3320   31.6340   47.1470 C   0  0  0  0  0  0  0  0  0  0  0  0
   63.4297   31.0826   48.0938 H   0  0  0  0  0  0  0  0  0  0  0  0
   62.4929   31.2216   46.5674 H   0  0  0  0  0  0  0  0  0  0  0  0
   64.2617   31.5351   46.5674 H   0  0  0  0  0  0  0  0  0  0  0  0
   59.9700   32.4360   46.3620 C   0  0  0  0  0  0  0  0  0  0  0  0
   60.6768   31.5940   46.3230 H   0  0  0  0  0  0  0  0  0  0  0  0
  1  2  1  0
  2  3  1  0
  3  4  1  0
  4  5  2  0
  5  6  1  0
  6  7  2  0
  7  8  1  0
  7  9  1  0
  9 10  1  0
  9 11  2  0
 11 12  1  0
 12 13  3  0
 11 14  1  0
 14 15  1  0
 14 16  2  0
 16 17  1  0
  4 18  1  0
 18 19  1  0
 18 20  2  0
 20 21  1  0
 20 22  1  0
 22 23  1  0
 23 24  1  0
 24 25  2  0
 25 26  1  0
 25 27  1  0
 27 28  1  0
 27 29  2  0
 29 30  1  0
 29 31  1  0
 31 32  1  0
 32 33  1  0
 32 34  1  0
 34 35  2  0
 34 36  2  0
 34 37  1  0
 37 38  1  0
 37 39  1  0
 37 40  1  0
 31 41  2  0
 41 42  1  0
 22  2  2  0
 41 24  1  0
 16  6  1  0
M  CHG  1   3  -1
M  END
>  <UniqueID>  (66) 
63

>  <SMILES>  (66) 
CS(=O)(=O)Nc1cccc(Oc2cc/c(=N\c3ccc(C#N)cc3)[n-]c2)c1

>  <Energy>  (66) 
59.4392669114471

>  <Genealogy>  (66) 
CS(=O)(=O)Nc1cccc(Oc2ccc(=Nc3ccc(C#N)cc3)[n-]c2)c1 (protonated)
CS(=O)(=O)Nc1cccc(Oc2cc/c(=N\c3ccc(C#N)cc3)[n-]c2)c1 (cis-trans isomerization)
CS(=O)(=O)Nc1cccc(Oc2cc/c(=N\c3ccc(C#N)cc3)[n-]c2)c1 (3D coordinates assigned)
CS(=O)(=O)Nc1cccc(Oc2cc/c(=N\c3ccc(C#N)cc3)[n-]c2)c1 (optimized conformer: 59.4392669114471 kcal/mol)

>  <smiles>  (66) 
CS(=O)(=O)Nc1cccc(Oc2ccc(=Nc3ccc(C#N)cc3)[nH]c2)c1

>  <score_type>  (66) 
oracle

>  <origin>  (66) 
adg

>  <m_score__min__energy>  (66) 
-10.26

>  <m_primary>  (66) 
energy

$$$$
66:0
     RDKit          3D

 43 45  0  0  0  0  0  0  0  0999 V2000
   56.2040   31.0760   44.5510 O   0  0  0  0  0  0  0  0  0  0  0  0
   56.0530   29.8710   44.2040 C   0  0  0  0  0  0  0  0  0  0  0  0
   55.1460   29.0670   44.8840 O   0  0  0  0  0  0  0  0  0  0  0  0
   56.8730   29.2960   43.0920 C   0  0  0  0  0  0  0  0  0  0  0  0
   57.7830   28.1810   43.6190 C   0  0  0  0  0  0  0  0  0  0  0  0
   58.4750   28.5900   44.8920 C   0  0  0  0  0  0  0  0  0  0  0  0
   59.5440   29.4960   44.8680 C   0  0  0  0  0  0  0  0  0  0  0  0
   60.1170   29.8890   46.0360 N   0  0  0  0  0  0  0  0  0  0  0  0
   59.6930   29.4070   47.2380 C   0  0  0  0  0  0  0  0  0  0  0  0
   60.3040   29.7920   48.3270 N   0  0  0  0  0  0  0  0  0  0  0  0
   60.9620   31.0500   48.5530 C   0  0  0  0  0  0  0  0  0  0  0  0
   61.8690   31.4090   47.7510 O   0  0  0  0  0  0  0  0  0  0  0  0
   60.6480   31.9030   49.7300 C   0  0  0  0  0  0  0  0  0  0  0  0
   61.5520   31.9460   50.8060 C   0  0  0  0  0  0  0  0  0  0  0  0
   61.2950   32.7460   51.9210 C   0  0  0  0  0  0  0  0  0  0  0  0
   60.1200   33.4970   51.9890 C   0  0  0  0  0  0  0  0  0  0  0  0
   59.8640   34.2590   53.0810 F   0  0  0  0  0  0  0  0  0  0  0  0
   59.2040   33.4550   50.9360 C   0  0  0  0  0  0  0  0  0  0  0  0
   59.4610   32.6700   49.7990 C   0  0  0  0  0  0  0  0  0  0  0  0
   58.5160   32.5920   48.7660 O   0  0  0  0  0  0  0  0  0  0  0  0
   58.6290   33.2050   47.5090 C   0  0  0  0  0  0  0  0  0  0  0  0
   57.8260   32.8310   46.4120 C   0  0  0  0  0  0  0  0  0  0  0  0
   57.9430   33.5090   45.1940 C   0  0  0  0  0  0  0  0  0  0  0  0
   58.8500   34.5630   45.0610 C   0  0  0  0  0  0  0  0  0  0  0  0
   59.6460   34.9400   46.1450 C   0  0  0  0  0  0  0  0  0  0  0  0
   59.5320   34.2670   47.3660 C   0  0  0  0  0  0  0  0  0  0  0  0
   58.5960   28.5230   47.2610 C   0  0  0  0  0  0  0  0  0  0  0  0
   58.0140   28.1470   46.0930 N   0  0  0  0  0  0  0  0  0  0  0  0
   56.2027   28.8836   42.3235 H   0  0  0  0  0  0  0  0  0  0  0  0
   57.4979   30.0923   42.6615 H   0  0  0  0  0  0  0  0  0  0  0  0
   57.1748   27.2855   43.8144 H   0  0  0  0  0  0  0  0  0  0  0  0
   58.5512   27.9741   42.8594 H   0  0  0  0  0  0  0  0  0  0  0  0
   59.9170   29.8866   43.9097 H   0  0  0  0  0  0  0  0  0  0  0  0
   60.9170   30.5610   46.0010 H   0  0  0  0  0  0  0  0  0  0  0  0
   62.4713   31.3431   50.7690 H   0  0  0  0  0  0  0  0  0  0  0  0
   62.0197   32.7847   52.7476 H   0  0  0  0  0  0  0  0  0  0  0  0
   58.2747   34.0404   50.9968 H   0  0  0  0  0  0  0  0  0  0  0  0
   57.1067   32.0051   46.5141 H   0  0  0  0  0  0  0  0  0  0  0  0
   57.3189   33.2113   44.3385 H   0  0  0  0  0  0  0  0  0  0  0  0
   58.9373   35.0960   44.1027 H   0  0  0  0  0  0  0  0  0  0  0  0
   60.3634   35.7671   46.0384 H   0  0  0  0  0  0  0  0  0  0  0  0
   60.1551   34.5733   48.2192 H   0  0  0  0  0  0  0  0  0  0  0  0
   58.2136   28.1400   48.2186 H   0  0  0  0  0  0  0  0  0  0  0  0
  1  2  2  0
  2  3  1  0
  2  4  1  0
  4  5  1  0
  5  6  1  0
  6  7  2  0
  7  8  1  0
  8  9  1  0
  9 10  2  3
 10 11  1  0
 11 12  2  0
 11 13  1  0
 13 14  2  0
 14 15  1  0
 15 16  2  0
 16 17  1  0
 16 18  1  0
 18 19  2  0
 19 20  1  0
 20 21  1  0
 21 22  2  0
 22 23  1  0
 23 24  2  0
 24 25  1  0
 25 26  2  0
  9 27  1  0
 27 28  2  0
 28  6  1  0
 19 13  1  0
 26 21  1  0
  4 29  1  0
  4 30  1  0
  5 31  1  0
  5 32  1  0
  7 33  1  0
  8 34  1  0
 14 35  1  0
 15 36  1  0
 18 37  1  0
 22 38  1  0
 23 39  1  0
 24 40  1  0
 25 41  1  0
 26 42  1  0
 27 43  1  0
M  CHG  1   3  -1
M  END
>  <UniqueID>  (67) 
64

>  <SMILES>  (67) 
O=C([O-])CCc1c[nH]c(=NC(=O)c2ccc(F)cc2Oc2ccccc2)cn1

>  <Energy>  (67) 
59.01281637369018

>  <Genealogy>  (67) 
O=C([O-])CCc1c[nH]c(=NC(=O)c2ccc(F)cc2Oc2ccccc2)cn1 (protonated)
O=C([O-])CCc1c[nH]c(=NC(=O)c2ccc(F)cc2Oc2ccccc2)cn1 (3D coordinates assigned)
O=C([O-])CCc1c[nH]c(=NC(=O)c2ccc(F)cc2Oc2ccccc2)cn1 (optimized conformer: 59.01281637369018 kcal/mol)

>  <smiles>  (67) 
O=C(O)CCc1c[nH]c(=NC(=O)c2ccc(F)cc2Oc2ccccc2)cn1

>  <score_type>  (67) 
oracle

>  <origin>  (67) 
adg

>  <m_score__min__energy>  (67) 
-10.94

>  <m_primary>  (67) 
energy

$$$$
67:0
     RDKit          3D

 43 45  0  0  0  0  0  0  0  0999 V2000
   56.4940   30.8760   44.5180 O   0  0  0  0  0  0  0  0  0  0  0  0
   57.4790   30.9690   45.3010 C   0  0  0  0  0  0  0  0  0  0  0  0
   58.0630   29.7870   45.8640 N   0  0  0  0  0  0  0  0  0  0  0  0
   57.8500   28.4340   45.4350 C   0  0  0  0  0  0  0  0  0  0  0  0
   57.3240   27.4510   46.2940 C   0  0  0  0  0  0  0  0  0  0  0  0
   57.1520   26.1390   45.8400 C   0  0  0  0  0  0  0  0  0  0  0  0
   57.5180   25.7930   44.5360 C   0  0  0  0  0  0  0  0  0  0  0  0
   57.2880   24.0000   43.9210 Br  0  0  0  0  0  0  0  0  0  0  0  0
   58.0640   26.7610   43.6860 C   0  0  0  0  0  0  0  0  0  0  0  0
   58.2360   28.0730   44.1370 C   0  0  0  0  0  0  0  0  0  0  0  0
   58.0600   32.3000   45.5990 C   0  0  0  0  0  0  0  0  0  0  0  0
   58.2680   33.2350   44.5710 C   0  0  0  0  0  0  0  0  0  0  0  0
   58.8240   34.4840   44.8510 C   0  0  0  0  0  0  0  0  0  0  0  0
   59.1740   34.8200   46.1610 C   0  0  0  0  0  0  0  0  0  0  0  0
   59.6990   36.0470   46.4100 F   0  0  0  0  0  0  0  0  0  0  0  0
   58.9640   33.9090   47.2080 C   0  0  0  0  0  0  0  0  0  0  0  0
   59.3100   34.2820   48.5530 N   0  0  0  0  0  0  0  0  0  0  0  0
   59.5140   33.1400   49.8450 S   0  0  0  0  0  0  0  0  0  0  0  0
   60.0460   33.8380   51.0640 O   0  0  0  0  0  0  0  0  0  0  0  0
   58.1760   32.5420   50.1770 O   0  0  0  0  0  0  0  0  0  0  0  0
   60.6230   31.8220   49.3600 C   0  0  0  0  0  0  0  0  0  0  0  0
   61.8600   32.3800   48.7130 C   0  0  0  0  0  0  0  0  0  0  0  0
   61.8670   32.6780   47.3400 C   0  0  0  0  0  0  0  0  0  0  0  0
   63.0040   33.2300   46.7430 C   0  0  0  0  0  0  0  0  0  0  0  0
   64.1420   33.4910   47.5130 C   0  0  0  0  0  0  0  0  0  0  0  0
   64.1430   33.2000   48.8800 C   0  0  0  0  0  0  0  0  0  0  0  0
   63.0080   32.6450   49.4800 C   0  0  0  0  0  0  0  0  0  0  0  0
   58.4190   32.6450   46.9160 C   0  0  0  0  0  0  0  0  0  0  0  0
   57.0473   27.7151   47.3254 H   0  0  0  0  0  0  0  0  0  0  0  0
   56.7276   25.3776   46.5109 H   0  0  0  0  0  0  0  0  0  0  0  0
   58.3583   26.4893   42.6615 H   0  0  0  0  0  0  0  0  0  0  0  0
   58.6773   28.8270   43.4686 H   0  0  0  0  0  0  0  0  0  0  0  0
   57.9904   32.9805   43.5375 H   0  0  0  0  0  0  0  0  0  0  0  0
   58.9872   35.2063   44.0375 H   0  0  0  0  0  0  0  0  0  0  0  0
   59.2960   35.2910   48.8210 H   0  0  0  0  0  0  0  0  0  0  0  0
   60.9105   31.2454   50.2516 H   0  0  0  0  0  0  0  0  0  0  0  0
   60.1070   31.1737   48.6365 H   0  0  0  0  0  0  0  0  0  0  0  0
   60.9731   32.4759   46.7317 H   0  0  0  0  0  0  0  0  0  0  0  0
   63.0037   33.4592   45.6671 H   0  0  0  0  0  0  0  0  0  0  0  0
   65.0364   33.9254   47.0426 H   0  0  0  0  0  0  0  0  0  0  0  0
   65.0379   33.4078   49.4850 H   0  0  0  0  0  0  0  0  0  0  0  0
   63.0136   32.4151   50.5557 H   0  0  0  0  0  0  0  0  0  0  0  0
   58.2715   31.9169   47.7273 H   0  0  0  0  0  0  0  0  0  0  0  0
  1  2  2  0
  2  3  1  0
  3  4  1  0
  4  5  2  0
  5  6  1  0
  6  7  2  0
  7  8  1  0
  7  9  1  0
  9 10  2  0
  2 11  1  0
 11 12  2  0
 12 13  1  0
 13 14  2  0
 14 15  1  0
 14 16  1  0
 16 17  1  0
 17 18  1  0
 18 19  2  0
 18 20  2  0
 18 21  1  0
 21 22  1  0
 22 23  2  0
 23 24  1  0
 24 25  2  0
 25 26  1  0
 26 27  2  0
 16 28  2  0
 10  4  1  0
 28 11  1  0
 27 22  1  0
  5 29  1  0
  6 30  1  0
  9 31  1  0
 10 32  1  0
 12 33  1  0
 13 34  1  0
 17 35  1  0
 21 36  1  0
 21 37  1  0
 23 38  1  0
 24 39  1  0
 25 40  1  0
 26 41  1  0
 27 42  1  0
 28 43  1  0
M  CHG  1   3  -1
M  END
>  <UniqueID>  (68) 
65

>  <SMILES>  (68) 
O=C([N-]c1ccc(Br)cc1)c1ccc(F)c(NS(=O)(=O)Cc2ccccc2)c1

>  <Energy>  (68) 
47.03655609460417

>  <Genealogy>  (68) 
O=C([N-]c1ccc(Br)cc1)c1ccc(F)c(NS(=O)(=O)Cc2ccccc2)c1 (protonated)
O=C([N-]c1ccc(Br)cc1)c1ccc(F)c(NS(=O)(=O)Cc2ccccc2)c1 (3D coordinates assigned)
O=C([N-]c1ccc(Br)cc1)c1ccc(F)c(NS(=O)(=O)Cc2ccccc2)c1 (optimized conformer: 47.03655609460417 kcal/mol)

>  <smiles>  (68) 
O=C(Nc1ccc(Br)cc1)c1ccc(F)c(NS(=O)(=O)Cc2ccccc2)c1

>  <score_type>  (68) 
oracle

>  <origin>  (68) 
adg

>  <m_score__min__energy>  (68) 
-10.359999999999999

>  <m_primary>  (68) 
energy

$$$$
68:0
     RDKit          3D

 58 62  0  0  1  0  0  0  0  0999 V2000
   56.5920   19.9510   44.3430 N   0  0  0  0  0  0  0  0  0  0  0  0
   57.0320   21.5260   43.7480 S   0  0  0  0  0  0  0  0  0  0  0  0
   56.1390   21.9050   42.6040 O   0  0  0  0  0  0  0  0  0  0  0  0
   58.4790   21.4760   43.3270 O   0  0  0  0  0  0  0  0  0  0  0  0
   56.8450   22.7230   45.0120 C   0  0  0  0  0  0  0  0  0  0  0  0
   55.9270   22.4490   46.0120 C   0  0  0  0  0  0  0  0  0  0  0  0
   55.7140   23.3310   47.0470 C   0  0  0  0  0  0  0  0  0  0  0  0
   56.4460   24.4910   47.0470 C   0  0  0  0  0  0  0  0  0  0  0  0
   57.3680   24.7780   46.0540 C   0  0  0  0  0  0  0  0  0  0  0  0
   58.0590   26.0180   46.1810 N   0  0  0  0  0  0  0  0  0  0  0  0
   57.8270   26.9250   45.3020 C   0  0  0  0  0  0  0  0  0  0  0  0
   57.2880   28.1600   45.5790 C   0  0  0  0  0  0  0  0  0  0  0  0
   57.0710   29.0840   44.5670 C   0  0  0  0  0  0  0  0  0  0  0  0
   56.5240   30.3250   44.8690 O   0  0  0  0  0  0  0  0  0  0  0  0
   57.4160   31.3570   45.2450 C   0  0  0  0  0  0  0  0  0  0  0  0
   58.7640   30.7690   45.6370 C   0  0  0  0  0  0  0  0  0  0  0  0
   59.6560   31.8680   46.1830 C   0  0  0  0  0  0  0  0  0  0  0  0
   59.2580   33.1650   45.6790 N   0  0  0  0  0  0  0  0  0  0  0  0
   59.6610   34.3260   46.4450 C   0  0  0  0  0  0  0  0  0  0  0  0
   59.3340   35.4970   46.0490 O   0  0  0  0  0  0  0  0  0  0  0  0
   60.4320   34.2430   47.6670 C   0  0  0  0  0  0  0  0  0  0  0  0
   61.7720   33.8550   47.6890 C   0  0  0  0  0  0  0  0  0  0  0  0
   62.1940   33.8820   48.9920 C   0  0  0  0  0  0  0  0  0  0  0  0
   63.4810   33.5690   49.5250 C   0  0  0  0  0  0  0  0  0  0  0  0
   64.5560   32.8540   49.1320 C   0  0  0  0  0  0  0  0  0  0  0  0
   65.6480   32.7470   49.8770 C   0  0  0  0  0  0  0  0  0  0  0  0
   65.6640   33.4110   51.1180 C   0  0  0  0  0  0  0  0  0  0  0  0
   64.0170   34.2360   51.2190 S   0  0  0  0  0  0  0  0  0  0  0  0
   61.1380   34.2740   49.7150 N   0  0  0  0  0  0  0  0  0  0  0  0
   60.1190   34.4790   48.9130 O   0  0  0  0  0  0  0  0  0  0  0  0
   58.5200   33.4170   44.4920 C   0  0  0  0  0  0  0  0  0  0  0  0
   57.6010   32.3110   44.1070 C   0  0  0  0  0  0  0  0  0  0  0  0
   57.4100   28.7170   43.3120 N   0  0  0  0  0  0  0  0  0  0  0  0
   57.9380   27.5070   43.0390 C   0  0  0  0  0  0  0  0  0  0  0  0
   58.1360   26.6390   44.0270 N   0  0  0  0  0  0  0  0  0  0  0  0
   57.5800   23.8950   45.0200 C   0  0  0  0  0  0  0  0  0  0  0  0
   56.3280   19.3430   43.5630 H   0  0  0  0  0  0  0  0  0  0  0  0
   57.3860   19.5670   44.9000 H   0  0  0  0  0  0  0  0  0  0  0  0
   55.3572   21.5087   45.9785 H   0  0  0  0  0  0  0  0  0  0  0  0
   54.9858   23.1142   47.8424 H   0  0  0  0  0  0  0  0  0  0  0  0
   56.2962   25.2158   47.8608 H   0  0  0  0  0  0  0  0  0  0  0  0
   57.0258   28.4181   46.6156 H   0  0  0  0  0  0  0  0  0  0  0  0
   56.9913   31.8930   46.1066 H   0  0  0  0  0  0  0  0  0  0  0  0
   58.6175   29.9986   46.4084 H   0  0  0  0  0  0  0  0  0  0  0  0
   59.2380   30.3176   44.7530 H   0  0  0  0  0  0  0  0  0  0  0  0
   59.5874   31.8734   47.2808 H   0  0  0  0  0  0  0  0  0  0  0  0
   60.6887   31.6709   45.8595 H   0  0  0  0  0  0  0  0  0  0  0  0
   62.3808   33.5771   46.8160 H   0  0  0  0  0  0  0  0  0  0  0  0
   64.5254   32.3417   48.1591 H   0  0  0  0  0  0  0  0  0  0  0  0
   66.5128   32.1587   49.5363 H   0  0  0  0  0  0  0  0  0  0  0  0
   66.4755   33.4330   51.8602 H   0  0  0  0  0  0  0  0  0  0  0  0
   57.9218   34.3277   44.6428 H   0  0  0  0  0  0  0  0  0  0  0  0
   59.2516   33.5224   43.6774 H   0  0  0  0  0  0  0  0  0  0  0  0
   56.6246   32.7335   43.8276 H   0  0  0  0  0  0  0  0  0  0  0  0
   58.0387   31.7671   43.2570 H   0  0  0  0  0  0  0  0  0  0  0  0
   58.2034   27.2393   42.0056 H   0  0  0  0  0  0  0  0  0  0  0  0
   58.5520   25.6880   43.8020 H   0  0  0  0  0  0  0  0  0  0  0  0
   58.3095   24.1138   44.2263 H   0  0  0  0  0  0  0  0  0  0  0  0
  1  2  1  0
  2  3  2  0
  2  4  2  0
  2  5  1  0
  5  6  2  0
  6  7  1  0
  7  8  2  0
  8  9  1  0
  9 10  1  0
 10 11  2  0
 11 12  1  0
 12 13  2  0
 13 14  1  0
 14 15  1  0
 15 16  1  0
 16 17  1  0
 17 18  1  0
 18 19  1  0
 19 20  2  0
 19 21  1  0
 21 22  2  0
 22 23  1  0
 23 24  1  0
 24 25  2  0
 25 26  1  0
 26 27  2  0
 27 28  1  0
 23 29  2  0
 29 30  1  0
 18 31  1  0
 31 32  1  0
 13 33  1  0
 33 34  2  0
 34 35  1  0
  9 36  2  0
 36  5  1  0
 35 11  1  0
 32 15  1  0
 30 21  1  0
 28 24  1  0
  1 37  1  0
  1 38  1  0
  6 39  1  0
  7 40  1  0
  8 41  1  0
 12 42  1  0
 15 43  1  0
 16 44  1  0
 16 45  1  0
 17 46  1  0
 17 47  1  0
 22 48  1  0
 25 49  1  0
 26 50  1  0
 27 51  1  0
 31 52  1  0
 31 53  1  0
 32 54  1  0
 32 55  1  0
 34 56  1  0
 35 57  1  0
 36 58  1  0
M  END
>  <smiles>  (69) 
NS(=O)(=O)c1cccc(N=c2cc(OC3CCN(C(=O)c4cc(-c5cccs5)no4)CC3)nc[nH]2)c1

>  <score_type>  (69) 
oracle

>  <origin>  (69) 
adg

>  <m_score__min__energy>  (69) 
-10.6

>  <m_primary>  (69) 
energy

$$$$
69:0
     RDKit          3D

 53 56  0  0  0  0  0  0  0  0999 V2000
   55.5210   27.0120   45.6530 O   0  0  0  0  0  0  0  0  0  0  0  0
   56.6140   27.6410   45.6300 C   0  0  0  0  0  0  0  0  0  0  0  0
   57.8000   26.9830   46.0880 N   0  0  0  0  0  0  0  0  0  0  0  0
   58.2350   26.9470   47.4820 C   0  0  0  0  0  0  0  0  0  0  0  0
   59.7680   26.7840   47.5600 C   0  0  0  0  0  0  0  0  0  0  0  0
   60.4440   27.1150   46.2140 C   0  0  0  0  0  0  0  0  0  0  0  0
   60.3680   28.6200   45.8650 C   0  0  0  0  0  0  0  0  0  0  0  0
   60.0740   29.4650   47.0460 N   0  0  0  0  0  0  0  0  0  0  0  0
   60.3000   30.8900   46.7320 C   0  0  0  0  0  0  0  0  0  0  0  0
   60.2540   31.7400   47.9880 C   0  0  0  0  0  0  0  0  0  0  0  0
   59.2230   31.5310   48.9290 C   0  0  0  0  0  0  0  0  0  0  0  0
   58.2970   30.5570   48.7400 F   0  0  0  0  0  0  0  0  0  0  0  0
   59.1510   32.3080   50.0880 C   0  0  0  0  0  0  0  0  0  0  0  0
   60.0980   33.3030   50.3250 C   0  0  0  0  0  0  0  0  0  0  0  0
   61.1190   33.5320   49.4020 C   0  0  0  0  0  0  0  0  0  0  0  0
   61.2070   32.7620   48.2350 C   0  0  0  0  0  0  0  0  0  0  0  0
   62.5330   33.1090   47.1260 Cl  0  0  0  0  0  0  0  0  0  0  0  0
   60.8700   29.0260   48.2080 C   0  0  0  0  0  0  0  0  0  0  0  0
   60.3820   27.6470   48.6940 C   0  0  0  0  0  0  0  0  0  0  0  0
   56.6420   29.0140   45.0960 C   0  0  0  0  0  0  0  0  0  0  0  0
   55.9550   29.4620   43.9830 C   0  0  0  0  0  0  0  0  0  0  0  0
   56.2910   30.7910   43.8440 C   0  0  0  0  0  0  0  0  0  0  0  0
   57.1750   31.0690   44.8760 C   0  0  0  0  0  0  0  0  0  0  0  0
   57.8390   32.3630   45.1550 C   0  0  0  0  0  0  0  0  0  0  0  0
   57.7350   32.9840   46.4140 C   0  0  0  0  0  0  0  0  0  0  0  0
   58.3990   34.1900   46.6630 C   0  0  0  0  0  0  0  0  0  0  0  0
   59.1680   34.7870   45.6610 C   0  0  0  0  0  0  0  0  0  0  0  0
   60.0100   36.2930   45.9810 Cl  0  0  0  0  0  0  0  0  0  0  0  0
   59.2710   34.1800   44.4070 C   0  0  0  0  0  0  0  0  0  0  0  0
   58.6080   32.9780   44.1520 C   0  0  0  0  0  0  0  0  0  0  0  0
   57.3620   29.9890   45.5990 O   0  0  0  0  0  0  0  0  0  0  0  0
   57.9440   27.8850   47.9774 H   0  0  0  0  0  0  0  0  0  0  0  0
   57.7580   26.0924   47.9841 H   0  0  0  0  0  0  0  0  0  0  0  0
   59.9600   25.7261   47.7924 H   0  0  0  0  0  0  0  0  0  0  0  0
   61.5020   26.8190   46.2688 H   0  0  0  0  0  0  0  0  0  0  0  0
   59.9087   26.5629   45.4274 H   0  0  0  0  0  0  0  0  0  0  0  0
   61.3334   28.9322   45.4400 H   0  0  0  0  0  0  0  0  0  0  0  0
   59.5459   28.7541   45.1466 H   0  0  0  0  0  0  0  0  0  0  0  0
   61.2867   31.0015   46.2587 H   0  0  0  0  0  0  0  0  0  0  0  0
   59.5045   31.2283   46.0518 H   0  0  0  0  0  0  0  0  0  0  0  0
   58.3446   32.1340   50.8156 H   0  0  0  0  0  0  0  0  0  0  0  0
   60.0403   33.9088   51.2414 H   0  0  0  0  0  0  0  0  0  0  0  0
   61.8599   34.3226   49.5920 H   0  0  0  0  0  0  0  0  0  0  0  0
   61.9288   28.9558   47.9181 H   0  0  0  0  0  0  0  0  0  0  0  0
   60.7524   29.7568   49.0217 H   0  0  0  0  0  0  0  0  0  0  0  0
   61.2372   27.1043   49.1230 H   0  0  0  0  0  0  0  0  0  0  0  0
   59.5906   27.8226   49.4375 H   0  0  0  0  0  0  0  0  0  0  0  0
   55.2794   28.8779   43.3408 H   0  0  0  0  0  0  0  0  0  0  0  0
   55.9319   31.4884   43.0729 H   0  0  0  0  0  0  0  0  0  0  0  0
   57.1290   32.5190   47.2055 H   0  0  0  0  0  0  0  0  0  0  0  0
   58.3154   34.6691   47.6496 H   0  0  0  0  0  0  0  0  0  0  0  0
   59.8763   34.6505   43.6181 H   0  0  0  0  0  0  0  0  0  0  0  0
   58.6880   32.5094   43.1600 H   0  0  0  0  0  0  0  0  0  0  0  0
  1  2  2  0
  2  3  1  0
  3  4  1  0
  4  5  1  0
  5  6  1  0
  6  7  1  0
  7  8  1  0
  8  9  1  0
  9 10  1  0
 10 11  2  0
 11 12  1  0
 11 13  1  0
 13 14  2  0
 14 15  1  0
 15 16  2  0
 16 17  1  0
  8 18  1  0
 18 19  1  0
  2 20  1  0
 20 21  2  0
 21 22  1  0
 22 23  2  0
 23 24  1  0
 24 25  2  0
 25 26  1  0
 26 27  2  0
 27 28  1  0
 27 29  1  0
 29 30  2  0
 23 31  1  0
 19  5  1  0
 31 20  1  0
 16 10  1  0
 30 24  1  0
  4 32  1  0
  4 33  1  0
  5 34  1  0
  6 35  1  0
  6 36  1  0
  7 37  1  0
  7 38  1  0
  9 39  1  0
  9 40  1  0
 13 41  1  0
 14 42  1  0
 15 43  1  0
 18 44  1  0
 18 45  1  0
 19 46  1  0
 19 47  1  0
 21 48  1  0
 22 49  1  0
 25 50  1  0
 26 51  1  0
 29 52  1  0
 30 53  1  0
M  CHG  1   3  -1
M  END
>  <UniqueID>  (70) 
66

>  <SMILES>  (70) 
O=C([N-]CC1CCN(Cc2c(F)cccc2Cl)CC1)c1ccc(-c2ccc(Cl)cc2)o1

>  <Energy>  (70) 
89.22471718807725

>  <Genealogy>  (70) 
O=C([N-]CC1CCN(Cc2c(F)cccc2Cl)CC1)c1ccc(-c2ccc(Cl)cc2)o1 (protonated)
O=C([N-]CC1CCN(Cc2c(F)cccc2Cl)CC1)c1ccc(-c2ccc(Cl)cc2)o1 (3D coordinates assigned)
O=C([N-]CC1CCN(Cc2c(F)cccc2Cl)CC1)c1ccc(-c2ccc(Cl)cc2)o1 (nonaromatic ring conformer: 89.22471718807725 kcal/mol)

>  <smiles>  (70) 
O=C(NCC1CCN(Cc2c(F)cccc2Cl)CC1)c1ccc(-c2ccc(Cl)cc2)o1

>  <score_type>  (70) 
oracle

>  <origin>  (70) 
adg

>  <m_score__min__energy>  (70) 
-10.65

>  <m_primary>  (70) 
energy

$$$$
70:0
     RDKit          3D

 58 62  0  0  0  0  0  0  0  0999 V2000
   56.6440   33.9990   45.0090 O   0  0  0  0  0  0  0  0  0  0  0  0
   57.8120   33.7880   45.4280 C   0  0  0  0  0  0  0  0  0  0  0  0
   58.5930   32.6210   44.8800 C   0  0  0  0  0  0  0  0  0  0  0  0
   57.7030   31.5870   44.2380 C   0  0  0  0  0  0  0  0  0  0  0  0
   57.4610   31.6230   42.8540 C   0  0  0  0  0  0  0  0  0  0  0  0
   56.6570   30.6520   42.2540 C   0  0  0  0  0  0  0  0  0  0  0  0
   56.0660   29.6540   43.0300 C   0  0  0  0  0  0  0  0  0  0  0  0
   56.2560   29.6280   44.4170 C   0  0  0  0  0  0  0  0  0  0  0  0
   55.6380   28.6080   45.1530 O   0  0  0  0  0  0  0  0  0  0  0  0
   56.2690   27.4470   45.6230 C   0  0  0  0  0  0  0  0  0  0  0  0
   55.6150   26.5450   46.2100 O   0  0  0  0  0  0  0  0  0  0  0  0
   57.6630   27.2450   45.3800 N   0  0  0  0  0  0  0  0  0  0  0  0
   58.4190   26.1220   45.9240 C   0  0  0  0  0  0  0  0  0  0  0  0
   59.8290   26.5470   46.3530 C   0  0  0  0  0  0  0  0  0  0  0  0
   59.9480   28.0410   46.4480 C   0  0  0  0  0  0  0  0  0  0  0  0
   60.2950   28.9080   45.4170 C   0  0  0  0  0  0  0  0  0  0  0  0
   60.2310   30.1920   45.8370 N   0  0  0  0  0  0  0  0  0  0  0  0
   59.8390   30.1430   47.1220 C   0  0  0  0  0  0  0  0  0  0  0  0
   59.6160   31.2210   47.9790 C   0  0  0  0  0  0  0  0  0  0  0  0
   59.1890   30.9420   49.2890 C   0  0  0  0  0  0  0  0  0  0  0  0
   58.9970   29.6070   49.7110 C   0  0  0  0  0  0  0  0  0  0  0  0
   59.2290   28.5400   48.8260 C   0  0  0  0  0  0  0  0  0  0  0  0
   59.6520   28.8470   47.5310 C   0  0  0  0  0  0  0  0  0  0  0  0
   57.0860   30.5930   45.0170 C   0  0  0  0  0  0  0  0  0  0  0  0
   58.3960   34.7190   46.3500 N   0  0  0  0  0  0  0  0  0  0  0  0
   59.5180   34.4390   47.1930 C   0  0  0  0  0  0  0  0  0  0  0  0
   59.3680   34.5070   48.5820 C   0  0  0  0  0  0  0  0  0  0  0  0
   60.4490   34.2320   49.4240 C   0  0  0  0  0  0  0  0  0  0  0  0
   61.6910   33.8670   48.8810 C   0  0  0  0  0  0  0  0  0  0  0  0
   62.7880   33.5980   49.7140 C   0  0  0  0  0  0  0  0  0  0  0  0
   64.0170   33.2310   49.1580 C   0  0  0  0  0  0  0  0  0  0  0  0
   64.1600   33.1280   47.7720 C   0  0  0  0  0  0  0  0  0  0  0  0
   63.0750   33.3900   46.9310 C   0  0  0  0  0  0  0  0  0  0  0  0
   61.8360   33.7610   47.4770 C   0  0  0  0  0  0  0  0  0  0  0  0
   60.7400   34.0310   46.6440 C   0  0  0  0  0  0  0  0  0  0  0  0
   59.3031   32.9931   44.1268 H   0  0  0  0  0  0  0  0  0  0  0  0
   59.1142   32.1405   45.7211 H   0  0  0  0  0  0  0  0  0  0  0  0
   57.9071   32.4198   42.2407 H   0  0  0  0  0  0  0  0  0  0  0  0
   56.4890   30.6737   41.1671 H   0  0  0  0  0  0  0  0  0  0  0  0
   55.4468   28.8826   42.5488 H   0  0  0  0  0  0  0  0  0  0  0  0
   57.8849   25.7220   46.7985 H   0  0  0  0  0  0  0  0  0  0  0  0
   58.5135   25.3576   45.1387 H   0  0  0  0  0  0  0  0  0  0  0  0
   60.0512   26.1074   47.3366 H   0  0  0  0  0  0  0  0  0  0  0  0
   60.5425   26.1912   45.5951 H   0  0  0  0  0  0  0  0  0  0  0  0
   60.5813   28.5934   44.4025 H   0  0  0  0  0  0  0  0  0  0  0  0
   60.4350   31.0450   45.2720 H   0  0  0  0  0  0  0  0  0  0  0  0
   59.7694   32.2563   47.6405 H   0  0  0  0  0  0  0  0  0  0  0  0
   59.0030   31.7686   49.9905 H   0  0  0  0  0  0  0  0  0  0  0  0
   58.6638   29.4016   50.7390 H   0  0  0  0  0  0  0  0  0  0  0  0
   59.0821   27.4970   49.1431 H   0  0  0  0  0  0  0  0  0  0  0  0
   57.2532   30.5693   46.1040 H   0  0  0  0  0  0  0  0  0  0  0  0
   58.3935   34.7785   49.0141 H   0  0  0  0  0  0  0  0  0  0  0  0
   60.3263   34.3017   50.5149 H   0  0  0  0  0  0  0  0  0  0  0  0
   62.6806   33.6761   50.8060 H   0  0  0  0  0  0  0  0  0  0  0  0
   64.8748   33.0225   49.8143 H   0  0  0  0  0  0  0  0  0  0  0  0
   65.1302   32.8396   47.3411 H   0  0  0  0  0  0  0  0  0  0  0  0
   63.1919   33.3055   45.8405 H   0  0  0  0  0  0  0  0  0  0  0  0
   60.8410   33.9217   45.5541 H   0  0  0  0  0  0  0  0  0  0  0  0
  1  2  2  0
  2  3  1  0
  3  4  1  0
  4  5  2  0
  5  6  1  0
  6  7  2  0
  7  8  1  0
  8  9  1  0
  9 10  1  0
 10 11  2  0
 10 12  1  0
 12 13  1  0
 13 14  1  0
 14 15  1  0
 15 16  2  0
 16 17  1  0
 17 18  1  0
 18 19  2  0
 19 20  1  0
 20 21  2  0
 21 22  1  0
 22 23  2  0
  8 24  2  0
  2 25  1  0
 25 26  1  0
 26 27  2  0
 27 28  1  0
 28 29  2  0
 29 30  1  0
 30 31  2  0
 31 32  1  0
 32 33  2  0
 33 34  1  0
 34 35  2  0
 24  4  1  0
 35 26  1  0
 23 15  1  0
 34 29  1  0
 23 18  1  0
  3 36  1  0
  3 37  1  0
  5 38  1  0
  6 39  1  0
  7 40  1  0
 13 41  1  0
 13 42  1  0
 14 43  1  0
 14 44  1  0
 16 45  1  0
 17 46  1  0
 19 47  1  0
 20 48  1  0
 21 49  1  0
 22 50  1  0
 24 51  1  0
 27 52  1  0
 28 53  1  0
 30 54  1  0
 31 55  1  0
 32 56  1  0
 33 57  1  0
 35 58  1  0
M  CHG  2  12  -1  25  -1
M  END
>  <UniqueID>  (71) 
67

>  <SMILES>  (71) 
O=C(Cc1cccc(OC(=O)[N-]CCc2c[nH]c3ccccc23)c1)[N-]c1ccc2ccccc2c1

>  <Energy>  (71) 
102.37309918962055

>  <Genealogy>  (71) 
O=C(Cc1cccc(OC(=O)[N-]CCc2c[nH]c3ccccc23)c1)[N-]c1ccc2ccccc2c1 (protonated)
O=C(Cc1cccc(OC(=O)[N-]CCc2c[nH]c3ccccc23)c1)[N-]c1ccc2ccccc2c1 (3D coordinates assigned)
O=C(Cc1cccc(OC(=O)[N-]CCc2c[nH]c3ccccc23)c1)[N-]c1ccc2ccccc2c1 (optimized conformer: 102.37309918962055 kcal/mol)

>  <smiles>  (71) 
O=C(Cc1cccc(OC(=O)NCCc2c[nH]c3ccccc23)c1)Nc1ccc2ccccc2c1

>  <score_type>  (71) 
oracle

>  <origin>  (71) 
adg

>  <m_score__min__energy>  (71) 
-13.300000000000001

>  <m_primary>  (71) 
energy

$$$$
71:0
     RDKit          3D

 35 36  0  0  0  0  0  0  0  0999 V2000
   56.6210   22.3540   42.9840 C   0  0  0  0  0  0  0  0  0  0  0  0
   57.8540   22.4780   44.3130 S   0  0  0  0  0  0  0  0  0  0  0  0
   57.6220   24.0510   45.1240 C   0  0  0  0  0  0  0  0  0  0  0  0
   56.3780   24.6480   45.2600 C   0  0  0  0  0  0  0  0  0  0  0  0
   56.2900   25.8770   45.9070 C   0  0  0  0  0  0  0  0  0  0  0  0
   55.1620   26.4020   46.0220 O   0  0  0  0  0  0  0  0  0  0  0  0
   57.4110   26.4800   46.3990 N   0  0  0  0  0  0  0  0  0  0  0  0
   58.6020   25.8890   46.2590 C   0  0  0  0  0  0  0  0  0  0  0  0
   60.1330   26.5870   46.8550 S   0  0  0  0  0  0  0  0  0  0  0  0
   59.7620   27.6810   48.2460 C   0  0  0  0  0  0  0  0  0  0  0  0
   59.5330   29.0780   47.7170 C   0  0  0  0  0  0  0  0  0  0  0  0
   60.0690   29.9900   48.3790 O   0  0  0  0  0  0  0  0  0  0  0  0
   58.7560   29.2620   46.5520 N   0  0  0  0  0  0  0  0  0  0  0  0
   58.4590   30.5080   45.9480 C   0  0  0  0  0  0  0  0  0  0  0  0
   59.1880   31.6490   46.1880 C   0  0  0  0  0  0  0  0  0  0  0  0
   58.8920   32.8830   45.5960 C   0  0  0  0  0  0  0  0  0  0  0  0
   57.8380   32.9800   44.7410 C   0  0  0  0  0  0  0  0  0  0  0  0
   57.1040   31.8520   44.4940 C   0  0  0  0  0  0  0  0  0  0  0  0
   57.3960   30.6120   45.0850 C   0  0  0  0  0  0  0  0  0  0  0  0
   56.5250   29.5540   44.7160 N   0  0  0  0  0  0  0  0  0  0  0  0
   57.0490   28.4560   44.3800 O   0  0  0  0  0  0  0  0  0  0  0  0
   55.1730   29.5970   44.6910 O   0  0  0  0  0  0  0  0  0  0  0  0
   58.7030   24.6820   45.6260 N   0  0  0  0  0  0  0  0  0  0  0  0
   55.6175   22.2531   43.4231 H   0  0  0  0  0  0  0  0  0  0  0  0
   56.6597   23.2606   42.3622 H   0  0  0  0  0  0  0  0  0  0  0  0
   56.8394   21.4733   42.3622 H   0  0  0  0  0  0  0  0  0  0  0  0
   55.4762   24.1587   44.8634 H   0  0  0  0  0  0  0  0  0  0  0  0
   58.8575   27.3283   48.7631 H   0  0  0  0  0  0  0  0  0  0  0  0
   60.6024   27.6824   48.9558 H   0  0  0  0  0  0  0  0  0  0  0  0
   58.3940   28.3730   46.1150 H   0  0  0  0  0  0  0  0  0  0  0  0
   60.0434   31.5896   46.8770 H   0  0  0  0  0  0  0  0  0  0  0  0
   59.5068   33.7671   45.8204 H   0  0  0  0  0  0  0  0  0  0  0  0
   57.5835   33.9372   44.2624 H   0  0  0  0  0  0  0  0  0  0  0  0
   56.2499   31.9192   43.8040 H   0  0  0  0  0  0  0  0  0  0  0  0
   59.6480   24.2120   45.5130 H   0  0  0  0  0  0  0  0  0  0  0  0
  1  2  1  0
  2  3  1  0
  3  4  2  0
  4  5  1  0
  5  6  2  0
  5  7  1  0
  7  8  2  0
  8  9  1  0
  9 10  1  0
 10 11  1  0
 11 12  2  0
 11 13  1  0
 13 14  1  0
 14 15  2  0
 15 16  1  0
 16 17  2  0
 17 18  1  0
 18 19  2  0
 19 20  1  0
 20 21  2  0
 20 22  1  0
  8 23  1  0
 23  3  1  0
 19 14  1  0
  1 24  1  0
  1 25  1  0
  1 26  1  0
  4 27  1  0
 10 28  1  0
 10 29  1  0
 13 30  1  0
 15 31  1  0
 16 32  1  0
 17 33  1  0
 18 34  1  0
 23 35  1  0
M  CHG  2  20   1  22  -1
M  END
>  <smiles>  (72) 
CSc1cc(=O)nc(SCC(=O)Nc2ccccc2[N+](=O)[O-])[nH]1

>  <score_type>  (72) 
oracle

>  <origin>  (72) 
adg

>  <m_score__min__energy>  (72) 
-7.6600000000000001

>  <m_primary>  (72) 
energy

$$$$
72:0
     RDKit          3D

 43 45  0  0  0  0  0  0  0  0999 V2000
   61.4530   31.5010   48.3210 C   0  0  0  0  0  0  0  0  0  0  0  0
   60.3650   31.2550   49.3250 C   0  0  0  0  0  0  0  0  0  0  0  0
   60.1550   32.1930   50.2870 N   0  0  0  0  0  0  0  0  0  0  0  0
   59.2080   32.0610   51.2500 C   0  0  0  0  0  0  0  0  0  0  0  0
   59.0780   32.9790   52.1040 O   0  0  0  0  0  0  0  0  0  0  0  0
   58.3900   30.9120   51.2850 C   0  0  0  0  0  0  0  0  0  0  0  0
   57.3440   30.7130   52.3270 C   0  0  0  0  0  0  0  0  0  0  0  0
   57.3370   31.4190   53.3720 O   0  0  0  0  0  0  0  0  0  0  0  0
   56.3380   29.7110   52.1480 N   0  0  0  0  0  0  0  0  0  0  0  0
   55.2460   29.5060   53.0900 C   0  0  0  0  0  0  0  0  0  0  0  0
   54.0490   30.2910   52.6380 C   0  0  0  0  0  0  0  0  0  0  0  0
   52.9880   30.5380   53.5240 C   0  0  0  0  0  0  0  0  0  0  0  0
   51.8550   31.2330   53.0910 C   0  0  0  0  0  0  0  0  0  0  0  0
   51.7680   31.6760   51.7660 C   0  0  0  0  0  0  0  0  0  0  0  0
   50.6410   32.3660   51.3370 O   0  0  0  0  0  0  0  0  0  0  0  0
   52.8140   31.4210   50.8750 C   0  0  0  0  0  0  0  0  0  0  0  0
   53.9500   30.7260   51.3050 C   0  0  0  0  0  0  0  0  0  0  0  0
   58.5890   29.9330   50.2990 C   0  0  0  0  0  0  0  0  0  0  0  0
   59.5710   30.0870   49.3080 C   0  0  0  0  0  0  0  0  0  0  0  0
   59.7660   28.9840   48.2890 C   0  0  0  0  0  0  0  0  0  0  0  0
   58.6720   28.9980   47.2520 C   0  0  0  0  0  0  0  0  0  0  0  0
   57.9600   27.8250   46.9490 C   0  0  0  0  0  0  0  0  0  0  0  0
   56.9460   27.8420   45.9860 C   0  0  0  0  0  0  0  0  0  0  0  0
   56.6390   29.0290   45.3130 C   0  0  0  0  0  0  0  0  0  0  0  0
   55.6320   29.0440   44.3570 O   0  0  0  0  0  0  0  0  0  0  0  0
   57.3480   30.1980   45.6010 C   0  0  0  0  0  0  0  0  0  0  0  0
   58.3620   30.1850   46.5650 C   0  0  0  0  0  0  0  0  0  0  0  0
   62.3955   31.7141   48.8465 H   0  0  0  0  0  0  0  0  0  0  0  0
   61.5785   30.6086   47.6903 H   0  0  0  0  0  0  0  0  0  0  0  0
   61.1824   32.3606   47.6903 H   0  0  0  0  0  0  0  0  0  0  0  0
   54.9908   28.4368   53.1301 H   0  0  0  0  0  0  0  0  0  0  0  0
   55.5531   29.8445   54.0905 H   0  0  0  0  0  0  0  0  0  0  0  0
   53.0486   30.1830   54.5634 H   0  0  0  0  0  0  0  0  0  0  0  0
   51.0311   31.4319   53.7921 H   0  0  0  0  0  0  0  0  0  0  0  0
   52.7442   31.7674   49.8333 H   0  0  0  0  0  0  0  0  0  0  0  0
   54.7673   30.5197   50.5983 H   0  0  0  0  0  0  0  0  0  0  0  0
   57.9636   29.0281   50.3030 H   0  0  0  0  0  0  0  0  0  0  0  0
   60.7356   29.1251   47.7891 H   0  0  0  0  0  0  0  0  0  0  0  0
   59.7359   28.0173   48.8130 H   0  0  0  0  0  0  0  0  0  0  0  0
   58.2016   26.8881   47.4723 H   0  0  0  0  0  0  0  0  0  0  0  0
   56.3894   26.9211   45.7577 H   0  0  0  0  0  0  0  0  0  0  0  0
   57.1085   31.1304   45.0688 H   0  0  0  0  0  0  0  0  0  0  0  0
   58.9190   31.1073   46.7864 H   0  0  0  0  0  0  0  0  0  0  0  0
  1  2  1  0
  2  3  1  0
  3  4  1  0
  4  5  2  0
  4  6  1  0
  6  7  1  0
  7  8  2  0
  7  9  1  0
  9 10  1  0
 10 11  1  0
 11 12  2  0
 12 13  1  0
 13 14  2  0
 14 15  1  0
 14 16  1  0
 16 17  2  0
  6 18  2  0
 18 19  1  0
 19 20  1  0
 20 21  1  0
 21 22  2  0
 22 23  1  0
 23 24  2  0
 24 25  1  0
 24 26  1  0
 26 27  2  0
 19  2  2  0
 27 21  1  0
 17 11  1  0
  1 28  1  0
  1 29  1  0
  1 30  1  0
 10 31  1  0
 10 32  1  0
 12 33  1  0
 13 34  1  0
 16 35  1  0
 17 36  1  0
 18 37  1  0
 20 38  1  0
 20 39  1  0
 22 40  1  0
 23 41  1  0
 26 42  1  0
 27 43  1  0
M  CHG  4   3  -1   9  -1  15  -1  25  -1
M  END
>  <UniqueID>  (73) 
68

>  <SMILES>  (73) 
Cc1[n-]c(=O)c(C(=O)[N-]Cc2ccc([O-])cc2)cc1Cc1ccc([O-])cc1

>  <Energy>  (73) 
45.63747807031544

>  <Genealogy>  (73) 
Cc1[n-]c(=O)c(C(=O)[N-]Cc2ccc([O-])cc2)cc1Cc1ccc([O-])cc1 (protonated)
Cc1[n-]c(=O)c(C(=O)[N-]Cc2ccc([O-])cc2)cc1Cc1ccc([O-])cc1 (3D coordinates assigned)
Cc1[n-]c(=O)c(C(=O)[N-]Cc2ccc([O-])cc2)cc1Cc1ccc([O-])cc1 (optimized conformer: 45.63747807031544 kcal/mol)

>  <smiles>  (73) 
Cc1[nH]c(=O)c(C(=O)NCc2ccc(O)cc2)cc1Cc1ccc(O)cc1

>  <score_type>  (73) 
oracle

>  <origin>  (73) 
adg

>  <m_score__min__energy>  (73) 
-16.079999999999998

>  <m_primary>  (73) 
energy

$$$$
73:0
     RDKit          3D

 42 44  0  0  0  0  0  0  0  0999 V2000
   59.2319   31.0423   49.0381 H   0  0  0  0  0  0  0  0  0  0  0  0
   59.5340   30.6140   48.0710 C   0  0  0  0  0  0  0  0  0  0  0  0
   58.7460   29.3730   47.2520 S   0  0  0  0  0  0  0  0  0  0  0  0
   59.8360   29.3840   45.9670 C   0  0  0  0  0  0  0  0  0  0  0  0
   59.8140   28.6100   44.9220 N   0  0  0  0  0  0  0  0  0  0  0  0
   58.8000   27.6590   44.5580 C   0  0  0  0  0  0  0  0  0  0  0  0
   58.7700   26.5030   45.0620 O   0  0  0  0  0  0  0  0  0  0  0  0
   57.7630   28.0440   43.5530 C   0  0  0  0  0  0  0  0  0  0  0  0
   56.8306   27.5008   43.7667 H   0  0  0  0  0  0  0  0  0  0  0  0
   58.1255   27.7867   42.5468 H   0  0  0  0  0  0  0  0  0  0  0  0
   57.5090   29.4820   43.6150 N   0  0  0  0  0  0  0  0  0  0  0  0
   58.0810   30.1190   43.0160 H   0  0  0  0  0  0  0  0  0  0  0  0
   56.4950   30.0510   44.4500 C   0  0  0  0  0  0  0  0  0  0  0  0
   55.7790   29.3080   45.1740 O   0  0  0  0  0  0  0  0  0  0  0  0
   56.3540   31.4450   44.4930 O   0  0  0  0  0  0  0  0  0  0  0  0
   57.3310   32.3460   44.9470 C   0  0  0  0  0  0  0  0  0  0  0  0
   57.4140   32.7280   46.2990 C   0  0  0  0  0  0  0  0  0  0  0  0
   56.7044   32.3115   47.0291 H   0  0  0  0  0  0  0  0  0  0  0  0
   58.3920   33.6330   46.7200 C   0  0  0  0  0  0  0  0  0  0  0  0
   58.4556   33.9186   47.7804 H   0  0  0  0  0  0  0  0  0  0  0  0
   59.2880   34.1750   45.7980 C   0  0  0  0  0  0  0  0  0  0  0  0
   60.0617   34.8814   46.1333 H   0  0  0  0  0  0  0  0  0  0  0  0
   59.2030   33.8210   44.4490 C   0  0  0  0  0  0  0  0  0  0  0  0
   59.9078   34.2546   43.7243 H   0  0  0  0  0  0  0  0  0  0  0  0
   58.2220   32.9140   44.0130 C   0  0  0  0  0  0  0  0  0  0  0  0
   58.1370   32.5370   42.5610 C   0  0  0  0  0  0  0  0  0  0  0  0
   57.8958   31.4673   42.4734 H   0  0  0  0  0  0  0  0  0  0  0  0
   57.3503   33.1314   42.0733 H   0  0  0  0  0  0  0  0  0  0  0  0
   59.1026   32.7363   42.0733 H   0  0  0  0  0  0  0  0  0  0  0  0
   60.7960   30.3170   46.1430 N   0  0  0  0  0  0  0  0  0  0  0  0
   60.6400   31.0070   47.3090 C   0  0  0  0  0  0  0  0  0  0  0  0
   61.5850   32.0850   47.6990 C   0  0  0  0  0  0  0  0  0  0  0  0
   62.8760   32.1730   47.1370 C   0  0  0  0  0  0  0  0  0  0  0  0
   63.1987   31.4304   46.3924 H   0  0  0  0  0  0  0  0  0  0  0  0
   63.7490   33.1970   47.5190 C   0  0  0  0  0  0  0  0  0  0  0  0
   64.7545   33.2544   47.0768 H   0  0  0  0  0  0  0  0  0  0  0  0
   63.3470   34.1460   48.4600 C   0  0  0  0  0  0  0  0  0  0  0  0
   64.0365   34.9486   48.7606 H   0  0  0  0  0  0  0  0  0  0  0  0
   62.0700   34.0770   49.0200 C   0  0  0  0  0  0  0  0  0  0  0  0
   61.7531   34.8268   49.7598 H   0  0  0  0  0  0  0  0  0  0  0  0
   61.1930   33.0550   48.6410 C   0  0  0  0  0  0  0  0  0  0  0  0
   60.1870   33.0089   49.0835 H   0  0  0  0  0  0  0  0  0  0  0  0
  1  2  1  0
  2  3  1  0
  3  4  1  0
  4  5  2  0
  5  6  1  0
  6  7  2  0
  6  8  1  0
  8  9  1  0
  8 10  1  0
  8 11  1  0
 11 12  1  0
 11 13  1  0
 13 14  2  0
 13 15  1  0
 15 16  1  0
 16 17  2  0
 17 18  1  0
 17 19  1  0
 19 20  1  0
 19 21  2  0
 21 22  1  0
 21 23  1  0
 23 24  1  0
 23 25  2  0
 25 26  1  0
 26 27  1  0
 26 28  1  0
 26 29  1  0
  4 30  1  0
 30 31  1  0
 31 32  1  0
 32 33  2  0
 33 34  1  0
 33 35  1  0
 35 36  1  0
 35 37  2  0
 37 38  1  0
 37 39  1  0
 39 40  1  0
 39 41  2  0
 41 42  1  0
 31  2  2  0
 41 32  1  0
 25 16  1  0
M  CHG  1  30  -1
M  END
>  <UniqueID>  (74) 
69

>  <SMILES>  (74) 
Cc1ccccc1OC(=O)NCC(=O)/N=c1/[n-]c(-c2ccccc2)cs1

>  <Energy>  (74) 
80.93445709086213

>  <Genealogy>  (74) 
Cc1ccccc1OC(=O)NCC(=O)N=c1[n-]c(-c2ccccc2)cs1 (protonated)
Cc1ccccc1OC(=O)NCC(=O)/N=c1/[n-]c(-c2ccccc2)cs1 (cis-trans isomerization)
Cc1ccccc1OC(=O)NCC(=O)/N=c1/[n-]c(-c2ccccc2)cs1 (3D coordinates assigned)
Cc1ccccc1OC(=O)NCC(=O)/N=c1/[n-]c(-c2ccccc2)cs1 (optimized conformer: 80.93445709086213 kcal/mol)

>  <smiles>  (74) 
Cc1ccccc1OC(=O)NCC(=O)N=c1[nH]c(-c2ccccc2)cs1

>  <score_type>  (74) 
oracle

>  <origin>  (74) 
adg

>  <m_score__min__energy>  (74) 
-10.029999999999999

>  <m_primary>  (74) 
energy

$$$$
74:0
     RDKit          3D

 46 49  0  0  0  0  0  0  0  0999 V2000
   51.8890   24.1000   44.5080 C   0  0  0  0  0  0  0  0  0  0  0  0
   52.4370   22.8830   45.0010 O   0  0  0  0  0  0  0  0  0  0  0  0
   52.8490   22.6790   46.3350 C   0  0  0  0  0  0  0  0  0  0  0  0
   51.9930   22.1320   47.3160 C   0  0  0  0  0  0  0  0  0  0  0  0
   52.4450   21.9550   48.6290 C   0  0  0  0  0  0  0  0  0  0  0  0
   53.7430   22.3410   48.9790 C   0  0  0  0  0  0  0  0  0  0  0  0
   54.5900   22.9090   48.0240 C   0  0  0  0  0  0  0  0  0  0  0  0
   54.1550   23.0710   46.6850 C   0  0  0  0  0  0  0  0  0  0  0  0
   54.9450   23.6590   45.6810 O   0  0  0  0  0  0  0  0  0  0  0  0
   56.0100   24.5490   45.8720 C   0  0  0  0  0  0  0  0  0  0  0  0
   57.3520   24.1270   45.8680 C   0  0  0  0  0  0  0  0  0  0  0  0
   58.3830   25.0510   46.0370 C   0  0  0  0  0  0  0  0  0  0  0  0
   58.0920   26.4210   46.1670 C   0  0  0  0  0  0  0  0  0  0  0  0
   59.2020   27.4120   46.3650 C   0  0  0  0  0  0  0  0  0  0  0  0
   59.1040   27.9840   47.7040 N   0  0  0  0  0  0  0  0  0  0  0  0
   59.3390   29.3560   48.0570 C   0  0  0  0  0  0  0  0  0  0  0  0
   59.9370   29.6020   49.1350 O   0  0  0  0  0  0  0  0  0  0  0  0
   58.9050   30.4870   47.2170 C   0  0  0  0  0  0  0  0  0  0  0  0
   57.9010   30.3420   46.3060 N   0  0  0  0  0  0  0  0  0  0  0  0
   57.5150   31.3630   45.4970 C   0  0  0  0  0  0  0  0  0  0  0  0
   56.5820   31.1810   44.6690 O   0  0  0  0  0  0  0  0  0  0  0  0
   58.1700   32.6030   45.5890 C   0  0  0  0  0  0  0  0  0  0  0  0
   57.8400   33.7100   44.7910 C   0  0  0  0  0  0  0  0  0  0  0  0
   58.5390   34.9100   44.9460 C   0  0  0  0  0  0  0  0  0  0  0  0
   59.5670   34.9920   45.8900 C   0  0  0  0  0  0  0  0  0  0  0  0
   59.8830   33.9110   46.6480 N   0  0  0  0  0  0  0  0  0  0  0  0
   59.2140   32.7330   46.5310 C   0  0  0  0  0  0  0  0  0  0  0  0
   59.5620   31.6770   47.3060 N   0  0  0  0  0  0  0  0  0  0  0  0
   56.7540   26.8460   46.1520 C   0  0  0  0  0  0  0  0  0  0  0  0
   55.7240   25.9140   46.0030 C   0  0  0  0  0  0  0  0  0  0  0  0
   54.3990   26.3400   45.9880 O   0  0  0  0  0  0  0  0  0  0  0  0
   51.6002   24.7413   45.3538 H   0  0  0  0  0  0  0  0  0  0  0  0
   52.6405   24.6186   43.8945 H   0  0  0  0  0  0  0  0  0  0  0  0
   51.0026   23.8810   43.8945 H   0  0  0  0  0  0  0  0  0  0  0  0
   50.9661   21.8436   47.0471 H   0  0  0  0  0  0  0  0  0  0  0  0
   51.7797   21.5126   49.3851 H   0  0  0  0  0  0  0  0  0  0  0  0
   54.0983   22.1968   50.0100 H   0  0  0  0  0  0  0  0  0  0  0  0
   55.6008   23.2325   48.3132 H   0  0  0  0  0  0  0  0  0  0  0  0
   57.5897   23.0618   45.7307 H   0  0  0  0  0  0  0  0  0  0  0  0
   59.4274   24.7071   46.0687 H   0  0  0  0  0  0  0  0  0  0  0  0
   60.1717   26.9052   46.2519 H   0  0  0  0  0  0  0  0  0  0  0  0
   59.1197   28.2126   45.6151 H   0  0  0  0  0  0  0  0  0  0  0  0
   57.0340   33.6330   44.0464 H   0  0  0  0  0  0  0  0  0  0  0  0
   58.2822   35.7841   44.3295 H   0  0  0  0  0  0  0  0  0  0  0  0
   60.1206   35.9338   46.0187 H   0  0  0  0  0  0  0  0  0  0  0  0
   56.5162   27.9148   46.2578 H   0  0  0  0  0  0  0  0  0  0  0  0
  1  2  1  0
  2  3  1  0
  3  4  2  0
  4  5  1  0
  5  6  2  0
  6  7  1  0
  7  8  2  0
  8  9  1  0
  9 10  1  0
 10 11  2  0
 11 12  1  0
 12 13  2  0
 13 14  1  0
 14 15  1  0
 15 16  1  0
 16 17  2  0
 16 18  1  0
 18 19  2  0
 19 20  1  0
 20 21  2  0
 20 22  1  0
 22 23  2  0
 23 24  1  0
 24 25  2  0
 25 26  1  0
 26 27  2  0
 27 28  1  0
 13 29  1  0
 29 30  2  0
 30 31  1  0
  8  3  1  0
 30 10  1  0
 28 18  1  0
 27 22  1  0
  1 32  1  0
  1 33  1  0
  1 34  1  0
  4 35  1  0
  5 36  1  0
  6 37  1  0
  7 38  1  0
 11 39  1  0
 12 40  1  0
 14 41  1  0
 14 42  1  0
 23 43  1  0
 24 44  1  0
 25 45  1  0
 29 46  1  0
M  CHG  3  15  -1  28  -1  31  -1
M  END
>  <UniqueID>  (75) 
70

>  <SMILES>  (75) 
COc1ccccc1Oc1ccc(C[N-]C(=O)c2nc(=O)c3cccnc3[n-]2)cc1[O-]

>  <Energy>  (75) 
65.24189810471346

>  <Genealogy>  (75) 
COc1ccccc1Oc1ccc(C[N-]C(=O)c2nc(=O)c3cccnc3[n-]2)cc1[O-] (protonated)
COc1ccccc1Oc1ccc(C[N-]C(=O)c2nc(=O)c3cccnc3[n-]2)cc1[O-] (3D coordinates assigned)
COc1ccccc1Oc1ccc(C[N-]C(=O)c2nc(=O)c3cccnc3[n-]2)cc1[O-] (optimized conformer: 65.24189810471346 kcal/mol)

>  <smiles>  (75) 
COc1ccccc1Oc1ccc(CNC(=O)c2nc(=O)c3cccnc3[nH]2)cc1O

>  <score_type>  (75) 
oracle

>  <origin>  (75) 
adg

>  <m_score__min__energy>  (75) 
-14.81

>  <m_primary>  (75) 
energy

$$$$
75:0
     RDKit          3D

 47 49  0  0  0  0  0  0  0  0999 V2000
   59.7620   21.8650   44.5310 C   0  0  0  0  0  0  0  0  0  0  0  0
   58.3820   22.4550   44.5010 C   0  0  0  0  0  0  0  0  0  0  0  0
   58.0230   23.4590   45.4150 C   0  0  0  0  0  0  0  0  0  0  0  0
   56.7410   24.0240   45.3830 C   0  0  0  0  0  0  0  0  0  0  0  0
   56.2610   25.1970   46.6060 S   0  0  0  0  0  0  0  0  0  0  0  0
   55.1610   26.0810   46.0900 O   0  0  0  0  0  0  0  0  0  0  0  0
   55.7680   24.4760   47.8290 O   0  0  0  0  0  0  0  0  0  0  0  0
   57.6470   26.1460   47.0210 N   0  0  0  0  0  0  0  0  0  0  0  0
   58.1600   27.1210   46.1130 C   0  0  0  0  0  0  0  0  0  0  0  0
   59.5330   27.1920   45.8360 C   0  0  0  0  0  0  0  0  0  0  0  0
   60.0320   28.2130   45.0250 C   0  0  0  0  0  0  0  0  0  0  0  0
   59.1670   29.1800   44.5050 C   0  0  0  0  0  0  0  0  0  0  0  0
   57.7940   29.1140   44.7770 C   0  0  0  0  0  0  0  0  0  0  0  0
   56.7350   30.4160   44.2460 S   0  0  0  0  0  0  0  0  0  0  0  0
   55.3000   30.0510   44.5080 O   0  0  0  0  0  0  0  0  0  0  0  0
   56.9180   30.6210   42.7680 O   0  0  0  0  0  0  0  0  0  0  0  0
   57.1500   31.8790   45.1040 N   0  0  0  0  0  0  0  0  0  0  0  0
   57.7670   32.8490   44.1840 C   0  0  0  0  0  0  0  0  0  0  0  0
   57.9270   34.2170   44.8740 C   0  0  0  0  0  0  0  0  0  0  0  0
   58.0030   34.0970   46.4040 C   0  0  0  0  0  0  0  0  0  0  0  0
   58.7310   32.8170   46.8220 C   0  0  0  0  0  0  0  0  0  0  0  0
   58.0610   31.5590   46.2240 C   0  0  0  0  0  0  0  0  0  0  0  0
   57.2910   28.0700   45.5650 C   0  0  0  0  0  0  0  0  0  0  0  0
   55.8140   23.5840   44.4290 C   0  0  0  0  0  0  0  0  0  0  0  0
   56.1730   22.6030   43.5010 C   0  0  0  0  0  0  0  0  0  0  0  0
   57.4540   22.0430   43.5290 C   0  0  0  0  0  0  0  0  0  0  0  0
   57.7860   21.0990   42.6140 F   0  0  0  0  0  0  0  0  0  0  0  0
   60.0800   21.7290   45.5752 H   0  0  0  0  0  0  0  0  0  0  0  0
   59.7555   20.8910   44.0199 H   0  0  0  0  0  0  0  0  0  0  0  0
   60.4617   22.5426   44.0199 H   0  0  0  0  0  0  0  0  0  0  0  0
   58.7534   23.8044   46.1614 H   0  0  0  0  0  0  0  0  0  0  0  0
   60.2179   26.4420   46.2584 H   0  0  0  0  0  0  0  0  0  0  0  0
   61.1068   28.2565   44.7951 H   0  0  0  0  0  0  0  0  0  0  0  0
   59.5647   29.9941   43.8813 H   0  0  0  0  0  0  0  0  0  0  0  0
   58.7569   32.4794   43.8781 H   0  0  0  0  0  0  0  0  0  0  0  0
   57.1189   32.9673   43.3031 H   0  0  0  0  0  0  0  0  0  0  0  0
   58.8513   34.6898   44.5106 H   0  0  0  0  0  0  0  0  0  0  0  0
   57.0412   34.8214   44.6290 H   0  0  0  0  0  0  0  0  0  0  0  0
   58.5449   34.9658   46.8058 H   0  0  0  0  0  0  0  0  0  0  0  0
   56.9783   34.0616   46.8025 H   0  0  0  0  0  0  0  0  0  0  0  0
   59.7722   32.8678   46.4708 H   0  0  0  0  0  0  0  0  0  0  0  0
   58.6890   32.7403   47.9185 H   0  0  0  0  0  0  0  0  0  0  0  0
   58.8465   30.8820   45.8570 H   0  0  0  0  0  0  0  0  0  0  0  0
   57.4613   31.0909   47.0185 H   0  0  0  0  0  0  0  0  0  0  0  0
   56.2097   27.9967   45.7530 H   0  0  0  0  0  0  0  0  0  0  0  0
   54.8008   24.0120   44.4105 H   0  0  0  0  0  0  0  0  0  0  0  0
   55.4456   22.2702   42.7460 H   0  0  0  0  0  0  0  0  0  0  0  0
  1  2  1  0
  2  3  2  0
  3  4  1  0
  4  5  1  0
  5  6  2  0
  5  7  2  0
  5  8  1  0
  8  9  1  0
  9 10  2  0
 10 11  1  0
 11 12  2  0
 12 13  1  0
 13 14  1  0
 14 15  2  0
 14 16  2  0
 14 17  1  0
 17 18  1  0
 18 19  1  0
 19 20  1  0
 20 21  1  0
 21 22  1  0
 13 23  2  0
  4 24  2  0
 24 25  1  0
 25 26  2  0
 26 27  1  0
 26  2  1  0
 23  9  1  0
 22 17  1  0
  1 28  1  0
  1 29  1  0
  1 30  1  0
  3 31  1  0
 10 32  1  0
 11 33  1  0
 12 34  1  0
 18 35  1  0
 18 36  1  0
 19 37  1  0
 19 38  1  0
 20 39  1  0
 20 40  1  0
 21 41  1  0
 21 42  1  0
 22 43  1  0
 22 44  1  0
 23 45  1  0
 24 46  1  0
 25 47  1  0
M  CHG  1   8  -1
M  END
>  <UniqueID>  (76) 
71

>  <SMILES>  (76) 
Cc1cc(S(=O)(=O)[N-]c2cccc(S(=O)(=O)N3CCCCC3)c2)ccc1F

>  <Energy>  (76) 
55.07244441205056

>  <Genealogy>  (76) 
Cc1cc(S(=O)(=O)[N-]c2cccc(S(=O)(=O)N3CCCCC3)c2)ccc1F (protonated)
Cc1cc(S(=O)(=O)[N-]c2cccc(S(=O)(=O)N3CCCCC3)c2)ccc1F (3D coordinates assigned)
Cc1cc(S(=O)(=O)[N-]c2cccc(S(=O)(=O)N3CCCCC3)c2)ccc1F (nonaromatic ring conformer: 55.07244441205056 kcal/mol)

>  <smiles>  (76) 
Cc1cc(S(=O)(=O)Nc2cccc(S(=O)(=O)N3CCCCC3)c2)ccc1F

>  <score_type>  (76) 
oracle

>  <origin>  (76) 
adg

>  <m_score__min__energy>  (76) 
-11.970000000000001

>  <m_primary>  (76) 
energy

$$$$
76:0
     RDKit          3D

 66 69  0  0  0  0  0  0  0  0999 V2000
   57.5170   33.9150   45.1850 C   0  0  0  0  0  0  0  0  0  0  0  0
   57.3800   32.8360   46.2640 C   0  0  0  0  0  0  0  0  0  0  0  0
   58.2560   31.6200   45.9590 C   0  0  0  0  0  0  0  0  0  0  0  0
   59.5320   31.5100   46.5780 C   0  0  0  0  0  0  0  0  0  0  0  0
   60.0940   32.5630   47.4690 C   0  0  0  0  0  0  0  0  0  0  0  0
   59.8540   33.7780   47.2190 O   0  0  0  0  0  0  0  0  0  0  0  0
   60.9220   32.2030   48.6070 N   0  0  1  0  0  0  0  0  0  0  0  0
   61.1220   33.3480   49.5240 C   0  0  0  0  0  0  0  0  0  0  0  0
   59.8280   33.7810   50.2260 C   0  0  0  0  0  0  0  0  0  0  0  0
   59.0250   32.6100   50.7280 C   0  0  0  0  0  0  0  0  0  0  0  0
   57.9810   32.8390   51.6390 C   0  0  0  0  0  0  0  0  0  0  0  0
   57.2070   31.7780   52.1090 C   0  0  0  0  0  0  0  0  0  0  0  0
   57.4540   30.4740   51.6590 C   0  0  0  0  0  0  0  0  0  0  0  0
   56.6850   29.3660   52.1370 N   0  0  0  0  0  0  0  0  0  0  0  0
   55.5230   29.5010   53.4160 S   0  0  0  0  0  0  0  0  0  0  0  0
   55.2920   28.1540   54.0470 O   0  0  0  0  0  0  0  0  0  0  0  0
   56.0470   30.4370   54.4670 O   0  0  0  0  0  0  0  0  0  0  0  0
   54.0190   30.1650   52.7550 C   0  0  0  0  0  0  0  0  0  0  0  0
   53.9620   30.5370   51.4020 C   0  0  0  0  0  0  0  0  0  0  0  0
   52.7840   31.0610   50.8620 C   0  0  0  0  0  0  0  0  0  0  0  0
   51.6550   31.2250   51.6650 C   0  0  0  0  0  0  0  0  0  0  0  0
   51.6990   30.8680   53.0150 C   0  0  0  0  0  0  0  0  0  0  0  0
   52.8720   30.3320   53.5660 C   0  0  0  0  0  0  0  0  0  0  0  0
   52.8790   29.9670   54.9620 C   0  0  0  0  0  0  0  0  0  0  0  0
   52.8800   29.6760   56.0840 N   0  0  0  0  0  0  0  0  0  0  0  0
   58.4650   30.2470   50.7170 C   0  0  0  0  0  0  0  0  0  0  0  0
   59.2560   31.3070   50.2450 C   0  0  0  0  0  0  0  0  0  0  0  0
   60.4130   31.0080   49.3160 C   0  0  0  0  0  0  0  0  0  0  0  0
   60.3280   30.3900   46.3380 C   0  0  0  0  0  0  0  0  0  0  0  0
   59.9060   29.3540   45.5040 C   0  0  0  0  0  0  0  0  0  0  0  0
   60.8480   28.1940   45.2810 C   0  0  0  0  0  0  0  0  0  0  0  0
   58.6260   29.4130   44.9050 C   0  0  0  0  0  0  0  0  0  0  0  0
   58.1590   28.2670   44.0280 C   0  0  0  0  0  0  0  0  0  0  0  0
   57.8190   30.5810   45.0760 C   0  0  0  0  0  0  0  0  0  0  0  0
   56.4870   30.6910   44.3360 C   0  0  0  0  0  0  0  0  0  0  0  0
   55.5190   29.7400   44.8740 N   0  0  0  0  0  0  0  0  0  0  0  0
   57.6418   34.8978   45.6630 H   0  0  0  0  0  0  0  0  0  0  0  0
   58.3948   33.6978   44.5586 H   0  0  0  0  0  0  0  0  0  0  0  0
   56.6128   33.9241   44.5586 H   0  0  0  0  0  0  0  0  0  0  0  0
   57.6825   33.2598   47.2330 H   0  0  0  0  0  0  0  0  0  0  0  0
   56.3309   32.5064   46.2895 H   0  0  0  0  0  0  0  0  0  0  0  0
   61.8740   31.9510   48.2520 H   0  0  0  0  0  0  0  0  0  0  0  0
   61.8579   33.0608   50.2895 H   0  0  0  0  0  0  0  0  0  0  0  0
   61.4717   34.1985   48.9203 H   0  0  0  0  0  0  0  0  0  0  0  0
   60.0880   34.4228   51.0807 H   0  0  0  0  0  0  0  0  0  0  0  0
   59.2118   34.3180   49.4899 H   0  0  0  0  0  0  0  0  0  0  0  0
   57.7722   33.8623   51.9843 H   0  0  0  0  0  0  0  0  0  0  0  0
   56.4013   31.9652   52.8342 H   0  0  0  0  0  0  0  0  0  0  0  0
   54.8494   30.4153   50.7635 H   0  0  0  0  0  0  0  0  0  0  0  0
   52.7470   31.3451   49.8000 H   0  0  0  0  0  0  0  0  0  0  0  0
   50.7296   31.6357   51.2349 H   0  0  0  0  0  0  0  0  0  0  0  0
   50.8104   31.0078   53.6481 H   0  0  0  0  0  0  0  0  0  0  0  0
   58.6414   29.2277   50.3429 H   0  0  0  0  0  0  0  0  0  0  0  0
   61.2340   30.5784   49.9088 H   0  0  0  0  0  0  0  0  0  0  0  0
   60.0427   30.3099   48.5508 H   0  0  0  0  0  0  0  0  0  0  0  0
   61.3148   30.3216   46.8191 H   0  0  0  0  0  0  0  0  0  0  0  0
   61.1731   27.7937   46.2526 H   0  0  0  0  0  0  0  0  0  0  0  0
   60.3312   27.4057   44.7140 H   0  0  0  0  0  0  0  0  0  0  0  0
   61.7256   28.5381   44.7140 H   0  0  0  0  0  0  0  0  0  0  0  0
   57.8198   27.4346   44.6621 H   0  0  0  0  0  0  0  0  0  0  0  0
   57.3275   28.6066   43.3929 H   0  0  0  0  0  0  0  0  0  0  0  0
   58.9910   27.9287   43.3929 H   0  0  0  0  0  0  0  0  0  0  0  0
   56.0930   31.7116   44.4509 H   0  0  0  0  0  0  0  0  0  0  0  0
   56.6529   30.4641   43.2725 H   0  0  0  0  0  0  0  0  0  0  0  0
   55.7630   28.7860   44.5190 H   0  0  0  0  0  0  0  0  0  0  0  0
   55.6300   29.7030   45.9130 H   0  0  0  0  0  0  0  0  0  0  0  0
  1  2  1  0
  2  3  1  0
  3  4  2  0
  4  5  1  0
  5  6  2  0
  5  7  1  0
  7  8  1  0
  8  9  1  0
  9 10  1  0
 10 11  2  0
 11 12  1  0
 12 13  2  0
 13 14  1  0
 14 15  1  0
 15 16  2  0
 15 17  2  0
 15 18  1  0
 18 19  2  0
 19 20  1  0
 20 21  2  0
 21 22  1  0
 22 23  2  0
 23 24  1  0
 24 25  3  0
 13 26  1  0
 26 27  2  0
 27 28  1  0
  4 29  1  0
 29 30  2  0
 30 31  1  0
 30 32  1  0
 32 33  1  0
 32 34  2  0
 34 35  1  0
 35 36  1  0
 34  3  1  0
 28  7  1  0
 27 10  1  0
 23 18  1  0
  1 37  1  0
  1 38  1  0
  1 39  1  0
  2 40  1  0
  2 41  1  0
  7 42  1  6
  8 43  1  0
  8 44  1  0
  9 45  1  0
  9 46  1  0
 11 47  1  0
 12 48  1  0
 19 49  1  0
 20 50  1  0
 21 51  1  0
 22 52  1  0
 26 53  1  0
 28 54  1  0
 28 55  1  0
 29 56  1  0
 31 57  1  0
 31 58  1  0
 31 59  1  0
 33 60  1  0
 33 61  1  0
 33 62  1  0
 35 63  1  0
 35 64  1  0
 36 65  1  0
 36 66  1  0
M  CHG  2   7   1  14  -1
M  END
>  <UniqueID>  (77) 
72

>  <SMILES>  (77) 
CCc1c(C(=O)[N@H+]2CCc3ccc([N-]S(=O)(=O)c4ccccc4C#N)cc3C2)cc(C)c(C)c1CN

>  <Energy>  (77) 
97.55681601024197

>  <Genealogy>  (77) 
CCc1c(C(=O)[NH+]2CCc3ccc([N-]S(=O)(=O)c4ccccc4C#N)cc3C2)cc(C)c(C)c1CN (protonated)
CCc1c(C(=O)[N@H+]2CCc3ccc([N-]S(=O)(=O)c4ccccc4C#N)cc3C2)cc(C)c(C)c1CN (chirality)
CCc1c(C(=O)[N@H+]2CCc3ccc([N-]S(=O)(=O)c4ccccc4C#N)cc3C2)cc(C)c(C)c1CN (3D coordinates assigned)
CCc1c(C(=O)[N@H+]2CCc3ccc([N-]S(=O)(=O)c4ccccc4C#N)cc3C2)cc(C)c(C)c1CN (nonaromatic ring conformer: 97.55681601024197 kcal/mol)

>  <smiles>  (77) 
CCc1c(C(=O)N2CCc3ccc(NS(=O)(=O)c4ccccc4C#N)cc3C2)cc(C)c(C)c1CN

>  <score_type>  (77) 
oracle

>  <origin>  (77) 
adg

>  <m_score__min__energy>  (77) 
-11.1

>  <m_primary>  (77) 
energy

$$$$
77:0
     RDKit          3D

 36 37  0  0  0  0  0  0  0  0999 V2000
   57.8400   26.9320   47.2720 O   0  0  0  0  0  0  0  0  0  0  0  0
   57.1790   26.5590   46.2680 C   0  0  0  0  0  0  0  0  0  0  0  0
   57.7010   26.8390   44.8790 C   0  0  0  0  0  0  0  0  0  0  0  0
   58.2880   28.2600   44.7180 C   0  0  0  0  0  0  0  0  0  0  0  0
   57.5630   29.3260   45.5690 C   0  0  1  0  0  0  0  0  0  0  0  0
   58.4510   30.4650   45.8270 N   0  0  0  0  0  0  0  0  0  0  0  0
   59.5970   30.3560   46.6890 C   0  0  0  0  0  0  0  0  0  0  0  0
   59.9640   29.2190   47.0980 O   0  0  0  0  0  0  0  0  0  0  0  0
   60.3690   31.5550   47.0940 C   0  0  0  0  0  0  0  0  0  0  0  0
   59.7210   32.7620   47.4210 C   0  0  0  0  0  0  0  0  0  0  0  0
   60.4620   33.8810   47.8080 C   0  0  0  0  0  0  0  0  0  0  0  0
   61.8550   33.8100   47.8810 C   0  0  0  0  0  0  0  0  0  0  0  0
   62.5090   32.6150   47.5720 C   0  0  0  0  0  0  0  0  0  0  0  0
   61.7730   31.4920   47.1840 C   0  0  0  0  0  0  0  0  0  0  0  0
   56.3100   29.8060   44.8930 C   0  0  0  0  0  0  0  0  0  0  0  0
   56.2750   30.9410   44.3480 O   0  0  0  0  0  0  0  0  0  0  0  0
   55.1910   28.9840   44.8390 O   0  0  0  0  0  0  0  0  0  0  0  0
   55.9190   25.9050   46.4900 N   0  0  0  0  0  0  0  0  0  0  0  0
   55.2980   25.0870   45.6920 C   0  0  0  0  0  0  0  0  0  0  0  0
   53.9530   24.9700   45.6960 N   0  0  0  0  0  0  0  0  0  0  0  0
   53.5230   24.0240   44.8190 C   0  0  0  0  0  0  0  0  0  0  0  0
   54.5280   23.3700   44.1140 C   0  0  0  0  0  0  0  0  0  0  0  0
   56.0050   23.9990   44.6130 S   0  0  0  0  0  0  0  0  0  0  0  0
   58.4900   26.1078   44.6492 H   0  0  0  0  0  0  0  0  0  0  0  0
   56.8474   26.7605   44.1896 H   0  0  0  0  0  0  0  0  0  0  0  0
   59.3461   28.2357   45.0178 H   0  0  0  0  0  0  0  0  0  0  0  0
   58.1597   28.5456   43.6635 H   0  0  0  0  0  0  0  0  0  0  0  0
   57.2845   28.8564   46.5239 H   0  0  0  0  0  0  0  0  0  0  0  0
   58.2730   31.3680   45.3330 H   0  0  0  0  0  0  0  0  0  0  0  0
   58.6239   32.8239   47.3713 H   0  0  0  0  0  0  0  0  0  0  0  0
   59.9470   34.8208   48.0560 H   0  0  0  0  0  0  0  0  0  0  0  0
   62.4364   34.6941   48.1815 H   0  0  0  0  0  0  0  0  0  0  0  0
   63.6057   32.5577   47.6342 H   0  0  0  0  0  0  0  0  0  0  0  0
   62.2939   30.5525   46.9473 H   0  0  0  0  0  0  0  0  0  0  0  0
   52.4570   23.7926   44.6773 H   0  0  0  0  0  0  0  0  0  0  0  0
   54.3820   22.5803   43.3623 H   0  0  0  0  0  0  0  0  0  0  0  0
  1  2  2  0
  2  3  1  0
  3  4  1  0
  4  5  1  0
  5  6  1  0
  6  7  1  0
  7  8  2  0
  7  9  1  0
  9 10  2  0
 10 11  1  0
 11 12  2  0
 12 13  1  0
 13 14  2  0
  5 15  1  0
 15 16  2  0
 15 17  1  0
  2 18  1  0
 18 19  2  3
 19 20  1  0
 20 21  1  0
 21 22  2  0
 22 23  1  0
 14  9  1  0
 23 19  1  0
  3 24  1  0
  3 25  1  0
  4 26  1  0
  4 27  1  0
  5 28  1  1
  6 29  1  0
 10 30  1  0
 11 31  1  0
 12 32  1  0
 13 33  1  0
 14 34  1  0
 21 35  1  0
 22 36  1  0
M  CHG  2  17  -1  20  -1
M  END
>  <UniqueID>  (78) 
73

>  <SMILES>  (78) 
O=C(CC[C@@H](NC(=O)c1ccccc1)C(=O)[O-])N=c1[n-]ccs1

>  <Energy>  (78) 
73.80761818293348

>  <Genealogy>  (78) 
O=C(CCC(NC(=O)c1ccccc1)C(=O)[O-])N=c1[n-]ccs1 (protonated)
O=C(CC[C@@H](NC(=O)c1ccccc1)C(=O)[O-])N=c1[n-]ccs1 (chirality)
O=C(CC[C@@H](NC(=O)c1ccccc1)C(=O)[O-])N=c1[n-]ccs1 (3D coordinates assigned)
O=C(CC[C@@H](NC(=O)c1ccccc1)C(=O)[O-])N=c1[n-]ccs1 (optimized conformer: 73.80761818293348 kcal/mol)

>  <smiles>  (78) 
O=C(CCC(NC(=O)c1ccccc1)C(=O)O)N=c1[nH]ccs1

>  <score_type>  (78) 
oracle

>  <origin>  (78) 
adg

>  <m_score__min__energy>  (78) 
-11.17

>  <m_primary>  (78) 
energy

$$$$
78:0
     RDKit          3D

 58 60  0  0  0  0  0  0  0  0999 V2000
   56.9810   31.1610   42.8860 C   0  0  0  0  0  0  0  0  0  0  0  0
   57.6740   31.1690   44.2130 C   0  0  0  0  0  0  0  0  0  0  0  0
   58.6100   32.1130   44.5050 N   0  0  0  0  0  0  0  0  0  0  0  0
   59.1260   31.9590   45.7460 C   0  0  0  0  0  0  0  0  0  0  0  0
   60.1570   32.8110   46.2800 N   0  0  0  0  0  0  0  0  0  0  0  0
   60.0490   34.2750   46.2460 C   0  0  0  0  0  0  0  0  0  0  0  0
   60.1950   34.8470   47.6610 C   0  0  0  0  0  0  0  0  0  0  0  0
   61.3430   34.1870   48.4790 C   0  0  0  0  0  0  0  0  0  0  0  0
   60.8050   33.5070   49.7180 C   0  0  0  0  0  0  0  0  0  0  0  0
   61.5350   32.6940   50.3510 O   0  0  0  0  0  0  0  0  0  0  0  0
   59.4520   33.7390   50.1380 N   0  0  0  0  0  0  0  0  0  0  0  0
   58.9050   33.2270   51.3640 C   0  0  0  0  0  0  0  0  0  0  0  0
   59.2670   33.8190   52.5800 C   0  0  0  0  0  0  0  0  0  0  0  0
   58.7410   33.3420   53.7810 C   0  0  0  0  0  0  0  0  0  0  0  0
   57.8610   32.2580   53.7810 C   0  0  0  0  0  0  0  0  0  0  0  0
   57.5080   31.6270   52.5760 C   0  0  0  0  0  0  0  0  0  0  0  0
   56.5880   30.4670   52.5810 C   0  0  0  0  0  0  0  0  0  0  0  0
   56.9260   29.3920   52.0120 O   0  0  0  0  0  0  0  0  0  0  0  0
   55.3410   30.5810   53.2200 O   0  0  0  0  0  0  0  0  0  0  0  0
   54.1050   29.9910   52.7890 C   0  0  0  0  0  0  0  0  0  0  0  0
   53.0140   30.4600   53.7660 C   0  0  0  0  0  0  0  0  0  0  0  0
   53.7400   30.4690   51.3680 C   0  0  0  0  0  0  0  0  0  0  0  0
   54.1930   28.4540   52.8410 C   0  0  0  0  0  0  0  0  0  0  0  0
   58.0430   32.1150   51.3690 C   0  0  0  0  0  0  0  0  0  0  0  0
   62.2070   33.2190   47.6390 C   0  0  0  0  0  0  0  0  0  0  0  0
   61.3580   32.1950   46.8640 C   0  0  0  0  0  0  0  0  0  0  0  0
   58.4440   30.6300   46.5300 S   0  0  0  0  0  0  0  0  0  0  0  0
   57.4440   30.2350   45.2350 C   0  0  0  0  0  0  0  0  0  0  0  0
   56.5180   29.0840   45.2260 C   0  0  0  0  0  0  0  0  0  0  0  0
   55.1500   29.2750   44.8700 N   0  0  0  0  0  0  0  0  0  0  0  0
   56.9190   27.9320   45.5360 O   0  0  0  0  0  0  0  0  0  0  0  0
   55.8921   31.1484   43.0411 H   0  0  0  0  0  0  0  0  0  0  0  0
   57.2605   32.0624   42.3209 H   0  0  0  0  0  0  0  0  0  0  0  0
   57.2812   30.2663   42.3209 H   0  0  0  0  0  0  0  0  0  0  0  0
   60.8437   34.6837   45.6046 H   0  0  0  0  0  0  0  0  0  0  0  0
   59.0636   34.5541   45.8447 H   0  0  0  0  0  0  0  0  0  0  0  0
   60.3983   35.9252   47.5820 H   0  0  0  0  0  0  0  0  0  0  0  0
   59.2554   34.6391   48.1939 H   0  0  0  0  0  0  0  0  0  0  0  0
   62.0116   35.0027   48.7914 H   0  0  0  0  0  0  0  0  0  0  0  0
   58.7890   34.1680   49.4520 H   0  0  0  0  0  0  0  0  0  0  0  0
   59.9701   34.6649   52.5886 H   0  0  0  0  0  0  0  0  0  0  0  0
   59.0204   33.8214   54.7308 H   0  0  0  0  0  0  0  0  0  0  0  0
   57.4411   31.8954   54.7308 H   0  0  0  0  0  0  0  0  0  0  0  0
   53.3592   30.3116   54.7998 H   0  0  0  0  0  0  0  0  0  0  0  0
   52.8059   31.5271   53.5985 H   0  0  0  0  0  0  0  0  0  0  0  0
   52.0965   29.8768   53.5985 H   0  0  0  0  0  0  0  0  0  0  0  0
   53.0736   31.3417   51.4346 H   0  0  0  0  0  0  0  0  0  0  0  0
   54.6569   30.7481   50.8282 H   0  0  0  0  0  0  0  0  0  0  0  0
   53.2292   29.6580   50.8282 H   0  0  0  0  0  0  0  0  0  0  0  0
   54.2119   28.1231   53.8899 H   0  0  0  0  0  0  0  0  0  0  0  0
   53.3183   28.0193   52.3351 H   0  0  0  0  0  0  0  0  0  0  0  0
   55.1116   28.1220   52.3351 H   0  0  0  0  0  0  0  0  0  0  0  0
   57.7846   31.6221   50.4202 H   0  0  0  0  0  0  0  0  0  0  0  0
   62.7964   33.8059   46.9192 H   0  0  0  0  0  0  0  0  0  0  0  0
   62.8547   32.6614   48.3315 H   0  0  0  0  0  0  0  0  0  0  0  0
   61.9677   31.7667   46.0548 H   0  0  0  0  0  0  0  0  0  0  0  0
   61.0337   31.4160   47.5697 H   0  0  0  0  0  0  0  0  0  0  0  0
   54.4090   29.3450   45.6000 H   0  0  0  0  0  0  0  0  0  0  0  0
  1  2  1  0
  2  3  1  0
  3  4  2  0
  4  5  1  0
  5  6  1  0
  6  7  1  0
  7  8  1  0
  8  9  1  0
  9 10  2  0
  9 11  1  0
 11 12  1  0
 12 13  2  0
 13 14  1  0
 14 15  2  0
 15 16  1  0
 16 17  1  0
 17 18  2  0
 17 19  1  0
 19 20  1  0
 20 21  1  0
 20 22  1  0
 20 23  1  0
 16 24  2  0
  8 25  1  0
 25 26  1  0
  4 27  1  0
 27 28  1  0
 28 29  1  0
 29 30  1  0
 29 31  2  0
 28  2  2  0
 26  5  1  0
 24 12  1  0
  1 32  1  0
  1 33  1  0
  1 34  1  0
  6 35  1  0
  6 36  1  0
  7 37  1  0
  7 38  1  0
  8 39  1  0
 11 40  1  0
 13 41  1  0
 14 42  1  0
 15 43  1  0
 21 44  1  0
 21 45  1  0
 21 46  1  0
 22 47  1  0
 22 48  1  0
 22 49  1  0
 23 50  1  0
 23 51  1  0
 23 52  1  0
 24 53  1  0
 25 54  1  0
 25 55  1  0
 26 56  1  0
 26 57  1  0
 30 58  1  0
M  CHG  1  30  -1
M  END
>  <UniqueID>  (79) 
74

>  <SMILES>  (79) 
Cc1nc(N2CCC(C(=O)Nc3cccc(C(=O)OC(C)(C)C)c3)CC2)sc1C([NH-])=O

>  <Energy>  (79) 
90.29619813345988

>  <Genealogy>  (79) 
Cc1nc(N2CCC(C(=O)Nc3cccc(C(=O)OC(C)(C)C)c3)CC2)sc1C([NH-])=O (protonated)
Cc1nc(N2CCC(C(=O)Nc3cccc(C(=O)OC(C)(C)C)c3)CC2)sc1C([NH-])=O (3D coordinates assigned)
Cc1nc(N2CCC(C(=O)Nc3cccc(C(=O)OC(C)(C)C)c3)CC2)sc1C([NH-])=O (nonaromatic ring conformer: 90.29619813345988 kcal/mol)

>  <smiles>  (79) 
Cc1nc(N2CCC(C(=O)Nc3cccc(C(=O)OC(C)(C)C)c3)CC2)sc1C(N)=O

>  <score_type>  (79) 
oracle

>  <origin>  (79) 
adg

>  <m_score__min__energy>  (79) 
-12.24

>  <m_primary>  (79) 
energy

$$$$
79:0
     RDKit          3D

 40 43  0  0  0  0  0  0  0  0999 V2000
   55.4382   22.4727   41.6457 H   0  0  0  0  0  0  0  0  0  0  0  0
   55.9690   22.4570   42.6090 C   0  0  0  0  0  0  0  0  0  0  0  0
   56.6310   21.3370   43.0000 N   0  0  0  0  0  0  0  0  0  0  0  0
   57.2950   21.2790   44.1850 C   0  0  0  0  0  0  0  0  0  0  0  0
   57.8182   20.3564   44.4766 H   0  0  0  0  0  0  0  0  0  0  0  0
   57.3140   22.3890   45.0330 C   0  0  0  0  0  0  0  0  0  0  0  0
   57.8516   22.3442   45.9916 H   0  0  0  0  0  0  0  0  0  0  0  0
   56.6430   23.5610   44.6540 C   0  0  0  0  0  0  0  0  0  0  0  0
   56.6350   24.7460   45.5310 C   0  0  0  0  0  0  0  0  0  0  0  0
   55.5220   25.3380   46.0110 N   0  0  0  0  0  0  0  0  0  0  0  0
   55.9280   26.3740   46.7280 N   0  0  0  0  0  0  0  0  0  0  0  0
   57.2710   26.3720   46.6590 C   0  0  0  0  0  0  0  0  0  0  0  0
   58.3250   27.6050   47.4200 S   0  0  0  0  0  0  0  0  0  0  0  0
   59.1140   28.0810   45.8380 C   0  0  0  0  0  0  0  0  0  0  0  0
   59.3259   27.1726   45.2550 H   0  0  0  0  0  0  0  0  0  0  0  0
   60.0442   28.6237   46.0620 H   0  0  0  0  0  0  0  0  0  0  0  0
   58.2090   28.9920   45.0250 C   0  0  0  0  0  0  0  0  0  0  0  0
   57.7560   28.4880   43.7910 C   0  0  0  0  0  0  0  0  0  0  0  0
   58.2605   27.6198   43.3418 H   0  0  0  0  0  0  0  0  0  0  0  0
   56.6800   29.0720   43.1320 C   0  0  0  0  0  0  0  0  0  0  0  0
   56.3346   28.6713   42.1675 H   0  0  0  0  0  0  0  0  0  0  0  0
   56.0460   30.1670   43.7050 C   0  0  0  0  0  0  0  0  0  0  0  0
   55.1508   30.5962   43.2312 H   0  0  0  0  0  0  0  0  0  0  0  0
   56.5340   30.7060   44.8510 N   0  0  0  0  0  0  0  0  0  0  0  0
   57.6190   30.2080   45.5040 C   0  0  0  0  0  0  0  0  0  0  0  0
   58.0600   30.9060   46.5170 N   0  0  0  0  0  0  0  0  0  0  0  0
   58.7230   32.1750   46.5470 C   0  0  0  0  0  0  0  0  0  0  0  0
   60.1080   32.2600   46.7780 C   0  0  0  0  0  0  0  0  0  0  0  0
   60.6883   31.3467   46.9756 H   0  0  0  0  0  0  0  0  0  0  0  0
   60.7490   33.5030   46.7570 C   0  0  0  0  0  0  0  0  0  0  0  0
   61.8281   33.5685   46.9601 H   0  0  0  0  0  0  0  0  0  0  0  0
   60.0190   34.6620   46.4780 C   0  0  0  0  0  0  0  0  0  0  0  0
   60.5219   35.6403   46.4708 H   0  0  0  0  0  0  0  0  0  0  0  0
   58.6490   34.5780   46.2080 C   0  0  0  0  0  0  0  0  0  0  0  0
   58.0781   35.4895   45.9771 H   0  0  0  0  0  0  0  0  0  0  0  0
   58.0040   33.3380   46.2310 C   0  0  0  0  0  0  0  0  0  0  0  0
   56.6750   33.2670   45.9670 F   0  0  0  0  0  0  0  0  0  0  0  0
   57.7130   25.3750   45.9330 O   0  0  0  0  0  0  0  0  0  0  0  0
   55.9610   23.5890   43.4280 C   0  0  0  0  0  0  0  0  0  0  0  0
   55.4237   24.4960   43.1138 H   0  0  0  0  0  0  0  0  0  0  0  0
  1  2  1  0
  2  3  2  0
  3  4  1  0
  4  5  1  0
  4  6  2  0
  6  7  1  0
  6  8  1  0
  8  9  1  0
  9 10  2  0
 10 11  1  0
 11 12  2  0
 12 13  1  0
 13 14  1  0
 14 15  1  0
 14 16  1  0
 14 17  1  0
 17 18  2  0
 18 19  1  0
 18 20  1  0
 20 21  1  0
 20 22  2  0
 22 23  1  0
 22 24  1  0
 24 25  1  0
 25 26  2  0
 26 27  1  0
 27 28  2  0
 28 29  1  0
 28 30  1  0
 30 31  1  0
 30 32  2  0
 32 33  1  0
 32 34  1  0
 34 35  1  0
 34 36  2  0
 36 37  1  0
 12 38  1  0
  8 39  2  0
 39 40  1  0
 39  2  1  0
 38  9  1  0
 25 17  1  0
 36 27  1  0
M  CHG  1  24  -1
M  END
>  <UniqueID>  (80) 
75

>  <SMILES>  (80) 
Fc1ccccc1/N=c1/[n-]cccc1CSc1nnc(-c2ccncc2)o1

>  <Energy>  (80) 
96.7203268223161

>  <Genealogy>  (80) 
Fc1ccccc1N=c1[n-]cccc1CSc1nnc(-c2ccncc2)o1 (protonated)
Fc1ccccc1/N=c1/[n-]cccc1CSc1nnc(-c2ccncc2)o1 (cis-trans isomerization)
Fc1ccccc1/N=c1/[n-]cccc1CSc1nnc(-c2ccncc2)o1 (3D coordinates assigned)
Fc1ccccc1/N=c1/[n-]cccc1CSc1nnc(-c2ccncc2)o1 (optimized conformer: 96.7203268223161 kcal/mol)

>  <smiles>  (80) 
Fc1ccccc1N=c1[nH]cccc1CSc1nnc(-c2ccncc2)o1

>  <score_type>  (80) 
oracle

>  <origin>  (80) 
adg

>  <m_score__min__energy>  (80) 
-10.51

>  <m_primary>  (80) 
energy

$$$$
80:0
     RDKit          3D

 42 44  0  0  0  0  0  0  0  0999 V2000
   59.9610   33.5200   49.0330 H   0  0  0  0  0  0  0  0  0  0  0  0
   60.1680   34.0520   48.1990 O   0  0  0  0  0  0  0  0  0  0  0  0
   59.4940   33.8800   46.9870 C   0  0  0  0  0  0  0  0  0  0  0  0
   59.6450   34.8720   46.0140 C   0  0  0  0  0  0  0  0  0  0  0  0
   60.2444   35.7671   46.2364 H   0  0  0  0  0  0  0  0  0  0  0  0
   59.0430   34.7370   44.7650 C   0  0  0  0  0  0  0  0  0  0  0  0
   59.1692   35.5241   44.0070 H   0  0  0  0  0  0  0  0  0  0  0  0
   58.2820   33.6080   44.4740 C   0  0  0  0  0  0  0  0  0  0  0  0
   57.8077   33.5104   43.4863 H   0  0  0  0  0  0  0  0  0  0  0  0
   58.1140   32.5910   45.4310 C   0  0  0  0  0  0  0  0  0  0  0  0
   57.2350   31.4390   45.1160 C   0  0  0  0  0  0  0  0  0  0  0  0
   56.1868   31.4926   45.4454 H   0  0  0  0  0  0  0  0  0  0  0  0
   57.6250   30.3350   44.4580 C   0  0  0  0  0  0  0  0  0  0  0  0
   58.0012   30.4598   43.4319 H   0  0  0  0  0  0  0  0  0  0  0  0
   57.5860   28.9620   45.0120 C   0  0  0  0  0  0  0  0  0  0  0  0
   58.7720   28.3040   45.3860 C   0  0  0  0  0  0  0  0  0  0  0  0
   59.7431   28.7973   45.2322 H   0  0  0  0  0  0  0  0  0  0  0  0
   58.7230   27.0290   45.9510 C   0  0  0  0  0  0  0  0  0  0  0  0
   59.6545   26.5212   46.2416 H   0  0  0  0  0  0  0  0  0  0  0  0
   57.4950   26.3970   46.1480 C   0  0  0  0  0  0  0  0  0  0  0  0
   57.4631   25.3950   46.6008 H   0  0  0  0  0  0  0  0  0  0  0  0
   56.3040   27.0280   45.7740 C   0  0  0  0  0  0  0  0  0  0  0  0
   55.0660   26.3450   46.0090 N   0  0  0  0  0  0  0  0  0  0  0  0
   54.8300   24.9480   45.7840 C   0  0  0  0  0  0  0  0  0  0  0  0
   53.6840   24.4710   46.0090 O   0  0  0  0  0  0  0  0  0  0  0  0
   55.9010   24.0720   45.2390 C   0  0  0  0  0  0  0  0  0  0  0  0
   56.0220   23.9150   43.8440 C   0  0  0  0  0  0  0  0  0  0  0  0
   55.3239   24.4404   43.1757 H   0  0  0  0  0  0  0  0  0  0  0  0
   57.0180   23.1000   43.2990 C   0  0  0  0  0  0  0  0  0  0  0  0
   57.1004   22.9887   42.2077 H   0  0  0  0  0  0  0  0  0  0  0  0
   57.9070   22.4280   44.1360 C   0  0  0  0  0  0  0  0  0  0  0  0
   58.6913   21.7882   43.7053 H   0  0  0  0  0  0  0  0  0  0  0  0
   57.8020   22.5670   45.5210 C   0  0  0  0  0  0  0  0  0  0  0  0
   58.5047   22.0344   46.1787 H   0  0  0  0  0  0  0  0  0  0  0  0
   56.8080   23.3800   46.0780 C   0  0  0  0  0  0  0  0  0  0  0  0
   56.7360   23.4800   47.4630 O   0  0  0  0  0  0  0  0  0  0  0  0
   56.3470   28.3330   45.2420 C   0  0  0  0  0  0  0  0  0  0  0  0
   55.1670   29.0160   44.9620 O   0  0  0  0  0  0  0  0  0  0  0  0
   58.7030   32.7350   46.7150 C   0  0  0  0  0  0  0  0  0  0  0  0
   58.4990   31.6960   47.7490 C   0  0  0  0  0  0  0  0  0  0  0  0
   58.4930   30.4770   47.4350 O   0  0  0  0  0  0  0  0  0  0  0  0
   58.3430   32.0550   49.0830 O   0  0  0  0  0  0  0  0  0  0  0  0
  1  2  1  0
  2  3  1  0
  3  4  2  0
  4  5  1  0
  4  6  1  0
  6  7  1  0
  6  8  2  0
  8  9  1  0
  8 10  1  0
 10 11  1  0
 11 12  1  0
 11 13  2  0
 13 14  1  0
 13 15  1  0
 15 16  2  0
 16 17  1  0
 16 18  1  0
 18 19  1  0
 18 20  2  0
 20 21  1  0
 20 22  1  0
 22 23  1  0
 23 24  1  0
 24 25  2  0
 24 26  1  0
 26 27  2  0
 27 28  1  0
 27 29  1  0
 29 30  1  0
 29 31  2  0
 31 32  1  0
 31 33  1  0
 33 34  1  0
 33 35  2  0
 35 36  1  0
 22 37  2  0
 37 38  1  0
 10 39  2  0
 39 40  1  0
 40 41  2  0
 40 42  1  0
 39  3  1  0
 37 15  1  0
 35 26  1  0
M  CHG  4  23  -1  36  -1  38  -1  42  -1
M  END
>  <UniqueID>  (81) 
76

>  <SMILES>  (81) 
O=C([N-]c1cccc(/C=C\c2cccc(O)c2C(=O)[O-])c1[O-])c1ccccc1[O-]

>  <Energy>  (81) 
72.19700508793117

>  <Genealogy>  (81) 
O=C([N-]c1cccc(C=Cc2cccc(O)c2C(=O)[O-])c1[O-])c1ccccc1[O-] (protonated)
O=C([N-]c1cccc(/C=C\c2cccc(O)c2C(=O)[O-])c1[O-])c1ccccc1[O-] (cis-trans isomerization)
O=C([N-]c1cccc(/C=C\c2cccc(O)c2C(=O)[O-])c1[O-])c1ccccc1[O-] (3D coordinates assigned)
O=C([N-]c1cccc(/C=C\c2cccc(O)c2C(=O)[O-])c1[O-])c1ccccc1[O-] (optimized conformer: 72.19700508793117 kcal/mol)

>  <smiles>  (81) 
O=C(Nc1cccc(C=Cc2cccc(O)c2C(=O)O)c1O)c1ccccc1O

>  <score_type>  (81) 
oracle

>  <origin>  (81) 
adg

>  <m_score__min__energy>  (81) 
-16.98

>  <m_primary>  (81) 
energy

$$$$
81:0
     RDKit          3D

 39 40  0  0  0  0  0  0  0  0999 V2000
   64.6030   32.8200   47.4770 H   0  0  0  0  0  0  0  0  0  0  0  0
   63.7110   33.3010   47.4790 O   0  0  0  0  0  0  0  0  0  0  0  0
   62.5310   32.6510   47.1220 C   0  0  0  0  0  0  0  0  0  0  0  0
   61.4140   33.4030   46.7500 C   0  0  0  0  0  0  0  0  0  0  0  0
   61.4711   34.5015   46.7403 H   0  0  0  0  0  0  0  0  0  0  0  0
   60.2240   32.7640   46.3900 C   0  0  0  0  0  0  0  0  0  0  0  0
   59.3502   33.3627   46.0932 H   0  0  0  0  0  0  0  0  0  0  0  0
   60.1370   31.3600   46.4050 C   0  0  0  0  0  0  0  0  0  0  0  0
   58.8740   30.6840   46.0150 C   0  0  0  0  0  0  0  0  0  0  0  0
   57.7960   31.4440   45.5420 C   0  0  0  0  0  0  0  0  0  0  0  0
   57.8875   32.5380   45.4729 H   0  0  0  0  0  0  0  0  0  0  0  0
   56.6410   30.8400   45.1690 N   0  0  0  0  0  0  0  0  0  0  0  0
   56.4700   29.4970   45.2450 C   0  0  0  0  0  0  0  0  0  0  0  0
   55.2680   28.9470   44.8140 O   0  0  0  0  0  0  0  0  0  0  0  0
   57.5060   28.6780   45.7370 C   0  0  0  0  0  0  0  0  0  0  0  0
   57.3310   27.2050   45.8460 C   0  0  0  0  0  0  0  0  0  0  0  0
   56.9400   26.7160   46.9390 O   0  0  0  0  0  0  0  0  0  0  0  0
   56.4180   24.2130   44.0890 C   0  0  0  0  0  0  0  0  0  0  0  0
   56.5557   23.9694   43.0252 H   0  0  0  0  0  0  0  0  0  0  0  0
   55.2750   23.8330   44.6800 C   0  0  0  0  0  0  0  0  0  0  0  0
   54.6631   23.0756   44.1682 H   0  0  0  0  0  0  0  0  0  0  0  0
   57.6590   26.2740   44.7450 C   0  0  0  0  0  0  0  0  0  0  0  0
   58.0615   26.7097   43.8186 H   0  0  0  0  0  0  0  0  0  0  0  0
   57.5060   24.9410   44.7830 C   0  0  0  0  0  0  0  0  0  0  0  0
   58.2320   24.3537   45.3644 H   0  0  0  0  0  0  0  0  0  0  0  0
   54.7680   24.3700   45.9970 C   0  0  2  0  0  0  0  0  0  0  0  0
   53.7838   23.9239   46.2027 H   0  0  0  0  0  0  0  0  0  0  0  0
   54.6630   25.7670   45.9240 O   0  0  0  0  0  0  0  0  0  0  0  0
   55.0970   26.1300   46.7430 H   0  0  0  0  0  0  0  0  0  0  0  0
   55.7360   24.0110   47.1240 C   0  0  0  0  0  0  0  0  0  0  0  0
   55.2512   24.1908   48.0949 H   0  0  0  0  0  0  0  0  0  0  0  0
   56.0144   22.9498   47.0441 H   0  0  0  0  0  0  0  0  0  0  0  0
   56.6390   24.6340   47.0441 H   0  0  0  0  0  0  0  0  0  0  0  0
   58.7190   29.2860   46.1190 C   0  0  0  0  0  0  0  0  0  0  0  0
   59.6550   28.5810   46.5900 O   0  0  0  0  0  0  0  0  0  0  0  0
   61.2670   30.6100   46.7750 C   0  0  0  0  0  0  0  0  0  0  0  0
   61.2152   29.5112   46.7829 H   0  0  0  0  0  0  0  0  0  0  0  0
   62.4560   31.2520   47.1330 C   0  0  0  0  0  0  0  0  0  0  0  0
   63.3346   30.6575   47.4240 H   0  0  0  0  0  0  0  0  0  0  0  0
  1  2  1  0
  2  3  1  0
  3  4  2  0
  4  5  1  0
  4  6  1  0
  6  7  1  0
  6  8  2  0
  8  9  1  0
  9 10  2  0
 10 11  1  0
 10 12  1  0
 12 13  1  0
 13 14  1  0
 13 15  2  0
 15 16  1  0
 16 17  2  0
 16 18  1  0
 18 19  1  0
 18 20  2  0
 20 21  1  0
 20 22  1  0
 22 23  1  0
 22 24  2  0
 24 25  1  0
 24 26  1  0
 26 27  1  6
 26 28  1  0
 28 29  1  0
 26 30  1  0
 30 31  1  0
 30 32  1  0
 30 33  1  0
 15 34  1  0
 34 35  2  0
  8 36  1  0
 36 37  1  0
 36 38  2  0
 38 39  1  0
 38  3  1  0
 34  9  1  0
M  CHG  2  12  -1  14  -1
M  END
>  <UniqueID>  (82) 
77

>  <SMILES>  (82) 
C[C@@H](O)/C=C\C=C/C(=O)c1c([O-])[n-]cc(-c2ccc(O)cc2)c1=O

>  <Energy>  (82) 
54.51265352444629

>  <Genealogy>  (82) 
CC(O)C=CC=CC(=O)c1c([O-])[n-]cc(-c2ccc(O)cc2)c1=O (protonated)
C[C@@H](O)C=CC=CC(=O)c1c([O-])[n-]cc(-c2ccc(O)cc2)c1=O (chirality)
C[C@@H](O)/C=C\C=C/C(=O)c1c([O-])[n-]cc(-c2ccc(O)cc2)c1=O (cis-trans isomerization)
C[C@@H](O)/C=C\C=C/C(=O)c1c([O-])[n-]cc(-c2ccc(O)cc2)c1=O (3D coordinates assigned)
C[C@@H](O)/C=C\C=C/C(=O)c1c([O-])[n-]cc(-c2ccc(O)cc2)c1=O (optimized conformer: 54.51265352444629 kcal/mol)

>  <smiles>  (82) 
CC(O)C=CC=CC(=O)c1c(O)[nH]cc(-c2ccc(O)cc2)c1=O

>  <score_type>  (82) 
oracle

>  <origin>  (82) 
adg

>  <m_score__min__energy>  (82) 
-11.94

>  <m_primary>  (82) 
energy

$$$$
82:0
     RDKit          3D

 56 59  0  0  0  0  0  0  0  0999 V2000
   60.7970   30.5430   51.7150 O   0  0  0  0  0  0  0  0  0  0  0  0
   61.2450   31.0210   50.6390 C   0  0  0  0  0  0  0  0  0  0  0  0
   61.5190   32.4880   50.5310 C   0  0  0  0  0  0  0  0  0  0  0  0
   61.6810   32.8660   49.1240 N   0  0  0  0  0  0  0  0  0  0  0  0
   60.5420   33.2530   48.3390 C   0  0  0  0  0  0  0  0  0  0  0  0
   59.2810   32.6920   48.5980 C   0  0  0  0  0  0  0  0  0  0  0  0
   58.1790   33.0460   47.8140 C   0  0  0  0  0  0  0  0  0  0  0  0
   58.3310   33.9480   46.7580 C   0  0  0  0  0  0  0  0  0  0  0  0
   59.5870   34.4980   46.4830 C   0  0  0  0  0  0  0  0  0  0  0  0
   59.7360   35.3660   45.4530 F   0  0  0  0  0  0  0  0  0  0  0  0
   60.6890   34.1540   47.2730 C   0  0  0  0  0  0  0  0  0  0  0  0
   63.2510   32.7560   48.3890 S   0  0  0  0  0  0  0  0  0  0  0  0
   63.2470   31.6590   47.3630 O   0  0  0  0  0  0  0  0  0  0  0  0
   63.6000   34.0510   47.7090 O   0  0  0  0  0  0  0  0  0  0  0  0
   64.4510   32.4370   49.6360 C   0  0  0  0  0  0  0  0  0  0  0  0
   64.4290   31.2370   50.3620 C   0  0  0  0  0  0  0  0  0  0  0  0
   65.3740   31.0090   51.3680 C   0  0  0  0  0  0  0  0  0  0  0  0
   66.3410   31.9760   51.6540 C   0  0  0  0  0  0  0  0  0  0  0  0
   66.3630   33.1760   50.9350 C   0  0  0  0  0  0  0  0  0  0  0  0
   65.4180   33.4090   49.9320 C   0  0  0  0  0  0  0  0  0  0  0  0
   61.5090   30.1740   49.5150 N   0  0  0  0  0  0  0  0  0  0  0  0
   60.5750   29.8260   48.4850 C   0  0  0  0  0  0  0  0  0  0  0  0
   60.8220   30.1070   47.1290 C   0  0  0  0  0  0  0  0  0  0  0  0
   59.9050   29.7180   46.1490 C   0  0  0  0  0  0  0  0  0  0  0  0
   58.7260   29.0410   46.5110 C   0  0  0  0  0  0  0  0  0  0  0  0
   57.7710   28.5950   45.5370 N   0  0  0  0  0  0  0  0  0  0  0  0
   56.7340   29.3790   44.9300 C   0  0  0  0  0  0  0  0  0  0  0  0
   55.5230   29.0810   45.1160 O   0  0  0  0  0  0  0  0  0  0  0  0
   57.0900   30.5010   44.0300 C   0  0  0  0  0  0  0  0  0  0  0  0
   56.7310   30.4660   42.6680 C   0  0  0  0  0  0  0  0  0  0  0  0
   57.0760   31.5230   41.8180 C   0  0  0  0  0  0  0  0  0  0  0  0
   57.7740   32.6260   42.3170 C   0  0  0  0  0  0  0  0  0  0  0  0
   58.1300   32.6750   43.6660 C   0  0  0  0  0  0  0  0  0  0  0  0
   57.7880   31.6220   44.5220 C   0  0  0  0  0  0  0  0  0  0  0  0
   58.5060   28.7230   47.8570 C   0  0  0  0  0  0  0  0  0  0  0  0
   59.4230   29.1120   48.8370 C   0  0  0  0  0  0  0  0  0  0  0  0
   60.6774   33.0485   50.9641 H   0  0  0  0  0  0  0  0  0  0  0  0
   62.4446   32.7234   51.0768 H   0  0  0  0  0  0  0  0  0  0  0  0
   59.1599   31.9717   49.4205 H   0  0  0  0  0  0  0  0  0  0  0  0
   57.1906   32.6137   48.0289 H   0  0  0  0  0  0  0  0  0  0  0  0
   57.4625   34.2257   46.1427 H   0  0  0  0  0  0  0  0  0  0  0  0
   61.6750   34.5916   47.0578 H   0  0  0  0  0  0  0  0  0  0  0  0
   63.6679   30.4744   50.1401 H   0  0  0  0  0  0  0  0  0  0  0  0
   65.3557   30.0665   51.9350 H   0  0  0  0  0  0  0  0  0  0  0  0
   67.0846   31.7940   52.4439 H   0  0  0  0  0  0  0  0  0  0  0  0
   67.1249   33.9370   51.1594 H   0  0  0  0  0  0  0  0  0  0  0  0
   65.4326   34.3566   49.3736 H   0  0  0  0  0  0  0  0  0  0  0  0
   61.7418   30.6357   46.8386 H   0  0  0  0  0  0  0  0  0  0  0  0
   60.1056   29.9419   45.0909 H   0  0  0  0  0  0  0  0  0  0  0  0
   56.1765   29.6031   42.2705 H   0  0  0  0  0  0  0  0  0  0  0  0
   56.7971   31.4854   40.7546 H   0  0  0  0  0  0  0  0  0  0  0  0
   58.0430   33.4557   41.6468 H   0  0  0  0  0  0  0  0  0  0  0  0
   58.6806   33.5433   44.0570 H   0  0  0  0  0  0  0  0  0  0  0  0
   58.0657   31.6696   45.5853 H   0  0  0  0  0  0  0  0  0  0  0  0
   57.6043   28.1626   48.1450 H   0  0  0  0  0  0  0  0  0  0  0  0
   59.2389   28.8559   49.8908 H   0  0  0  0  0  0  0  0  0  0  0  0
  1  2  2  0
  2  3  1  0
  3  4  1  0
  4  5  1  0
  5  6  2  0
  6  7  1  0
  7  8  2  0
  8  9  1  0
  9 10  1  0
  9 11  2  0
  4 12  1  0
 12 13  2  0
 12 14  2  0
 12 15  1  0
 15 16  2  0
 16 17  1  0
 17 18  2  0
 18 19  1  0
 19 20  2  0
  2 21  1  0
 21 22  1  0
 22 23  2  0
 23 24  1  0
 24 25  2  0
 25 26  1  0
 26 27  1  0
 27 28  2  0
 27 29  1  0
 29 30  2  0
 30 31  1  0
 31 32  2  0
 32 33  1  0
 33 34  2  0
 25 35  1  0
 35 36  2  0
 11  5  1  0
 20 15  1  0
 36 22  1  0
 34 29  1  0
  3 37  1  0
  3 38  1  0
  6 39  1  0
  7 40  1  0
  8 41  1  0
 11 42  1  0
 16 43  1  0
 17 44  1  0
 18 45  1  0
 19 46  1  0
 20 47  1  0
 23 48  1  0
 24 49  1  0
 30 50  1  0
 31 51  1  0
 32 52  1  0
 33 53  1  0
 34 54  1  0
 35 55  1  0
 36 56  1  0
M  CHG  2  21  -1  26  -1
M  END
>  <UniqueID>  (83) 
78

>  <SMILES>  (83) 
O=C(CN(c1cccc(F)c1)S(=O)(=O)c1ccccc1)[N-]c1ccc([N-]C(=O)c2ccccc2)cc1

>  <Energy>  (83) 
71.87592819986385

>  <Genealogy>  (83) 
O=C(CN(c1cccc(F)c1)S(=O)(=O)c1ccccc1)[N-]c1ccc([N-]C(=O)c2ccccc2)cc1 (protonated)
O=C(CN(c1cccc(F)c1)S(=O)(=O)c1ccccc1)[N-]c1ccc([N-]C(=O)c2ccccc2)cc1 (3D coordinates assigned)
O=C(CN(c1cccc(F)c1)S(=O)(=O)c1ccccc1)[N-]c1ccc([N-]C(=O)c2ccccc2)cc1 (optimized conformer: 71.87592819986385 kcal/mol)

>  <smiles>  (83) 
O=C(CN(c1cccc(F)c1)S(=O)(=O)c1ccccc1)Nc1ccc(NC(=O)c2ccccc2)cc1

>  <score_type>  (83) 
oracle

>  <origin>  (83) 
adg

>  <m_score__min__energy>  (83) 
-12.119999999999999

>  <m_primary>  (83) 
energy

$$$$
83:0
     RDKit          3D

 56 59  0  0  0  0  0  0  0  0999 V2000
   62.0920   33.3110   46.3830 O   0  0  0  0  0  0  0  0  0  0  0  0
   61.4640   34.1190   47.1170 C   0  0  0  0  0  0  0  0  0  0  0  0
   60.3320   34.9120   46.5240 C   0  0  0  0  0  0  0  0  0  0  0  0
   59.2550   33.9880   46.0230 C   0  0  0  0  0  0  0  0  0  0  0  0
   58.8090   34.0760   44.6940 C   0  0  0  0  0  0  0  0  0  0  0  0
   57.8340   33.1970   44.2180 C   0  0  0  0  0  0  0  0  0  0  0  0
   57.2850   32.2180   45.0580 C   0  0  0  0  0  0  0  0  0  0  0  0
   56.3040   31.3220   44.5110 N   0  0  0  0  0  0  0  0  0  0  0  0
   56.2450   29.8970   44.6570 C   0  0  0  0  0  0  0  0  0  0  0  0
   55.1470   29.3170   44.8750 O   0  0  0  0  0  0  0  0  0  0  0  0
   57.4610   29.1460   44.5550 N   0  0  0  0  0  0  0  0  0  0  0  0
   58.4140   28.8940   45.6000 C   0  0  0  0  0  0  0  0  0  0  0  0
   59.6780   29.4940   45.5080 C   0  0  0  0  0  0  0  0  0  0  0  0
   60.6420   29.2680   46.4960 C   0  0  0  0  0  0  0  0  0  0  0  0
   60.3540   28.4310   47.5780 C   0  0  0  0  0  0  0  0  0  0  0  0
   59.1050   27.8080   47.6660 C   0  0  0  0  0  0  0  0  0  0  0  0
   58.1380   28.0300   46.6800 C   0  0  0  0  0  0  0  0  0  0  0  0
   57.7550   32.1060   46.3800 C   0  0  0  0  0  0  0  0  0  0  0  0
   58.7270   32.9910   46.8600 C   0  0  0  0  0  0  0  0  0  0  0  0
   61.8140   34.2050   48.5060 N   0  0  0  0  0  0  0  0  0  0  0  0
   62.5130   33.1900   49.2330 C   0  0  0  0  0  0  0  0  0  0  0  0
   63.7280   33.5210   49.8470 C   0  0  0  0  0  0  0  0  0  0  0  0
   64.4530   32.5530   50.5490 C   0  0  0  0  0  0  0  0  0  0  0  0
   63.9590   31.2520   50.6550 C   0  0  0  0  0  0  0  0  0  0  0  0
   62.7340   30.9160   50.0710 C   0  0  0  0  0  0  0  0  0  0  0  0
   61.9920   31.8790   49.3610 C   0  0  0  0  0  0  0  0  0  0  0  0
   60.6330   31.5060   48.8070 C   0  0  0  0  0  0  0  0  0  0  0  0
   59.5870   31.5180   49.8950 C   0  0  0  0  0  0  0  0  0  0  0  0
   59.0640   30.3040   50.3760 C   0  0  0  0  0  0  0  0  0  0  0  0
   58.0780   30.3020   51.3670 C   0  0  0  0  0  0  0  0  0  0  0  0
   57.6050   31.5060   51.8870 C   0  0  0  0  0  0  0  0  0  0  0  0
   58.1160   32.7180   51.4200 C   0  0  0  0  0  0  0  0  0  0  0  0
   59.1060   32.7330   50.4260 C   0  0  0  0  0  0  0  0  0  0  0  0
   59.6100   33.9500   49.9690 O   0  0  0  0  0  0  0  0  0  0  0  0
   59.9116   35.5761   47.2936 H   0  0  0  0  0  0  0  0  0  0  0  0
   60.7141   35.5071   45.6815 H   0  0  0  0  0  0  0  0  0  0  0  0
   59.2298   34.8410   44.0250 H   0  0  0  0  0  0  0  0  0  0  0  0
   57.4937   33.2734   43.1748 H   0  0  0  0  0  0  0  0  0  0  0  0
   59.9128   30.1462   44.6539 H   0  0  0  0  0  0  0  0  0  0  0  0
   61.6282   29.7496   46.4215 H   0  0  0  0  0  0  0  0  0  0  0  0
   61.1093   28.2625   48.3597 H   0  0  0  0  0  0  0  0  0  0  0  0
   58.8825   27.1418   48.5126 H   0  0  0  0  0  0  0  0  0  0  0  0
   57.1606   27.5298   46.7471 H   0  0  0  0  0  0  0  0  0  0  0  0
   57.3568   31.3199   47.0383 H   0  0  0  0  0  0  0  0  0  0  0  0
   59.0795   32.9055   47.8985 H   0  0  0  0  0  0  0  0  0  0  0  0
   64.1140   34.5486   49.7764 H   0  0  0  0  0  0  0  0  0  0  0  0
   65.4126   32.8169   51.0176 H   0  0  0  0  0  0  0  0  0  0  0  0
   64.5349   30.4891   51.1994 H   0  0  0  0  0  0  0  0  0  0  0  0
   62.3468   29.8909   50.1670 H   0  0  0  0  0  0  0  0  0  0  0  0
   60.3507   32.2293   48.0278 H   0  0  0  0  0  0  0  0  0  0  0  0
   60.6911   30.4914   48.3860 H   0  0  0  0  0  0  0  0  0  0  0  0
   59.4330   29.3506   49.9700 H   0  0  0  0  0  0  0  0  0  0  0  0
   57.6744   29.3481   51.7374 H   0  0  0  0  0  0  0  0  0  0  0  0
   56.8284   31.5008   52.6660 H   0  0  0  0  0  0  0  0  0  0  0  0
   57.7408   33.6659   51.8332 H   0  0  0  0  0  0  0  0  0  0  0  0
   60.4290   33.9960   49.3740 H   0  0  0  0  0  0  0  0  0  0  0  0
  1  2  2  0
  2  3  1  0
  3  4  1  0
  4  5  2  0
  5  6  1  0
  6  7  2  0
  7  8  1  0
  8  9  1  0
  9 10  2  0
  9 11  1  0
 11 12  1  0
 12 13  2  0
 13 14  1  0
 14 15  2  0
 15 16  1  0
 16 17  2  0
  7 18  1  0
 18 19  2  0
  2 20  1  0
 20 21  1  0
 21 22  2  0
 22 23  1  0
 23 24  2  0
 24 25  1  0
 25 26  2  0
 26 27  1  0
 27 28  1  0
 28 29  2  0
 29 30  1  0
 30 31  2  0
 31 32  1  0
 32 33  2  0
 33 34  1  0
 19  4  1  0
 26 21  1  0
 33 28  1  0
 17 12  1  0
  3 35  1  0
  3 36  1  0
  5 37  1  0
  6 38  1  0
 13 39  1  0
 14 40  1  0
 15 41  1  0
 16 42  1  0
 17 43  1  0
 18 44  1  0
 19 45  1  0
 22 46  1  0
 23 47  1  0
 24 48  1  0
 25 49  1  0
 27 50  1  0
 27 51  1  0
 29 52  1  0
 30 53  1  0
 31 54  1  0
 32 55  1  0
 34 56  1  0
M  CHG  3   8  -1  11  -1  20  -1
M  END
>  <UniqueID>  (84) 
79

>  <SMILES>  (84) 
O=C(Cc1ccc([N-]C(=O)[N-]c2ccccc2)cc1)[N-]c1ccccc1Cc1ccccc1O

>  <Energy>  (84) 
72.72700608563416

>  <Genealogy>  (84) 
O=C(Cc1ccc([N-]C(=O)[N-]c2ccccc2)cc1)[N-]c1ccccc1Cc1ccccc1O (protonated)
O=C(Cc1ccc([N-]C(=O)[N-]c2ccccc2)cc1)[N-]c1ccccc1Cc1ccccc1O (3D coordinates assigned)
O=C(Cc1ccc([N-]C(=O)[N-]c2ccccc2)cc1)[N-]c1ccccc1Cc1ccccc1O (optimized conformer: 72.72700608563416 kcal/mol)

>  <smiles>  (84) 
O=C(Cc1ccc(NC(=O)Nc2ccccc2)cc1)Nc1ccccc1Cc1ccccc1O

>  <score_type>  (84) 
oracle

>  <origin>  (84) 
adg

>  <m_score__min__energy>  (84) 
-13.49

>  <m_primary>  (84) 
energy

$$$$
84:0
     RDKit          3D

 28 30  0  0  0  0  0  0  0  0999 V2000
   56.6630   31.0110   41.4130 H   0  0  0  0  0  0  0  0  0  0  0  0
   57.0760   31.8800   41.1720 O   0  0  0  0  0  0  0  0  0  0  0  0
   57.7770   32.3190   42.3040 C   0  0  0  0  0  0  0  0  0  0  0  0
   57.5482   33.3799   42.4832 H   0  0  0  0  0  0  0  0  0  0  0  0
   58.8552   32.1894   42.1287 H   0  0  0  0  0  0  0  0  0  0  0  0
   57.3800   31.5180   43.5070 C   0  0  0  0  0  0  0  0  0  0  0  0
   56.7750   30.3200   43.4100 N   0  0  0  0  0  0  0  0  0  0  0  0
   56.6210   29.9330   44.6940 C   0  0  0  0  0  0  0  0  0  0  0  0
   56.0660   28.8110   45.0530 N   0  0  0  0  0  0  0  0  0  0  0  0
   56.6850   27.7630   45.8160 C   0  0  0  0  0  0  0  0  0  0  0  0
   57.7360   27.9760   46.4810 O   0  0  0  0  0  0  0  0  0  0  0  0
   56.0810   26.4260   45.8190 C   0  0  0  0  0  0  0  0  0  0  0  0
   54.7660   26.1950   45.9840 N   0  0  0  0  0  0  0  0  0  0  0  0
   54.6810   24.8520   45.9160 C   0  0  0  0  0  0  0  0  0  0  0  0
   53.5900   24.2340   46.0270 O   0  0  0  0  0  0  0  0  0  0  0  0
   55.8580   24.2220   45.7190 N   0  0  0  0  0  0  0  0  0  0  0  0
   56.7460   25.2300   45.6570 C   0  0  0  0  0  0  0  0  0  0  0  0
   57.8292   25.1178   45.5019 H   0  0  0  0  0  0  0  0  0  0  0  0
   57.1000   30.8110   45.5960 N   0  0  0  0  0  0  0  0  0  0  0  0
   57.5860   31.8180   44.8470 C   0  0  0  0  0  0  0  0  0  0  0  0
   58.2270   33.0100   45.4430 C   0  0  0  0  0  0  0  0  0  0  0  0
   58.2670   33.4450   47.0700 S   0  0  0  0  0  0  0  0  0  0  0  0
   59.1500   34.8610   46.8750 C   0  0  0  0  0  0  0  0  0  0  0  0
   59.4554   35.5474   47.6785 H   0  0  0  0  0  0  0  0  0  0  0  0
   59.4270   35.0140   45.5240 C   0  0  0  0  0  0  0  0  0  0  0  0
   59.9954   35.8640   45.1184 H   0  0  0  0  0  0  0  0  0  0  0  0
   58.9140   33.9830   44.7250 C   0  0  0  0  0  0  0  0  0  0  0  0
   59.0426   33.9469   43.6331 H   0  0  0  0  0  0  0  0  0  0  0  0
  1  2  1  0
  2  3  1  0
  3  4  1  0
  3  5  1  0
  3  6  1  0
  6  7  1  0
  7  8  1  0
  8  9  2  0
  9 10  1  0
 10 11  2  0
 10 12  1  0
 12 13  1  0
 13 14  1  0
 14 15  2  0
 14 16  1  0
 16 17  1  0
 17 18  1  0
  8 19  1  0
 19 20  1  0
 20 21  1  0
 21 22  1  0
 22 23  1  0
 23 24  1  0
 23 25  2  0
 25 26  1  0
 25 27  1  0
 27 28  1  0
 20  6  2  0
 27 21  2  0
 17 12  2  0
M  CHG  4   7  -1  13  -1  16  -1  19  -1
M  END
>  <UniqueID>  (85) 
80

>  <SMILES>  (85) 
O=C(/N=c1\[n-]c(CO)c(-c2cccs2)[n-]1)c1c[n-]c(=O)[n-]1

>  <Energy>  (85) 
113.99344262056205

>  <Genealogy>  (85) 
O=C(N=c1[n-]c(CO)c(-c2cccs2)[n-]1)c1c[n-]c(=O)[n-]1 (protonated)
O=C(/N=c1\[n-]c(CO)c(-c2cccs2)[n-]1)c1c[n-]c(=O)[n-]1 (cis-trans isomerization)
O=C(/N=c1\[n-]c(CO)c(-c2cccs2)[n-]1)c1c[n-]c(=O)[n-]1 (3D coordinates assigned)
O=C(/N=c1\[n-]c(CO)c(-c2cccs2)[n-]1)c1c[n-]c(=O)[n-]1 (optimized conformer: 113.99344262056205 kcal/mol)

>  <smiles>  (85) 
O=C(N=c1[nH]c(CO)c(-c2cccs2)[nH]1)c1c[nH]c(=O)[nH]1

>  <score_type>  (85) 
oracle

>  <origin>  (85) 
adg

>  <m_score__min__energy>  (85) 
-13.42

>  <m_primary>  (85) 
energy

$$$$
85:0
     RDKit          3D

 42 46  0  0  0  0  0  0  0  0999 V2000
   55.8573   27.9341   44.3959 H   0  0  0  0  0  0  0  0  0  0  0  0
   56.4830   28.6880   44.8960 C   0  0  0  0  0  0  0  0  0  0  0  0
   56.3390   29.9760   44.7970 N   0  0  0  0  0  0  0  0  0  0  0  0
   57.2950   30.5790   45.6290 N   0  0  0  0  0  0  0  0  0  0  0  0
   58.0550   31.6790   45.3930 C   0  0  0  0  0  0  0  0  0  0  0  0
   57.6650   32.8290   44.9060 N   0  0  0  0  0  0  0  0  0  0  0  0
   57.8590   34.2540   45.2290 C   0  0  0  0  0  0  0  0  0  0  0  0
   56.9207   34.5567   44.7412 H   0  0  0  0  0  0  0  0  0  0  0  0
   58.5450   34.5420   46.5480 C   0  0  0  0  0  0  0  0  0  0  0  0
   58.2029   35.3780   47.1758 H   0  0  0  0  0  0  0  0  0  0  0  0
   58.7730   33.9580   47.4519 H   0  0  0  0  0  0  0  0  0  0  0  0
   59.2660   34.8210   45.2250 C   0  0  0  0  0  0  0  0  0  0  0  0
   59.4418   35.8574   44.9009 H   0  0  0  0  0  0  0  0  0  0  0  0
   60.2270   34.5212   44.7816 H   0  0  0  0  0  0  0  0  0  0  0  0
   59.3360   31.4850   45.7940 N   0  0  0  0  0  0  0  0  0  0  0  0
   59.3070   30.2120   46.2550 C   0  0  0  0  0  0  0  0  0  0  0  0
   60.3580   29.5450   46.6290 N   0  0  0  0  0  0  0  0  0  0  0  0
   61.0880   29.7920   47.8700 C   0  0  0  0  0  0  0  0  0  0  0  0
   61.4701   28.8376   48.2613 H   0  0  0  0  0  0  0  0  0  0  0  0
   61.9225   30.4776   47.6615 H   0  0  0  0  0  0  0  0  0  0  0  0
   60.1850   30.4220   48.8960 C   0  0  0  0  0  0  0  0  0  0  0  0
   60.1660   31.8160   49.0730 C   0  0  0  0  0  0  0  0  0  0  0  0
   60.8308   32.4535   48.4716 H   0  0  0  0  0  0  0  0  0  0  0  0
   59.3060   32.3960   50.0100 C   0  0  0  0  0  0  0  0  0  0  0  0
   59.2955   33.4877   50.1441 H   0  0  0  0  0  0  0  0  0  0  0  0
   58.4580   31.5890   50.7780 C   0  0  0  0  0  0  0  0  0  0  0  0
   57.3800   32.3190   51.9540 Cl  0  0  0  0  0  0  0  0  0  0  0  0
   58.4700   30.2010   50.6050 C   0  0  0  0  0  0  0  0  0  0  0  0
   57.8040   29.5663   51.2081 H   0  0  0  0  0  0  0  0  0  0  0  0
   59.3270   29.6200   49.6670 C   0  0  0  0  0  0  0  0  0  0  0  0
   59.3300   28.5284   49.5314 H   0  0  0  0  0  0  0  0  0  0  0  0
   58.0720   29.6860   46.1860 N   0  0  0  0  0  0  0  0  0  0  0  0
   57.6180   28.4030   45.7850 C   0  0  0  0  0  0  0  0  0  0  0  0
   58.2030   27.2340   46.0760 C   0  0  0  0  0  0  0  0  0  0  0  0
   59.2979   27.1666   45.9942 H   0  0  0  0  0  0  0  0  0  0  0  0
   57.4630   26.0350   46.4990 C   0  0  0  0  0  0  0  0  0  0  0  0
   58.0460   24.9850   47.1040 N   0  0  0  0  0  0  0  0  0  0  0  0
   57.0100   24.1640   47.3780 C   0  0  0  0  0  0  0  0  0  0  0  0
   57.1590   23.0500   47.9440 O   0  0  0  0  0  0  0  0  0  0  0  0
   55.8000   24.6360   47.0100 N   0  0  0  0  0  0  0  0  0  0  0  0
   56.1010   25.8250   46.4650 C   0  0  0  0  0  0  0  0  0  0  0  0
   55.1450   26.7190   45.9980 O   0  0  0  0  0  0  0  0  0  0  0  0
  1  2  1  0
  2  3  2  0
  3  4  1  0
  4  5  1  0
  5  6  2  0
  6  7  1  0
  7  8  1  0
  7  9  1  0
  9 10  1  0
  9 11  1  0
  9 12  1  0
 12 13  1  0
 12 14  1  0
  5 15  1  0
 15 16  1  0
 16 17  2  3
 17 18  1  0
 18 19  1  0
 18 20  1  0
 18 21  1  0
 21 22  2  0
 22 23  1  0
 22 24  1  0
 24 25  1  0
 24 26  2  0
 26 27  1  0
 26 28  1  0
 28 29  1  0
 28 30  2  0
 30 31  1  0
 16 32  1  0
 32 33  1  0
 33 34  2  0
 34 35  1  0
 34 36  1  0
 36 37  1  0
 37 38  1  0
 38 39  2  0
 38 40  1  0
 40 41  1  0
 41 42  1  0
 33  2  1  0
 41 36  2  0
 32  4  1  0
 12  7  1  0
 30 21  1  0
M  CHG  4  15  -1  37  -1  40  -1  42  -1
M  END
>  <UniqueID>  (86) 
81

>  <SMILES>  (86) 
O=c1[n-]c([O-])c(/C=C2\C=Nn3/c(=N\C4CC4)[n-]c(=NCc4ccc(Cl)cc4)n32)[n-]1

>  <Energy>  (86) 
456.83464151699707

>  <Genealogy>  (86) 
O=c1[n-]c([O-])c(C=C2C=Nn3c(=NC4CC4)[n-]c(=NCc4ccc(Cl)cc4)n32)[n-]1 (protonated)
O=c1[n-]c([O-])c(/C=C2\C=Nn3/c(=N\C4CC4)[n-]c(=NCc4ccc(Cl)cc4)n32)[n-]1 (cis-trans isomerization)
O=c1[n-]c([O-])c(/C=C2\C=Nn3/c(=N\C4CC4)[n-]c(=NCc4ccc(Cl)cc4)n32)[n-]1 (3D coordinates assigned)
O=c1[n-]c([O-])c(/C=C2\C=Nn3/c(=N\C4CC4)[n-]c(=NCc4ccc(Cl)cc4)n32)[n-]1 (nonaromatic ring conformer: 456.83464151699707 kcal/mol)

>  <smiles>  (86) 
O=c1[nH]c(O)c(C=C2C=Nn3c(=NC4CC4)[nH]c(=NCc4ccc(Cl)cc4)n32)[nH]1

>  <score_type>  (86) 
oracle

>  <origin>  (86) 
adg

>  <m_score__min__energy>  (86) 
-17.140000000000001

>  <m_primary>  (86) 
energy

$$$$
86:0
     RDKit          3D

 42 44  0  0  1  0  0  0  0  0999 V2000
   59.7020   34.3850   49.1990 C   0  0  0  0  0  0  0  0  0  0  0  0
   59.3730   34.0540   47.7620 C   0  0  0  0  0  0  0  0  0  0  0  0
   59.7010   34.9060   46.9200 O   0  0  0  0  0  0  0  0  0  0  0  0
   58.7320   32.8250   47.4780 N   0  0  0  0  0  0  0  0  0  0  0  0
   58.3650   32.3750   46.1920 C   0  0  0  0  0  0  0  0  0  0  0  0
   58.0950   33.1620   45.1080 C   0  0  0  0  0  0  0  0  0  0  0  0
   57.7290   32.6700   43.8650 C   0  0  0  0  0  0  0  0  0  0  0  0
   57.6260   31.3230   43.6860 C   0  0  0  0  0  0  0  0  0  0  0  0
   57.8950   30.5100   44.7680 C   0  0  0  0  0  0  0  0  0  0  0  0
   57.7880   29.0620   44.6410 C   0  0  0  0  0  0  0  0  0  0  0  0
   57.3830   28.2040   45.6760 C   0  0  0  0  0  0  0  0  0  0  0  0
   57.4280   26.9170   45.1660 C   0  0  0  0  0  0  0  0  0  0  0  0
   57.0900   25.6910   45.9340 C   0  0  0  0  0  0  0  0  0  0  0  0
   55.9010   25.6680   46.3700 O   0  0  0  0  0  0  0  0  0  0  0  0
   58.0270   24.6560   46.1410 N   0  0  0  0  0  0  0  0  0  0  0  0
   58.0350   23.5420   45.5570 C   0  0  0  0  0  0  0  0  0  0  0  0
   58.6500   22.4710   45.9950 O   0  0  0  0  0  0  0  0  0  0  0  0
   58.4760   21.4850   45.1840 N   0  0  0  0  0  0  0  0  0  0  0  0
   57.7290   21.8830   44.1660 C   0  0  0  0  0  0  0  0  0  0  0  0
   57.2770   21.0900   42.9960 C   0  0  0  0  0  0  0  0  0  0  0  0
   57.4190   23.2380   44.3800 C   0  0  0  0  0  0  0  0  0  0  0  0
   56.5940   24.1060   43.4820 C   0  0  0  0  0  0  0  0  0  0  0  0
   57.8390   26.9980   43.8900 N   0  0  0  0  0  0  0  0  0  0  0  0
   58.0550   28.2770   43.5750 N   0  0  0  0  0  0  0  0  0  0  0  0
   58.2600   31.0060   46.0100 C   0  0  0  0  0  0  0  0  0  0  0  0
   59.0865   33.7657   49.8681 H   0  0  0  0  0  0  0  0  0  0  0  0
   60.7665   34.1820   49.3876 H   0  0  0  0  0  0  0  0  0  0  0  0
   59.4925   35.4483   49.3876 H   0  0  0  0  0  0  0  0  0  0  0  0
   58.5240   32.2140   48.3140 H   0  0  0  0  0  0  0  0  0  0  0  0
   58.1729   34.2525   45.2293 H   0  0  0  0  0  0  0  0  0  0  0  0
   57.5240   33.3590   43.0324 H   0  0  0  0  0  0  0  0  0  0  0  0
   57.3384   30.8986   42.7128 H   0  0  0  0  0  0  0  0  0  0  0  0
   57.0874   28.4970   46.6942 H   0  0  0  0  0  0  0  0  0  0  0  0
   58.8810   20.5270   45.3380 H   0  0  0  0  0  0  0  0  0  0  0  0
   56.7604   20.1837   43.3448 H   0  0  0  0  0  0  0  0  0  0  0  0
   56.5875   21.6940   42.3879 H   0  0  0  0  0  0  0  0  0  0  0  0
   58.1481   20.8045   42.3879 H   0  0  0  0  0  0  0  0  0  0  0  0
   55.9633   24.7696   44.0917 H   0  0  0  0  0  0  0  0  0  0  0  0
   57.2572   24.7119   42.8472 H   0  0  0  0  0  0  0  0  0  0  0  0
   55.9552   23.4744   42.8472 H   0  0  0  0  0  0  0  0  0  0  0  0
   58.3830   28.6420   42.6360 H   0  0  0  0  0  0  0  0  0  0  0  0
   58.4645   30.3182   46.8438 H   0  0  0  0  0  0  0  0  0  0  0  0
  1  2  1  0
  2  3  2  0
  2  4  1  0
  4  5  1  0
  5  6  2  0
  6  7  1  0
  7  8  2  0
  8  9  1  0
  9 10  1  0
 10 11  2  0
 11 12  1  0
 12 13  1  0
 13 14  2  0
 13 15  1  0
 15 16  2  0
 16 17  1  0
 17 18  1  0
 18 19  1  0
 19 20  1  0
 19 21  2  0
 21 22  1  0
 12 23  2  0
 23 24  1  0
  9 25  2  0
 25  5  1  0
 24 10  1  0
 21 16  1  0
  1 26  1  0
  1 27  1  0
  1 28  1  0
  4 29  1  0
  6 30  1  0
  7 31  1  0
  8 32  1  0
 11 33  1  0
 18 34  1  0
 20 35  1  0
 20 36  1  0
 20 37  1  0
 22 38  1  0
 22 39  1  0
 22 40  1  0
 24 41  1  0
 25 42  1  0
M  END
>  <smiles>  (87) 
CC(=O)Nc1cccc(-c2cc(C(=O)N=c3o[nH]c(C)c3C)n[nH]2)c1

>  <score_type>  (87) 
oracle

>  <origin>  (87) 
adg

>  <m_score__min__energy>  (87) 
-9.1899999999999995

>  <m_primary>  (87) 
energy

$$$$
87:0
     RDKit          3D

 49 51  0  0  0  0  0  0  0  0999 V2000
   53.8080   24.8140   45.5510 C   0  0  0  0  0  0  0  0  0  0  0  0
   54.5830   25.9620   45.8790 O   0  0  0  0  0  0  0  0  0  0  0  0
   55.9830   25.9750   45.9770 C   0  0  0  0  0  0  0  0  0  0  0  0
   56.7150   24.8480   46.3950 C   0  0  0  0  0  0  0  0  0  0  0  0
   58.1110   24.8990   46.4740 C   0  0  0  0  0  0  0  0  0  0  0  0
   58.7890   26.0680   46.1350 C   0  0  0  0  0  0  0  0  0  0  0  0
   58.0740   27.1950   45.7230 C   0  0  0  0  0  0  0  0  0  0  0  0
   56.6680   27.1560   45.6500 C   0  0  0  0  0  0  0  0  0  0  0  0
   55.9030   28.2980   45.2440 N   0  0  0  0  0  0  0  0  0  0  0  0
   56.3440   29.4280   44.0050 S   0  0  0  0  0  0  0  0  0  0  0  0
   55.1140   30.0800   43.4360 O   0  0  0  0  0  0  0  0  0  0  0  0
   57.0910   28.7230   42.9050 O   0  0  0  0  0  0  0  0  0  0  0  0
   57.3950   30.6360   44.7310 C   0  0  0  0  0  0  0  0  0  0  0  0
   57.4110   31.9510   44.2480 C   0  0  0  0  0  0  0  0  0  0  0  0
   58.1680   32.9270   44.9040 C   0  0  0  0  0  0  0  0  0  0  0  0
   58.8920   32.5990   46.0550 C   0  0  0  0  0  0  0  0  0  0  0  0
   58.8730   31.2850   46.5460 C   0  0  0  0  0  0  0  0  0  0  0  0
   59.5300   30.9430   47.7670 N   0  0  0  0  0  0  0  0  0  0  0  0
   59.1500   31.7220   49.2640 S   0  0  0  0  0  0  0  0  0  0  0  0
   58.9200   30.7030   50.3420 O   0  0  0  0  0  0  0  0  0  0  0  0
   57.8900   32.5150   49.0850 O   0  0  0  0  0  0  0  0  0  0  0  0
   60.4510   32.7950   49.6990 N   0  0  0  0  0  0  0  0  0  0  0  0
   60.2040   33.8260   50.7090 C   0  0  0  0  0  0  0  0  0  0  0  0
   61.5550   32.9380   48.7900 C   0  0  0  0  0  0  0  0  0  0  0  0
   62.8160   32.3960   49.1040 C   0  0  0  0  0  0  0  0  0  0  0  0
   63.9070   32.5990   48.2510 C   0  0  0  0  0  0  0  0  0  0  0  0
   63.7450   33.3350   47.0730 C   0  0  0  0  0  0  0  0  0  0  0  0
   62.4920   33.8630   46.7440 C   0  0  0  0  0  0  0  0  0  0  0  0
   61.4010   33.6660   47.5990 C   0  0  0  0  0  0  0  0  0  0  0  0
   58.1450   30.3030   45.8680 C   0  0  0  0  0  0  0  0  0  0  0  0
   53.4746   24.3202   46.4757 H   0  0  0  0  0  0  0  0  0  0  0  0
   52.9308   25.1198   44.9619 H   0  0  0  0  0  0  0  0  0  0  0  0
   54.4196   24.1148   44.9619 H   0  0  0  0  0  0  0  0  0  0  0  0
   56.1862   23.9210   46.6613 H   0  0  0  0  0  0  0  0  0  0  0  0
   58.6746   24.0140   46.8045 H   0  0  0  0  0  0  0  0  0  0  0  0
   59.8870   26.1034   46.1918 H   0  0  0  0  0  0  0  0  0  0  0  0
   58.6112   28.1166   45.4545 H   0  0  0  0  0  0  0  0  0  0  0  0
   56.8285   32.2157   43.3533 H   0  0  0  0  0  0  0  0  0  0  0  0
   58.1941   33.9551   44.5138 H   0  0  0  0  0  0  0  0  0  0  0  0
   59.4766   33.3719   46.5755 H   0  0  0  0  0  0  0  0  0  0  0  0
   60.3088   33.3885   51.7128 H   0  0  0  0  0  0  0  0  0  0  0  0
   60.9322   34.6413   50.5865 H   0  0  0  0  0  0  0  0  0  0  0  0
   59.1854   34.2228   50.5865 H   0  0  0  0  0  0  0  0  0  0  0  0
   62.9446   31.8093   50.0255 H   0  0  0  0  0  0  0  0  0  0  0  0
   64.8912   32.1799   48.5071 H   0  0  0  0  0  0  0  0  0  0  0  0
   64.6033   33.4988   46.4048 H   0  0  0  0  0  0  0  0  0  0  0  0
   62.3638   34.4337   45.8124 H   0  0  0  0  0  0  0  0  0  0  0  0
   60.4179   34.0837   47.3364 H   0  0  0  0  0  0  0  0  0  0  0  0
   58.1606   29.2638   46.2282 H   0  0  0  0  0  0  0  0  0  0  0  0
  1  2  1  0
  2  3  1  0
  3  4  2  0
  4  5  1  0
  5  6  2  0
  6  7  1  0
  7  8  2  0
  8  9  1  0
  9 10  1  0
 10 11  2  0
 10 12  2  0
 10 13  1  0
 13 14  2  0
 14 15  1  0
 15 16  2  0
 16 17  1  0
 17 18  1  0
 18 19  1  0
 19 20  2  0
 19 21  2  0
 19 22  1  0
 22 23  1  0
 22 24  1  0
 24 25  2  0
 25 26  1  0
 26 27  2  0
 27 28  1  0
 28 29  2  0
 17 30  2  0
  8  3  1  0
 30 13  1  0
 29 24  1  0
  1 31  1  0
  1 32  1  0
  1 33  1  0
  4 34  1  0
  5 35  1  0
  6 36  1  0
  7 37  1  0
 14 38  1  0
 15 39  1  0
 16 40  1  0
 23 41  1  0
 23 42  1  0
 23 43  1  0
 25 44  1  0
 26 45  1  0
 27 46  1  0
 28 47  1  0
 29 48  1  0
 30 49  1  0
M  CHG  2   9  -1  18  -1
M  END
>  <UniqueID>  (88) 
82

>  <SMILES>  (88) 
COc1ccccc1[N-]S(=O)(=O)c1cccc([N-]S(=O)(=O)N(C)c2ccccc2)c1

>  <Energy>  (88) 
62.12723897726728

>  <Genealogy>  (88) 
COc1ccccc1[N-]S(=O)(=O)c1cccc([N-]S(=O)(=O)N(C)c2ccccc2)c1 (protonated)
COc1ccccc1[N-]S(=O)(=O)c1cccc([N-]S(=O)(=O)N(C)c2ccccc2)c1 (3D coordinates assigned)
COc1ccccc1[N-]S(=O)(=O)c1cccc([N-]S(=O)(=O)N(C)c2ccccc2)c1 (optimized conformer: 62.12723897726728 kcal/mol)

>  <smiles>  (88) 
COc1ccccc1NS(=O)(=O)c1cccc(NS(=O)(=O)N(C)c2ccccc2)c1

>  <score_type>  (88) 
oracle

>  <origin>  (88) 
adg

>  <m_score__min__energy>  (88) 
-12.49

>  <m_primary>  (88) 
energy

$$$$
88:0
     RDKit          3D

 29 31  0  0  0  0  0  0  0  0999 V2000
   59.9929   29.4820   45.8251 H   0  0  0  0  0  0  0  0  0  0  0  0
   60.1310   30.4270   46.3710 C   0  0  0  0  0  0  0  0  0  0  0  0
   60.8879   30.4974   47.1660 H   0  0  0  0  0  0  0  0  0  0  0  0
   59.3760   31.4940   46.0670 C   0  0  0  0  0  0  0  0  0  0  0  0
   59.6060   32.6280   46.7870 N   0  0  0  0  0  0  0  0  0  0  0  0
   58.8990   33.7740   46.6180 C   0  0  0  0  0  0  0  0  0  0  0  0
   59.2150   34.9750   47.4500 C   0  0  0  0  0  0  0  0  0  0  0  0
   59.1456   34.7114   48.5157 H   0  0  0  0  0  0  0  0  0  0  0  0
   60.2345   35.3202   47.2233 H   0  0  0  0  0  0  0  0  0  0  0  0
   58.4974   35.7773   47.2233 H   0  0  0  0  0  0  0  0  0  0  0  0
   57.8840   33.8210   45.6670 C   0  0  0  0  0  0  0  0  0  0  0  0
   57.3010   34.7427   45.5237 H   0  0  0  0  0  0  0  0  0  0  0  0
   57.6120   32.6920   44.8980 C   0  0  0  0  0  0  0  0  0  0  0  0
   56.8128   32.7324   44.1432 H   0  0  0  0  0  0  0  0  0  0  0  0
   58.3450   31.4940   45.0700 C   0  0  0  0  0  0  0  0  0  0  0  0
   58.0890   30.4190   44.2780 C   0  0  0  0  0  0  0  0  0  0  0  0
   58.1664   30.5577   43.1895 H   0  0  0  0  0  0  0  0  0  0  0  0
   57.7150   29.0800   44.7720 C   0  0  0  0  0  0  0  0  0  0  0  0
   58.8600   27.8880   45.2510 S   0  0  0  0  0  0  0  0  0  0  0  0
   57.6310   26.8560   45.7380 C   0  0  0  0  0  0  0  0  0  0  0  0
   57.6150   25.6600   46.3430 N   0  0  0  0  0  0  0  0  0  0  0  0
   56.2650   25.5120   46.5250 C   0  0  0  0  0  0  0  0  0  0  0  0
   55.8164   24.6222   46.9910 H   0  0  0  0  0  0  0  0  0  0  0  0
   55.5280   26.5680   46.0760 N   0  0  0  0  0  0  0  0  0  0  0  0
   56.4420   27.3730   45.5850 N   0  0  0  0  0  0  0  0  0  0  0  0
   56.4150   28.6190   45.0670 C   0  0  0  0  0  0  0  0  0  0  0  0
   55.2160   29.3850   44.9430 N   0  0  0  0  0  0  0  0  0  0  0  0
   54.3480   28.9660   44.5430 H   0  0  0  0  0  0  0  0  0  0  0  0
   55.2040   30.3910   45.2240 H   0  0  0  0  0  0  0  0  0  0  0  0
  1  2  1  0
  2  3  1  0
  2  4  2  0
  4  5  1  0
  5  6  2  0
  6  7  1  0
  7  8  1  0
  7  9  1  0
  7 10  1  0
  6 11  1  0
 11 12  1  0
 11 13  2  0
 13 14  1  0
 13 15  1  0
 15 16  2  0
 16 17  1  0
 16 18  1  0
 18 19  1  0
 19 20  1  0
 20 21  2  0
 21 22  1  0
 22 23  1  0
 22 24  2  0
 24 25  1  0
 25 26  1  0
 26 27  1  0
 27 28  1  0
 27 29  1  0
 15  4  1  0
 26 18  2  0
 25 20  1  0
M  END
>  <UniqueID>  (89) 
83

>  <SMILES>  (89) 
C=c1nc(C)cc/c1=C\c1sc2ncnn2c1N

>  <Energy>  (89) 
129.0006104908557

>  <Genealogy>  (89) 
C=c1nc(C)cc/c1=C\c1sc2ncnn2c1N (cis-trans isomerization)
C=c1nc(C)cc/c1=C\c1sc2ncnn2c1N (3D coordinates assigned)
C=c1nc(C)cc/c1=C\c1sc2ncnn2c1N (optimized conformer: 129.0006104908557 kcal/mol)

>  <smiles>  (89) 
C=c1nc(C)ccc1=Cc1sc2ncnn2c1N

>  <score_type>  (89) 
oracle

>  <origin>  (89) 
adg

>  <m_score__min__energy>  (89) 
-7.4800000000000004

>  <m_primary>  (89) 
energy

$$$$
89:0
     RDKit          3D

 41 43  0  0  0  0  0  0  0  0999 V2000
   56.8580   31.3160   44.7220 O   0  0  0  0  0  0  0  0  0  0  0  0
   57.4410   32.0030   45.6030 C   0  0  0  0  0  0  0  0  0  0  0  0
   57.2300   33.4860   45.6370 C   0  0  0  0  0  0  0  0  0  0  0  0
   58.6980   34.3630   44.9970 S   0  0  0  0  0  0  0  0  0  0  0  0
   59.7450   33.9430   46.3870 C   0  0  0  0  0  0  0  0  0  0  0  0
   59.1930   33.6860   47.6000 N   0  0  0  0  0  0  0  0  0  0  0  0
   59.9570   33.3350   48.6700 C   0  0  0  0  0  0  0  0  0  0  0  0
   59.2990   33.0470   49.9700 C   0  0  0  0  0  0  0  0  0  0  0  0
   59.5430   33.8410   51.1090 C   0  0  0  0  0  0  0  0  0  0  0  0
   58.9060   33.5560   52.3210 C   0  0  0  0  0  0  0  0  0  0  0  0
   58.0170   32.4830   52.4120 C   0  0  0  0  0  0  0  0  0  0  0  0
   57.4000   32.2090   53.5870 F   0  0  0  0  0  0  0  0  0  0  0  0
   57.7580   31.6940   51.2870 C   0  0  0  0  0  0  0  0  0  0  0  0
   58.3910   31.9760   50.0720 C   0  0  0  0  0  0  0  0  0  0  0  0
   61.3480   33.2280   48.5050 C   0  0  0  0  0  0  0  0  0  0  0  0
   61.9040   33.5120   47.2520 C   0  0  0  0  0  0  0  0  0  0  0  0
   63.3850   33.3910   47.0330 C   0  0  0  0  0  0  0  0  0  0  0  0
   64.0550   33.8270   48.1600 F   0  0  0  0  0  0  0  0  0  0  0  0
   63.7630   34.1620   45.9490 F   0  0  0  0  0  0  0  0  0  0  0  0
   63.7320   32.0750   46.7840 F   0  0  0  0  0  0  0  0  0  0  0  0
   61.0900   33.8570   46.2210 N   0  0  0  0  0  0  0  0  0  0  0  0
   58.3040   31.3780   46.5670 N   0  0  0  0  0  0  0  0  0  0  0  0
   58.9070   30.0830   46.3970 C   0  0  0  0  0  0  0  0  0  0  0  0
   58.9540   29.2010   47.4870 C   0  0  0  0  0  0  0  0  0  0  0  0
   59.5710   27.9520   47.3630 C   0  0  0  0  0  0  0  0  0  0  0  0
   60.1570   27.5790   46.1510 C   0  0  0  0  0  0  0  0  0  0  0  0
   60.7600   26.3700   46.0330 F   0  0  0  0  0  0  0  0  0  0  0  0
   60.1350   28.4580   45.0650 C   0  0  0  0  0  0  0  0  0  0  0  0
   59.5190   29.7070   45.1860 C   0  0  0  0  0  0  0  0  0  0  0  0
   56.3583   33.7408   45.0163 H   0  0  0  0  0  0  0  0  0  0  0  0
   57.0606   33.7948   46.6791 H   0  0  0  0  0  0  0  0  0  0  0  0
   60.2390   34.6903   51.0441 H   0  0  0  0  0  0  0  0  0  0  0  0
   59.1059   34.1790   53.2053 H   0  0  0  0  0  0  0  0  0  0  0  0
   57.0555   30.8505   51.3576 H   0  0  0  0  0  0  0  0  0  0  0  0
   58.1776   31.3558   49.1889 H   0  0  0  0  0  0  0  0  0  0  0  0
   61.9894   32.9262   49.3461 H   0  0  0  0  0  0  0  0  0  0  0  0
   58.4990   31.8960   47.4540 H   0  0  0  0  0  0  0  0  0  0  0  0
   58.5023   29.4940   48.4462 H   0  0  0  0  0  0  0  0  0  0  0  0
   59.5948   27.2631   48.2202 H   0  0  0  0  0  0  0  0  0  0  0  0
   60.6032   28.1666   44.1132 H   0  0  0  0  0  0  0  0  0  0  0  0
   59.5124   30.3993   44.3312 H   0  0  0  0  0  0  0  0  0  0  0  0
  1  2  2  0
  2  3  1  0
  3  4  1  0
  4  5  1  0
  5  6  2  0
  6  7  1  0
  7  8  1  0
  8  9  2  0
  9 10  1  0
 10 11  2  0
 11 12  1  0
 11 13  1  0
 13 14  2  0
  7 15  2  0
 15 16  1  0
 16 17  1  0
 17 18  1  0
 17 19  1  0
 17 20  1  0
 16 21  2  0
  2 22  1  0
 22 23  1  0
 23 24  2  0
 24 25  1  0
 25 26  2  0
 26 27  1  0
 26 28  1  0
 28 29  2  0
 21  5  1  0
 29 23  1  0
 14  8  1  0
  3 30  1  0
  3 31  1  0
  9 32  1  0
 10 33  1  0
 13 34  1  0
 14 35  1  0
 15 36  1  0
 22 37  1  0
 24 38  1  0
 25 39  1  0
 28 40  1  0
 29 41  1  0
M  END
>  <UniqueID>  (90) 
84

>  <SMILES>  (90) 
O=C(CSc1nc(-c2ccc(F)cc2)cc(C(F)(F)F)n1)Nc1ccc(F)cc1

>  <Energy>  (90) 
43.238151084858806

>  <Genealogy>  (90) 
O=C(CSc1nc(-c2ccc(F)cc2)cc(C(F)(F)F)n1)Nc1ccc(F)cc1 (3D coordinates assigned)
O=C(CSc1nc(-c2ccc(F)cc2)cc(C(F)(F)F)n1)Nc1ccc(F)cc1 (optimized conformer: 43.238151084858806 kcal/mol)

>  <smiles>  (90) 
O=C(CSc1nc(-c2ccc(F)cc2)cc(C(F)(F)F)n1)Nc1ccc(F)cc1

>  <score_type>  (90) 
oracle

>  <origin>  (90) 
adg

>  <m_score__min__energy>  (90) 
-7.3899999999999997

>  <m_primary>  (90) 
energy

$$$$
90:0
     RDKit          3D

 64 67  0  0  0  0  0  0  0  0999 V2000
   56.2480   26.0700   46.3140 C   0  0  0  0  0  0  0  0  0  0  0  0
   57.1300   24.9320   46.0060 N   0  0  0  0  0  0  0  0  0  0  0  0
   57.3350   24.8550   44.5480 C   0  0  0  0  0  0  0  0  0  0  0  0
   58.4170   25.0850   46.7210 C   0  0  0  0  0  0  0  0  0  0  0  0
   59.4100   25.9410   45.9220 C   0  0  0  0  0  0  0  0  0  0  0  0
   59.1360   27.3690   46.0880 N   0  0  0  0  0  0  0  0  0  0  0  0
   58.5380   28.1480   45.0410 C   0  0  0  0  0  0  0  0  0  0  0  0
   58.3400   27.6300   43.9080 O   0  0  0  0  0  0  0  0  0  0  0  0
   58.2090   29.5790   45.2600 C   0  0  0  0  0  0  0  0  0  0  0  0
   56.9790   30.0610   44.7980 C   0  0  0  0  0  0  0  0  0  0  0  0
   56.6670   31.3720   44.9140 N   0  0  0  0  0  0  0  0  0  0  0  0
   57.5350   32.2760   45.4320 C   0  0  0  0  0  0  0  0  0  0  0  0
   57.1640   33.6250   45.4630 C   0  0  0  0  0  0  0  0  0  0  0  0
   58.0640   34.5900   45.9100 C   0  0  0  0  0  0  0  0  0  0  0  0
   59.3510   34.2150   46.2920 C   0  0  0  0  0  0  0  0  0  0  0  0
   59.7290   32.8690   46.2760 C   0  0  0  0  0  0  0  0  0  0  0  0
   58.8070   31.8590   45.9090 C   0  0  0  0  0  0  0  0  0  0  0  0
   59.0900   30.4560   45.9380 C   0  0  0  0  0  0  0  0  0  0  0  0
   60.0650   29.9060   46.6200 N   0  0  0  0  0  0  0  0  0  0  0  0
   60.9720   30.4700   47.5750 C   0  0  0  0  0  0  0  0  0  0  0  0
   62.1270   31.1040   47.0970 C   0  0  0  0  0  0  0  0  0  0  0  0
   63.0430   31.6680   47.9850 C   0  0  0  0  0  0  0  0  0  0  0  0
   62.8230   31.5860   49.3610 C   0  0  0  0  0  0  0  0  0  0  0  0
   61.6980   30.9190   49.8520 C   0  0  0  0  0  0  0  0  0  0  0  0
   60.7710   30.3380   48.9720 C   0  0  0  0  0  0  0  0  0  0  0  0
   59.4250   29.4040   49.6400 S   0  0  0  0  0  0  0  0  0  0  0  0
   58.9260   28.4270   48.6120 O   0  0  0  0  0  0  0  0  0  0  0  0
   59.8840   28.6500   50.8550 O   0  0  0  0  0  0  0  0  0  0  0  0
   58.1290   30.4840   50.0420 N   0  0  0  0  0  0  0  0  0  0  0  0
   58.2560   31.6730   50.8340 C   0  0  0  0  0  0  0  0  0  0  0  0
   59.1820   32.6810   50.5050 C   0  0  0  0  0  0  0  0  0  0  0  0
   59.2730   33.8400   51.2790 C   0  0  0  0  0  0  0  0  0  0  0  0
   58.4480   34.0060   52.3910 C   0  0  0  0  0  0  0  0  0  0  0  0
   57.5330   33.0100   52.7360 C   0  0  0  0  0  0  0  0  0  0  0  0
   57.4340   31.8390   51.9680 C   0  0  0  0  0  0  0  0  0  0  0  0
   56.3360   30.5510   52.4730 S   0  0  0  0  0  0  0  0  0  0  0  0
   57.1400   29.0270   52.3440 N   0  0  0  0  0  0  0  0  0  0  0  0
   55.9040   30.7560   53.8990 O   0  0  0  0  0  0  0  0  0  0  0  0
   55.1210   30.5530   51.5910 O   0  0  0  0  0  0  0  0  0  0  0  0
   56.1613   26.1819   47.4048 H   0  0  0  0  0  0  0  0  0  0  0  0
   56.6718   26.9893   45.8836 H   0  0  0  0  0  0  0  0  0  0  0  0
   55.2520   25.8889   45.8836 H   0  0  0  0  0  0  0  0  0  0  0  0
   58.3461   24.4752   44.3394 H   0  0  0  0  0  0  0  0  0  0  0  0
   56.5901   24.1754   44.1084 H   0  0  0  0  0  0  0  0  0  0  0  0
   57.2217   25.8570   44.1084 H   0  0  0  0  0  0  0  0  0  0  0  0
   58.2307   25.5674   47.6919 H   0  0  0  0  0  0  0  0  0  0  0  0
   58.8560   24.0855   46.8563 H   0  0  0  0  0  0  0  0  0  0  0  0
   60.4302   25.7287   46.2743 H   0  0  0  0  0  0  0  0  0  0  0  0
   59.3056   25.6894   44.8563 H   0  0  0  0  0  0  0  0  0  0  0  0
   59.4220   27.8480   46.9710 H   0  0  0  0  0  0  0  0  0  0  0  0
   56.2600   29.3679   44.3367 H   0  0  0  0  0  0  0  0  0  0  0  0
   56.1582   33.9245   45.1333 H   0  0  0  0  0  0  0  0  0  0  0  0
   57.7595   35.6458   45.9614 H   0  0  0  0  0  0  0  0  0  0  0  0
   60.0732   34.9822   46.6078 H   0  0  0  0  0  0  0  0  0  0  0  0
   60.7568   32.5909   46.5523 H   0  0  0  0  0  0  0  0  0  0  0  0
   62.3124   31.1572   46.0140 H   0  0  0  0  0  0  0  0  0  0  0  0
   63.9390   32.1775   47.6008 H   0  0  0  0  0  0  0  0  0  0  0  0
   63.5365   32.0472   50.0597 H   0  0  0  0  0  0  0  0  0  0  0  0
   61.5370   30.8484   50.9379 H   0  0  0  0  0  0  0  0  0  0  0  0
   59.8389   32.5549   49.6317 H   0  0  0  0  0  0  0  0  0  0  0  0
   59.9970   34.6236   51.0109 H   0  0  0  0  0  0  0  0  0  0  0  0
   58.5183   34.9218   52.9962 H   0  0  0  0  0  0  0  0  0  0  0  0
   56.8854   33.1434   53.6151 H   0  0  0  0  0  0  0  0  0  0  0  0
   57.9460   29.1600   51.6930 H   0  0  0  0  0  0  0  0  0  0  0  0
  1  2  1  0
  2  3  1  0
  2  4  1  0
  4  5  1  0
  5  6  1  0
  6  7  1  0
  7  8  2  0
  7  9  1  0
  9 10  2  0
 10 11  1  0
 11 12  1  0
 12 13  2  0
 13 14  1  0
 14 15  2  0
 15 16  1  0
 16 17  2  0
 17 18  1  0
 18 19  2  3
 19 20  1  0
 20 21  2  0
 21 22  1  0
 22 23  2  0
 23 24  1  0
 24 25  2  0
 25 26  1  0
 26 27  2  0
 26 28  2  0
 26 29  1  0
 29 30  1  0
 30 31  2  0
 31 32  1  0
 32 33  2  0
 33 34  1  0
 34 35  2  0
 35 36  1  0
 36 37  1  0
 36 38  2  0
 36 39  2  0
 18  9  1  0
 25 20  1  0
 35 30  1  0
 17 12  1  0
  1 40  1  0
  1 41  1  0
  1 42  1  0
  3 43  1  0
  3 44  1  0
  3 45  1  0
  4 46  1  0
  4 47  1  0
  5 48  1  0
  5 49  1  0
  6 50  1  0
 10 51  1  0
 13 52  1  0
 14 53  1  0
 15 54  1  0
 16 55  1  0
 21 56  1  0
 22 57  1  0
 23 58  1  0
 24 59  1  0
 31 60  1  0
 32 61  1  0
 33 62  1  0
 34 63  1  0
 37 64  1  0
M  CHG  3  11  -1  29  -1  37  -1
M  END
>  <UniqueID>  (91) 
85

>  <SMILES>  (91) 
CN(C)CCNC(=O)c1c[n-]c2ccccc2c1=Nc1ccccc1S(=O)(=O)[N-]c1ccccc1S([NH-])(=O)=O

>  <Energy>  (91) 
98.12364729892411

>  <Genealogy>  (91) 
CN(C)CCNC(=O)c1c[n-]c2ccccc2c1=Nc1ccccc1S(=O)(=O)[N-]c1ccccc1S([NH-])(=O)=O (protonated)
CN(C)CCNC(=O)c1c[n-]c2ccccc2c1=Nc1ccccc1S(=O)(=O)[N-]c1ccccc1S([NH-])(=O)=O (3D coordinates assigned)
CN(C)CCNC(=O)c1c[n-]c2ccccc2c1=Nc1ccccc1S(=O)(=O)[N-]c1ccccc1S([NH-])(=O)=O (optimized conformer: 98.12364729892411 kcal/mol)

>  <smiles>  (91) 
CN(C)CCNC(=O)c1c[nH]c2ccccc2c1=Nc1ccccc1S(=O)(=O)Nc1ccccc1S(N)(=O)=O

>  <score_type>  (91) 
oracle

>  <origin>  (91) 
adg

>  <m_score__min__energy>  (91) 
-13.5

>  <m_primary>  (91) 
energy

$$$$
91:0
     RDKit          3D

 45 46  0  0  0  0  0  0  0  0999 V2000
   57.0680   29.7510   53.0160 C   0  0  0  0  0  0  0  0  0  0  0  0
   57.3460   29.8580   51.6230 O   0  0  0  0  0  0  0  0  0  0  0  0
   58.1210   30.8740   51.0430 C   0  0  0  0  0  0  0  0  0  0  0  0
   58.0360   32.2130   51.4670 C   0  0  0  0  0  0  0  0  0  0  0  0
   58.8320   33.1940   50.8740 C   0  0  0  0  0  0  0  0  0  0  0  0
   59.7160   32.8600   49.8410 C   0  0  0  0  0  0  0  0  0  0  0  0
   60.6080   33.9130   49.2350 C   0  0  0  0  0  0  0  0  0  0  0  0
   59.9360   34.6150   48.0470 C   0  0  0  0  0  0  0  0  0  0  0  0
   59.7520   33.7070   46.9130 N   0  0  0  0  0  0  0  0  0  0  0  0
   58.5570   32.9320   46.7280 C   0  0  0  0  0  0  0  0  0  0  0  0
   57.5900   33.0680   47.5230 O   0  0  0  0  0  0  0  0  0  0  0  0
   58.4060   32.0580   45.6010 N   0  0  0  0  0  0  0  0  0  0  0  0
   58.0600   30.6660   45.6290 C   0  0  0  0  0  0  0  0  0  0  0  0
   57.1630   30.1740   44.6730 C   0  0  0  0  0  0  0  0  0  0  0  0
   56.7710   28.8320   44.6950 C   0  0  0  0  0  0  0  0  0  0  0  0
   57.2620   27.9690   45.6840 C   0  0  0  0  0  0  0  0  0  0  0  0
   56.7520   26.2850   45.7230 S   0  0  0  0  0  0  0  0  0  0  0  0
   55.0430   26.2050   45.9650 N   0  0  0  0  0  0  0  0  0  0  0  0
   57.4490   25.5670   46.8440 O   0  0  0  0  0  0  0  0  0  0  0  0
   57.1080   25.6150   44.4250 O   0  0  0  0  0  0  0  0  0  0  0  0
   58.1330   28.4660   46.6620 C   0  0  0  0  0  0  0  0  0  0  0  0
   58.5260   29.8070   46.6380 C   0  0  0  0  0  0  0  0  0  0  0  0
   59.7950   31.5290   49.4060 C   0  0  0  0  0  0  0  0  0  0  0  0
   59.0070   30.5290   50.0100 C   0  0  0  0  0  0  0  0  0  0  0  0
   59.0860   29.1830   49.6210 O   0  0  0  0  0  0  0  0  0  0  0  0
   60.3000   28.4940   49.3390 C   0  0  0  0  0  0  0  0  0  0  0  0
   57.9429   30.0878   53.5914 H   0  0  0  0  0  0  0  0  0  0  0  0
   56.2006   30.3795   53.2661 H   0  0  0  0  0  0  0  0  0  0  0  0
   56.8458   28.7031   53.2661 H   0  0  0  0  0  0  0  0  0  0  0  0
   57.3376   32.4883   52.2710 H   0  0  0  0  0  0  0  0  0  0  0  0
   58.7645   34.2359   51.2203 H   0  0  0  0  0  0  0  0  0  0  0  0
   60.8461   34.6631   50.0035 H   0  0  0  0  0  0  0  0  0  0  0  0
   61.5199   33.4188   48.8687 H   0  0  0  0  0  0  0  0  0  0  0  0
   58.9526   34.9912   48.3654 H   0  0  0  0  0  0  0  0  0  0  0  0
   60.5882   35.4394   47.7230 H   0  0  0  0  0  0  0  0  0  0  0  0
   60.4670   33.7310   46.1530 H   0  0  0  0  0  0  0  0  0  0  0  0
   56.7643   30.8473   43.8999 H   0  0  0  0  0  0  0  0  0  0  0  0
   56.0745   28.4522   43.9330 H   0  0  0  0  0  0  0  0  0  0  0  0
   54.7630   27.0880   46.4480 H   0  0  0  0  0  0  0  0  0  0  0  0
   58.5089   27.7986   47.4515 H   0  0  0  0  0  0  0  0  0  0  0  0
   59.2042   30.1920   47.4138 H   0  0  0  0  0  0  0  0  0  0  0  0
   60.4783   31.2633   48.5859 H   0  0  0  0  0  0  0  0  0  0  0  0
   60.7912   28.2152   50.2829 H   0  0  0  0  0  0  0  0  0  0  0  0
   60.0800   27.5862   48.7581 H   0  0  0  0  0  0  0  0  0  0  0  0
   60.9666   29.1484   48.7581 H   0  0  0  0  0  0  0  0  0  0  0  0
  1  2  1  0
  2  3  1  0
  3  4  2  0
  4  5  1  0
  5  6  2  0
  6  7  1  0
  7  8  1  0
  8  9  1  0
  9 10  1  0
 10 11  2  0
 10 12  1  0
 12 13  1  0
 13 14  2  0
 14 15  1  0
 15 16  2  0
 16 17  1  0
 17 18  1  0
 17 19  2  0
 17 20  2  0
 16 21  1  0
 21 22  2  0
  6 23  1  0
 23 24  2  0
 24 25  1  0
 25 26  1  0
 24  3  1  0
 22 13  1  0
  1 27  1  0
  1 28  1  0
  1 29  1  0
  4 30  1  0
  5 31  1  0
  7 32  1  0
  7 33  1  0
  8 34  1  0
  8 35  1  0
  9 36  1  0
 14 37  1  0
 15 38  1  0
 18 39  1  0
 21 40  1  0
 22 41  1  0
 23 42  1  0
 26 43  1  0
 26 44  1  0
 26 45  1  0
M  CHG  2  12  -1  18  -1
M  END
>  <UniqueID>  (92) 
86

>  <SMILES>  (92) 
COc1ccc(CCNC(=O)[N-]c2ccc(S([NH-])(=O)=O)cc2)cc1OC

>  <Energy>  (92) 
40.60423899794088

>  <Genealogy>  (92) 
COc1ccc(CCNC(=O)[N-]c2ccc(S([NH-])(=O)=O)cc2)cc1OC (protonated)
COc1ccc(CCNC(=O)[N-]c2ccc(S([NH-])(=O)=O)cc2)cc1OC (3D coordinates assigned)
COc1ccc(CCNC(=O)[N-]c2ccc(S([NH-])(=O)=O)cc2)cc1OC (optimized conformer: 40.60423899794088 kcal/mol)

>  <smiles>  (92) 
COc1ccc(CCNC(=O)Nc2ccc(S(N)(=O)=O)cc2)cc1OC

>  <score_type>  (92) 
oracle

>  <origin>  (92) 
adg

>  <m_score__min__energy>  (92) 
-11.15

>  <m_primary>  (92) 
energy

$$$$
92:0
     RDKit          3D

 50 52  0  0  0  0  0  0  0  0999 V2000
   59.6550   27.5220   53.5030 C   0  0  0  0  0  0  0  0  0  0  0  0
   58.3340   28.0020   53.2760 O   0  0  0  0  0  0  0  0  0  0  0  0
   57.9950   29.3520   53.0770 C   0  0  0  0  0  0  0  0  0  0  0  0
   58.9540   30.3780   53.1360 C   0  0  0  0  0  0  0  0  0  0  0  0
   58.5880   31.7100   52.9110 C   0  0  0  0  0  0  0  0  0  0  0  0
   59.6350   32.7980   52.9380 C   0  0  0  0  0  0  0  0  0  0  0  0
   59.6110   33.5990   51.6720 C   0  0  0  0  0  0  0  0  0  0  0  0
   58.9210   34.6570   51.6140 O   0  0  0  0  0  0  0  0  0  0  0  0
   60.3140   33.1380   50.5530 O   0  0  0  0  0  0  0  0  0  0  0  0
   59.7540   32.4180   49.4820 C   0  0  0  0  0  0  0  0  0  0  0  0
   59.8360   31.0220   49.5070 C   0  0  0  0  0  0  0  0  0  0  0  0
   59.2910   30.2540   48.4750 C   0  0  0  0  0  0  0  0  0  0  0  0
   58.6540   30.8790   47.3920 C   0  0  0  0  0  0  0  0  0  0  0  0
   58.0890   30.1160   46.3560 C   0  0  0  0  0  0  0  0  0  0  0  0
   57.4630   30.7490   45.2750 C   0  0  0  0  0  0  0  0  0  0  0  0
   56.7270   29.7820   43.9980 S   0  0  0  0  0  0  0  0  0  0  0  0
   55.1440   29.2920   44.4920 N   0  0  0  0  0  0  0  0  0  0  0  0
   57.5690   28.5660   43.7340 O   0  0  0  0  0  0  0  0  0  0  0  0
   56.6310   30.5890   42.7330 O   0  0  0  0  0  0  0  0  0  0  0  0
   57.3970   32.1490   45.2290 C   0  0  0  0  0  0  0  0  0  0  0  0
   57.9620   32.9180   46.2520 C   0  0  0  0  0  0  0  0  0  0  0  0
   58.5870   32.2920   47.3420 C   0  0  0  0  0  0  0  0  0  0  0  0
   59.1470   33.0540   48.3820 C   0  0  0  0  0  0  0  0  0  0  0  0
   57.2550   32.0170   52.6080 C   0  0  0  0  0  0  0  0  0  0  0  0
   56.2630   31.0080   52.5640 C   0  0  0  0  0  0  0  0  0  0  0  0
   54.9190   31.3290   52.3010 O   0  0  0  0  0  0  0  0  0  0  0  0
   54.0230   30.5060   51.5590 C   0  0  0  0  0  0  0  0  0  0  0  0
   56.6480   29.6630   52.8060 C   0  0  0  0  0  0  0  0  0  0  0  0
   55.7460   28.5800   52.7750 O   0  0  0  0  0  0  0  0  0  0  0  0
   55.1920   27.8980   53.8970 C   0  0  0  0  0  0  0  0  0  0  0  0
   59.8398   27.4549   54.5853 H   0  0  0  0  0  0  0  0  0  0  0  0
   59.7662   26.5260   53.0495 H   0  0  0  0  0  0  0  0  0  0  0  0
   60.3796   28.2143   53.0495 H   0  0  0  0  0  0  0  0  0  0  0  0
   60.0021   30.1317   53.3612 H   0  0  0  0  0  0  0  0  0  0  0  0
   59.4379   33.4656   53.7897 H   0  0  0  0  0  0  0  0  0  0  0  0
   60.6250   32.3288   53.0367 H   0  0  0  0  0  0  0  0  0  0  0  0
   60.3359   30.5224   50.3499 H   0  0  0  0  0  0  0  0  0  0  0  0
   59.3614   29.1569   48.5115 H   0  0  0  0  0  0  0  0  0  0  0  0
   58.1386   29.0178   46.3943 H   0  0  0  0  0  0  0  0  0  0  0  0
   55.2290   28.9610   45.4790 H   0  0  0  0  0  0  0  0  0  0  0  0
   56.8981   32.6454   44.3836 H   0  0  0  0  0  0  0  0  0  0  0  0
   57.9164   34.0159   46.2021 H   0  0  0  0  0  0  0  0  0  0  0  0
   59.1109   34.1525   48.3364 H   0  0  0  0  0  0  0  0  0  0  0  0
   56.9744   33.0602   52.4007 H   0  0  0  0  0  0  0  0  0  0  0  0
   53.3948   29.9289   52.2535 H   0  0  0  0  0  0  0  0  0  0  0  0
   53.3837   31.1383   50.9254 H   0  0  0  0  0  0  0  0  0  0  0  0
   54.5989   29.8154   50.9254 H   0  0  0  0  0  0  0  0  0  0  0  0
   55.5643   28.3563   54.8251 H   0  0  0  0  0  0  0  0  0  0  0  0
   54.0949   27.9719   53.8660 H   0  0  0  0  0  0  0  0  0  0  0  0
   55.4892   26.8394   53.8660 H   0  0  0  0  0  0  0  0  0  0  0  0
  1  2  1  0
  2  3  1  0
  3  4  2  0
  4  5  1  0
  5  6  1  0
  6  7  1  0
  7  8  2  0
  7  9  1  0
  9 10  1  0
 10 11  2  0
 11 12  1  0
 12 13  2  0
 13 14  1  0
 14 15  2  0
 15 16  1  0
 16 17  1  0
 16 18  2  0
 16 19  2  0
 15 20  1  0
 20 21  2  0
 21 22  1  0
 22 23  2  0
  5 24  2  0
 24 25  1  0
 25 26  1  0
 26 27  1  0
 25 28  2  0
 28 29  1  0
 29 30  1  0
 28  3  1  0
 23 10  1  0
 22 13  1  0
  1 31  1  0
  1 32  1  0
  1 33  1  0
  4 34  1  0
  6 35  1  0
  6 36  1  0
 11 37  1  0
 12 38  1  0
 14 39  1  0
 17 40  1  0
 20 41  1  0
 21 42  1  0
 23 43  1  0
 24 44  1  0
 27 45  1  0
 27 46  1  0
 27 47  1  0
 30 48  1  0
 30 49  1  0
 30 50  1  0
M  CHG  1  17  -1
M  END
>  <UniqueID>  (93) 
87

>  <SMILES>  (93) 
COc1cc(CC(=O)Oc2ccc3cc(S([NH-])(=O)=O)ccc3c2)cc(OC)c1OC

>  <Energy>  (93) 
60.31992700610568

>  <Genealogy>  (93) 
COc1cc(CC(=O)Oc2ccc3cc(S([NH-])(=O)=O)ccc3c2)cc(OC)c1OC (protonated)
COc1cc(CC(=O)Oc2ccc3cc(S([NH-])(=O)=O)ccc3c2)cc(OC)c1OC (3D coordinates assigned)
COc1cc(CC(=O)Oc2ccc3cc(S([NH-])(=O)=O)ccc3c2)cc(OC)c1OC (optimized conformer: 60.31992700610568 kcal/mol)

>  <smiles>  (93) 
COc1cc(CC(=O)Oc2ccc3cc(S(N)(=O)=O)ccc3c2)cc(OC)c1OC

>  <score_type>  (93) 
oracle

>  <origin>  (93) 
adg

>  <m_score__min__energy>  (93) 
-10.720000000000001

>  <m_primary>  (93) 
energy

$$$$
93:0
     RDKit          3D

 49 51  0  0  0  0  0  0  0  0999 V2000
   55.5020   29.7360   43.4380 C   0  0  0  0  0  0  0  0  0  0  0  0
   55.5040   29.1580   44.7390 O   0  0  0  0  0  0  0  0  0  0  0  0
   56.6550   28.7590   45.4360 C   0  0  0  0  0  0  0  0  0  0  0  0
   57.7440   29.6340   45.6260 C   0  0  0  0  0  0  0  0  0  0  0  0
   58.8510   29.2460   46.3990 C   0  0  0  0  0  0  0  0  0  0  0  0
   59.9790   30.1190   46.5870 N   0  0  0  0  0  0  0  0  0  0  0  0
   60.1560   30.9630   47.7380 C   0  0  0  0  0  0  0  0  0  0  0  0
   59.4660   30.7610   48.7730 O   0  0  0  0  0  0  0  0  0  0  0  0
   61.1700   32.0440   47.7100 C   0  0  0  0  0  0  0  0  0  0  0  0
   62.2130   31.8800   47.0250 O   0  0  0  0  0  0  0  0  0  0  0  0
   61.0220   33.2790   48.4270 N   0  0  0  0  0  0  0  0  0  0  0  0
   59.8120   34.0840   48.5250 C   0  0  0  0  0  0  0  0  0  0  0  0
   59.0760   34.0350   47.2170 C   0  0  0  0  0  0  0  0  0  0  0  0
   59.6150   34.6570   46.0790 C   0  0  0  0  0  0  0  0  0  0  0  0
   58.9470   34.5800   44.8520 C   0  0  0  0  0  0  0  0  0  0  0  0
   57.7450   33.8730   44.7510 C   0  0  0  0  0  0  0  0  0  0  0  0
   57.2110   33.2380   45.8760 C   0  0  0  0  0  0  0  0  0  0  0  0
   57.8760   33.3130   47.1050 C   0  0  0  0  0  0  0  0  0  0  0  0
   58.8770   27.9640   46.9600 C   0  0  0  0  0  0  0  0  0  0  0  0
   57.8090   27.0860   46.7690 C   0  0  0  0  0  0  0  0  0  0  0  0
   56.7130   27.4600   45.9830 C   0  0  0  0  0  0  0  0  0  0  0  0
   55.6550   26.5080   45.7960 N   0  0  0  0  0  0  0  0  0  0  0  0
   55.7430   25.0910   46.0070 C   0  0  0  0  0  0  0  0  0  0  0  0
   55.5630   24.6390   47.1690 O   0  0  0  0  0  0  0  0  0  0  0  0
   56.0530   24.1490   44.9090 C   0  0  0  0  0  0  0  0  0  0  0  0
   55.0480   23.8410   43.9760 C   0  0  0  0  0  0  0  0  0  0  0  0
   55.3130   22.9910   42.9000 C   0  0  0  0  0  0  0  0  0  0  0  0
   56.5790   22.4220   42.7540 C   0  0  0  0  0  0  0  0  0  0  0  0
   57.5780   22.6920   43.6930 C   0  0  0  0  0  0  0  0  0  0  0  0
   57.3230   23.5440   44.7740 C   0  0  0  0  0  0  0  0  0  0  0  0
   58.5890   23.7490   45.9820 Cl  0  0  0  0  0  0  0  0  0  0  0  0
   55.4982   30.8326   43.5240 H   0  0  0  0  0  0  0  0  0  0  0  0
   56.4013   29.4141   42.8924 H   0  0  0  0  0  0  0  0  0  0  0  0
   54.6050   29.4079   42.8924 H   0  0  0  0  0  0  0  0  0  0  0  0
   57.7267   30.6320   45.1637 H   0  0  0  0  0  0  0  0  0  0  0  0
   60.7560   30.0650   45.8910 H   0  0  0  0  0  0  0  0  0  0  0  0
   59.1691   33.6853   49.3235 H   0  0  0  0  0  0  0  0  0  0  0  0
   60.0799   35.1251   48.7583 H   0  0  0  0  0  0  0  0  0  0  0  0
   60.5652   35.2063   46.1525 H   0  0  0  0  0  0  0  0  0  0  0  0
   59.3682   35.0765   43.9654 H   0  0  0  0  0  0  0  0  0  0  0  0
   57.2196   33.8165   43.7863 H   0  0  0  0  0  0  0  0  0  0  0  0
   56.2672   32.6788   45.7951 H   0  0  0  0  0  0  0  0  0  0  0  0
   57.4577   32.8049   47.9864 H   0  0  0  0  0  0  0  0  0  0  0  0
   59.7454   27.6461   47.5557 H   0  0  0  0  0  0  0  0  0  0  0  0
   57.8288   26.0921   47.2400 H   0  0  0  0  0  0  0  0  0  0  0  0
   54.0435   24.2734   44.0944 H   0  0  0  0  0  0  0  0  0  0  0  0
   54.5232   22.7698   42.1670 H   0  0  0  0  0  0  0  0  0  0  0  0
   56.7903   21.7614   41.9002 H   0  0  0  0  0  0  0  0  0  0  0  0
   58.5711   22.2321   43.5820 H   0  0  0  0  0  0  0  0  0  0  0  0
  1  2  1  0
  2  3  1  0
  3  4  2  0
  4  5  1  0
  5  6  1  0
  6  7  1  0
  7  8  2  0
  7  9  1  0
  9 10  2  0
  9 11  1  0
 11 12  1  0
 12 13  1  0
 13 14  2  0
 14 15  1  0
 15 16  2  0
 16 17  1  0
 17 18  2  0
  5 19  2  0
 19 20  1  0
 20 21  2  0
 21 22  1  0
 22 23  1  0
 23 24  2  0
 23 25  1  0
 25 26  2  0
 26 27  1  0
 27 28  2  0
 28 29  1  0
 29 30  2  0
 30 31  1  0
 21  3  1  0
 30 25  1  0
 18 13  1  0
  1 32  1  0
  1 33  1  0
  1 34  1  0
  4 35  1  0
  6 36  1  0
 12 37  1  0
 12 38  1  0
 14 39  1  0
 15 40  1  0
 16 41  1  0
 17 42  1  0
 18 43  1  0
 19 44  1  0
 20 45  1  0
 26 46  1  0
 27 47  1  0
 28 48  1  0
 29 49  1  0
M  CHG  2  11  -1  22  -1
M  END
>  <UniqueID>  (94) 
88

>  <SMILES>  (94) 
COc1cc(NC(=O)C(=O)[N-]Cc2ccccc2)ccc1[N-]C(=O)c1ccccc1Cl

>  <Energy>  (94) 
64.321454835646

>  <Genealogy>  (94) 
COc1cc(NC(=O)C(=O)[N-]Cc2ccccc2)ccc1[N-]C(=O)c1ccccc1Cl (protonated)
COc1cc(NC(=O)C(=O)[N-]Cc2ccccc2)ccc1[N-]C(=O)c1ccccc1Cl (3D coordinates assigned)
COc1cc(NC(=O)C(=O)[N-]Cc2ccccc2)ccc1[N-]C(=O)c1ccccc1Cl (optimized conformer: 64.321454835646 kcal/mol)

>  <smiles>  (94) 
COc1cc(NC(=O)C(=O)NCc2ccccc2)ccc1NC(=O)c1ccccc1Cl

>  <score_type>  (94) 
oracle

>  <origin>  (94) 
adg

>  <m_score__min__energy>  (94) 
-11.67

>  <m_primary>  (94) 
energy

$$$$
94:0
     RDKit          3D

 45 48  0  0  0  0  0  0  0  0999 V2000
   59.7440   23.1210   44.7590 H   0  0  0  0  0  0  0  0  0  0  0  0
   60.1590   23.6750   45.5400 N   0  0  0  0  0  0  0  0  0  0  0  0
   59.5240   24.6810   46.0450 C   0  0  0  0  0  0  0  0  0  0  0  0
   60.1190   25.6230   46.8520 O   0  0  0  0  0  0  0  0  0  0  0  0
   59.2010   26.5550   47.2580 N   0  0  0  0  0  0  0  0  0  0  0  0
   59.5230   27.6000   48.1950 C   0  0  0  0  0  0  0  0  0  0  0  0
   58.6530   28.6870   48.4080 C   0  0  0  0  0  0  0  0  0  0  0  0
   57.7039   28.7439   47.8548 H   0  0  0  0  0  0  0  0  0  0  0  0
   58.9880   29.6940   49.3180 C   0  0  0  0  0  0  0  0  0  0  0  0
   58.3032   30.5400   49.4773 H   0  0  0  0  0  0  0  0  0  0  0  0
   60.1900   29.6280   50.0250 C   0  0  0  0  0  0  0  0  0  0  0  0
   60.4526   30.4227   50.7388 H   0  0  0  0  0  0  0  0  0  0  0  0
   61.0590   28.5530   49.8260 C   0  0  0  0  0  0  0  0  0  0  0  0
   62.0050   28.5006   50.3849 H   0  0  0  0  0  0  0  0  0  0  0  0
   60.7280   27.5430   48.9170 C   0  0  0  0  0  0  0  0  0  0  0  0
   61.4156   26.6978   48.7658 H   0  0  0  0  0  0  0  0  0  0  0  0
   57.8770   26.2690   46.6860 C   0  0  1  0  0  0  0  0  0  0  0  0
   57.0982   26.1217   47.4487 H   0  0  0  0  0  0  0  0  0  0  0  0
   57.3500   27.4570   45.8760 C   0  0  0  0  0  0  0  0  0  0  0  0
   55.9790   27.6260   45.6190 C   0  0  0  0  0  0  0  0  0  0  0  0
   55.0410   26.7140   46.0900 O   0  0  0  0  0  0  0  0  0  0  0  0
   55.5510   28.6990   44.9150 N   0  0  0  0  0  0  0  0  0  0  0  0
   56.4100   29.6390   44.4520 C   0  0  0  0  0  0  0  0  0  0  0  0
   55.9470   30.6120   43.7980 O   0  0  0  0  0  0  0  0  0  0  0  0
   57.7550   29.5300   44.6980 N   0  0  0  0  0  0  0  0  0  0  0  0
   58.6850   30.5850   44.2440 C   0  0  0  0  0  0  0  0  0  0  0  0
   59.7198   30.2307   44.3610 H   0  0  0  0  0  0  0  0  0  0  0  0
   58.4796   30.8107   43.1872 H   0  0  0  0  0  0  0  0  0  0  0  0
   58.4950   31.8390   45.0570 C   0  0  0  0  0  0  0  0  0  0  0  0
   57.7920   32.9340   44.5240 C   0  0  0  0  0  0  0  0  0  0  0  0
   57.3545   32.8666   43.5170 H   0  0  0  0  0  0  0  0  0  0  0  0
   57.6470   34.1080   45.2690 C   0  0  0  0  0  0  0  0  0  0  0  0
   57.0930   34.9600   44.8480 H   0  0  0  0  0  0  0  0  0  0  0  0
   58.2040   34.2020   46.5470 C   0  0  0  0  0  0  0  0  0  0  0  0
   58.0889   35.1270   47.1310 H   0  0  0  0  0  0  0  0  0  0  0  0
   58.9080   33.1190   47.0830 C   0  0  0  0  0  0  0  0  0  0  0  0
   59.3465   33.1924   48.0892 H   0  0  0  0  0  0  0  0  0  0  0  0
   59.0550   31.9430   46.3410 C   0  0  0  0  0  0  0  0  0  0  0  0
   59.6122   31.0947   46.7651 H   0  0  0  0  0  0  0  0  0  0  0  0
   58.2300   28.4550   45.4120 C   0  0  0  0  0  0  0  0  0  0  0  0
   59.4640   28.3570   45.6580 O   0  0  0  0  0  0  0  0  0  0  0  0
   58.0700   24.9510   45.8630 C   0  0  1  0  0  0  0  0  0  0  0  0
   57.3907   24.1606   46.2149 H   0  0  0  0  0  0  0  0  0  0  0  0
   57.7340   25.0490   44.4300 C   0  0  0  0  0  0  0  0  0  0  0  0
   57.4710   25.1240   43.3060 N   0  0  0  0  0  0  0  0  0  0  0  0
  1  2  1  0
  2  3  2  0
  3  4  1  0
  4  5  1  0
  5  6  1  0
  6  7  2  0
  7  8  1  0
  7  9  1  0
  9 10  1  0
  9 11  2  0
 11 12  1  0
 11 13  1  0
 13 14  1  0
 13 15  2  0
 15 16  1  0
  5 17  1  0
 17 18  1  1
 17 19  1  0
 19 20  2  0
 20 21  1  0
 20 22  1  0
 22 23  1  0
 23 24  2  0
 23 25  1  0
 25 26  1  0
 26 27  1  0
 26 28  1  0
 26 29  1  0
 29 30  2  0
 30 31  1  0
 30 32  1  0
 32 33  1  0
 32 34  2  0
 34 35  1  0
 34 36  1  0
 36 37  1  0
 36 38  2  0
 38 39  1  0
 25 40  1  0
 40 41  2  0
 17 42  1  0
 42 43  1  1
 42 44  1  0
 44 45  3  0
 42  3  1  0
 15  6  1  0
 40 19  1  0
 38 29  1  0
M  CHG  2  21  -1  22  -1
M  END
>  <UniqueID>  (95) 
89

>  <SMILES>  (95) 
[H]/N=C1\ON(c2ccccc2)[C@@H](c2c([O-])[n-]c(=O)n(Cc3ccccc3)c2=O)[C@H]1C#N

>  <Energy>  (95) 
71.3821230331457

>  <Genealogy>  (95) 
N#CC1C(=N)ON(c2ccccc2)C1c1c([O-])[n-]c(=O)n(Cc2ccccc2)c1=O (protonated)
N#C[C@H]1C(=N)ON(c2ccccc2)[C@H]1c1c([O-])[n-]c(=O)n(Cc2ccccc2)c1=O (chirality)
[H]/N=C1\ON(c2ccccc2)[C@@H](c2c([O-])[n-]c(=O)n(Cc3ccccc3)c2=O)[C@H]1C#N (cis-trans isomerization)
[H]/N=C1\ON(c2ccccc2)[C@@H](c2c([O-])[n-]c(=O)n(Cc3ccccc3)c2=O)[C@H]1C#N (3D coordinates assigned)
[H]/N=C1\ON(c2ccccc2)[C@@H](c2c([O-])[n-]c(=O)n(Cc3ccccc3)c2=O)[C@H]1C#N (nonaromatic ring conformer: 71.3821230331457 kcal/mol)

>  <smiles>  (95) 
N#CC1C(=N)ON(c2ccccc2)C1c1c(O)[nH]c(=O)n(Cc2ccccc2)c1=O

>  <score_type>  (95) 
oracle

>  <origin>  (95) 
adg

>  <m_score__min__energy>  (95) 
-12.779999999999999

>  <m_primary>  (95) 
energy

$$$$
95:0
     RDKit          3D

 51 53  0  0  0  0  0  0  0  0999 V2000
   60.7890   26.3550   46.4170 C   0  0  0  0  0  0  0  0  0  0  0  0
   59.5520   27.0820   45.9580 C   0  0  0  0  0  0  0  0  0  0  0  0
   59.6710   28.1150   45.0130 C   0  0  0  0  0  0  0  0  0  0  0  0
   58.5420   28.8050   44.5680 C   0  0  0  0  0  0  0  0  0  0  0  0
   57.2780   28.4740   45.0630 C   0  0  0  0  0  0  0  0  0  0  0  0
   55.8280   29.3640   44.4910 S   0  0  0  0  0  0  0  0  0  0  0  0
   56.6980   30.2490   43.1480 C   0  0  0  0  0  0  0  0  0  0  0  0
   57.2160   31.5900   43.5990 C   0  0  0  0  0  0  0  0  0  0  0  0
   58.0240   32.2090   42.8570 O   0  0  0  0  0  0  0  0  0  0  0  0
   56.8770   32.1590   44.8710 N   0  0  0  0  0  0  0  0  0  0  0  0
   57.7900   32.4650   45.9310 C   0  0  0  0  0  0  0  0  0  0  0  0
   57.9890   33.7840   46.3670 C   0  0  0  0  0  0  0  0  0  0  0  0
   58.8960   34.0560   47.3950 C   0  0  0  0  0  0  0  0  0  0  0  0
   59.6280   33.0150   47.9830 C   0  0  0  0  0  0  0  0  0  0  0  0
   60.7820   33.3380   49.2730 S   0  0  0  0  0  0  0  0  0  0  0  0
   60.1540   34.2240   50.3140 O   0  0  0  0  0  0  0  0  0  0  0  0
   61.1580   32.0300   49.9110 O   0  0  0  0  0  0  0  0  0  0  0  0
   62.2000   34.1090   48.5920 N   0  0  0  0  0  0  0  0  0  0  0  0
   62.4580   33.6530   47.2150 C   0  0  0  0  0  0  0  0  0  0  0  0
   63.0480   32.2230   47.1690 C   0  0  0  0  0  0  0  0  0  0  0  0
   63.5920   31.7920   48.4040 O   0  0  0  0  0  0  0  0  0  0  0  0
   64.3290   32.8340   49.0020 C   0  0  0  0  0  0  0  0  0  0  0  0
   63.3840   33.9570   49.4670 C   0  0  0  0  0  0  0  0  0  0  0  0
   59.4540   31.7030   47.5260 C   0  0  0  0  0  0  0  0  0  0  0  0
   58.5460   31.4310   46.4980 C   0  0  0  0  0  0  0  0  0  0  0  0
   57.1430   27.4370   45.9910 C   0  0  0  0  0  0  0  0  0  0  0  0
   58.2700   26.7320   46.4460 C   0  0  0  0  0  0  0  0  0  0  0  0
   58.0920   25.6300   47.4570 C   0  0  0  0  0  0  0  0  0  0  0  0
   60.8177   26.3382   47.5165 H   0  0  0  0  0  0  0  0  0  0  0  0
   60.7712   25.3237   46.0348 H   0  0  0  0  0  0  0  0  0  0  0  0
   61.6814   26.8723   46.0348 H   0  0  0  0  0  0  0  0  0  0  0  0
   60.6630   28.3825   44.6202 H   0  0  0  0  0  0  0  0  0  0  0  0
   58.6476   29.6106   43.8265 H   0  0  0  0  0  0  0  0  0  0  0  0
   57.5464   29.6359   42.8100 H   0  0  0  0  0  0  0  0  0  0  0  0
   55.9800   30.4189   42.3321 H   0  0  0  0  0  0  0  0  0  0  0  0
   57.4292   34.6066   45.8981 H   0  0  0  0  0  0  0  0  0  0  0  0
   59.0359   35.0899   47.7437 H   0  0  0  0  0  0  0  0  0  0  0  0
   61.5106   33.6626   46.6561 H   0  0  0  0  0  0  0  0  0  0  0  0
   63.1960   34.3353   46.7680 H   0  0  0  0  0  0  0  0  0  0  0  0
   62.2476   31.5261   46.8799 H   0  0  0  0  0  0  0  0  0  0  0  0
   63.8733   32.2387   46.4419 H   0  0  0  0  0  0  0  0  0  0  0  0
   64.8779   32.4389   49.8695 H   0  0  0  0  0  0  0  0  0  0  0  0
   65.0351   33.2426   48.2641 H   0  0  0  0  0  0  0  0  0  0  0  0
   63.0405   33.7277   50.4865 H   0  0  0  0  0  0  0  0  0  0  0  0
   63.9474   34.9010   49.4290 H   0  0  0  0  0  0  0  0  0  0  0  0
   60.0333   30.8838   47.9770 H   0  0  0  0  0  0  0  0  0  0  0  0
   58.4248   30.4004   46.1329 H   0  0  0  0  0  0  0  0  0  0  0  0
   56.1448   27.1705   46.3686 H   0  0  0  0  0  0  0  0  0  0  0  0
   58.1597   26.0490   48.4718 H   0  0  0  0  0  0  0  0  0  0  0  0
   57.1065   25.1613   47.3188 H   0  0  0  0  0  0  0  0  0  0  0  0
   58.8798   24.8748   47.3188 H   0  0  0  0  0  0  0  0  0  0  0  0
  1  2  1  0
  2  3  2  0
  3  4  1  0
  4  5  2  0
  5  6  1  0
  6  7  1  0
  7  8  1  0
  8  9  2  0
  8 10  1  0
 10 11  1  0
 11 12  2  0
 12 13  1  0
 13 14  2  0
 14 15  1  0
 15 16  2  0
 15 17  2  0
 15 18  1  0
 18 19  1  0
 19 20  1  0
 20 21  1  0
 21 22  1  0
 22 23  1  0
 14 24  1  0
 24 25  2  0
  5 26  1  0
 26 27  2  0
 27 28  1  0
 27  2  1  0
 25 11  1  0
 23 18  1  0
  1 29  1  0
  1 30  1  0
  1 31  1  0
  3 32  1  0
  4 33  1  0
  7 34  1  0
  7 35  1  0
 12 36  1  0
 13 37  1  0
 19 38  1  0
 19 39  1  0
 20 40  1  0
 20 41  1  0
 22 42  1  0
 22 43  1  0
 23 44  1  0
 23 45  1  0
 24 46  1  0
 25 47  1  0
 26 48  1  0
 28 49  1  0
 28 50  1  0
 28 51  1  0
M  CHG  1  10  -1
M  END
>  <UniqueID>  (96) 
90

>  <SMILES>  (96) 
Cc1ccc(SCC(=O)[N-]c2ccc(S(=O)(=O)N3CCOCC3)cc2)cc1C

>  <Energy>  (96) 
63.2625796189046

>  <Genealogy>  (96) 
Cc1ccc(SCC(=O)[N-]c2ccc(S(=O)(=O)N3CCOCC3)cc2)cc1C (protonated)
Cc1ccc(SCC(=O)[N-]c2ccc(S(=O)(=O)N3CCOCC3)cc2)cc1C (3D coordinates assigned)
Cc1ccc(SCC(=O)[N-]c2ccc(S(=O)(=O)N3CCOCC3)cc2)cc1C (nonaromatic ring conformer: 63.2625796189046 kcal/mol)

>  <smiles>  (96) 
Cc1ccc(SCC(=O)Nc2ccc(S(=O)(=O)N3CCOCC3)cc2)cc1C

>  <score_type>  (96) 
oracle

>  <origin>  (96) 
adg

>  <m_score__min__energy>  (96) 
-10.51

>  <m_primary>  (96) 
energy

$$$$
