0:0
     RDKit          3D

 41 43  0  0  0  0  0  0  0  0999 V2000
   60.3030   34.5790   49.6500 O   0  0  0  0  0  0  0  0  0  0  0  0
   61.0110   34.0650   48.7150 C   0  0  0  0  0  0  0  0  0  0  0  0
   60.2690   33.6040   47.5600 C   0  0  0  0  0  0  0  0  0  0  0  0
   59.6090   32.3710   47.6600 C   0  0  0  0  0  0  0  0  0  0  0  0
   58.8890   31.8580   46.5960 C   0  0  0  0  0  0  0  0  0  0  0  0
   58.7870   32.5340   45.3970 C   0  0  0  0  0  0  0  0  0  0  0  0
   58.0150   31.9370   44.2850 C   0  0  0  0  0  0  0  0  0  0  0  0
   57.4810   30.6020   44.6320 C   0  0  0  0  0  0  0  0  0  0  0  0
   58.3430   29.5200   44.7310 C   0  0  0  0  0  0  0  0  0  0  0  0
   57.9240   28.2720   45.0560 C   0  0  0  0  0  0  0  0  0  0  0  0
   56.5750   28.0790   45.2950 C   0  0  0  0  0  0  0  0  0  0  0  0
   56.1560   26.9400   45.5990 O   0  0  0  0  0  0  0  0  0  0  0  0
   55.7680   29.1480   45.1900 N   0  0  0  0  0  0  0  0  0  0  0  0
   56.1780   30.3590   44.8750 N   0  0  0  0  0  0  0  0  0  0  0  0
   59.4350   33.7520   45.2930 C   0  0  0  0  0  0  0  0  0  0  0  0
   60.1590   34.2640   46.3630 C   0  0  0  0  0  0  0  0  0  0  0  0
   62.3840   34.0150   48.9260 N   0  0  0  0  0  0  0  0  0  0  0  0
   62.8700   34.5680   50.2040 C   0  0  0  0  0  0  0  0  0  0  0  0
   64.1720   33.8740   50.4920 C   0  0  0  0  0  0  0  0  0  0  0  0
   64.1420   32.4170   50.0950 C   0  0  0  0  0  0  0  0  0  0  0  0
   63.9140   32.2050   48.6270 C   0  0  0  0  0  0  0  0  0  0  0  0
   63.3890   33.4900   48.0420 C   0  0  0  0  0  0  0  0  0  0  0  0
   59.6646   31.8023   48.5999 H   0  0  0  0  0  0  0  0  0  0  0  0
   58.3850   30.8867   46.7084 H   0  0  0  0  0  0  0  0  0  0  0  0
   57.1742   32.6025   44.0396 H   0  0  0  0  0  0  0  0  0  0  0  0
   58.6934   31.8179   43.4273 H   0  0  0  0  0  0  0  0  0  0  0  0
   59.4137   29.6814   44.5373 H   0  0  0  0  0  0  0  0  0  0  0  0
   58.6363   27.4369   45.1276 H   0  0  0  0  0  0  0  0  0  0  0  0
   54.7500   28.9630   45.3820 H   0  0  0  0  0  0  0  0  0  0  0  0
   59.3765   34.3211   44.3535 H   0  0  0  0  0  0  0  0  0  0  0  0
   60.6626   35.2349   46.2454 H   0  0  0  0  0  0  0  0  0  0  0  0
   63.0276   35.6530   50.1149 H   0  0  0  0  0  0  0  0  0  0  0  0
   62.1423   34.4077   51.0132 H   0  0  0  0  0  0  0  0  0  0  0  0
   64.9734   34.3775   49.9314 H   0  0  0  0  0  0  0  0  0  0  0  0
   64.3491   33.9249   51.5765 H   0  0  0  0  0  0  0  0  0  0  0  0
   65.1052   31.9611   50.3679 H   0  0  0  0  0  0  0  0  0  0  0  0
   63.2977   31.9527   50.6256 H   0  0  0  0  0  0  0  0  0  0  0  0
   64.8613   31.9331   48.1385 H   0  0  0  0  0  0  0  0  0  0  0  0
   63.1906   31.3917   48.4683 H   0  0  0  0  0  0  0  0  0  0  0  0
   64.2102   34.2149   47.9412 H   0  0  0  0  0  0  0  0  0  0  0  0
   62.9570   33.3034   47.0477 H   0  0  0  0  0  0  0  0  0  0  0  0
  1  2  2  0
  2  3  1  0
  3  4  2  0
  4  5  1  0
  5  6  2  0
  6  7  1  0
  7  8  1  0
  8  9  1  0
  9 10  2  0
 10 11  1  0
 11 12  2  0
 11 13  1  0
 13 14  1  0
  6 15  1  0
 15 16  2  0
  2 17  1  0
 17 18  1  0
 18 19  1  0
 19 20  1  0
 20 21  1  0
 21 22  1  0
 16  3  1  0
 22 17  1  0
 14  8  2  0
  4 23  1  0
  5 24  1  0
  7 25  1  0
  7 26  1  0
  9 27  1  0
 10 28  1  0
 13 29  1  0
 15 30  1  0
 16 31  1  0
 18 32  1  0
 18 33  1  0
 19 34  1  0
 19 35  1  0
 20 36  1  0
 20 37  1  0
 21 38  1  0
 21 39  1  0
 22 40  1  0
 22 41  1  0
M  END
>  <smiles>  (1) 
O=C(c1ccc(Cc2ccc(=O)[nH]n2)cc1)N1CCCCC1

>  <score_type>  (1) 
oracle

>  <origin>  (1) 
adg

>  <m_score__min__energy>  (1) 
-8.5600000000000005

>  <m_primary>  (1) 
energy

$$$$
1:0
     RDKit          3D

 21 21  0  0  0  0  0  0  0  0999 V2000
   57.0610   30.8400   43.3130 C   0  0  0  0  0  0  0  0  0  0  0  0
   57.6050   30.5020   44.4810 C   0  0  0  0  0  0  0  0  0  0  0  0
   57.5800   29.1230   45.0220 C   0  0  0  0  0  0  0  0  0  0  0  0
   58.8060   28.4870   45.2700 C   0  0  0  0  0  0  0  0  0  0  0  0
   58.8440   27.1890   45.7810 C   0  0  0  0  0  0  0  0  0  0  0  0
   60.0760   26.5870   46.0330 O   0  0  0  0  0  0  0  0  0  0  0  0
   57.6520   26.5040   46.0370 C   0  0  0  0  0  0  0  0  0  0  0  0
   56.4110   27.1100   45.7680 C   0  0  0  0  0  0  0  0  0  0  0  0
   55.1920   26.4500   45.9930 O   0  0  0  0  0  0  0  0  0  0  0  0
   54.9320   25.0960   45.6410 C   0  0  0  0  0  0  0  0  0  0  0  0
   56.3790   28.4140   45.2490 C   0  0  0  0  0  0  0  0  0  0  0  0
   55.1480   28.9800   44.9340 O   0  0  0  0  0  0  0  0  0  0  0  0
   57.1115   31.8819   42.9637 H   0  0  0  0  0  0  0  0  0  0  0  0
   56.5613   30.0773   42.6978 H   0  0  0  0  0  0  0  0  0  0  0  0
   58.0978   31.2866   45.0739 H   0  0  0  0  0  0  0  0  0  0  0  0
   59.7466   29.0170   45.0595 H   0  0  0  0  0  0  0  0  0  0  0  0
   60.9480   27.0340   45.7750 H   0  0  0  0  0  0  0  0  0  0  0  0
   57.6848   25.4854   46.4511 H   0  0  0  0  0  0  0  0  0  0  0  0
   54.8166   24.4952   46.5552 H   0  0  0  0  0  0  0  0  0  0  0  0
   54.0072   25.0424   45.0479 H   0  0  0  0  0  0  0  0  0  0  0  0
   55.7712   24.7037   45.0479 H   0  0  0  0  0  0  0  0  0  0  0  0
  1  2  2  0
  2  3  1  0
  3  4  2  0
  4  5  1  0
  5  6  1  0
  5  7  2  0
  7  8  1  0
  8  9  1  0
  9 10  1  0
  8 11  2  0
 11 12  1  0
 11  3  1  0
  1 13  1  0
  1 14  1  0
  2 15  1  0
  4 16  1  0
  6 17  1  0
  7 18  1  0
 10 19  1  0
 10 20  1  0
 10 21  1  0
M  CHG  1  12  -1
M  END
>  <UniqueID>  (2) 
1

>  <SMILES>  (2) 
C=Cc1cc(O)cc(OC)c1[O-]

>  <Energy>  (2) 
22.554838575824068

>  <Genealogy>  (2) 
C=Cc1cc(O)cc(OC)c1[O-] (protonated)
C=Cc1cc(O)cc(OC)c1[O-] (3D coordinates assigned)
C=Cc1cc(O)cc(OC)c1[O-] (optimized conformer: 22.554838575824068 kcal/mol)

>  <smiles>  (2) 
C=Cc1cc(O)cc(OC)c1O

>  <score_type>  (2) 
oracle

>  <origin>  (2) 
adg

>  <m_score__min__energy>  (2) 
-9.4900000000000002

>  <m_primary>  (2) 
energy

$$$$
2:0
     RDKit          3D

 32 33  0  0  0  0  0  0  0  0999 V2000
   58.1571   34.1938   43.8803 H   0  0  0  0  0  0  0  0  0  0  0  0
   57.9990   33.1580   44.2150 C   0  0  0  0  0  0  0  0  0  0  0  0
   57.9810   32.6770   45.5120 C   0  0  0  0  0  0  0  0  0  0  0  0
   58.0960   33.5060   46.7510 C   0  0  0  0  0  0  0  0  0  0  0  0
   56.9040   33.4590   47.4480 F   0  0  0  0  0  0  0  0  0  0  0  0
   59.1120   33.0190   47.5540 F   0  0  0  0  0  0  0  0  0  0  0  0
   58.3780   34.8180   46.4160 F   0  0  0  0  0  0  0  0  0  0  0  0
   57.7310   31.3520   45.5100 N   0  0  0  0  0  0  0  0  0  0  0  0
   57.6240   30.9690   44.2470 N   0  0  0  0  0  0  0  0  0  0  0  0
   57.2910   29.6010   43.8540 C   0  0  0  0  0  0  0  0  0  0  0  0
   58.2090   28.9956   43.8271 H   0  0  0  0  0  0  0  0  0  0  0  0
   56.8246   29.6139   42.8579 H   0  0  0  0  0  0  0  0  0  0  0  0
   56.3340   29.0070   44.8380 C   0  0  0  0  0  0  0  0  0  0  0  0
   55.1410   29.4140   44.8630 O   0  0  0  0  0  0  0  0  0  0  0  0
   56.7800   27.9520   45.7040 N   0  0  0  0  0  0  0  0  0  0  0  0
   56.3690   26.7200   45.6840 C   0  0  0  0  0  0  0  0  0  0  0  0
   55.1430   26.3140   46.0830 N   0  0  0  0  0  0  0  0  0  0  0  0
   54.9650   25.0010   45.9560 N   0  0  0  0  0  0  0  0  0  0  0  0
   56.0510   24.3600   45.4680 C   0  0  0  0  0  0  0  0  0  0  0  0
   56.0830   22.8930   45.1760 C   0  0  0  0  0  0  0  0  0  0  0  0
   55.0830   22.4683   45.3481 H   0  0  0  0  0  0  0  0  0  0  0  0
   56.8187   22.4153   45.8397 H   0  0  0  0  0  0  0  0  0  0  0  0
   56.4910   22.6430   43.7300 C   0  0  0  0  0  0  0  0  0  0  0  0
   57.4287   22.0684   43.7077 H   0  0  0  0  0  0  0  0  0  0  0  0
   55.7002   22.0742   43.2190 H   0  0  0  0  0  0  0  0  0  0  0  0
   56.6387   23.6058   43.2190 H   0  0  0  0  0  0  0  0  0  0  0  0
   57.3080   25.4360   45.1400 S   0  0  0  0  0  0  0  0  0  0  0  0
   57.7730   32.0400   43.4370 C   0  0  0  0  0  0  0  0  0  0  0  0
   57.6590   32.0250   41.9440 C   0  0  0  0  0  0  0  0  0  0  0  0
   56.6059   31.8864   41.6581 H   0  0  0  0  0  0  0  0  0  0  0  0
   58.0265   32.9792   41.5386 H   0  0  0  0  0  0  0  0  0  0  0  0
   58.2608   31.1983   41.5386 H   0  0  0  0  0  0  0  0  0  0  0  0
  1  2  1  0
  2  3  1  0
  3  4  1  0
  4  5  1  0
  4  6  1  0
  4  7  1  0
  3  8  2  0
  8  9  1  0
  9 10  1  0
 10 11  1  0
 10 12  1  0
 10 13  1  0
 13 14  2  0
 13 15  1  0
 15 16  2  0
 16 17  1  0
 17 18  1  0
 18 19  2  0
 19 20  1  0
 20 21  1  0
 20 22  1  0
 20 23  1  0
 23 24  1  0
 23 25  1  0
 23 26  1  0
 19 27  1  0
  9 28  1  0
 28 29  1  0
 29 30  1  0
 29 31  1  0
 29 32  1  0
 28  2  2  0
 27 16  1  0
M  CHG  1  17  -1
M  END
>  <UniqueID>  (3) 
2

>  <SMILES>  (3) 
CCc1n[n-]/c(=N\C(=O)Cn2nc(C(F)(F)F)cc2C)s1

>  <Energy>  (3) 
89.17738673497666

>  <Genealogy>  (3) 
CCc1n[n-]c(=NC(=O)Cn2nc(C(F)(F)F)cc2C)s1 (protonated)
CCc1n[n-]/c(=N\C(=O)Cn2nc(C(F)(F)F)cc2C)s1 (cis-trans isomerization)
CCc1n[n-]/c(=N\C(=O)Cn2nc(C(F)(F)F)cc2C)s1 (3D coordinates assigned)
CCc1n[n-]/c(=N\C(=O)Cn2nc(C(F)(F)F)cc2C)s1 (optimized conformer: 89.17738673497666 kcal/mol)

>  <smiles>  (3) 
CCc1n[nH]c(=NC(=O)Cn2nc(C(F)(F)F)cc2C)s1

>  <score_type>  (3) 
oracle

>  <origin>  (3) 
adg

>  <m_score__min__energy>  (3) 
-9.6099999999999994

>  <m_primary>  (3) 
energy

$$$$
3:0
     RDKit          3D

 35 36  0  0  0  0  0  0  0  0999 V2000
   60.0970   29.0940   47.8780 C   0  0  0  0  0  0  0  0  0  0  0  0
   60.2280   27.5800   47.9300 C   0  0  0  0  0  0  0  0  0  0  0  0
   60.3540   27.0680   46.6070 O   0  0  0  0  0  0  0  0  0  0  0  0
   59.2610   26.5990   45.8730 C   0  0  0  0  0  0  0  0  0  0  0  0
   59.1620   25.3740   45.5890 O   0  0  0  0  0  0  0  0  0  0  0  0
   58.2160   27.5530   45.4260 C   0  0  0  0  0  0  0  0  0  0  0  0
   58.5720   28.7860   44.8280 C   0  0  0  0  0  0  0  0  0  0  0  0
   59.9590   29.0560   44.5420 N   0  0  0  0  0  0  0  0  0  0  0  0
   57.5920   29.6930   44.4770 N   0  0  0  0  0  0  0  0  0  0  0  0
   57.9410   30.9750   43.8220 C   0  0  0  0  0  0  0  0  0  0  0  0
   58.1170   32.0770   44.8390 C   0  0  0  0  0  0  0  0  0  0  0  0
   58.3190   33.4040   44.4230 C   0  0  0  0  0  0  0  0  0  0  0  0
   58.4980   34.4200   45.3670 C   0  0  0  0  0  0  0  0  0  0  0  0
   58.4880   34.1190   46.7300 C   0  0  0  0  0  0  0  0  0  0  0  0
   58.3050   32.7990   47.1530 C   0  0  0  0  0  0  0  0  0  0  0  0
   58.1260   31.7800   46.2120 C   0  0  0  0  0  0  0  0  0  0  0  0
   56.2710   29.3790   44.6900 C   0  0  0  0  0  0  0  0  0  0  0  0
   55.3520   30.1780   44.3610 O   0  0  0  0  0  0  0  0  0  0  0  0
   55.9270   28.1980   45.2540 N   0  0  0  0  0  0  0  0  0  0  0  0
   56.8480   27.2830   45.6260 C   0  0  0  0  0  0  0  0  0  0  0  0
   56.3160   25.9110   46.3530 S   0  0  0  0  0  0  0  0  0  0  0  0
   60.0624   29.4944   48.9019 H   0  0  0  0  0  0  0  0  0  0  0  0
   60.9617   29.5188   47.3472 H   0  0  0  0  0  0  0  0  0  0  0  0
   59.1721   29.3640   47.3472 H   0  0  0  0  0  0  0  0  0  0  0  0
   61.1197   27.3091   48.5143 H   0  0  0  0  0  0  0  0  0  0  0  0
   59.3335   27.1510   48.4052 H   0  0  0  0  0  0  0  0  0  0  0  0
   60.7230   28.6050   45.0900 H   0  0  0  0  0  0  0  0  0  0  0  0
   60.2610   29.6910   43.7740 H   0  0  0  0  0  0  0  0  0  0  0  0
   58.8802   30.8487   43.2635 H   0  0  0  0  0  0  0  0  0  0  0  0
   57.1213   31.2543   43.1437 H   0  0  0  0  0  0  0  0  0  0  0  0
   58.3364   33.6446   43.3498 H   0  0  0  0  0  0  0  0  0  0  0  0
   58.6469   35.4581   45.0350 H   0  0  0  0  0  0  0  0  0  0  0  0
   58.6241   34.9203   47.4712 H   0  0  0  0  0  0  0  0  0  0  0  0
   58.3018   32.5617   48.2271 H   0  0  0  0  0  0  0  0  0  0  0  0
   57.9917   30.7414   46.5485 H   0  0  0  0  0  0  0  0  0  0  0  0
  1  2  1  0
  2  3  1  0
  3  4  1  0
  4  5  2  0
  4  6  1  0
  6  7  2  0
  7  8  1  0
  7  9  1  0
  9 10  1  0
 10 11  1  0
 11 12  2  0
 12 13  1  0
 13 14  2  0
 14 15  1  0
 15 16  2  0
  9 17  1  0
 17 18  2  0
 17 19  1  0
 19 20  1  0
 20 21  2  0
 20  6  1  0
 16 11  1  0
  1 22  1  0
  1 23  1  0
  1 24  1  0
  2 25  1  0
  2 26  1  0
  8 27  1  0
  8 28  1  0
 10 29  1  0
 10 30  1  0
 12 31  1  0
 13 32  1  0
 14 33  1  0
 15 34  1  0
 16 35  1  0
M  CHG  1  19  -1
M  END
>  <UniqueID>  (4) 
3

>  <SMILES>  (4) 
CCOC(=O)c1c(N)n(Cc2ccccc2)c(=O)[n-]c1=S

>  <Energy>  (4) 
45.480022325208516

>  <Genealogy>  (4) 
CCOC(=O)c1c(N)n(Cc2ccccc2)c(=O)[n-]c1=S (protonated)
CCOC(=O)c1c(N)n(Cc2ccccc2)c(=O)[n-]c1=S (3D coordinates assigned)
CCOC(=O)c1c(N)n(Cc2ccccc2)c(=O)[n-]c1=S (optimized conformer: 45.480022325208516 kcal/mol)

>  <smiles>  (4) 
CCOC(=O)c1c(N)n(Cc2ccccc2)c(=O)[nH]c1=S

>  <score_type>  (4) 
oracle

>  <origin>  (4) 
adg

>  <m_score__min__energy>  (4) 
-8.5299999999999994

>  <m_primary>  (4) 
energy

$$$$
4:0
     RDKit          3D

 60 63  0  0  0  0  0  0  0  0999 V2000
   61.7620   32.0750   46.8410 C   0  0  0  0  0  0  0  0  0  0  0  0
   61.2810   30.8970   47.6240 C   0  0  0  0  0  0  0  0  0  0  0  0
   61.0860   30.9910   48.9990 C   0  0  0  0  0  0  0  0  0  0  0  0
   60.6270   29.8770   49.7070 C   0  0  0  0  0  0  0  0  0  0  0  0
   60.4280   29.9670   51.2000 C   0  0  0  0  0  0  0  0  0  0  0  0
   59.0170   30.3820   51.5180 C   0  0  0  0  0  0  0  0  0  0  0  0
   58.5200   31.6190   51.0720 C   0  0  0  0  0  0  0  0  0  0  0  0
   57.1990   31.9860   51.3450 C   0  0  0  0  0  0  0  0  0  0  0  0
   56.3630   31.1220   52.0590 C   0  0  0  0  0  0  0  0  0  0  0  0
   55.0820   31.4800   52.3220 F   0  0  0  0  0  0  0  0  0  0  0  0
   56.8490   29.8870   52.5000 C   0  0  0  0  0  0  0  0  0  0  0  0
   58.1700   29.5160   52.2290 C   0  0  0  0  0  0  0  0  0  0  0  0
   60.3970   28.6800   49.0050 C   0  0  0  0  0  0  0  0  0  0  0  0
   60.0190   27.6510   49.6320 O   0  0  0  0  0  0  0  0  0  0  0  0
   60.5770   28.6430   47.6450 N   0  0  0  0  0  0  0  0  0  0  0  0
   60.2850   27.4340   46.8580 C   0  0  0  0  0  0  0  0  0  0  0  0
   58.8570   27.4310   46.3690 C   0  0  0  0  0  0  0  0  0  0  0  0
   58.4150   26.4130   45.7780 O   0  0  0  0  0  0  0  0  0  0  0  0
   57.9940   28.5660   46.5330 N   0  0  0  0  0  0  0  0  0  0  0  0
   57.8940   29.6560   45.6080 C   0  0  0  0  0  0  0  0  0  0  0  0
   57.6260   29.4120   44.2610 C   0  0  0  0  0  0  0  0  0  0  0  0
   57.5160   30.4730   43.3740 C   0  0  0  0  0  0  0  0  0  0  0  0
   57.6570   31.7870   43.8190 C   0  0  0  0  0  0  0  0  0  0  0  0
   57.5780   32.7670   42.8830 F   0  0  0  0  0  0  0  0  0  0  0  0
   57.9090   32.0830   45.1890 C   0  0  0  0  0  0  0  0  0  0  0  0
   58.0180   33.5790   45.6210 C   0  0  0  0  0  0  0  0  0  0  0  0
   56.9060   34.3850   44.9020 C   0  0  0  0  0  0  0  0  0  0  0  0
   59.4270   34.1180   45.2030 C   0  0  0  0  0  0  0  0  0  0  0  0
   60.0100   35.1130   46.2210 C   0  0  0  0  0  0  0  0  0  0  0  0
   60.1810   34.5570   47.5200 O   0  0  0  0  0  0  0  0  0  0  0  0
   59.1460   33.6580   47.9090 C   0  0  0  0  0  0  0  0  0  0  0  0
   57.8230   33.8530   47.1470 C   0  0  0  0  0  0  0  0  0  0  0  0
   58.0700   30.9680   46.0680 C   0  0  0  0  0  0  0  0  0  0  0  0
   58.3920   31.1020   47.3760 F   0  0  0  0  0  0  0  0  0  0  0  0
   61.0250   29.7220   46.9940 N   0  0  0  0  0  0  0  0  0  0  0  0
   62.0855   32.8673   47.5321 H   0  0  0  0  0  0  0  0  0  0  0  0
   62.6088   31.7730   46.2072 H   0  0  0  0  0  0  0  0  0  0  0  0
   60.9458   32.4520   46.2072 H   0  0  0  0  0  0  0  0  0  0  0  0
   61.2917   31.9352   49.5245 H   0  0  0  0  0  0  0  0  0  0  0  0
   60.6271   28.9841   51.6519 H   0  0  0  0  0  0  0  0  0  0  0  0
   61.1208   30.7181   51.6073 H   0  0  0  0  0  0  0  0  0  0  0  0
   59.1726   32.3003   50.5064 H   0  0  0  0  0  0  0  0  0  0  0  0
   56.8163   32.9569   50.9973 H   0  0  0  0  0  0  0  0  0  0  0  0
   56.1914   29.2065   53.0608 H   0  0  0  0  0  0  0  0  0  0  0  0
   58.5472   28.5420   52.5741 H   0  0  0  0  0  0  0  0  0  0  0  0
   60.9610   27.3987   45.9909 H   0  0  0  0  0  0  0  0  0  0  0  0
   60.4336   26.5552   47.5026 H   0  0  0  0  0  0  0  0  0  0  0  0
   57.5020   28.3795   43.9025 H   0  0  0  0  0  0  0  0  0  0  0  0
   57.3158   30.2760   42.3105 H   0  0  0  0  0  0  0  0  0  0  0  0
   56.2535   34.8579   45.6507 H   0  0  0  0  0  0  0  0  0  0  0  0
   57.3648   35.1617   44.2725 H   0  0  0  0  0  0  0  0  0  0  0  0
   56.3106   33.7073   44.2725 H   0  0  0  0  0  0  0  0  0  0  0  0
   60.1161   33.2656   45.1102 H   0  0  0  0  0  0  0  0  0  0  0  0
   59.3079   34.6518   44.2486 H   0  0  0  0  0  0  0  0  0  0  0  0
   60.9903   35.4522   45.8550 H   0  0  0  0  0  0  0  0  0  0  0  0
   59.2919   35.9410   46.3139 H   0  0  0  0  0  0  0  0  0  0  0  0
   59.4973   32.6305   47.7334 H   0  0  0  0  0  0  0  0  0  0  0  0
   58.9334   33.8598   48.9692 H   0  0  0  0  0  0  0  0  0  0  0  0
   57.0708   33.1563   47.5456 H   0  0  0  0  0  0  0  0  0  0  0  0
   57.4889   34.8926   47.2794 H   0  0  0  0  0  0  0  0  0  0  0  0
  1  2  1  0
  2  3  1  0
  3  4  2  0
  4  5  1  0
  5  6  1  0
  6  7  2  0
  7  8  1  0
  8  9  2  0
  9 10  1  0
  9 11  1  0
 11 12  2  0
  4 13  1  0
 13 14  2  0
 13 15  1  0
 15 16  1  0
 16 17  1  0
 17 18  2  0
 17 19  1  0
 19 20  1  0
 20 21  2  0
 21 22  1  0
 22 23  2  0
 23 24  1  0
 23 25  1  0
 25 26  1  0
 26 27  1  0
 26 28  1  0
 28 29  1  0
 29 30  1  0
 30 31  1  0
 31 32  1  0
 25 33  2  0
 33 34  1  0
 15 35  1  0
 35  2  2  0
 12  6  1  0
 33 20  1  0
 32 26  1  0
  1 36  1  0
  1 37  1  0
  1 38  1  0
  3 39  1  0
  5 40  1  0
  5 41  1  0
  7 42  1  0
  8 43  1  0
 11 44  1  0
 12 45  1  0
 16 46  1  0
 16 47  1  0
 21 48  1  0
 22 49  1  0
 27 50  1  0
 27 51  1  0
 27 52  1  0
 28 53  1  0
 28 54  1  0
 29 55  1  0
 29 56  1  0
 31 57  1  0
 31 58  1  0
 32 59  1  0
 32 60  1  0
M  CHG  1  19  -1
M  END
>  <UniqueID>  (5) 
4

>  <SMILES>  (5) 
Cc1cc(Cc2ccc(F)cc2)c(=O)n(CC(=O)[N-]c2ccc(F)c(C3(C)CCOCC3)c2F)n1

>  <Energy>  (5) 
88.97118786323544

>  <Genealogy>  (5) 
Cc1cc(Cc2ccc(F)cc2)c(=O)n(CC(=O)[N-]c2ccc(F)c(C3(C)CCOCC3)c2F)n1 (protonated)
Cc1cc(Cc2ccc(F)cc2)c(=O)n(CC(=O)[N-]c2ccc(F)c(C3(C)CCOCC3)c2F)n1 (3D coordinates assigned)
Cc1cc(Cc2ccc(F)cc2)c(=O)n(CC(=O)[N-]c2ccc(F)c(C3(C)CCOCC3)c2F)n1 (nonaromatic ring conformer: 88.97118786323544 kcal/mol)

>  <smiles>  (5) 
Cc1cc(Cc2ccc(F)cc2)c(=O)n(CC(=O)Nc2ccc(F)c(C3(C)CCOCC3)c2F)n1

>  <score_type>  (5) 
oracle

>  <origin>  (5) 
adg

>  <m_score__min__energy>  (5) 
-11.34

>  <m_primary>  (5) 
energy

$$$$
5:0
     RDKit          3D

 38 40  0  0  0  0  0  0  0  0999 V2000
   59.6910   28.9150   45.5860 C   0  0  0  0  0  0  0  0  0  0  0  0
   58.4900   29.5750   44.9670 C   0  0  0  0  0  0  0  0  0  0  0  0
   58.1310   30.8780   45.3530 C   0  0  0  0  0  0  0  0  0  0  0  0
   57.0200   31.5150   44.7870 C   0  0  0  0  0  0  0  0  0  0  0  0
   56.7170   32.8190   45.2110 O   0  0  0  0  0  0  0  0  0  0  0  0
   57.4600   33.9910   44.8740 C   0  0  0  0  0  0  0  0  0  0  0  0
   58.6270   34.1610   45.8020 C   0  0  0  0  0  0  0  0  0  0  0  0
   59.4840   35.0520   45.5560 O   0  0  0  0  0  0  0  0  0  0  0  0
   58.7570   33.3290   46.9650 N   0  0  0  0  0  0  0  0  0  0  0  0
   59.8390   33.4480   47.8600 N   0  0  0  0  0  0  0  0  0  0  0  0
   59.6680   34.0770   49.0610 C   0  0  0  0  0  0  0  0  0  0  0  0
   60.7080   34.2220   49.9200 N   0  0  0  0  0  0  0  0  0  0  0  0
   61.9430   33.7570   49.6120 C   0  0  0  0  0  0  0  0  0  0  0  0
   62.9990   33.9190   50.5170 C   0  0  0  0  0  0  0  0  0  0  0  0
   64.2740   33.4430   50.1970 C   0  0  0  0  0  0  0  0  0  0  0  0
   64.5010   32.8100   48.9710 C   0  0  0  0  0  0  0  0  0  0  0  0
   63.4520   32.6460   48.0600 C   0  0  0  0  0  0  0  0  0  0  0  0
   62.1640   33.1200   48.3750 C   0  0  0  0  0  0  0  0  0  0  0  0
   61.0740   32.9800   47.4980 C   0  0  0  0  0  0  0  0  0  0  0  0
   61.2290   32.4120   46.3800 O   0  0  0  0  0  0  0  0  0  0  0  0
   56.2530   30.8320   43.8260 C   0  0  0  0  0  0  0  0  0  0  0  0
   56.6040   29.5370   43.4360 C   0  0  0  0  0  0  0  0  0  0  0  0
   57.7160   28.9050   43.9990 C   0  0  0  0  0  0  0  0  0  0  0  0
   58.1430   27.1270   43.4180 Br  0  0  0  0  0  0  0  0  0  0  0  0
   59.6097   28.9597   46.6821 H   0  0  0  0  0  0  0  0  0  0  0  0
   59.7384   27.8641   45.2644 H   0  0  0  0  0  0  0  0  0  0  0  0
   60.6035   29.4384   45.2644 H   0  0  0  0  0  0  0  0  0  0  0  0
   58.7310   31.4044   46.1100 H   0  0  0  0  0  0  0  0  0  0  0  0
   57.8291   33.9008   43.8417 H   0  0  0  0  0  0  0  0  0  0  0  0
   56.8018   34.8674   44.9673 H   0  0  0  0  0  0  0  0  0  0  0  0
   57.9560   32.7090   47.2210 H   0  0  0  0  0  0  0  0  0  0  0  0
   58.6774   34.4696   49.3340 H   0  0  0  0  0  0  0  0  0  0  0  0
   62.8254   34.4210   51.4802 H   0  0  0  0  0  0  0  0  0  0  0  0
   65.1010   33.5668   50.9117 H   0  0  0  0  0  0  0  0  0  0  0  0
   65.5067   32.4402   48.7223 H   0  0  0  0  0  0  0  0  0  0  0  0
   63.6335   32.1464   47.0969 H   0  0  0  0  0  0  0  0  0  0  0  0
   55.3735   31.3192   43.3798 H   0  0  0  0  0  0  0  0  0  0  0  0
   56.0010   29.0115   42.6808 H   0  0  0  0  0  0  0  0  0  0  0  0
  1  2  1  0
  2  3  2  0
  3  4  1  0
  4  5  1  0
  5  6  1  0
  6  7  1  0
  7  8  2  0
  7  9  1  0
  9 10  1  0
 10 11  1  0
 11 12  2  0
 12 13  1  0
 13 14  2  0
 14 15  1  0
 15 16  2  0
 16 17  1  0
 17 18  2  0
 18 19  1  0
 19 20  2  0
  4 21  2  0
 21 22  1  0
 22 23  2  0
 23 24  1  0
 23  2  1  0
 19 10  1  0
 18 13  1  0
  1 25  1  0
  1 26  1  0
  1 27  1  0
  3 28  1  0
  6 29  1  0
  6 30  1  0
  9 31  1  0
 11 32  1  0
 14 33  1  0
 15 34  1  0
 16 35  1  0
 17 36  1  0
 21 37  1  0
 22 38  1  0
M  END
>  <UniqueID>  (6) 
5

>  <SMILES>  (6) 
Cc1cc(OCC(=O)Nn2cnc3ccccc3c2=O)ccc1Br

>  <Energy>  (6) 
49.77607900157146

>  <Genealogy>  (6) 
Cc1cc(OCC(=O)Nn2cnc3ccccc3c2=O)ccc1Br (3D coordinates assigned)
Cc1cc(OCC(=O)Nn2cnc3ccccc3c2=O)ccc1Br (optimized conformer: 49.77607900157146 kcal/mol)

>  <smiles>  (6) 
Cc1cc(OCC(=O)Nn2cnc3ccccc3c2=O)ccc1Br

>  <score_type>  (6) 
oracle

>  <origin>  (6) 
adg

>  <m_score__min__energy>  (6) 
-8.1400000000000006

>  <m_primary>  (6) 
energy

$$$$
6:0
     RDKit          3D

 44 46  0  0  0  0  0  0  0  0999 V2000
   64.4000   33.3940   48.2230 N   0  0  0  0  0  0  0  0  0  0  0  0
   62.8900   33.3010   49.0580 S   0  0  0  0  0  0  0  0  0  0  0  0
   62.8890   34.2690   50.2080 O   0  0  0  0  0  0  0  0  0  0  0  0
   62.7030   31.9110   49.5970 O   0  0  0  0  0  0  0  0  0  0  0  0
   61.5800   33.6940   47.9490 C   0  0  0  0  0  0  0  0  0  0  0  0
   60.3820   34.2310   48.4390 C   0  0  0  0  0  0  0  0  0  0  0  0
   59.3450   34.5580   47.5600 C   0  0  0  0  0  0  0  0  0  0  0  0
   59.5000   34.3650   46.1780 C   0  0  0  0  0  0  0  0  0  0  0  0
   58.3790   34.7030   45.2290 C   0  0  0  0  0  0  0  0  0  0  0  0
   57.2850   33.7450   45.3540 N   0  0  0  0  0  0  0  0  0  0  0  0
   57.4130   32.3360   45.5940 C   0  0  0  0  0  0  0  0  0  0  0  0
   57.8410   31.9530   46.7140 O   0  0  0  0  0  0  0  0  0  0  0  0
   57.0370   31.2990   44.5730 C   0  0  0  0  0  0  0  0  0  0  0  0
   57.3490   29.9620   45.0770 N   0  0  0  0  0  0  0  0  0  0  0  0
   56.4980   28.9180   45.1820 C   0  0  0  0  0  0  0  0  0  0  0  0
   55.1420   28.9800   44.8790 O   0  0  0  0  0  0  0  0  0  0  0  0
   57.1680   27.7950   45.6210 C   0  0  0  0  0  0  0  0  0  0  0  0
   58.4780   28.1710   45.8190 C   0  0  0  0  0  0  0  0  0  0  0  0
   58.5640   29.5000   45.4470 C   0  0  0  0  0  0  0  0  0  0  0  0
   59.7250   30.2700   45.4340 O   0  0  0  0  0  0  0  0  0  0  0  0
   59.5670   27.2220   46.2220 C   0  0  0  0  0  0  0  0  0  0  0  0
   58.9650   25.9470   46.8460 C   0  0  0  0  0  0  0  0  0  0  0  0
   57.7780   25.4080   46.0210 C   0  0  0  0  0  0  0  0  0  0  0  0
   56.6280   26.4330   45.9370 C   0  0  0  0  0  0  0  0  0  0  0  0
   60.6980   33.8200   45.6910 C   0  0  0  0  0  0  0  0  0  0  0  0
   61.7350   33.4930   46.5710 C   0  0  0  0  0  0  0  0  0  0  0  0
   64.5000   32.5110   47.6750 H   0  0  0  0  0  0  0  0  0  0  0  0
   60.2569   34.3959   49.5194 H   0  0  0  0  0  0  0  0  0  0  0  0
   58.4032   34.9684   47.9531 H   0  0  0  0  0  0  0  0  0  0  0  0
   58.0034   35.7109   45.4595 H   0  0  0  0  0  0  0  0  0  0  0  0
   58.7654   34.6634   44.1999 H   0  0  0  0  0  0  0  0  0  0  0  0
   55.9590   31.3671   44.3650 H   0  0  0  0  0  0  0  0  0  0  0  0
   57.6080   31.4784   43.6501 H   0  0  0  0  0  0  0  0  0  0  0  0
   59.7430   31.1980   45.8380 H   0  0  0  0  0  0  0  0  0  0  0  0
   60.1558   26.9478   45.3342 H   0  0  0  0  0  0  0  0  0  0  0  0
   60.2114   27.7134   46.9659 H   0  0  0  0  0  0  0  0  0  0  0  0
   59.7448   25.1727   46.8949 H   0  0  0  0  0  0  0  0  0  0  0  0
   58.5948   26.2010   47.8502 H   0  0  0  0  0  0  0  0  0  0  0  0
   58.1264   25.1791   45.0030 H   0  0  0  0  0  0  0  0  0  0  0  0
   57.3962   24.5050   46.5199 H   0  0  0  0  0  0  0  0  0  0  0  0
   55.9270   26.1280   45.1461 H   0  0  0  0  0  0  0  0  0  0  0  0
   56.1093   26.4695   46.9064 H   0  0  0  0  0  0  0  0  0  0  0  0
   60.8222   33.6490   44.6115 H   0  0  0  0  0  0  0  0  0  0  0  0
   62.6751   33.0767   46.1800 H   0  0  0  0  0  0  0  0  0  0  0  0
  1  2  1  0
  2  3  2  0
  2  4  2  0
  2  5  1  0
  5  6  2  0
  6  7  1  0
  7  8  2  0
  8  9  1  0
  9 10  1  0
 10 11  1  0
 11 12  2  0
 11 13  1  0
 13 14  1  0
 14 15  1  0
 15 16  1  0
 15 17  2  0
 17 18  1  0
 18 19  2  0
 19 20  1  0
 18 21  1  0
 21 22  1  0
 22 23  1  0
 23 24  1  0
  8 25  1  0
 25 26  2  0
 26  5  1  0
 19 14  1  0
 24 17  1  0
  1 27  1  0
  6 28  1  0
  7 29  1  0
  9 30  1  0
  9 31  1  0
 13 32  1  0
 13 33  1  0
 20 34  1  0
 21 35  1  0
 21 36  1  0
 22 37  1  0
 22 38  1  0
 23 39  1  0
 23 40  1  0
 24 41  1  0
 24 42  1  0
 25 43  1  0
 26 44  1  0
M  CHG  3   1  -1  10  -1  16  -1
M  END
>  <UniqueID>  (7) 
6

>  <SMILES>  (7) 
[NH-]S(=O)(=O)c1ccc(C[N-]C(=O)Cn2c([O-])c3c(c2O)CCCC3)cc1

>  <Energy>  (7) 
70.10059673431407

>  <Genealogy>  (7) 
[NH-]S(=O)(=O)c1ccc(C[N-]C(=O)Cn2c([O-])c3c(c2O)CCCC3)cc1 (protonated)
[NH-]S(=O)(=O)c1ccc(C[N-]C(=O)Cn2c([O-])c3c(c2O)CCCC3)cc1 (3D coordinates assigned)
[NH-]S(=O)(=O)c1ccc(C[N-]C(=O)Cn2c([O-])c3c(c2O)CCCC3)cc1 (nonaromatic ring conformer: 70.10059673431407 kcal/mol)

>  <smiles>  (7) 
NS(=O)(=O)c1ccc(CNC(=O)Cn2c(O)c3c(c2O)CCCC3)cc1

>  <score_type>  (7) 
oracle

>  <origin>  (7) 
adg

>  <m_score__min__energy>  (7) 
-12.449999999999999

>  <m_primary>  (7) 
energy

$$$$
7:0
     RDKit          3D

 51 53  0  0  1  0  0  0  0  0999 V2000
   58.5570   32.7480   48.2640 C   0  0  0  0  0  0  0  0  0  0  0  0
   59.0620   33.9640   47.5780 C   0  0  0  0  0  0  0  0  0  0  0  0
   59.7780   33.7180   46.3330 N   0  0  0  0  0  0  0  0  0  0  0  0
   61.1490   34.1270   46.6100 C   0  0  0  0  0  0  0  0  0  0  0  0
   61.9380   32.9650   47.1490 C   0  0  0  0  0  0  0  0  0  0  0  0
   59.2330   34.4780   45.2180 C   0  0  0  0  0  0  0  0  0  0  0  0
   57.8710   33.9620   44.9560 C   0  0  0  0  0  0  0  0  0  0  0  0
   57.7440   32.7660   44.1860 N   0  0  0  0  0  0  0  0  0  0  0  0
   57.6540   31.5830   44.7000 C   0  0  0  0  0  0  0  0  0  0  0  0
   56.5990   30.8670   44.3250 N   0  0  0  0  0  0  0  0  0  0  0  0
   59.4340   28.3690   47.4470 C   0  0  0  0  0  0  0  0  0  0  0  0
   55.3910   29.0700   44.6170 N   0  0  0  0  0  0  0  0  0  0  0  0
   57.4970   29.1950   45.6890 C   0  0  0  0  0  0  0  0  0  0  0  0
   57.4380   27.9520   46.2280 C   0  0  0  0  0  0  0  0  0  0  0  0
   56.7880   27.0410   45.7260 N   0  0  0  0  0  0  0  0  0  0  0  0
   56.9010   25.7070   45.5870 C   0  0  0  0  0  0  0  0  0  0  0  0
   56.7360   24.8480   46.7160 C   0  0  0  0  0  0  0  0  0  0  0  0
   56.9860   23.4980   46.6110 C   0  0  0  0  0  0  0  0  0  0  0  0
   57.4010   22.9290   45.4270 C   0  0  0  0  0  0  0  0  0  0  0  0
   57.5620   23.7560   44.3350 C   0  0  0  0  0  0  0  0  0  0  0  0
   57.3300   25.1080   44.3690 C   0  0  0  0  0  0  0  0  0  0  0  0
   58.4190   27.5500   47.1230 N   0  0  0  0  0  0  0  0  0  0  0  0
   56.5090   29.6110   44.8480 C   0  0  0  0  0  0  0  0  0  0  0  0
   60.6060   27.9360   48.5070 S   0  0  0  0  0  0  0  0  0  0  0  0
   59.5230   29.5960   46.9100 N   0  0  0  0  0  0  0  0  0  0  0  0
   58.5680   29.9860   46.0470 C   0  0  0  0  0  0  0  0  0  0  0  0
   58.6310   31.2100   45.5270 N   0  0  0  0  0  0  0  0  0  0  0  0
   58.6161   32.8902   49.3532 H   0  0  0  0  0  0  0  0  0  0  0  0
   57.5109   32.5709   47.9735 H   0  0  0  0  0  0  0  0  0  0  0  0
   59.1698   31.8819   47.9735 H   0  0  0  0  0  0  0  0  0  0  0  0
   58.2013   34.6114   47.3541 H   0  0  0  0  0  0  0  0  0  0  0  0
   59.7887   34.4237   48.2640 H   0  0  0  0  0  0  0  0  0  0  0  0
   61.6167   34.4841   45.6806 H   0  0  0  0  0  0  0  0  0  0  0  0
   61.1393   34.9329   47.3587 H   0  0  0  0  0  0  0  0  0  0  0  0
   61.9216   32.9892   48.2486 H   0  0  0  0  0  0  0  0  0  0  0  0
   61.4916   32.0236   46.7962 H   0  0  0  0  0  0  0  0  0  0  0  0
   62.9777   33.0326   46.7962 H   0  0  0  0  0  0  0  0  0  0  0  0
   59.1872   35.5460   45.4773 H   0  0  0  0  0  0  0  0  0  0  0  0
   59.8680   34.3699   44.3263 H   0  0  0  0  0  0  0  0  0  0  0  0
   57.3989   33.7746   45.9317 H   0  0  0  0  0  0  0  0  0  0  0  0
   57.3971   34.7386   44.3377 H   0  0  0  0  0  0  0  0  0  0  0  0
   55.8870   31.2560   43.6700 H   0  0  0  0  0  0  0  0  0  0  0  0
   55.1350   28.1400   44.9040 H   0  0  0  0  0  0  0  0  0  0  0  0
   56.4064   25.2684   47.6776 H   0  0  0  0  0  0  0  0  0  0  0  0
   56.8509   22.8575   47.4951 H   0  0  0  0  0  0  0  0  0  0  0  0
   57.5978   21.8492   45.3548 H   0  0  0  0  0  0  0  0  0  0  0  0
   57.8939   23.3081   43.3867 H   0  0  0  0  0  0  0  0  0  0  0  0
   57.4736   25.7209   43.4669 H   0  0  0  0  0  0  0  0  0  0  0  0
   58.4090   26.6190   47.5680 H   0  0  0  0  0  0  0  0  0  0  0  0
   60.3100   30.2330   47.1540 H   0  0  0  0  0  0  0  0  0  0  0  0
   59.4460   31.8010   45.7980 H   0  0  0  0  0  0  0  0  0  0  0  0
  1  2  1  0
  2  3  1  0
  3  4  1  0
  4  5  1  0
  3  6  1  0
  6  7  1  0
  7  8  1  0
  8  9  2  0
  9 10  1  0
 10 11  1  0
 11 12  2  3
 11 13  1  0
 13 14  1  0
 14 15  2  0
 15 16  1  0
 16 17  2  0
 17 18  1  0
 18 19  2  0
 19 20  1  0
 20 21  2  0
 14 22  1  0
 22 23  1  0
 23 24  2  0
 23 25  1  0
 25 26  1  0
 26 27  1  0
 27  9  1  0
 26 13  2  0
 21 16  1  0
  1 28  1  0
  1 29  1  0
  1 30  1  0
  2 31  1  0
  2 32  1  0
  4 33  1  0
  4 34  1  0
  5 35  1  0
  5 36  1  0
  5 37  1  0
  6 38  1  0
  6 39  1  0
  7 40  1  0
  7 41  1  0
 10 42  1  0
 12 43  1  0
 17 44  1  0
 18 45  1  0
 19 46  1  0
 20 47  1  0
 21 48  1  0
 22 49  1  0
 25 50  1  0
 27 51  1  0
M  END
>  <smiles>  (8) 
CCN(CC)CCN=c1[nH]c(=N)c2c(=Nc3ccccc3)[nH]c(=S)[nH]c2[nH]1

>  <score_type>  (8) 
oracle

>  <origin>  (8) 
adg

>  <m_score__min__energy>  (8) 
-6.7599999999999998

>  <m_primary>  (8) 
energy

$$$$
8:0
     RDKit          3D

 36 38  0  0  0  0  0  0  0  0999 V2000
   59.6980   34.4350   49.8200 O   0  0  0  0  0  0  0  0  0  0  0  0
   59.9010   33.6060   48.8930 C   0  0  0  0  0  0  0  0  0  0  0  0
   58.7940   32.8490   48.3940 N   0  0  0  0  0  0  0  0  0  0  0  0
   58.4190   32.7380   47.0130 C   0  0  0  0  0  0  0  0  0  0  0  0
   58.1540   33.9070   46.2910 C   0  0  0  0  0  0  0  0  0  0  0  0
   57.6960   33.8330   44.9730 C   0  0  0  0  0  0  0  0  0  0  0  0
   57.4790   32.5890   44.3760 C   0  0  0  0  0  0  0  0  0  0  0  0
   57.7400   31.4110   45.0810 C   0  0  0  0  0  0  0  0  0  0  0  0
   57.4200   30.1530   44.4720 N   0  0  0  0  0  0  0  0  0  0  0  0
   56.3440   29.2930   44.8640 C   0  0  0  0  0  0  0  0  0  0  0  0
   55.1590   29.6580   44.6420 O   0  0  0  0  0  0  0  0  0  0  0  0
   56.5930   27.9650   45.4490 C   0  0  0  0  0  0  0  0  0  0  0  0
   57.8380   27.3980   45.6620 C   0  0  0  0  0  0  0  0  0  0  0  0
   57.6050   26.1260   46.1320 C   0  0  0  0  0  0  0  0  0  0  0  0
   56.2360   25.9930   46.1860 C   0  0  0  0  0  0  0  0  0  0  0  0
   55.5730   24.8500   46.6180 O   0  0  0  0  0  0  0  0  0  0  0  0
   55.6040   27.1030   45.7640 N   0  0  0  0  0  0  0  0  0  0  0  0
   58.2150   31.4860   46.4040 C   0  0  0  0  0  0  0  0  0  0  0  0
   61.2530   33.4890   48.2970 C   0  0  0  0  0  0  0  0  0  0  0  0
   62.2870   32.8290   48.9850 C   0  0  0  0  0  0  0  0  0  0  0  0
   63.5350   32.6520   48.3840 C   0  0  0  0  0  0  0  0  0  0  0  0
   63.7680   33.1380   47.0940 C   0  0  0  0  0  0  0  0  0  0  0  0
   62.7530   33.8070   46.4070 C   0  0  0  0  0  0  0  0  0  0  0  0
   61.4990   33.9760   47.0000 C   0  0  0  0  0  0  0  0  0  0  0  0
   58.3069   34.8887   46.7632 H   0  0  0  0  0  0  0  0  0  0  0  0
   57.5061   34.7556   44.4048 H   0  0  0  0  0  0  0  0  0  0  0  0
   57.1003   32.5363   43.3446 H   0  0  0  0  0  0  0  0  0  0  0  0
   58.8168   27.8697   45.4900 H   0  0  0  0  0  0  0  0  0  0  0  0
   58.3568   25.3718   46.4075 H   0  0  0  0  0  0  0  0  0  0  0  0
   54.5690   24.8540   46.7470 H   0  0  0  0  0  0  0  0  0  0  0  0
   58.4274   30.5630   46.9635 H   0  0  0  0  0  0  0  0  0  0  0  0
   62.1116   32.4500   50.0026 H   0  0  0  0  0  0  0  0  0  0  0  0
   64.3364   32.1291   48.9266 H   0  0  0  0  0  0  0  0  0  0  0  0
   64.7503   32.9935   46.6205 H   0  0  0  0  0  0  0  0  0  0  0  0
   62.9408   34.2016   45.3975 H   0  0  0  0  0  0  0  0  0  0  0  0
   60.6992   34.4930   46.4494 H   0  0  0  0  0  0  0  0  0  0  0  0
  1  2  2  0
  2  3  1  0
  3  4  1  0
  4  5  2  0
  5  6  1  0
  6  7  2  0
  7  8  1  0
  8  9  1  0
  9 10  1  0
 10 11  2  0
 10 12  1  0
 12 13  2  0
 13 14  1  0
 14 15  2  0
 15 16  1  0
 15 17  1  0
  8 18  2  0
  2 19  1  0
 19 20  2  0
 20 21  1  0
 21 22  2  0
 22 23  1  0
 23 24  2  0
 18  4  1  0
 24 19  1  0
 17 12  1  0
  5 25  1  0
  6 26  1  0
  7 27  1  0
 13 28  1  0
 14 29  1  0
 16 30  1  0
 18 31  1  0
 20 32  1  0
 21 33  1  0
 22 34  1  0
 23 35  1  0
 24 36  1  0
M  CHG  3   3  -1   9  -1  17  -1
M  END
>  <UniqueID>  (9) 
7

>  <SMILES>  (9) 
O=C([N-]c1cccc([N-]C(=O)c2ccc(O)[n-]2)c1)c1ccccc1

>  <Energy>  (9) 
72.66601671469986

>  <Genealogy>  (9) 
O=C([N-]c1cccc([N-]C(=O)c2ccc(O)[n-]2)c1)c1ccccc1 (protonated)
O=C([N-]c1cccc([N-]C(=O)c2ccc(O)[n-]2)c1)c1ccccc1 (3D coordinates assigned)
O=C([N-]c1cccc([N-]C(=O)c2ccc(O)[n-]2)c1)c1ccccc1 (optimized conformer: 72.66601671469986 kcal/mol)

>  <smiles>  (9) 
O=C(Nc1cccc(NC(=O)c2ccc(O)[nH]2)c1)c1ccccc1

>  <score_type>  (9) 
oracle

>  <origin>  (9) 
adg

>  <m_score__min__energy>  (9) 
-13.57

>  <m_primary>  (9) 
energy

$$$$
9:0
     RDKit          3D

 38 39  0  0  0  0  0  0  0  0999 V2000
   57.3490   21.1020   43.0320 C   0  0  0  0  0  0  0  0  0  0  0  0
   55.9890   21.4580   43.2210 O   0  0  0  0  0  0  0  0  0  0  0  0
   55.5980   22.7760   43.1500 N   0  0  0  0  0  0  0  0  0  0  0  0
   55.7400   23.5850   44.1530 C   0  0  0  0  0  0  0  0  0  0  0  0
   56.6630   24.7700   44.0790 C   0  0  0  0  0  0  0  0  0  0  0  0
   56.6150   25.5940   45.3380 C   0  0  0  0  0  0  0  0  0  0  0  0
   55.5290   25.6800   45.9750 O   0  0  0  0  0  0  0  0  0  0  0  0
   57.8010   26.3330   45.8370 C   0  0  0  0  0  0  0  0  0  0  0  0
   58.9270   25.6020   46.2520 C   0  0  0  0  0  0  0  0  0  0  0  0
   60.0570   26.2580   46.7490 C   0  0  0  0  0  0  0  0  0  0  0  0
   60.0690   27.6490   46.8500 C   0  0  0  0  0  0  0  0  0  0  0  0
   58.9510   28.3880   46.4600 C   0  0  0  0  0  0  0  0  0  0  0  0
   57.8150   27.7420   45.9560 C   0  0  0  0  0  0  0  0  0  0  0  0
   56.6580   28.5200   45.6500 N   0  0  0  0  0  0  0  0  0  0  0  0
   56.5570   29.3880   44.1590 S   0  0  0  0  0  0  0  0  0  0  0  0
   55.1100   29.5530   43.7820 O   0  0  0  0  0  0  0  0  0  0  0  0
   57.2540   28.6180   43.0730 O   0  0  0  0  0  0  0  0  0  0  0  0
   57.3020   30.9690   44.3590 C   0  0  0  0  0  0  0  0  0  0  0  0
   57.5040   31.7930   43.2410 C   0  0  0  0  0  0  0  0  0  0  0  0
   58.1450   33.0270   43.3850 C   0  0  0  0  0  0  0  0  0  0  0  0
   58.5920   33.4410   44.6430 C   0  0  0  0  0  0  0  0  0  0  0  0
   58.4000   32.6220   45.7580 C   0  0  0  0  0  0  0  0  0  0  0  0
   57.7580   31.3870   45.6180 C   0  0  0  0  0  0  0  0  0  0  0  0
   57.8342   20.9750   44.0110 H   0  0  0  0  0  0  0  0  0  0  0  0
   57.4063   20.1586   42.4692 H   0  0  0  0  0  0  0  0  0  0  0  0
   57.8612   21.8963   42.4692 H   0  0  0  0  0  0  0  0  0  0  0  0
   55.1734   23.4008   45.0777 H   0  0  0  0  0  0  0  0  0  0  0  0
   57.6917   24.4114   43.9269 H   0  0  0  0  0  0  0  0  0  0  0  0
   56.3385   25.4051   43.2415 H   0  0  0  0  0  0  0  0  0  0  0  0
   58.9192   24.5041   46.1852 H   0  0  0  0  0  0  0  0  0  0  0  0
   60.9373   25.6767   47.0606 H   0  0  0  0  0  0  0  0  0  0  0  0
   60.9604   28.1641   47.2374 H   0  0  0  0  0  0  0  0  0  0  0  0
   58.9621   29.4843   46.5490 H   0  0  0  0  0  0  0  0  0  0  0  0
   57.1572   31.4671   42.2493 H   0  0  0  0  0  0  0  0  0  0  0  0
   58.2977   33.6727   42.5076 H   0  0  0  0  0  0  0  0  0  0  0  0
   59.0954   34.4126   44.7550 H   0  0  0  0  0  0  0  0  0  0  0  0
   58.7539   32.9484   46.7471 H   0  0  0  0  0  0  0  0  0  0  0  0
   57.6105   30.7423   46.4970 H   0  0  0  0  0  0  0  0  0  0  0  0
  1  2  1  0
  2  3  1  0
  3  4  2  3
  4  5  1  0
  5  6  1  0
  6  7  2  0
  6  8  1  0
  8  9  2  0
  9 10  1  0
 10 11  2  0
 11 12  1  0
 12 13  2  0
 13 14  1  0
 14 15  1  0
 15 16  2  0
 15 17  2  0
 15 18  1  0
 18 19  2  0
 19 20  1  0
 20 21  2  0
 21 22  1  0
 22 23  2  0
 13  8  1  0
 23 18  1  0
  1 24  1  0
  1 25  1  0
  1 26  1  0
  4 27  1  0
  5 28  1  0
  5 29  1  0
  9 30  1  0
 10 31  1  0
 11 32  1  0
 12 33  1  0
 19 34  1  0
 20 35  1  0
 21 36  1  0
 22 37  1  0
 23 38  1  0
M  CHG  1  14  -1
M  END
>  <UniqueID>  (10) 
8

>  <SMILES>  (10) 
CON=CCC(=O)c1ccccc1[N-]S(=O)(=O)c1ccccc1

>  <Energy>  (10) 
45.42450827096778

>  <Genealogy>  (10) 
CON=CCC(=O)c1ccccc1[N-]S(=O)(=O)c1ccccc1 (protonated)
CON=CCC(=O)c1ccccc1[N-]S(=O)(=O)c1ccccc1 (3D coordinates assigned)
CON=CCC(=O)c1ccccc1[N-]S(=O)(=O)c1ccccc1 (optimized conformer: 45.42450827096778 kcal/mol)

>  <smiles>  (10) 
CON=CCC(=O)c1ccccc1NS(=O)(=O)c1ccccc1

>  <score_type>  (10) 
oracle

>  <origin>  (10) 
adg

>  <m_score__min__energy>  (10) 
-10.5

>  <m_primary>  (10) 
energy

$$$$
10:0
     RDKit          3D

 32 33  0  0  0  0  0  0  0  0999 V2000
   54.6890   25.9610   45.6450 N   0  0  0  0  0  0  0  0  0  0  0  0
   55.1790   24.4710   46.3460 S   0  0  0  0  0  0  0  0  0  0  0  0
   55.9060   24.8100   47.6480 O   0  0  0  0  0  0  0  0  0  0  0  0
   53.9770   23.6550   46.6940 O   0  0  0  0  0  0  0  0  0  0  0  0
   56.2730   23.5450   45.3660 C   0  0  0  0  0  0  0  0  0  0  0  0
   55.7780   22.4810   44.6670 C   0  0  0  0  0  0  0  0  0  0  0  0
   56.5740   21.7200   43.8740 C   0  0  0  0  0  0  0  0  0  0  0  0
   57.8980   22.0090   43.7650 C   0  0  0  0  0  0  0  0  0  0  0  0
   58.3880   23.0770   44.4690 C   0  0  0  0  0  0  0  0  0  0  0  0
   57.6570   23.8960   45.2890 C   0  0  0  0  0  0  0  0  0  0  0  0
   58.0000   24.9640   46.0550 N   0  0  0  0  0  0  0  0  0  0  0  0
   58.3480   26.0500   46.8320 C   0  0  0  0  0  0  0  0  0  0  0  0
   58.6210   27.3420   46.1160 C   0  0  0  0  0  0  0  0  0  0  0  0
   57.6590   28.1090   45.5360 C   0  0  0  0  0  0  0  0  0  0  0  0
   56.3300   27.7510   45.5870 O   0  0  0  0  0  0  0  0  0  0  0  0
   57.9470   29.2980   44.8590 C   0  0  0  0  0  0  0  0  0  0  0  0
   59.2650   29.6890   44.7880 C   0  0  0  0  0  0  0  0  0  0  0  0
   60.2770   28.9400   45.3630 C   0  0  0  0  0  0  0  0  0  0  0  0
   59.9350   27.7900   46.0100 C   0  0  0  0  0  0  0  0  0  0  0  0
   60.8960   27.0360   46.5790 F   0  0  0  0  0  0  0  0  0  0  0  0
   54.7560   26.7500   46.2960 H   0  0  0  0  0  0  0  0  0  0  0  0
   54.7089   22.2352   44.7488 H   0  0  0  0  0  0  0  0  0  0  0  0
   56.1485   20.8703   43.3200 H   0  0  0  0  0  0  0  0  0  0  0  0
   58.5581   21.4014   43.1285 H   0  0  0  0  0  0  0  0  0  0  0  0
   59.4611   23.2961   44.3673 H   0  0  0  0  0  0  0  0  0  0  0  0
   56.8450   25.5870   45.7730 H   0  0  0  0  0  0  0  0  0  0  0  0
   57.5244   26.2299   47.5386 H   0  0  0  0  0  0  0  0  0  0  0  0
   59.3059   25.7733   47.2966 H   0  0  0  0  0  0  0  0  0  0  0  0
   55.9300   26.9280   45.1770 H   0  0  0  0  0  0  0  0  0  0  0  0
   57.1489   29.8995   44.3995 H   0  0  0  0  0  0  0  0  0  0  0  0
   59.5203   30.6202   44.2610 H   0  0  0  0  0  0  0  0  0  0  0  0
   61.3265   29.2633   45.2997 H   0  0  0  0  0  0  0  0  0  0  0  0
  1  2  1  0
  2  3  2  0
  2  4  2  0
  2  5  1  0
  5  6  2  0
  6  7  1  0
  7  8  2  0
  8  9  1  0
  9 10  2  0
 10 11  1  0
 11 12  1  0
 12 13  1  0
 13 14  2  0
 14 15  1  0
 14 16  1  0
 16 17  2  0
 17 18  1  0
 18 19  2  0
 19 20  1  0
 10  5  1  0
 19 13  1  0
  1 21  1  0
  6 22  1  0
  7 23  1  0
  8 24  1  0
  9 25  1  0
 11 26  1  0
 12 27  1  0
 12 28  1  0
 15 29  1  0
 16 30  1  0
 17 31  1  0
 18 32  1  0
M  CHG  1   1  -1
M  END
>  <UniqueID>  (11) 
9

>  <SMILES>  (11) 
[NH-]S(=O)(=O)c1ccccc1NCc1c(O)cccc1F

>  <Energy>  (11) 
201.91812435073754

>  <Genealogy>  (11) 
[NH-]S(=O)(=O)c1ccccc1NCc1c(O)cccc1F (protonated)
[NH-]S(=O)(=O)c1ccccc1NCc1c(O)cccc1F (3D coordinates assigned)
[NH-]S(=O)(=O)c1ccccc1NCc1c(O)cccc1F (optimized conformer: 201.91812435073754 kcal/mol)

>  <smiles>  (11) 
NS(=O)(=O)c1ccccc1NCc1c(O)cccc1F

>  <score_type>  (11) 
oracle

>  <origin>  (11) 
adg

>  <m_score__min__energy>  (11) 
-9.7699999999999996

>  <m_primary>  (11) 
energy

$$$$
11:0
     RDKit          3D

 56 58  0  0  0  0  0  0  0  0999 V2000
   56.7093   21.7847   45.3361 H   0  0  0  0  0  0  0  0  0  0  0  0
   56.3140   22.8030   45.4660 C   0  0  0  0  0  0  0  0  0  0  0  0
   56.9610   23.6860   46.2730 N   0  0  0  0  0  0  0  0  0  0  0  0
   56.5160   24.9600   46.4610 C   0  0  0  0  0  0  0  0  0  0  0  0
   57.1360   25.7910   47.2520 N   0  0  0  0  0  0  0  0  0  0  0  0
   58.3530   26.5350   47.0450 C   0  0  0  0  0  0  0  0  0  0  0  0
   59.4440   25.9090   47.0960 O   0  0  0  0  0  0  0  0  0  0  0  0
   58.4030   28.0240   46.8110 C   0  0  0  0  0  0  0  0  0  0  0  0
   57.3751   28.3980   46.6948 H   0  0  0  0  0  0  0  0  0  0  0  0
   59.0014   28.2011   45.9051 H   0  0  0  0  0  0  0  0  0  0  0  0
   59.0640   28.7660   47.9530 C   0  0  0  0  0  0  0  0  0  0  0  0
   60.0280   28.1100   48.7360 C   0  0  0  0  0  0  0  0  0  0  0  0
   60.3150   27.0754   48.4966 H   0  0  0  0  0  0  0  0  0  0  0  0
   60.6240   28.7630   49.8160 C   0  0  0  0  0  0  0  0  0  0  0  0
   61.3861   28.2444   50.4162 H   0  0  0  0  0  0  0  0  0  0  0  0
   60.2580   30.0700   50.1380 C   0  0  0  0  0  0  0  0  0  0  0  0
   60.7357   30.5772   50.9892 H   0  0  0  0  0  0  0  0  0  0  0  0
   59.2830   30.7430   49.3820 C   0  0  0  0  0  0  0  0  0  0  0  0
   58.8890   32.1310   49.7230 C   0  0  0  0  0  0  0  0  0  0  0  0
   57.7570   32.3590   50.2310 O   0  0  0  0  0  0  0  0  0  0  0  0
   59.7920   33.2180   49.4810 N   0  0  0  0  0  0  0  0  0  0  0  0
   59.6610   34.1430   48.3620 C   0  0  0  0  0  0  0  0  0  0  0  0
   60.6611   34.4778   48.0494 H   0  0  0  0  0  0  0  0  0  0  0  0
   59.0564   35.0050   48.6804 H   0  0  0  0  0  0  0  0  0  0  0  0
   58.9790   33.4700   47.2030 C   0  0  0  0  0  0  0  0  0  0  0  0
   57.6630   33.8030   46.8540 C   0  0  0  0  0  0  0  0  0  0  0  0
   57.1268   34.5765   47.4233 H   0  0  0  0  0  0  0  0  0  0  0  0
   57.0260   33.1600   45.7880 C   0  0  0  0  0  0  0  0  0  0  0  0
   55.9943   33.4338   45.5222 H   0  0  0  0  0  0  0  0  0  0  0  0
   57.6980   32.1630   45.0520 C   0  0  0  0  0  0  0  0  0  0  0  0
   57.1420   31.4620   43.9620 O   0  0  0  0  0  0  0  0  0  0  0  0
   56.8720   30.0610   43.7900 C   0  0  0  0  0  0  0  0  0  0  0  0
   56.2640   29.7730   42.4030 C   0  0  0  0  0  0  0  0  0  0  0  0
   55.2761   29.3050   42.5257 H   0  0  0  0  0  0  0  0  0  0  0  0
   56.1565   30.7159   41.8468 H   0  0  0  0  0  0  0  0  0  0  0  0
   56.9255   29.0925   41.8468 H   0  0  0  0  0  0  0  0  0  0  0  0
   58.1340   29.2100   44.0510 C   0  0  0  0  0  0  0  0  0  0  0  0
   58.2883   29.1059   45.1351 H   0  0  0  0  0  0  0  0  0  0  0  0
   58.0041   28.2143   43.6019 H   0  0  0  0  0  0  0  0  0  0  0  0
   59.0084   29.7036   43.6019 H   0  0  0  0  0  0  0  0  0  0  0  0
   55.8250   29.6910   44.8550 C   0  0  0  0  0  0  0  0  0  0  0  0
   56.2523   29.8420   45.8573 H   0  0  0  0  0  0  0  0  0  0  0  0
   54.9378   30.3301   44.7346 H   0  0  0  0  0  0  0  0  0  0  0  0
   55.5363   28.6364   44.7346 H   0  0  0  0  0  0  0  0  0  0  0  0
   59.0100   31.8320   45.4140 C   0  0  0  0  0  0  0  0  0  0  0  0
   59.5476   31.0551   44.8506 H   0  0  0  0  0  0  0  0  0  0  0  0
   59.6460   32.4730   46.4790 C   0  0  0  0  0  0  0  0  0  0  0  0
   60.6748   32.1941   46.7507 H   0  0  0  0  0  0  0  0  0  0  0  0
   58.6860   30.0790   48.2930 C   0  0  0  0  0  0  0  0  0  0  0  0
   57.9146   30.5927   47.7005 H   0  0  0  0  0  0  0  0  0  0  0  0
   55.3410   25.3760   45.8160 C   0  0  0  0  0  0  0  0  0  0  0  0
   54.8470   26.6640   45.9990 O   0  0  0  0  0  0  0  0  0  0  0  0
   54.6600   24.4840   44.9830 C   0  0  0  0  0  0  0  0  0  0  0  0
   53.7403   24.8019   44.4701 H   0  0  0  0  0  0  0  0  0  0  0  0
   55.1490   23.1890   44.8030 C   0  0  0  0  0  0  0  0  0  0  0  0
   54.6219   22.4813   44.1462 H   0  0  0  0  0  0  0  0  0  0  0  0
  1  2  1  0
  2  3  1  0
  3  4  1  0
  4  5  2  0
  5  6  1  0
  6  7  2  0
  6  8  1  0
  8  9  1  0
  8 10  1  0
  8 11  1  0
 11 12  2  0
 12 13  1  0
 12 14  1  0
 14 15  1  0
 14 16  2  0
 16 17  1  0
 16 18  1  0
 18 19  1  0
 19 20  2  0
 19 21  1  0
 21 22  1  0
 22 23  1  0
 22 24  1  0
 22 25  1  0
 25 26  2  0
 26 27  1  0
 26 28  1  0
 28 29  1  0
 28 30  2  0
 30 31  1  0
 31 32  1  0
 32 33  1  0
 33 34  1  0
 33 35  1  0
 33 36  1  0
 32 37  1  0
 37 38  1  0
 37 39  1  0
 37 40  1  0
 32 41  1  0
 41 42  1  0
 41 43  1  0
 41 44  1  0
 30 45  1  0
 45 46  1  0
 45 47  2  0
 47 48  1  0
 18 49  2  0
 49 50  1  0
  4 51  1  0
 51 52  1  0
 51 53  2  0
 53 54  1  0
 53 55  1  0
 55 56  1  0
 55  2  2  0
 49 11  1  0
 47 25  1  0
M  CHG  3   3  -1  21  -1  52  -1
M  END
>  <UniqueID>  (12) 
10

>  <SMILES>  (12) 
CC(C)(C)Oc1ccc(C[N-]C(=O)c2cccc(CC(=O)/N=c3\[n-]cccc3[O-])c2)cc1

>  <Energy>  (12) 
65.13216418520005

>  <Genealogy>  (12) 
CC(C)(C)Oc1ccc(C[N-]C(=O)c2cccc(CC(=O)N=c3[n-]cccc3[O-])c2)cc1 (protonated)
CC(C)(C)Oc1ccc(C[N-]C(=O)c2cccc(CC(=O)/N=c3\[n-]cccc3[O-])c2)cc1 (cis-trans isomerization)
CC(C)(C)Oc1ccc(C[N-]C(=O)c2cccc(CC(=O)/N=c3\[n-]cccc3[O-])c2)cc1 (3D coordinates assigned)
CC(C)(C)Oc1ccc(C[N-]C(=O)c2cccc(CC(=O)/N=c3\[n-]cccc3[O-])c2)cc1 (optimized conformer: 65.13216418520005 kcal/mol)

>  <smiles>  (12) 
CC(C)(C)Oc1ccc(CNC(=O)c2cccc(CC(=O)N=c3[nH]cccc3O)c2)cc1

>  <score_type>  (12) 
oracle

>  <origin>  (12) 
adg

>  <m_score__min__energy>  (12) 
-15.49

>  <m_primary>  (12) 
energy

$$$$
12:0
     RDKit          3D

 47 50  0  0  0  0  0  0  0  0999 V2000
   56.0810   20.6960   43.5300 N   0  0  0  0  0  0  0  0  0  0  0  0
   56.4010   21.2740   44.7950 C   0  0  0  0  0  0  0  0  0  0  0  0
   57.0510   20.5940   45.6340 O   0  0  0  0  0  0  0  0  0  0  0  0
   55.9780   22.6570   45.1200 C   0  0  0  0  0  0  0  0  0  0  0  0
   54.7970   23.1880   44.5700 C   0  0  0  0  0  0  0  0  0  0  0  0
   54.3980   24.4910   44.8770 C   0  0  0  0  0  0  0  0  0  0  0  0
   55.1750   25.2850   45.7240 C   0  0  0  0  0  0  0  0  0  0  0  0
   54.7690   26.5840   46.0090 O   0  0  0  0  0  0  0  0  0  0  0  0
   56.3560   24.7760   46.2830 C   0  0  0  0  0  0  0  0  0  0  0  0
   57.1300   25.6210   47.1490 N   0  0  0  0  0  0  0  0  0  0  0  0
   58.6570   26.3390   46.7530 S   0  0  0  0  0  0  0  0  0  0  0  0
   59.3990   26.6520   48.0210 O   0  0  0  0  0  0  0  0  0  0  0  0
   59.4720   25.3650   45.9480 O   0  0  0  0  0  0  0  0  0  0  0  0
   58.4010   27.8360   45.8610 C   0  0  0  0  0  0  0  0  0  0  0  0
   59.1640   28.9770   46.1840 C   0  0  0  0  0  0  0  0  0  0  0  0
   58.9670   30.1830   45.4960 C   0  0  0  0  0  0  0  0  0  0  0  0
   57.9790   30.2330   44.5050 C   0  0  0  0  0  0  0  0  0  0  0  0
   57.2610   29.1170   44.1690 C   0  0  0  0  0  0  0  0  0  0  0  0
   57.4450   27.9040   44.8320 C   0  0  0  0  0  0  0  0  0  0  0  0
   56.3510   29.3990   43.0260 C   0  0  0  0  0  0  0  0  0  0  0  0
   56.6650   30.8710   42.6750 C   0  0  0  0  0  0  0  0  0  0  0  0
   57.6390   31.3290   43.6660 N   0  0  0  0  0  0  0  0  0  0  0  0
   58.0320   32.7050   43.7970 C   0  0  0  0  0  0  0  0  0  0  0  0
   58.8370   33.1910   42.9550 O   0  0  0  0  0  0  0  0  0  0  0  0
   57.5120   33.5860   44.9100 C   0  0  0  0  0  0  0  0  0  0  0  0
   58.5390   34.5750   45.4670 C   0  0  0  0  0  0  0  0  0  0  0  0
   58.4470   33.9070   46.8320 C   0  0  0  0  0  0  0  0  0  0  0  0
   57.4530   32.8990   46.2760 C   0  0  0  0  0  0  0  0  0  0  0  0
   56.7500   23.4590   45.9800 C   0  0  0  0  0  0  0  0  0  0  0  0
   56.6310   19.8930   43.1510 H   0  0  0  0  0  0  0  0  0  0  0  0
   54.1841   22.5734   43.8942 H   0  0  0  0  0  0  0  0  0  0  0  0
   53.4677   24.8937   44.4499 H   0  0  0  0  0  0  0  0  0  0  0  0
   59.9194   28.9207   46.9816 H   0  0  0  0  0  0  0  0  0  0  0  0
   59.5748   31.0696   45.7295 H   0  0  0  0  0  0  0  0  0  0  0  0
   56.8542   27.0182   44.5556 H   0  0  0  0  0  0  0  0  0  0  0  0
   56.5694   28.7361   42.1758 H   0  0  0  0  0  0  0  0  0  0  0  0
   55.2912   29.2314   43.2685 H   0  0  0  0  0  0  0  0  0  0  0  0
   57.0903   30.9391   41.6628 H   0  0  0  0  0  0  0  0  0  0  0  0
   55.7555   31.4895   42.6918 H   0  0  0  0  0  0  0  0  0  0  0  0
   56.5954   33.9481   44.4215 H   0  0  0  0  0  0  0  0  0  0  0  0
   59.5315   34.5027   44.9982 H   0  0  0  0  0  0  0  0  0  0  0  0
   58.3781   35.6585   45.3667 H   0  0  0  0  0  0  0  0  0  0  0  0
   59.3914   33.4616   47.1779 H   0  0  0  0  0  0  0  0  0  0  0  0
   58.1970   34.4993   47.7245 H   0  0  0  0  0  0  0  0  0  0  0  0
   57.8204   31.8622   46.2726 H   0  0  0  0  0  0  0  0  0  0  0  0
   56.4861   32.7396   46.7757 H   0  0  0  0  0  0  0  0  0  0  0  0
   57.6721   23.0523   46.4208 H   0  0  0  0  0  0  0  0  0  0  0  0
  1  2  1  0
  2  3  2  0
  2  4  1  0
  4  5  2  0
  5  6  1  0
  6  7  2  0
  7  8  1  0
  7  9  1  0
  9 10  1  0
 10 11  1  0
 11 12  2  0
 11 13  2  0
 11 14  1  0
 14 15  2  0
 15 16  1  0
 16 17  2  0
 17 18  1  0
 18 19  2  0
 18 20  1  0
 20 21  1  0
 21 22  1  0
 22 23  1  0
 23 24  2  0
 23 25  1  0
 25 26  1  0
 26 27  1  0
 27 28  1  0
  9 29  2  0
 29  4  1  0
 19 14  1  0
 28 25  1  0
 22 17  1  0
  1 30  1  0
  5 31  1  0
  6 32  1  0
 15 33  1  0
 16 34  1  0
 19 35  1  0
 20 36  1  0
 20 37  1  0
 21 38  1  0
 21 39  1  0
 25 40  1  0
 26 41  1  0
 26 42  1  0
 27 43  1  0
 27 44  1  0
 28 45  1  0
 28 46  1  0
 29 47  1  0
M  CHG  3   1  -1   8  -1  10  -1
M  END
>  <UniqueID>  (13) 
11

>  <SMILES>  (13) 
[NH-]C(=O)c1ccc([O-])c([N-]S(=O)(=O)c2ccc3c(c2)CCN3C(=O)C2CCC2)c1

>  <Energy>  (13) 
130.97903639100488

>  <Genealogy>  (13) 
[NH-]C(=O)c1ccc([O-])c([N-]S(=O)(=O)c2ccc3c(c2)CCN3C(=O)C2CCC2)c1 (protonated)
[NH-]C(=O)c1ccc([O-])c([N-]S(=O)(=O)c2ccc3c(c2)CCN3C(=O)C2CCC2)c1 (3D coordinates assigned)
[NH-]C(=O)c1ccc([O-])c([N-]S(=O)(=O)c2ccc3c(c2)CCN3C(=O)C2CCC2)c1 (nonaromatic ring conformer: 130.97903639100488 kcal/mol)

>  <smiles>  (13) 
NC(=O)c1ccc(O)c(NS(=O)(=O)c2ccc3c(c2)CCN3C(=O)C2CCC2)c1

>  <score_type>  (13) 
oracle

>  <origin>  (13) 
adg

>  <m_score__min__energy>  (13) 
-16.949999999999999

>  <m_primary>  (13) 
energy

$$$$
13:0
     RDKit          3D

 41 44  0  0  0  0  0  0  0  0999 V2000
   57.1394   21.9347   45.1632 H   0  0  0  0  0  0  0  0  0  0  0  0
   56.7020   22.9250   45.3580 C   0  0  0  0  0  0  0  0  0  0  0  0
   57.4450   23.8880   45.9640 N   0  0  0  0  0  0  0  0  0  0  0  0
   56.9580   25.1310   46.2320 C   0  0  0  0  0  0  0  0  0  0  0  0
   57.7540   25.9780   46.8260 N   0  0  0  0  0  0  0  0  0  0  0  0
   59.0210   26.4800   46.3840 C   0  0  0  0  0  0  0  0  0  0  0  0
   60.0270   25.7240   46.4480 O   0  0  0  0  0  0  0  0  0  0  0  0
   59.1930   27.9560   46.1190 C   0  0  0  0  0  0  0  0  0  0  0  0
   59.9788   28.3366   46.7881 H   0  0  0  0  0  0  0  0  0  0  0  0
   59.4514   28.0564   45.0545 H   0  0  0  0  0  0  0  0  0  0  0  0
   57.9100   28.8010   46.3460 C   0  0  1  0  0  0  0  0  0  0  0  0
   57.5888   28.6279   47.3837 H   0  0  0  0  0  0  0  0  0  0  0  0
   58.1830   30.2710   46.1650 C   0  0  0  0  0  0  0  0  0  0  0  0
   57.8460   30.9490   45.0100 C   0  0  0  0  0  0  0  0  0  0  0  0
   58.2230   32.2560   45.2180 C   0  0  0  0  0  0  0  0  0  0  0  0
   58.0900   33.3930   44.4230 C   0  0  0  0  0  0  0  0  0  0  0  0
   57.6251   33.3401   43.4275 H   0  0  0  0  0  0  0  0  0  0  0  0
   58.5710   34.6110   44.9380 C   0  0  0  0  0  0  0  0  0  0  0  0
   58.4906   35.5282   44.3362 H   0  0  0  0  0  0  0  0  0  0  0  0
   59.1570   34.6640   46.2240 C   0  0  0  0  0  0  0  0  0  0  0  0
   59.5312   35.6220   46.6142 H   0  0  0  0  0  0  0  0  0  0  0  0
   59.2650   33.5010   47.0080 C   0  0  0  0  0  0  0  0  0  0  0  0
   59.7141   33.5330   48.0116 H   0  0  0  0  0  0  0  0  0  0  0  0
   58.7850   32.3070   46.4730 C   0  0  0  0  0  0  0  0  0  0  0  0
   58.7640   31.0970   47.0650 N   0  0  0  0  0  0  0  0  0  0  0  0
   59.1030   30.8590   48.0230 H   0  0  0  0  0  0  0  0  0  0  0  0
   57.0370   30.3560   43.9030 C   0  0  0  0  0  0  0  0  0  0  0  0
   57.4823   30.6354   42.9367 H   0  0  0  0  0  0  0  0  0  0  0  0
   56.0073   30.7381   43.9645 H   0  0  0  0  0  0  0  0  0  0  0  0
   57.0140   28.8190   44.0290 C   0  0  0  0  0  0  0  0  0  0  0  0
   57.9700   28.4185   43.6608 H   0  0  0  0  0  0  0  0  0  0  0  0
   56.1685   28.4428   43.4344 H   0  0  0  0  0  0  0  0  0  0  0  0
   56.8190   28.3780   45.4300 N   0  0  0  0  0  0  0  0  0  0  0  0
   55.9120   28.7720   45.7790 H   0  0  0  0  0  0  0  0  0  0  0  0
   56.7240   27.3360   45.4470 H   0  0  0  0  0  0  0  0  0  0  0  0
   55.6360   25.4460   45.8280 C   0  0  0  0  0  0  0  0  0  0  0  0
   55.0950   26.7140   45.9780 O   0  0  0  0  0  0  0  0  0  0  0  0
   54.8570   24.4590   45.2180 C   0  0  0  0  0  0  0  0  0  0  0  0
   53.8217   24.6838   44.9220 H   0  0  0  0  0  0  0  0  0  0  0  0
   55.3860   23.1910   44.9830 C   0  0  0  0  0  0  0  0  0  0  0  0
   54.7732   22.4107   44.5080 H   0  0  0  0  0  0  0  0  0  0  0  0
  1  2  1  0
  2  3  1  0
  3  4  1  0
  4  5  2  0
  5  6  1  0
  6  7  2  0
  6  8  1  0
  8  9  1  0
  8 10  1  0
  8 11  1  0
 11 12  1  1
 11 13  1  0
 13 14  2  0
 14 15  1  0
 15 16  2  0
 16 17  1  0
 16 18  1  0
 18 19  1  0
 18 20  2  0
 20 21  1  0
 20 22  1  0
 22 23  1  0
 22 24  2  0
 24 25  1  0
 25 26  1  0
 14 27  1  0
 27 28  1  0
 27 29  1  0
 27 30  1  0
 30 31  1  0
 30 32  1  0
 30 33  1  0
 33 34  1  0
 33 35  1  0
  4 36  1  0
 36 37  1  0
 36 38  2  0
 38 39  1  0
 38 40  1  0
 40 41  1  0
 40  2  2  0
 33 11  1  0
 25 13  1  0
 24 15  1  0
M  CHG  3   3  -1  33   1  37  -1
M  END
>  <UniqueID>  (14) 
12

>  <SMILES>  (14) 
O=C(C[C@@H]1[NH2+]CCc2c1[nH]c1ccccc21)/N=c1/[n-]cccc1[O-]

>  <Energy>  (14) 
95.69980727837313

>  <Genealogy>  (14) 
O=C(CC1[NH2+]CCc2c1[nH]c1ccccc21)N=c1[n-]cccc1[O-] (protonated)
O=C(C[C@@H]1[NH2+]CCc2c1[nH]c1ccccc21)N=c1[n-]cccc1[O-] (chirality)
O=C(C[C@@H]1[NH2+]CCc2c1[nH]c1ccccc21)/N=c1/[n-]cccc1[O-] (cis-trans isomerization)
O=C(C[C@@H]1[NH2+]CCc2c1[nH]c1ccccc21)/N=c1/[n-]cccc1[O-] (3D coordinates assigned)
O=C(C[C@@H]1[NH2+]CCc2c1[nH]c1ccccc21)/N=c1/[n-]cccc1[O-] (nonaromatic ring conformer: 95.69980727837313 kcal/mol)

>  <smiles>  (14) 
O=C(CC1NCCc2c1[nH]c1ccccc21)N=c1[nH]cccc1O

>  <score_type>  (14) 
oracle

>  <origin>  (14) 
adg

>  <m_score__min__energy>  (14) 
-10.68

>  <m_primary>  (14) 
energy

$$$$
14:0
     RDKit          3D

 53 56  0  0  0  0  0  0  0  0999 V2000
   60.3051   29.0939   45.5982 H   0  0  0  0  0  0  0  0  0  0  0  0
   60.2290   29.0050   46.6920 C   0  0  0  0  0  0  0  0  0  0  0  0
   60.0530   30.1190   47.4510 N   0  0  0  0  0  0  0  0  0  0  0  0
   59.9590   30.0720   48.8070 C   0  0  0  0  0  0  0  0  0  0  0  0
   59.7500   31.1840   49.4540 N   0  0  0  0  0  0  0  0  0  0  0  0
   59.8860   32.5470   48.9370 C   0  0  0  0  0  0  0  0  0  0  0  0
   59.1047   32.7270   48.1839 H   0  0  0  0  0  0  0  0  0  0  0  0
   59.7810   33.2541   49.7731 H   0  0  0  0  0  0  0  0  0  0  0  0
   61.2410   32.7450   48.3020 C   0  0  0  0  0  0  0  0  0  0  0  0
   62.3380   31.9920   48.7560 C   0  0  0  0  0  0  0  0  0  0  0  0
   62.2021   31.2654   49.5706 H   0  0  0  0  0  0  0  0  0  0  0  0
   63.5990   32.1600   48.1800 C   0  0  0  0  0  0  0  0  0  0  0  0
   64.4510   31.5647   48.5402 H   0  0  0  0  0  0  0  0  0  0  0  0
   63.7800   33.0830   47.1470 C   0  0  0  0  0  0  0  0  0  0  0  0
   64.7719   33.2082   46.6883 H   0  0  0  0  0  0  0  0  0  0  0  0
   62.7000   33.8470   46.6970 C   0  0  0  0  0  0  0  0  0  0  0  0
   62.8447   34.5756   45.8857 H   0  0  0  0  0  0  0  0  0  0  0  0
   61.4360   33.6890   47.2740 C   0  0  0  0  0  0  0  0  0  0  0  0
   60.4070   34.4540   46.8280 F   0  0  0  0  0  0  0  0  0  0  0  0
   60.0770   28.8280   49.4560 C   0  0  0  0  0  0  0  0  0  0  0  0
   60.0213   28.7684   50.5530 H   0  0  0  0  0  0  0  0  0  0  0  0
   60.2650   27.6720   48.6990 C   0  0  0  0  0  0  0  0  0  0  0  0
   60.3755   26.7002   49.2025 H   0  0  0  0  0  0  0  0  0  0  0  0
   60.3140   27.7420   47.2980 C   0  0  0  0  0  0  0  0  0  0  0  0
   60.4380   26.5160   46.4690 C   0  0  0  0  0  0  0  0  0  0  0  0
   61.5770   26.1540   46.0690 O   0  0  0  0  0  0  0  0  0  0  0  0
   59.3080   25.6810   46.1650 N   0  0  0  0  0  0  0  0  0  0  0  0
   58.0530   26.0340   46.0690 C   0  0  0  0  0  0  0  0  0  0  0  0
   57.0710   25.1000   46.4160 C   0  0  0  0  0  0  0  0  0  0  0  0
   57.3600   24.0862   46.7303 H   0  0  0  0  0  0  0  0  0  0  0  0
   55.7230   25.4590   46.3620 C   0  0  0  0  0  0  0  0  0  0  0  0
   54.9495   24.7294   46.6436 H   0  0  0  0  0  0  0  0  0  0  0  0
   55.3640   26.7060   45.9630 N   0  0  0  0  0  0  0  0  0  0  0  0
   56.2820   27.6330   45.5780 C   0  0  0  0  0  0  0  0  0  0  0  0
   55.8270   28.9470   45.2250 N   0  0  0  0  0  0  0  0  0  0  0  0
   56.2840   29.7360   44.1200 C   0  0  0  0  0  0  0  0  0  0  0  0
   55.5090   30.0190   43.1660 O   0  0  0  0  0  0  0  0  0  0  0  0
   57.6840   30.2640   44.1190 C   0  0  0  0  0  0  0  0  0  0  0  0
   58.3264   29.5865   44.7007 H   0  0  0  0  0  0  0  0  0  0  0  0
   58.0390   30.3259   43.0797 H   0  0  0  0  0  0  0  0  0  0  0  0
   57.7320   31.6380   44.7310 C   0  0  0  0  0  0  0  0  0  0  0  0
   57.7850   32.7790   43.9130 C   0  0  0  0  0  0  0  0  0  0  0  0
   57.7738   32.6700   42.8185 H   0  0  0  0  0  0  0  0  0  0  0  0
   57.8520   34.0530   44.4860 C   0  0  0  0  0  0  0  0  0  0  0  0
   57.8867   34.9439   43.8417 H   0  0  0  0  0  0  0  0  0  0  0  0
   57.8750   34.1960   45.8770 C   0  0  0  0  0  0  0  0  0  0  0  0
   57.9254   35.1990   46.3258 H   0  0  0  0  0  0  0  0  0  0  0  0
   57.8340   33.0650   46.6970 C   0  0  0  0  0  0  0  0  0  0  0  0
   57.8552   33.1784   47.7909 H   0  0  0  0  0  0  0  0  0  0  0  0
   57.7660   31.7890   46.1280 C   0  0  0  0  0  0  0  0  0  0  0  0
   57.7390   30.9006   46.7761 H   0  0  0  0  0  0  0  0  0  0  0  0
   57.6500   27.3080   45.6170 C   0  0  0  0  0  0  0  0  0  0  0  0
   58.4021   28.0440   45.2965 H   0  0  0  0  0  0  0  0  0  0  0  0
  1  2  1  0
  2  3  1  0
  3  4  1  0
  4  5  2  3
  5  6  1  0
  6  7  1  0
  6  8  1  0
  6  9  1  0
  9 10  2  0
 10 11  1  0
 10 12  1  0
 12 13  1  0
 12 14  2  0
 14 15  1  0
 14 16  1  0
 16 17  1  0
 16 18  2  0
 18 19  1  0
  4 20  1  0
 20 21  1  0
 20 22  2  0
 22 23  1  0
 22 24  1  0
 24 25  1  0
 25 26  2  0
 25 27  1  0
 27 28  2  0
 28 29  1  0
 29 30  1  0
 29 31  2  0
 31 32  1  0
 31 33  1  0
 33 34  1  0
 34 35  1  0
 35 36  1  0
 36 37  2  0
 36 38  1  0
 38 39  1  0
 38 40  1  0
 38 41  1  0
 41 42  2  0
 42 43  1  0
 42 44  1  0
 44 45  1  0
 44 46  2  0
 46 47  1  0
 46 48  1  0
 48 49  1  0
 48 50  2  0
 50 51  1  0
 34 52  2  0
 52 53  1  0
 24  2  2  0
 52 28  1  0
 18  9  1  0
 50 41  1  0
M  CHG  3   3  -1  33  -1  35  -1
M  END
>  <UniqueID>  (15) 
13

>  <SMILES>  (15) 
O=C(Cc1ccccc1)[N-]c1c/c(=N\C(=O)c2ccc(=NCc3ccccc3F)[n-]c2)cc[n-]1

>  <Energy>  (15) 
71.94536694552424

>  <Genealogy>  (15) 
O=C(Cc1ccccc1)[N-]c1cc(=NC(=O)c2ccc(=NCc3ccccc3F)[n-]c2)cc[n-]1 (protonated)
O=C(Cc1ccccc1)[N-]c1c/c(=N\C(=O)c2ccc(=NCc3ccccc3F)[n-]c2)cc[n-]1 (cis-trans isomerization)
O=C(Cc1ccccc1)[N-]c1c/c(=N\C(=O)c2ccc(=NCc3ccccc3F)[n-]c2)cc[n-]1 (3D coordinates assigned)
O=C(Cc1ccccc1)[N-]c1c/c(=N\C(=O)c2ccc(=NCc3ccccc3F)[n-]c2)cc[n-]1 (optimized conformer: 71.94536694552424 kcal/mol)

>  <smiles>  (15) 
O=C(Cc1ccccc1)Nc1cc(=NC(=O)c2ccc(=NCc3ccccc3F)[nH]c2)cc[nH]1

>  <score_type>  (15) 
oracle

>  <origin>  (15) 
adg

>  <m_score__min__energy>  (15) 
-14.720000000000001

>  <m_primary>  (15) 
energy

$$$$
15:0
     RDKit          3D

 60 63  0  0  0  0  0  0  0  0999 V2000
   60.8080   29.3980   52.0750 C   0  0  0  0  0  0  0  0  0  0  0  0
   60.4290   29.6650   50.6440 C   0  0  0  0  0  0  0  0  0  0  0  0
   61.4320   29.8570   49.6770 C   0  0  0  0  0  0  0  0  0  0  0  0
   61.0920   30.1090   48.3470 C   0  0  0  0  0  0  0  0  0  0  0  0
   59.7500   30.1810   47.9700 C   0  0  0  0  0  0  0  0  0  0  0  0
   58.7440   29.9900   48.9200 C   0  0  0  0  0  0  0  0  0  0  0  0
   59.0730   29.7080   50.2590 C   0  0  0  0  0  0  0  0  0  0  0  0
   58.0480   29.5410   51.2510 N   0  0  0  0  0  0  0  0  0  0  0  0
   57.0410   30.4970   51.6090 C   0  0  0  0  0  0  0  0  0  0  0  0
   55.9270   30.0790   52.0210 O   0  0  0  0  0  0  0  0  0  0  0  0
   57.2680   31.9810   51.4720 C   0  0  0  0  0  0  0  0  0  0  0  0
   58.2370   32.4950   52.5420 C   0  0  0  0  0  0  0  0  0  0  0  0
   59.2160   33.4690   51.9430 C   0  0  0  0  0  0  0  0  0  0  0  0
   58.8620   34.6640   51.7680 O   0  0  0  0  0  0  0  0  0  0  0  0
   60.5030   33.0520   51.4680 N   0  0  0  0  0  0  0  0  0  0  0  0
   60.9910   33.2300   50.1330 C   0  0  0  0  0  0  0  0  0  0  0  0
   62.3570   33.4200   49.8820 C   0  0  0  0  0  0  0  0  0  0  0  0
   62.8080   33.6230   48.5760 C   0  0  0  0  0  0  0  0  0  0  0  0
   61.9000   33.6540   47.5150 C   0  0  0  0  0  0  0  0  0  0  0  0
   60.5230   33.4870   47.7540 C   0  0  0  0  0  0  0  0  0  0  0  0
   59.5400   33.5220   46.6490 C   0  0  0  0  0  0  0  0  0  0  0  0
   58.8720   34.6340   46.1640 C   0  0  0  0  0  0  0  0  0  0  0  0
   58.0460   34.1710   45.1640 C   0  0  0  0  0  0  0  0  0  0  0  0
   58.2540   32.8090   45.1030 C   0  0  0  0  0  0  0  0  0  0  0  0
   57.5580   31.8640   44.1710 C   0  0  0  0  0  0  0  0  0  0  0  0
   56.5530   31.0640   44.8690 N   0  0  0  0  0  0  0  0  0  0  0  0
   56.5600   29.6370   45.0370 C   0  0  0  0  0  0  0  0  0  0  0  0
   55.4870   29.0030   44.8610 O   0  0  0  0  0  0  0  0  0  0  0  0
   57.7920   28.8830   45.3340 C   0  0  0  0  0  0  0  0  0  0  0  0
   57.7960   27.8460   46.2820 C   0  0  0  0  0  0  0  0  0  0  0  0
   58.9840   27.1760   46.5840 C   0  0  0  0  0  0  0  0  0  0  0  0
   60.1700   27.5270   45.9360 C   0  0  0  0  0  0  0  0  0  0  0  0
   60.1700   28.5430   44.9770 C   0  0  0  0  0  0  0  0  0  0  0  0
   58.9830   29.2130   44.6700 C   0  0  0  0  0  0  0  0  0  0  0  0
   59.1540   32.4530   45.9890 O   0  0  0  0  0  0  0  0  0  0  0  0
   60.0780   33.2860   49.0720 C   0  0  0  0  0  0  0  0  0  0  0  0
   60.0938   29.9011   52.7434 H   0  0  0  0  0  0  0  0  0  0  0  0
   60.7864   28.3146   52.2640 H   0  0  0  0  0  0  0  0  0  0  0  0
   61.8209   29.7830   52.2640 H   0  0  0  0  0  0  0  0  0  0  0  0
   62.4909   29.8083   49.9707 H   0  0  0  0  0  0  0  0  0  0  0  0
   61.8823   30.2510   47.5952 H   0  0  0  0  0  0  0  0  0  0  0  0
   59.4842   30.3885   46.9230 H   0  0  0  0  0  0  0  0  0  0  0  0
   57.6881   30.0604   48.6197 H   0  0  0  0  0  0  0  0  0  0  0  0
   57.6888   32.1892   50.4772 H   0  0  0  0  0  0  0  0  0  0  0  0
   56.3035   32.4940   51.6005 H   0  0  0  0  0  0  0  0  0  0  0  0
   57.6657   32.9982   53.3360 H   0  0  0  0  0  0  0  0  0  0  0  0
   58.7933   31.6418   52.9574 H   0  0  0  0  0  0  0  0  0  0  0  0
   63.0750   33.4092   50.7153 H   0  0  0  0  0  0  0  0  0  0  0  0
   63.8822   33.7590   48.3821 H   0  0  0  0  0  0  0  0  0  0  0  0
   62.2627   33.8096   46.4882 H   0  0  0  0  0  0  0  0  0  0  0  0
   58.9792   35.6736   46.5071 H   0  0  0  0  0  0  0  0  0  0  0  0
   57.3610   34.7655   44.5417 H   0  0  0  0  0  0  0  0  0  0  0  0
   57.0646   32.4439   43.3771 H   0  0  0  0  0  0  0  0  0  0  0  0
   58.3095   31.1808   43.7485 H   0  0  0  0  0  0  0  0  0  0  0  0
   56.8615   27.5611   46.7875 H   0  0  0  0  0  0  0  0  0  0  0  0
   58.9852   26.3707   47.3334 H   0  0  0  0  0  0  0  0  0  0  0  0
   61.1056   27.0029   46.1809 H   0  0  0  0  0  0  0  0  0  0  0  0
   61.1041   28.8153   44.4639 H   0  0  0  0  0  0  0  0  0  0  0  0
   58.9823   30.0027   43.9043 H   0  0  0  0  0  0  0  0  0  0  0  0
   59.0025   33.1716   49.2723 H   0  0  0  0  0  0  0  0  0  0  0  0
  1  2  1  0
  2  3  2  0
  3  4  1  0
  4  5  2  0
  5  6  1  0
  6  7  2  0
  7  8  1  0
  8  9  1  0
  9 10  2  0
  9 11  1  0
 11 12  1  0
 12 13  1  0
 13 14  2  0
 13 15  1  0
 15 16  1  0
 16 17  2  0
 17 18  1  0
 18 19  2  0
 19 20  1  0
 20 21  1  0
 21 22  2  0
 22 23  1  0
 23 24  2  0
 24 25  1  0
 25 26  1  0
 26 27  1  0
 27 28  2  0
 27 29  1  0
 29 30  2  0
 30 31  1  0
 31 32  2  0
 32 33  1  0
 33 34  2  0
 24 35  1  0
 20 36  2  0
  7  2  1  0
 36 16  1  0
 35 21  1  0
 34 29  1  0
  1 37  1  0
  1 38  1  0
  1 39  1  0
  3 40  1  0
  4 41  1  0
  5 42  1  0
  6 43  1  0
 11 44  1  0
 11 45  1  0
 12 46  1  0
 12 47  1  0
 17 48  1  0
 18 49  1  0
 19 50  1  0
 22 51  1  0
 23 52  1  0
 25 53  1  0
 25 54  1  0
 30 55  1  0
 31 56  1  0
 32 57  1  0
 33 58  1  0
 34 59  1  0
 36 60  1  0
M  CHG  3   8  -1  15  -1  26  -1
M  END
>  <UniqueID>  (16) 
14

>  <SMILES>  (16) 
Cc1ccccc1[N-]C(=O)CCC(=O)[N-]c1cccc(-c2ccc(C[N-]C(=O)c3ccccc3)o2)c1

>  <Energy>  (16) 
99.86684287885687

>  <Genealogy>  (16) 
Cc1ccccc1[N-]C(=O)CCC(=O)[N-]c1cccc(-c2ccc(C[N-]C(=O)c3ccccc3)o2)c1 (protonated)
Cc1ccccc1[N-]C(=O)CCC(=O)[N-]c1cccc(-c2ccc(C[N-]C(=O)c3ccccc3)o2)c1 (3D coordinates assigned)
Cc1ccccc1[N-]C(=O)CCC(=O)[N-]c1cccc(-c2ccc(C[N-]C(=O)c3ccccc3)o2)c1 (optimized conformer: 99.86684287885687 kcal/mol)

>  <smiles>  (16) 
Cc1ccccc1NC(=O)CCC(=O)Nc1cccc(-c2ccc(CNC(=O)c3ccccc3)o2)c1

>  <score_type>  (16) 
oracle

>  <origin>  (16) 
adg

>  <m_score__min__energy>  (16) 
-14.460000000000001

>  <m_primary>  (16) 
energy

$$$$
16:0
     RDKit          3D

 36 38  0  0  0  0  0  0  0  0999 V2000
   55.0650   28.3420   53.1700 C   0  0  0  0  0  0  0  0  0  0  0  0
   54.1030   29.3820   52.6650 C   0  0  0  0  0  0  0  0  0  0  0  0
   52.7260   29.1100   52.6750 C   0  0  0  0  0  0  0  0  0  0  0  0
   51.8100   30.0570   52.2100 C   0  0  0  0  0  0  0  0  0  0  0  0
   52.2540   31.2910   51.7120 C   0  0  0  0  0  0  0  0  0  0  0  0
   51.2800   32.2850   51.2080 C   0  0  0  0  0  0  0  0  0  0  0  0
   50.6730   33.0490   52.0050 O   0  0  0  0  0  0  0  0  0  0  0  0
   51.0200   32.3880   49.8470 O   0  0  0  0  0  0  0  0  0  0  0  0
   53.6320   31.5620   51.6890 C   0  0  0  0  0  0  0  0  0  0  0  0
   54.5620   30.6230   52.1710 C   0  0  0  0  0  0  0  0  0  0  0  0
   55.9730   30.9050   52.1050 N   0  0  0  0  0  0  0  0  0  0  0  0
   56.7960   31.1030   53.2650 C   0  0  0  0  0  0  0  0  0  0  0  0
   56.3440   30.8730   54.4200 O   0  0  0  0  0  0  0  0  0  0  0  0
   58.2000   31.5900   53.1090 C   0  0  0  0  0  0  0  0  0  0  0  0
   58.2210   33.0100   51.9690 S   0  0  0  0  0  0  0  0  0  0  0  0
   58.5020   31.9890   50.5270 C   0  0  0  0  0  0  0  0  0  0  0  0
   58.7570   32.5150   49.2990 N   0  0  0  0  0  0  0  0  0  0  0  0
   58.8990   31.4150   48.5460 C   0  0  0  0  0  0  0  0  0  0  0  0
   59.1760   31.3270   47.1860 C   0  0  0  0  0  0  0  0  0  0  0  0
   59.2750   30.0370   46.6340 C   0  0  0  0  0  0  0  0  0  0  0  0
   59.0930   28.9030   47.4600 C   0  0  0  0  0  0  0  0  0  0  0  0
   58.8210   29.0530   48.7930 N   0  0  0  0  0  0  0  0  0  0  0  0
   58.7310   30.3050   49.3050 C   0  0  0  0  0  0  0  0  0  0  0  0
   58.4740   30.6300   50.5780 N   0  0  0  0  0  0  0  0  0  0  0  0
   55.0631   28.3441   54.2700 H   0  0  0  0  0  0  0  0  0  0  0  0
   54.7584   27.3508   52.8047 H   0  0  0  0  0  0  0  0  0  0  0  0
   56.0771   28.5705   52.8047 H   0  0  0  0  0  0  0  0  0  0  0  0
   52.3646   28.1421   53.0525 H   0  0  0  0  0  0  0  0  0  0  0  0
   50.7332   29.8334   52.2346 H   0  0  0  0  0  0  0  0  0  0  0  0
   53.9891   32.5222   51.2884 H   0  0  0  0  0  0  0  0  0  0  0  0
   56.4370   30.9170   51.1690 H   0  0  0  0  0  0  0  0  0  0  0  0
   58.5926   31.8995   54.0888 H   0  0  0  0  0  0  0  0  0  0  0  0
   58.8273   30.7825   52.7035 H   0  0  0  0  0  0  0  0  0  0  0  0
   59.3118   32.2273   46.5687 H   0  0  0  0  0  0  0  0  0  0  0  0
   59.4933   29.9103   45.5633 H   0  0  0  0  0  0  0  0  0  0  0  0
   59.1706   27.8943   47.0282 H   0  0  0  0  0  0  0  0  0  0  0  0
  1  2  1  0
  2  3  2  0
  3  4  1  0
  4  5  2  0
  5  6  1  0
  6  7  2  0
  6  8  1  0
  5  9  1  0
  9 10  2  0
 10 11  1  0
 11 12  1  0
 12 13  2  0
 12 14  1  0
 14 15  1  0
 15 16  1  0
 16 17  2  0
 17 18  1  0
 18 19  2  0
 19 20  1  0
 20 21  2  0
 21 22  1  0
 22 23  2  0
 23 24  1  0
 10  2  1  0
 24 16  1  0
 23 18  1  0
  1 25  1  0
  1 26  1  0
  1 27  1  0
  3 28  1  0
  4 29  1  0
  9 30  1  0
 11 31  1  0
 14 32  1  0
 14 33  1  0
 19 34  1  0
 20 35  1  0
 21 36  1  0
M  CHG  2   8  -1  24  -1
M  END
>  <UniqueID>  (17) 
15

>  <SMILES>  (17) 
Cc1ccc(C(=O)[O-])cc1NC(=O)CSc1nc2cccnc2[n-]1

>  <Energy>  (17) 
75.04441164095417

>  <Genealogy>  (17) 
Cc1ccc(C(=O)[O-])cc1NC(=O)CSc1nc2cccnc2[n-]1 (protonated)
Cc1ccc(C(=O)[O-])cc1NC(=O)CSc1nc2cccnc2[n-]1 (3D coordinates assigned)
Cc1ccc(C(=O)[O-])cc1NC(=O)CSc1nc2cccnc2[n-]1 (optimized conformer: 75.04441164095417 kcal/mol)

>  <smiles>  (17) 
Cc1ccc(C(=O)O)cc1NC(=O)CSc1nc2cccnc2[nH]1

>  <score_type>  (17) 
oracle

>  <origin>  (17) 
adg

>  <m_score__min__energy>  (17) 
-12.67

>  <m_primary>  (17) 
energy

$$$$
17:0
     RDKit          3D

 59 61  0  0  0  0  0  0  0  0999 V2000
   57.4420   31.4020   43.2070 C   0  0  0  0  0  0  0  0  0  0  0  0
   58.1450   30.2360   43.7640 N   0  0  1  0  0  0  0  0  0  0  0  0
   58.8680   30.6060   44.9580 C   0  0  0  0  0  0  0  0  0  0  0  0
   59.4630   29.6600   45.7000 C   0  0  0  0  0  0  0  0  0  0  0  0
   60.3330   30.0700   46.8240 C   0  0  0  0  0  0  0  0  0  0  0  0
   61.1110   29.2320   47.3550 O   0  0  0  0  0  0  0  0  0  0  0  0
   60.2290   31.3960   47.3570 N   0  0  0  0  0  0  0  0  0  0  0  0
   61.3240   32.2060   47.8100 C   0  0  0  0  0  0  0  0  0  0  0  0
   62.6530   31.8320   47.5390 C   0  0  0  0  0  0  0  0  0  0  0  0
   63.7130   32.6460   47.9470 C   0  0  0  0  0  0  0  0  0  0  0  0
   63.4590   33.8420   48.6170 C   0  0  0  0  0  0  0  0  0  0  0  0
   62.1440   34.2320   48.8790 C   0  0  0  0  0  0  0  0  0  0  0  0
   61.0660   33.4230   48.4780 C   0  0  0  0  0  0  0  0  0  0  0  0
   59.6510   33.8670   48.7770 C   0  0  0  0  0  0  0  0  0  0  0  0
   58.8560   34.2110   47.4980 C   0  0  0  0  0  0  0  0  0  0  0  0
   57.8650   33.0930   47.1180 C   0  0  0  0  0  0  0  0  0  0  0  0
   56.9990   33.4860   45.9020 C   0  0  0  0  0  0  0  0  0  0  0  0
   57.7070   34.4460   44.9250 C   0  0  0  0  0  0  0  0  0  0  0  0
   59.2230   34.2430   44.9330 C   0  0  0  0  0  0  0  0  0  0  0  0
   59.8290   34.5070   46.3260 C   0  0  0  0  0  0  0  0  0  0  0  0
   59.3560   28.2160   45.2230 C   0  0  1  0  0  0  0  0  0  0  0  0
   59.8370   27.2070   46.2520 C   0  0  0  0  0  0  0  0  0  0  0  0
   60.7190   26.4070   45.9800 O   0  0  0  0  0  0  0  0  0  0  0  0
   59.1390   27.1880   47.8630 Cl  0  0  0  0  0  0  0  0  0  0  0  0
   57.9110   27.8800   44.6570 C   0  0  0  0  0  0  0  0  0  0  0  0
   56.9860   27.2650   45.7380 C   0  0  0  0  0  0  0  0  0  0  0  0
   58.0560   26.8450   43.5160 C   0  0  0  0  0  0  0  0  0  0  0  0
   57.1920   29.1600   44.0930 C   0  0  0  0  0  0  0  0  0  0  0  0
   57.0640   32.0289   44.0280 H   0  0  0  0  0  0  0  0  0  0  0  0
   58.1373   31.9882   42.5882 H   0  0  0  0  0  0  0  0  0  0  0  0
   56.5990   31.0607   42.5882 H   0  0  0  0  0  0  0  0  0  0  0  0
   58.8250   29.8920   43.0450 H   0  0  0  0  0  0  0  0  0  0  0  0
   58.9308   31.6622   45.2587 H   0  0  0  0  0  0  0  0  0  0  0  0
   62.8587   30.8937   47.0030 H   0  0  0  0  0  0  0  0  0  0  0  0
   64.7497   32.3426   47.7392 H   0  0  0  0  0  0  0  0  0  0  0  0
   64.2956   34.4792   48.9397 H   0  0  0  0  0  0  0  0  0  0  0  0
   61.9499   35.1794   49.4031 H   0  0  0  0  0  0  0  0  0  0  0  0
   59.1314   33.0556   49.3077 H   0  0  0  0  0  0  0  0  0  0  0  0
   59.7093   34.7788   49.3896 H   0  0  0  0  0  0  0  0  0  0  0  0
   58.2617   35.1131   47.7051 H   0  0  0  0  0  0  0  0  0  0  0  0
   58.4317   32.1827   46.8727 H   0  0  0  0  0  0  0  0  0  0  0  0
   57.1960   32.9224   47.9744 H   0  0  0  0  0  0  0  0  0  0  0  0
   56.7301   32.5698   45.3558 H   0  0  0  0  0  0  0  0  0  0  0  0
   56.1166   34.0148   46.2916 H   0  0  0  0  0  0  0  0  0  0  0  0
   57.3281   34.2638   43.9085 H   0  0  0  0  0  0  0  0  0  0  0  0
   57.4970   35.4774   45.2444 H   0  0  0  0  0  0  0  0  0  0  0  0
   59.4450   33.2066   44.6388 H   0  0  0  0  0  0  0  0  0  0  0  0
   59.6674   34.9587   44.2257 H   0  0  0  0  0  0  0  0  0  0  0  0
   60.7181   33.8701   46.4439 H   0  0  0  0  0  0  0  0  0  0  0  0
   60.0704   35.5792   46.3727 H   0  0  0  0  0  0  0  0  0  0  0  0
   60.0537   28.1207   44.3780 H   0  0  0  0  0  0  0  0  0  0  0  0
   57.3695   27.5200   46.7370 H   0  0  0  0  0  0  0  0  0  0  0  0
   55.9687   27.6672   45.6221 H   0  0  0  0  0  0  0  0  0  0  0  0
   56.9633   26.1714   45.6221 H   0  0  0  0  0  0  0  0  0  0  0  0
   58.1965   25.8424   43.9461 H   0  0  0  0  0  0  0  0  0  0  0  0
   57.1478   26.8538   42.8954 H   0  0  0  0  0  0  0  0  0  0  0  0
   58.9268   27.1030   42.8954 H   0  0  0  0  0  0  0  0  0  0  0  0
   56.6412   28.8841   43.1817 H   0  0  0  0  0  0  0  0  0  0  0  0
   56.5138   29.5370   44.8727 H   0  0  0  0  0  0  0  0  0  0  0  0
  1  2  1  0
  2  3  1  0
  3  4  2  0
  4  5  1  0
  5  6  2  0
  5  7  1  0
  7  8  1  0
  8  9  2  0
  9 10  1  0
 10 11  2  0
 11 12  1  0
 12 13  2  0
 13 14  1  0
 14 15  1  0
 15 16  1  0
 16 17  1  0
 17 18  1  0
 18 19  1  0
 19 20  1  0
  4 21  1  0
 21 22  1  0
 22 23  2  0
 22 24  1  0
 21 25  1  0
 25 26  1  0
 25 27  1  0
 25 28  1  0
 28  2  1  0
 13  8  1  0
 20 15  1  0
  1 29  1  0
  1 30  1  0
  1 31  1  0
  2 32  1  6
  3 33  1  0
  9 34  1  0
 10 35  1  0
 11 36  1  0
 12 37  1  0
 14 38  1  0
 14 39  1  0
 15 40  1  0
 16 41  1  0
 16 42  1  0
 17 43  1  0
 17 44  1  0
 18 45  1  0
 18 46  1  0
 19 47  1  0
 19 48  1  0
 20 49  1  0
 20 50  1  0
 21 51  1  6
 26 52  1  0
 26 53  1  0
 26 54  1  0
 27 55  1  0
 27 56  1  0
 27 57  1  0
 28 58  1  0
 28 59  1  0
M  CHG  2   2   1   7  -1
M  END
>  <UniqueID>  (18) 
16

>  <SMILES>  (18) 
C[N@H+]1C=C(C(=O)[N-]c2ccccc2CC2CCCCC2)[C@@H](C(=O)Cl)C(C)(C)C1

>  <Energy>  (18) 
74.78942296904835

>  <Genealogy>  (18) 
C[NH+]1C=C(C(=O)[N-]c2ccccc2CC2CCCCC2)C(C(=O)Cl)C(C)(C)C1 (protonated)
C[N@H+]1C=C(C(=O)[N-]c2ccccc2CC2CCCCC2)[C@@H](C(=O)Cl)C(C)(C)C1 (chirality)
C[N@H+]1C=C(C(=O)[N-]c2ccccc2CC2CCCCC2)[C@@H](C(=O)Cl)C(C)(C)C1 (3D coordinates assigned)
C[N@H+]1C=C(C(=O)[N-]c2ccccc2CC2CCCCC2)[C@@H](C(=O)Cl)C(C)(C)C1 (nonaromatic ring conformer: 74.78942296904835 kcal/mol)

>  <smiles>  (18) 
CN1C=C(C(=O)Nc2ccccc2CC2CCCCC2)C(C(=O)Cl)C(C)(C)C1

>  <score_type>  (18) 
oracle

>  <origin>  (18) 
adg

>  <m_score__min__energy>  (18) 
-9.1799999999999997

>  <m_primary>  (18) 
energy

$$$$
18:0
     RDKit          3D

 43 45  0  0  0  0  0  0  0  0999 V2000
   56.2230   30.8080   44.5090 N   0  0  0  0  0  0  0  0  0  0  0  0
   57.0990   31.4810   44.8540 C   0  0  0  0  0  0  0  0  0  0  0  0
   58.1960   32.3210   45.2830 C   0  0  0  0  0  0  0  0  0  0  0  0
   59.2600   31.8020   45.9370 C   0  0  0  0  0  0  0  0  0  0  0  0
   59.4130   30.3420   46.1480 C   0  0  0  0  0  0  0  0  0  0  0  0
   59.7690   29.4980   45.0820 C   0  0  0  0  0  0  0  0  0  0  0  0
   59.9260   28.1250   45.2940 C   0  0  0  0  0  0  0  0  0  0  0  0
   59.7370   27.5870   46.5700 C   0  0  0  0  0  0  0  0  0  0  0  0
   59.3920   28.4220   47.6370 C   0  0  0  0  0  0  0  0  0  0  0  0
   59.2340   29.7960   47.4290 C   0  0  0  0  0  0  0  0  0  0  0  0
   60.4010   32.6950   46.3660 C   0  0  0  0  0  0  0  0  0  0  0  0
   59.9570   34.0690   46.6800 N   0  0  2  0  0  0  0  0  0  0  0  0
   59.1550   34.1260   47.9410 C   0  0  0  0  0  0  0  0  0  0  0  0
   60.0290   34.2710   49.2020 C   0  0  0  0  0  0  0  0  0  0  0  0
   61.3240   33.5100   49.0920 C   0  0  0  0  0  0  0  0  0  0  0  0
   61.3740   32.1400   49.3990 C   0  0  0  0  0  0  0  0  0  0  0  0
   62.5720   31.4310   49.2640 C   0  0  0  0  0  0  0  0  0  0  0  0
   63.7250   32.0840   48.8210 C   0  0  0  0  0  0  0  0  0  0  0  0
   63.6830   33.4460   48.5120 C   0  0  0  0  0  0  0  0  0  0  0  0
   62.4870   34.1580   48.6450 C   0  0  0  0  0  0  0  0  0  0  0  0
   59.2520   34.6390   45.5110 C   0  0  0  0  0  0  0  0  0  0  0  0
   58.0290   33.8060   45.0810 C   0  0  0  0  0  0  0  0  0  0  0  0
   59.9246   29.9190   44.0777 H   0  0  0  0  0  0  0  0  0  0  0  0
   60.1986   27.4674   44.4554 H   0  0  0  0  0  0  0  0  0  0  0  0
   59.8597   26.5064   46.7348 H   0  0  0  0  0  0  0  0  0  0  0  0
   59.2447   27.9978   48.6412 H   0  0  0  0  0  0  0  0  0  0  0  0
   58.9686   30.4511   48.2719 H   0  0  0  0  0  0  0  0  0  0  0  0
   60.8699   32.2623   47.2621 H   0  0  0  0  0  0  0  0  0  0  0  0
   61.1107   32.7564   45.5278 H   0  0  0  0  0  0  0  0  0  0  0  0
   60.8340   34.6300   46.8090 H   0  0  0  0  0  0  0  0  0  0  0  0
   58.4739   34.9880   47.8851 H   0  0  0  0  0  0  0  0  0  0  0  0
   58.6071   33.1760   48.0268 H   0  0  0  0  0  0  0  0  0  0  0  0
   60.2568   35.3364   49.3536 H   0  0  0  0  0  0  0  0  0  0  0  0
   59.4660   33.8552   50.0506 H   0  0  0  0  0  0  0  0  0  0  0  0
   60.4675   31.6230   49.7469 H   0  0  0  0  0  0  0  0  0  0  0  0
   62.6065   30.3587   49.5067 H   0  0  0  0  0  0  0  0  0  0  0  0
   64.6667   31.5254   48.7154 H   0  0  0  0  0  0  0  0  0  0  0  0
   64.5918   33.9587   48.1637 H   0  0  0  0  0  0  0  0  0  0  0  0
   62.4569   35.2296   48.3986 H   0  0  0  0  0  0  0  0  0  0  0  0
   58.9128   35.6537   45.7666 H   0  0  0  0  0  0  0  0  0  0  0  0
   59.9601   34.6429   44.6692 H   0  0  0  0  0  0  0  0  0  0  0  0
   57.1601   34.1392   45.6675 H   0  0  0  0  0  0  0  0  0  0  0  0
   57.8983   33.9673   44.0008 H   0  0  0  0  0  0  0  0  0  0  0  0
  1  2  3  0
  2  3  1  0
  3  4  2  0
  4  5  1  0
  5  6  2  0
  6  7  1  0
  7  8  2  0
  8  9  1  0
  9 10  2  0
  4 11  1  0
 11 12  1  0
 12 13  1  0
 13 14  1  0
 14 15  1  0
 15 16  2  0
 16 17  1  0
 17 18  2  0
 18 19  1  0
 19 20  2  0
 12 21  1  0
 21 22  1  0
 22  3  1  0
 10  5  1  0
 20 15  1  0
  6 23  1  0
  7 24  1  0
  8 25  1  0
  9 26  1  0
 10 27  1  0
 11 28  1  0
 11 29  1  0
 12 30  1  1
 13 31  1  0
 13 32  1  0
 14 33  1  0
 14 34  1  0
 16 35  1  0
 17 36  1  0
 18 37  1  0
 19 38  1  0
 20 39  1  0
 21 40  1  0
 21 41  1  0
 22 42  1  0
 22 43  1  0
M  CHG  1  12   1
M  END
>  <UniqueID>  (19) 
17

>  <SMILES>  (19) 
N#CC1=C(c2ccccc2)C[N@H+](CCc2ccccc2)CC1

>  <Energy>  (19) 
57.81128432040166

>  <Genealogy>  (19) 
N#CC1=C(c2ccccc2)C[NH+](CCc2ccccc2)CC1 (protonated)
N#CC1=C(c2ccccc2)C[N@H+](CCc2ccccc2)CC1 (chirality)
N#CC1=C(c2ccccc2)C[N@H+](CCc2ccccc2)CC1 (3D coordinates assigned)
N#CC1=C(c2ccccc2)C[N@H+](CCc2ccccc2)CC1 (nonaromatic ring conformer: 57.81128432040166 kcal/mol)

>  <smiles>  (19) 
N#CC1=C(c2ccccc2)CN(CCc2ccccc2)CC1

>  <score_type>  (19) 
oracle

>  <origin>  (19) 
adg

>  <m_score__min__energy>  (19) 
-5.8700000000000001

>  <m_primary>  (19) 
energy

$$$$
19:0
     RDKit          3D

 53 55  0  0  0  0  0  0  0  0999 V2000
   57.9990   31.1590   51.1780 C   0  0  0  0  0  0  0  0  0  0  0  0
   58.5100   31.7140   50.0780 C   0  0  0  0  0  0  0  0  0  0  0  0
   59.1160   33.0880   50.1130 C   0  0  0  0  0  0  0  0  0  0  0  0
   60.2900   33.1590   49.2350 N   0  0  0  0  0  0  0  0  0  0  0  0
   61.5690   32.8920   49.5780 C   0  0  0  0  0  0  0  0  0  0  0  0
   62.1270   32.4480   51.2290 S   0  0  0  0  0  0  0  0  0  0  0  0
   62.7500   30.7930   50.7690 C   0  0  0  0  0  0  0  0  0  0  0  0
   61.7460   30.0510   49.9410 C   0  0  0  0  0  0  0  0  0  0  0  0
   61.1000   29.1010   50.4610 O   0  0  0  0  0  0  0  0  0  0  0  0
   61.5660   30.3860   48.5570 N   0  0  0  0  0  0  0  0  0  0  0  0
   60.4570   29.9410   47.7560 C   0  0  0  0  0  0  0  0  0  0  0  0
   60.3210   30.4190   46.4430 C   0  0  0  0  0  0  0  0  0  0  0  0
   59.2420   30.0170   45.6500 C   0  0  0  0  0  0  0  0  0  0  0  0
   58.2750   29.1440   46.1660 C   0  0  0  0  0  0  0  0  0  0  0  0
   56.9070   28.6290   45.1850 S   0  0  0  0  0  0  0  0  0  0  0  0
   56.1660   27.2480   45.9110 N   0  0  0  0  0  0  0  0  0  0  0  0
   57.3890   28.2750   43.8060 O   0  0  0  0  0  0  0  0  0  0  0  0
   55.8930   29.7340   45.0780 O   0  0  0  0  0  0  0  0  0  0  0  0
   58.3920   28.6840   47.4840 C   0  0  0  0  0  0  0  0  0  0  0  0
   59.4710   29.0840   48.2770 C   0  0  0  0  0  0  0  0  0  0  0  0
   62.4100   33.0760   48.5470 N   0  0  0  0  0  0  0  0  0  0  0  0
   61.6750   33.4550   47.5140 N   0  0  0  0  0  0  0  0  0  0  0  0
   60.3910   33.5000   47.9250 C   0  0  0  0  0  0  0  0  0  0  0  0
   59.2870   34.0060   47.0220 C   0  0  0  0  0  0  0  0  0  0  0  0
   59.8090   34.5500   45.6640 C   0  0  0  0  0  0  0  0  0  0  0  0
   58.8600   34.2520   44.4920 C   0  0  0  0  0  0  0  0  0  0  0  0
   57.3990   34.4550   44.9040 C   0  0  0  0  0  0  0  0  0  0  0  0
   56.9770   33.5190   46.0560 C   0  0  0  0  0  0  0  0  0  0  0  0
   58.1600   32.9640   46.8740 C   0  0  0  0  0  0  0  0  0  0  0  0
   57.5595   30.1517   51.1325 H   0  0  0  0  0  0  0  0  0  0  0  0
   58.0171   31.7086   52.1307 H   0  0  0  0  0  0  0  0  0  0  0  0
   58.4873   31.1566   49.1300 H   0  0  0  0  0  0  0  0  0  0  0  0
   58.3683   33.8212   49.7764 H   0  0  0  0  0  0  0  0  0  0  0  0
   59.4307   33.3099   51.1434 H   0  0  0  0  0  0  0  0  0  0  0  0
   63.6791   30.9065   50.1911 H   0  0  0  0  0  0  0  0  0  0  0  0
   62.9356   30.2206   51.6898 H   0  0  0  0  0  0  0  0  0  0  0  0
   62.3170   30.9450   48.0910 H   0  0  0  0  0  0  0  0  0  0  0  0
   61.0689   31.1149   46.0351 H   0  0  0  0  0  0  0  0  0  0  0  0
   59.1519   30.3871   44.6181 H   0  0  0  0  0  0  0  0  0  0  0  0
   55.1470   27.4600   45.9980 H   0  0  0  0  0  0  0  0  0  0  0  0
   57.6313   28.0050   47.8966 H   0  0  0  0  0  0  0  0  0  0  0  0
   59.5496   28.7266   49.3144 H   0  0  0  0  0  0  0  0  0  0  0  0
   58.8428   34.8817   47.5178 H   0  0  0  0  0  0  0  0  0  0  0  0
   59.9317   35.6400   45.7470 H   0  0  0  0  0  0  0  0  0  0  0  0
   60.7624   34.0440   45.4518 H   0  0  0  0  0  0  0  0  0  0  0  0
   59.0957   34.9285   43.6572 H   0  0  0  0  0  0  0  0  0  0  0  0
   58.9962   33.2035   44.1884 H   0  0  0  0  0  0  0  0  0  0  0  0
   57.2651   35.4974   45.2288 H   0  0  0  0  0  0  0  0  0  0  0  0
   56.7693   34.2200   44.0332 H   0  0  0  0  0  0  0  0  0  0  0  0
   56.3191   34.0806   46.7355 H   0  0  0  0  0  0  0  0  0  0  0  0
   56.4722   32.6557   45.5979 H   0  0  0  0  0  0  0  0  0  0  0  0
   57.8008   32.6822   47.8748 H   0  0  0  0  0  0  0  0  0  0  0  0
   58.5664   32.0912   46.3420 H   0  0  0  0  0  0  0  0  0  0  0  0
  1  2  2  0
  2  3  1  0
  3  4  1  0
  4  5  1  0
  5  6  1  0
  6  7  1  0
  7  8  1  0
  8  9  2  0
  8 10  1  0
 10 11  1  0
 11 12  2  0
 12 13  1  0
 13 14  2  0
 14 15  1  0
 15 16  1  0
 15 17  2  0
 15 18  2  0
 14 19  1  0
 19 20  2  0
  5 21  2  0
 21 22  1  0
 22 23  2  0
 23 24  1  0
 24 25  1  0
 25 26  1  0
 26 27  1  0
 27 28  1  0
 28 29  1  0
 23  4  1  0
 29 24  1  0
 20 11  1  0
  1 30  1  0
  1 31  1  0
  2 32  1  0
  3 33  1  0
  3 34  1  0
  7 35  1  0
  7 36  1  0
 10 37  1  0
 12 38  1  0
 13 39  1  0
 16 40  1  0
 19 41  1  0
 20 42  1  0
 24 43  1  0
 25 44  1  0
 25 45  1  0
 26 46  1  0
 26 47  1  0
 27 48  1  0
 27 49  1  0
 28 50  1  0
 28 51  1  0
 29 52  1  0
 29 53  1  0
M  CHG  1  16  -1
M  END
>  <UniqueID>  (20) 
18

>  <SMILES>  (20) 
C=CCn1c(SCC(=O)Nc2ccc(S([NH-])(=O)=O)cc2)nnc1C1CCCCC1

>  <Energy>  (20) 
87.05436902957577

>  <Genealogy>  (20) 
C=CCn1c(SCC(=O)Nc2ccc(S([NH-])(=O)=O)cc2)nnc1C1CCCCC1 (protonated)
C=CCn1c(SCC(=O)Nc2ccc(S([NH-])(=O)=O)cc2)nnc1C1CCCCC1 (3D coordinates assigned)
C=CCn1c(SCC(=O)Nc2ccc(S([NH-])(=O)=O)cc2)nnc1C1CCCCC1 (nonaromatic ring conformer: 87.05436902957577 kcal/mol)

>  <smiles>  (20) 
C=CCn1c(SCC(=O)Nc2ccc(S(N)(=O)=O)cc2)nnc1C1CCCCC1

>  <score_type>  (20) 
oracle

>  <origin>  (20) 
adg

>  <m_score__min__energy>  (20) 
-11.470000000000001

>  <m_primary>  (20) 
energy

$$$$
20:0
     RDKit          3D

 50 52  0  0  0  0  0  0  0  0999 V2000
   58.9320   32.7110   49.8860 C   0  0  0  0  0  0  0  0  0  0  0  0
   59.4200   33.6010   48.8400 N   0  0  0  0  0  0  0  0  0  0  0  0
   59.2900   33.3540   47.4350 C   0  0  0  0  0  0  0  0  0  0  0  0
   58.9850   34.3110   46.6760 O   0  0  0  0  0  0  0  0  0  0  0  0
   59.5250   32.0170   46.8480 C   0  0  0  0  0  0  0  0  0  0  0  0
   58.5260   31.4280   46.0550 C   0  0  0  0  0  0  0  0  0  0  0  0
   58.7470   30.1930   45.4220 C   0  0  0  0  0  0  0  0  0  0  0  0
   57.7400   29.5530   44.6250 N   0  0  0  0  0  0  0  0  0  0  0  0
   56.7260   28.6500   45.0850 C   0  0  0  0  0  0  0  0  0  0  0  0
   55.5270   29.0320   45.1500 O   0  0  0  0  0  0  0  0  0  0  0  0
   57.0840   27.2470   45.4280 C   0  0  0  0  0  0  0  0  0  0  0  0
   58.4130   26.8200   45.2890 C   0  0  0  0  0  0  0  0  0  0  0  0
   58.7770   25.5110   45.5980 C   0  0  0  0  0  0  0  0  0  0  0  0
   57.8240   24.5860   46.0610 C   0  0  0  0  0  0  0  0  0  0  0  0
   58.1940   23.2690   46.3770 O   0  0  0  0  0  0  0  0  0  0  0  0
   58.1170   22.1630   45.4840 C   0  0  0  0  0  0  0  0  0  0  0  0
   56.4770   25.0030   46.2100 C   0  0  0  0  0  0  0  0  0  0  0  0
   55.4440   24.1600   46.6630 O   0  0  0  0  0  0  0  0  0  0  0  0
   54.3100   23.7320   45.9180 C   0  0  0  0  0  0  0  0  0  0  0  0
   56.1220   26.3260   45.8950 C   0  0  0  0  0  0  0  0  0  0  0  0
   54.7950   26.7130   46.0600 O   0  0  0  0  0  0  0  0  0  0  0  0
   59.9680   29.5380   45.6090 C   0  0  0  0  0  0  0  0  0  0  0  0
   60.9750   30.1230   46.3770 C   0  0  0  0  0  0  0  0  0  0  0  0
   60.7670   31.3600   47.0010 C   0  0  0  0  0  0  0  0  0  0  0  0
   61.8180   31.9340   47.7970 N   0  0  0  0  0  0  0  0  0  0  0  0
   62.1210   31.5510   49.1650 C   0  0  0  0  0  0  0  0  0  0  0  0
   63.3570   32.3790   49.5690 C   0  0  0  0  0  0  0  0  0  0  0  0
   63.5560   33.4540   48.4890 C   0  0  0  0  0  0  0  0  0  0  0  0
   62.6040   33.0540   47.4340 C   0  0  0  0  0  0  0  0  0  0  0  0
   62.4670   33.6720   46.3450 O   0  0  0  0  0  0  0  0  0  0  0  0
   59.1671   33.1397   50.8714 H   0  0  0  0  0  0  0  0  0  0  0  0
   57.8428   32.5926   49.7880 H   0  0  0  0  0  0  0  0  0  0  0  0
   59.4178   31.7290   49.7880 H   0  0  0  0  0  0  0  0  0  0  0  0
   57.5603   31.9391   45.9282 H   0  0  0  0  0  0  0  0  0  0  0  0
   59.1766   27.5267   44.9319 H   0  0  0  0  0  0  0  0  0  0  0  0
   59.8243   25.1967   45.4782 H   0  0  0  0  0  0  0  0  0  0  0  0
   58.0520   21.2292   46.0617 H   0  0  0  0  0  0  0  0  0  0  0  0
   57.2238   22.2650   44.8502 H   0  0  0  0  0  0  0  0  0  0  0  0
   59.0157   22.1402   44.8502 H   0  0  0  0  0  0  0  0  0  0  0  0
   53.5097   23.4299   46.6095 H   0  0  0  0  0  0  0  0  0  0  0  0
   53.9546   24.5579   45.2842 H   0  0  0  0  0  0  0  0  0  0  0  0
   54.5889   22.8773   45.2842 H   0  0  0  0  0  0  0  0  0  0  0  0
   60.1359   28.5539   45.1470 H   0  0  0  0  0  0  0  0  0  0  0  0
   61.9404   29.6088   46.4936 H   0  0  0  0  0  0  0  0  0  0  0  0
   61.2720   31.7832   49.8248 H   0  0  0  0  0  0  0  0  0  0  0  0
   62.3116   30.4710   49.2503 H   0  0  0  0  0  0  0  0  0  0  0  0
   63.1895   32.8537   50.5470 H   0  0  0  0  0  0  0  0  0  0  0  0
   64.2471   31.7378   49.6507 H   0  0  0  0  0  0  0  0  0  0  0  0
   63.3151   34.4540   48.8789 H   0  0  0  0  0  0  0  0  0  0  0  0
   64.5941   33.5182   48.1309 H   0  0  0  0  0  0  0  0  0  0  0  0
  1  2  1  0
  2  3  1  0
  3  4  2  0
  3  5  1  0
  5  6  2  0
  6  7  1  0
  7  8  1  0
  8  9  1  0
  9 10  2  0
  9 11  1  0
 11 12  2  0
 12 13  1  0
 13 14  2  0
 14 15  1  0
 15 16  1  0
 14 17  1  0
 17 18  1  0
 18 19  1  0
 17 20  2  0
 20 21  1  0
  7 22  2  0
 22 23  1  0
 23 24  2  0
 24 25  1  0
 25 26  1  0
 26 27  1  0
 27 28  1  0
 28 29  1  0
 29 30  2  0
 24  5  1  0
 29 25  1  0
 20 11  1  0
  1 31  1  0
  1 32  1  0
  1 33  1  0
  6 34  1  0
 12 35  1  0
 13 36  1  0
 16 37  1  0
 16 38  1  0
 16 39  1  0
 19 40  1  0
 19 41  1  0
 19 42  1  0
 22 43  1  0
 23 44  1  0
 26 45  1  0
 26 46  1  0
 27 47  1  0
 27 48  1  0
 28 49  1  0
 28 50  1  0
M  CHG  3   2  -1   8  -1  21  -1
M  END
>  <UniqueID>  (21) 
19

>  <SMILES>  (21) 
C[N-]C(=O)c1cc([N-]C(=O)c2ccc(OC)c(OC)c2[O-])ccc1N1CCCC1=O

>  <Energy>  (21) 
75.75228703588297

>  <Genealogy>  (21) 
C[N-]C(=O)c1cc([N-]C(=O)c2ccc(OC)c(OC)c2[O-])ccc1N1CCCC1=O (protonated)
C[N-]C(=O)c1cc([N-]C(=O)c2ccc(OC)c(OC)c2[O-])ccc1N1CCCC1=O (3D coordinates assigned)
C[N-]C(=O)c1cc([N-]C(=O)c2ccc(OC)c(OC)c2[O-])ccc1N1CCCC1=O (nonaromatic ring conformer: 75.75228703588297 kcal/mol)

>  <smiles>  (21) 
CNC(=O)c1cc(NC(=O)c2ccc(OC)c(OC)c2O)ccc1N1CCCC1=O

>  <score_type>  (21) 
oracle

>  <origin>  (21) 
adg

>  <m_score__min__energy>  (21) 
-14.25

>  <m_primary>  (21) 
energy

$$$$
21:0
     RDKit          3D

 59 60  0  0  0  0  0  0  0  0999 V2000
   57.8750   33.1450   47.0870 C   0  0  0  0  0  0  0  0  0  0  0  0
   58.0580   34.0560   45.8740 C   0  0  0  0  0  0  0  0  0  0  0  0
   59.3380   34.9020   45.9560 C   0  0  0  0  0  0  0  0  0  0  0  0
   60.3370   34.3540   46.9900 C   0  0  0  0  0  0  0  0  0  0  0  0
   61.6400   33.8600   46.3410 C   0  0  0  0  0  0  0  0  0  0  0  0
   62.8160   33.8530   47.3290 C   0  0  0  0  0  0  0  0  0  0  0  0
   63.3810   32.4400   47.5670 C   0  0  0  0  0  0  0  0  0  0  0  0
   62.5660   31.5980   48.5630 C   0  0  0  0  0  0  0  0  0  0  0  0
   61.2970   31.0720   47.9510 C   0  0  0  0  0  0  0  0  0  0  0  0
   61.2780   30.7500   46.7340 O   0  0  0  0  0  0  0  0  0  0  0  0
   60.1030   30.8380   48.7780 C   0  0  0  0  0  0  0  0  0  0  0  0
   59.3140   29.7000   48.7660 C   0  0  0  0  0  0  0  0  0  0  0  0
   59.5450   28.4740   47.9400 C   0  0  0  0  0  0  0  0  0  0  0  0
   58.3290   29.8110   49.6770 N   0  0  0  0  0  0  0  0  0  0  0  0
   58.4450   31.0270   50.2480 C   0  0  0  0  0  0  0  0  0  0  0  0
   57.5220   31.5040   51.2940 C   0  0  0  0  0  0  0  0  0  0  0  0
   57.7930   32.5770   51.8990 O   0  0  0  0  0  0  0  0  0  0  0  0
   56.3580   30.7510   51.6640 N   0  0  0  0  0  0  0  0  0  0  0  0
   55.3760   31.2510   52.6220 C   0  0  0  0  0  0  0  0  0  0  0  0
   53.9830   30.9340   52.1510 C   0  0  0  0  0  0  0  0  0  0  0  0
   53.5250   29.6070   52.1190 C   0  0  0  0  0  0  0  0  0  0  0  0
   52.2380   29.3180   51.6530 C   0  0  0  0  0  0  0  0  0  0  0  0
   51.4030   30.3490   51.2140 C   0  0  0  0  0  0  0  0  0  0  0  0
   51.8530   31.6720   51.2380 C   0  0  0  0  0  0  0  0  0  0  0  0
   51.0220   32.6960   50.8000 O   0  0  0  0  0  0  0  0  0  0  0  0
   53.1410   31.9640   51.7020 C   0  0  0  0  0  0  0  0  0  0  0  0
   59.5530   31.6920   49.7250 C   0  0  0  0  0  0  0  0  0  0  0  0
   60.0260   33.0770   50.0560 C   0  0  0  0  0  0  0  0  0  0  0  0
   57.9932   33.7336   48.0087 H   0  0  0  0  0  0  0  0  0  0  0  0
   56.8695   32.6997   47.0627 H   0  0  0  0  0  0  0  0  0  0  0  0
   58.6306   32.3459   47.0627 H   0  0  0  0  0  0  0  0  0  0  0  0
   58.1058   33.4321   44.9693 H   0  0  0  0  0  0  0  0  0  0  0  0
   57.2034   34.7480   45.8461 H   0  0  0  0  0  0  0  0  0  0  0  0
   59.8207   34.9093   44.9676 H   0  0  0  0  0  0  0  0  0  0  0  0
   59.0507   35.9159   46.2713 H   0  0  0  0  0  0  0  0  0  0  0  0
   60.5796   35.1538   47.7052 H   0  0  0  0  0  0  0  0  0  0  0  0
   59.8650   33.4956   47.4903 H   0  0  0  0  0  0  0  0  0  0  0  0
   61.4842   32.8366   45.9689 H   0  0  0  0  0  0  0  0  0  0  0  0
   61.8916   34.5505   45.5226 H   0  0  0  0  0  0  0  0  0  0  0  0
   63.6177   34.4899   46.9270 H   0  0  0  0  0  0  0  0  0  0  0  0
   62.4436   34.2297   48.2930 H   0  0  0  0  0  0  0  0  0  0  0  0
   63.4031   31.9099   46.6034 H   0  0  0  0  0  0  0  0  0  0  0  0
   64.3822   32.5680   48.0043 H   0  0  0  0  0  0  0  0  0  0  0  0
   63.1797   30.7472   48.8941 H   0  0  0  0  0  0  0  0  0  0  0  0
   62.2919   32.2447   49.4096 H   0  0  0  0  0  0  0  0  0  0  0  0
   59.7076   27.6109   48.6023 H   0  0  0  0  0  0  0  0  0  0  0  0
   58.6660   28.2886   47.3052 H   0  0  0  0  0  0  0  0  0  0  0  0
   60.4312   28.6212   47.3052 H   0  0  0  0  0  0  0  0  0  0  0  0
   57.6000   29.0940   49.8880 H   0  0  0  0  0  0  0  0  0  0  0  0
   56.2560   29.7660   51.3320 H   0  0  0  0  0  0  0  0  0  0  0  0
   55.5464   30.7750   53.5990 H   0  0  0  0  0  0  0  0  0  0  0  0
   55.4851   32.3419   52.7117 H   0  0  0  0  0  0  0  0  0  0  0  0
   54.1801   28.7923   52.4613 H   0  0  0  0  0  0  0  0  0  0  0  0
   51.8826   28.2772   51.6321 H   0  0  0  0  0  0  0  0  0  0  0  0
   50.3910   30.1192   50.8493 H   0  0  0  0  0  0  0  0  0  0  0  0
   53.4952   33.0053   51.7149 H   0  0  0  0  0  0  0  0  0  0  0  0
   60.0676   33.1989   51.1484 H   0  0  0  0  0  0  0  0  0  0  0  0
   61.0285   33.2334   49.6311 H   0  0  0  0  0  0  0  0  0  0  0  0
   59.3286   33.8140   49.6311 H   0  0  0  0  0  0  0  0  0  0  0  0
  1  2  1  0
  2  3  1  0
  3  4  1  0
  4  5  1  0
  5  6  1  0
  6  7  1  0
  7  8  1  0
  8  9  1  0
  9 10  2  0
  9 11  1  0
 11 12  2  0
 12 13  1  0
 12 14  1  0
 14 15  1  0
 15 16  1  0
 16 17  2  0
 16 18  1  0
 18 19  1  0
 19 20  1  0
 20 21  2  0
 21 22  1  0
 22 23  2  0
 23 24  1  0
 24 25  1  0
 24 26  2  0
 15 27  2  0
 27 28  1  0
 27 11  1  0
 26 20  1  0
  1 29  1  0
  1 30  1  0
  1 31  1  0
  2 32  1  0
  2 33  1  0
  3 34  1  0
  3 35  1  0
  4 36  1  0
  4 37  1  0
  5 38  1  0
  5 39  1  0
  6 40  1  0
  6 41  1  0
  7 42  1  0
  7 43  1  0
  8 44  1  0
  8 45  1  0
 13 46  1  0
 13 47  1  0
 13 48  1  0
 14 49  1  0
 18 50  1  0
 19 51  1  0
 19 52  1  0
 21 53  1  0
 22 54  1  0
 23 55  1  0
 26 56  1  0
 28 57  1  0
 28 58  1  0
 28 59  1  0
M  CHG  1  25  -1
M  END
>  <UniqueID>  (22) 
20

>  <SMILES>  (22) 
CCCCCCCCC(=O)c1c(C)[nH]c(C(=O)NCc2cccc([O-])c2)c1C

>  <Energy>  (22) 
75.90059922666401

>  <Genealogy>  (22) 
CCCCCCCCC(=O)c1c(C)[nH]c(C(=O)NCc2cccc([O-])c2)c1C (protonated)
CCCCCCCCC(=O)c1c(C)[nH]c(C(=O)NCc2cccc([O-])c2)c1C (3D coordinates assigned)
CCCCCCCCC(=O)c1c(C)[nH]c(C(=O)NCc2cccc([O-])c2)c1C (optimized conformer: 75.90059922666401 kcal/mol)

>  <smiles>  (22) 
CCCCCCCCC(=O)c1c(C)[nH]c(C(=O)NCc2cccc(O)c2)c1C

>  <score_type>  (22) 
oracle

>  <origin>  (22) 
adg

>  <m_score__min__energy>  (22) 
-12.779999999999999

>  <m_primary>  (22) 
energy

$$$$
22:0
     RDKit          3D

 44 46  0  0  0  0  0  0  0  0999 V2000
   64.1140   32.3360   48.6180 C   0  0  0  0  0  0  0  0  0  0  0  0
   63.0110   33.0050   47.8650 C   0  0  0  0  0  0  0  0  0  0  0  0
   63.2940   33.8570   46.9790 O   0  0  0  0  0  0  0  0  0  0  0  0
   61.6440   32.7390   48.2160 N   0  0  0  0  0  0  0  0  0  0  0  0
   60.5150   33.1800   47.4450 C   0  0  0  0  0  0  0  0  0  0  0  0
   60.1560   34.5360   47.3800 C   0  0  0  0  0  0  0  0  0  0  0  0
   59.0760   34.9420   46.5940 C   0  0  0  0  0  0  0  0  0  0  0  0
   58.3420   34.0070   45.8590 C   0  0  0  0  0  0  0  0  0  0  0  0
   57.0140   34.5930   44.8620 Cl  0  0  0  0  0  0  0  0  0  0  0  0
   58.6920   32.6410   45.9130 C   0  0  0  0  0  0  0  0  0  0  0  0
   57.7880   31.4230   45.0000 S   0  0  0  0  0  0  0  0  0  0  0  0
   56.3520   31.8390   44.8400 O   0  0  0  0  0  0  0  0  0  0  0  0
   58.4100   31.2770   43.6410 O   0  0  0  0  0  0  0  0  0  0  0  0
   57.8340   29.8850   45.8020 N   0  0  0  0  0  0  0  0  0  0  0  0
   57.8430   28.6090   45.1460 C   0  0  0  0  0  0  0  0  0  0  0  0
   58.1600   28.4710   43.7830 C   0  0  0  0  0  0  0  0  0  0  0  0
   58.1430   27.2110   43.1810 C   0  0  0  0  0  0  0  0  0  0  0  0
   57.8110   26.0790   43.9290 C   0  0  0  0  0  0  0  0  0  0  0  0
   57.4870   26.2000   45.2890 C   0  0  0  0  0  0  0  0  0  0  0  0
   57.1540   24.9800   46.1050 C   0  0  0  0  0  0  0  0  0  0  0  0
   55.7830   24.4550   45.7430 C   0  0  0  0  0  0  0  0  0  0  0  0
   54.6620   25.3060   45.7180 C   0  0  0  0  0  0  0  0  0  0  0  0
   54.7890   26.6620   45.9990 O   0  0  0  0  0  0  0  0  0  0  0  0
   53.4360   24.8060   45.4160 N   0  0  0  0  0  0  0  0  0  0  0  0
   53.2640   23.4900   45.1370 C   0  0  0  0  0  0  0  0  0  0  0  0
   52.1180   23.0510   44.8560 O   0  0  0  0  0  0  0  0  0  0  0  0
   54.3260   22.6450   45.1610 N   0  0  0  0  0  0  0  0  0  0  0  0
   55.5740   23.0930   45.4580 C   0  0  0  0  0  0  0  0  0  0  0  0
   56.5330   22.2760   45.4710 O   0  0  0  0  0  0  0  0  0  0  0  0
   57.5100   27.4700   45.8910 C   0  0  0  0  0  0  0  0  0  0  0  0
   59.7920   32.2450   46.6900 C   0  0  0  0  0  0  0  0  0  0  0  0
   63.9377   32.4429   49.6985 H   0  0  0  0  0  0  0  0  0  0  0  0
   64.1425   31.2683   48.3550 H   0  0  0  0  0  0  0  0  0  0  0  0
   65.0740   32.8041   48.3550 H   0  0  0  0  0  0  0  0  0  0  0  0
   61.4620   32.2690   49.1320 H   0  0  0  0  0  0  0  0  0  0  0  0
   60.7284   35.2818   47.9511 H   0  0  0  0  0  0  0  0  0  0  0  0
   58.8006   36.0062   46.5529 H   0  0  0  0  0  0  0  0  0  0  0  0
   58.4223   29.3587   43.1888 H   0  0  0  0  0  0  0  0  0  0  0  0
   58.3919   27.1097   42.1143 H   0  0  0  0  0  0  0  0  0  0  0  0
   57.8035   25.0888   43.4501 H   0  0  0  0  0  0  0  0  0  0  0  0
   57.9034   24.1988   45.9095 H   0  0  0  0  0  0  0  0  0  0  0  0
   57.1587   25.2540   47.1703 H   0  0  0  0  0  0  0  0  0  0  0  0
   57.2639   27.5707   46.9584 H   0  0  0  0  0  0  0  0  0  0  0  0
   60.0911   31.1866   46.7069 H   0  0  0  0  0  0  0  0  0  0  0  0
  1  2  1  0
  2  3  2  0
  2  4  1  0
  4  5  1  0
  5  6  2  0
  6  7  1  0
  7  8  2  0
  8  9  1  0
  8 10  1  0
 10 11  1  0
 11 12  2  0
 11 13  2  0
 11 14  1  0
 14 15  1  0
 15 16  2  0
 16 17  1  0
 17 18  2  0
 18 19  1  0
 19 20  1  0
 20 21  1  0
 21 22  2  0
 22 23  1  0
 22 24  1  0
 24 25  1  0
 25 26  2  0
 25 27  1  0
 27 28  1  0
 28 29  2  0
 19 30  2  0
 10 31  2  0
 31  5  1  0
 30 15  1  0
 28 21  1  0
  1 32  1  0
  1 33  1  0
  1 34  1  0
  4 35  1  0
  6 36  1  0
  7 37  1  0
 16 38  1  0
 17 39  1  0
 18 40  1  0
 20 41  1  0
 20 42  1  0
 30 43  1  0
 31 44  1  0
M  CHG  4  14  -1  23  -1  24  -1  27  -1
M  END
>  <UniqueID>  (23) 
21

>  <SMILES>  (23) 
CC(=O)Nc1ccc(Cl)c(S(=O)(=O)[N-]c2cccc(Cc3c([O-])[n-]c(=O)[n-]c3=O)c2)c1

>  <Energy>  (23) 
54.77760363142873

>  <Genealogy>  (23) 
CC(=O)Nc1ccc(Cl)c(S(=O)(=O)[N-]c2cccc(Cc3c([O-])[n-]c(=O)[n-]c3=O)c2)c1 (protonated)
CC(=O)Nc1ccc(Cl)c(S(=O)(=O)[N-]c2cccc(Cc3c([O-])[n-]c(=O)[n-]c3=O)c2)c1 (3D coordinates assigned)
CC(=O)Nc1ccc(Cl)c(S(=O)(=O)[N-]c2cccc(Cc3c([O-])[n-]c(=O)[n-]c3=O)c2)c1 (optimized conformer: 54.77760363142873 kcal/mol)

>  <smiles>  (23) 
CC(=O)Nc1ccc(Cl)c(S(=O)(=O)Nc2cccc(Cc3c(O)[nH]c(=O)[nH]c3=O)c2)c1

>  <score_type>  (23) 
oracle

>  <origin>  (23) 
adg

>  <m_score__min__energy>  (23) 
-18.449999999999999

>  <m_primary>  (23) 
energy

$$$$
23:0
     RDKit          3D

 60 63  0  0  0  0  0  0  0  0999 V2000
   57.0950   31.2180   42.4150 C   0  0  0  0  0  0  0  0  0  0  0  0
   57.6270   31.6210   43.7670 C   0  0  0  0  0  0  0  0  0  0  0  0
   58.1570   32.9130   43.9170 C   0  0  0  0  0  0  0  0  0  0  0  0
   58.6770   33.3340   45.1380 C   0  0  0  0  0  0  0  0  0  0  0  0
   58.6750   32.4730   46.2410 C   0  0  0  0  0  0  0  0  0  0  0  0
   59.2390   32.9170   47.5330 C   0  0  0  0  0  0  0  0  0  0  0  0
   58.5540   32.7860   48.5830 O   0  0  0  0  0  0  0  0  0  0  0  0
   60.5620   33.4790   47.6170 N   0  0  0  0  0  0  0  0  0  0  0  0
   61.6790   32.8110   46.9270 C   0  0  0  0  0  0  0  0  0  0  0  0
   63.0310   33.2920   47.4640 C   0  0  0  0  0  0  0  0  0  0  0  0
   62.9770   33.3730   48.9300 N   0  0  0  0  0  0  0  0  0  0  0  0
   63.9040   32.6280   49.7430 C   0  0  0  0  0  0  0  0  0  0  0  0
   63.5050   31.4270   50.3540 C   0  0  0  0  0  0  0  0  0  0  0  0
   64.4010   30.7080   51.1470 C   0  0  0  0  0  0  0  0  0  0  0  0
   65.6970   31.1850   51.3510 C   0  0  0  0  0  0  0  0  0  0  0  0
   66.1050   32.4040   50.7850 C   0  0  0  0  0  0  0  0  0  0  0  0
   67.5180   32.8950   50.9710 C   0  0  0  0  0  0  0  0  0  0  0  0
   67.5720   33.8760   51.9450 F   0  0  0  0  0  0  0  0  0  0  0  0
   68.3470   31.8560   51.3560 F   0  0  0  0  0  0  0  0  0  0  0  0
   67.9780   33.4180   49.7780 F   0  0  0  0  0  0  0  0  0  0  0  0
   65.2060   33.1100   49.9640 C   0  0  0  0  0  0  0  0  0  0  0  0
   61.8940   34.1360   49.5740 C   0  0  0  0  0  0  0  0  0  0  0  0
   60.8370   34.5750   48.5550 C   0  0  0  0  0  0  0  0  0  0  0  0
   58.1750   31.1720   46.0940 C   0  0  0  0  0  0  0  0  0  0  0  0
   57.6480   30.7230   44.8680 C   0  0  0  0  0  0  0  0  0  0  0  0
   57.0140   29.0590   44.6980 S   0  0  0  0  0  0  0  0  0  0  0  0
   57.3700   28.5570   43.3270 O   0  0  0  0  0  0  0  0  0  0  0  0
   55.5140   29.1170   44.8120 O   0  0  0  0  0  0  0  0  0  0  0  0
   57.6050   27.8810   45.8500 N   0  0  0  0  0  0  0  0  0  0  0  0
   57.0480   26.5340   45.6100 C   0  0  0  0  0  0  0  0  0  0  0  0
   58.0000   25.4360   46.0940 C   0  0  0  0  0  0  0  0  0  0  0  0
   58.6300   25.8560   47.2820 O   0  0  0  0  0  0  0  0  0  0  0  0
   59.5780   26.8710   46.9980 C   0  0  0  0  0  0  0  0  0  0  0  0
   59.0690   27.9410   46.0020 C   0  0  0  0  0  0  0  0  0  0  0  0
   56.2243   30.5585   42.5453 H   0  0  0  0  0  0  0  0  0  0  0  0
   56.7939   32.1167   41.8567 H   0  0  0  0  0  0  0  0  0  0  0  0
   57.8786   30.6848   41.8567 H   0  0  0  0  0  0  0  0  0  0  0  0
   58.1613   33.6011   43.0588 H   0  0  0  0  0  0  0  0  0  0  0  0
   59.0914   34.3482   45.2360 H   0  0  0  0  0  0  0  0  0  0  0  0
   61.5977   31.7249   47.0814 H   0  0  0  0  0  0  0  0  0  0  0  0
   61.6229   33.0565   45.8562 H   0  0  0  0  0  0  0  0  0  0  0  0
   63.8171   32.5831   47.1650 H   0  0  0  0  0  0  0  0  0  0  0  0
   63.2561   34.2862   47.0507 H   0  0  0  0  0  0  0  0  0  0  0  0
   62.4816   31.0516   50.2066 H   0  0  0  0  0  0  0  0  0  0  0  0
   64.0849   29.7628   51.6125 H   0  0  0  0  0  0  0  0  0  0  0  0
   66.4039   30.6019   51.9595 H   0  0  0  0  0  0  0  0  0  0  0  0
   65.5257   34.0496   49.4898 H   0  0  0  0  0  0  0  0  0  0  0  0
   61.4153   33.5040   50.3365 H   0  0  0  0  0  0  0  0  0  0  0  0
   62.3295   35.0368   50.0310 H   0  0  0  0  0  0  0  0  0  0  0  0
   59.9105   34.8441   49.0834 H   0  0  0  0  0  0  0  0  0  0  0  0
   61.2120   35.4449   47.9959 H   0  0  0  0  0  0  0  0  0  0  0  0
   58.1947   30.4872   46.9546 H   0  0  0  0  0  0  0  0  0  0  0  0
   56.0931   26.4414   46.1482 H   0  0  0  0  0  0  0  0  0  0  0  0
   56.9019   26.4100   44.5268 H   0  0  0  0  0  0  0  0  0  0  0  0
   57.4307   24.5145   46.2860 H   0  0  0  0  0  0  0  0  0  0  0  0
   58.7600   25.2412   45.3230 H   0  0  0  0  0  0  0  0  0  0  0  0
   59.8419   27.3725   47.9408 H   0  0  0  0  0  0  0  0  0  0  0  0
   60.4416   26.3795   46.5262 H   0  0  0  0  0  0  0  0  0  0  0  0
   59.3497   28.9377   46.3732 H   0  0  0  0  0  0  0  0  0  0  0  0
   59.5271   27.7464   45.0210 H   0  0  0  0  0  0  0  0  0  0  0  0
  1  2  1  0
  2  3  2  0
  3  4  1  0
  4  5  2  0
  5  6  1  0
  6  7  2  0
  6  8  1  0
  8  9  1  0
  9 10  1  0
 10 11  1  0
 11 12  1  0
 12 13  2  0
 13 14  1  0
 14 15  2  0
 15 16  1  0
 16 17  1  0
 17 18  1  0
 17 19  1  0
 17 20  1  0
 16 21  2  0
 11 22  1  0
 22 23  1  0
  5 24  1  0
 24 25  2  0
 25 26  1  0
 26 27  2  0
 26 28  2  0
 26 29  1  0
 29 30  1  0
 30 31  1  0
 31 32  1  0
 32 33  1  0
 33 34  1  0
 25  2  1  0
 34 29  1  0
 23  8  1  0
 21 12  1  0
  1 35  1  0
  1 36  1  0
  1 37  1  0
  3 38  1  0
  4 39  1  0
  9 40  1  0
  9 41  1  0
 10 42  1  0
 10 43  1  0
 13 44  1  0
 14 45  1  0
 15 46  1  0
 21 47  1  0
 22 48  1  0
 22 49  1  0
 23 50  1  0
 23 51  1  0
 24 52  1  0
 30 53  1  0
 30 54  1  0
 31 55  1  0
 31 56  1  0
 33 57  1  0
 33 58  1  0
 34 59  1  0
 34 60  1  0
M  END
>  <UniqueID>  (24) 
22

>  <SMILES>  (24) 
Cc1ccc(C(=O)N2CCN(c3cccc(C(F)(F)F)c3)CC2)cc1S(=O)(=O)N1CCOCC1

>  <Energy>  (24) 
87.2212095487273

>  <Genealogy>  (24) 
Cc1ccc(C(=O)N2CCN(c3cccc(C(F)(F)F)c3)CC2)cc1S(=O)(=O)N1CCOCC1 (3D coordinates assigned)
Cc1ccc(C(=O)N2CCN(c3cccc(C(F)(F)F)c3)CC2)cc1S(=O)(=O)N1CCOCC1 (nonaromatic ring conformer: 87.2212095487273 kcal/mol)

>  <smiles>  (24) 
Cc1ccc(C(=O)N2CCN(c3cccc(C(F)(F)F)c3)CC2)cc1S(=O)(=O)N1CCOCC1

>  <score_type>  (24) 
oracle

>  <origin>  (24) 
adg

>  <m_score__min__energy>  (24) 
-9.9800000000000004

>  <m_primary>  (24) 
energy

$$$$
24:0
     RDKit          3D

 41 42  0  0  0  0  0  0  0  0999 V2000
   58.8170   29.1700   47.6020 C   0  0  0  0  0  0  0  0  0  0  0  0
   59.0130   29.7130   46.1910 C   0  0  0  0  0  0  0  0  0  0  0  0
   58.5210   28.7470   45.2010 N   0  0  0  0  0  0  0  0  0  0  0  0
   57.7330   29.2220   44.0570 C   0  0  0  0  0  0  0  0  0  0  0  0
   56.4180   29.7810   44.5270 C   0  0  0  0  0  0  0  0  0  0  0  0
   55.5010   28.9850   44.8590 O   0  0  0  0  0  0  0  0  0  0  0  0
   56.1340   31.1860   44.4960 N   0  0  0  0  0  0  0  0  0  0  0  0
   57.0720   32.2380   44.7600 C   0  0  0  0  0  0  0  0  0  0  0  0
   57.0590   32.8470   46.0210 C   0  0  0  0  0  0  0  0  0  0  0  0
   57.9620   33.8690   46.3220 C   0  0  0  0  0  0  0  0  0  0  0  0
   58.8920   34.2820   45.3670 C   0  0  0  0  0  0  0  0  0  0  0  0
   58.9390   33.6570   44.1180 C   0  0  0  0  0  0  0  0  0  0  0  0
   58.0460   32.6100   43.8110 C   0  0  0  0  0  0  0  0  0  0  0  0
   58.1150   31.9110   42.5940 O   0  0  0  0  0  0  0  0  0  0  0  0
   57.4130   32.2790   41.4120 C   0  0  0  0  0  0  0  0  0  0  0  0
   58.6270   27.3360   45.4760 C   0  0  0  0  0  0  0  0  0  0  0  0
   59.7610   26.8390   45.7150 O   0  0  0  0  0  0  0  0  0  0  0  0
   57.4350   26.4540   45.4700 C   0  0  0  0  0  0  0  0  0  0  0  0
   57.3880   25.3030   44.6660 C   0  0  0  0  0  0  0  0  0  0  0  0
   56.2500   24.4950   44.6650 C   0  0  0  0  0  0  0  0  0  0  0  0
   55.1700   24.8310   45.4840 C   0  0  0  0  0  0  0  0  0  0  0  0
   54.1350   24.1150   45.4930 O   0  0  0  0  0  0  0  0  0  0  0  0
   55.2380   25.9320   46.2780 N   0  0  0  0  0  0  0  0  0  0  0  0
   56.3340   26.7360   46.2950 C   0  0  0  0  0  0  0  0  0  0  0  0
   59.0958   29.9423   48.3341 H   0  0  0  0  0  0  0  0  0  0  0  0
   57.7621   28.8929   47.7450 H   0  0  0  0  0  0  0  0  0  0  0  0
   59.4517   28.2830   47.7450 H   0  0  0  0  0  0  0  0  0  0  0  0
   58.4575   30.6565   46.0847 H   0  0  0  0  0  0  0  0  0  0  0  0
   60.0857   29.8863   46.0198 H   0  0  0  0  0  0  0  0  0  0  0  0
   58.2944   30.0080   43.5306 H   0  0  0  0  0  0  0  0  0  0  0  0
   57.5416   28.3778   43.3782 H   0  0  0  0  0  0  0  0  0  0  0  0
   56.3330   32.5183   46.7792 H   0  0  0  0  0  0  0  0  0  0  0  0
   57.9402   34.3484   47.3118 H   0  0  0  0  0  0  0  0  0  0  0  0
   59.5892   35.1009   45.5978 H   0  0  0  0  0  0  0  0  0  0  0  0
   59.6767   33.9837   43.3703 H   0  0  0  0  0  0  0  0  0  0  0  0
   56.4692   32.7737   41.6851 H   0  0  0  0  0  0  0  0  0  0  0  0
   58.0306   32.9693   40.8187 H   0  0  0  0  0  0  0  0  0  0  0  0
   57.1966   31.3784   40.8187 H   0  0  0  0  0  0  0  0  0  0  0  0
   58.2499   25.0380   44.0359 H   0  0  0  0  0  0  0  0  0  0  0  0
   56.2042   23.6016   44.0249 H   0  0  0  0  0  0  0  0  0  0  0  0
   56.3587   27.6127   46.9589 H   0  0  0  0  0  0  0  0  0  0  0  0
  1  2  1  0
  2  3  1  0
  3  4  1  0
  4  5  1  0
  5  6  2  0
  5  7  1  0
  7  8  1  0
  8  9  2  0
  9 10  1  0
 10 11  2  0
 11 12  1  0
 12 13  2  0
 13 14  1  0
 14 15  1  0
  3 16  1  0
 16 17  2  0
 16 18  1  0
 18 19  1  0
 19 20  2  0
 20 21  1  0
 21 22  2  0
 21 23  1  0
 23 24  1  0
 13  8  1  0
 24 18  2  0
  1 25  1  0
  1 26  1  0
  1 27  1  0
  2 28  1  0
  2 29  1  0
  4 30  1  0
  4 31  1  0
  9 32  1  0
 10 33  1  0
 11 34  1  0
 12 35  1  0
 15 36  1  0
 15 37  1  0
 15 38  1  0
 19 39  1  0
 20 40  1  0
 24 41  1  0
M  CHG  2   7  -1  23  -1
M  END
>  <UniqueID>  (25) 
23

>  <SMILES>  (25) 
CCN(CC(=O)[N-]c1ccccc1OC)C(=O)c1ccc(=O)[n-]c1

>  <Energy>  (25) 
44.00005398180374

>  <Genealogy>  (25) 
CCN(CC(=O)[N-]c1ccccc1OC)C(=O)c1ccc(=O)[n-]c1 (protonated)
CCN(CC(=O)[N-]c1ccccc1OC)C(=O)c1ccc(=O)[n-]c1 (3D coordinates assigned)
CCN(CC(=O)[N-]c1ccccc1OC)C(=O)c1ccc(=O)[n-]c1 (optimized conformer: 44.00005398180374 kcal/mol)

>  <smiles>  (25) 
CCN(CC(=O)Nc1ccccc1OC)C(=O)c1ccc(=O)[nH]c1

>  <score_type>  (25) 
oracle

>  <origin>  (25) 
adg

>  <m_score__min__energy>  (25) 
-11.07

>  <m_primary>  (25) 
energy

$$$$
25:0
     RDKit          3D

 27 28  0  0  0  0  0  0  0  0999 V2000
   60.1740   29.0090   45.3890 O   0  0  0  0  0  0  0  0  0  0  0  0
   58.9360   28.9820   45.1560 C   0  0  0  0  0  0  0  0  0  0  0  0
   58.3560   27.8360   44.3870 C   0  0  0  0  0  0  0  0  0  0  0  0
   57.4450   27.0390   45.2680 C   0  0  0  0  0  0  0  0  0  0  0  0
   57.7900   25.5120   45.8930 S   0  0  0  0  0  0  0  0  0  0  0  0
   56.2750   25.3760   46.6090 C   0  0  0  0  0  0  0  0  0  0  0  0
   55.8970   24.3820   47.2820 O   0  0  0  0  0  0  0  0  0  0  0  0
   55.4930   26.4510   46.3840 N   0  0  0  0  0  0  0  0  0  0  0  0
   56.1420   27.3750   45.6290 C   0  0  0  0  0  0  0  0  0  0  0  0
   55.5360   28.5650   45.2490 O   0  0  0  0  0  0  0  0  0  0  0  0
   58.0750   30.0060   45.6770 N   0  0  0  0  0  0  0  0  0  0  0  0
   58.5650   31.0910   46.4770 C   0  0  0  0  0  0  0  0  0  0  0  0
   59.5420   30.8200   47.4460 C   0  0  0  0  0  0  0  0  0  0  0  0
   60.1000   31.8540   48.1990 C   0  0  0  0  0  0  0  0  0  0  0  0
   59.6830   33.1690   47.9960 C   0  0  0  0  0  0  0  0  0  0  0  0
   58.6910   33.4520   47.0540 C   0  0  0  0  0  0  0  0  0  0  0  0
   58.1060   32.4200   46.2970 C   0  0  0  0  0  0  0  0  0  0  0  0
   57.0220   32.7250   45.4010 N   0  0  0  0  0  0  0  0  0  0  0  0
   56.6620   33.9080   45.2270 O   0  0  0  0  0  0  0  0  0  0  0  0
   56.2660   31.7150   44.8490 O   0  0  0  0  0  0  0  0  0  0  0  0
   57.7866   28.2235   43.5293 H   0  0  0  0  0  0  0  0  0  0  0  0
   59.1717   27.1896   44.0310 H   0  0  0  0  0  0  0  0  0  0  0  0
   57.0430   29.8420   45.6520 H   0  0  0  0  0  0  0  0  0  0  0  0
   59.8712   29.7839   47.6139 H   0  0  0  0  0  0  0  0  0  0  0  0
   60.8693   31.6315   48.9531 H   0  0  0  0  0  0  0  0  0  0  0  0
   60.1359   33.9848   48.5785 H   0  0  0  0  0  0  0  0  0  0  0  0
   58.3641   34.4913   46.9026 H   0  0  0  0  0  0  0  0  0  0  0  0
  1  2  2  0
  2  3  1  0
  3  4  1  0
  4  5  1  0
  5  6  1  0
  6  7  2  0
  6  8  1  0
  8  9  1  0
  9 10  1  0
  2 11  1  0
 11 12  1  0
 12 13  2  0
 13 14  1  0
 14 15  2  0
 15 16  1  0
 16 17  2  0
 17 18  1  0
 18 19  2  0
 18 20  1  0
  9  4  2  0
 17 12  1  0
  3 21  1  0
  3 22  1  0
 11 23  1  0
 13 24  1  0
 14 25  1  0
 15 26  1  0
 16 27  1  0
M  CHG  4   8  -1  10  -1  18   1  20  -1
M  END
>  <UniqueID>  (26) 
24

>  <SMILES>  (26) 
O=C(Cc1sc(=O)[n-]c1[O-])Nc1ccccc1[N+](=O)[O-]

>  <Energy>  (26) 
64.89128647169596

>  <Genealogy>  (26) 
O=C(Cc1sc(=O)[n-]c1[O-])Nc1ccccc1[N+](=O)[O-] (protonated)
O=C(Cc1sc(=O)[n-]c1[O-])Nc1ccccc1[N+](=O)[O-] (3D coordinates assigned)
O=C(Cc1sc(=O)[n-]c1[O-])Nc1ccccc1[N+](=O)[O-] (optimized conformer: 64.89128647169596 kcal/mol)

>  <smiles>  (26) 
O=C(Cc1sc(=O)[nH]c1O)Nc1ccccc1[N+](=O)[O-]

>  <score_type>  (26) 
oracle

>  <origin>  (26) 
adg

>  <m_score__min__energy>  (26) 
-13.289999999999999

>  <m_primary>  (26) 
energy

$$$$
26:0
     RDKit          3D

 43 45  0  0  0  0  0  0  0  0999 V2000
   56.2060   28.5860   45.2160 O   0  0  0  0  0  0  0  0  0  0  0  0
   57.2720   28.0110   45.5620 C   0  0  0  0  0  0  0  0  0  0  0  0
   58.5190   28.6780   45.3290 N   0  0  0  0  0  0  0  0  0  0  0  0
   59.2760   29.4250   46.2930 C   0  0  0  0  0  0  0  0  0  0  0  0
   60.4620   30.0490   45.8850 C   0  0  0  0  0  0  0  0  0  0  0  0
   61.2180   30.7930   46.7940 C   0  0  0  0  0  0  0  0  0  0  0  0
   60.7870   30.9380   48.1180 C   0  0  0  0  0  0  0  0  0  0  0  0
   61.7470   31.8790   49.2560 S   0  0  0  0  0  0  0  0  0  0  0  0
   61.0200   32.0060   50.5660 O   0  0  0  0  0  0  0  0  0  0  0  0
   63.0540   31.1750   49.4890 O   0  0  0  0  0  0  0  0  0  0  0  0
   62.0620   33.4620   48.6070 N   0  0  0  0  0  0  0  0  0  0  0  0
   61.0410   34.4250   49.0310 C   0  0  0  0  0  0  0  0  0  0  0  0
   59.6350   33.8270   48.9030 C   0  0  0  0  0  0  0  0  0  0  0  0
   59.1080   33.9490   47.4970 C   0  0  0  0  0  0  0  0  0  0  0  0
   59.7290   34.8130   46.5790 C   0  0  0  0  0  0  0  0  0  0  0  0
   59.2560   34.9030   45.2670 C   0  0  0  0  0  0  0  0  0  0  0  0
   58.1670   34.1270   44.8590 C   0  0  0  0  0  0  0  0  0  0  0  0
   57.5520   33.2560   45.7630 C   0  0  0  0  0  0  0  0  0  0  0  0
   58.0210   33.1630   47.0770 C   0  0  0  0  0  0  0  0  0  0  0  0
   59.5910   30.3330   48.5260 C   0  0  0  0  0  0  0  0  0  0  0  0
   58.8340   29.5880   47.6180 C   0  0  0  0  0  0  0  0  0  0  0  0
   57.2030   26.6510   46.1510 C   0  0  0  0  0  0  0  0  0  0  0  0
   55.9700   26.0090   46.3670 C   0  0  0  0  0  0  0  0  0  0  0  0
   54.7710   26.6440   46.0640 O   0  0  0  0  0  0  0  0  0  0  0  0
   55.9390   24.7600   46.9000 N   0  0  0  0  0  0  0  0  0  0  0  0
   57.0810   24.1140   47.2430 C   0  0  0  0  0  0  0  0  0  0  0  0
   57.0270   22.9580   47.7350 O   0  0  0  0  0  0  0  0  0  0  0  0
   58.2830   24.7170   47.0630 N   0  0  0  0  0  0  0  0  0  0  0  0
   58.3720   25.9630   46.5310 C   0  0  0  0  0  0  0  0  0  0  0  0
   59.5080   26.4850   46.3690 O   0  0  0  0  0  0  0  0  0  0  0  0
   60.8000   29.9525   44.8427 H   0  0  0  0  0  0  0  0  0  0  0  0
   62.1557   31.2668   46.4681 H   0  0  0  0  0  0  0  0  0  0  0  0
   61.2204   34.7008   50.0806 H   0  0  0  0  0  0  0  0  0  0  0  0
   61.1050   35.3117   48.3833 H   0  0  0  0  0  0  0  0  0  0  0  0
   59.6728   32.7629   49.1793 H   0  0  0  0  0  0  0  0  0  0  0  0
   58.9619   34.3823   49.5728 H   0  0  0  0  0  0  0  0  0  0  0  0
   60.5902   35.4205   46.8941 H   0  0  0  0  0  0  0  0  0  0  0  0
   59.7414   35.5857   44.5540 H   0  0  0  0  0  0  0  0  0  0  0  0
   57.7942   34.2018   43.8268 H   0  0  0  0  0  0  0  0  0  0  0  0
   56.6977   32.6428   45.4402 H   0  0  0  0  0  0  0  0  0  0  0  0
   57.5379   32.4727   47.7841 H   0  0  0  0  0  0  0  0  0  0  0  0
   59.2467   30.4449   49.5647 H   0  0  0  0  0  0  0  0  0  0  0  0
   57.8888   29.1273   47.9409 H   0  0  0  0  0  0  0  0  0  0  0  0
  1  2  2  0
  2  3  1  0
  3  4  1  0
  4  5  2  0
  5  6  1  0
  6  7  2  0
  7  8  1  0
  8  9  2  0
  8 10  2  0
  8 11  1  0
 11 12  1  0
 12 13  1  0
 13 14  1  0
 14 15  2  0
 15 16  1  0
 16 17  2  0
 17 18  1  0
 18 19  2  0
  7 20  1  0
 20 21  2  0
  2 22  1  0
 22 23  2  0
 23 24  1  0
 23 25  1  0
 25 26  1  0
 26 27  2  0
 26 28  1  0
 28 29  1  0
 29 30  2  0
 21  4  1  0
 29 22  1  0
 19 14  1  0
  5 31  1  0
  6 32  1  0
 12 33  1  0
 12 34  1  0
 13 35  1  0
 13 36  1  0
 15 37  1  0
 16 38  1  0
 17 39  1  0
 18 40  1  0
 19 41  1  0
 20 42  1  0
 21 43  1  0
M  CHG  5   3  -1  11  -1  24  -1  25  -1  28  -1
M  END
>  <UniqueID>  (27) 
25

>  <SMILES>  (27) 
O=C([N-]c1ccc(S(=O)(=O)[N-]CCc2ccccc2)cc1)c1c([O-])[n-]c(=O)[n-]c1=O

>  <Energy>  (27) 
54.19967393827524

>  <Genealogy>  (27) 
O=C([N-]c1ccc(S(=O)(=O)[N-]CCc2ccccc2)cc1)c1c([O-])[n-]c(=O)[n-]c1=O (protonated)
O=C([N-]c1ccc(S(=O)(=O)[N-]CCc2ccccc2)cc1)c1c([O-])[n-]c(=O)[n-]c1=O (3D coordinates assigned)
O=C([N-]c1ccc(S(=O)(=O)[N-]CCc2ccccc2)cc1)c1c([O-])[n-]c(=O)[n-]c1=O (optimized conformer: 54.19967393827524 kcal/mol)

>  <smiles>  (27) 
O=C(Nc1ccc(S(=O)(=O)NCCc2ccccc2)cc1)c1c(O)[nH]c(=O)[nH]c1=O

>  <score_type>  (27) 
oracle

>  <origin>  (27) 
adg

>  <m_score__min__energy>  (27) 
-18.170000000000002

>  <m_primary>  (27) 
energy

$$$$
27:0
     RDKit          3D

 44 46  0  0  0  0  0  0  0  0999 V2000
   57.4610   24.5509   43.4174 H   0  0  0  0  0  0  0  0  0  0  0  0
   57.4730   25.4750   44.0140 C   0  0  0  0  0  0  0  0  0  0  0  0
   57.1430   25.3590   45.4500 C   0  0  0  0  0  0  0  0  0  0  0  0
   58.0690   25.0810   46.2580 O   0  0  0  0  0  0  0  0  0  0  0  0
   55.7660   25.4780   45.9590 C   0  0  0  0  0  0  0  0  0  0  0  0
   55.1470   24.4670   46.3840 O   0  0  0  0  0  0  0  0  0  0  0  0
   55.1490   26.7220   46.0010 O   0  0  0  0  0  0  0  0  0  0  0  0
   57.7860   26.6140   43.3780 C   0  0  0  0  0  0  0  0  0  0  0  0
   58.1480   26.5312   42.3426 H   0  0  0  0  0  0  0  0  0  0  0  0
   57.6840   27.9740   43.9560 C   0  0  0  0  0  0  0  0  0  0  0  0
   58.3240   28.3130   45.1610 C   0  0  0  0  0  0  0  0  0  0  0  0
   58.9071   27.5542   45.7033 H   0  0  0  0  0  0  0  0  0  0  0  0
   58.2230   29.6090   45.6730 C   0  0  0  0  0  0  0  0  0  0  0  0
   58.7242   29.8649   46.6181 H   0  0  0  0  0  0  0  0  0  0  0  0
   57.4840   30.5870   44.9860 C   0  0  0  0  0  0  0  0  0  0  0  0
   57.3810   31.9300   45.4770 N   0  0  0  0  0  0  0  0  0  0  0  0
   58.1790   32.5000   46.5210 C   0  0  0  0  0  0  0  0  0  0  0  0
   57.6370   33.3040   47.3230 O   0  0  0  0  0  0  0  0  0  0  0  0
   59.5650   32.1410   46.6670 N   0  0  0  0  0  0  0  0  0  0  0  0
   59.9840   31.4800   45.9760 H   0  0  0  0  0  0  0  0  0  0  0  0
   60.4480   32.7170   47.6440 C   0  0  0  0  0  0  0  0  0  0  0  0
   60.0000   33.6920   48.5520 C   0  0  0  0  0  0  0  0  0  0  0  0
   58.9579   34.0414   48.5081 H   0  0  0  0  0  0  0  0  0  0  0  0
   60.8700   34.2210   49.5110 C   0  0  0  0  0  0  0  0  0  0  0  0
   60.5127   34.9921   50.2094 H   0  0  0  0  0  0  0  0  0  0  0  0
   62.1950   33.7720   49.5850 C   0  0  0  0  0  0  0  0  0  0  0  0
   63.0750   34.2970   50.5450 C   0  0  0  0  0  0  0  0  0  0  0  0
   62.7246   35.0700   51.2448 H   0  0  0  0  0  0  0  0  0  0  0  0
   64.3980   33.8400   50.6150 C   0  0  0  0  0  0  0  0  0  0  0  0
   65.4950   34.4930   51.8280 S   0  0  0  0  0  0  0  0  0  0  0  0
   65.0380   35.8640   52.2420 O   0  0  0  0  0  0  0  0  0  0  0  0
   66.8830   34.5980   51.2600 O   0  0  0  0  0  0  0  0  0  0  0  0
   65.5140   33.4810   53.1670 O   0  0  0  0  0  0  0  0  0  0  0  0
   64.8380   32.8440   49.7330 C   0  0  0  0  0  0  0  0  0  0  0  0
   65.8732   32.4771   49.7949 H   0  0  0  0  0  0  0  0  0  0  0  0
   63.9690   32.3140   48.7750 C   0  0  0  0  0  0  0  0  0  0  0  0
   64.3237   31.5354   48.0836 H   0  0  0  0  0  0  0  0  0  0  0  0
   62.6470   32.7720   48.6930 C   0  0  0  0  0  0  0  0  0  0  0  0
   61.7670   32.2460   47.7340 C   0  0  0  0  0  0  0  0  0  0  0  0
   62.1138   31.4590   47.0482 H   0  0  0  0  0  0  0  0  0  0  0  0
   56.9000   30.2660   43.7550 C   0  0  0  0  0  0  0  0  0  0  0  0
   56.3599   31.0386   43.1881 H   0  0  0  0  0  0  0  0  0  0  0  0
   56.9990   28.9700   43.2420 C   0  0  0  0  0  0  0  0  0  0  0  0
   56.5375   28.7287   42.2731 H   0  0  0  0  0  0  0  0  0  0  0  0
  1  2  1  0
  2  3  1  0
  3  4  2  0
  3  5  1  0
  5  6  2  0
  5  7  1  0
  2  8  2  0
  8  9  1  0
  8 10  1  0
 10 11  2  0
 11 12  1  0
 11 13  1  0
 13 14  1  0
 13 15  2  0
 15 16  1  0
 16 17  1  0
 17 18  2  0
 17 19  1  0
 19 20  1  0
 19 21  1  0
 21 22  2  0
 22 23  1  0
 22 24  1  0
 24 25  1  0
 24 26  2  0
 26 27  1  0
 27 28  1  0
 27 29  2  0
 29 30  1  0
 30 31  2  0
 30 32  2  0
 30 33  1  0
 29 34  1  0
 34 35  1  0
 34 36  2  0
 36 37  1  0
 36 38  1  0
 38 39  2  0
 39 40  1  0
 15 41  1  0
 41 42  1  0
 41 43  2  0
 43 44  1  0
 43 10  1  0
 39 21  1  0
 38 26  1  0
M  CHG  3   7  -1  16  -1  33  -1
M  END
>  <UniqueID>  (28) 
26

>  <SMILES>  (28) 
O=C([N-]c1ccc(/C=C\C(=O)C(=O)[O-])cc1)Nc1ccc2cc(S(=O)(=O)[O-])ccc2c1

>  <Energy>  (28) 
67.83829276943023

>  <Genealogy>  (28) 
O=C([N-]c1ccc(C=CC(=O)C(=O)[O-])cc1)Nc1ccc2cc(S(=O)(=O)[O-])ccc2c1 (protonated)
O=C([N-]c1ccc(/C=C\C(=O)C(=O)[O-])cc1)Nc1ccc2cc(S(=O)(=O)[O-])ccc2c1 (cis-trans isomerization)
O=C([N-]c1ccc(/C=C\C(=O)C(=O)[O-])cc1)Nc1ccc2cc(S(=O)(=O)[O-])ccc2c1 (3D coordinates assigned)
O=C([N-]c1ccc(/C=C\C(=O)C(=O)[O-])cc1)Nc1ccc2cc(S(=O)(=O)[O-])ccc2c1 (optimized conformer: 67.83829276943023 kcal/mol)

>  <smiles>  (28) 
O=C(Nc1ccc(C=CC(=O)C(=O)O)cc1)Nc1ccc2cc(S(=O)(=O)O)ccc2c1

>  <score_type>  (28) 
oracle

>  <origin>  (28) 
adg

>  <m_score__min__energy>  (28) 
-13.31

>  <m_primary>  (28) 
energy

$$$$
28:0
     RDKit          3D

 43 45  0  0  0  0  0  0  0  0999 V2000
   58.6740   32.8880   45.9170 C   0  0  0  0  0  0  0  0  0  0  0  0
   59.7150   32.4110   46.8360 N   0  0  0  0  0  0  0  0  0  0  0  0
   61.0580   33.0000   46.7530 C   0  0  0  0  0  0  0  0  0  0  0  0
   59.4180   31.3870   47.8220 C   0  0  0  0  0  0  0  0  0  0  0  0
   59.8840   30.0670   47.6530 C   0  0  0  0  0  0  0  0  0  0  0  0
   59.6030   29.0850   48.6040 C   0  0  0  0  0  0  0  0  0  0  0  0
   58.8550   29.3970   49.7390 C   0  0  0  0  0  0  0  0  0  0  0  0
   58.3740   30.7020   49.9360 C   0  0  0  0  0  0  0  0  0  0  0  0
   57.5800   31.0350   51.1430 C   0  0  0  0  0  0  0  0  0  0  0  0
   57.1010   32.1940   51.2850 O   0  0  0  0  0  0  0  0  0  0  0  0
   57.3370   30.0390   52.1440 N   0  0  0  0  0  0  0  0  0  0  0  0
   56.0350   29.6760   52.6190 C   0  0  0  0  0  0  0  0  0  0  0  0
   55.8190   28.3540   53.0230 C   0  0  0  0  0  0  0  0  0  0  0  0
   54.5540   27.9390   53.4360 C   0  0  0  0  0  0  0  0  0  0  0  0
   53.4940   28.8440   53.4610 C   0  0  0  0  0  0  0  0  0  0  0  0
   53.6960   30.1870   53.1060 C   0  0  0  0  0  0  0  0  0  0  0  0
   52.5280   31.1400   53.1290 C   0  0  0  0  0  0  0  0  0  0  0  0
   51.9050   31.2210   51.7690 C   0  0  0  0  0  0  0  0  0  0  0  0
   52.1160   30.3230   50.7900 N   0  0  0  0  0  0  0  0  0  0  0  0
   51.4170   30.8270   49.7500 C   0  0  0  0  0  0  0  0  0  0  0  0
   51.3630   30.2570   48.6300 O   0  0  0  0  0  0  0  0  0  0  0  0
   50.7840   31.9930   50.0030 N   0  0  0  0  0  0  0  0  0  0  0  0
   51.1070   32.2310   51.2850 C   0  0  0  0  0  0  0  0  0  0  0  0
   50.6830   33.3460   51.9940 O   0  0  0  0  0  0  0  0  0  0  0  0
   54.9780   30.6140   52.6970 C   0  0  0  0  0  0  0  0  0  0  0  0
   55.1840   31.9650   52.4090 O   0  0  0  0  0  0  0  0  0  0  0  0
   58.6600   31.6890   48.9730 C   0  0  0  0  0  0  0  0  0  0  0  0
   57.8239   33.2775   46.4963 H   0  0  0  0  0  0  0  0  0  0  0  0
   59.0832   33.6884   45.2831 H   0  0  0  0  0  0  0  0  0  0  0  0
   58.3350   32.0554   45.2831 H   0  0  0  0  0  0  0  0  0  0  0  0
   61.4469   33.1706   47.7677 H   0  0  0  0  0  0  0  0  0  0  0  0
   61.7272   32.3127   46.2146 H   0  0  0  0  0  0  0  0  0  0  0  0
   61.0057   33.9578   46.2146 H   0  0  0  0  0  0  0  0  0  0  0  0
   60.4753   29.8085   46.7622 H   0  0  0  0  0  0  0  0  0  0  0  0
   59.9734   28.0596   48.4576 H   0  0  0  0  0  0  0  0  0  0  0  0
   58.6405   28.6168   50.4841 H   0  0  0  0  0  0  0  0  0  0  0  0
   56.6533   27.6371   53.0147 H   0  0  0  0  0  0  0  0  0  0  0  0
   54.3918   26.8952   53.7428 H   0  0  0  0  0  0  0  0  0  0  0  0
   52.4921   28.5033   53.7611 H   0  0  0  0  0  0  0  0  0  0  0  0
   51.7799   30.7817   53.8515 H   0  0  0  0  0  0  0  0  0  0  0  0
   52.8830   32.1387   53.4233 H   0  0  0  0  0  0  0  0  0  0  0  0
   55.4860   32.2950   51.5020 H   0  0  0  0  0  0  0  0  0  0  0  0
   58.2860   32.7129   49.1207 H   0  0  0  0  0  0  0  0  0  0  0  0
  1  2  1  0
  2  3  1  0
  2  4  1  0
  4  5  2  0
  5  6  1  0
  6  7  2  0
  7  8  1  0
  8  9  1  0
  9 10  2  0
  9 11  1  0
 11 12  1  0
 12 13  2  0
 13 14  1  0
 14 15  2  0
 15 16  1  0
 16 17  1  0
 17 18  1  0
 18 19  1  0
 19 20  1  0
 20 21  2  0
 20 22  1  0
 22 23  1  0
 23 24  1  0
 16 25  2  0
 25 26  1  0
  8 27  2  0
 27  4  1  0
 25 12  1  0
 23 18  2  0
  1 28  1  0
  1 29  1  0
  1 30  1  0
  3 31  1  0
  3 32  1  0
  3 33  1  0
  5 34  1  0
  6 35  1  0
  7 36  1  0
 13 37  1  0
 14 38  1  0
 15 39  1  0
 17 40  1  0
 17 41  1  0
 26 42  1  0
 27 43  1  0
M  CHG  4  11  -1  19  -1  22  -1  24  -1
M  END
>  <UniqueID>  (29) 
27

>  <SMILES>  (29) 
CN(C)c1cccc(C(=O)[N-]c2cccc(Cc3[n-]c(=O)[n-]c3[O-])c2O)c1

>  <Energy>  (29) 
83.09888829634373

>  <Genealogy>  (29) 
CN(C)c1cccc(C(=O)[N-]c2cccc(Cc3[n-]c(=O)[n-]c3[O-])c2O)c1 (protonated)
CN(C)c1cccc(C(=O)[N-]c2cccc(Cc3[n-]c(=O)[n-]c3[O-])c2O)c1 (3D coordinates assigned)
CN(C)c1cccc(C(=O)[N-]c2cccc(Cc3[n-]c(=O)[n-]c3[O-])c2O)c1 (optimized conformer: 83.09888829634373 kcal/mol)

>  <smiles>  (29) 
CN(C)c1cccc(C(=O)Nc2cccc(Cc3[nH]c(=O)[nH]c3O)c2O)c1

>  <score_type>  (29) 
oracle

>  <origin>  (29) 
adg

>  <m_score__min__energy>  (29) 
-17.609999999999999

>  <m_primary>  (29) 
energy

$$$$
29:0
     RDKit          3D

 42 44  0  0  0  0  0  0  0  0999 V2000
   62.8260   33.8610   46.3860 C   0  0  0  0  0  0  0  0  0  0  0  0
   62.4050   33.1100   47.6250 C   0  0  0  0  0  0  0  0  0  0  0  0
   63.3340   32.2050   48.1690 C   0  0  0  0  0  0  0  0  0  0  0  0
   63.0950   31.5920   49.3940 C   0  0  0  0  0  0  0  0  0  0  0  0
   61.9280   31.8870   50.0860 C   0  0  0  0  0  0  0  0  0  0  0  0
   61.0130   32.7380   49.5520 N   0  0  0  0  0  0  0  0  0  0  0  0
   61.1760   33.3220   48.3280 C   0  0  0  0  0  0  0  0  0  0  0  0
   60.1890   34.0590   47.8850 N   0  0  0  0  0  0  0  0  0  0  0  0
   59.6430   34.1770   46.5660 C   0  0  0  0  0  0  0  0  0  0  0  0
   59.8530   35.2260   45.8990 O   0  0  0  0  0  0  0  0  0  0  0  0
   58.9310   33.0340   45.9470 C   0  0  0  0  0  0  0  0  0  0  0  0
   57.7980   33.2500   45.1390 C   0  0  0  0  0  0  0  0  0  0  0  0
   57.1330   32.1700   44.5520 C   0  0  0  0  0  0  0  0  0  0  0  0
   57.5900   30.8630   44.7540 C   0  0  0  0  0  0  0  0  0  0  0  0
   56.7250   29.5100   44.0260 S   0  0  0  0  0  0  0  0  0  0  0  0
   57.6840   28.6310   43.2710 O   0  0  0  0  0  0  0  0  0  0  0  0
   55.7150   30.0500   43.0540 O   0  0  0  0  0  0  0  0  0  0  0  0
   55.8970   28.5710   45.2360 N   0  0  0  0  0  0  0  0  0  0  0  0
   56.7560   27.5170   45.7790 C   0  0  0  0  0  0  0  0  0  0  0  0
   56.0680   26.1880   45.7430 C   0  0  0  0  0  0  0  0  0  0  0  0
   56.6870   24.9550   45.8030 C   0  0  0  0  0  0  0  0  0  0  0  0
   55.6680   24.0290   45.7540 C   0  0  0  0  0  0  0  0  0  0  0  0
   54.4960   24.7520   45.6690 C   0  0  0  0  0  0  0  0  0  0  0  0
   54.7670   26.0370   45.6640 O   0  0  0  0  0  0  0  0  0  0  0  0
   58.7160   30.6400   45.5580 C   0  0  0  0  0  0  0  0  0  0  0  0
   59.3820   31.7180   46.1480 C   0  0  0  0  0  0  0  0  0  0  0  0
   63.3448   34.7864   46.6767 H   0  0  0  0  0  0  0  0  0  0  0  0
   63.5035   33.2329   45.7890 H   0  0  0  0  0  0  0  0  0  0  0  0
   61.9366   34.1113   45.7890 H   0  0  0  0  0  0  0  0  0  0  0  0
   64.2598   31.9796   47.6194 H   0  0  0  0  0  0  0  0  0  0  0  0
   63.8232   30.8805   49.8106 H   0  0  0  0  0  0  0  0  0  0  0  0
   61.7435   31.4304   51.0696 H   0  0  0  0  0  0  0  0  0  0  0  0
   60.1370   32.9160   50.0950 H   0  0  0  0  0  0  0  0  0  0  0  0
   57.4345   34.2742   44.9690 H   0  0  0  0  0  0  0  0  0  0  0  0
   56.2452   32.3485   43.9276 H   0  0  0  0  0  0  0  0  0  0  0  0
   57.6773   27.4608   45.1806 H   0  0  0  0  0  0  0  0  0  0  0  0
   56.9888   27.7613   46.8260 H   0  0  0  0  0  0  0  0  0  0  0  0
   57.7662   24.7544   45.8748 H   0  0  0  0  0  0  0  0  0  0  0  0
   55.7686   22.9339   45.7778 H   0  0  0  0  0  0  0  0  0  0  0  0
   53.4869   24.3177   45.6138 H   0  0  0  0  0  0  0  0  0  0  0  0
   59.0765   29.6143   45.7251 H   0  0  0  0  0  0  0  0  0  0  0  0
   60.2669   31.5348   46.7752 H   0  0  0  0  0  0  0  0  0  0  0  0
  1  2  1  0
  2  3  2  0
  3  4  1  0
  4  5  2  0
  5  6  1  0
  6  7  1  0
  7  8  2  3
  8  9  1  0
  9 10  2  0
  9 11  1  0
 11 12  2  0
 12 13  1  0
 13 14  2  0
 14 15  1  0
 15 16  2  0
 15 17  2  0
 15 18  1  0
 18 19  1  0
 19 20  1  0
 20 21  2  0
 21 22  1  0
 22 23  2  0
 23 24  1  0
 14 25  1  0
 25 26  2  0
  7  2  1  0
 26 11  1  0
 24 20  1  0
  1 27  1  0
  1 28  1  0
  1 29  1  0
  3 30  1  0
  4 31  1  0
  5 32  1  0
  6 33  1  0
 12 34  1  0
 13 35  1  0
 19 36  1  0
 19 37  1  0
 21 38  1  0
 22 39  1  0
 23 40  1  0
 25 41  1  0
 26 42  1  0
M  CHG  1  18  -1
M  END
>  <UniqueID>  (30) 
28

>  <SMILES>  (30) 
Cc1ccc[nH]c1=NC(=O)c1ccc(S(=O)(=O)[N-]Cc2ccco2)cc1

>  <Energy>  (30) 
86.12394376537198

>  <Genealogy>  (30) 
Cc1ccc[nH]c1=NC(=O)c1ccc(S(=O)(=O)[N-]Cc2ccco2)cc1 (protonated)
Cc1ccc[nH]c1=NC(=O)c1ccc(S(=O)(=O)[N-]Cc2ccco2)cc1 (3D coordinates assigned)
Cc1ccc[nH]c1=NC(=O)c1ccc(S(=O)(=O)[N-]Cc2ccco2)cc1 (optimized conformer: 86.12394376537198 kcal/mol)

>  <smiles>  (30) 
Cc1ccc[nH]c1=NC(=O)c1ccc(S(=O)(=O)NCc2ccco2)cc1

>  <score_type>  (30) 
oracle

>  <origin>  (30) 
adg

>  <m_score__min__energy>  (30) 
-10.93

>  <m_primary>  (30) 
energy

$$$$
30:0
     RDKit          3D

 35 37  0  0  0  0  0  0  0  0999 V2000
   59.8460   24.8810   45.6490 H   0  0  0  0  0  0  0  0  0  0  0  0
   59.4140   25.7920   45.7090 O   0  0  0  0  0  0  0  0  0  0  0  0
   58.0400   25.9880   45.8870 C   0  0  0  0  0  0  0  0  0  0  0  0
   57.4930   27.2510   45.5930 C   0  0  0  0  0  0  0  0  0  0  0  0
   58.3470   28.3840   45.1770 C   0  0  0  0  0  0  0  0  0  0  0  0
   58.8646   28.3222   44.2084 H   0  0  0  0  0  0  0  0  0  0  0  0
   58.5200   29.4820   45.9240 C   0  0  0  0  0  0  0  0  0  0  0  0
   59.0220   29.5930   47.3080 C   0  0  0  0  0  0  0  0  0  0  0  0
   59.3703   28.7380   47.9060 H   0  0  0  0  0  0  0  0  0  0  0  0
   59.0040   30.8210   47.7370 N   0  0  0  0  0  0  0  0  0  0  0  0
   58.4880   31.6030   46.6650 C   0  0  0  0  0  0  0  0  0  0  0  0
   58.2960   32.9460   46.6860 N   0  0  0  0  0  0  0  0  0  0  0  0
   57.7830   33.5650   45.5810 C   0  0  0  0  0  0  0  0  0  0  0  0
   57.6252   34.6536   45.5895 H   0  0  0  0  0  0  0  0  0  0  0  0
   57.4540   32.8190   44.4290 C   0  0  0  0  0  0  0  0  0  0  0  0
   57.0412   33.3241   43.5433 H   0  0  0  0  0  0  0  0  0  0  0  0
   57.6560   31.4280   44.4180 C   0  0  0  0  0  0  0  0  0  0  0  0
   57.4088   30.8219   43.5340 H   0  0  0  0  0  0  0  0  0  0  0  0
   58.1810   30.8470   45.5690 C   0  0  0  0  0  0  0  0  0  0  0  0
   56.1000   27.4110   45.6170 C   0  0  0  0  0  0  0  0  0  0  0  0
   55.5230   28.6320   45.2850 O   0  0  0  0  0  0  0  0  0  0  0  0
   55.3010   26.3760   45.9750 N   0  0  0  0  0  0  0  0  0  0  0  0
   55.7990   25.1620   46.3200 C   0  0  0  0  0  0  0  0  0  0  0  0
   55.0010   24.2520   46.6720 O   0  0  0  0  0  0  0  0  0  0  0  0
   57.1900   24.9340   46.3000 C   0  0  0  0  0  0  0  0  0  0  0  0
   57.7360   23.6280   46.7370 C   0  0  0  0  0  0  0  0  0  0  0  0
   57.2770   23.0660   47.7690 O   0  0  0  0  0  0  0  0  0  0  0  0
   58.7870   23.0420   46.0250 O   0  0  0  0  0  0  0  0  0  0  0  0
   58.5880   22.3190   44.8160 C   0  0  0  0  0  0  0  0  0  0  0  0
   58.1065   22.9722   44.0734 H   0  0  0  0  0  0  0  0  0  0  0  0
   57.9445   21.4486   45.0116 H   0  0  0  0  0  0  0  0  0  0  0  0
   59.9300   21.8460   44.2800 C   0  0  0  0  0  0  0  0  0  0  0  0
   60.5984   21.6104   45.1213 H   0  0  0  0  0  0  0  0  0  0  0  0
   59.7827   20.9456   43.6655 H   0  0  0  0  0  0  0  0  0  0  0  0
   60.3798   22.6398   43.6655 H   0  0  0  0  0  0  0  0  0  0  0  0
  1  2  1  0
  2  3  1  0
  3  4  1  0
  4  5  1  0
  5  6  1  0
  5  7  2  0
  7  8  1  0
  8  9  1  0
  8 10  2  0
 10 11  1  0
 11 12  2  0
 12 13  1  0
 13 14  1  0
 13 15  2  0
 15 16  1  0
 15 17  1  0
 17 18  1  0
 17 19  2  0
  4 20  2  0
 20 21  1  0
 20 22  1  0
 22 23  1  0
 23 24  2  0
 23 25  1  0
 25 26  1  0
 26 27  2  0
 26 28  1  0
 28 29  1  0
 29 30  1  0
 29 31  1  0
 29 32  1  0
 32 33  1  0
 32 34  1  0
 32 35  1  0
 25  3  2  0
 19  7  1  0
 19 11  1  0
M  CHG  2  21  -1  22  -1
M  END
>  <UniqueID>  (31) 
29

>  <SMILES>  (31) 
CCOC(=O)c1c(O)c(/C=C2\C=Nc3ncccc32)c([O-])[n-]c1=O

>  <Energy>  (31) 
79.52266007015689

>  <Genealogy>  (31) 
CCOC(=O)c1c(O)c(C=C2C=Nc3ncccc32)c([O-])[n-]c1=O (protonated)
CCOC(=O)c1c(O)c(/C=C2\C=Nc3ncccc32)c([O-])[n-]c1=O (cis-trans isomerization)
CCOC(=O)c1c(O)c(/C=C2\C=Nc3ncccc32)c([O-])[n-]c1=O (3D coordinates assigned)
CCOC(=O)c1c(O)c(/C=C2\C=Nc3ncccc32)c([O-])[n-]c1=O (nonaromatic ring conformer: 79.52266007015689 kcal/mol)

>  <smiles>  (31) 
CCOC(=O)c1c(O)c(C=C2C=Nc3ncccc32)c(O)[nH]c1=O

>  <score_type>  (31) 
oracle

>  <origin>  (31) 
adg

>  <m_score__min__energy>  (31) 
-12.91

>  <m_primary>  (31) 
energy

$$$$
31:0
     RDKit          3D

 40 42  0  0  0  0  0  0  0  0999 V2000
   55.1540   28.9820   44.8670 O   0  0  0  0  0  0  0  0  0  0  0  0
   56.5410   28.9490   44.9610 C   0  0  0  0  0  0  0  0  0  0  0  0
   57.2610   28.0020   45.6570 C   0  0  0  0  0  0  0  0  0  0  0  0
   58.5880   28.3710   45.5140 C   0  0  0  0  0  0  0  0  0  0  0  0
   59.7720   27.7280   46.1870 C   0  0  2  0  0  0  0  0  0  0  0  0
   59.3810   26.4680   46.6700 O   0  0  0  0  0  0  0  0  0  0  0  0
   60.2680   28.5590   47.3030 N   0  0  0  0  0  0  0  0  0  0  0  0
   60.8070   29.8470   46.8380 C   0  0  0  0  0  0  0  0  0  0  0  0
   60.1830   30.9790   47.5950 C   0  0  0  0  0  0  0  0  0  0  0  0
   60.6240   32.2870   47.6010 C   0  0  0  0  0  0  0  0  0  0  0  0
   59.7730   32.9600   48.4500 C   0  0  0  0  0  0  0  0  0  0  0  0
   58.8720   32.0220   48.9120 C   0  0  0  0  0  0  0  0  0  0  0  0
   59.1440   30.8500   48.3850 O   0  0  0  0  0  0  0  0  0  0  0  0
   58.6150   29.5220   44.7460 C   0  0  0  0  0  0  0  0  0  0  0  0
   57.3570   29.8620   44.4000 N   0  0  0  0  0  0  0  0  0  0  0  0
   56.9600   31.0800   43.6980 C   0  0  0  0  0  0  0  0  0  0  0  0
   57.5330   32.2810   44.3980 C   0  0  0  0  0  0  0  0  0  0  0  0
   57.0300   32.6780   45.6470 C   0  0  0  0  0  0  0  0  0  0  0  0
   57.5270   33.8250   46.2750 C   0  0  0  0  0  0  0  0  0  0  0  0
   58.5220   34.5860   45.6570 C   0  0  0  0  0  0  0  0  0  0  0  0
   59.0190   34.2040   44.4080 C   0  0  0  0  0  0  0  0  0  0  0  0
   58.5240   33.0590   43.7770 C   0  0  0  0  0  0  0  0  0  0  0  0
   56.8654   27.1366   46.2090 H   0  0  0  0  0  0  0  0  0  0  0  0
   60.5879   27.6243   45.4565 H   0  0  0  0  0  0  0  0  0  0  0  0
   58.8880   26.0200   45.9340 H   0  0  0  0  0  0  0  0  0  0  0  0
   59.4970   28.7250   47.9920 H   0  0  0  0  0  0  0  0  0  0  0  0
   61.0360   28.0360   47.7900 H   0  0  0  0  0  0  0  0  0  0  0  0
   61.8956   29.8623   46.9955 H   0  0  0  0  0  0  0  0  0  0  0  0
   60.5777   29.9641   45.7685 H   0  0  0  0  0  0  0  0  0  0  0  0
   61.4762   32.7044   47.0446 H   0  0  0  0  0  0  0  0  0  0  0  0
   59.8051   34.0289   48.7076 H   0  0  0  0  0  0  0  0  0  0  0  0
   58.0507   32.2251   49.6150 H   0  0  0  0  0  0  0  0  0  0  0  0
   59.5228   30.0743   44.4617 H   0  0  0  0  0  0  0  0  0  0  0  0
   57.3364   31.0453   42.6650 H   0  0  0  0  0  0  0  0  0  0  0  0
   55.8625   31.1534   43.6903 H   0  0  0  0  0  0  0  0  0  0  0  0
   56.2419   32.0848   46.1338 H   0  0  0  0  0  0  0  0  0  0  0  0
   57.1338   34.1280   47.2566 H   0  0  0  0  0  0  0  0  0  0  0  0
   58.9143   35.4858   46.1534 H   0  0  0  0  0  0  0  0  0  0  0  0
   59.8008   34.8051   43.9207 H   0  0  0  0  0  0  0  0  0  0  0  0
   58.9121   32.7661   42.7903 H   0  0  0  0  0  0  0  0  0  0  0  0
  1  2  1  0
  2  3  2  0
  3  4  1  0
  4  5  1  0
  5  6  1  0
  5  7  1  0
  7  8  1  0
  8  9  1  0
  9 10  2  0
 10 11  1  0
 11 12  2  0
 12 13  1  0
  4 14  2  0
 14 15  1  0
 15 16  1  0
 16 17  1  0
 17 18  2  0
 18 19  1  0
 19 20  2  0
 20 21  1  0
 21 22  2  0
 15  2  1  0
 22 17  1  0
 13  9  1  0
  3 23  1  0
  5 24  1  6
  6 25  1  0
  7 26  1  0
  7 27  1  0
  8 28  1  0
  8 29  1  0
 10 30  1  0
 11 31  1  0
 12 32  1  0
 14 33  1  0
 16 34  1  0
 16 35  1  0
 18 36  1  0
 19 37  1  0
 20 38  1  0
 21 39  1  0
 22 40  1  0
M  CHG  2   1  -1   7   1
M  END
>  <UniqueID>  (32) 
30

>  <SMILES>  (32) 
[O-]c1cc([C@H](O)[NH2+]Cc2ccco2)cn1Cc1ccccc1

>  <Energy>  (32) 
91.48478031045659

>  <Genealogy>  (32) 
[O-]c1cc(C(O)[NH2+]Cc2ccco2)cn1Cc1ccccc1 (protonated)
[O-]c1cc([C@H](O)[NH2+]Cc2ccco2)cn1Cc1ccccc1 (chirality)
[O-]c1cc([C@H](O)[NH2+]Cc2ccco2)cn1Cc1ccccc1 (3D coordinates assigned)
[O-]c1cc([C@H](O)[NH2+]Cc2ccco2)cn1Cc1ccccc1 (optimized conformer: 91.48478031045659 kcal/mol)

>  <smiles>  (32) 
Oc1cc(C(O)NCc2ccco2)cn1Cc1ccccc1

>  <score_type>  (32) 
oracle

>  <origin>  (32) 
adg

>  <m_score__min__energy>  (32) 
-8.5199999999999996

>  <m_primary>  (32) 
energy

$$$$
32:0
     RDKit          3D

 54 57  0  0  0  0  0  0  0  0999 V2000
   58.0520   26.1960   47.6600 C   0  0  0  0  0  0  0  0  0  0  0  0
   58.8810   27.4370   47.4250 C   0  0  0  0  0  0  0  0  0  0  0  0
   59.6230   27.9230   48.4620 N   0  0  0  0  0  0  0  0  0  0  0  0
   60.3890   29.0360   48.3290 C   0  0  0  0  0  0  0  0  0  0  0  0
   61.1360   29.5200   49.4150 C   0  0  0  0  0  0  0  0  0  0  0  0
   61.9170   30.6680   49.2770 C   0  0  0  0  0  0  0  0  0  0  0  0
   61.9620   31.3480   48.0550 C   0  0  0  0  0  0  0  0  0  0  0  0
   62.9340   32.8120   47.9160 S   0  0  0  0  0  0  0  0  0  0  0  0
   63.7790   32.9480   49.1520 O   0  0  0  0  0  0  0  0  0  0  0  0
   63.8370   32.7290   46.7160 O   0  0  0  0  0  0  0  0  0  0  0  0
   61.8730   34.1900   47.7580 N   0  0  0  0  0  0  0  0  0  0  0  0
   60.9230   34.2630   48.8980 C   0  0  0  0  0  0  0  0  0  0  0  0
   59.5080   33.7980   48.5270 C   0  0  0  0  0  0  0  0  0  0  0  0
   58.9270   34.6590   47.3830 C   0  0  0  0  0  0  0  0  0  0  0  0
   57.7950   33.9080   46.6720 C   0  0  0  0  0  0  0  0  0  0  0  0
   60.0200   35.1130   46.3810 C   0  0  0  0  0  0  0  0  0  0  0  0
   61.2360   34.1820   46.4230 C   0  0  0  0  0  0  0  0  0  0  0  0
   61.2190   30.8730   46.9660 C   0  0  0  0  0  0  0  0  0  0  0  0
   60.4290   29.7130   47.0980 C   0  0  0  0  0  0  0  0  0  0  0  0
   59.6700   29.2040   46.0330 C   0  0  0  0  0  0  0  0  0  0  0  0
   59.6790   29.8030   44.9200 O   0  0  0  0  0  0  0  0  0  0  0  0
   58.9180   28.0620   46.1950 N   0  0  0  0  0  0  0  0  0  0  0  0
   58.1290   27.5620   45.0480 C   0  0  0  0  0  0  0  0  0  0  0  0
   56.6610   27.8360   45.2510 C   0  0  0  0  0  0  0  0  0  0  0  0
   55.9100   26.9070   45.6510 O   0  0  0  0  0  0  0  0  0  0  0  0
   56.1000   29.1430   45.0650 N   0  0  0  0  0  0  0  0  0  0  0  0
   56.5580   30.0880   44.3000 C   0  0  0  0  0  0  0  0  0  0  0  0
   56.4700   30.0210   42.9550 N   0  0  0  0  0  0  0  0  0  0  0  0
   57.0510   31.0960   42.3580 C   0  0  0  0  0  0  0  0  0  0  0  0
   57.6210   32.0190   43.2270 C   0  0  0  0  0  0  0  0  0  0  0  0
   57.3860   31.4700   44.8000 S   0  0  0  0  0  0  0  0  0  0  0  0
   57.9404   26.0290   48.7415 H   0  0  0  0  0  0  0  0  0  0  0  0
   57.0592   26.3266   47.2048 H   0  0  0  0  0  0  0  0  0  0  0  0
   58.5528   25.3288   47.2048 H   0  0  0  0  0  0  0  0  0  0  0  0
   59.6000   27.4310   49.3850 H   0  0  0  0  0  0  0  0  0  0  0  0
   61.1053   28.9916   50.3793 H   0  0  0  0  0  0  0  0  0  0  0  0
   62.4998   31.0400   50.1325 H   0  0  0  0  0  0  0  0  0  0  0  0
   61.3003   33.6250   49.7107 H   0  0  0  0  0  0  0  0  0  0  0  0
   60.8545   35.3175   49.2036 H   0  0  0  0  0  0  0  0  0  0  0  0
   59.5475   32.7476   48.2029 H   0  0  0  0  0  0  0  0  0  0  0  0
   58.8605   33.9035   49.4100 H   0  0  0  0  0  0  0  0  0  0  0  0
   58.5116   35.5737   47.8311 H   0  0  0  0  0  0  0  0  0  0  0  0
   57.1236   33.4625   47.4208 H   0  0  0  0  0  0  0  0  0  0  0  0
   57.2281   34.6098   46.0425 H   0  0  0  0  0  0  0  0  0  0  0  0
   58.2212   33.1129   46.0425 H   0  0  0  0  0  0  0  0  0  0  0  0
   59.5991   35.1068   45.3647 H   0  0  0  0  0  0  0  0  0  0  0  0
   60.3481   36.1250   46.6606 H   0  0  0  0  0  0  0  0  0  0  0  0
   60.9115   33.1578   46.1869 H   0  0  0  0  0  0  0  0  0  0  0  0
   61.9708   34.5371   45.6855 H   0  0  0  0  0  0  0  0  0  0  0  0
   61.2523   31.4071   46.0049 H   0  0  0  0  0  0  0  0  0  0  0  0
   58.4668   28.0659   44.1304 H   0  0  0  0  0  0  0  0  0  0  0  0
   58.2775   26.4753   44.9637 H   0  0  0  0  0  0  0  0  0  0  0  0
   57.0686   31.2257   41.2658 H   0  0  0  0  0  0  0  0  0  0  0  0
   58.1360   32.9467   42.9369 H   0  0  0  0  0  0  0  0  0  0  0  0
  1  2  1  0
  2  3  2  0
  3  4  1  0
  4  5  2  0
  5  6  1  0
  6  7  2  0
  7  8  1  0
  8  9  2  0
  8 10  2  0
  8 11  1  0
 11 12  1  0
 12 13  1  0
 13 14  1  0
 14 15  1  0
 14 16  1  0
 16 17  1  0
  7 18  1  0
 18 19  2  0
 19 20  1  0
 20 21  2  0
 20 22  1  0
 22 23  1  0
 23 24  1  0
 24 25  2  0
 24 26  1  0
 26 27  2  3
 27 28  1  0
 28 29  1  0
 29 30  2  0
 30 31  1  0
 22  2  1  0
 31 27  1  0
 19  4  1  0
 17 11  1  0
  1 32  1  0
  1 33  1  0
  1 34  1  0
  3 35  1  0
  5 36  1  0
  6 37  1  0
 12 38  1  0
 12 39  1  0
 13 40  1  0
 13 41  1  0
 14 42  1  0
 15 43  1  0
 15 44  1  0
 15 45  1  0
 16 46  1  0
 16 47  1  0
 17 48  1  0
 17 49  1  0
 18 50  1  0
 23 51  1  0
 23 52  1  0
 29 53  1  0
 30 54  1  0
M  CHG  2   3   1  28  -1
M  END
>  <UniqueID>  (33) 
31

>  <SMILES>  (33) 
Cc1[nH+]c2ccc(S(=O)(=O)N3CCC(C)CC3)cc2c(=O)n1CC(=O)N=c1[n-]ccs1

>  <Energy>  (33) 
106.13332865841443

>  <Genealogy>  (33) 
Cc1[nH+]c2ccc(S(=O)(=O)N3CCC(C)CC3)cc2c(=O)n1CC(=O)N=c1[n-]ccs1 (protonated)
Cc1[nH+]c2ccc(S(=O)(=O)N3CCC(C)CC3)cc2c(=O)n1CC(=O)N=c1[n-]ccs1 (3D coordinates assigned)
Cc1[nH+]c2ccc(S(=O)(=O)N3CCC(C)CC3)cc2c(=O)n1CC(=O)N=c1[n-]ccs1 (nonaromatic ring conformer: 106.13332865841443 kcal/mol)

>  <smiles>  (33) 
Cc1nc2ccc(S(=O)(=O)N3CCC(C)CC3)cc2c(=O)n1CC(=O)N=c1[nH]ccs1

>  <score_type>  (33) 
oracle

>  <origin>  (33) 
adg

>  <m_score__min__energy>  (33) 
-10.27

>  <m_primary>  (33) 
energy

$$$$
33:0
     RDKit          3D

 54 56  0  0  0  0  0  0  0  0999 V2000
   56.6010   34.5130   44.5470 O   0  0  0  0  0  0  0  0  0  0  0  0
   57.4320   33.7240   45.0710 C   0  0  0  0  0  0  0  0  0  0  0  0
   57.8050   32.4650   44.3300 C   0  0  0  0  0  0  0  0  0  0  0  0
   56.7440   31.3730   44.4840 C   0  0  0  0  0  0  0  0  0  0  0  0
   57.3450   30.0380   44.8500 C   0  0  0  0  0  0  0  0  0  0  0  0
   58.7380   29.9170   44.9850 C   0  0  0  0  0  0  0  0  0  0  0  0
   59.3110   28.6780   45.2970 C   0  0  0  0  0  0  0  0  0  0  0  0
   58.4990   27.5510   45.4690 C   0  0  0  0  0  0  0  0  0  0  0  0
   57.1130   27.6600   45.3290 C   0  0  0  0  0  0  0  0  0  0  0  0
   56.5320   28.8940   45.0180 C   0  0  0  0  0  0  0  0  0  0  0  0
   55.1490   28.9710   44.8810 O   0  0  0  0  0  0  0  0  0  0  0  0
   58.0210   34.0820   46.3290 N   0  0  0  0  0  0  0  0  0  0  0  0
   59.4270   33.9540   46.6810 C   0  0  0  0  0  0  0  0  0  0  0  0
   59.7010   32.6170   47.3130 C   0  0  0  0  0  0  0  0  0  0  0  0
   60.8010   31.8430   46.9020 C   0  0  0  0  0  0  0  0  0  0  0  0
   61.0520   30.5980   47.4880 C   0  0  0  0  0  0  0  0  0  0  0  0
   60.2170   30.1200   48.5070 C   0  0  0  0  0  0  0  0  0  0  0  0
   60.4500   28.7930   49.1140 C   0  0  0  0  0  0  0  0  0  0  0  0
   59.9490   27.7750   48.5640 O   0  0  0  0  0  0  0  0  0  0  0  0
   61.2080   28.6200   50.3220 N   0  0  0  0  0  0  0  0  0  0  0  0
   61.6200   29.6750   51.2490 C   0  0  0  0  0  0  0  0  0  0  0  0
   62.9890   30.2670   50.8770 C   0  0  0  0  0  0  0  0  0  0  0  0
   62.8520   31.5950   50.1730 C   0  0  0  0  0  0  0  0  0  0  0  0
   62.0220   32.5980   50.7010 C   0  0  0  0  0  0  0  0  0  0  0  0
   61.9060   33.8300   50.0530 C   0  0  0  0  0  0  0  0  0  0  0  0
   62.6220   34.0760   48.8780 C   0  0  0  0  0  0  0  0  0  0  0  0
   63.4620   33.0900   48.3500 C   0  0  0  0  0  0  0  0  0  0  0  0
   64.1780   33.3510   47.1850 O   0  0  0  0  0  0  0  0  0  0  0  0
   63.5760   31.8510   48.9970 C   0  0  0  0  0  0  0  0  0  0  0  0
   59.1190   30.8940   48.9190 C   0  0  0  0  0  0  0  0  0  0  0  0
   58.8730   32.1410   48.3390 C   0  0  0  0  0  0  0  0  0  0  0  0
   57.9181   32.7020   43.2618 H   0  0  0  0  0  0  0  0  0  0  0  0
   58.7461   32.0866   44.7557 H   0  0  0  0  0  0  0  0  0  0  0  0
   56.0401   31.6727   45.2744 H   0  0  0  0  0  0  0  0  0  0  0  0
   56.2355   31.2589   43.5153 H   0  0  0  0  0  0  0  0  0  0  0  0
   59.3809   30.7986   44.8451 H   0  0  0  0  0  0  0  0  0  0  0  0
   60.4019   28.5902   45.4072 H   0  0  0  0  0  0  0  0  0  0  0  0
   58.9521   26.5792   45.7145 H   0  0  0  0  0  0  0  0  0  0  0  0
   56.4768   26.7728   45.4637 H   0  0  0  0  0  0  0  0  0  0  0  0
   60.0369   34.0543   45.7711 H   0  0  0  0  0  0  0  0  0  0  0  0
   59.6825   34.7437   47.4029 H   0  0  0  0  0  0  0  0  0  0  0  0
   61.4692   32.2197   46.1135 H   0  0  0  0  0  0  0  0  0  0  0  0
   61.9059   29.9933   47.1486 H   0  0  0  0  0  0  0  0  0  0  0  0
   60.8687   30.4782   51.2293 H   0  0  0  0  0  0  0  0  0  0  0  0
   61.7031   29.2319   52.2524 H   0  0  0  0  0  0  0  0  0  0  0  0
   63.5768   30.4099   51.7957 H   0  0  0  0  0  0  0  0  0  0  0  0
   63.4900   29.5668   50.1924 H   0  0  0  0  0  0  0  0  0  0  0  0
   61.4610   32.4123   51.6288 H   0  0  0  0  0  0  0  0  0  0  0  0
   61.2494   34.6087   50.4685 H   0  0  0  0  0  0  0  0  0  0  0  0
   62.5248   35.0458   48.3681 H   0  0  0  0  0  0  0  0  0  0  0  0
   64.8530   32.6890   46.8190 H   0  0  0  0  0  0  0  0  0  0  0  0
   64.2360   31.0754   48.5812 H   0  0  0  0  0  0  0  0  0  0  0  0
   58.4481   30.5152   49.7041 H   0  0  0  0  0  0  0  0  0  0  0  0
   58.0270   32.7511   48.6885 H   0  0  0  0  0  0  0  0  0  0  0  0
  1  2  2  0
  2  3  1  0
  3  4  1  0
  4  5  1  0
  5  6  2  0
  6  7  1  0
  7  8  2  0
  8  9  1  0
  9 10  2  0
 10 11  1  0
  2 12  1  0
 12 13  1  0
 13 14  1  0
 14 15  2  0
 15 16  1  0
 16 17  2  0
 17 18  1  0
 18 19  2  0
 18 20  1  0
 20 21  1  0
 21 22  1  0
 22 23  1  0
 23 24  2  0
 24 25  1  0
 25 26  2  0
 26 27  1  0
 27 28  1  0
 27 29  2  0
 17 30  1  0
 30 31  2  0
 10  5  1  0
 31 14  1  0
 29 23  1  0
  3 32  1  0
  3 33  1  0
  4 34  1  0
  4 35  1  0
  6 36  1  0
  7 37  1  0
  8 38  1  0
  9 39  1  0
 13 40  1  0
 13 41  1  0
 15 42  1  0
 16 43  1  0
 21 44  1  0
 21 45  1  0
 22 46  1  0
 22 47  1  0
 24 48  1  0
 25 49  1  0
 26 50  1  0
 28 51  1  0
 29 52  1  0
 30 53  1  0
 31 54  1  0
M  CHG  3  11  -1  12  -1  20  -1
M  END
>  <UniqueID>  (34) 
32

>  <SMILES>  (34) 
O=C(CCc1ccccc1[O-])[N-]Cc1ccc(C(=O)[N-]CCc2cccc(O)c2)cc1

>  <Energy>  (34) 
52.65008804916055

>  <Genealogy>  (34) 
O=C(CCc1ccccc1[O-])[N-]Cc1ccc(C(=O)[N-]CCc2cccc(O)c2)cc1 (protonated)
O=C(CCc1ccccc1[O-])[N-]Cc1ccc(C(=O)[N-]CCc2cccc(O)c2)cc1 (3D coordinates assigned)
O=C(CCc1ccccc1[O-])[N-]Cc1ccc(C(=O)[N-]CCc2cccc(O)c2)cc1 (optimized conformer: 52.65008804916055 kcal/mol)

>  <smiles>  (34) 
O=C(CCc1ccccc1O)NCc1ccc(C(=O)NCCc2cccc(O)c2)cc1

>  <score_type>  (34) 
oracle

>  <origin>  (34) 
adg

>  <m_score__min__energy>  (34) 
-15.130000000000001

>  <m_primary>  (34) 
energy

$$$$
34:0
     RDKit          3D

 39 41  0  0  0  0  0  0  0  0999 V2000
   60.5630   26.7990   49.2570 O   0  0  0  0  0  0  0  0  0  0  0  0
   60.0430   27.7620   48.6290 C   0  0  0  0  0  0  0  0  0  0  0  0
   59.4760   27.5560   47.3280 N   0  0  0  0  0  0  0  0  0  0  0  0
   58.8120   28.5340   46.5150 C   0  0  0  0  0  0  0  0  0  0  0  0
   59.3920   30.0660   46.1410 S   0  0  0  0  0  0  0  0  0  0  0  0
   58.1080   30.5150   45.1480 C   0  0  0  0  0  0  0  0  0  0  0  0
   58.0020   31.8320   44.4240 C   0  0  0  0  0  0  0  0  0  0  0  0
   58.4380   32.9860   45.2900 C   0  0  0  0  0  0  0  0  0  0  0  0
   59.1750   34.0480   44.7430 C   0  0  0  0  0  0  0  0  0  0  0  0
   59.6070   35.0990   45.5580 C   0  0  0  0  0  0  0  0  0  0  0  0
   59.3120   35.0930   46.9240 C   0  0  0  0  0  0  0  0  0  0  0  0
   58.5860   34.0340   47.4780 C   0  0  0  0  0  0  0  0  0  0  0  0
   58.1530   32.9810   46.6660 C   0  0  0  0  0  0  0  0  0  0  0  0
   57.2090   29.4400   45.0650 C   0  0  0  0  0  0  0  0  0  0  0  0
   55.9570   29.5030   44.2830 C   0  0  0  0  0  0  0  0  0  0  0  0
   54.8440   29.3510   44.8500 O   0  0  0  0  0  0  0  0  0  0  0  0
   55.9960   29.7520   42.9160 O   0  0  0  0  0  0  0  0  0  0  0  0
   57.6080   28.3200   45.8410 C   0  0  0  0  0  0  0  0  0  0  0  0
   56.8970   27.0210   45.8820 C   0  0  0  0  0  0  0  0  0  0  0  0
   57.5390   25.9420   45.7740 O   0  0  0  0  0  0  0  0  0  0  0  0
   55.5130   26.9730   45.9950 O   0  0  0  0  0  0  0  0  0  0  0  0
   60.0200   29.1120   49.2380 C   0  0  0  0  0  0  0  0  0  0  0  0
   58.8580   29.5910   49.8740 C   0  0  0  0  0  0  0  0  0  0  0  0
   58.8380   30.8660   50.4480 C   0  0  0  0  0  0  0  0  0  0  0  0
   59.9740   31.6770   50.3940 C   0  0  0  0  0  0  0  0  0  0  0  0
   61.1320   31.2140   49.7670 C   0  0  0  0  0  0  0  0  0  0  0  0
   61.1590   29.9400   49.1920 C   0  0  0  0  0  0  0  0  0  0  0  0
   58.6403   31.7981   43.5288 H   0  0  0  0  0  0  0  0  0  0  0  0
   56.9474   31.9883   44.1533 H   0  0  0  0  0  0  0  0  0  0  0  0
   59.4136   34.0535   43.6692 H   0  0  0  0  0  0  0  0  0  0  0  0
   60.1797   35.9315   45.1234 H   0  0  0  0  0  0  0  0  0  0  0  0
   59.6509   35.9214   47.5635 H   0  0  0  0  0  0  0  0  0  0  0  0
   58.3553   34.0292   48.5535 H   0  0  0  0  0  0  0  0  0  0  0  0
   57.5876   32.1462   47.1058 H   0  0  0  0  0  0  0  0  0  0  0  0
   57.9598   28.9576   49.9195 H   0  0  0  0  0  0  0  0  0  0  0  0
   57.9260   31.2310   50.9430 H   0  0  0  0  0  0  0  0  0  0  0  0
   59.9561   32.6800   50.8453 H   0  0  0  0  0  0  0  0  0  0  0  0
   62.0260   31.8535   49.7252 H   0  0  0  0  0  0  0  0  0  0  0  0
   62.0755   29.5817   48.7004 H   0  0  0  0  0  0  0  0  0  0  0  0
  1  2  2  0
  2  3  1  0
  3  4  1  0
  4  5  1  0
  5  6  1  0
  6  7  1  0
  7  8  1  0
  8  9  2  0
  9 10  1  0
 10 11  2  0
 11 12  1  0
 12 13  2  0
  6 14  2  0
 14 15  1  0
 15 16  2  0
 15 17  1  0
 14 18  1  0
 18 19  1  0
 19 20  2  0
 19 21  1  0
  2 22  1  0
 22 23  2  0
 23 24  1  0
 24 25  2  0
 25 26  1  0
 26 27  2  0
 18  4  2  0
 27 22  1  0
 13  8  1  0
  7 28  1  0
  7 29  1  0
  9 30  1  0
 10 31  1  0
 11 32  1  0
 12 33  1  0
 13 34  1  0
 23 35  1  0
 24 36  1  0
 25 37  1  0
 26 38  1  0
 27 39  1  0
M  CHG  3   3  -1  17  -1  21  -1
M  END
>  <UniqueID>  (35) 
33

>  <SMILES>  (35) 
O=C([N-]c1sc(Cc2ccccc2)c(C(=O)[O-])c1C(=O)[O-])c1ccccc1

>  <Energy>  (35) 
78.01744843653962

>  <Genealogy>  (35) 
O=C([N-]c1sc(Cc2ccccc2)c(C(=O)[O-])c1C(=O)[O-])c1ccccc1 (protonated)
O=C([N-]c1sc(Cc2ccccc2)c(C(=O)[O-])c1C(=O)[O-])c1ccccc1 (3D coordinates assigned)
O=C([N-]c1sc(Cc2ccccc2)c(C(=O)[O-])c1C(=O)[O-])c1ccccc1 (optimized conformer: 78.01744843653962 kcal/mol)

>  <smiles>  (35) 
O=C(Nc1sc(Cc2ccccc2)c(C(=O)O)c1C(=O)O)c1ccccc1

>  <score_type>  (35) 
oracle

>  <origin>  (35) 
adg

>  <m_score__min__energy>  (35) 
-14.58

>  <m_primary>  (35) 
energy

$$$$
35:0
     RDKit          3D

 52 54  0  0  1  0  0  0  0  0999 V2000
   59.5570   35.2950   46.6500 C   0  0  0  0  0  0  0  0  0  0  0  0
   59.0260   33.9010   46.5470 C   0  0  0  0  0  0  0  0  0  0  0  0
   58.2410   33.5480   45.4710 C   0  0  0  0  0  0  0  0  0  0  0  0
   58.8410   31.7310   47.4270 C   0  0  0  0  0  0  0  0  0  0  0  0
   59.1680   30.9400   48.3850 N   0  0  0  0  0  0  0  0  0  0  0  0
   57.4410   31.2100   43.2670 C   0  0  2  0  0  0  0  0  0  0  0  0
   57.7400   32.0470   42.0690 C   0  0  0  0  0  0  0  0  0  0  0  0
   56.6690   29.9400   42.9800 C   0  0  0  0  0  0  0  0  0  0  0  0
   56.6660   29.0380   44.1900 C   0  0  0  0  0  0  0  0  0  0  0  0
   56.1750   29.4200   45.2380 O   0  0  0  0  0  0  0  0  0  0  0  0
   58.0830   31.3820   46.3920 N   0  0  0  0  0  0  0  0  0  0  0  0
   57.7790   32.2570   45.4250 C   0  0  0  0  0  0  0  0  0  0  0  0
   57.0560   31.9030   44.4510 N   0  0  0  0  0  0  0  0  0  0  0  0
   60.2500   30.0260   48.2370 C   0  0  0  0  0  0  0  0  0  0  0  0
   59.8850   29.0150   47.2150 C   0  0  0  0  0  0  0  0  0  0  0  0
   60.0230   29.0780   45.8890 C   0  0  0  0  0  0  0  0  0  0  0  0
   59.6290   28.0460   45.1260 C   0  0  0  0  0  0  0  0  0  0  0  0
   59.0910   26.9540   45.7890 C   0  0  0  0  0  0  0  0  0  0  0  0
   58.5780   25.7010   45.2780 C   0  0  0  0  0  0  0  0  0  0  0  0
   58.8810   24.5070   45.8670 C   0  0  0  0  0  0  0  0  0  0  0  0
   58.3690   23.3380   45.3440 C   0  0  0  0  0  0  0  0  0  0  0  0
   57.5500   23.3230   44.2340 C   0  0  0  0  0  0  0  0  0  0  0  0
   56.9990   22.0920   43.6680 C   0  0  0  0  0  0  0  0  0  0  0  0
   57.5980   20.8460   43.9300 N   0  0  0  0  0  0  0  0  0  0  0  0
   55.9730   22.1130   42.9300 O   0  0  0  0  0  0  0  0  0  0  0  0
   57.2520   24.5390   43.6480 C   0  0  0  0  0  0  0  0  0  0  0  0
   57.7730   25.7190   44.1810 C   0  0  0  0  0  0  0  0  0  0  0  0
   59.1580   27.4340   47.5350 S   0  0  0  0  0  0  0  0  0  0  0  0
   59.3170   32.9990   47.5070 N   0  0  0  0  0  0  0  0  0  0  0  0
   59.6618   35.5701   47.7099 H   0  0  0  0  0  0  0  0  0  0  0  0
   60.5392   35.3505   46.1579 H   0  0  0  0  0  0  0  0  0  0  0  0
   58.8606   35.9899   46.1579 H   0  0  0  0  0  0  0  0  0  0  0  0
   57.9946   34.2723   44.6806 H   0  0  0  0  0  0  0  0  0  0  0  0
   58.4422   30.8500   43.5464 H   0  0  0  0  0  0  0  0  0  0  0  0
   58.0937   33.0371   42.3925 H   0  0  0  0  0  0  0  0  0  0  0  0
   58.5192   31.5584   41.4656 H   0  0  0  0  0  0  0  0  0  0  0  0
   56.8276   32.1627   41.4656 H   0  0  0  0  0  0  0  0  0  0  0  0
   55.6322   30.1980   42.7183 H   0  0  0  0  0  0  0  0  0  0  0  0
   57.1511   29.4120   42.1440 H   0  0  0  0  0  0  0  0  0  0  0  0
   57.1083   28.0329   44.1258 H   0  0  0  0  0  0  0  0  0  0  0  0
   57.7280   30.4230   46.3410 H   0  0  0  0  0  0  0  0  0  0  0  0
   61.1510   30.5687   47.9150 H   0  0  0  0  0  0  0  0  0  0  0  0
   60.4543   29.5299   49.1973 H   0  0  0  0  0  0  0  0  0  0  0  0
   60.4587   29.9737   45.4222 H   0  0  0  0  0  0  0  0  0  0  0  0
   59.7281   28.0660   44.0307 H   0  0  0  0  0  0  0  0  0  0  0  0
   59.5304   24.4776   46.7544 H   0  0  0  0  0  0  0  0  0  0  0  0
   58.6227   22.3839   45.8291 H   0  0  0  0  0  0  0  0  0  0  0  0
   58.6170   20.7270   44.1650 H   0  0  0  0  0  0  0  0  0  0  0  0
   57.0290   19.9620   43.8980 H   0  0  0  0  0  0  0  0  0  0  0  0
   56.6034   24.5767   42.7604 H   0  0  0  0  0  0  0  0  0  0  0  0
   57.5286   26.6805   43.7059 H   0  0  0  0  0  0  0  0  0  0  0  0
   59.9160   33.3160   48.3030 H   0  0  0  0  0  0  0  0  0  0  0  0
  1  2  1  0
  2  3  2  0
  3  4  1  0
  4  5  2  0
  5  6  1  0
  6  7  1  0
  6  8  1  0
  8  9  1  0
  9 10  2  0
  4 11  1  0
 11 12  1  0
 12 13  2  0
 13 14  1  0
 14 15  1  0
 15 16  2  0
 16 17  1  0
 17 18  2  0
 18 19  1  0
 19 20  2  0
 20 21  1  0
 21 22  2  0
 22 23  1  0
 23 24  1  0
 23 25  2  0
 22 26  1  0
 26 27  2  0
 18 28  1  0
 12 29  1  0
 29  2  1  0
 28 15  1  0
 27 19  1  0
  1 30  1  0
  1 31  1  0
  1 32  1  0
  3 33  1  0
  6 34  1  6
  7 35  1  0
  7 36  1  0
  7 37  1  0
  8 38  1  0
  8 39  1  0
  9 40  1  0
 11 41  1  0
 14 42  1  0
 14 43  1  0
 16 44  1  0
 17 45  1  0
 20 46  1  0
 21 47  1  0
 24 48  1  0
 24 49  1  0
 26 50  1  0
 27 51  1  0
 29 52  1  0
M  END
>  <smiles>  (36) 
Cc1cc(=NC(C)CC=O)[nH]c(=NCc2ccc(-c3ccc(C(N)=O)cc3)s2)[nH]1

>  <score_type>  (36) 
oracle

>  <origin>  (36) 
adg

>  <m_score__min__energy>  (36) 
-9.5899999999999999

>  <m_primary>  (36) 
energy

$$$$
36:0
     RDKit          3D

 42 44  0  0  1  0  0  0  0  0999 V2000
   56.6420   28.9670   42.5350 N   0  0  0  0  0  0  0  0  0  0  0  0
   56.6190   30.2160   43.7520 S   0  0  0  0  0  0  0  0  0  0  0  0
   57.0190   31.5350   43.1610 O   0  0  0  0  0  0  0  0  0  0  0  0
   55.2190   30.2460   44.2990 O   0  0  0  0  0  0  0  0  0  0  0  0
   57.7010   29.7010   45.0080 C   0  0  0  0  0  0  0  0  0  0  0  0
   58.8770   30.3830   45.2020 C   0  0  0  0  0  0  0  0  0  0  0  0
   59.7550   29.9920   46.1950 C   0  0  0  0  0  0  0  0  0  0  0  0
   59.4880   28.9200   47.0160 C   0  0  0  0  0  0  0  0  0  0  0  0
   60.4420   28.4860   48.1020 C   0  0  0  0  0  0  0  0  0  0  0  0
   60.2060   29.3670   49.2050 N   0  0  0  0  0  0  0  0  0  0  0  0
   60.6870   30.5250   49.3150 C   0  0  0  0  0  0  0  0  0  0  0  0
   61.9280   30.7680   49.7630 N   0  0  0  0  0  0  0  0  0  0  0  0
   62.4230   32.0090   49.8740 C   0  0  0  0  0  0  0  0  0  0  0  0
   61.6570   33.1090   49.5230 C   0  0  0  0  0  0  0  0  0  0  0  0
   60.3810   32.8390   49.0630 C   0  0  0  0  0  0  0  0  0  0  0  0
   59.6240   33.8150   48.7230 N   0  0  0  0  0  0  0  0  0  0  0  0
   59.1060   33.9880   47.4080 C   0  0  0  0  0  0  0  0  0  0  0  0
   59.7350   34.8310   46.4900 C   0  0  0  0  0  0  0  0  0  0  0  0
   59.1840   34.9580   45.2230 C   0  0  0  0  0  0  0  0  0  0  0  0
   58.0470   34.2710   44.8800 C   0  0  0  0  0  0  0  0  0  0  0  0
   57.4500   33.4450   45.8070 C   0  0  0  0  0  0  0  0  0  0  0  0
   56.3200   32.7690   45.4490 F   0  0  0  0  0  0  0  0  0  0  0  0
   57.9590   33.2860   47.0780 C   0  0  0  0  0  0  0  0  0  0  0  0
   59.9020   31.5820   48.9590 N   0  0  0  0  0  0  0  0  0  0  0  0
   58.3100   28.2330   46.8240 C   0  0  0  0  0  0  0  0  0  0  0  0
   57.4270   28.6260   45.8260 C   0  0  0  0  0  0  0  0  0  0  0  0
   56.6510   28.0140   42.9420 H   0  0  0  0  0  0  0  0  0  0  0  0
   55.7200   29.0160   42.0100 H   0  0  0  0  0  0  0  0  0  0  0  0
   59.1214   31.2449   44.5638 H   0  0  0  0  0  0  0  0  0  0  0  0
   60.6916   30.5521   46.3329 H   0  0  0  0  0  0  0  0  0  0  0  0
   60.2414   27.4446   48.3941 H   0  0  0  0  0  0  0  0  0  0  0  0
   61.4877   28.5325   47.7639 H   0  0  0  0  0  0  0  0  0  0  0  0
   62.5200   29.9830   50.0300 H   0  0  0  0  0  0  0  0  0  0  0  0
   63.4473   32.1554   50.2474 H   0  0  0  0  0  0  0  0  0  0  0  0
   62.0412   34.1364   49.6054 H   0  0  0  0  0  0  0  0  0  0  0  0
   60.6466   35.3819   46.7649 H   0  0  0  0  0  0  0  0  0  0  0  0
   59.6643   35.6172   44.4849 H   0  0  0  0  0  0  0  0  0  0  0  0
   57.6159   34.3788   43.8738 H   0  0  0  0  0  0  0  0  0  0  0  0
   57.4698   32.6228   47.8067 H   0  0  0  0  0  0  0  0  0  0  0  0
   58.9300   31.4300   48.6070 H   0  0  0  0  0  0  0  0  0  0  0  0
   58.0675   27.3708   47.4626 H   0  0  0  0  0  0  0  0  0  0  0  0
   56.4897   28.0676   45.6857 H   0  0  0  0  0  0  0  0  0  0  0  0
  1  2  1  0
  2  3  2  0
  2  4  2  0
  2  5  1  0
  5  6  2  0
  6  7  1  0
  7  8  2  0
  8  9  1  0
  9 10  1  0
 10 11  2  0
 11 12  1  0
 12 13  1  0
 13 14  2  0
 14 15  1  0
 15 16  2  0
 16 17  1  0
 17 18  2  0
 18 19  1  0
 19 20  2  0
 20 21  1  0
 21 22  1  0
 21 23  2  0
 15 24  1  0
  8 25  1  0
 25 26  2  0
 26  5  1  0
 24 11  1  0
 23 17  1  0
  1 27  1  0
  1 28  1  0
  6 29  1  0
  7 30  1  0
  9 31  1  0
  9 32  1  0
 12 33  1  0
 13 34  1  0
 14 35  1  0
 18 36  1  0
 19 37  1  0
 20 38  1  0
 23 39  1  0
 24 40  1  0
 25 41  1  0
 26 42  1  0
M  END
>  <smiles>  (37) 
NS(=O)(=O)c1ccc(CN=c2[nH]ccc(=Nc3cccc(F)c3)[nH]2)cc1

>  <score_type>  (37) 
oracle

>  <origin>  (37) 
adg

>  <m_score__min__energy>  (37) 
-9.0800000000000001

>  <m_primary>  (37) 
energy

$$$$
37:0
     RDKit          3D

 35 37  0  0  0  0  0  0  0  0999 V2000
   60.5400   26.3560   48.0930 C   0  0  0  0  0  0  0  0  0  0  0  0
   60.2020   27.0480   47.0000 C   0  0  0  0  0  0  0  0  0  0  0  0
   61.1420   27.4270   46.1120 N   0  0  0  0  0  0  0  0  0  0  0  0
   60.5130   28.1920   45.2050 C   0  0  0  0  0  0  0  0  0  0  0  0
   61.1800   28.7740   44.1300 O   0  0  0  0  0  0  0  0  0  0  0  0
   59.1630   28.3140   45.4880 C   0  0  0  0  0  0  0  0  0  0  0  0
   58.1740   29.1440   44.7060 C   0  0  0  0  0  0  0  0  0  0  0  0
   58.1540   30.5650   45.2110 C   0  0  0  0  0  0  0  0  0  0  0  0
   57.7030   31.6080   44.3850 C   0  0  0  0  0  0  0  0  0  0  0  0
   57.7010   32.9270   44.8500 C   0  0  0  0  0  0  0  0  0  0  0  0
   58.1460   33.2140   46.1440 C   0  0  0  0  0  0  0  0  0  0  0  0
   58.5930   32.1830   46.9730 C   0  0  0  0  0  0  0  0  0  0  0  0
   58.5980   30.8630   46.5120 C   0  0  0  0  0  0  0  0  0  0  0  0
   58.9400   27.5570   46.6400 C   0  0  0  0  0  0  0  0  0  0  0  0
   57.7330   27.3860   47.2260 C   0  0  0  0  0  0  0  0  0  0  0  0
   56.7370   26.3640   46.8570 C   0  0  0  0  0  0  0  0  0  0  0  0
   55.6820   26.6830   45.9930 C   0  0  0  0  0  0  0  0  0  0  0  0
   55.5270   27.9790   45.5140 O   0  0  0  0  0  0  0  0  0  0  0  0
   54.7940   25.7230   45.6240 N   0  0  0  0  0  0  0  0  0  0  0  0
   54.9180   24.4460   46.0670 C   0  0  0  0  0  0  0  0  0  0  0  0
   53.8340   23.3160   45.6080 S   0  0  0  0  0  0  0  0  0  0  0  0
   55.9490   24.1050   46.8810 N   0  0  0  0  0  0  0  0  0  0  0  0
   56.8630   25.0280   47.2790 C   0  0  0  0  0  0  0  0  0  0  0  0
   57.8180   24.6730   48.0210 O   0  0  0  0  0  0  0  0  0  0  0  0
   59.7656   26.0510   48.8122 H   0  0  0  0  0  0  0  0  0  0  0  0
   61.5925   26.0917   48.2730 H   0  0  0  0  0  0  0  0  0  0  0  0
   62.0450   28.3960   43.7670 H   0  0  0  0  0  0  0  0  0  0  0  0
   58.4609   29.1421   43.6441 H   0  0  0  0  0  0  0  0  0  0  0  0
   57.1710   28.7100   44.8310 H   0  0  0  0  0  0  0  0  0  0  0  0
   57.3496   31.3861   43.3672 H   0  0  0  0  0  0  0  0  0  0  0  0
   57.3490   33.7393   44.1971 H   0  0  0  0  0  0  0  0  0  0  0  0
   58.1440   34.2517   46.5089 H   0  0  0  0  0  0  0  0  0  0  0  0
   58.9420   32.4099   47.9912 H   0  0  0  0  0  0  0  0  0  0  0  0
   58.9505   30.0545   47.1693 H   0  0  0  0  0  0  0  0  0  0  0  0
   57.4723   28.0682   48.0486 H   0  0  0  0  0  0  0  0  0  0  0  0
  1  2  2  0
  2  3  1  0
  3  4  1  0
  4  5  1  0
  4  6  2  0
  6  7  1  0
  7  8  1  0
  8  9  2  0
  9 10  1  0
 10 11  2  0
 11 12  1  0
 12 13  2  0
  6 14  1  0
 14 15  2  3
 15 16  1  0
 16 17  2  0
 17 18  1  0
 17 19  1  0
 19 20  1  0
 20 21  2  0
 20 22  1  0
 22 23  1  0
 23 24  2  0
 14  2  1  0
 23 16  1  0
 13  8  1  0
  1 25  1  0
  1 26  1  0
  5 27  1  0
  7 28  1  0
  7 29  1  0
  9 30  1  0
 10 31  1  0
 11 32  1  0
 12 33  1  0
 13 34  1  0
 15 35  1  0
M  CHG  4   3  -1  18  -1  19  -1  22  -1
M  END
>  <UniqueID>  (38) 
34

>  <SMILES>  (38) 
C=c1[n-]c(O)c(Cc2ccccc2)c1=Cc1c([O-])[n-]c(=S)[n-]c1=O

>  <Energy>  (38) 
78.7913164531743

>  <Genealogy>  (38) 
C=c1[n-]c(O)c(Cc2ccccc2)c1=Cc1c([O-])[n-]c(=S)[n-]c1=O (protonated)
C=c1[n-]c(O)c(Cc2ccccc2)c1=Cc1c([O-])[n-]c(=S)[n-]c1=O (3D coordinates assigned)
C=c1[n-]c(O)c(Cc2ccccc2)c1=Cc1c([O-])[n-]c(=S)[n-]c1=O (optimized conformer: 78.7913164531743 kcal/mol)

>  <smiles>  (38) 
C=c1[nH]c(O)c(Cc2ccccc2)c1=Cc1c(O)[nH]c(=S)[nH]c1=O

>  <score_type>  (38) 
oracle

>  <origin>  (38) 
adg

>  <m_score__min__energy>  (38) 
-15.27

>  <m_primary>  (38) 
energy

$$$$
38:0
     RDKit          3D

 44 46  0  0  0  0  0  0  0  0999 V2000
   56.2240   31.5130   44.5540 O   0  0  0  0  0  0  0  0  0  0  0  0
   57.2070   30.4140   44.8430 S   0  0  0  0  0  0  0  0  0  0  0  0
   58.0500   30.2070   43.6150 O   0  0  0  0  0  0  0  0  0  0  0  0
   56.3270   28.9690   45.2270 N   0  0  0  0  0  0  0  0  0  0  0  0
   56.9060   27.6920   45.5320 C   0  0  0  0  0  0  0  0  0  0  0  0
   58.2960   27.5550   45.4230 C   0  0  0  0  0  0  0  0  0  0  0  0
   58.9170   26.3380   45.7220 C   0  0  0  0  0  0  0  0  0  0  0  0
   58.1530   25.2510   46.1500 C   0  0  0  0  0  0  0  0  0  0  0  0
   56.7700   25.3810   46.2870 C   0  0  0  0  0  0  0  0  0  0  0  0
   56.1420   26.5980   45.9930 C   0  0  0  0  0  0  0  0  0  0  0  0
   54.7750   26.7090   46.2050 O   0  0  0  0  0  0  0  0  0  0  0  0
   58.1970   30.9000   46.2160 C   0  0  0  0  0  0  0  0  0  0  0  0
   58.5040   29.9690   47.2170 C   0  0  0  0  0  0  0  0  0  0  0  0
   59.2750   30.3470   48.3190 C   0  0  0  0  0  0  0  0  0  0  0  0
   59.7550   31.6550   48.4200 C   0  0  0  0  0  0  0  0  0  0  0  0
   59.4800   32.5880   47.4120 C   0  0  0  0  0  0  0  0  0  0  0  0
   60.1410   34.2230   47.5070 S   0  0  0  0  0  0  0  0  0  0  0  0
   59.4470   34.9690   48.6140 O   0  0  0  0  0  0  0  0  0  0  0  0
   59.8690   34.9450   46.2180 O   0  0  0  0  0  0  0  0  0  0  0  0
   61.8680   34.2050   47.7890 N   0  0  0  0  0  0  0  0  0  0  0  0
   62.5740   33.3410   46.8090 C   0  0  0  0  0  0  0  0  0  0  0  0
   62.9940   31.9870   47.4000 C   0  0  0  0  0  0  0  0  0  0  0  0
   63.9090   32.1690   48.6220 C   0  0  0  0  0  0  0  0  0  0  0  0
   63.6150   33.4640   49.4000 C   0  0  0  0  0  0  0  0  0  0  0  0
   62.1600   33.9010   49.2070 C   0  0  0  0  0  0  0  0  0  0  0  0
   58.6880   32.2090   46.3170 C   0  0  0  0  0  0  0  0  0  0  0  0
   58.9045   28.4123   45.0993 H   0  0  0  0  0  0  0  0  0  0  0  0
   60.0076   26.2374   45.6199 H   0  0  0  0  0  0  0  0  0  0  0  0
   58.6408   24.2921   46.3793 H   0  0  0  0  0  0  0  0  0  0  0  0
   56.1706   24.5238   46.6274 H   0  0  0  0  0  0  0  0  0  0  0  0
   58.1362   28.9356   47.1348 H   0  0  0  0  0  0  0  0  0  0  0  0
   59.5041   29.6147   49.1072 H   0  0  0  0  0  0  0  0  0  0  0  0
   60.3514   31.9535   49.2947 H   0  0  0  0  0  0  0  0  0  0  0  0
   61.9046   33.1589   45.9553 H   0  0  0  0  0  0  0  0  0  0  0  0
   63.4909   33.8673   46.5051 H   0  0  0  0  0  0  0  0  0  0  0  0
   62.0931   31.4351   47.7063 H   0  0  0  0  0  0  0  0  0  0  0  0
   63.5495   31.4304   46.6308 H   0  0  0  0  0  0  0  0  0  0  0  0
   63.7669   31.3130   49.2980 H   0  0  0  0  0  0  0  0  0  0  0  0
   64.9439   32.2314   48.2543 H   0  0  0  0  0  0  0  0  0  0  0  0
   63.7997   33.2905   50.4704 H   0  0  0  0  0  0  0  0  0  0  0  0
   64.2734   34.2589   49.0196 H   0  0  0  0  0  0  0  0  0  0  0  0
   61.4961   33.0908   49.5428 H   0  0  0  0  0  0  0  0  0  0  0  0
   61.9932   34.8144   49.7969 H   0  0  0  0  0  0  0  0  0  0  0  0
   58.4512   32.9437   45.5333 H   0  0  0  0  0  0  0  0  0  0  0  0
  1  2  2  0
  2  3  2  0
  2  4  1  0
  4  5  1  0
  5  6  2  0
  6  7  1  0
  7  8  2  0
  8  9  1  0
  9 10  2  0
 10 11  1  0
  2 12  1  0
 12 13  2  0
 13 14  1  0
 14 15  2  0
 15 16  1  0
 16 17  1  0
 17 18  2  0
 17 19  2  0
 17 20  1  0
 20 21  1  0
 21 22  1  0
 22 23  1  0
 23 24  1  0
 24 25  1  0
 16 26  2  0
 10  5  1  0
 26 12  1  0
 25 20  1  0
  6 27  1  0
  7 28  1  0
  8 29  1  0
  9 30  1  0
 13 31  1  0
 14 32  1  0
 15 33  1  0
 21 34  1  0
 21 35  1  0
 22 36  1  0
 22 37  1  0
 23 38  1  0
 23 39  1  0
 24 40  1  0
 24 41  1  0
 25 42  1  0
 25 43  1  0
 26 44  1  0
M  CHG  2   4  -1  11  -1
M  END
>  <UniqueID>  (39) 
35

>  <SMILES>  (39) 
O=S(=O)([N-]c1ccccc1[O-])c1cccc(S(=O)(=O)N2CCCCC2)c1

>  <Energy>  (39) 
55.81040223389657

>  <Genealogy>  (39) 
O=S(=O)([N-]c1ccccc1[O-])c1cccc(S(=O)(=O)N2CCCCC2)c1 (protonated)
O=S(=O)([N-]c1ccccc1[O-])c1cccc(S(=O)(=O)N2CCCCC2)c1 (3D coordinates assigned)
O=S(=O)([N-]c1ccccc1[O-])c1cccc(S(=O)(=O)N2CCCCC2)c1 (nonaromatic ring conformer: 55.81040223389657 kcal/mol)

>  <smiles>  (39) 
O=S(=O)(Nc1ccccc1O)c1cccc(S(=O)(=O)N2CCCCC2)c1

>  <score_type>  (39) 
oracle

>  <origin>  (39) 
adg

>  <m_score__min__energy>  (39) 
-15.289999999999999

>  <m_primary>  (39) 
energy

$$$$
39:0
     RDKit          3D

 58 62  0  0  1  0  0  0  0  0999 V2000
   56.7700   29.0350   43.2910 O   0  0  0  0  0  0  0  0  0  0  0  0
   56.4690   29.0790   44.5240 C   0  0  0  0  0  0  0  0  0  0  0  0
   55.2320   29.5750   44.8470 O   0  0  0  0  0  0  0  0  0  0  0  0
   57.4620   28.6030   45.4740 C   0  0  0  0  0  0  0  0  0  0  0  0
   57.1070   27.4440   46.1780 C   0  0  0  0  0  0  0  0  0  0  0  0
   55.9230   26.8140   45.9470 F   0  0  0  0  0  0  0  0  0  0  0  0
   57.9320   26.8890   47.1300 C   0  0  0  0  0  0  0  0  0  0  0  0
   59.1310   27.5250   47.3650 C   0  0  0  0  0  0  0  0  0  0  0  0
   59.4970   28.6830   46.6690 C   0  0  0  0  0  0  0  0  0  0  0  0
   60.7550   29.2360   47.0210 N   0  0  0  0  0  0  0  0  0  0  0  0
   60.8850   29.8120   48.1570 C   0  0  0  0  0  0  0  0  0  0  0  0
   60.3060   29.3930   49.2950 N   0  0  0  0  0  0  0  0  0  0  0  0
   60.4710   30.0380   50.4740 C   0  0  0  0  0  0  0  0  0  0  0  0
   59.8770   29.5640   51.5170 N   0  0  0  0  0  0  0  0  0  0  0  0
   58.5770   30.0670   51.8320 C   0  0  0  0  0  0  0  0  0  0  0  0
   57.6420   29.3420   52.5260 C   0  0  0  0  0  0  0  0  0  0  0  0
   56.4130   29.9100   52.7830 C   0  0  0  0  0  0  0  0  0  0  0  0
   56.1290   31.1870   52.3480 C   0  0  0  0  0  0  0  0  0  0  0  0
   57.0620   31.9250   51.6480 C   0  0  0  0  0  0  0  0  0  0  0  0
   58.2890   31.3420   51.3980 C   0  0  0  0  0  0  0  0  0  0  0  0
   61.2360   31.1430   50.5380 N   0  0  0  0  0  0  0  0  0  0  0  0
   61.8500   31.6250   49.4360 C   0  0  0  0  0  0  0  0  0  0  0  0
   62.6300   32.7620   49.5300 C   0  0  0  0  0  0  0  0  0  0  0  0
   63.2650   33.2680   48.4130 C   0  0  0  0  0  0  0  0  0  0  0  0
   63.0930   32.6030   47.2100 C   0  0  0  0  0  0  0  0  0  0  0  0
   62.3070   31.4630   47.1320 C   0  0  0  0  0  0  0  0  0  0  0  0
   61.6770   30.9610   48.2400 C   0  0  0  0  0  0  0  0  0  0  0  0
   58.6620   29.2390   45.7080 C   0  0  0  0  0  0  0  0  0  0  0  0
   59.0680   30.3960   45.0410 N   0  0  0  0  0  0  0  0  0  0  0  0
   58.2950   31.9300   45.1010 S   0  0  0  0  0  0  0  0  0  0  0  0
   58.4600   32.6660   43.7820 O   0  0  0  0  0  0  0  0  0  0  0  0
   56.7890   31.7440   45.2360 O   0  0  0  0  0  0  0  0  0  0  0  0
   58.7900   32.9210   46.4360 C   0  0  0  0  0  0  0  0  0  0  0  0
   59.3560   34.1750   46.1730 C   0  0  0  0  0  0  0  0  0  0  0  0
   59.7600   34.9880   47.2130 C   0  0  0  0  0  0  0  0  0  0  0  0
   59.6200   34.5970   48.5460 C   0  0  0  0  0  0  0  0  0  0  0  0
   59.0560   33.3530   48.7760 C   0  0  0  0  0  0  0  0  0  0  0  0
   58.6420   32.5140   47.7660 C   0  0  0  0  0  0  0  0  0  0  0  0
   55.1060   30.4960   45.2450 H   0  0  0  0  0  0  0  0  0  0  0  0
   57.6467   25.9790   47.6781 H   0  0  0  0  0  0  0  0  0  0  0  0
   59.8181   27.1126   48.1185 H   0  0  0  0  0  0  0  0  0  0  0  0
   59.7190   28.5510   49.2800 H   0  0  0  0  0  0  0  0  0  0  0  0
   57.8697   28.3230   52.8721 H   0  0  0  0  0  0  0  0  0  0  0  0
   55.6535   29.3407   53.3389 H   0  0  0  0  0  0  0  0  0  0  0  0
   55.1429   31.6248   52.5622 H   0  0  0  0  0  0  0  0  0  0  0  0
   56.8358   32.9439   51.3006 H   0  0  0  0  0  0  0  0  0  0  0  0
   59.0511   31.9071   50.8414 H   0  0  0  0  0  0  0  0  0  0  0  0
   61.3470   31.6210   51.4540 H   0  0  0  0  0  0  0  0  0  0  0  0
   62.7457   33.2669   50.5004 H   0  0  0  0  0  0  0  0  0  0  0  0
   63.8886   34.1719   48.4766 H   0  0  0  0  0  0  0  0  0  0  0  0
   63.5867   32.9844   46.3040 H   0  0  0  0  0  0  0  0  0  0  0  0
   62.1875   30.9535   46.1645 H   0  0  0  0  0  0  0  0  0  0  0  0
   59.9310   30.3300   44.4420 H   0  0  0  0  0  0  0  0  0  0  0  0
   59.4791   34.5133   45.1336 H   0  0  0  0  0  0  0  0  0  0  0  0
   60.2034   35.9687   46.9857 H   0  0  0  0  0  0  0  0  0  0  0  0
   59.9422   35.2458   49.3738 H   0  0  0  0  0  0  0  0  0  0  0  0
   58.9328   33.0190   49.8168 H   0  0  0  0  0  0  0  0  0  0  0  0
   58.1999   31.5348   48.0022 H   0  0  0  0  0  0  0  0  0  0  0  0
  1  2  2  0
  2  3  1  0
  2  4  1  0
  4  5  2  0
  5  6  1  0
  5  7  1  0
  7  8  2  0
  8  9  1  0
  9 10  1  0
 10 11  2  0
 11 12  1  0
 12 13  1  0
 13 14  2  0
 14 15  1  0
 15 16  2  0
 16 17  1  0
 17 18  2  0
 18 19  1  0
 19 20  2  0
 13 21  1  0
 21 22  1  0
 22 23  2  0
 23 24  1  0
 24 25  2  0
 25 26  1  0
 26 27  2  0
  9 28  2  0
 28 29  1  0
 29 30  1  0
 30 31  2  0
 30 32  2  0
 30 33  1  0
 33 34  2  0
 34 35  1  0
 35 36  2  0
 36 37  1  0
 37 38  2  0
 28  4  1  0
 38 33  1  0
 27 11  1  0
 20 15  1  0
 27 22  1  0
  3 39  1  0
  7 40  1  0
  8 41  1  0
 12 42  1  0
 16 43  1  0
 17 44  1  0
 18 45  1  0
 19 46  1  0
 20 47  1  0
 21 48  1  0
 23 49  1  0
 24 50  1  0
 25 51  1  0
 26 52  1  0
 29 53  1  0
 34 54  1  0
 35 55  1  0
 36 56  1  0
 37 57  1  0
 38 58  1  0
M  END
>  <smiles>  (40) 
O=C(O)c1c(F)ccc(N=c2[nH]c(=Nc3ccccc3)[nH]c3ccccc23)c1NS(=O)(=O)c1ccccc1

>  <score_type>  (40) 
oracle

>  <origin>  (40) 
adg

>  <m_score__min__energy>  (40) 
-10.33

>  <m_primary>  (40) 
energy

$$$$
40:0
     RDKit          3D

 43 45  0  0  1  0  0  0  0  0999 V2000
   58.5590   32.1810   49.0410 C   0  0  0  0  0  0  0  0  0  0  0  0
   57.7500   32.7860   48.0470 O   0  0  0  0  0  0  0  0  0  0  0  0
   58.2810   33.6180   47.0690 C   0  0  0  0  0  0  0  0  0  0  0  0
   59.1730   34.6050   47.4540 C   0  0  0  0  0  0  0  0  0  0  0  0
   59.7270   35.4560   46.5150 C   0  0  0  0  0  0  0  0  0  0  0  0
   59.3970   35.3320   45.1860 C   0  0  0  0  0  0  0  0  0  0  0  0
   58.5120   34.3470   44.8300 C   0  0  0  0  0  0  0  0  0  0  0  0
   57.9230   33.4650   45.7150 C   0  0  0  0  0  0  0  0  0  0  0  0
   56.9630   32.4630   45.2950 C   0  0  0  0  0  0  0  0  0  0  0  0
   57.2330   31.1770   44.9130 N   0  0  0  0  0  0  0  0  0  0  0  0
   58.0830   30.2920   45.1130 C   0  0  0  0  0  0  0  0  0  0  0  0
   57.9140   29.0630   44.5220 C   0  0  0  0  0  0  0  0  0  0  0  0
   58.8010   28.0490   44.6790 C   0  0  0  0  0  0  0  0  0  0  0  0
   59.8910   28.2720   45.4530 N   0  0  0  0  0  0  0  0  0  0  0  0
   60.0470   29.4770   46.0270 C   0  0  0  0  0  0  0  0  0  0  0  0
   61.1520   29.7350   46.8260 O   0  0  0  0  0  0  0  0  0  0  0  0
   61.0760   30.5210   47.9980 C   0  0  0  0  0  0  0  0  0  0  0  0
   62.0080   31.6600   47.8370 C   0  0  0  0  0  0  0  0  0  0  0  0
   63.1290   31.7410   48.6680 C   0  0  0  0  0  0  0  0  0  0  0  0
   64.0390   32.7750   48.5700 C   0  0  0  0  0  0  0  0  0  0  0  0
   63.8170   33.7460   47.6160 C   0  0  0  0  0  0  0  0  0  0  0  0
   62.7160   33.6800   46.7870 C   0  0  0  0  0  0  0  0  0  0  0  0
   61.8050   32.6470   46.8850 C   0  0  0  0  0  0  0  0  0  0  0  0
   60.7160   32.5840   46.0650 F   0  0  0  0  0  0  0  0  0  0  0  0
   59.1690   30.4900   45.8740 N   0  0  0  0  0  0  0  0  0  0  0  0
   58.1858   32.4601   50.0374 H   0  0  0  0  0  0  0  0  0  0  0  0
   58.5217   31.0874   48.9286 H   0  0  0  0  0  0  0  0  0  0  0  0
   59.5975   32.5259   48.9286 H   0  0  0  0  0  0  0  0  0  0  0  0
   59.4430   34.7129   48.5149 H   0  0  0  0  0  0  0  0  0  0  0  0
   60.4349   36.2356   46.8329 H   0  0  0  0  0  0  0  0  0  0  0  0
   59.8304   36.0035   44.4302 H   0  0  0  0  0  0  0  0  0  0  0  0
   58.2529   34.2526   43.7651 H   0  0  0  0  0  0  0  0  0  0  0  0
   56.2640   32.3679   46.1390 H   0  0  0  0  0  0  0  0  0  0  0  0
   56.6818   32.8838   44.3183 H   0  0  0  0  0  0  0  0  0  0  0  0
   57.0245   28.8950   43.8971 H   0  0  0  0  0  0  0  0  0  0  0  0
   58.6406   27.0753   44.1930 H   0  0  0  0  0  0  0  0  0  0  0  0
   60.5810   27.4840   45.5750 H   0  0  0  0  0  0  0  0  0  0  0  0
   60.0497   30.8929   48.1338 H   0  0  0  0  0  0  0  0  0  0  0  0
   61.3466   29.9234   48.8810 H   0  0  0  0  0  0  0  0  0  0  0  0
   63.2912   30.9574   49.4228 H   0  0  0  0  0  0  0  0  0  0  0  0
   64.9152   32.8228   49.2333 H   0  0  0  0  0  0  0  0  0  0  0  0
   64.5251   34.5817   47.5150 H   0  0  0  0  0  0  0  0  0  0  0  0
   62.5609   34.4659   46.0331 H   0  0  0  0  0  0  0  0  0  0  0  0
  1  2  1  0
  2  3  1  0
  3  4  2  0
  4  5  1  0
  5  6  2  0
  6  7  1  0
  7  8  2  0
  8  9  1  0
  9 10  1  0
 10 11  2  0
 11 12  1  0
 12 13  2  0
 13 14  1  0
 14 15  1  0
 15 16  1  0
 16 17  1  0
 17 18  1  0
 18 19  2  0
 19 20  1  0
 20 21  2  0
 21 22  1  0
 22 23  2  0
 23 24  1  0
 15 25  2  0
  8  3  1  0
 25 11  1  0
 23 18  1  0
  1 26  1  0
  1 27  1  0
  1 28  1  0
  4 29  1  0
  5 30  1  0
  6 31  1  0
  7 32  1  0
  9 33  1  0
  9 34  1  0
 12 35  1  0
 13 36  1  0
 14 37  1  0
 17 38  1  0
 17 39  1  0
 19 40  1  0
 20 41  1  0
 21 42  1  0
 22 43  1  0
M  END
>  <smiles>  (41) 
COc1ccccc1CN=c1cc[nH]c(OCc2ccccc2F)n1

>  <score_type>  (41) 
oracle

>  <origin>  (41) 
adg

>  <m_score__min__energy>  (41) 
-7.8899999999999997

>  <m_primary>  (41) 
energy

$$$$
41:0
     RDKit          3D

 65 68  0  0  0  0  0  0  0  0999 V2000
   58.9410   22.0480   44.5920 C   0  0  0  0  0  0  0  0  0  0  0  0
   58.7100   23.3220   45.1890 O   0  0  0  0  0  0  0  0  0  0  0  0
   57.4630   23.9520   45.3110 C   0  0  0  0  0  0  0  0  0  0  0  0
   56.3200   23.3540   44.7410 C   0  0  0  0  0  0  0  0  0  0  0  0
   55.0620   23.9290   44.8830 C   0  0  0  0  0  0  0  0  0  0  0  0
   54.9130   25.1010   45.6100 C   0  0  0  0  0  0  0  0  0  0  0  0
   56.0260   25.7230   46.1700 C   0  0  0  0  0  0  0  0  0  0  0  0
   57.3340   25.1950   46.0150 C   0  0  0  0  0  0  0  0  0  0  0  0
   58.4840   25.9490   46.5370 N   0  0  0  0  0  0  0  0  0  0  0  0
   58.3600   26.5760   47.8730 C   0  0  0  0  0  0  0  0  0  0  0  0
   59.4230   27.6360   48.2470 C   0  0  0  0  0  0  0  0  0  0  0  0
   60.3120   28.0200   47.1530 N   0  0  0  0  0  0  0  0  0  0  0  0
   59.6630   29.2760   46.1050 S   0  0  0  0  0  0  0  0  0  0  0  0
   60.4620   29.2900   44.8340 O   0  0  0  0  0  0  0  0  0  0  0  0
   58.2580   28.8990   45.7290 O   0  0  0  0  0  0  0  0  0  0  0  0
   59.6680   30.9140   46.8200 C   0  0  0  0  0  0  0  0  0  0  0  0
   58.9660   32.0430   46.3770 C   0  0  0  0  0  0  0  0  0  0  0  0
   57.8910   32.0910   45.3460 C   0  0  0  0  0  0  0  0  0  0  0  0
   56.9720   32.9470   45.4690 O   0  0  0  0  0  0  0  0  0  0  0  0
   57.9010   31.2180   44.1850 N   0  0  0  0  0  0  0  0  0  0  0  0
   56.6280   30.4910   44.0270 C   0  0  0  0  0  0  0  0  0  0  0  0
   56.3990   30.3230   42.5410 C   0  0  0  0  0  0  0  0  0  0  0  0
   57.0310   31.5550   41.9380 C   0  0  0  0  0  0  0  0  0  0  0  0
   58.1160   31.9660   42.9270 C   0  0  0  0  0  0  0  0  0  0  0  0
   59.3530   33.0890   47.2120 C   0  0  0  0  0  0  0  0  0  0  0  0
   58.7640   34.4740   47.2150 C   0  0  0  0  0  0  0  0  0  0  0  0
   60.2560   32.6520   48.1200 N   0  0  0  0  0  0  0  0  0  0  0  0
   60.8780   33.4620   49.1730 C   0  0  0  0  0  0  0  0  0  0  0  0
   60.4000   31.3180   47.9370 C   0  0  0  0  0  0  0  0  0  0  0  0
   61.0110   30.3890   48.9580 C   0  0  0  0  0  0  0  0  0  0  0  0
   60.8350   26.8400   46.4630 C   0  0  0  0  0  0  0  0  0  0  0  0
   59.7310   26.0630   45.7590 C   0  0  0  0  0  0  0  0  0  0  0  0
   59.0779   21.2931   45.3803 H   0  0  0  0  0  0  0  0  0  0  0  0
   58.0779   21.7738   43.9676 H   0  0  0  0  0  0  0  0  0  0  0  0
   59.8454   22.0942   43.9676 H   0  0  0  0  0  0  0  0  0  0  0  0
   56.4255   22.4170   44.1746 H   0  0  0  0  0  0  0  0  0  0  0  0
   54.1849   23.4545   44.4188 H   0  0  0  0  0  0  0  0  0  0  0  0
   53.9134   25.5400   45.7444 H   0  0  0  0  0  0  0  0  0  0  0  0
   55.8875   26.6486   46.7481 H   0  0  0  0  0  0  0  0  0  0  0  0
   57.3741   27.0613   47.9227 H   0  0  0  0  0  0  0  0  0  0  0  0
   58.5064   25.7555   48.5909 H   0  0  0  0  0  0  0  0  0  0  0  0
   58.8995   28.5382   48.5961 H   0  0  0  0  0  0  0  0  0  0  0  0
   60.0594   27.1795   49.0194 H   0  0  0  0  0  0  0  0  0  0  0  0
   58.6550   30.5000   44.2890 H   0  0  0  0  0  0  0  0  0  0  0  0
   56.6918   29.5065   44.5135 H   0  0  0  0  0  0  0  0  0  0  0  0
   55.7988   31.0434   44.4931 H   0  0  0  0  0  0  0  0  0  0  0  0
   56.8878   29.4101   42.1698 H   0  0  0  0  0  0  0  0  0  0  0  0
   55.3345   30.2213   42.2833 H   0  0  0  0  0  0  0  0  0  0  0  0
   57.4702   31.3233   40.9565 H   0  0  0  0  0  0  0  0  0  0  0  0
   56.2969   32.3574   41.7730 H   0  0  0  0  0  0  0  0  0  0  0  0
   59.1068   31.7244   42.5147 H   0  0  0  0  0  0  0  0  0  0  0  0
   58.0685   33.0487   43.1154 H   0  0  0  0  0  0  0  0  0  0  0  0
   58.6213   34.8095   48.2528 H   0  0  0  0  0  0  0  0  0  0  0  0
   59.4466   35.1639   46.6972 H   0  0  0  0  0  0  0  0  0  0  0  0
   57.7936   34.4609   46.6972 H   0  0  0  0  0  0  0  0  0  0  0  0
   60.5801   33.0740   50.1582 H   0  0  0  0  0  0  0  0  0  0  0  0
   61.9725   33.4127   49.0752 H   0  0  0  0  0  0  0  0  0  0  0  0
   60.5478   34.5067   49.0752 H   0  0  0  0  0  0  0  0  0  0  0  0
   60.7740   30.7494   49.9699 H   0  0  0  0  0  0  0  0  0  0  0  0
   60.6017   29.3768   48.8240 H   0  0  0  0  0  0  0  0  0  0  0  0
   62.1025   30.3639   48.8240 H   0  0  0  0  0  0  0  0  0  0  0  0
   61.5754   27.1628   45.7163 H   0  0  0  0  0  0  0  0  0  0  0  0
   61.2937   26.1795   47.2136 H   0  0  0  0  0  0  0  0  0  0  0  0
   59.5013   26.5716   44.8111 H   0  0  0  0  0  0  0  0  0  0  0  0
   60.1076   25.0399   45.6123 H   0  0  0  0  0  0  0  0  0  0  0  0
  1  2  1  0
  2  3  1  0
  3  4  2  0
  4  5  1  0
  5  6  2  0
  6  7  1  0
  7  8  2  0
  8  9  1  0
  9 10  1  0
 10 11  1  0
 11 12  1  0
 12 13  1  0
 13 14  2  0
 13 15  2  0
 13 16  1  0
 16 17  1  0
 17 18  1  0
 18 19  2  0
 18 20  1  0
 20 21  1  0
 21 22  1  0
 22 23  1  0
 23 24  1  0
 17 25  2  0
 25 26  1  0
 25 27  1  0
 27 28  1  0
 27 29  1  0
 29 30  1  0
 12 31  1  0
 31 32  1  0
  8  3  1  0
 32  9  1  0
 29 16  2  0
 24 20  1  0
  1 33  1  0
  1 34  1  0
  1 35  1  0
  4 36  1  0
  5 37  1  0
  6 38  1  0
  7 39  1  0
 10 40  1  0
 10 41  1  0
 11 42  1  0
 11 43  1  0
 20 44  1  0
 21 45  1  0
 21 46  1  0
 22 47  1  0
 22 48  1  0
 23 49  1  0
 23 50  1  0
 24 51  1  0
 24 52  1  0
 26 53  1  0
 26 54  1  0
 26 55  1  0
 28 56  1  0
 28 57  1  0
 28 58  1  0
 30 59  1  0
 30 60  1  0
 30 61  1  0
 31 62  1  0
 31 63  1  0
 32 64  1  0
 32 65  1  0
M  CHG  1  20   1
M  END
>  <UniqueID>  (42) 
36

>  <SMILES>  (42) 
COc1ccccc1N1CCN(S(=O)(=O)c2c(C(=O)[NH+]3CCCC3)c(C)n(C)c2C)CC1

>  <Energy>  (42) 
120.19032347300481

>  <Genealogy>  (42) 
COc1ccccc1N1CCN(S(=O)(=O)c2c(C(=O)[NH+]3CCCC3)c(C)n(C)c2C)CC1 (protonated)
COc1ccccc1N1CCN(S(=O)(=O)c2c(C(=O)[NH+]3CCCC3)c(C)n(C)c2C)CC1 (3D coordinates assigned)
COc1ccccc1N1CCN(S(=O)(=O)c2c(C(=O)[NH+]3CCCC3)c(C)n(C)c2C)CC1 (nonaromatic ring conformer: 120.19032347300481 kcal/mol)

>  <smiles>  (42) 
COc1ccccc1N1CCN(S(=O)(=O)c2c(C(=O)N3CCCC3)c(C)n(C)c2C)CC1

>  <score_type>  (42) 
oracle

>  <origin>  (42) 
adg

>  <m_score__min__energy>  (42) 
-7.1200000000000001

>  <m_primary>  (42) 
energy

$$$$
42:0
     RDKit          3D

 27 28  0  0  0  0  0  0  0  0999 V2000
   55.1080   30.4810   44.4920 O   0  0  0  0  0  0  0  0  0  0  0  0
   56.1610   29.7930   44.5680 C   0  0  0  0  0  0  0  0  0  0  0  0
   57.4300   30.3100   43.9710 C   0  0  0  0  0  0  0  0  0  0  0  0
   57.6640   31.7150   44.4240 C   0  0  0  0  0  0  0  0  0  0  0  0
   58.1750   32.7380   43.6510 C   0  0  0  0  0  0  0  0  0  0  0  0
   58.2450   33.8320   44.4860 C   0  0  0  0  0  0  0  0  0  0  0  0
   57.7790   33.4080   45.7140 C   0  0  0  0  0  0  0  0  0  0  0  0
   57.4420   32.1390   45.6460 O   0  0  0  0  0  0  0  0  0  0  0  0
   56.1590   28.5110   45.2100 N   0  0  0  0  0  0  0  0  0  0  0  0
   57.2460   27.9160   45.9380 C   0  0  0  0  0  0  0  0  0  0  0  0
   58.4780   28.5890   46.0530 C   0  0  0  0  0  0  0  0  0  0  0  0
   59.5470   28.0040   46.7310 C   0  0  0  0  0  0  0  0  0  0  0  0
   59.4080   26.7370   47.2920 C   0  0  0  0  0  0  0  0  0  0  0  0
   58.2040   26.0440   47.1660 C   0  0  0  0  0  0  0  0  0  0  0  0
   57.1110   26.6130   46.4850 C   0  0  0  0  0  0  0  0  0  0  0  0
   55.8500   25.8290   46.3770 C   0  0  0  0  0  0  0  0  0  0  0  0
   54.7810   26.3620   45.9780 O   0  0  0  0  0  0  0  0  0  0  0  0
   55.8310   24.4830   46.7230 O   0  0  0  0  0  0  0  0  0  0  0  0
   58.2701   29.6772   44.2932 H   0  0  0  0  0  0  0  0  0  0  0  0
   57.3515   30.2892   42.8740 H   0  0  0  0  0  0  0  0  0  0  0  0
   58.4654   32.6901   42.5911 H   0  0  0  0  0  0  0  0  0  0  0  0
   58.6006   34.8400   44.2262 H   0  0  0  0  0  0  0  0  0  0  0  0
   57.7013   34.0366   46.6134 H   0  0  0  0  0  0  0  0  0  0  0  0
   58.5981   29.5858   45.6036 H   0  0  0  0  0  0  0  0  0  0  0  0
   60.5010   28.5439   46.8228 H   0  0  0  0  0  0  0  0  0  0  0  0
   60.2492   26.2819   47.8355 H   0  0  0  0  0  0  0  0  0  0  0  0
   58.1072   25.0398   47.6044 H   0  0  0  0  0  0  0  0  0  0  0  0
  1  2  2  0
  2  3  1  0
  3  4  1  0
  4  5  2  0
  5  6  1  0
  6  7  2  0
  7  8  1  0
  2  9  1  0
  9 10  1  0
 10 11  2  0
 11 12  1  0
 12 13  2  0
 13 14  1  0
 14 15  2  0
 15 16  1  0
 16 17  2  0
 16 18  1  0
  8  4  1  0
 15 10  1  0
  3 19  1  0
  3 20  1  0
  5 21  1  0
  6 22  1  0
  7 23  1  0
 11 24  1  0
 12 25  1  0
 13 26  1  0
 14 27  1  0
M  CHG  2   9  -1  18  -1
M  END
>  <UniqueID>  (43) 
37

>  <SMILES>  (43) 
O=C(Cc1ccco1)[N-]c1ccccc1C(=O)[O-]

>  <Energy>  (43) 
57.22862369656071

>  <Genealogy>  (43) 
O=C(Cc1ccco1)[N-]c1ccccc1C(=O)[O-] (protonated)
O=C(Cc1ccco1)[N-]c1ccccc1C(=O)[O-] (3D coordinates assigned)
O=C(Cc1ccco1)[N-]c1ccccc1C(=O)[O-] (optimized conformer: 57.22862369656071 kcal/mol)

>  <smiles>  (43) 
O=C(Cc1ccco1)Nc1ccccc1C(=O)O

>  <score_type>  (43) 
oracle

>  <origin>  (43) 
adg

>  <m_score__min__energy>  (43) 
-12.08

>  <m_primary>  (43) 
energy

$$$$
43:0
     RDKit          3D

 43 46  0  0  0  0  0  0  0  0999 V2000
   59.2100   35.3390   44.8650 C   0  0  0  0  0  0  0  0  0  0  0  0
   58.7680   33.9230   45.0930 C   0  0  0  0  0  0  0  0  0  0  0  0
   58.5110   33.0780   44.0020 C   0  0  0  0  0  0  0  0  0  0  0  0
   58.1330   31.7500   44.2130 C   0  0  0  0  0  0  0  0  0  0  0  0
   58.0200   31.2430   45.5180 C   0  0  0  0  0  0  0  0  0  0  0  0
   57.6320   29.8710   45.7350 N   0  0  0  0  0  0  0  0  0  0  0  0
   56.4730   29.3920   45.1820 C   0  0  0  0  0  0  0  0  0  0  0  0
   55.7310   30.1420   44.4910 O   0  0  0  0  0  0  0  0  0  0  0  0
   56.0990   28.1030   45.3800 N   0  0  0  0  0  0  0  0  0  0  0  0
   56.8480   27.2550   46.1260 C   0  0  0  0  0  0  0  0  0  0  0  0
   56.4300   25.9320   46.3110 C   0  0  0  0  0  0  0  0  0  0  0  0
   57.1990   25.0410   47.0820 C   0  0  0  0  0  0  0  0  0  0  0  0
   56.7580   23.6410   47.2800 C   0  0  0  0  0  0  0  0  0  0  0  0
   57.2220   22.9630   48.2380 O   0  0  0  0  0  0  0  0  0  0  0  0
   55.8450   23.0350   46.3550 N   0  0  0  0  0  0  0  0  0  0  0  0
   56.1320   22.7000   44.9910 C   0  0  0  0  0  0  0  0  0  0  0  0
   55.3830   23.3130   43.9780 C   0  0  0  0  0  0  0  0  0  0  0  0
   55.6230   23.0050   42.6350 C   0  0  0  0  0  0  0  0  0  0  0  0
   56.6000   22.0660   42.2970 C   0  0  0  0  0  0  0  0  0  0  0  0
   57.3290   21.4250   43.3010 C   0  0  0  0  0  0  0  0  0  0  0  0
   57.0960   21.7300   44.6470 C   0  0  0  0  0  0  0  0  0  0  0  0
   57.7640   21.0360   45.6010 F   0  0  0  0  0  0  0  0  0  0  0  0
   58.3940   25.5020   47.6660 C   0  0  0  0  0  0  0  0  0  0  0  0
   58.8130   26.8230   47.4830 C   0  0  0  0  0  0  0  0  0  0  0  0
   58.0420   27.7100   46.7120 C   0  0  0  0  0  0  0  0  0  0  0  0
   58.4220   29.0460   46.4960 C   0  0  0  0  0  0  0  0  0  0  0  0
   59.4990   29.4810   46.9950 O   0  0  0  0  0  0  0  0  0  0  0  0
   58.2950   32.0850   46.6080 C   0  0  0  0  0  0  0  0  0  0  0  0
   58.6720   33.4130   46.3970 C   0  0  0  0  0  0  0  0  0  0  0  0
   59.3649   35.8353   45.8344 H   0  0  0  0  0  0  0  0  0  0  0  0
   60.1519   35.3421   44.2968 H   0  0  0  0  0  0  0  0  0  0  0  0
   58.4372   35.8774   44.2968 H   0  0  0  0  0  0  0  0  0  0  0  0
   58.6077   33.4634   42.9763 H   0  0  0  0  0  0  0  0  0  0  0  0
   57.9227   31.0977   43.3526 H   0  0  0  0  0  0  0  0  0  0  0  0
   55.4930   25.5862   45.8500 H   0  0  0  0  0  0  0  0  0  0  0  0
   54.6013   24.0410   44.2406 H   0  0  0  0  0  0  0  0  0  0  0  0
   55.0420   23.5026   41.8446 H   0  0  0  0  0  0  0  0  0  0  0  0
   56.7953   21.8314   41.2402 H   0  0  0  0  0  0  0  0  0  0  0  0
   58.0897   20.6771   43.0328 H   0  0  0  0  0  0  0  0  0  0  0  0
   59.0040   24.8161   48.2722 H   0  0  0  0  0  0  0  0  0  0  0  0
   59.7496   27.1696   47.9441 H   0  0  0  0  0  0  0  0  0  0  0  0
   58.2129   31.6962   47.6337 H   0  0  0  0  0  0  0  0  0  0  0  0
   58.8947   34.0622   47.2566 H   0  0  0  0  0  0  0  0  0  0  0  0
  1  2  1  0
  2  3  2  0
  3  4  1  0
  4  5  2  0
  5  6  1  0
  6  7  1  0
  7  8  2  0
  7  9  1  0
  9 10  1  0
 10 11  2  0
 11 12  1  0
 12 13  1  0
 13 14  2  0
 13 15  1  0
 15 16  1  0
 16 17  2  0
 17 18  1  0
 18 19  2  0
 19 20  1  0
 20 21  2  0
 21 22  1  0
 12 23  2  0
 23 24  1  0
 24 25  2  0
 25 26  1  0
 26 27  2  0
  5 28  1  0
 28 29  2  0
 29  2  1  0
 26  6  1  0
 25 10  1  0
 21 16  1  0
  1 30  1  0
  1 31  1  0
  1 32  1  0
  3 33  1  0
  4 34  1  0
 11 35  1  0
 17 36  1  0
 18 37  1  0
 19 38  1  0
 20 39  1  0
 23 40  1  0
 24 41  1  0
 28 42  1  0
 29 43  1  0
M  CHG  2   9  -1  15  -1
M  END
>  <UniqueID>  (44) 
38

>  <SMILES>  (44) 
Cc1ccc(-n2c(=O)[n-]c3cc(C(=O)[N-]c4ccccc4F)ccc3c2=O)cc1

>  <Energy>  (44) 
67.92534139830661

>  <Genealogy>  (44) 
Cc1ccc(-n2c(=O)[n-]c3cc(C(=O)[N-]c4ccccc4F)ccc3c2=O)cc1 (protonated)
Cc1ccc(-n2c(=O)[n-]c3cc(C(=O)[N-]c4ccccc4F)ccc3c2=O)cc1 (3D coordinates assigned)
Cc1ccc(-n2c(=O)[n-]c3cc(C(=O)[N-]c4ccccc4F)ccc3c2=O)cc1 (optimized conformer: 67.92534139830661 kcal/mol)

>  <smiles>  (44) 
Cc1ccc(-n2c(=O)[nH]c3cc(C(=O)Nc4ccccc4F)ccc3c2=O)cc1

>  <score_type>  (44) 
oracle

>  <origin>  (44) 
adg

>  <m_score__min__energy>  (44) 
-11.24

>  <m_primary>  (44) 
energy

$$$$
44:0
     RDKit          3D

 46 49  0  0  0  0  0  0  0  0999 V2000
   59.8078   30.5060   52.5171 H   0  0  0  0  0  0  0  0  0  0  0  0
   58.8990   30.6260   51.9090 C   0  0  0  0  0  0  0  0  0  0  0  0
   57.7650   30.0660   52.3560 C   0  0  0  0  0  0  0  0  0  0  0  0
   56.1080   30.5090   51.7990 S   0  0  0  0  0  0  0  0  0  0  0  0
   55.4450   29.4630   53.1060 C   0  0  0  0  0  0  0  0  0  0  0  0
   54.1600   29.3120   53.2680 N   0  0  0  0  0  0  0  0  0  0  0  0
   53.8160   28.4200   53.6910 H   0  0  0  0  0  0  0  0  0  0  0  0
   53.1770   30.3060   52.9400 C   0  0  0  0  0  0  0  0  0  0  0  0
   53.0340   30.7780   51.6230 C   0  0  0  0  0  0  0  0  0  0  0  0
   53.7071   30.4121   50.8337 H   0  0  0  0  0  0  0  0  0  0  0  0
   52.0390   31.7110   51.3130 C   0  0  0  0  0  0  0  0  0  0  0  0
   51.9435   32.0917   50.2854 H   0  0  0  0  0  0  0  0  0  0  0  0
   51.1660   32.1600   52.3080 C   0  0  0  0  0  0  0  0  0  0  0  0
   50.1790   33.0880   51.9990 O   0  0  0  0  0  0  0  0  0  0  0  0
   51.2840   31.6730   53.6140 C   0  0  0  0  0  0  0  0  0  0  0  0
   50.5946   32.0235   54.3963 H   0  0  0  0  0  0  0  0  0  0  0  0
   52.2790   30.7400   53.9250 C   0  0  0  0  0  0  0  0  0  0  0  0
   52.3571   30.3446   54.9485 H   0  0  0  0  0  0  0  0  0  0  0  0
   56.4220   28.7650   53.8800 N   0  0  0  0  0  0  0  0  0  0  0  0
   56.2270   28.0280   54.5920 H   0  0  0  0  0  0  0  0  0  0  0  0
   57.7280   29.1110   53.4620 C   0  0  0  0  0  0  0  0  0  0  0  0
   58.7550   28.6250   54.0050 O   0  0  0  0  0  0  0  0  0  0  0  0
   59.0040   31.3940   50.6510 C   0  0  0  0  0  0  0  0  0  0  0  0
   58.8130   30.7340   49.4290 C   0  0  0  0  0  0  0  0  0  0  0  0
   58.6122   29.6525   49.4177 H   0  0  0  0  0  0  0  0  0  0  0  0
   58.8760   31.4410   48.2250 C   0  0  0  0  0  0  0  0  0  0  0  0
   58.7372   30.9096   47.2719 H   0  0  0  0  0  0  0  0  0  0  0  0
   59.1150   32.8240   48.2230 C   0  0  0  0  0  0  0  0  0  0  0  0
   59.1740   33.5480   46.9790 N   0  0  0  0  0  0  0  0  0  0  0  0
   60.1790   34.5960   46.7760 C   0  0  0  0  0  0  0  0  0  0  0  0
   60.3885   35.0928   47.7348 H   0  0  0  0  0  0  0  0  0  0  0  0
   61.1029   34.1449   46.3850 H   0  0  0  0  0  0  0  0  0  0  0  0
   59.6520   35.6270   45.7720 C   0  0  0  0  0  0  0  0  0  0  0  0
   58.8083   36.1703   46.2226 H   0  0  0  0  0  0  0  0  0  0  0  0
   60.4663   36.3229   45.5216 H   0  0  0  0  0  0  0  0  0  0  0  0
   59.2150   34.9950   44.5840 O   0  0  0  0  0  0  0  0  0  0  0  0
   58.1010   34.1670   44.8640 C   0  0  0  0  0  0  0  0  0  0  0  0
   57.3189   34.7673   45.3518 H   0  0  0  0  0  0  0  0  0  0  0  0
   57.7271   33.7470   43.9186 H   0  0  0  0  0  0  0  0  0  0  0  0
   58.5000   33.0140   45.7900 C   0  0  0  0  0  0  0  0  0  0  0  0
   57.5991   32.4623   46.0967 H   0  0  0  0  0  0  0  0  0  0  0  0
   59.1829   32.3366   45.2564 H   0  0  0  0  0  0  0  0  0  0  0  0
   59.2700   33.4920   49.4500 C   0  0  0  0  0  0  0  0  0  0  0  0
   59.4411   34.5785   49.4630 H   0  0  0  0  0  0  0  0  0  0  0  0
   59.2080   32.7840   50.6540 C   0  0  0  0  0  0  0  0  0  0  0  0
   59.3196   33.3183   51.6090 H   0  0  0  0  0  0  0  0  0  0  0  0
  1  2  1  0
  2  3  2  0
  3  4  1  0
  4  5  1  0
  5  6  2  3
  6  7  1  0
  6  8  1  0
  8  9  2  0
  9 10  1  0
  9 11  1  0
 11 12  1  0
 11 13  2  0
 13 14  1  0
 13 15  1  0
 15 16  1  0
 15 17  2  0
 17 18  1  0
  5 19  1  0
 19 20  1  0
 19 21  1  0
 21 22  2  0
  2 23  1  0
 23 24  2  0
 24 25  1  0
 24 26  1  0
 26 27  1  0
 26 28  2  0
 28 29  1  0
 29 30  1  0
 30 31  1  0
 30 32  1  0
 30 33  1  0
 33 34  1  0
 33 35  1  0
 33 36  1  0
 36 37  1  0
 37 38  1  0
 37 39  1  0
 37 40  1  0
 40 41  1  0
 40 42  1  0
 28 43  1  0
 43 44  1  0
 43 45  2  0
 45 46  1  0
 21  3  1  0
 45 23  1  0
 17  8  1  0
 40 29  1  0
M  CHG  2   6   1  14  -1
M  END
>  <UniqueID>  (45) 
39

>  <SMILES>  (45) 
O=C1NC(=[NH+]c2ccc([O-])cc2)S/C1=C\c1ccc(N2CCOCC2)cc1

>  <Energy>  (45) 
85.64194054861933

>  <Genealogy>  (45) 
O=C1NC(=[NH+]c2ccc([O-])cc2)SC1=Cc1ccc(N2CCOCC2)cc1 (protonated)
O=C1NC(=[NH+]c2ccc([O-])cc2)S/C1=C\c1ccc(N2CCOCC2)cc1 (cis-trans isomerization)
O=C1NC(=[NH+]c2ccc([O-])cc2)S/C1=C\c1ccc(N2CCOCC2)cc1 (3D coordinates assigned)
O=C1NC(=[NH+]c2ccc([O-])cc2)S/C1=C\c1ccc(N2CCOCC2)cc1 (nonaromatic ring conformer: 85.64194054861933 kcal/mol)

>  <smiles>  (45) 
O=C1NC(=Nc2ccc(O)cc2)SC1=Cc1ccc(N2CCOCC2)cc1

>  <score_type>  (45) 
oracle

>  <origin>  (45) 
adg

>  <m_score__min__energy>  (45) 
-10.98

>  <m_primary>  (45) 
energy

$$$$
45:0
     RDKit          3D

 41 44  0  0  0  0  0  0  0  0999 V2000
   59.2760   35.7430   44.8730 C   0  0  0  0  0  0  0  0  0  0  0  0
   59.6350   34.4610   45.5480 C   0  0  0  0  0  0  0  0  0  0  0  0
   60.6510   34.3090   46.3650 O   0  0  0  0  0  0  0  0  0  0  0  0
   60.6330   33.0580   46.7750 C   0  0  0  0  0  0  0  0  0  0  0  0
   61.6160   32.4990   47.7140 C   0  0  0  0  0  0  0  0  0  0  0  0
   61.3760   31.5390   48.6900 C   0  0  0  0  0  0  0  0  0  0  0  0
   62.5180   31.2100   49.4310 C   0  0  0  0  0  0  0  0  0  0  0  0
   63.6550   31.9060   49.0420 C   0  0  0  0  0  0  0  0  0  0  0  0
   63.2380   32.9320   47.7770 S   0  0  0  0  0  0  0  0  0  0  0  0
   59.6090   32.3630   46.2380 N   0  0  0  0  0  0  0  0  0  0  0  0
   58.9780   33.2500   45.4470 C   0  0  0  0  0  0  0  0  0  0  0  0
   57.7150   32.9620   44.6950 C   0  0  0  0  0  0  0  0  0  0  0  0
   57.4380   31.4950   44.7150 C   0  0  0  0  0  0  0  0  0  0  0  0
   58.3990   30.5460   44.6830 N   0  0  0  0  0  0  0  0  0  0  0  0
   57.7550   29.3930   44.7510 N   0  0  0  0  0  0  0  0  0  0  0  0
   58.4180   28.0820   44.7390 C   0  0  0  0  0  0  0  0  0  0  0  0
   57.9810   27.2380   43.5370 C   0  0  0  0  0  0  0  0  0  0  0  0
   57.7780   25.8310   44.0720 C   0  0  0  0  0  0  0  0  0  0  0  0
   57.3890   26.0050   45.5290 C   0  0  0  0  0  0  0  0  0  0  0  0
   58.1000   27.2670   46.0000 C   0  0  0  0  0  0  0  0  0  0  0  0
   56.4400   29.6780   44.8220 C   0  0  0  0  0  0  0  0  0  0  0  0
   55.5220   28.8190   44.8990 O   0  0  0  0  0  0  0  0  0  0  0  0
   56.2340   30.9700   44.8040 O   0  0  0  0  0  0  0  0  0  0  0  0
   59.0614   36.5095   45.6322 H   0  0  0  0  0  0  0  0  0  0  0  0
   60.1159   36.0743   44.2447 H   0  0  0  0  0  0  0  0  0  0  0  0
   58.3862   35.5899   44.2447 H   0  0  0  0  0  0  0  0  0  0  0  0
   60.3896   31.0840   48.8628 H   0  0  0  0  0  0  0  0  0  0  0  0
   62.5146   30.4698   50.2447 H   0  0  0  0  0  0  0  0  0  0  0  0
   64.6565   31.8036   49.4854 H   0  0  0  0  0  0  0  0  0  0  0  0
   59.3470   31.3660   46.4040 H   0  0  0  0  0  0  0  0  0  0  0  0
   56.8785   33.4981   45.1671 H   0  0  0  0  0  0  0  0  0  0  0  0
   57.8283   33.2961   43.6531 H   0  0  0  0  0  0  0  0  0  0  0  0
   59.4953   28.2983   44.6872 H   0  0  0  0  0  0  0  0  0  0  0  0
   57.0420   27.6273   43.1166 H   0  0  0  0  0  0  0  0  0  0  0  0
   58.7302   27.2611   42.7319 H   0  0  0  0  0  0  0  0  0  0  0  0
   56.9763   25.3207   43.5181 H   0  0  0  0  0  0  0  0  0  0  0  0
   58.6840   25.2170   43.9614 H   0  0  0  0  0  0  0  0  0  0  0  0
   56.2992   26.1213   45.6233 H   0  0  0  0  0  0  0  0  0  0  0  0
   57.6746   25.1303   46.1317 H   0  0  0  0  0  0  0  0  0  0  0  0
   57.4465   27.8438   46.6709 H   0  0  0  0  0  0  0  0  0  0  0  0
   59.0157   27.0236   46.5588 H   0  0  0  0  0  0  0  0  0  0  0  0
  1  2  1  0
  2  3  1  0
  3  4  1  0
  4  5  1  0
  5  6  2  0
  6  7  1  0
  7  8  2  0
  8  9  1  0
  4 10  2  0
 10 11  1  0
 11 12  1  0
 12 13  1  0
 13 14  2  0
 14 15  1  0
 15 16  1  0
 16 17  1  0
 17 18  1  0
 18 19  1  0
 19 20  1  0
 15 21  1  0
 21 22  2  0
 21 23  1  0
 11  2  2  0
 23 13  1  0
  9  5  1  0
 20 16  1  0
  1 24  1  0
  1 25  1  0
  1 26  1  0
  6 27  1  0
  7 28  1  0
  8 29  1  0
 10 30  1  0
 12 31  1  0
 12 32  1  0
 16 33  1  0
 17 34  1  0
 17 35  1  0
 18 36  1  0
 18 37  1  0
 19 38  1  0
 19 39  1  0
 20 40  1  0
 20 41  1  0
M  CHG  1  10   1
M  END
>  <UniqueID>  (46) 
40

>  <SMILES>  (46) 
Cc1oc(-c2cccs2)[nH+]c1Cc1nn(C2CCCC2)c(=O)o1

>  <Energy>  (46) 
134.20465189638293

>  <Genealogy>  (46) 
Cc1oc(-c2cccs2)[nH+]c1Cc1nn(C2CCCC2)c(=O)o1 (protonated)
Cc1oc(-c2cccs2)[nH+]c1Cc1nn(C2CCCC2)c(=O)o1 (3D coordinates assigned)
Cc1oc(-c2cccs2)[nH+]c1Cc1nn(C2CCCC2)c(=O)o1 (nonaromatic ring conformer: 134.20465189638293 kcal/mol)

>  <smiles>  (46) 
Cc1oc(-c2cccs2)nc1Cc1nn(C2CCCC2)c(=O)o1

>  <score_type>  (46) 
oracle

>  <origin>  (46) 
adg

>  <m_score__min__energy>  (46) 
-6.5899999999999999

>  <m_primary>  (46) 
energy

$$$$
46:0
     RDKit          3D

 39 41  0  0  0  0  0  0  0  0999 V2000
   59.8560   29.0240   44.4930 C   0  0  0  0  0  0  0  0  0  0  0  0
   59.3330   28.0780   45.5360 C   0  0  0  0  0  0  0  0  0  0  0  0
   60.2010   27.5700   46.5180 C   0  0  0  0  0  0  0  0  0  0  0  0
   59.7270   26.6930   47.4950 C   0  0  0  0  0  0  0  0  0  0  0  0
   58.3830   26.3210   47.5080 C   0  0  0  0  0  0  0  0  0  0  0  0
   57.5100   26.8170   46.5380 C   0  0  0  0  0  0  0  0  0  0  0  0
   57.9780   27.6820   45.5300 C   0  0  0  0  0  0  0  0  0  0  0  0
   57.0840   28.2220   44.5400 N   0  0  0  0  0  0  0  0  0  0  0  0
   56.4520   29.5060   44.5880 C   0  0  0  0  0  0  0  0  0  0  0  0
   55.3720   29.6530   45.2210 O   0  0  0  0  0  0  0  0  0  0  0  0
   57.0360   30.6710   43.8940 C   0  0  0  0  0  0  0  0  0  0  0  0
   56.9680   30.8760   42.2240 S   0  0  0  0  0  0  0  0  0  0  0  0
   57.7680   32.3480   42.1590 C   0  0  0  0  0  0  0  0  0  0  0  0
   58.1100   32.7080   43.4540 C   0  0  0  0  0  0  0  0  0  0  0  0
   57.7070   31.7810   44.4300 C   0  0  0  0  0  0  0  0  0  0  0  0
   58.1330   31.9990   46.1280 S   0  0  0  0  0  0  0  0  0  0  0  0
   58.0920   30.6720   46.8310 O   0  0  0  0  0  0  0  0  0  0  0  0
   57.1480   32.9210   46.7930 O   0  0  0  0  0  0  0  0  0  0  0  0
   59.7170   32.6890   46.2600 N   0  0  0  0  0  0  0  0  0  0  0  0
   60.0950   33.3610   47.3030 C   0  0  0  0  0  0  0  0  0  0  0  0
   59.3500   34.2350   47.9420 O   0  0  0  0  0  0  0  0  0  0  0  0
   60.0170   34.7420   48.9370 N   0  0  0  0  0  0  0  0  0  0  0  0
   61.2400   34.1740   48.9550 C   0  0  0  0  0  0  0  0  0  0  0  0
   62.3240   34.5240   49.9220 C   0  0  0  0  0  0  0  0  0  0  0  0
   61.3300   33.2790   47.9070 C   0  0  0  0  0  0  0  0  0  0  0  0
   62.6950   32.2720   47.4590 Cl  0  0  0  0  0  0  0  0  0  0  0  0
   60.3321   29.8851   44.9847 H   0  0  0  0  0  0  0  0  0  0  0  0
   60.5955   28.5053   43.8652 H   0  0  0  0  0  0  0  0  0  0  0  0
   59.0234   29.3744   43.8652 H   0  0  0  0  0  0  0  0  0  0  0  0
   61.2606   27.8655   46.5165 H   0  0  0  0  0  0  0  0  0  0  0  0
   60.4145   26.2947   48.2557 H   0  0  0  0  0  0  0  0  0  0  0  0
   58.0102   25.6358   48.2836 H   0  0  0  0  0  0  0  0  0  0  0  0
   56.4484   26.5299   46.5612 H   0  0  0  0  0  0  0  0  0  0  0  0
   57.9838   32.9268   41.2488 H   0  0  0  0  0  0  0  0  0  0  0  0
   58.6486   33.6362   43.6954 H   0  0  0  0  0  0  0  0  0  0  0  0
   59.6510   35.4680   49.5930 H   0  0  0  0  0  0  0  0  0  0  0  0
   61.9513   34.4037   50.9499 H   0  0  0  0  0  0  0  0  0  0  0  0
   63.1853   33.8583   49.7640 H   0  0  0  0  0  0  0  0  0  0  0  0
   62.6334   35.5677   49.7640 H   0  0  0  0  0  0  0  0  0  0  0  0
  1  2  1  0
  2  3  2  0
  3  4  1  0
  4  5  2  0
  5  6  1  0
  6  7  2  0
  7  8  1  0
  8  9  1  0
  9 10  2  0
  9 11  1  0
 11 12  1  0
 12 13  1  0
 13 14  2  0
 14 15  1  0
 15 16  1  0
 16 17  2  0
 16 18  2  0
 16 19  1  0
 19 20  2  3
 20 21  1  0
 21 22  1  0
 22 23  1  0
 23 24  1  0
 23 25  2  0
 25 26  1  0
  7  2  1  0
 15 11  2  0
 25 20  1  0
  1 27  1  0
  1 28  1  0
  1 29  1  0
  3 30  1  0
  4 31  1  0
  5 32  1  0
  6 33  1  0
 13 34  1  0
 14 35  1  0
 22 36  1  0
 24 37  1  0
 24 38  1  0
 24 39  1  0
M  CHG  1   8  -1
M  END
>  <UniqueID>  (47) 
41

>  <SMILES>  (47) 
Cc1ccccc1[N-]C(=O)c1sccc1S(=O)(=O)N=c1o[nH]c(C)c1Cl

>  <Energy>  (47) 
104.68327627193325

>  <Genealogy>  (47) 
Cc1ccccc1[N-]C(=O)c1sccc1S(=O)(=O)N=c1o[nH]c(C)c1Cl (protonated)
Cc1ccccc1[N-]C(=O)c1sccc1S(=O)(=O)N=c1o[nH]c(C)c1Cl (3D coordinates assigned)
Cc1ccccc1[N-]C(=O)c1sccc1S(=O)(=O)N=c1o[nH]c(C)c1Cl (optimized conformer: 104.68327627193325 kcal/mol)

>  <smiles>  (47) 
Cc1ccccc1NC(=O)c1sccc1S(=O)(=O)N=c1o[nH]c(C)c1Cl

>  <score_type>  (47) 
oracle

>  <origin>  (47) 
adg

>  <m_score__min__energy>  (47) 
-10.789999999999999

>  <m_primary>  (47) 
energy

$$$$
47:0
     RDKit          3D

 41 43  0  0  0  0  0  0  0  0999 V2000
   55.1500   27.5270   45.5920 H   0  0  0  0  0  0  0  0  0  0  0  0
   54.8200   26.7060   46.0840 O   0  0  0  0  0  0  0  0  0  0  0  0
   55.1870   25.4280   45.6720 C   0  0  0  0  0  0  0  0  0  0  0  0
   54.2940   24.4090   45.8090 N   0  0  0  0  0  0  0  0  0  0  0  0
   54.5820   23.1380   45.4280 C   0  0  0  0  0  0  0  0  0  0  0  0
   53.7220   22.2300   45.5750 O   0  0  0  0  0  0  0  0  0  0  0  0
   55.8280   22.8420   44.8780 C   0  0  0  0  0  0  0  0  0  0  0  0
   56.0687   21.8139   44.5698 H   0  0  0  0  0  0  0  0  0  0  0  0
   56.7670   23.8620   44.7220 C   0  0  0  0  0  0  0  0  0  0  0  0
   57.7515   23.6352   44.2868 H   0  0  0  0  0  0  0  0  0  0  0  0
   56.4650   25.1790   45.1170 C   0  0  0  0  0  0  0  0  0  0  0  0
   57.4760   26.2560   44.9430 C   0  0  0  0  0  0  0  0  0  0  0  0
   58.4310   26.1010   44.1370 O   0  0  0  0  0  0  0  0  0  0  0  0
   57.3500   27.4750   45.6990 N   0  0  0  0  0  0  0  0  0  0  0  0
   57.2120   28.6850   45.2420 C   0  0  0  0  0  0  0  0  0  0  0  0
   55.9970   29.2210   44.9950 N   0  0  0  0  0  0  0  0  0  0  0  0
   56.0560   30.4700   44.5350 N   0  0  0  0  0  0  0  0  0  0  0  0
   57.3180   30.9320   44.4100 C   0  0  0  0  0  0  0  0  0  0  0  0
   57.7210   32.5820   43.8410 S   0  0  0  0  0  0  0  0  0  0  0  0
   57.4040   33.3960   45.4450 C   0  0  0  0  0  0  0  0  0  0  0  0
   57.3683   32.6313   46.2349 H   0  0  0  0  0  0  0  0  0  0  0  0
   56.4453   33.9316   45.3810 H   0  0  0  0  0  0  0  0  0  0  0  0
   58.4840   34.3890   45.7720 C   0  0  0  0  0  0  0  0  0  0  0  0
   58.9560   35.1040   44.8490 O   0  0  0  0  0  0  0  0  0  0  0  0
   59.0690   34.4790   47.0790 N   0  0  0  0  0  0  0  0  0  0  0  0
   60.4220   34.1660   47.4330 C   0  0  0  0  0  0  0  0  0  0  0  0
   61.3590   33.8960   46.4200 C   0  0  0  0  0  0  0  0  0  0  0  0
   61.0530   33.9600   45.3653 H   0  0  0  0  0  0  0  0  0  0  0  0
   62.6720   33.5480   46.7370 C   0  0  0  0  0  0  0  0  0  0  0  0
   63.3992   33.3550   45.9346 H   0  0  0  0  0  0  0  0  0  0  0  0
   63.0620   33.4450   48.0710 C   0  0  0  0  0  0  0  0  0  0  0  0
   64.0991   33.1774   48.3216 H   0  0  0  0  0  0  0  0  0  0  0  0
   62.1380   33.6810   49.0880 C   0  0  0  0  0  0  0  0  0  0  0  0
   62.4527   33.5864   50.1378 H   0  0  0  0  0  0  0  0  0  0  0  0
   60.8140   34.0370   48.7940 C   0  0  0  0  0  0  0  0  0  0  0  0
   59.9630   34.2540   49.8930 O   0  0  0  0  0  0  0  0  0  0  0  0
   59.3740   33.2590   50.7230 C   0  0  0  0  0  0  0  0  0  0  0  0
   59.5303   33.5231   51.7793 H   0  0  0  0  0  0  0  0  0  0  0  0
   58.2953   33.2000   50.5156 H   0  0  0  0  0  0  0  0  0  0  0  0
   59.8411   32.2849   50.5156 H   0  0  0  0  0  0  0  0  0  0  0  0
   58.4500   29.7830   44.8890 S   0  0  0  0  0  0  0  0  0  0  0  0
  1  2  1  0
  2  3  1  0
  3  4  1  0
  4  5  1  0
  5  6  2  0
  5  7  1  0
  7  8  1  0
  7  9  2  0
  9 10  1  0
  9 11  1  0
 11 12  1  0
 12 13  2  0
 12 14  1  0
 14 15  2  0
 15 16  1  0
 16 17  1  0
 17 18  2  0
 18 19  1  0
 19 20  1  0
 20 21  1  0
 20 22  1  0
 20 23  1  0
 23 24  2  0
 23 25  1  0
 25 26  1  0
 26 27  2  0
 27 28  1  0
 27 29  1  0
 29 30  1  0
 29 31  2  0
 31 32  1  0
 31 33  1  0
 33 34  1  0
 33 35  2  0
 35 36  1  0
 36 37  1  0
 37 38  1  0
 37 39  1  0
 37 40  1  0
 18 41  1  0
 11  3  2  0
 41 15  1  0
 35 26  1  0
M  CHG  3   4  -1  16  -1  25  -1
M  END
>  <UniqueID>  (48) 
42

>  <SMILES>  (48) 
COc1ccccc1[N-]C(=O)CSc1n[n-]/c(=N/C(=O)c2ccc(=O)[n-]c2O)s1

>  <Energy>  (48) 
88.76913412477147

>  <Genealogy>  (48) 
COc1ccccc1[N-]C(=O)CSc1n[n-]c(=NC(=O)c2ccc(=O)[n-]c2O)s1 (protonated)
COc1ccccc1[N-]C(=O)CSc1n[n-]/c(=N/C(=O)c2ccc(=O)[n-]c2O)s1 (cis-trans isomerization)
COc1ccccc1[N-]C(=O)CSc1n[n-]/c(=N/C(=O)c2ccc(=O)[n-]c2O)s1 (3D coordinates assigned)
COc1ccccc1[N-]C(=O)CSc1n[n-]/c(=N/C(=O)c2ccc(=O)[n-]c2O)s1 (optimized conformer: 88.76913412477147 kcal/mol)

>  <smiles>  (48) 
COc1ccccc1NC(=O)CSc1n[nH]c(=NC(=O)c2ccc(=O)[nH]c2O)s1

>  <score_type>  (48) 
oracle

>  <origin>  (48) 
adg

>  <m_score__min__energy>  (48) 
-14.26

>  <m_primary>  (48) 
energy

$$$$
48:0
     RDKit          3D

 42 46  0  0  0  0  0  0  0  0999 V2000
   57.7130   23.1630   48.7870 H   0  0  0  0  0  0  0  0  0  0  0  0
   57.2870   23.1860   47.8330 N   0  0  0  0  0  0  0  0  0  0  0  0
   57.0900   24.3040   47.2130 C   0  0  0  0  0  0  0  0  0  0  0  0
   55.8720   24.8790   47.1110 N   0  0  0  0  0  0  0  0  0  0  0  0
   56.1290   25.9880   46.3990 C   0  0  0  0  0  0  0  0  0  0  0  0
   55.1510   26.8840   45.9870 O   0  0  0  0  0  0  0  0  0  0  0  0
   57.4740   26.0680   46.1120 C   0  0  0  0  0  0  0  0  0  0  0  0
   58.1490   27.0730   45.2750 C   0  0  0  0  0  0  0  0  0  0  0  0
   59.0216   26.7506   44.6880 H   0  0  0  0  0  0  0  0  0  0  0  0
   57.7700   28.3560   45.1810 C   0  0  0  0  0  0  0  0  0  0  0  0
   56.8220   28.8610   44.3010 C   0  0  0  0  0  0  0  0  0  0  0  0
   56.2372   28.2645   43.5853 H   0  0  0  0  0  0  0  0  0  0  0  0
   56.7300   30.1990   44.4610 N   0  0  0  0  0  0  0  0  0  0  0  0
   56.1130   30.8040   43.8860 H   0  0  0  0  0  0  0  0  0  0  0  0
   57.5880   30.5730   45.4030 N   0  0  0  0  0  0  0  0  0  0  0  0
   57.9080   31.8160   45.8890 C   0  0  0  0  0  0  0  0  0  0  0  0
   57.3000   32.9200   45.5550 N   0  0  0  0  0  0  0  0  0  0  0  0
   57.8650   34.2200   45.2200 C   0  0  0  0  0  0  0  0  0  0  0  0
   56.9750   34.6555   44.7423 H   0  0  0  0  0  0  0  0  0  0  0  0
   58.8930   34.6680   46.2440 C   0  0  0  0  0  0  0  0  0  0  0  0
   58.9773   35.7322   46.5094 H   0  0  0  0  0  0  0  0  0  0  0  0
   59.1289   34.3904   47.2819 H   0  0  0  0  0  0  0  0  0  0  0  0
   59.3440   34.1890   44.8760 C   0  0  0  0  0  0  0  0  0  0  0  0
   59.7550   34.9061   44.1501 H   0  0  0  0  0  0  0  0  0  0  0  0
   60.0420   33.4206   44.5121 H   0  0  0  0  0  0  0  0  0  0  0  0
   58.9190   31.8990   46.7980 N   0  0  0  0  0  0  0  0  0  0  0  0
   59.5980   30.7890   47.2130 C   0  0  0  0  0  0  0  0  0  0  0  0
   60.6260   30.8810   48.1580 O   0  0  0  0  0  0  0  0  0  0  0  0
   61.7230   31.7520   48.0780 C   0  0  0  0  0  0  0  0  0  0  0  0
   61.8230   32.7450   47.0840 C   0  0  0  0  0  0  0  0  0  0  0  0
   61.0193   32.8614   46.3420 H   0  0  0  0  0  0  0  0  0  0  0  0
   62.9410   33.5830   47.0380 C   0  0  0  0  0  0  0  0  0  0  0  0
   63.0098   34.3645   46.2669 H   0  0  0  0  0  0  0  0  0  0  0  0
   63.9720   33.4300   47.9700 C   0  0  0  0  0  0  0  0  0  0  0  0
   64.8479   34.0946   47.9359 H   0  0  0  0  0  0  0  0  0  0  0  0
   63.8890   32.4330   48.9440 C   0  0  0  0  0  0  0  0  0  0  0  0
   64.7033   32.3077   49.6728 H   0  0  0  0  0  0  0  0  0  0  0  0
   62.7710   31.5930   48.9940 C   0  0  0  0  0  0  0  0  0  0  0  0
   62.7147   30.8029   49.7573 H   0  0  0  0  0  0  0  0  0  0  0  0
   59.2510   29.5660   46.7340 N   0  0  0  0  0  0  0  0  0  0  0  0
   58.2340   29.4800   45.8450 C   0  0  0  0  0  0  0  0  0  0  0  0
   58.0900   24.9810   46.6070 N   0  0  0  0  0  0  0  0  0  0  0  0
  1  2  1  0
  2  3  2  0
  3  4  1  0
  4  5  1  0
  5  6  1  0
  5  7  2  0
  7  8  1  0
  8  9  1  0
  8 10  2  3
 10 11  1  0
 11 12  1  0
 11 13  2  0
 13 14  1  0
 13 15  1  0
 15 16  1  0
 16 17  2  0
 17 18  1  0
 18 19  1  0
 18 20  1  0
 20 21  1  0
 20 22  1  0
 20 23  1  0
 23 24  1  0
 23 25  1  0
 16 26  1  0
 26 27  2  0
 27 28  1  0
 28 29  1  0
 29 30  2  0
 30 31  1  0
 30 32  1  0
 32 33  1  0
 32 34  2  0
 34 35  1  0
 34 36  1  0
 36 37  1  0
 36 38  2  0
 38 39  1  0
 27 40  1  0
 40 41  2  0
  7 42  1  0
 42  3  1  0
 41 10  1  0
 41 15  1  0
 23 18  1  0
 38 29  1  0
M  CHG  4   4  -1   6  -1  13   1  42  -1
M  END
>  <UniqueID>  (49) 
43

>  <SMILES>  (49) 
[H]/N=c1\[n-]c([O-])c(C=c2c[nH+]n3/c(=N\C4CC4)nc(Oc4ccccc4)nc23)[n-]1

>  <Energy>  (49) 
399.39943791678024

>  <Genealogy>  (49) 
N=c1[n-]c([O-])c(C=c2c[nH+]n3c(=NC4CC4)nc(Oc4ccccc4)nc23)[n-]1 (protonated)
[H]/N=c1\[n-]c([O-])c(C=c2c[nH+]n3/c(=N\C4CC4)nc(Oc4ccccc4)nc23)[n-]1 (cis-trans isomerization)
[H]/N=c1\[n-]c([O-])c(C=c2c[nH+]n3/c(=N\C4CC4)nc(Oc4ccccc4)nc23)[n-]1 (3D coordinates assigned)
[H]/N=c1\[n-]c([O-])c(C=c2c[nH+]n3/c(=N\C4CC4)nc(Oc4ccccc4)nc23)[n-]1 (nonaromatic ring conformer: 399.39943791678024 kcal/mol)

>  <smiles>  (49) 
N=c1[nH]c(O)c(C=c2cnn3c(=NC4CC4)nc(Oc4ccccc4)nc23)[nH]1

>  <score_type>  (49) 
oracle

>  <origin>  (49) 
adg

>  <m_score__min__energy>  (49) 
-13.94

>  <m_primary>  (49) 
energy

$$$$
49:0
     RDKit          3D

 73 77  0  0  0  0  0  0  0  0999 V2000
   58.8800   32.3870   46.9920 C   0  0  0  0  0  0  0  0  0  0  0  0
   58.7050   30.9070   46.8120 C   0  0  0  0  0  0  0  0  0  0  0  0
   58.3820   30.2570   45.6130 C   0  0  0  0  0  0  0  0  0  0  0  0
   58.1840   30.8590   44.2440 C   0  0  0  0  0  0  0  0  0  0  0  0
   56.7080   31.1600   43.9650 C   0  0  0  0  0  0  0  0  0  0  0  0
   55.9150   29.9050   43.7580 C   0  0  0  0  0  0  0  0  0  0  0  0
   55.8820   29.3550   42.6270 O   0  0  0  0  0  0  0  0  0  0  0  0
   55.1770   29.3690   44.8080 O   0  0  0  0  0  0  0  0  0  0  0  0
   58.4060   28.9060   45.9060 C   0  0  0  0  0  0  0  0  0  0  0  0
   58.2190   27.7930   45.0850 C   0  0  0  0  0  0  0  0  0  0  0  0
   58.3560   26.5120   45.6490 C   0  0  0  0  0  0  0  0  0  0  0  0
   58.1770   25.4040   44.8070 O   0  0  0  0  0  0  0  0  0  0  0  0
   58.4560   24.0450   45.1500 C   0  0  0  0  0  0  0  0  0  0  0  0
   57.8210   23.0580   44.1400 C   0  0  0  0  0  0  0  0  0  0  0  0
   56.7460   23.7400   43.2650 C   0  0  0  0  0  0  0  0  0  0  0  0
   55.4690   24.0260   44.0640 C   0  0  0  0  0  0  0  0  0  0  0  0
   55.0360   22.8530   44.8370 N   0  0  0  0  0  0  0  0  0  0  0  0
   53.8660   22.9620   45.6720 C   0  0  0  0  0  0  0  0  0  0  0  0
   53.4750   24.1000   46.0500 O   0  0  0  0  0  0  0  0  0  0  0  0
   53.1090   21.7960   46.0300 N   0  0  0  0  0  0  0  0  0  0  0  0
   52.2720   21.7220   47.1960 C   0  0  0  0  0  0  0  0  0  0  0  0
   51.0530   22.4230   47.2670 C   0  0  0  0  0  0  0  0  0  0  0  0
   50.2620   22.3470   48.4180 C   0  0  0  0  0  0  0  0  0  0  0  0
   50.6830   21.5840   49.5100 C   0  0  0  0  0  0  0  0  0  0  0  0
   49.9120   21.5110   50.6230 F   0  0  0  0  0  0  0  0  0  0  0  0
   51.9020   20.9020   49.4560 C   0  0  0  0  0  0  0  0  0  0  0  0
   52.6980   20.9780   48.3070 C   0  0  0  0  0  0  0  0  0  0  0  0
   55.7620   21.5810   44.7080 C   0  0  0  0  0  0  0  0  0  0  0  0
   57.2740   21.7990   44.8750 C   0  0  0  0  0  0  0  0  0  0  0  0
   58.6640   26.3840   47.0300 C   0  0  0  0  0  0  0  0  0  0  0  0
   58.8500   27.5230   47.8300 C   0  0  0  0  0  0  0  0  0  0  0  0
   58.7110   28.7790   47.2350 C   0  0  0  0  0  0  0  0  0  0  0  0
   58.8850   29.9910   47.8030 N   0  0  0  0  0  0  0  0  0  0  0  0
   59.3620   30.2720   49.4540 S   0  0  0  0  0  0  0  0  0  0  0  0
   59.4520   28.9510   50.1660 O   0  0  0  0  0  0  0  0  0  0  0  0
   58.3610   31.1290   50.1740 O   0  0  0  0  0  0  0  0  0  0  0  0
   60.9220   31.0860   49.4590 C   0  0  0  0  0  0  0  0  0  0  0  0
   61.3730   31.7660   50.6000 C   0  0  0  0  0  0  0  0  0  0  0  0
   62.6190   32.4010   50.5910 C   0  0  0  0  0  0  0  0  0  0  0  0
   63.4190   32.3610   49.4430 C   0  0  0  0  0  0  0  0  0  0  0  0
   64.9830   33.1570   49.4360 Cl  0  0  0  0  0  0  0  0  0  0  0  0
   62.9720   31.6830   48.3040 C   0  0  0  0  0  0  0  0  0  0  0  0
   61.7260   31.0470   48.3110 C   0  0  0  0  0  0  0  0  0  0  0  0
   58.9081   32.6250   48.0656 H   0  0  0  0  0  0  0  0  0  0  0  0
   59.8220   32.7048   46.5212 H   0  0  0  0  0  0  0  0  0  0  0  0
   58.0381   32.9157   46.5212 H   0  0  0  0  0  0  0  0  0  0  0  0
   58.7570   31.7958   44.1803 H   0  0  0  0  0  0  0  0  0  0  0  0
   58.5328   30.1317   43.4961 H   0  0  0  0  0  0  0  0  0  0  0  0
   56.2885   31.7096   44.8206 H   0  0  0  0  0  0  0  0  0  0  0  0
   56.6486   31.7586   43.0441 H   0  0  0  0  0  0  0  0  0  0  0  0
   57.9700   27.9150   44.0205 H   0  0  0  0  0  0  0  0  0  0  0  0
   59.5458   23.8956   45.1574 H   0  0  0  0  0  0  0  0  0  0  0  0
   58.0243   23.8459   46.1420 H   0  0  0  0  0  0  0  0  0  0  0  0
   58.6093   22.7235   43.4496 H   0  0  0  0  0  0  0  0  0  0  0  0
   57.1474   24.6894   42.8809 H   0  0  0  0  0  0  0  0  0  0  0  0
   56.4910   23.0597   42.4390 H   0  0  0  0  0  0  0  0  0  0  0  0
   55.6612   24.8583   44.7571 H   0  0  0  0  0  0  0  0  0  0  0  0
   54.6698   24.2814   43.3526 H   0  0  0  0  0  0  0  0  0  0  0  0
   53.0950   20.9950   45.3590 H   0  0  0  0  0  0  0  0  0  0  0  0
   50.7214   23.0329   46.4138 H   0  0  0  0  0  0  0  0  0  0  0  0
   49.3061   22.8893   48.4635 H   0  0  0  0  0  0  0  0  0  0  0  0
   52.2361   20.3049   50.3173 H   0  0  0  0  0  0  0  0  0  0  0  0
   53.6632   20.4514   48.2748 H   0  0  0  0  0  0  0  0  0  0  0  0
   55.4099   20.8841   45.4829 H   0  0  0  0  0  0  0  0  0  0  0  0
   55.5730   21.1660   43.7070 H   0  0  0  0  0  0  0  0  0  0  0  0
   57.4912   21.9042   45.9482 H   0  0  0  0  0  0  0  0  0  0  0  0
   57.7713   20.9278   44.4237 H   0  0  0  0  0  0  0  0  0  0  0  0
   58.7577   25.3832   47.4768 H   0  0  0  0  0  0  0  0  0  0  0  0
   59.0987   27.4285   48.8974 H   0  0  0  0  0  0  0  0  0  0  0  0
   60.7458   31.7998   51.5030 H   0  0  0  0  0  0  0  0  0  0  0  0
   62.9709   32.9327   51.4874 H   0  0  0  0  0  0  0  0  0  0  0  0
   63.6008   31.6499   47.4020 H   0  0  0  0  0  0  0  0  0  0  0  0
   61.3763   30.5151   47.4139 H   0  0  0  0  0  0  0  0  0  0  0  0
  1  2  1  0
  2  3  2  0
  3  4  1  0
  4  5  1  0
  5  6  1  0
  6  7  2  0
  6  8  1  0
  3  9  1  0
  9 10  2  0
 10 11  1  0
 11 12  1  0
 12 13  1  0
 13 14  1  0
 14 15  1  0
 15 16  1  0
 16 17  1  0
 17 18  1  0
 18 19  2  0
 18 20  1  0
 20 21  1  0
 21 22  2  0
 22 23  1  0
 23 24  2  0
 24 25  1  0
 24 26  1  0
 26 27  2  0
 17 28  1  0
 28 29  1  0
 11 30  2  0
 30 31  1  0
 31 32  2  0
 32 33  1  0
 33 34  1  0
 34 35  2  0
 34 36  2  0
 34 37  1  0
 37 38  2  0
 38 39  1  0
 39 40  2  0
 40 41  1  0
 40 42  1  0
 42 43  2  0
 33  2  1  0
 43 37  1  0
 32  9  1  0
 29 14  1  0
 27 21  1  0
  1 44  1  0
  1 45  1  0
  1 46  1  0
  4 47  1  0
  4 48  1  0
  5 49  1  0
  5 50  1  0
 10 51  1  0
 13 52  1  0
 13 53  1  0
 14 54  1  0
 15 55  1  0
 15 56  1  0
 16 57  1  0
 16 58  1  0
 20 59  1  0
 22 60  1  0
 23 61  1  0
 26 62  1  0
 27 63  1  0
 28 64  1  0
 28 65  1  0
 29 66  1  0
 29 67  1  0
 30 68  1  0
 31 69  1  0
 38 70  1  0
 39 71  1  0
 42 72  1  0
 43 73  1  0
M  CHG  1   8  -1
M  END
>  <UniqueID>  (50) 
44

>  <SMILES>  (50) 
Cc1c(CCC(=O)[O-])c2cc(OCC3CCN(C(=O)Nc4ccc(F)cc4)CC3)ccc2n1S(=O)(=O)c1ccc(Cl)cc1

>  <Energy>  (50) 
116.45816056228045

>  <Genealogy>  (50) 
Cc1c(CCC(=O)[O-])c2cc(OCC3CCN(C(=O)Nc4ccc(F)cc4)CC3)ccc2n1S(=O)(=O)c1ccc(Cl)cc1 (protonated)
Cc1c(CCC(=O)[O-])c2cc(OCC3CCN(C(=O)Nc4ccc(F)cc4)CC3)ccc2n1S(=O)(=O)c1ccc(Cl)cc1 (3D coordinates assigned)
Cc1c(CCC(=O)[O-])c2cc(OCC3CCN(C(=O)Nc4ccc(F)cc4)CC3)ccc2n1S(=O)(=O)c1ccc(Cl)cc1 (nonaromatic ring conformer: 116.45816056228045 kcal/mol)

>  <smiles>  (50) 
Cc1c(CCC(=O)O)c2cc(OCC3CCN(C(=O)Nc4ccc(F)cc4)CC3)ccc2n1S(=O)(=O)c1ccc(Cl)cc1

>  <score_type>  (50) 
oracle

>  <origin>  (50) 
adg

>  <m_score__min__energy>  (50) 
-12.76

>  <m_primary>  (50) 
energy

$$$$
50:0
     RDKit          3D

 43 46  0  0  0  0  0  0  0  0999 V2000
   57.0120   28.7690   51.2450 H   0  0  0  0  0  0  0  0  0  0  0  0
   57.4620   29.4860   51.8030 O   0  0  0  0  0  0  0  0  0  0  0  0
   57.9950   30.6330   51.2190 C   0  0  0  0  0  0  0  0  0  0  0  0
   57.9510   31.8450   51.9130 C   0  0  0  0  0  0  0  0  0  0  0  0
   57.4971   31.8874   52.9141 H   0  0  0  0  0  0  0  0  0  0  0  0
   58.4820   33.0040   51.3390 C   0  0  0  0  0  0  0  0  0  0  0  0
   58.4348   33.9562   51.8877 H   0  0  0  0  0  0  0  0  0  0  0  0
   59.0760   32.9610   50.0650 C   0  0  0  0  0  0  0  0  0  0  0  0
   59.6290   34.2090   49.4210 C   0  0  0  0  0  0  0  0  0  0  0  0
   60.0107   34.8787   50.2057 H   0  0  0  0  0  0  0  0  0  0  0  0
   58.8214   34.6958   48.8546 H   0  0  0  0  0  0  0  0  0  0  0  0
   60.7220   33.8880   48.4910 N   0  0  0  0  0  0  0  0  0  0  0  0
   60.8420   33.9620   47.1210 C   0  0  0  0  0  0  0  0  0  0  0  0
   59.9010   34.2260   46.2530 N   0  0  0  0  0  0  0  0  0  0  0  0
   58.2770   33.6480   46.0460 S   0  0  0  0  0  0  0  0  0  0  0  0
   57.5120   33.7860   47.3330 O   0  0  0  0  0  0  0  0  0  0  0  0
   57.6080   34.5030   45.0070 O   0  0  0  0  0  0  0  0  0  0  0  0
   58.2640   31.9870   45.4600 C   0  0  0  0  0  0  0  0  0  0  0  0
   57.3860   31.6030   44.4350 C   0  0  0  0  0  0  0  0  0  0  0  0
   56.6940   32.3394   44.0004 H   0  0  0  0  0  0  0  0  0  0  0  0
   57.3890   30.2860   43.9650 C   0  0  0  0  0  0  0  0  0  0  0  0
   56.7023   29.9886   43.1587 H   0  0  0  0  0  0  0  0  0  0  0  0
   58.2640   29.3470   44.5190 C   0  0  0  0  0  0  0  0  0  0  0  0
   58.2660   28.3115   44.1478 H   0  0  0  0  0  0  0  0  0  0  0  0
   59.1360   29.7230   45.5440 C   0  0  0  0  0  0  0  0  0  0  0  0
   59.8235   28.9832   45.9800 H   0  0  0  0  0  0  0  0  0  0  0  0
   59.1350   31.0400   46.0160 C   0  0  0  0  0  0  0  0  0  0  0  0
   59.8196   31.3331   46.8256 H   0  0  0  0  0  0  0  0  0  0  0  0
   62.1000   33.7080   46.6790 N   0  0  0  0  0  0  0  0  0  0  0  0
   62.7880   33.4690   47.8040 C   0  0  0  0  0  0  0  0  0  0  0  0
   64.1450   33.1750   47.9180 C   0  0  0  0  0  0  0  0  0  0  0  0
   64.7847   33.0888   47.0273 H   0  0  0  0  0  0  0  0  0  0  0  0
   64.6700   32.9920   49.2110 C   0  0  0  0  0  0  0  0  0  0  0  0
   65.9860   32.7050   49.3700 F   0  0  0  0  0  0  0  0  0  0  0  0
   63.8350   33.1130   50.3430 C   0  0  0  0  0  0  0  0  0  0  0  0
   64.2547   32.9704   51.3497 H   0  0  0  0  0  0  0  0  0  0  0  0
   62.4690   33.4150   50.1910 C   0  0  0  0  0  0  0  0  0  0  0  0
   61.8101   33.5190   51.0657 H   0  0  0  0  0  0  0  0  0  0  0  0
   61.9750   33.5790   48.8910 C   0  0  0  0  0  0  0  0  0  0  0  0
   59.1030   31.7410   49.3670 C   0  0  0  0  0  0  0  0  0  0  0  0
   59.5456   31.6969   48.3609 H   0  0  0  0  0  0  0  0  0  0  0  0
   58.5710   30.5830   49.9430 C   0  0  0  0  0  0  0  0  0  0  0  0
   58.6049   29.6310   49.3930 H   0  0  0  0  0  0  0  0  0  0  0  0
  1  2  1  0
  2  3  1  0
  3  4  2  0
  4  5  1  0
  4  6  1  0
  6  7  1  0
  6  8  2  0
  8  9  1  0
  9 10  1  0
  9 11  1  0
  9 12  1  0
 12 13  1  0
 13 14  2  0
 14 15  1  0
 15 16  2  0
 15 17  2  0
 15 18  1  0
 18 19  2  0
 19 20  1  0
 19 21  1  0
 21 22  1  0
 21 23  2  0
 23 24  1  0
 23 25  1  0
 25 26  1  0
 25 27  2  0
 27 28  1  0
 13 29  1  0
 29 30  1  0
 30 31  2  0
 31 32  1  0
 31 33  1  0
 33 34  1  0
 33 35  2  0
 35 36  1  0
 35 37  1  0
 37 38  1  0
 37 39  2  0
  8 40  1  0
 40 41  1  0
 40 42  2  0
 42 43  1  0
 42  3  1  0
 39 12  1  0
 27 18  1  0
 39 30  1  0
M  CHG  1  29  -1
M  END
>  <UniqueID>  (51) 
45

>  <SMILES>  (51) 
O=S(=O)(/N=c1/[n-]c2cc(F)ccc2n1Cc1ccc(O)cc1)c1ccccc1

>  <Energy>  (51) 
99.70761041818895

>  <Genealogy>  (51) 
O=S(=O)(N=c1[n-]c2cc(F)ccc2n1Cc1ccc(O)cc1)c1ccccc1 (protonated)
O=S(=O)(/N=c1/[n-]c2cc(F)ccc2n1Cc1ccc(O)cc1)c1ccccc1 (cis-trans isomerization)
O=S(=O)(/N=c1/[n-]c2cc(F)ccc2n1Cc1ccc(O)cc1)c1ccccc1 (3D coordinates assigned)
O=S(=O)(/N=c1/[n-]c2cc(F)ccc2n1Cc1ccc(O)cc1)c1ccccc1 (optimized conformer: 99.70761041818895 kcal/mol)

>  <smiles>  (51) 
O=S(=O)(N=c1[nH]c2cc(F)ccc2n1Cc1ccc(O)cc1)c1ccccc1

>  <score_type>  (51) 
oracle

>  <origin>  (51) 
adg

>  <m_score__min__energy>  (51) 
-9.3800000000000008

>  <m_primary>  (51) 
energy

$$$$
51:0
     RDKit          3D

 51 53  0  0  0  0  0  0  0  0999 V2000
   53.6580   21.9540   45.2630 H   0  0  0  0  0  0  0  0  0  0  0  0
   53.7790   22.9270   44.8830 N   0  0  0  0  0  0  0  0  0  0  0  0
   55.3240   22.9890   44.0930 S   0  0  0  0  0  0  0  0  0  0  0  0
   55.1310   23.2630   42.6220 O   0  0  0  0  0  0  0  0  0  0  0  0
   56.0160   21.6630   44.2460 O   0  0  0  0  0  0  0  0  0  0  0  0
   56.3060   24.2690   44.8120 C   0  0  0  0  0  0  0  0  0  0  0  0
   57.2680   24.9500   44.0500 C   0  0  0  0  0  0  0  0  0  0  0  0
   57.4025   24.7004   42.9872 H   0  0  0  0  0  0  0  0  0  0  0  0
   58.0570   25.9460   44.6380 C   0  0  0  0  0  0  0  0  0  0  0  0
   58.8003   26.4827   44.0302 H   0  0  0  0  0  0  0  0  0  0  0  0
   57.9080   26.2640   45.9910 C   0  0  0  0  0  0  0  0  0  0  0  0
   58.7250   27.3130   46.5420 N   0  0  0  0  0  0  0  0  0  0  0  0
   58.5410   28.5970   46.4400 C   0  0  0  0  0  0  0  0  0  0  0  0
   57.6450   29.0640   45.5320 N   0  0  0  0  0  0  0  0  0  0  0  0
   57.4070   30.3970   45.3880 C   0  0  0  0  0  0  0  0  0  0  0  0
   56.4680   30.8600   44.4570 O   0  0  0  0  0  0  0  0  0  0  0  0
   56.6680   30.8300   43.0440 C   0  0  0  0  0  0  0  0  0  0  0  0
   55.7198   31.0676   42.5396 H   0  0  0  0  0  0  0  0  0  0  0  0
   57.0111   29.8254   42.7557 H   0  0  0  0  0  0  0  0  0  0  0  0
   57.7320   31.8550   42.6270 C   0  0  0  0  0  0  0  0  0  0  0  0
   58.7251   31.3850   42.6802 H   0  0  0  0  0  0  0  0  0  0  0  0
   57.6771   32.7159   43.3096 H   0  0  0  0  0  0  0  0  0  0  0  0
   57.4870   32.3460   41.2020 C   0  0  0  0  0  0  0  0  0  0  0  0
   56.9961   33.3299   41.2325 H   0  0  0  0  0  0  0  0  0  0  0  0
   58.4479   32.4319   40.6735 H   0  0  0  0  0  0  0  0  0  0  0  0
   56.8406   31.6299   40.6735 H   0  0  0  0  0  0  0  0  0  0  0  0
   58.1140   31.3120   46.1780 C   0  0  0  0  0  0  0  0  0  0  0  0
   57.8290   32.7530   46.1160 C   0  0  0  0  0  0  0  0  0  0  0  0
   57.0370   33.2630   46.9630 O   0  0  0  0  0  0  0  0  0  0  0  0
   58.4480   33.5930   45.1260 N   0  0  0  0  0  0  0  0  0  0  0  0
   59.4390   34.6390   45.4000 C   0  0  0  0  0  0  0  0  0  0  0  0
   60.0785   34.7670   44.5142 H   0  0  0  0  0  0  0  0  0  0  0  0
   58.9032   35.5711   45.6327 H   0  0  0  0  0  0  0  0  0  0  0  0
   60.3070   34.2800   46.5860 C   0  0  0  0  0  0  0  0  0  0  0  0
   61.6010   33.7620   46.3860 C   0  0  0  0  0  0  0  0  0  0  0  0
   61.9670   33.5825   45.3643 H   0  0  0  0  0  0  0  0  0  0  0  0
   62.4250   33.4740   47.4830 C   0  0  0  0  0  0  0  0  0  0  0  0
   63.4378   33.0767   47.3204 H   0  0  0  0  0  0  0  0  0  0  0  0
   61.9590   33.6920   48.7870 C   0  0  0  0  0  0  0  0  0  0  0  0
   62.6091   33.4716   49.6466 H   0  0  0  0  0  0  0  0  0  0  0  0
   60.6670   34.1900   48.9970 C   0  0  0  0  0  0  0  0  0  0  0  0
   60.3010   34.3547   50.0212 H   0  0  0  0  0  0  0  0  0  0  0  0
   59.8390   34.4790   47.9010 C   0  0  0  0  0  0  0  0  0  0  0  0
   58.8216   34.8620   48.0686 H   0  0  0  0  0  0  0  0  0  0  0  0
   59.0590   30.8180   47.0800 C   0  0  0  0  0  0  0  0  0  0  0  0
   59.6489   31.5135   47.6951 H   0  0  0  0  0  0  0  0  0  0  0  0
   59.2490   29.4790   47.1970 N   0  0  0  0  0  0  0  0  0  0  0  0
   56.9170   25.6060   46.7440 C   0  0  0  0  0  0  0  0  0  0  0  0
   56.7576   25.8796   47.7974 H   0  0  0  0  0  0  0  0  0  0  0  0
   56.1330   24.6040   46.1570 C   0  0  0  0  0  0  0  0  0  0  0  0
   55.3770   24.0782   46.7587 H   0  0  0  0  0  0  0  0  0  0  0  0
  1  2  1  0
  2  3  1  0
  3  4  2  0
  3  5  2  0
  3  6  1  0
  6  7  2  0
  7  8  1  0
  7  9  1  0
  9 10  1  0
  9 11  2  0
 11 12  1  0
 12 13  2  0
 13 14  1  0
 14 15  2  0
 15 16  1  0
 16 17  1  0
 17 18  1  0
 17 19  1  0
 17 20  1  0
 20 21  1  0
 20 22  1  0
 20 23  1  0
 23 24  1  0
 23 25  1  0
 23 26  1  0
 15 27  1  0
 27 28  1  0
 28 29  2  0
 28 30  1  0
 30 31  1  0
 31 32  1  0
 31 33  1  0
 31 34  1  0
 34 35  2  0
 35 36  1  0
 35 37  1  0
 37 38  1  0
 37 39  2  0
 39 40  1  0
 39 41  1  0
 41 42  1  0
 41 43  2  0
 43 44  1  0
 27 45  2  0
 45 46  1  0
 45 47  1  0
 11 48  1  0
 48 49  1  0
 48 50  2  0
 50 51  1  0
 50  6  1  0
 47 13  1  0
 43 34  1  0
M  CHG  3   2  -1  30  -1  47  -1
M  END
>  <UniqueID>  (52) 
46

>  <SMILES>  (52) 
CCCOc1n/c(=N/c2ccc(S([NH-])(=O)=O)cc2)[n-]cc1C(=O)[N-]Cc1ccccc1

>  <Energy>  (52) 
56.27550513928742

>  <Genealogy>  (52) 
CCCOc1nc(=Nc2ccc(S([NH-])(=O)=O)cc2)[n-]cc1C(=O)[N-]Cc1ccccc1 (protonated)
CCCOc1n/c(=N/c2ccc(S([NH-])(=O)=O)cc2)[n-]cc1C(=O)[N-]Cc1ccccc1 (cis-trans isomerization)
CCCOc1n/c(=N/c2ccc(S([NH-])(=O)=O)cc2)[n-]cc1C(=O)[N-]Cc1ccccc1 (3D coordinates assigned)
CCCOc1n/c(=N/c2ccc(S([NH-])(=O)=O)cc2)[n-]cc1C(=O)[N-]Cc1ccccc1 (optimized conformer: 56.27550513928742 kcal/mol)

>  <smiles>  (52) 
CCCOc1nc(=Nc2ccc(S(N)(=O)=O)cc2)[nH]cc1C(=O)NCc1ccccc1

>  <score_type>  (52) 
oracle

>  <origin>  (52) 
adg

>  <m_score__min__energy>  (52) 
-12.56

>  <m_primary>  (52) 
energy

$$$$
52:0
     RDKit          3D

 51 53  0  0  0  0  0  0  0  0999 V2000
   55.0420   22.2690   49.1400 C   0  0  0  0  0  0  0  0  0  0  0  0
   56.3420   22.9150   48.1070 S   0  0  0  0  0  0  0  0  0  0  0  0
   57.0500   21.7880   47.4080 O   0  0  0  0  0  0  0  0  0  0  0  0
   57.3310   23.6430   48.9720 O   0  0  0  0  0  0  0  0  0  0  0  0
   55.7080   24.0210   46.9310 N   0  0  0  0  0  0  0  0  0  0  0  0
   56.4570   25.1660   46.5090 C   0  0  0  0  0  0  0  0  0  0  0  0
   57.8580   25.1450   46.5320 C   0  0  0  0  0  0  0  0  0  0  0  0
   58.5850   26.2570   46.1010 C   0  0  0  0  0  0  0  0  0  0  0  0
   57.9190   27.4030   45.6580 C   0  0  0  0  0  0  0  0  0  0  0  0
   56.5220   27.4440   45.6460 C   0  0  0  0  0  0  0  0  0  0  0  0
   55.8640   28.6470   45.2430 N   0  0  0  0  0  0  0  0  0  0  0  0
   56.5780   29.7270   44.0930 S   0  0  0  0  0  0  0  0  0  0  0  0
   57.3820   28.9300   43.1040 O   0  0  0  0  0  0  0  0  0  0  0  0
   55.5110   30.4820   43.3460 O   0  0  0  0  0  0  0  0  0  0  0  0
   57.6390   30.8530   44.9360 C   0  0  0  0  0  0  0  0  0  0  0  0
   58.7980   30.3930   45.5740 C   0  0  0  0  0  0  0  0  0  0  0  0
   59.6220   31.2860   46.2670 C   0  0  0  0  0  0  0  0  0  0  0  0
   59.2860   32.6470   46.3480 C   0  0  0  0  0  0  0  0  0  0  0  0
   60.1670   33.5960   47.0640 C   0  0  0  0  0  0  0  0  0  0  0  0
   59.8690   34.8230   47.0820 O   0  0  0  0  0  0  0  0  0  0  0  0
   61.3700   33.1530   47.7160 N   0  0  0  0  0  0  0  0  0  0  0  0
   61.3310   31.9780   48.6040 C   0  0  0  0  0  0  0  0  0  0  0  0
   62.4960   31.9900   49.6030 C   0  0  0  0  0  0  0  0  0  0  0  0
   63.8640   32.1870   48.9170 C   0  0  0  0  0  0  0  0  0  0  0  0
   63.8150   33.0730   47.6540 C   0  0  0  0  0  0  0  0  0  0  0  0
   62.5810   33.9780   47.6370 C   0  0  0  0  0  0  0  0  0  0  0  0
   58.1250   33.1050   45.7020 C   0  0  0  0  0  0  0  0  0  0  0  0
   57.3060   32.2130   45.0030 C   0  0  0  0  0  0  0  0  0  0  0  0
   55.7890   26.3150   46.0480 C   0  0  0  0  0  0  0  0  0  0  0  0
   54.4000   26.3300   45.9920 O   0  0  0  0  0  0  0  0  0  0  0  0
   55.3129   22.4036   50.1976 H   0  0  0  0  0  0  0  0  0  0  0  0
   54.1055   22.8066   48.9301 H   0  0  0  0  0  0  0  0  0  0  0  0
   54.9049   21.1980   48.9301 H   0  0  0  0  0  0  0  0  0  0  0  0
   54.6750   24.0150   46.7850 H   0  0  0  0  0  0  0  0  0  0  0  0
   58.3870   24.2497   46.8907 H   0  0  0  0  0  0  0  0  0  0  0  0
   59.6846   26.2307   46.1103 H   0  0  0  0  0  0  0  0  0  0  0  0
   58.4961   28.2755   45.3177 H   0  0  0  0  0  0  0  0  0  0  0  0
   59.0611   29.3258   45.5299 H   0  0  0  0  0  0  0  0  0  0  0  0
   60.5391   30.9197   46.7516 H   0  0  0  0  0  0  0  0  0  0  0  0
   60.3824   31.9820   49.1609 H   0  0  0  0  0  0  0  0  0  0  0  0
   61.4169   31.0734   47.9840 H   0  0  0  0  0  0  0  0  0  0  0  0
   62.3388   32.8113   50.3177 H   0  0  0  0  0  0  0  0  0  0  0  0
   62.5134   31.0120   50.1062 H   0  0  0  0  0  0  0  0  0  0  0  0
   64.5488   32.6542   49.6401 H   0  0  0  0  0  0  0  0  0  0  0  0
   64.2020   31.1917   48.5928 H   0  0  0  0  0  0  0  0  0  0  0  0
   64.7171   33.7018   47.6259 H   0  0  0  0  0  0  0  0  0  0  0  0
   63.7639   32.4117   46.7765 H   0  0  0  0  0  0  0  0  0  0  0  0
   62.6158   34.6621   48.4977 H   0  0  0  0  0  0  0  0  0  0  0  0
   62.5670   34.5626   46.7053 H   0  0  0  0  0  0  0  0  0  0  0  0
   57.8590   34.1714   45.7465 H   0  0  0  0  0  0  0  0  0  0  0  0
   56.3970   32.5798   44.5038 H   0  0  0  0  0  0  0  0  0  0  0  0
  1  2  1  0
  2  3  2  0
  2  4  2  0
  2  5  1  0
  5  6  1  0
  6  7  2  0
  7  8  1  0
  8  9  2  0
  9 10  1  0
 10 11  1  0
 11 12  1  0
 12 13  2  0
 12 14  2  0
 12 15  1  0
 15 16  2  0
 16 17  1  0
 17 18  2  0
 18 19  1  0
 19 20  2  0
 19 21  1  0
 21 22  1  0
 22 23  1  0
 23 24  1  0
 24 25  1  0
 25 26  1  0
 18 27  1  0
 27 28  2  0
 10 29  2  0
 29 30  1  0
 29  6  1  0
 28 15  1  0
 26 21  1  0
  1 31  1  0
  1 32  1  0
  1 33  1  0
  5 34  1  0
  7 35  1  0
  8 36  1  0
  9 37  1  0
 16 38  1  0
 17 39  1  0
 22 40  1  0
 22 41  1  0
 23 42  1  0
 23 43  1  0
 24 44  1  0
 24 45  1  0
 25 46  1  0
 25 47  1  0
 26 48  1  0
 26 49  1  0
 27 50  1  0
 28 51  1  0
M  CHG  2  11  -1  30  -1
M  END
>  <UniqueID>  (53) 
47

>  <SMILES>  (53) 
CS(=O)(=O)Nc1cccc([N-]S(=O)(=O)c2ccc(C(=O)N3CCCCC3)cc2)c1[O-]

>  <Energy>  (53) 
68.50482408306686

>  <Genealogy>  (53) 
CS(=O)(=O)Nc1cccc([N-]S(=O)(=O)c2ccc(C(=O)N3CCCCC3)cc2)c1[O-] (protonated)
CS(=O)(=O)Nc1cccc([N-]S(=O)(=O)c2ccc(C(=O)N3CCCCC3)cc2)c1[O-] (3D coordinates assigned)
CS(=O)(=O)Nc1cccc([N-]S(=O)(=O)c2ccc(C(=O)N3CCCCC3)cc2)c1[O-] (nonaromatic ring conformer: 68.50482408306686 kcal/mol)

>  <smiles>  (53) 
CS(=O)(=O)Nc1cccc(NS(=O)(=O)c2ccc(C(=O)N3CCCCC3)cc2)c1O

>  <score_type>  (53) 
oracle

>  <origin>  (53) 
adg

>  <m_score__min__energy>  (53) 
-15.800000000000001

>  <m_primary>  (53) 
energy

$$$$
53:0
     RDKit          3D

 45 48  0  0  0  0  0  0  0  0999 V2000
   54.6780   26.3300   45.6770 O   0  0  0  0  0  0  0  0  0  0  0  0
   55.8020   26.0070   46.1480 C   0  0  0  0  0  0  0  0  0  0  0  0
   55.9370   24.7920   46.9010 N   0  0  0  0  0  0  0  0  0  0  0  0
   55.5830   23.4710   46.4650 C   0  0  0  0  0  0  0  0  0  0  0  0
   56.4740   22.6620   45.7350 C   0  0  0  0  0  0  0  0  0  0  0  0
   56.0960   21.3730   45.3480 C   0  0  0  0  0  0  0  0  0  0  0  0
   54.8370   20.8760   45.6970 C   0  0  0  0  0  0  0  0  0  0  0  0
   53.9530   21.6630   46.4470 C   0  0  0  0  0  0  0  0  0  0  0  0
   52.3780   21.0400   46.9260 S   0  0  0  0  0  0  0  0  0  0  0  0
   52.3170   20.8270   48.4140 O   0  0  0  0  0  0  0  0  0  0  0  0
   52.1410   19.7250   46.2370 O   0  0  0  0  0  0  0  0  0  0  0  0
   51.1390   22.1610   46.4630 N   0  0  0  0  0  0  0  0  0  0  0  0
   51.1070   22.7420   45.3040 C   0  0  0  0  0  0  0  0  0  0  0  0
   50.4770   22.2350   44.2210 N   0  0  0  0  0  0  0  0  0  0  0  0
   50.6010   23.0570   43.1450 C   0  0  0  0  0  0  0  0  0  0  0  0
   51.3320   24.2200   43.3720 C   0  0  0  0  0  0  0  0  0  0  0  0
   51.8400   24.2160   44.9780 S   0  0  0  0  0  0  0  0  0  0  0  0
   54.3350   22.9550   46.8340 C   0  0  0  0  0  0  0  0  0  0  0  0
   56.9780   26.9040   45.9740 C   0  0  0  0  0  0  0  0  0  0  0  0
   58.2670   26.4220   46.2750 C   0  0  0  0  0  0  0  0  0  0  0  0
   59.3850   27.2420   46.1330 C   0  0  0  0  0  0  0  0  0  0  0  0
   59.2430   28.5520   45.6820 C   0  0  0  0  0  0  0  0  0  0  0  0
   57.9760   29.0600   45.3620 C   0  0  0  0  0  0  0  0  0  0  0  0
   57.8530   30.4550   44.8710 C   0  0  0  0  0  0  0  0  0  0  0  0
   57.8580   31.5350   45.7720 C   0  0  0  0  0  0  0  0  0  0  0  0
   57.7360   32.8450   45.3030 C   0  0  0  0  0  0  0  0  0  0  0  0
   57.6030   33.0920   43.9330 C   0  0  0  0  0  0  0  0  0  0  0  0
   57.5870   32.0250   43.0290 C   0  0  0  0  0  0  0  0  0  0  0  0
   57.4190   32.3360   41.3100 Cl  0  0  0  0  0  0  0  0  0  0  0  0
   57.7090   30.7110   43.4950 C   0  0  0  0  0  0  0  0  0  0  0  0
   56.8390   28.2370   45.5160 C   0  0  0  0  0  0  0  0  0  0  0  0
   55.5770   28.7560   45.2310 O   0  0  0  0  0  0  0  0  0  0  0  0
   57.4701   23.0450   45.4684 H   0  0  0  0  0  0  0  0  0  0  0  0
   56.7909   20.7484   44.7675 H   0  0  0  0  0  0  0  0  0  0  0  0
   54.5396   19.8649   45.3822 H   0  0  0  0  0  0  0  0  0  0  0  0
   50.1564   22.8205   42.1670 H   0  0  0  0  0  0  0  0  0  0  0  0
   51.5415   25.0054   42.6309 H   0  0  0  0  0  0  0  0  0  0  0  0
   53.6473   23.5695   47.4336 H   0  0  0  0  0  0  0  0  0  0  0  0
   58.3925   25.3871   46.6260 H   0  0  0  0  0  0  0  0  0  0  0  0
   60.3841   26.8527   46.3783 H   0  0  0  0  0  0  0  0  0  0  0  0
   60.1310   29.1925   45.5761 H   0  0  0  0  0  0  0  0  0  0  0  0
   57.9585   31.3471   46.8512 H   0  0  0  0  0  0  0  0  0  0  0  0
   57.7446   33.6848   46.0134 H   0  0  0  0  0  0  0  0  0  0  0  0
   57.5110   34.1251   43.5665 H   0  0  0  0  0  0  0  0  0  0  0  0
   57.6922   29.8738   42.7817 H   0  0  0  0  0  0  0  0  0  0  0  0
  1  2  2  0
  2  3  1  0
  3  4  1  0
  4  5  2  0
  5  6  1  0
  6  7  2  0
  7  8  1  0
  8  9  1  0
  9 10  2  0
  9 11  2  0
  9 12  1  0
 12 13  2  3
 13 14  1  0
 14 15  1  0
 15 16  2  0
 16 17  1  0
  8 18  2  0
  2 19  1  0
 19 20  2  0
 20 21  1  0
 21 22  2  0
 22 23  1  0
 23 24  1  0
 24 25  2  0
 25 26  1  0
 26 27  2  0
 27 28  1  0
 28 29  1  0
 28 30  2  0
 23 31  2  0
 31 32  1  0
 18  4  1  0
 31 19  1  0
 17 13  1  0
 30 24  1  0
  5 33  1  0
  6 34  1  0
  7 35  1  0
 15 36  1  0
 16 37  1  0
 18 38  1  0
 20 39  1  0
 21 40  1  0
 22 41  1  0
 25 42  1  0
 26 43  1  0
 27 44  1  0
 30 45  1  0
M  CHG  3   3  -1  14  -1  32  -1
M  END
>  <UniqueID>  (54) 
48

>  <SMILES>  (54) 
O=C([N-]c1cccc(S(=O)(=O)N=c2[n-]ccs2)c1)c1cccc(-c2cccc(Cl)c2)c1[O-]

>  <Energy>  (54) 
95.63505248410277

>  <Genealogy>  (54) 
O=C([N-]c1cccc(S(=O)(=O)N=c2[n-]ccs2)c1)c1cccc(-c2cccc(Cl)c2)c1[O-] (protonated)
O=C([N-]c1cccc(S(=O)(=O)N=c2[n-]ccs2)c1)c1cccc(-c2cccc(Cl)c2)c1[O-] (3D coordinates assigned)
O=C([N-]c1cccc(S(=O)(=O)N=c2[n-]ccs2)c1)c1cccc(-c2cccc(Cl)c2)c1[O-] (optimized conformer: 95.63505248410277 kcal/mol)

>  <smiles>  (54) 
O=C(Nc1cccc(S(=O)(=O)N=c2[nH]ccs2)c1)c1cccc(-c2cccc(Cl)c2)c1O

>  <score_type>  (54) 
oracle

>  <origin>  (54) 
adg

>  <m_score__min__energy>  (54) 
-15.49

>  <m_primary>  (54) 
energy

$$$$
54:0
     RDKit          3D

 35 38  0  0  0  0  0  0  0  0999 V2000
   58.9560   29.0310   45.6900 C   0  0  0  0  0  0  0  0  0  0  0  0
   58.3550   30.3570   45.5140 N   0  0  0  0  0  0  0  0  0  0  0  0
   57.2740   30.6390   44.7310 C   0  0  0  0  0  0  0  0  0  0  0  0
   56.3390   29.6530   44.1500 C   0  0  0  0  0  0  0  0  0  0  0  0
   55.1430   29.3110   44.8480 N   0  0  0  0  0  0  0  0  0  0  0  0
   56.6070   29.0730   43.0650 O   0  0  0  0  0  0  0  0  0  0  0  0
   57.1350   32.0090   44.5610 C   0  0  0  0  0  0  0  0  0  0  0  0
   58.1520   32.5700   45.2950 C   0  0  0  0  0  0  0  0  0  0  0  0
   58.5060   33.9060   45.4390 C   0  0  0  0  0  0  0  0  0  0  0  0
   57.8510   34.8150   44.8610 O   0  0  0  0  0  0  0  0  0  0  0  0
   59.5860   34.2160   46.2100 N   0  0  0  0  0  0  0  0  0  0  0  0
   60.3000   33.2530   46.8780 C   0  0  0  0  0  0  0  0  0  0  0  0
   61.3780   33.6290   47.6950 C   0  0  0  0  0  0  0  0  0  0  0  0
   62.0820   32.6760   48.4480 C   0  0  0  0  0  0  0  0  0  0  0  0
   63.2220   33.0840   49.3100 C   0  0  0  0  0  0  0  0  0  0  0  0
   64.5170   32.5980   49.2680 C   0  0  0  0  0  0  0  0  0  0  0  0
   65.2070   33.2740   50.2520 C   0  0  0  0  0  0  0  0  0  0  0  0
   64.4050   34.1190   50.8570 O   0  0  0  0  0  0  0  0  0  0  0  0
   63.2100   34.0330   50.3200 C   0  0  0  0  0  0  0  0  0  0  0  0
   61.6720   31.3350   48.3920 C   0  0  0  0  0  0  0  0  0  0  0  0
   60.6080   30.9400   47.5790 C   0  0  0  0  0  0  0  0  0  0  0  0
   59.9370   31.8760   46.7700 C   0  0  0  0  0  0  0  0  0  0  0  0
   58.8610   31.5610   45.9010 C   0  0  0  0  0  0  0  0  0  0  0  0
   59.0549   28.8128   46.7636 H   0  0  0  0  0  0  0  0  0  0  0  0
   58.3139   28.2720   45.2192 H   0  0  0  0  0  0  0  0  0  0  0  0
   59.9500   29.0135   45.2192 H   0  0  0  0  0  0  0  0  0  0  0  0
   55.1530   28.5980   45.6110 H   0  0  0  0  0  0  0  0  0  0  0  0
   56.3733   32.5339   43.9657 H   0  0  0  0  0  0  0  0  0  0  0  0
   59.8570   35.2220   46.3040 H   0  0  0  0  0  0  0  0  0  0  0  0
   61.6756   34.6867   47.7459 H   0  0  0  0  0  0  0  0  0  0  0  0
   64.9146   31.8296   48.5886 H   0  0  0  0  0  0  0  0  0  0  0  0
   66.2700   33.1272   50.4938 H   0  0  0  0  0  0  0  0  0  0  0  0
   62.3336   34.6237   50.6250 H   0  0  0  0  0  0  0  0  0  0  0  0
   62.1976   30.5828   48.9986 H   0  0  0  0  0  0  0  0  0  0  0  0
   60.2909   29.8867   47.5706 H   0  0  0  0  0  0  0  0  0  0  0  0
  1  2  1  0
  2  3  1  0
  3  4  1  0
  4  5  1  0
  4  6  2  0
  3  7  2  0
  7  8  1  0
  8  9  1  0
  9 10  2  0
  9 11  1  0
 11 12  1  0
 12 13  2  0
 13 14  1  0
 14 15  1  0
 15 16  1  0
 16 17  2  0
 17 18  1  0
 18 19  1  0
 14 20  2  0
 20 21  1  0
 21 22  2  0
 22 23  1  0
 23  2  1  0
 23  8  2  0
 22 12  1  0
 19 15  2  0
  1 24  1  0
  1 25  1  0
  1 26  1  0
  5 27  1  0
  7 28  1  0
 11 29  1  0
 13 30  1  0
 16 31  1  0
 17 32  1  0
 19 33  1  0
 20 34  1  0
 21 35  1  0
M  CHG  1   5  -1
M  END
>  <UniqueID>  (55) 
49

>  <SMILES>  (55) 
Cn1c(C([NH-])=O)cc2c(=O)[nH]c3cc(-c4ccoc4)ccc3c21

>  <Energy>  (55) 
115.05738673160026

>  <Genealogy>  (55) 
Cn1c(C([NH-])=O)cc2c(=O)[nH]c3cc(-c4ccoc4)ccc3c21 (protonated)
Cn1c(C([NH-])=O)cc2c(=O)[nH]c3cc(-c4ccoc4)ccc3c21 (3D coordinates assigned)
Cn1c(C([NH-])=O)cc2c(=O)[nH]c3cc(-c4ccoc4)ccc3c21 (optimized conformer: 115.05738673160026 kcal/mol)

>  <smiles>  (55) 
Cn1c(C(N)=O)cc2c(=O)[nH]c3cc(-c4ccoc4)ccc3c21

>  <score_type>  (55) 
oracle

>  <origin>  (55) 
adg

>  <m_score__min__energy>  (55) 
-10.550000000000001

>  <m_primary>  (55) 
energy

$$$$
55:0
     RDKit          3D

 49 50  0  0  0  0  0  0  0  0999 V2000
   53.7360   23.7070   44.6090 C   0  0  0  0  0  0  0  0  0  0  0  0
   54.8380   22.9680   44.7730 C   0  0  0  0  0  0  0  0  0  0  0  0
   56.0810   23.1900   43.9490 C   0  0  0  0  0  0  0  0  0  0  0  0
   57.2140   22.1680   44.2080 C   0  0  1  0  0  0  0  0  0  0  0  0
   57.3470   21.1210   43.0920 C   0  0  0  0  0  0  0  0  0  0  0  0
   58.5630   22.8330   44.5670 C   0  0  0  0  0  0  0  0  0  0  0  0
   58.6890   23.1090   46.0000 N   0  0  0  0  0  0  0  0  0  0  0  0
   57.7800   23.8700   46.8050 C   0  0  0  0  0  0  0  0  0  0  0  0
   57.3820   23.3790   47.8950 O   0  0  0  0  0  0  0  0  0  0  0  0
   57.2990   25.2100   46.4050 C   0  0  0  0  0  0  0  0  0  0  0  0
   55.9290   25.4960   46.3700 C   0  0  0  0  0  0  0  0  0  0  0  0
   55.5010   26.7230   45.9770 N   0  0  0  0  0  0  0  0  0  0  0  0
   56.3820   27.6920   45.5990 C   0  0  0  0  0  0  0  0  0  0  0  0
   55.9700   28.8700   45.2380 N   0  0  0  0  0  0  0  0  0  0  0  0
   55.9280   29.3550   43.8590 C   0  0  0  0  0  0  0  0  0  0  0  0
   56.7940   30.5760   43.7030 C   0  0  0  0  0  0  0  0  0  0  0  0
   57.0240   31.1370   42.4370 C   0  0  0  0  0  0  0  0  0  0  0  0
   57.8330   32.2700   42.3040 C   0  0  0  0  0  0  0  0  0  0  0  0
   58.4190   32.8510   43.4330 C   0  0  0  0  0  0  0  0  0  0  0  0
   58.2030   32.2960   44.7020 C   0  0  0  0  0  0  0  0  0  0  0  0
   58.9260   33.0160   46.1380 S   0  0  0  0  0  0  0  0  0  0  0  0
   57.7160   33.0890   47.4410 C   0  0  0  0  0  0  0  0  0  0  0  0
   59.4040   34.4100   45.8400 O   0  0  0  0  0  0  0  0  0  0  0  0
   60.0950   32.1820   46.5760 O   0  0  0  0  0  0  0  0  0  0  0  0
   57.3940   31.1580   44.8320 C   0  0  0  0  0  0  0  0  0  0  0  0
   57.7140   27.4270   45.6050 N   0  0  0  0  0  0  0  0  0  0  0  0
   58.1910   26.2140   45.9880 C   0  0  0  0  0  0  0  0  0  0  0  0
   59.4350   26.0090   45.9760 O   0  0  0  0  0  0  0  0  0  0  0  0
   52.8480   23.5154   45.2292 H   0  0  0  0  0  0  0  0  0  0  0  0
   53.7173   24.5066   43.8538 H   0  0  0  0  0  0  0  0  0  0  0  0
   54.8378   22.1729   45.5331 H   0  0  0  0  0  0  0  0  0  0  0  0
   55.8033   23.1330   42.8862 H   0  0  0  0  0  0  0  0  0  0  0  0
   56.4762   24.1750   44.2382 H   0  0  0  0  0  0  0  0  0  0  0  0
   56.9059   21.6130   45.1064 H   0  0  0  0  0  0  0  0  0  0  0  0
   57.4737   20.1236   43.5382 H   0  0  0  0  0  0  0  0  0  0  0  0
   56.4403   21.1316   42.4693 H   0  0  0  0  0  0  0  0  0  0  0  0
   58.2223   21.3580   42.4693 H   0  0  0  0  0  0  0  0  0  0  0  0
   59.3793   22.1607   44.2642 H   0  0  0  0  0  0  0  0  0  0  0  0
   58.6130   23.7950   44.0359 H   0  0  0  0  0  0  0  0  0  0  0  0
   55.1991   24.7263   46.6610 H   0  0  0  0  0  0  0  0  0  0  0  0
   56.2920   28.5647   43.1861 H   0  0  0  0  0  0  0  0  0  0  0  0
   54.8907   29.6200   43.6066 H   0  0  0  0  0  0  0  0  0  0  0  0
   56.5659   30.6835   41.5456 H   0  0  0  0  0  0  0  0  0  0  0  0
   58.0088   32.7051   41.3091 H   0  0  0  0  0  0  0  0  0  0  0  0
   59.0506   33.7451   43.3251 H   0  0  0  0  0  0  0  0  0  0  0  0
   58.2246   33.0583   48.4159 H   0  0  0  0  0  0  0  0  0  0  0  0
   57.1418   34.0234   47.3563 H   0  0  0  0  0  0  0  0  0  0  0  0
   57.0336   32.2304   47.3563 H   0  0  0  0  0  0  0  0  0  0  0  0
   57.2279   30.7175   45.8261 H   0  0  0  0  0  0  0  0  0  0  0  0
  1  2  2  0
  2  3  1  0
  3  4  1  0
  4  5  1  0
  4  6  1  0
  6  7  1  0
  7  8  1  0
  8  9  2  0
  8 10  1  0
 10 11  2  0
 11 12  1  0
 12 13  1  0
 13 14  2  3
 14 15  1  0
 15 16  1  0
 16 17  2  0
 17 18  1  0
 18 19  2  0
 19 20  1  0
 20 21  1  0
 21 22  1  0
 21 23  2  0
 21 24  2  0
 20 25  2  0
 13 26  1  0
 26 27  1  0
 27 28  2  0
 27 10  1  0
 25 16  1  0
  1 29  1  0
  1 30  1  0
  2 31  1  0
  3 32  1  0
  3 33  1  0
  4 34  1  1
  5 35  1  0
  5 36  1  0
  5 37  1  0
  6 38  1  0
  6 39  1  0
 11 40  1  0
 15 41  1  0
 15 42  1  0
 17 43  1  0
 18 44  1  0
 19 45  1  0
 22 46  1  0
 22 47  1  0
 22 48  1  0
 25 49  1  0
M  CHG  3   7  -1  12  -1  26  -1
M  END
>  <UniqueID>  (56) 
50

>  <SMILES>  (56) 
C=CC[C@@H](C)C[N-]C(=O)c1c[n-]c(=NCc2cccc(S(C)(=O)=O)c2)[n-]c1=O

>  <Energy>  (56) 
47.38113370663155

>  <Genealogy>  (56) 
C=CCC(C)C[N-]C(=O)c1c[n-]c(=NCc2cccc(S(C)(=O)=O)c2)[n-]c1=O (protonated)
C=CC[C@@H](C)C[N-]C(=O)c1c[n-]c(=NCc2cccc(S(C)(=O)=O)c2)[n-]c1=O (chirality)
C=CC[C@@H](C)C[N-]C(=O)c1c[n-]c(=NCc2cccc(S(C)(=O)=O)c2)[n-]c1=O (3D coordinates assigned)
C=CC[C@@H](C)C[N-]C(=O)c1c[n-]c(=NCc2cccc(S(C)(=O)=O)c2)[n-]c1=O (optimized conformer: 47.38113370663155 kcal/mol)

>  <smiles>  (56) 
C=CCC(C)CNC(=O)c1c[nH]c(=NCc2cccc(S(C)(=O)=O)c2)[nH]c1=O

>  <score_type>  (56) 
oracle

>  <origin>  (56) 
adg

>  <m_score__min__energy>  (56) 
-13.050000000000001

>  <m_primary>  (56) 
energy

$$$$
56:0
     RDKit          3D

 45 47  0  0  0  0  0  0  0  0999 V2000
   55.2214   28.7242   44.8816 H   0  0  0  0  0  0  0  0  0  0  0  0
   56.2530   28.9650   45.1780 C   0  0  0  0  0  0  0  0  0  0  0  0
   56.7790   30.1790   44.8700 N   0  0  0  0  0  0  0  0  0  0  0  0
   58.0480   30.5320   45.2160 C   0  0  0  0  0  0  0  0  0  0  0  0
   58.5180   31.7050   44.9070 N   0  0  0  0  0  0  0  0  0  0  0  0
   58.1440   32.9600   45.5600 C   0  0  0  0  0  0  0  0  0  0  0  0
   57.1778   32.8298   46.0694 H   0  0  0  0  0  0  0  0  0  0  0  0
   58.0659   33.7495   44.7981 H   0  0  0  0  0  0  0  0  0  0  0  0
   59.1880   33.3570   46.5700 C   0  0  0  0  0  0  0  0  0  0  0  0
   58.7950   33.8360   47.8280 C   0  0  0  0  0  0  0  0  0  0  0  0
   57.7263   33.9014   48.0802 H   0  0  0  0  0  0  0  0  0  0  0  0
   59.7550   34.2300   48.7610 C   0  0  0  0  0  0  0  0  0  0  0  0
   59.4415   34.5904   49.7519 H   0  0  0  0  0  0  0  0  0  0  0  0
   61.1130   34.1680   48.4400 C   0  0  0  0  0  0  0  0  0  0  0  0
   61.8637   34.4779   49.1820 H   0  0  0  0  0  0  0  0  0  0  0  0
   61.5280   33.7130   47.1770 C   0  0  0  0  0  0  0  0  0  0  0  0
   62.9720   33.6650   46.8450 C   0  0  0  0  0  0  0  0  0  0  0  0
   63.4790   34.5750   46.1350 O   0  0  0  0  0  0  0  0  0  0  0  0
   63.8060   32.5930   47.2920 N   0  0  0  0  0  0  0  0  0  0  0  0
   63.4100   31.7390   47.7430 H   0  0  0  0  0  0  0  0  0  0  0  0
   64.8300   32.6110   47.0890 H   0  0  0  0  0  0  0  0  0  0  0  0
   60.5540   33.2950   46.2510 C   0  0  0  0  0  0  0  0  0  0  0  0
   60.8662   32.9157   45.2668 H   0  0  0  0  0  0  0  0  0  0  0  0
   58.8510   29.6170   45.9120 C   0  0  0  0  0  0  0  0  0  0  0  0
   60.6450   30.0510   46.4260 Br  0  0  0  0  0  0  0  0  0  0  0  0
   58.3310   28.3610   46.2380 C   0  0  0  0  0  0  0  0  0  0  0  0
   58.9537   27.6375   46.7846 H   0  0  0  0  0  0  0  0  0  0  0  0
   57.0200   28.0160   45.8730 C   0  0  0  0  0  0  0  0  0  0  0  0
   56.4610   26.6880   46.2120 C   0  0  0  0  0  0  0  0  0  0  0  0
   55.2440   26.4380   45.9890 O   0  0  0  0  0  0  0  0  0  0  0  0
   57.2950   25.6830   46.7960 N   0  0  0  0  0  0  0  0  0  0  0  0
   58.3790   25.0310   46.0730 C   0  0  0  0  0  0  0  0  0  0  0  0
   58.9705   25.7878   45.5370 H   0  0  0  0  0  0  0  0  0  0  0  0
   59.0273   24.4976   46.7837 H   0  0  0  0  0  0  0  0  0  0  0  0
   57.8030   24.0560   45.0890 C   0  0  0  0  0  0  0  0  0  0  0  0
   58.1250   22.6920   45.1750 C   0  0  0  0  0  0  0  0  0  0  0  0
   58.7758   22.3333   45.9860 H   0  0  0  0  0  0  0  0  0  0  0  0
   57.6220   21.7870   44.2340 C   0  0  0  0  0  0  0  0  0  0  0  0
   57.8739   20.7188   44.3085 H   0  0  0  0  0  0  0  0  0  0  0  0
   56.7990   22.2410   43.1990 C   0  0  0  0  0  0  0  0  0  0  0  0
   56.3120   21.3630   42.2880 F   0  0  0  0  0  0  0  0  0  0  0  0
   56.4860   23.6000   43.0970 C   0  0  0  0  0  0  0  0  0  0  0  0
   55.8421   23.9559   42.2792 H   0  0  0  0  0  0  0  0  0  0  0  0
   56.9910   24.5070   44.0340 C   0  0  0  0  0  0  0  0  0  0  0  0
   56.7520   25.5770   43.9451 H   0  0  0  0  0  0  0  0  0  0  0  0
  1  2  1  0
  2  3  1  0
  3  4  1  0
  4  5  2  0
  5  6  1  0
  6  7  1  0
  6  8  1  0
  6  9  1  0
  9 10  2  0
 10 11  1  0
 10 12  1  0
 12 13  1  0
 12 14  2  0
 14 15  1  0
 14 16  1  0
 16 17  1  0
 17 18  2  0
 17 19  1  0
 19 20  1  0
 19 21  1  0
 16 22  2  0
 22 23  1  0
  4 24  1  0
 24 25  1  0
 24 26  2  0
 26 27  1  0
 26 28  1  0
 28 29  1  0
 29 30  2  0
 29 31  1  0
 31 32  1  0
 32 33  1  0
 32 34  1  0
 32 35  1  0
 35 36  2  0
 36 37  1  0
 36 38  1  0
 38 39  1  0
 38 40  2  0
 40 41  1  0
 40 42  1  0
 42 43  1  0
 42 44  2  0
 44 45  1  0
 28  2  2  0
 44 35  1  0
 22  9  1  0
M  CHG  2   3  -1  31  -1
M  END
>  <UniqueID>  (57) 
51

>  <SMILES>  (57) 
NC(=O)c1cccc(C/N=c2\[n-]cc(C(=O)[N-]Cc3ccc(F)cc3)cc2Br)c1

>  <Energy>  (57) 
46.91622640162189

>  <Genealogy>  (57) 
NC(=O)c1cccc(CN=c2[n-]cc(C(=O)[N-]Cc3ccc(F)cc3)cc2Br)c1 (protonated)
NC(=O)c1cccc(C/N=c2\[n-]cc(C(=O)[N-]Cc3ccc(F)cc3)cc2Br)c1 (cis-trans isomerization)
NC(=O)c1cccc(C/N=c2\[n-]cc(C(=O)[N-]Cc3ccc(F)cc3)cc2Br)c1 (3D coordinates assigned)
NC(=O)c1cccc(C/N=c2\[n-]cc(C(=O)[N-]Cc3ccc(F)cc3)cc2Br)c1 (optimized conformer: 46.91622640162189 kcal/mol)

>  <smiles>  (57) 
NC(=O)c1cccc(CN=c2[nH]cc(C(=O)NCc3ccc(F)cc3)cc2Br)c1

>  <score_type>  (57) 
oracle

>  <origin>  (57) 
adg

>  <m_score__min__energy>  (57) 
-12.19

>  <m_primary>  (57) 
energy

$$$$
57:0
     RDKit          3D

 87 92  0  0  0  0  0  0  0  0999 V2000
   64.1666   35.8384   55.1410 H   0  0  0  0  0  0  0  0  0  0  0  0
   63.7900   35.2520   54.2900 C   0  0  0  0  0  0  0  0  0  0  0  0
   62.7640   34.3800   54.4680 N   0  0  0  0  0  0  0  0  0  0  0  0
   62.2690   33.6260   53.4430 C   0  0  0  0  0  0  0  0  0  0  0  0
   61.2960   32.7860   53.6370 N   0  0  0  0  0  0  0  0  0  0  0  0
   61.0550   31.6110   52.8520 C   0  0  0  0  0  0  0  0  0  0  0  0
   61.0660   30.4850   53.4180 O   0  0  0  0  0  0  0  0  0  0  0  0
   60.8540   31.7070   51.4320 N   0  0  0  0  0  0  0  0  0  0  0  0
   60.8480   32.6470   50.9740 H   0  0  0  0  0  0  0  0  0  0  0  0
   60.5410   30.5750   50.6120 C   0  0  0  0  0  0  0  0  0  0  0  0
   59.3540   30.5920   49.8700 C   0  0  0  0  0  0  0  0  0  0  0  0
   58.6717   31.4509   49.9524 H   0  0  0  0  0  0  0  0  0  0  0  0
   59.0290   29.5290   49.0270 C   0  0  0  0  0  0  0  0  0  0  0  0
   58.0871   29.5521   48.4593 H   0  0  0  0  0  0  0  0  0  0  0  0
   59.8890   28.4350   48.8970 C   0  0  0  0  0  0  0  0  0  0  0  0
   59.5200   27.4070   48.0110 O   0  0  0  0  0  0  0  0  0  0  0  0
   60.3700   26.8270   47.0220 C   0  0  0  0  0  0  0  0  0  0  0  0
   61.4157   27.0833   47.2475 H   0  0  0  0  0  0  0  0  0  0  0  0
   60.2373   25.7351   47.0336 H   0  0  0  0  0  0  0  0  0  0  0  0
   60.0090   27.3570   45.6290 C   0  0  0  0  0  0  0  0  0  0  0  0
   60.1638   26.5519   44.8956 H   0  0  0  0  0  0  0  0  0  0  0  0
   58.9591   27.6836   45.6606 H   0  0  0  0  0  0  0  0  0  0  0  0
   60.8580   28.5680   45.2150 C   0  0  0  0  0  0  0  0  0  0  0  0
   61.8101   28.5409   45.7652 H   0  0  0  0  0  0  0  0  0  0  0  0
   61.0288   28.5127   44.1297 H   0  0  0  0  0  0  0  0  0  0  0  0
   60.1740   29.8360   45.5080 N   0  0  0  0  0  0  0  0  0  0  0  0
   58.9960   30.3040   45.0000 C   0  0  0  0  0  0  0  0  0  0  0  0
   58.1880   29.6100   43.9180 C   0  0  0  0  0  0  0  0  0  0  0  0
   58.8939   29.3535   43.1143 H   0  0  0  0  0  0  0  0  0  0  0  0
   57.1180   30.5440   43.3260 C   0  0  0  0  0  0  0  0  0  0  0  0
   57.5554   31.5447   43.1942 H   0  0  0  0  0  0  0  0  0  0  0  0
   56.7934   30.1184   42.3650 H   0  0  0  0  0  0  0  0  0  0  0  0
   55.8820   30.6600   44.2310 C   0  0  0  0  0  0  0  0  0  0  0  0
   56.1726   31.1490   45.1725 H   0  0  0  0  0  0  0  0  0  0  0  0
   55.1204   31.2519   43.7022 H   0  0  0  0  0  0  0  0  0  0  0  0
   55.3130   29.3400   44.5340 N   0  0  0  0  0  0  0  0  0  0  0  0
   55.0430   28.8690   43.6390 H   0  0  0  0  0  0  0  0  0  0  0  0
   56.2860   28.4970   45.2390 C   0  0  0  0  0  0  0  0  0  0  0  0
   56.5547   28.9815   46.1893 H   0  0  0  0  0  0  0  0  0  0  0  0
   55.8243   27.5140   45.4139 H   0  0  0  0  0  0  0  0  0  0  0  0
   57.5650   28.2850   44.4080 C   0  0  0  0  0  0  0  0  0  0  0  0
   58.3041   27.7579   45.0292 H   0  0  0  0  0  0  0  0  0  0  0  0
   57.2881   27.7007   43.5181 H   0  0  0  0  0  0  0  0  0  0  0  0
   58.6440   31.5120   45.5160 N   0  0  0  0  0  0  0  0  0  0  0  0
   59.6360   31.7880   46.3770 C   0  0  0  0  0  0  0  0  0  0  0  0
   59.7760   32.9230   47.1700 C   0  0  0  0  0  0  0  0  0  0  0  0
   59.0253   33.7267   47.1470 H   0  0  0  0  0  0  0  0  0  0  0  0
   60.9070   33.0110   48.0020 C   0  0  0  0  0  0  0  0  0  0  0  0
   61.1030   34.4350   49.0120 Cl  0  0  0  0  0  0  0  0  0  0  0  0
   61.8680   31.9650   48.0150 C   0  0  0  0  0  0  0  0  0  0  0  0
   63.2880   32.0500   49.0530 Cl  0  0  0  0  0  0  0  0  0  0  0  0
   61.6980   30.8390   47.1890 C   0  0  0  0  0  0  0  0  0  0  0  0
   62.4382   30.0253   47.1803 H   0  0  0  0  0  0  0  0  0  0  0  0
   60.5600   30.7860   46.3800 C   0  0  0  0  0  0  0  0  0  0  0  0
   61.0860   28.4110   49.6390 C   0  0  0  0  0  0  0  0  0  0  0  0
   61.7547   27.5407   49.5653 H   0  0  0  0  0  0  0  0  0  0  0  0
   61.4350   29.4880   50.4730 C   0  0  0  0  0  0  0  0  0  0  0  0
   62.7610   29.4600   51.1890 C   0  0  0  0  0  0  0  0  0  0  0  0
   62.5910   29.4636   52.2758 H   0  0  0  0  0  0  0  0  0  0  0  0
   63.3109   28.5500   50.9069 H   0  0  0  0  0  0  0  0  0  0  0  0
   63.3488   30.3459   50.9069 H   0  0  0  0  0  0  0  0  0  0  0  0
   62.8390   33.7370   52.1680 C   0  0  0  0  0  0  0  0  0  0  0  0
   62.4690   33.1160   51.3389 H   0  0  0  0  0  0  0  0  0  0  0  0
   63.8810   34.6430   51.9590 C   0  0  0  0  0  0  0  0  0  0  0  0
   64.3183   34.7572   50.9562 H   0  0  0  0  0  0  0  0  0  0  0  0
   64.3680   35.4050   53.0260 C   0  0  0  0  0  0  0  0  0  0  0  0
   65.4700   36.3570   52.8230 C   0  0  0  0  0  0  0  0  0  0  0  0
   65.1950   37.5860   52.7390 O   0  0  0  0  0  0  0  0  0  0  0  0
   66.8410   35.9110   52.7370 N   0  0  0  0  0  0  0  0  0  0  0  0
   67.8160   36.7490   52.0330 C   0  0  0  0  0  0  0  0  0  0  0  0
   68.4377   37.2833   52.7665 H   0  0  0  0  0  0  0  0  0  0  0  0
   68.4565   36.1152   51.4021 H   0  0  0  0  0  0  0  0  0  0  0  0
   67.2856   37.4774   51.4021 H   0  0  0  0  0  0  0  0  0  0  0  0
   67.2570   34.6180   53.3090 C   0  0  0  0  0  0  0  0  0  0  0  0
   68.3469   34.6222   53.4576 H   0  0  0  0  0  0  0  0  0  0  0  0
   66.7426   34.4734   54.2705 H   0  0  0  0  0  0  0  0  0  0  0  0
   66.8870   33.4850   52.3840 C   0  0  0  0  0  0  0  0  0  0  0  0
   67.0770   33.6040   50.9930 C   0  0  0  0  0  0  0  0  0  0  0  0
   67.4912   34.5325   50.5731 H   0  0  0  0  0  0  0  0  0  0  0  0
   66.7400   32.5440   50.1450 C   0  0  0  0  0  0  0  0  0  0  0  0
   66.8941   32.6373   49.0599 H   0  0  0  0  0  0  0  0  0  0  0  0
   66.2060   31.3630   50.6780 C   0  0  0  0  0  0  0  0  0  0  0  0
   65.9521   30.5264   50.0104 H   0  0  0  0  0  0  0  0  0  0  0  0
   65.9950   31.2440   52.0530 C   0  0  0  0  0  0  0  0  0  0  0  0
   65.5676   30.3185   52.4662 H   0  0  0  0  0  0  0  0  0  0  0  0
   66.3280   32.3040   52.9060 C   0  0  0  0  0  0  0  0  0  0  0  0
   66.1518   32.2128   53.9880 H   0  0  0  0  0  0  0  0  0  0  0  0
  1  2  1  0
  2  3  1  0
  3  4  1  0
  4  5  2  0
  5  6  1  0
  6  7  2  0
  6  8  1  0
  8  9  1  0
  8 10  1  0
 10 11  2  0
 11 12  1  0
 11 13  1  0
 13 14  1  0
 13 15  2  0
 15 16  1  0
 16 17  1  0
 17 18  1  0
 17 19  1  0
 17 20  1  0
 20 21  1  0
 20 22  1  0
 20 23  1  0
 23 24  1  0
 23 25  1  0
 23 26  1  0
 26 27  1  0
 27 28  1  0
 28 29  1  0
 28 30  1  0
 30 31  1  0
 30 32  1  0
 30 33  1  0
 33 34  1  0
 33 35  1  0
 33 36  1  0
 36 37  1  0
 36 38  1  0
 38 39  1  0
 38 40  1  0
 38 41  1  0
 41 42  1  0
 41 43  1  0
 27 44  2  0
 44 45  1  0
 45 46  2  0
 46 47  1  0
 46 48  1  0
 48 49  1  0
 48 50  2  0
 50 51  1  0
 50 52  1  0
 52 53  1  0
 52 54  2  0
 15 55  1  0
 55 56  1  0
 55 57  2  0
 57 58  1  0
 58 59  1  0
 58 60  1  0
 58 61  1  0
  4 62  1  0
 62 63  1  0
 62 64  2  0
 64 65  1  0
 64 66  1  0
 66 67  1  0
 67 68  2  0
 67 69  1  0
 69 70  1  0
 70 71  1  0
 70 72  1  0
 70 73  1  0
 69 74  1  0
 74 75  1  0
 74 76  1  0
 74 77  1  0
 77 78  2  0
 78 79  1  0
 78 80  1  0
 80 81  1  0
 80 82  2  0
 82 83  1  0
 82 84  1  0
 84 85  1  0
 84 86  2  0
 86 87  1  0
 66  2  2  0
 86 77  1  0
 57 10  1  0
 54 26  1  0
 41 28  1  0
 54 45  1  0
M  CHG  1   3  -1
M  END
>  <UniqueID>  (58) 
52

>  <SMILES>  (58) 
Cc1cc(OCCCn2c(C3CCNCC3)nc3cc(Cl)c(Cl)cc32)ccc1NC(=O)/N=c1/ccc(C(=O)N(C)Cc2ccccc2)c[n-]1

>  <Energy>  (58) 
142.28204310285633

>  <Genealogy>  (58) 
Cc1cc(OCCCn2c(C3CCNCC3)nc3cc(Cl)c(Cl)cc32)ccc1NC(=O)N=c1ccc(C(=O)N(C)Cc2ccccc2)c[n-]1 (protonated)
Cc1cc(OCCCn2c(C3CCNCC3)nc3cc(Cl)c(Cl)cc32)ccc1NC(=O)/N=c1/ccc(C(=O)N(C)Cc2ccccc2)c[n-]1 (cis-trans isomerization)
Cc1cc(OCCCn2c(C3CCNCC3)nc3cc(Cl)c(Cl)cc32)ccc1NC(=O)/N=c1/ccc(C(=O)N(C)Cc2ccccc2)c[n-]1 (3D coordinates assigned)
Cc1cc(OCCCn2c(C3CCNCC3)nc3cc(Cl)c(Cl)cc32)ccc1NC(=O)/N=c1/ccc(C(=O)N(C)Cc2ccccc2)c[n-]1 (nonaromatic ring conformer: 142.28204310285633 kcal/mol)

>  <smiles>  (58) 
Cc1cc(OCCCn2c(C3CCNCC3)nc3cc(Cl)c(Cl)cc32)ccc1NC(=O)N=c1ccc(C(=O)N(C)Cc2ccccc2)c[nH]1

>  <score_type>  (58) 
oracle

>  <origin>  (58) 
adg

>  <m_score__min__energy>  (58) 
-11.93

>  <m_primary>  (58) 
energy

$$$$
58:0
     RDKit          3D

 32 34  0  0  0  0  0  0  0  0999 V2000
   59.6450   33.8710   50.2290 C   0  0  0  0  0  0  0  0  0  0  0  0
   60.2220   33.7650   48.8570 C   0  0  0  0  0  0  0  0  0  0  0  0
   61.5160   33.2830   48.6810 C   0  0  0  0  0  0  0  0  0  0  0  0
   62.0470   33.1860   47.4110 C   0  0  0  0  0  0  0  0  0  0  0  0
   63.4180   32.6830   47.1360 C   0  0  0  0  0  0  0  0  0  0  0  0
   61.2840   33.5680   46.3720 N   0  0  0  0  0  0  0  0  0  0  0  0
   60.0170   34.0390   46.5630 C   0  0  0  0  0  0  0  0  0  0  0  0
   59.1300   34.5040   45.0790 S   0  0  0  0  0  0  0  0  0  0  0  0
   57.5420   33.6570   45.1170 C   0  0  0  0  0  0  0  0  0  0  0  0
   57.6890   32.1670   45.1210 C   0  0  0  0  0  0  0  0  0  0  0  0
   56.5620   31.4680   44.8650 N   0  0  0  0  0  0  0  0  0  0  0  0
   56.6990   30.1410   44.8700 C   0  0  0  0  0  0  0  0  0  0  0  0
   55.7590   29.3300   44.6520 O   0  0  0  0  0  0  0  0  0  0  0  0
   57.9450   29.5240   45.1270 C   0  0  0  0  0  0  0  0  0  0  0  0
   58.4330   27.8380   45.2010 S   0  0  0  0  0  0  0  0  0  0  0  0
   60.2110   28.2430   45.5920 C   0  0  0  0  0  0  0  0  0  0  0  0
   60.2250   29.6120   45.6200 C   0  0  0  0  0  0  0  0  0  0  0  0
   59.0900   30.2760   45.3880 C   0  0  0  0  0  0  0  0  0  0  0  0
   58.8740   31.6300   45.3670 N   0  0  0  0  0  0  0  0  0  0  0  0
   59.4930   34.1360   47.7900 N   0  0  0  0  0  0  0  0  0  0  0  0
   60.4411   33.7247   50.9739 H   0  0  0  0  0  0  0  0  0  0  0  0
   59.1966   34.8666   50.3623 H   0  0  0  0  0  0  0  0  0  0  0  0
   58.8720   33.0998   50.3623 H   0  0  0  0  0  0  0  0  0  0  0  0
   62.1143   32.9799   49.5529 H   0  0  0  0  0  0  0  0  0  0  0  0
   63.9365   32.4928   48.0873 H   0  0  0  0  0  0  0  0  0  0  0  0
   63.3568   31.7488   46.5586 H   0  0  0  0  0  0  0  0  0  0  0  0
   63.9756   33.4351   46.5586 H   0  0  0  0  0  0  0  0  0  0  0  0
   57.0013   33.9609   46.0255 H   0  0  0  0  0  0  0  0  0  0  0  0
   56.9911   33.9369   44.2070 H   0  0  0  0  0  0  0  0  0  0  0  0
   61.0476   27.5488   45.7598 H   0  0  0  0  0  0  0  0  0  0  0  0
   61.1573   30.1565   45.8305 H   0  0  0  0  0  0  0  0  0  0  0  0
   59.6680   32.3070   45.5500 H   0  0  0  0  0  0  0  0  0  0  0  0
  1  2  1  0
  2  3  2  0
  3  4  1  0
  4  5  1  0
  4  6  2  0
  6  7  1  0
  7  8  1  0
  8  9  1  0
  9 10  1  0
 10 11  2  0
 11 12  1  0
 12 13  2  0
 12 14  1  0
 14 15  1  0
 15 16  1  0
 16 17  2  0
 17 18  1  0
 18 19  1  0
  7 20  2  0
 20  2  1  0
 19 10  1  0
 18 14  2  0
  1 21  1  0
  1 22  1  0
  1 23  1  0
  3 24  1  0
  5 25  1  0
  5 26  1  0
  5 27  1  0
  9 28  1  0
  9 29  1  0
 16 30  1  0
 17 31  1  0
 19 32  1  0
M  END
>  <smiles>  (59) 
Cc1cc(C)nc(SCc2nc(=O)c3sccc3[nH]2)n1

>  <score_type>  (59) 
oracle

>  <origin>  (59) 
adg

>  <m_score__min__energy>  (59) 
-7.5800000000000001

>  <m_primary>  (59) 
energy

$$$$
59:0
     RDKit          3D

 42 44  0  0  0  0  0  0  0  0999 V2000
   60.0160   27.3210   48.4480 O   0  0  0  0  0  0  0  0  0  0  0  0
   59.3720   27.7420   47.4490 C   0  0  0  0  0  0  0  0  0  0  0  0
   58.4150   26.8320   46.7900 C   0  0  0  0  0  0  0  0  0  0  0  0
   57.0670   27.2080   46.6810 C   0  0  0  0  0  0  0  0  0  0  0  0
   56.1390   26.3450   46.0880 C   0  0  0  0  0  0  0  0  0  0  0  0
   54.8030   26.7160   46.0020 O   0  0  0  0  0  0  0  0  0  0  0  0
   56.5550   25.1100   45.5850 C   0  0  0  0  0  0  0  0  0  0  0  0
   57.9000   24.7390   45.6650 C   0  0  0  0  0  0  0  0  0  0  0  0
   58.8340   25.5980   46.2580 C   0  0  0  0  0  0  0  0  0  0  0  0
   60.1740   25.2260   46.2930 O   0  0  0  0  0  0  0  0  0  0  0  0
   59.6010   29.0830   46.9600 N   0  0  0  0  0  0  0  0  0  0  0  0
   60.0220   29.3260   45.5680 C   0  0  0  0  0  0  0  0  0  0  0  0
   58.8540   29.7290   44.7010 C   0  0  0  0  0  0  0  0  0  0  0  0
   58.1060   28.7540   44.0210 C   0  0  0  0  0  0  0  0  0  0  0  0
   57.0060   29.1260   43.2400 C   0  0  0  0  0  0  0  0  0  0  0  0
   56.6480   30.4720   43.1310 C   0  0  0  0  0  0  0  0  0  0  0  0
   57.3910   31.4490   43.7980 C   0  0  0  0  0  0  0  0  0  0  0  0
   58.4930   31.0820   44.5760 C   0  0  0  0  0  0  0  0  0  0  0  0
   59.4110   30.2280   47.8640 C   0  0  0  0  0  0  0  0  0  0  0  0
   60.4490   31.2890   47.6100 C   0  0  0  0  0  0  0  0  0  0  0  0
   61.8150   30.9970   47.7640 C   0  0  0  0  0  0  0  0  0  0  0  0
   62.7800   31.9700   47.4870 C   0  0  0  0  0  0  0  0  0  0  0  0
   62.3900   33.2410   47.0560 C   0  0  0  0  0  0  0  0  0  0  0  0
   63.3510   34.2060   46.7790 O   0  0  0  0  0  0  0  0  0  0  0  0
   61.0330   33.5420   46.9010 C   0  0  0  0  0  0  0  0  0  0  0  0
   60.0650   32.5700   47.1770 C   0  0  0  0  0  0  0  0  0  0  0  0
   56.7387   28.1857   47.0636 H   0  0  0  0  0  0  0  0  0  0  0  0
   55.8234   24.4290   45.1256 H   0  0  0  0  0  0  0  0  0  0  0  0
   58.2262   23.7693   45.2610 H   0  0  0  0  0  0  0  0  0  0  0  0
   60.7710   30.1315   45.5562 H   0  0  0  0  0  0  0  0  0  0  0  0
   60.4450   28.3932   45.1667 H   0  0  0  0  0  0  0  0  0  0  0  0
   58.3860   27.6934   44.1027 H   0  0  0  0  0  0  0  0  0  0  0  0
   56.4226   28.3578   42.7114 H   0  0  0  0  0  0  0  0  0  0  0  0
   55.7808   30.7626   42.5198 H   0  0  0  0  0  0  0  0  0  0  0  0
   57.1086   32.5086   43.7109 H   0  0  0  0  0  0  0  0  0  0  0  0
   59.0803   31.8554   45.0927 H   0  0  0  0  0  0  0  0  0  0  0  0
   58.4109   30.6553   47.6991 H   0  0  0  0  0  0  0  0  0  0  0  0
   59.5119   29.8778   48.9019 H   0  0  0  0  0  0  0  0  0  0  0  0
   62.1264   29.9983   48.1040 H   0  0  0  0  0  0  0  0  0  0  0  0
   63.8477   31.7349   47.6085 H   0  0  0  0  0  0  0  0  0  0  0  0
   60.7267   34.5427   46.5622 H   0  0  0  0  0  0  0  0  0  0  0  0
   58.9984   32.8095   47.0545 H   0  0  0  0  0  0  0  0  0  0  0  0
  1  2  2  0
  2  3  1  0
  3  4  2  0
  4  5  1  0
  5  6  1  0
  5  7  2  0
  7  8  1  0
  8  9  2  0
  9 10  1  0
  2 11  1  0
 11 12  1  0
 12 13  1  0
 13 14  2  0
 14 15  1  0
 15 16  2  0
 16 17  1  0
 17 18  2  0
 11 19  1  0
 19 20  1  0
 20 21  2  0
 21 22  1  0
 22 23  2  0
 23 24  1  0
 23 25  1  0
 25 26  2  0
  9  3  1  0
 18 13  1  0
 26 20  1  0
  4 27  1  0
  7 28  1  0
  8 29  1  0
 12 30  1  0
 12 31  1  0
 14 32  1  0
 15 33  1  0
 16 34  1  0
 17 35  1  0
 18 36  1  0
 19 37  1  0
 19 38  1  0
 21 39  1  0
 22 40  1  0
 25 41  1  0
 26 42  1  0
M  CHG  3   6  -1  10  -1  24  -1
M  END
>  <UniqueID>  (60) 
53

>  <SMILES>  (60) 
O=C(c1cc([O-])ccc1[O-])N(Cc1ccccc1)Cc1ccc([O-])cc1

>  <Energy>  (60) 
47.381668058701315

>  <Genealogy>  (60) 
O=C(c1cc([O-])ccc1[O-])N(Cc1ccccc1)Cc1ccc([O-])cc1 (protonated)
O=C(c1cc([O-])ccc1[O-])N(Cc1ccccc1)Cc1ccc([O-])cc1 (3D coordinates assigned)
O=C(c1cc([O-])ccc1[O-])N(Cc1ccccc1)Cc1ccc([O-])cc1 (optimized conformer: 47.381668058701315 kcal/mol)

>  <smiles>  (60) 
O=C(c1cc(O)ccc1O)N(Cc1ccccc1)Cc1ccc(O)cc1

>  <score_type>  (60) 
oracle

>  <origin>  (60) 
adg

>  <m_score__min__energy>  (60) 
-13.130000000000001

>  <m_primary>  (60) 
energy

$$$$
60:0
     RDKit          3D

 34 36  0  0  0  0  0  0  0  0999 V2000
   60.0968   27.1246   47.2557 H   0  0  0  0  0  0  0  0  0  0  0  0
   59.0560   27.0350   46.9110 C   0  0  0  0  0  0  0  0  0  0  0  0
   58.4380   25.8270   46.9210 N   0  0  0  0  0  0  0  0  0  0  0  0
   57.1800   25.6850   46.5030 N   0  0  0  0  0  0  0  0  0  0  0  0
   56.4570   26.7420   46.0510 C   0  0  0  0  0  0  0  0  0  0  0  0
   55.2750   26.5650   45.6560 O   0  0  0  0  0  0  0  0  0  0  0  0
   57.0310   28.0180   46.0370 C   0  0  0  0  0  0  0  0  0  0  0  0
   56.2680   29.1320   45.5420 N   0  0  0  0  0  0  0  0  0  0  0  0
   56.6090   29.9470   44.5820 C   0  0  0  0  0  0  0  0  0  0  0  0
   57.3410   31.0510   44.8960 N   0  0  0  0  0  0  0  0  0  0  0  0
   57.7340   31.9530   43.9570 C   0  0  0  0  0  0  0  0  0  0  0  0
   58.3209   32.8346   44.2543 H   0  0  0  0  0  0  0  0  0  0  0  0
   57.3940   31.7620   42.6170 C   0  0  0  0  0  0  0  0  0  0  0  0
   57.7025   32.4926   41.8548 H   0  0  0  0  0  0  0  0  0  0  0  0
   56.6580   30.6330   42.2560 C   0  0  0  0  0  0  0  0  0  0  0  0
   56.3861   30.4665   41.2032 H   0  0  0  0  0  0  0  0  0  0  0  0
   56.2670   29.7150   43.2320 C   0  0  0  0  0  0  0  0  0  0  0  0
   55.6965   28.8173   42.9514 H   0  0  0  0  0  0  0  0  0  0  0  0
   58.3660   28.1670   46.4610 C   0  0  0  0  0  0  0  0  0  0  0  0
   59.0290   29.4390   46.3640 N   0  0  0  0  0  0  0  0  0  0  0  0
   59.0840   29.9000   45.4280 H   0  0  0  0  0  0  0  0  0  0  0  0
   59.4510   30.1950   47.5090 C   0  0  0  0  0  0  0  0  0  0  0  0
   59.0720   29.8570   48.6640 O   0  0  0  0  0  0  0  0  0  0  0  0
   60.2510   31.4270   47.3440 C   0  0  0  0  0  0  0  0  0  0  0  0
   61.6500   31.3200   47.2510 C   0  0  0  0  0  0  0  0  0  0  0  0
   62.1251   30.3284   47.2832 H   0  0  0  0  0  0  0  0  0  0  0  0
   62.4410   32.4640   47.1180 C   0  0  0  0  0  0  0  0  0  0  0  0
   63.5351   32.3705   47.0534 H   0  0  0  0  0  0  0  0  0  0  0  0
   61.8460   33.7240   47.0670 C   0  0  0  0  0  0  0  0  0  0  0  0
   62.4713   34.6238   46.9700 H   0  0  0  0  0  0  0  0  0  0  0  0
   60.4560   33.8440   47.1390 C   0  0  0  0  0  0  0  0  0  0  0  0
   59.9901   34.8392   47.0901 H   0  0  0  0  0  0  0  0  0  0  0  0
   59.6520   32.7050   47.2730 C   0  0  0  0  0  0  0  0  0  0  0  0
   57.9040   32.9240   47.2630 Cl  0  0  0  0  0  0  0  0  0  0  0  0
  1  2  1  0
  2  3  2  0
  3  4  1  0
  4  5  1  0
  5  6  2  0
  5  7  1  0
  7  8  1  0
  8  9  2  0
  9 10  1  0
 10 11  1  0
 11 12  1  0
 11 13  2  0
 13 14  1  0
 13 15  1  0
 15 16  1  0
 15 17  2  0
 17 18  1  0
  7 19  2  0
 19 20  1  0
 20 21  1  0
 20 22  1  0
 22 23  2  0
 22 24  1  0
 24 25  2  0
 25 26  1  0
 25 27  1  0
 27 28  1  0
 27 29  2  0
 29 30  1  0
 29 31  1  0
 31 32  1  0
 31 33  2  0
 33 34  1  0
 19  2  1  0
 33 24  1  0
 17  9  1  0
M  CHG  2   4  -1  10  -1
M  END
>  <UniqueID>  (61) 
54

>  <SMILES>  (61) 
O=C(Nc1cn[n-]c(=O)c1/N=c1\cccc[n-]1)c1ccccc1Cl

>  <Energy>  (61) 
58.190230958932126

>  <Genealogy>  (61) 
O=C(Nc1cn[n-]c(=O)c1N=c1cccc[n-]1)c1ccccc1Cl (protonated)
O=C(Nc1cn[n-]c(=O)c1/N=c1\cccc[n-]1)c1ccccc1Cl (cis-trans isomerization)
O=C(Nc1cn[n-]c(=O)c1/N=c1\cccc[n-]1)c1ccccc1Cl (3D coordinates assigned)
O=C(Nc1cn[n-]c(=O)c1/N=c1\cccc[n-]1)c1ccccc1Cl (optimized conformer: 58.190230958932126 kcal/mol)

>  <smiles>  (61) 
O=C(Nc1cn[nH]c(=O)c1N=c1cccc[nH]1)c1ccccc1Cl

>  <score_type>  (61) 
oracle

>  <origin>  (61) 
adg

>  <m_score__min__energy>  (61) 
-10.890000000000001

>  <m_primary>  (61) 
energy

$$$$
61:0
     RDKit          3D

 52 54  0  0  0  0  0  0  0  0999 V2000
   59.7360   29.6640   45.1790 C   0  0  0  0  0  0  0  0  0  0  0  0
   58.4880   28.8880   45.0630 N   0  0  0  0  0  0  0  0  0  0  0  0
   57.5780   29.3990   44.0100 C   0  0  0  0  0  0  0  0  0  0  0  0
   56.3070   30.0490   44.5270 C   0  0  0  0  0  0  0  0  0  0  0  0
   55.3150   29.3350   44.8330 O   0  0  0  0  0  0  0  0  0  0  0  0
   56.2670   31.4410   44.8670 N   0  0  0  0  0  0  0  0  0  0  0  0
   57.3910   32.2810   45.1570 C   0  0  0  0  0  0  0  0  0  0  0  0
   57.9220   33.1470   44.1890 C   0  0  0  0  0  0  0  0  0  0  0  0
   58.9910   33.9890   44.5090 C   0  0  0  0  0  0  0  0  0  0  0  0
   59.5220   33.9870   45.8020 C   0  0  0  0  0  0  0  0  0  0  0  0
   58.9810   33.1460   46.7830 C   0  0  0  0  0  0  0  0  0  0  0  0
   59.6360   33.1830   48.4170 S   0  0  0  0  0  0  0  0  0  0  0  0
   58.5820   32.6780   49.3640 O   0  0  0  0  0  0  0  0  0  0  0  0
   59.9840   34.5960   48.7970 O   0  0  0  0  0  0  0  0  0  0  0  0
   61.0550   32.1580   48.4870 N   0  0  0  0  0  0  0  0  0  0  0  0
   61.7530   32.0920   47.1840 C   0  0  0  0  0  0  0  0  0  0  0  0
   62.9770   33.0230   47.1160 C   0  0  0  0  0  0  0  0  0  0  0  0
   62.7560   34.1800   47.8920 O   0  0  0  0  0  0  0  0  0  0  0  0
   62.7370   33.8490   49.2700 C   0  0  0  0  0  0  0  0  0  0  0  0
   61.9550   32.5510   49.5850 C   0  0  0  0  0  0  0  0  0  0  0  0
   57.9050   32.3060   46.4600 C   0  0  0  0  0  0  0  0  0  0  0  0
   57.8160   28.7040   46.3660 C   0  0  0  0  0  0  0  0  0  0  0  0
   58.8330   28.5580   47.4670 C   0  0  0  0  0  0  0  0  0  0  0  0
   58.9770   29.5690   48.4310 C   0  0  0  0  0  0  0  0  0  0  0  0
   59.9030   29.4270   49.4680 C   0  0  0  0  0  0  0  0  0  0  0  0
   60.6880   28.2740   49.5540 C   0  0  0  0  0  0  0  0  0  0  0  0
   60.5450   27.2590   48.6050 C   0  0  0  0  0  0  0  0  0  0  0  0
   59.6200   27.3970   47.5650 C   0  0  0  0  0  0  0  0  0  0  0  0
   59.9771   29.8139   46.2417 H   0  0  0  0  0  0  0  0  0  0  0  0
   60.5553   29.1158   44.6909 H   0  0  0  0  0  0  0  0  0  0  0  0
   59.6068   30.6413   44.6909 H   0  0  0  0  0  0  0  0  0  0  0  0
   58.1266   30.1449   43.4161 H   0  0  0  0  0  0  0  0  0  0  0  0
   57.2616   28.5241   43.4231 H   0  0  0  0  0  0  0  0  0  0  0  0
   57.4957   33.1634   43.1751 H   0  0  0  0  0  0  0  0  0  0  0  0
   59.4149   34.6541   43.7422 H   0  0  0  0  0  0  0  0  0  0  0  0
   60.3663   34.6471   46.0497 H   0  0  0  0  0  0  0  0  0  0  0  0
   62.0882   31.0578   47.0167 H   0  0  0  0  0  0  0  0  0  0  0  0
   61.0431   32.4206   46.4106 H   0  0  0  0  0  0  0  0  0  0  0  0
   63.8594   32.4909   47.5011 H   0  0  0  0  0  0  0  0  0  0  0  0
   63.1428   33.3201   46.0699 H   0  0  0  0  0  0  0  0  0  0  0  0
   63.7749   33.7211   49.6112 H   0  0  0  0  0  0  0  0  0  0  0  0
   62.2230   34.6698   49.7917 H   0  0  0  0  0  0  0  0  0  0  0  0
   62.6752   31.7381   49.7597 H   0  0  0  0  0  0  0  0  0  0  0  0
   61.3365   32.7393   50.4750 H   0  0  0  0  0  0  0  0  0  0  0  0
   57.4620   31.6629   47.2347 H   0  0  0  0  0  0  0  0  0  0  0  0
   57.1814   29.5783   46.5728 H   0  0  0  0  0  0  0  0  0  0  0  0
   57.2025   27.7919   46.3246 H   0  0  0  0  0  0  0  0  0  0  0  0
   58.3583   30.4765   48.3696 H   0  0  0  0  0  0  0  0  0  0  0  0
   60.0142   30.2241   50.2178 H   0  0  0  0  0  0  0  0  0  0  0  0
   61.4186   28.1657   50.3691 H   0  0  0  0  0  0  0  0  0  0  0  0
   61.1606   26.3501   48.6757 H   0  0  0  0  0  0  0  0  0  0  0  0
   59.5078   26.5944   46.8212 H   0  0  0  0  0  0  0  0  0  0  0  0
  1  2  1  0
  2  3  1  0
  3  4  1  0
  4  5  2  0
  4  6  1  0
  6  7  1  0
  7  8  2  0
  8  9  1  0
  9 10  2  0
 10 11  1  0
 11 12  1  0
 12 13  2  0
 12 14  2  0
 12 15  1  0
 15 16  1  0
 16 17  1  0
 17 18  1  0
 18 19  1  0
 19 20  1  0
 11 21  2  0
  2 22  1  0
 22 23  1  0
 23 24  2  0
 24 25  1  0
 25 26  2  0
 26 27  1  0
 27 28  2  0
 21  7  1  0
 28 23  1  0
 20 15  1  0
  1 29  1  0
  1 30  1  0
  1 31  1  0
  3 32  1  0
  3 33  1  0
  8 34  1  0
  9 35  1  0
 10 36  1  0
 16 37  1  0
 16 38  1  0
 17 39  1  0
 17 40  1  0
 19 41  1  0
 19 42  1  0
 20 43  1  0
 20 44  1  0
 21 45  1  0
 22 46  1  0
 22 47  1  0
 24 48  1  0
 25 49  1  0
 26 50  1  0
 27 51  1  0
 28 52  1  0
M  CHG  1   6  -1
M  END
>  <UniqueID>  (62) 
55

>  <SMILES>  (62) 
CN(CC(=O)[N-]c1cccc(S(=O)(=O)N2CCOCC2)c1)Cc1ccccc1

>  <Energy>  (62) 
74.61253258783282

>  <Genealogy>  (62) 
CN(CC(=O)[N-]c1cccc(S(=O)(=O)N2CCOCC2)c1)Cc1ccccc1 (protonated)
CN(CC(=O)[N-]c1cccc(S(=O)(=O)N2CCOCC2)c1)Cc1ccccc1 (3D coordinates assigned)
CN(CC(=O)[N-]c1cccc(S(=O)(=O)N2CCOCC2)c1)Cc1ccccc1 (nonaromatic ring conformer: 74.61253258783282 kcal/mol)

>  <smiles>  (62) 
CN(CC(=O)Nc1cccc(S(=O)(=O)N2CCOCC2)c1)Cc1ccccc1

>  <score_type>  (62) 
oracle

>  <origin>  (62) 
adg

>  <m_score__min__energy>  (62) 
-11.24

>  <m_primary>  (62) 
energy

$$$$
62:0
     RDKit          3D

 46 48  0  0  0  0  0  0  0  0999 V2000
   56.7160   29.0240   44.6970 C   0  0  0  0  0  0  0  0  0  0  0  0
   57.4970   30.0430   45.0390 C   0  0  0  0  0  0  0  0  0  0  0  0
   57.3670   31.4450   44.5460 C   0  0  0  0  0  0  0  0  0  0  0  0
   58.5240   32.2060   45.2640 C   0  0  1  0  0  0  0  0  0  0  0  0
   58.0160   33.3870   46.1150 C   0  0  1  0  0  0  0  0  0  0  0  0
   57.9680   33.0030   47.4700 O   0  0  0  0  0  0  0  0  0  0  0  0
   58.9470   34.5720   45.9640 C   0  0  0  0  0  0  0  0  0  0  0  0
   59.7950   35.0420   46.9100 C   0  0  0  0  0  0  0  0  0  0  0  0
   60.7540   34.2230   47.7460 C   0  0  1  0  0  0  0  0  0  0  0  0
   60.0700   33.3110   48.5800 O   0  0  0  0  0  0  0  0  0  0  0  0
   60.8050   32.0940   48.6140 C   0  0  2  0  0  0  0  0  0  0  0  0
   59.8790   31.0290   48.5480 O   0  0  0  0  0  0  0  0  0  0  0  0
   61.5720   32.0430   49.9590 C   0  0  0  0  0  0  0  0  0  0  0  0
   61.1380   33.4430   51.0570 S   0  0  0  0  0  0  0  0  0  0  0  0
   59.5230   32.7930   51.4920 C   0  0  0  0  0  0  0  0  0  0  0  0
   59.2140   32.5540   52.8370 C   0  0  0  0  0  0  0  0  0  0  0  0
   57.9710   32.0120   53.1660 C   0  0  0  0  0  0  0  0  0  0  0  0
   57.0530   31.7190   52.1610 C   0  0  0  0  0  0  0  0  0  0  0  0
   57.3930   31.9720   50.8280 C   0  0  0  0  0  0  0  0  0  0  0  0
   58.6110   32.4960   50.5180 N   0  0  0  0  0  0  0  0  0  0  0  0
   61.7730   32.0610   47.3990 C   0  0  0  0  0  0  0  0  0  0  0  0
   61.7020   33.4430   46.9330 C   0  0  0  0  0  0  0  0  0  0  0  0
   62.3840   33.9010   46.0290 O   0  0  0  0  0  0  0  0  0  0  0  0
   59.1830   31.2410   46.0860 O   0  0  0  0  0  0  0  0  0  0  0  0
   58.6050   29.9970   45.9600 C   0  0  0  0  0  0  0  0  0  0  0  0
   59.0020   28.9770   46.5810 O   0  0  0  0  0  0  0  0  0  0  0  0
   56.8984   28.0251   45.1200 H   0  0  0  0  0  0  0  0  0  0  0  0
   55.8870   29.1792   43.9908 H   0  0  0  0  0  0  0  0  0  0  0  0
   57.4892   31.4883   43.4537 H   0  0  0  0  0  0  0  0  0  0  0  0
   56.3788   31.8788   44.7587 H   0  0  0  0  0  0  0  0  0  0  0  0
   59.2036   32.6486   44.5208 H   0  0  0  0  0  0  0  0  0  0  0  0
   57.0098   33.6701   45.7724 H   0  0  0  0  0  0  0  0  0  0  0  0
   58.5360   32.1930   47.5600 H   0  0  0  0  0  0  0  0  0  0  0  0
   58.9333   35.0988   44.9985 H   0  0  0  0  0  0  0  0  0  0  0  0
   59.7855   36.1274   47.0882 H   0  0  0  0  0  0  0  0  0  0  0  0
   61.3065   34.9618   48.3451 H   0  0  0  0  0  0  0  0  0  0  0  0
   59.8360   30.7120   47.6100 H   0  0  0  0  0  0  0  0  0  0  0  0
   61.3258   31.1014   50.4716 H   0  0  0  0  0  0  0  0  0  0  0  0
   62.6473   32.1090   49.7370 H   0  0  0  0  0  0  0  0  0  0  0  0
   59.9434   32.7910   53.6255 H   0  0  0  0  0  0  0  0  0  0  0  0
   57.7167   31.8164   54.2182 H   0  0  0  0  0  0  0  0  0  0  0  0
   56.0706   31.2930   52.4127 H   0  0  0  0  0  0  0  0  0  0  0  0
   56.6736   31.7468   50.0269 H   0  0  0  0  0  0  0  0  0  0  0  0
   58.8470   32.6730   49.5180 H   0  0  0  0  0  0  0  0  0  0  0  0
   62.7945   31.7925   47.7062 H   0  0  0  0  0  0  0  0  0  0  0  0
   61.5082   31.3157   46.6346 H   0  0  0  0  0  0  0  0  0  0  0  0
  1  2  2  0
  2  3  1  0
  3  4  1  0
  4  5  1  0
  5  6  1  0
  5  7  1  0
  7  8  2  3
  8  9  1  0
  9 10  1  0
 10 11  1  0
 11 12  1  6
 11 13  1  0
 13 14  1  0
 14 15  1  0
 15 16  2  0
 16 17  1  0
 17 18  2  0
 18 19  1  0
 19 20  2  0
 11 21  1  0
 21 22  1  0
 22 23  2  0
  4 24  1  0
 24 25  1  0
 25 26  2  0
 25  2  1  0
 22  9  1  0
 20 15  1  0
  1 27  1  0
  1 28  1  0
  3 29  1  0
  3 30  1  0
  4 31  1  6
  5 32  1  6
  6 33  1  0
  7 34  1  0
  8 35  1  0
  9 36  1  1
 12 37  1  0
 13 38  1  0
 13 39  1  0
 16 40  1  0
 17 41  1  0
 18 42  1  0
 19 43  1  0
 20 44  1  0
 21 45  1  0
 21 46  1  0
M  CHG  1  20   1
M  END
>  <UniqueID>  (63) 
56

>  <SMILES>  (63) 
C=C1C[C@@H]([C@@H](O)C=CC2OC(O)(CSc3cccc[nH+]3)CC2=O)OC1=O

>  <Energy>  (63) 
58.76147739693405

>  <Genealogy>  (63) 
C=C1CC(C(O)C=CC2OC(O)(CSc3cccc[nH+]3)CC2=O)OC1=O (protonated)
C=C1C[C@@H]([C@@H](O)C=CC2OC(O)(CSc3cccc[nH+]3)CC2=O)OC1=O (chirality)
C=C1C[C@@H]([C@@H](O)C=CC2OC(O)(CSc3cccc[nH+]3)CC2=O)OC1=O (3D coordinates assigned)
C=C1C[C@@H]([C@@H](O)C=CC2OC(O)(CSc3cccc[nH+]3)CC2=O)OC1=O (nonaromatic ring conformer: 58.76147739693405 kcal/mol)

>  <smiles>  (63) 
C=C1CC(C(O)C=CC2OC(O)(CSc3ccccn3)CC2=O)OC1=O

>  <score_type>  (63) 
oracle

>  <origin>  (63) 
adg

>  <m_score__min__energy>  (63) 
-4.6799999999999997

>  <m_primary>  (63) 
energy

$$$$
63:0
     RDKit          3D

 62 65  0  0  0  0  0  0  0  0999 V2000
   55.0390   26.3150   45.9040 O   0  0  0  0  0  0  0  0  0  0  0  0
   56.2130   26.1260   46.3270 C   0  0  0  0  0  0  0  0  0  0  0  0
   56.4440   25.2060   47.3980 N   0  0  0  0  0  0  0  0  0  0  0  0
   56.6130   23.7720   47.2040 C   0  0  0  0  0  0  0  0  0  0  0  0
   57.3860   23.5000   45.9050 C   0  0  0  0  0  0  0  0  0  0  0  0
   56.8080   22.3630   45.1550 N   0  0  0  0  0  0  0  0  0  0  0  0
   57.7790   21.7890   44.1920 C   0  0  0  0  0  0  0  0  0  0  0  0
   57.0640   21.0810   43.0310 C   0  0  0  0  0  0  0  0  0  0  0  0
   56.2270   21.9410   42.2700 O   0  0  0  0  0  0  0  0  0  0  0  0
   55.6890   23.0250   43.0160 C   0  0  0  0  0  0  0  0  0  0  0  0
   55.5200   22.7250   44.5160 C   0  0  0  0  0  0  0  0  0  0  0  0
   57.3540   26.9160   45.7300 C   0  0  1  0  0  0  0  0  0  0  0  0
   57.4020   28.3620   46.2780 C   0  0  0  0  0  0  0  0  0  0  0  0
   57.3440   29.3930   45.1790 C   0  0  0  0  0  0  0  0  0  0  0  0
   58.0030   30.6230   45.3240 C   0  0  0  0  0  0  0  0  0  0  0  0
   57.9780   31.5630   44.2880 C   0  0  0  0  0  0  0  0  0  0  0  0
   57.2990   31.2790   43.1010 C   0  0  0  0  0  0  0  0  0  0  0  0
   56.6440   30.0550   42.9470 C   0  0  0  0  0  0  0  0  0  0  0  0
   56.6680   29.1130   43.9790 C   0  0  0  0  0  0  0  0  0  0  0  0
   58.6410   26.2370   45.9330 N   0  0  0  0  0  0  0  0  0  0  0  0
   59.8030   26.8230   45.9040 C   0  0  0  0  0  0  0  0  0  0  0  0
   60.2130   27.8010   46.9440 C   0  0  0  0  0  0  0  0  0  0  0  0
   60.1190   27.4460   48.2980 C   0  0  0  0  0  0  0  0  0  0  0  0
   59.6600   26.1890   48.6790 O   0  0  0  0  0  0  0  0  0  0  0  0
   60.4690   28.3330   49.2600 N   0  0  0  0  0  0  0  0  0  0  0  0
   60.9220   29.5720   48.9520 C   0  0  0  0  0  0  0  0  0  0  0  0
   61.2090   30.3670   49.8890 O   0  0  0  0  0  0  0  0  0  0  0  0
   61.0480   29.9570   47.6450 N   0  0  0  0  0  0  0  0  0  0  0  0
   61.5420   31.2760   47.3260 C   0  0  0  0  0  0  0  0  0  0  0  0
   60.6590   32.2790   46.8910 C   0  0  0  0  0  0  0  0  0  0  0  0
   61.1400   33.5570   46.5900 C   0  0  0  0  0  0  0  0  0  0  0  0
   62.5030   33.8410   46.7200 C   0  0  0  0  0  0  0  0  0  0  0  0
   63.3880   32.8480   47.1490 C   0  0  0  0  0  0  0  0  0  0  0  0
   62.9100   31.5690   47.4550 C   0  0  0  0  0  0  0  0  0  0  0  0
   60.7030   29.0890   46.6380 C   0  0  0  0  0  0  0  0  0  0  0  0
   60.8420   29.4400   45.4330 O   0  0  0  0  0  0  0  0  0  0  0  0
   57.1722   23.3538   48.0539 H   0  0  0  0  0  0  0  0  0  0  0  0
   55.6219   23.2995   47.1375 H   0  0  0  0  0  0  0  0  0  0  0  0
   57.3499   24.3997   45.2731 H   0  0  0  0  0  0  0  0  0  0  0  0
   58.4234   23.2464   46.1687 H   0  0  0  0  0  0  0  0  0  0  0  0
   58.4034   22.5991   43.7872 H   0  0  0  0  0  0  0  0  0  0  0  0
   58.3962   21.0486   44.7220 H   0  0  0  0  0  0  0  0  0  0  0  0
   57.8257   20.6550   42.3614 H   0  0  0  0  0  0  0  0  0  0  0  0
   56.4170   20.3090   43.4730 H   0  0  0  0  0  0  0  0  0  0  0  0
   56.3630   23.8877   42.9089 H   0  0  0  0  0  0  0  0  0  0  0  0
   54.6842   23.2224   42.6141 H   0  0  0  0  0  0  0  0  0  0  0  0
   55.1144   23.6180   45.0140 H   0  0  0  0  0  0  0  0  0  0  0  0
   54.8360   21.8696   44.6181 H   0  0  0  0  0  0  0  0  0  0  0  0
   57.1689   26.9775   44.6474 H   0  0  0  0  0  0  0  0  0  0  0  0
   56.5452   28.5138   46.9510 H   0  0  0  0  0  0  0  0  0  0  0  0
   58.3572   28.4892   46.8085 H   0  0  0  0  0  0  0  0  0  0  0  0
   58.5416   30.8493   46.2561 H   0  0  0  0  0  0  0  0  0  0  0  0
   58.4938   32.5270   44.4085 H   0  0  0  0  0  0  0  0  0  0  0  0
   57.2801   32.0192   42.2875 H   0  0  0  0  0  0  0  0  0  0  0  0
   56.1086   29.8323   42.0123 H   0  0  0  0  0  0  0  0  0  0  0  0
   56.1555   28.1481   43.8516 H   0  0  0  0  0  0  0  0  0  0  0  0
   60.5005   26.5874   45.0867 H   0  0  0  0  0  0  0  0  0  0  0  0
   59.5864   32.0581   46.7870 H   0  0  0  0  0  0  0  0  0  0  0  0
   60.4455   34.3397   46.2506 H   0  0  0  0  0  0  0  0  0  0  0  0
   62.8792   34.8474   46.4843 H   0  0  0  0  0  0  0  0  0  0  0  0
   64.4606   33.0720   47.2461 H   0  0  0  0  0  0  0  0  0  0  0  0
   63.6075   30.7905   47.7976 H   0  0  0  0  0  0  0  0  0  0  0  0
  1  2  2  0
  2  3  1  0
  3  4  1  0
  4  5  1  0
  5  6  1  0
  6  7  1  0
  7  8  1  0
  8  9  1  0
  9 10  1  0
 10 11  1  0
  2 12  1  0
 12 13  1  0
 13 14  1  0
 14 15  2  0
 15 16  1  0
 16 17  2  0
 17 18  1  0
 18 19  2  0
 12 20  1  0
 20 21  2  3
 21 22  1  0
 22 23  2  0
 23 24  1  0
 23 25  1  0
 25 26  1  0
 26 27  2  0
 26 28  1  0
 28 29  1  0
 29 30  2  0
 30 31  1  0
 31 32  2  0
 32 33  1  0
 33 34  2  0
 28 35  1  0
 35 36  2  0
 11  6  1  0
 19 14  1  0
 35 22  1  0
 34 29  1  0
  4 37  1  0
  4 38  1  0
  5 39  1  0
  5 40  1  0
  7 41  1  0
  7 42  1  0
  8 43  1  0
  8 44  1  0
 10 45  1  0
 10 46  1  0
 11 47  1  0
 11 48  1  0
 12 49  1  6
 13 50  1  0
 13 51  1  0
 15 52  1  0
 16 53  1  0
 17 54  1  0
 18 55  1  0
 19 56  1  0
 21 57  1  0
 30 58  1  0
 31 59  1  0
 32 60  1  0
 33 61  1  0
 34 62  1  0
M  CHG  3   3  -1  24  -1  25  -1
M  END
>  <UniqueID>  (64) 
57

>  <SMILES>  (64) 
O=C([N-]CCN1CCOCC1)[C@@H](Cc1ccccc1)N=Cc1c([O-])[n-]c(=O)n(-c2ccccc2)c1=O

>  <Energy>  (64) 
86.63186987146004

>  <Genealogy>  (64) 
O=C([N-]CCN1CCOCC1)C(Cc1ccccc1)N=Cc1c([O-])[n-]c(=O)n(-c2ccccc2)c1=O (protonated)
O=C([N-]CCN1CCOCC1)[C@@H](Cc1ccccc1)N=Cc1c([O-])[n-]c(=O)n(-c2ccccc2)c1=O (chirality)
O=C([N-]CCN1CCOCC1)[C@@H](Cc1ccccc1)N=Cc1c([O-])[n-]c(=O)n(-c2ccccc2)c1=O (3D coordinates assigned)
O=C([N-]CCN1CCOCC1)[C@@H](Cc1ccccc1)N=Cc1c([O-])[n-]c(=O)n(-c2ccccc2)c1=O (nonaromatic ring conformer: 86.63186987146004 kcal/mol)

>  <smiles>  (64) 
O=C(NCCN1CCOCC1)C(Cc1ccccc1)N=Cc1c(O)[nH]c(=O)n(-c2ccccc2)c1=O

>  <score_type>  (64) 
oracle

>  <origin>  (64) 
adg

>  <m_score__min__energy>  (64) 
-14.41

>  <m_primary>  (64) 
energy

$$$$
64:0
     RDKit          3D

 52 54  0  0  0  0  0  0  0  0999 V2000
   58.1500   32.2860   43.1420 C   0  0  0  0  0  0  0  0  0  0  0  0
   57.3220   32.4610   44.4120 C   0  0  1  0  0  0  0  0  0  0  0  0
   57.2400   31.1830   45.1170 N   0  0  0  0  0  0  0  0  0  0  0  0
   56.4150   30.0930   44.6880 C   0  0  0  0  0  0  0  0  0  0  0  0
   55.1800   30.2770   44.5010 O   0  0  0  0  0  0  0  0  0  0  0  0
   57.0070   28.7530   44.4680 C   0  0  0  0  0  0  0  0  0  0  0  0
   57.5770   28.4180   43.2270 C   0  0  0  0  0  0  0  0  0  0  0  0
   58.1360   27.1530   43.0230 C   0  0  0  0  0  0  0  0  0  0  0  0
   58.1350   26.2110   44.0530 C   0  0  0  0  0  0  0  0  0  0  0  0
   57.5750   26.5290   45.2960 C   0  0  0  0  0  0  0  0  0  0  0  0
   57.5920   25.3600   46.6160 S   0  0  0  0  0  0  0  0  0  0  0  0
   58.0720   24.0240   46.1230 O   0  0  0  0  0  0  0  0  0  0  0  0
   56.1900   25.2010   47.1320 O   0  0  0  0  0  0  0  0  0  0  0  0
   58.6170   25.8980   47.9180 N   0  0  0  0  0  0  0  0  0  0  0  0
   59.9200   26.3550   47.4270 C   0  0  0  0  0  0  0  0  0  0  0  0
   59.9090   27.8320   47.1360 C   0  0  0  0  0  0  0  0  0  0  0  0
   60.3780   28.3110   45.9020 C   0  0  0  0  0  0  0  0  0  0  0  0
   60.3580   29.6810   45.6250 C   0  0  0  0  0  0  0  0  0  0  0  0
   59.8720   30.5810   46.5770 C   0  0  0  0  0  0  0  0  0  0  0  0
   59.4080   30.1130   47.8090 C   0  0  0  0  0  0  0  0  0  0  0  0
   59.4270   28.7430   48.0910 C   0  0  0  0  0  0  0  0  0  0  0  0
   57.0110   27.7950   45.5000 C   0  0  0  0  0  0  0  0  0  0  0  0
   57.9460   33.5090   45.2940 C   0  0  0  0  0  0  0  0  0  0  0  0
   58.1000   34.6830   44.8570 O   0  0  0  0  0  0  0  0  0  0  0  0
   58.3240   33.1870   46.6380 N   0  0  0  0  0  0  0  0  0  0  0  0
   58.9600   34.1730   47.5070 C   0  0  0  0  0  0  0  0  0  0  0  0
   60.4430   33.9820   47.5250 C   0  0  0  0  0  0  0  0  0  0  0  0
   61.2530   33.8010   46.4120 C   0  0  0  0  0  0  0  0  0  0  0  0
   62.5940   33.5680   46.7400 C   0  0  0  0  0  0  0  0  0  0  0  0
   62.8390   33.5510   48.1080 C   0  0  0  0  0  0  0  0  0  0  0  0
   61.3840   33.8210   48.9090 S   0  0  0  0  0  0  0  0  0  0  0  0
   59.1933   32.0655   43.4120 H   0  0  0  0  0  0  0  0  0  0  0  0
   57.7410   31.4545   42.5493 H   0  0  0  0  0  0  0  0  0  0  0  0
   58.1125   33.2119   42.5493 H   0  0  0  0  0  0  0  0  0  0  0  0
   56.3068   32.7907   44.1460 H   0  0  0  0  0  0  0  0  0  0  0  0
   57.5831   29.1561   42.4114 H   0  0  0  0  0  0  0  0  0  0  0  0
   58.5778   26.8993   42.0481 H   0  0  0  0  0  0  0  0  0  0  0  0
   58.5752   25.2166   43.8877 H   0  0  0  0  0  0  0  0  0  0  0  0
   60.6837   26.1462   48.1906 H   0  0  0  0  0  0  0  0  0  0  0  0
   60.1458   25.8194   46.4931 H   0  0  0  0  0  0  0  0  0  0  0  0
   60.7625   27.6056   45.1507 H   0  0  0  0  0  0  0  0  0  0  0  0
   60.7253   30.0510   44.6564 H   0  0  0  0  0  0  0  0  0  0  0  0
   59.8547   31.6585   46.3564 H   0  0  0  0  0  0  0  0  0  0  0  0
   59.0273   30.8228   48.5582 H   0  0  0  0  0  0  0  0  0  0  0  0
   59.0636   28.3779   49.0629 H   0  0  0  0  0  0  0  0  0  0  0  0
   56.5671   28.0430   46.4754 H   0  0  0  0  0  0  0  0  0  0  0  0
   58.1410   32.2190   46.9920 H   0  0  0  0  0  0  0  0  0  0  0  0
   58.7303   35.1828   47.1363 H   0  0  0  0  0  0  0  0  0  0  0  0
   58.5742   34.0452   48.5292 H   0  0  0  0  0  0  0  0  0  0  0  0
   60.8793   33.8370   45.3780 H   0  0  0  0  0  0  0  0  0  0  0  0
   63.3798   33.4130   45.9860 H   0  0  0  0  0  0  0  0  0  0  0  0
   63.8167   33.3888   48.5854 H   0  0  0  0  0  0  0  0  0  0  0  0
  1  2  1  0
  2  3  1  0
  3  4  1  0
  4  5  2  0
  4  6  1  0
  6  7  2  0
  7  8  1  0
  8  9  2  0
  9 10  1  0
 10 11  1  0
 11 12  2  0
 11 13  2  0
 11 14  1  0
 14 15  1  0
 15 16  1  0
 16 17  2  0
 17 18  1  0
 18 19  2  0
 19 20  1  0
 20 21  2  0
 10 22  2  0
  2 23  1  0
 23 24  2  0
 23 25  1  0
 25 26  1  0
 26 27  1  0
 27 28  2  0
 28 29  1  0
 29 30  2  0
 30 31  1  0
 22  6  1  0
 31 27  1  0
 21 16  1  0
  1 32  1  0
  1 33  1  0
  1 34  1  0
  2 35  1  6
  7 36  1  0
  8 37  1  0
  9 38  1  0
 15 39  1  0
 15 40  1  0
 17 41  1  0
 18 42  1  0
 19 43  1  0
 20 44  1  0
 21 45  1  0
 22 46  1  0
 25 47  1  0
 26 48  1  0
 26 49  1  0
 28 50  1  0
 29 51  1  0
 30 52  1  0
M  CHG  2   3  -1  14  -1
M  END
>  <UniqueID>  (65) 
58

>  <SMILES>  (65) 
C[C@@H]([N-]C(=O)c1cccc(S(=O)(=O)[N-]Cc2ccccc2)c1)C(=O)NCc1cccs1

>  <Energy>  (65) 
70.95402940525796

>  <Genealogy>  (65) 
CC([N-]C(=O)c1cccc(S(=O)(=O)[N-]Cc2ccccc2)c1)C(=O)NCc1cccs1 (protonated)
C[C@@H]([N-]C(=O)c1cccc(S(=O)(=O)[N-]Cc2ccccc2)c1)C(=O)NCc1cccs1 (chirality)
C[C@@H]([N-]C(=O)c1cccc(S(=O)(=O)[N-]Cc2ccccc2)c1)C(=O)NCc1cccs1 (3D coordinates assigned)
C[C@@H]([N-]C(=O)c1cccc(S(=O)(=O)[N-]Cc2ccccc2)c1)C(=O)NCc1cccs1 (optimized conformer: 70.95402940525796 kcal/mol)

>  <smiles>  (65) 
CC(NC(=O)c1cccc(S(=O)(=O)NCc2ccccc2)c1)C(=O)NCc1cccs1

>  <score_type>  (65) 
oracle

>  <origin>  (65) 
adg

>  <m_score__min__energy>  (65) 
-12.220000000000001

>  <m_primary>  (65) 
energy

$$$$
65:0
     RDKit          3D

 39 40  0  0  0  0  0  0  0  0999 V2000
   55.4970   29.7760   44.8350 O   0  0  0  0  0  0  0  0  0  0  0  0
   56.4870   30.4890   44.5230 C   0  0  0  0  0  0  0  0  0  0  0  0
   57.5360   29.9330   43.7270 N   0  0  0  0  0  0  0  0  0  0  0  0
   58.9100   29.8450   44.2110 C   0  0  0  0  0  0  0  0  0  0  0  0
   58.9950   28.9360   45.4500 C   0  0  0  0  0  0  0  0  0  0  0  0
   57.8730   27.8900   45.4960 C   0  0  0  0  0  0  0  0  0  0  0  0
   58.0310   26.8600   44.4030 C   0  0  0  0  0  0  0  0  0  0  0  0
   57.5310   25.6150   44.4240 C   0  0  0  0  0  0  0  0  0  0  0  0
   56.9600   24.9410   45.6010 C   0  0  0  0  0  0  0  0  0  0  0  0
   57.5730   23.9210   46.2270 N   0  0  0  0  0  0  0  0  0  0  0  0
   56.7790   23.6810   47.2930 C   0  0  0  0  0  0  0  0  0  0  0  0
   57.0210   22.7700   48.1260 O   0  0  0  0  0  0  0  0  0  0  0  0
   55.7130   24.5020   47.4010 N   0  0  0  0  0  0  0  0  0  0  0  0
   55.8480   25.3030   46.3300 C   0  0  0  0  0  0  0  0  0  0  0  0
   55.0000   26.3680   46.0550 O   0  0  0  0  0  0  0  0  0  0  0  0
   56.5800   31.8140   44.9610 O   0  0  0  0  0  0  0  0  0  0  0  0
   57.4310   32.7830   44.3630 C   0  0  0  0  0  0  0  0  0  0  0  0
   58.1550   33.5170   45.4540 C   0  0  0  0  0  0  0  0  0  0  0  0
   58.1170   33.0350   46.7730 C   0  0  0  0  0  0  0  0  0  0  0  0
   58.8480   33.6740   47.7770 C   0  0  0  0  0  0  0  0  0  0  0  0
   59.6330   34.7890   47.4710 C   0  0  0  0  0  0  0  0  0  0  0  0
   59.6920   35.2620   46.1570 C   0  0  0  0  0  0  0  0  0  0  0  0
   58.9610   34.6250   45.1480 C   0  0  0  0  0  0  0  0  0  0  0  0
   59.5469   29.4310   43.4154 H   0  0  0  0  0  0  0  0  0  0  0  0
   59.2516   30.8531   44.4888 H   0  0  0  0  0  0  0  0  0  0  0  0
   59.9628   28.4134   45.4372 H   0  0  0  0  0  0  0  0  0  0  0  0
   58.8894   29.5755   46.3388 H   0  0  0  0  0  0  0  0  0  0  0  0
   57.8974   27.3824   46.4716 H   0  0  0  0  0  0  0  0  0  0  0  0
   56.9134   28.4067   45.3471 H   0  0  0  0  0  0  0  0  0  0  0  0
   58.6055   27.1559   43.5129 H   0  0  0  0  0  0  0  0  0  0  0  0
   57.5495   25.0497   43.4805 H   0  0  0  0  0  0  0  0  0  0  0  0
   54.3520   26.7070   46.7550 H   0  0  0  0  0  0  0  0  0  0  0  0
   58.1580   32.2836   43.7057 H   0  0  0  0  0  0  0  0  0  0  0  0
   56.8370   33.4883   43.7632 H   0  0  0  0  0  0  0  0  0  0  0  0
   57.5092   32.1510   47.0160 H   0  0  0  0  0  0  0  0  0  0  0  0
   58.8058   33.2990   48.8103 H   0  0  0  0  0  0  0  0  0  0  0  0
   60.2042   35.2942   48.2638 H   0  0  0  0  0  0  0  0  0  0  0  0
   60.3141   36.1365   45.9157 H   0  0  0  0  0  0  0  0  0  0  0  0
   59.0180   34.9932   44.1130 H   0  0  0  0  0  0  0  0  0  0  0  0
  1  2  2  0
  2  3  1  0
  3  4  1  0
  4  5  1  0
  5  6  1  0
  6  7  1  0
  7  8  2  3
  8  9  1  0
  9 10  1  0
 10 11  1  0
 11 12  2  0
 11 13  1  0
 13 14  1  0
 14 15  1  0
  2 16  1  0
 16 17  1  0
 17 18  1  0
 18 19  2  0
 19 20  1  0
 20 21  2  0
 21 22  1  0
 22 23  2  0
 14  9  2  0
 23 18  1  0
  4 24  1  0
  4 25  1  0
  5 26  1  0
  5 27  1  0
  6 28  1  0
  6 29  1  0
  7 30  1  0
  8 31  1  0
 15 32  1  0
 17 33  1  0
 17 34  1  0
 19 35  1  0
 20 36  1  0
 21 37  1  0
 22 38  1  0
 23 39  1  0
M  CHG  3   3  -1  10  -1  13  -1
M  END
>  <UniqueID>  (66) 
59

>  <SMILES>  (66) 
O=C([N-]CCCC=Cc1[n-]c(=O)[n-]c1O)OCc1ccccc1

>  <Energy>  (66) 
62.16780122321479

>  <Genealogy>  (66) 
O=C([N-]CCCC=Cc1[n-]c(=O)[n-]c1O)OCc1ccccc1 (protonated)
O=C([N-]CCCC=Cc1[n-]c(=O)[n-]c1O)OCc1ccccc1 (3D coordinates assigned)
O=C([N-]CCCC=Cc1[n-]c(=O)[n-]c1O)OCc1ccccc1 (optimized conformer: 62.16780122321479 kcal/mol)

>  <smiles>  (66) 
O=C(NCCCC=Cc1[nH]c(=O)[nH]c1O)OCc1ccccc1

>  <score_type>  (66) 
oracle

>  <origin>  (66) 
adg

>  <m_score__min__energy>  (66) 
-13.619999999999999

>  <m_primary>  (66) 
energy

$$$$
66:0
     RDKit          3D

 45 47  0  0  0  0  0  0  0  0999 V2000
   56.2980   22.4150   48.3390 C   0  0  0  0  0  0  0  0  0  0  0  0
   57.4090   23.0290   47.6940 O   0  0  0  0  0  0  0  0  0  0  0  0
   57.3830   24.2960   47.0910 C   0  0  0  0  0  0  0  0  0  0  0  0
   56.1430   24.8680   46.8180 C   0  0  0  0  0  0  0  0  0  0  0  0
   56.0450   26.1280   46.2250 C   0  0  0  0  0  0  0  0  0  0  0  0
   54.7740   26.6400   45.9910 O   0  0  0  0  0  0  0  0  0  0  0  0
   57.2160   26.8500   45.8810 C   0  0  0  0  0  0  0  0  0  0  0  0
   57.1540   28.1340   45.2890 C   0  0  0  0  0  0  0  0  0  0  0  0
   55.9080   28.7170   45.0250 O   0  0  0  0  0  0  0  0  0  0  0  0
   58.3450   28.8250   44.9690 C   0  0  0  0  0  0  0  0  0  0  0  0
   58.2610   30.2000   44.4300 C   0  0  0  0  0  0  0  0  0  0  0  0
   57.5640   30.4210   43.4050 O   0  0  0  0  0  0  0  0  0  0  0  0
   58.9080   31.2940   45.0880 N   0  0  0  0  0  0  0  0  0  0  0  0
   58.4930   31.8270   46.3840 C   0  0  0  0  0  0  0  0  0  0  0  0
   59.7020   32.3090   47.1330 C   0  0  0  0  0  0  0  0  0  0  0  0
   60.8850   31.5580   47.1360 C   0  0  0  0  0  0  0  0  0  0  0  0
   62.0100   32.0130   47.8350 C   0  0  0  0  0  0  0  0  0  0  0  0
   61.9740   33.2420   48.5190 C   0  0  0  0  0  0  0  0  0  0  0  0
   63.1600   33.7100   49.3260 C   0  0  0  0  0  0  0  0  0  0  0  0
   63.3790   32.8260   50.3690 F   0  0  0  0  0  0  0  0  0  0  0  0
   64.2990   33.7700   48.5370 F   0  0  0  0  0  0  0  0  0  0  0  0
   62.9220   34.9710   49.8480 F   0  0  0  0  0  0  0  0  0  0  0  0
   60.7830   33.9900   48.5160 C   0  0  0  0  0  0  0  0  0  0  0  0
   59.6600   33.5330   47.8190 C   0  0  0  0  0  0  0  0  0  0  0  0
   59.6010   28.2270   45.2030 C   0  0  0  0  0  0  0  0  0  0  0  0
   60.8750   28.9760   44.8860 C   0  0  0  0  0  0  0  0  0  0  0  0
   59.6620   26.9560   45.8030 C   0  0  0  0  0  0  0  0  0  0  0  0
   60.9010   26.3760   46.0640 O   0  0  0  0  0  0  0  0  0  0  0  0
   58.4820   26.2670   46.1450 C   0  0  0  0  0  0  0  0  0  0  0  0
   58.5520   25.0000   46.7540 C   0  0  0  0  0  0  0  0  0  0  0  0
   56.4231   22.4841   49.4297 H   0  0  0  0  0  0  0  0  0  0  0  0
   55.3719   22.9293   48.0428 H   0  0  0  0  0  0  0  0  0  0  0  0
   56.2407   21.3572   48.0428 H   0  0  0  0  0  0  0  0  0  0  0  0
   55.2255   24.3178   47.0739 H   0  0  0  0  0  0  0  0  0  0  0  0
   55.0590   28.1830   44.8790 H   0  0  0  0  0  0  0  0  0  0  0  0
   57.7974   32.6653   46.2308 H   0  0  0  0  0  0  0  0  0  0  0  0
   57.9913   31.0379   46.9632 H   0  0  0  0  0  0  0  0  0  0  0  0
   60.9303   30.6062   46.5865 H   0  0  0  0  0  0  0  0  0  0  0  0
   62.9272   31.4059   47.8494 H   0  0  0  0  0  0  0  0  0  0  0  0
   60.7344   34.9414   49.0659 H   0  0  0  0  0  0  0  0  0  0  0  0
   58.7397   34.1354   47.8083 H   0  0  0  0  0  0  0  0  0  0  0  0
   61.3716   29.2679   45.8231 H   0  0  0  0  0  0  0  0  0  0  0  0
   61.5455   28.3283   44.3021 H   0  0  0  0  0  0  0  0  0  0  0  0
   60.6351   29.8768   44.3021 H   0  0  0  0  0  0  0  0  0  0  0  0
   59.5346   24.5548   46.9691 H   0  0  0  0  0  0  0  0  0  0  0  0
  1  2  1  0
  2  3  1  0
  3  4  2  0
  4  5  1  0
  5  6  1  0
  5  7  2  0
  7  8  1  0
  8  9  1  0
  8 10  2  0
 10 11  1  0
 11 12  2  0
 11 13  1  0
 13 14  1  0
 14 15  1  0
 15 16  2  0
 16 17  1  0
 17 18  2  0
 18 19  1  0
 19 20  1  0
 19 21  1  0
 19 22  1  0
 18 23  1  0
 23 24  2  0
 10 25  1  0
 25 26  1  0
 25 27  2  0
 27 28  1  0
 27 29  1  0
 29 30  2  0
 30  3  1  0
 29  7  1  0
 24 15  1  0
  1 31  1  0
  1 32  1  0
  1 33  1  0
  4 34  1  0
  9 35  1  0
 14 36  1  0
 14 37  1  0
 16 38  1  0
 17 39  1  0
 23 40  1  0
 24 41  1  0
 26 42  1  0
 26 43  1  0
 26 44  1  0
 30 45  1  0
M  CHG  3   6  -1  13  -1  28  -1
M  END
>  <UniqueID>  (67) 
60

>  <SMILES>  (67) 
COc1cc([O-])c2c(O)c(C(=O)[N-]Cc3ccc(C(F)(F)F)cc3)c(C)c([O-])c2c1

>  <Energy>  (67) 
63.79934918830352

>  <Genealogy>  (67) 
COc1cc([O-])c2c(O)c(C(=O)[N-]Cc3ccc(C(F)(F)F)cc3)c(C)c([O-])c2c1 (protonated)
COc1cc([O-])c2c(O)c(C(=O)[N-]Cc3ccc(C(F)(F)F)cc3)c(C)c([O-])c2c1 (3D coordinates assigned)
COc1cc([O-])c2c(O)c(C(=O)[N-]Cc3ccc(C(F)(F)F)cc3)c(C)c([O-])c2c1 (optimized conformer: 63.79934918830352 kcal/mol)

>  <smiles>  (67) 
COc1cc(O)c2c(O)c(C(=O)NCc3ccc(C(F)(F)F)cc3)c(C)c(O)c2c1

>  <score_type>  (67) 
oracle

>  <origin>  (67) 
adg

>  <m_score__min__energy>  (67) 
-14.699999999999999

>  <m_primary>  (67) 
energy

$$$$
67:0
     RDKit          3D

 44 46  0  0  0  0  0  0  0  0999 V2000
   55.2209   24.5844   46.6310 H   0  0  0  0  0  0  0  0  0  0  0  0
   55.9390   25.3770   46.3740 C   0  0  0  0  0  0  0  0  0  0  0  0
   55.4890   26.5830   45.9400 N   0  0  0  0  0  0  0  0  0  0  0  0
   56.3350   27.6000   45.6220 C   0  0  0  0  0  0  0  0  0  0  0  0
   55.8270   28.7200   45.1940 N   0  0  0  0  0  0  0  0  0  0  0  0
   56.2790   29.4860   44.0330 C   0  0  0  0  0  0  0  0  0  0  0  0
   55.4391   30.0722   43.6318 H   0  0  0  0  0  0  0  0  0  0  0  0
   56.6482   28.7948   43.2610 H   0  0  0  0  0  0  0  0  0  0  0  0
   57.4000   30.4260   44.4460 C   0  0  0  0  0  0  0  0  0  0  0  0
   57.4545   30.4717   45.5437 H   0  0  0  0  0  0  0  0  0  0  0  0
   58.3554   30.0550   44.0466 H   0  0  0  0  0  0  0  0  0  0  0  0
   57.2013   31.4315   44.0466 H   0  0  0  0  0  0  0  0  0  0  0  0
   57.7240   27.4040   45.7570 C   0  0  0  0  0  0  0  0  0  0  0  0
   58.4197   28.2280   45.5401 H   0  0  0  0  0  0  0  0  0  0  0  0
   58.2200   26.1550   46.1690 C   0  0  0  0  0  0  0  0  0  0  0  0
   59.6790   25.9060   46.2790 C   0  0  0  0  0  0  0  0  0  0  0  0
   60.1350   24.7680   45.9870 O   0  0  0  0  0  0  0  0  0  0  0  0
   60.5930   26.9070   46.7520 N   0  0  0  0  0  0  0  0  0  0  0  0
   60.2450   28.2370   47.1650 C   0  0  0  0  0  0  0  0  0  0  0  0
   59.6810   28.4890   48.4260 C   0  0  0  0  0  0  0  0  0  0  0  0
   59.4463   27.6510   49.0988 H   0  0  0  0  0  0  0  0  0  0  0  0
   59.4170   29.8000   48.8290 C   0  0  0  0  0  0  0  0  0  0  0  0
   58.9923   29.9906   49.8256 H   0  0  0  0  0  0  0  0  0  0  0  0
   59.6910   30.8780   47.9680 C   0  0  0  0  0  0  0  0  0  0  0  0
   59.4980   32.2340   48.4140 N   0  0  0  0  0  0  0  0  0  0  0  0
   58.7750   32.2660   49.1710 H   0  0  0  0  0  0  0  0  0  0  0  0
   60.3860   32.6080   48.8260 H   0  0  0  0  0  0  0  0  0  0  0  0
   59.0860   33.0500   47.2990 C   0  0  0  0  0  0  0  0  0  0  0  0
   59.9870   33.9560   46.7090 C   0  0  0  0  0  0  0  0  0  0  0  0
   61.0028   34.0625   47.1174 H   0  0  0  0  0  0  0  0  0  0  0  0
   59.5960   34.7220   45.6050 C   0  0  0  0  0  0  0  0  0  0  0  0
   60.3025   35.4332   45.1522 H   0  0  0  0  0  0  0  0  0  0  0  0
   58.3100   34.5850   45.0770 C   0  0  0  0  0  0  0  0  0  0  0  0
   58.0028   35.1922   44.2127 H   0  0  0  0  0  0  0  0  0  0  0  0
   57.4130   33.6760   45.6470 C   0  0  0  0  0  0  0  0  0  0  0  0
   56.4027   33.5645   45.2265 H   0  0  0  0  0  0  0  0  0  0  0  0
   57.7980   32.9090   46.7500 C   0  0  0  0  0  0  0  0  0  0  0  0
   57.0906   32.1914   47.1913 H   0  0  0  0  0  0  0  0  0  0  0  0
   60.2160   30.6160   46.6910 C   0  0  0  0  0  0  0  0  0  0  0  0
   60.4212   31.4492   46.0028 H   0  0  0  0  0  0  0  0  0  0  0  0
   60.4790   29.3030   46.2900 C   0  0  0  0  0  0  0  0  0  0  0  0
   60.8719   29.1071   45.2814 H   0  0  0  0  0  0  0  0  0  0  0  0
   57.3080   25.1400   46.4950 C   0  0  0  0  0  0  0  0  0  0  0  0
   57.6709   24.1621   46.8443 H   0  0  0  0  0  0  0  0  0  0  0  0
  1  2  1  0
  2  3  1  0
  3  4  1  0
  4  5  2  0
  5  6  1  0
  6  7  1  0
  6  8  1  0
  6  9  1  0
  9 10  1  0
  9 11  1  0
  9 12  1  0
  4 13  1  0
 13 14  1  0
 13 15  2  0
 15 16  1  0
 16 17  2  0
 16 18  1  0
 18 19  1  0
 19 20  2  0
 20 21  1  0
 20 22  1  0
 22 23  1  0
 22 24  2  0
 24 25  1  0
 25 26  1  0
 25 27  1  0
 25 28  1  0
 28 29  2  0
 29 30  1  0
 29 31  1  0
 31 32  1  0
 31 33  2  0
 33 34  1  0
 33 35  1  0
 35 36  1  0
 35 37  2  0
 37 38  1  0
 24 39  1  0
 39 40  1  0
 39 41  2  0
 41 42  1  0
 15 43  1  0
 43 44  1  0
 43  2  2  0
 41 19  1  0
 37 28  1  0
M  CHG  3   3  -1  18  -1  25   1
M  END
>  <UniqueID>  (68) 
61

>  <SMILES>  (68) 
CC/N=c1\cc(C(=O)[N-]c2ccc([NH2+]c3ccccc3)cc2)cc[n-]1

>  <Energy>  (68) 
51.025245063856346

>  <Genealogy>  (68) 
CCN=c1cc(C(=O)[N-]c2ccc([NH2+]c3ccccc3)cc2)cc[n-]1 (protonated)
CC/N=c1\cc(C(=O)[N-]c2ccc([NH2+]c3ccccc3)cc2)cc[n-]1 (cis-trans isomerization)
CC/N=c1\cc(C(=O)[N-]c2ccc([NH2+]c3ccccc3)cc2)cc[n-]1 (3D coordinates assigned)
CC/N=c1\cc(C(=O)[N-]c2ccc([NH2+]c3ccccc3)cc2)cc[n-]1 (optimized conformer: 51.025245063856346 kcal/mol)

>  <smiles>  (68) 
CCN=c1cc(C(=O)Nc2ccc(Nc3ccccc3)cc2)cc[nH]1

>  <score_type>  (68) 
oracle

>  <origin>  (68) 
adg

>  <m_score__min__energy>  (68) 
-9.3800000000000008

>  <m_primary>  (68) 
energy

$$$$
68:0
     RDKit          3D

 49 51  0  0  0  0  0  0  0  0999 V2000
   50.6740   33.1750   52.3440 N   0  0  0  0  0  0  0  0  0  0  0  0
   51.3690   32.2820   51.4760 C   0  0  0  0  0  0  0  0  0  0  0  0
   51.1620   32.3450   50.2330 O   0  0  0  0  0  0  0  0  0  0  0  0
   52.3080   31.2780   52.0260 C   0  0  0  0  0  0  0  0  0  0  0  0
   51.8200   30.1160   52.6490 C   0  0  0  0  0  0  0  0  0  0  0  0
   52.7030   29.1820   53.1960 C   0  0  0  0  0  0  0  0  0  0  0  0
   54.0800   29.3930   53.1310 C   0  0  0  0  0  0  0  0  0  0  0  0
   54.5920   30.5400   52.5020 C   0  0  0  0  0  0  0  0  0  0  0  0
   56.0530   30.7710   52.4530 C   0  0  0  0  0  0  0  0  0  0  0  0
   56.6380   31.2980   53.4380 O   0  0  0  0  0  0  0  0  0  0  0  0
   56.8100   30.3880   51.2950 N   0  0  0  0  0  0  0  0  0  0  0  0
   58.1950   30.7850   51.0580 C   0  0  0  0  0  0  0  0  0  0  0  0
   58.5890   30.4750   49.6390 C   0  0  0  0  0  0  0  0  0  0  0  0
   58.9330   31.5150   48.7620 C   0  0  0  0  0  0  0  0  0  0  0  0
   59.1430   31.2520   47.4050 C   0  0  0  0  0  0  0  0  0  0  0  0
   59.0120   29.9460   46.9060 C   0  0  0  0  0  0  0  0  0  0  0  0
   59.0210   29.6960   45.4250 C   0  0  0  0  0  0  0  0  0  0  0  0
   57.7130   29.1900   45.0300 N   0  0  0  0  0  0  0  0  0  0  0  0
   56.6250   30.0380   44.6490 C   0  0  0  0  0  0  0  0  0  0  0  0
   55.4410   29.6260   44.7620 O   0  0  0  0  0  0  0  0  0  0  0  0
   56.8580   31.3260   44.0660 N   0  0  0  0  0  0  0  0  0  0  0  0
   57.5190   32.4390   44.6810 C   0  0  0  0  0  0  0  0  0  0  0  0
   57.0880   32.8560   45.9470 C   0  0  0  0  0  0  0  0  0  0  0  0
   57.6880   33.9510   46.5760 C   0  0  0  0  0  0  0  0  0  0  0  0
   58.7420   34.6290   45.9540 C   0  0  0  0  0  0  0  0  0  0  0  0
   59.3370   35.7170   46.5930 O   0  0  0  0  0  0  0  0  0  0  0  0
   59.1990   34.1980   44.7000 C   0  0  0  0  0  0  0  0  0  0  0  0
   58.5980   33.1030   44.0690 C   0  0  0  0  0  0  0  0  0  0  0  0
   58.6980   28.9020   47.7900 C   0  0  0  0  0  0  0  0  0  0  0  0
   58.4970   29.1620   49.1480 C   0  0  0  0  0  0  0  0  0  0  0  0
   53.6980   31.4770   51.9540 C   0  0  0  0  0  0  0  0  0  0  0  0
   49.9140   33.7930   51.9810 H   0  0  0  0  0  0  0  0  0  0  0  0
   50.7355   29.9411   52.7061 H   0  0  0  0  0  0  0  0  0  0  0  0
   52.3103   28.2758   53.6803 H   0  0  0  0  0  0  0  0  0  0  0  0
   54.7682   28.6581   53.5742 H   0  0  0  0  0  0  0  0  0  0  0  0
   58.2988   31.8655   51.2361 H   0  0  0  0  0  0  0  0  0  0  0  0
   58.8505   30.2268   51.7426 H   0  0  0  0  0  0  0  0  0  0  0  0
   59.0379   32.5413   49.1437 H   0  0  0  0  0  0  0  0  0  0  0  0
   59.4124   32.0730   46.7242 H   0  0  0  0  0  0  0  0  0  0  0  0
   59.2312   30.6351   44.8921 H   0  0  0  0  0  0  0  0  0  0  0  0
   59.7996   28.9609   45.1732 H   0  0  0  0  0  0  0  0  0  0  0  0
   56.2712   32.3178   46.4501 H   0  0  0  0  0  0  0  0  0  0  0  0
   57.3304   34.2804   47.5627 H   0  0  0  0  0  0  0  0  0  0  0  0
   58.8850   36.1890   47.3700 H   0  0  0  0  0  0  0  0  0  0  0  0
   60.0329   34.7226   44.2107 H   0  0  0  0  0  0  0  0  0  0  0  0
   58.9701   32.7606   43.0921 H   0  0  0  0  0  0  0  0  0  0  0  0
   58.6096   27.8730   47.4114 H   0  0  0  0  0  0  0  0  0  0  0  0
   58.2657   28.3351   49.8356 H   0  0  0  0  0  0  0  0  0  0  0  0
   54.0918   32.3786   51.4620 H   0  0  0  0  0  0  0  0  0  0  0  0
  1  2  1  0
  2  3  2  0
  2  4  1  0
  4  5  2  0
  5  6  1  0
  6  7  2  0
  7  8  1  0
  8  9  1  0
  9 10  2  0
  9 11  1  0
 11 12  1  0
 12 13  1  0
 13 14  2  0
 14 15  1  0
 15 16  2  0
 16 17  1  0
 17 18  1  0
 18 19  1  0
 19 20  2  0
 19 21  1  0
 21 22  1  0
 22 23  2  0
 23 24  1  0
 24 25  2  0
 25 26  1  0
 25 27  1  0
 27 28  2  0
 16 29  1  0
 29 30  2  0
  8 31  2  0
 31  4  1  0
 30 13  1  0
 28 22  1  0
  1 32  1  0
  5 33  1  0
  6 34  1  0
  7 35  1  0
 12 36  1  0
 12 37  1  0
 14 38  1  0
 15 39  1  0
 17 40  1  0
 17 41  1  0
 23 42  1  0
 24 43  1  0
 26 44  1  0
 27 45  1  0
 28 46  1  0
 29 47  1  0
 30 48  1  0
 31 49  1  0
M  CHG  4   1  -1  11  -1  18  -1  21  -1
M  END
>  <UniqueID>  (69) 
62

>  <SMILES>  (69) 
[NH-]C(=O)c1cccc(C(=O)[N-]Cc2ccc(C[N-]C(=O)[N-]c3ccc(O)cc3)cc2)c1

>  <Energy>  (69) 
53.063173600255446

>  <Genealogy>  (69) 
[NH-]C(=O)c1cccc(C(=O)[N-]Cc2ccc(C[N-]C(=O)[N-]c3ccc(O)cc3)cc2)c1 (protonated)
[NH-]C(=O)c1cccc(C(=O)[N-]Cc2ccc(C[N-]C(=O)[N-]c3ccc(O)cc3)cc2)c1 (3D coordinates assigned)
[NH-]C(=O)c1cccc(C(=O)[N-]Cc2ccc(C[N-]C(=O)[N-]c3ccc(O)cc3)cc2)c1 (optimized conformer: 53.063173600255446 kcal/mol)

>  <smiles>  (69) 
NC(=O)c1cccc(C(=O)NCc2ccc(CNC(=O)Nc3ccc(O)cc3)cc2)c1

>  <score_type>  (69) 
oracle

>  <origin>  (69) 
adg

>  <m_score__min__energy>  (69) 
-16.539999999999999

>  <m_primary>  (69) 
energy

$$$$
69:0
     RDKit          3D

 47 49  0  0  0  0  0  0  0  0999 V2000
   66.5980   33.0960   50.7310 C   0  0  0  0  0  0  0  0  0  0  0  0
   65.8930   32.7420   49.5460 O   0  0  0  0  0  0  0  0  0  0  0  0
   64.5520   33.0710   49.2900 C   0  0  0  0  0  0  0  0  0  0  0  0
   64.0330   33.1630   47.9870 C   0  0  0  0  0  0  0  0  0  0  0  0
   62.6910   33.5010   47.7850 C   0  0  0  0  0  0  0  0  0  0  0  0
   61.8400   33.7440   48.8770 C   0  0  0  0  0  0  0  0  0  0  0  0
   60.4440   34.1550   48.6270 C   0  0  0  0  0  0  0  0  0  0  0  0
   59.7010   34.4400   49.6050 O   0  0  0  0  0  0  0  0  0  0  0  0
   59.9040   34.2610   47.2570 C   0  0  0  0  0  0  0  0  0  0  0  0
   59.8490   35.3980   46.4610 C   0  0  0  0  0  0  0  0  0  0  0  0
   59.2600   35.0120   45.2730 C   0  0  0  0  0  0  0  0  0  0  0  0
   58.9670   33.6960   45.3150 N   0  0  0  0  0  0  0  0  0  0  0  0
   58.2860   32.9360   44.2690 C   0  0  0  0  0  0  0  0  0  0  0  0
   57.0150   32.3280   44.8040 C   0  0  0  0  0  0  0  0  0  0  0  0
   56.3010   33.0010   45.5930 O   0  0  0  0  0  0  0  0  0  0  0  0
   56.6330   30.9780   44.5070 N   0  0  0  0  0  0  0  0  0  0  0  0
   57.3330   29.8070   44.9450 C   0  0  0  0  0  0  0  0  0  0  0  0
   58.7220   29.8650   45.1180 C   0  0  0  0  0  0  0  0  0  0  0  0
   59.4300   28.7270   45.5150 C   0  0  0  0  0  0  0  0  0  0  0  0
   58.7520   27.5270   45.7520 C   0  0  0  0  0  0  0  0  0  0  0  0
   57.3570   27.4650   45.6080 C   0  0  0  0  0  0  0  0  0  0  0  0
   56.4930   25.9610   45.9070 S   0  0  0  0  0  0  0  0  0  0  0  0
   54.7950   26.2770   45.9970 N   0  0  0  0  0  0  0  0  0  0  0  0
   56.9590   25.3500   47.2000 O   0  0  0  0  0  0  0  0  0  0  0  0
   56.7670   24.9940   44.7860 O   0  0  0  0  0  0  0  0  0  0  0  0
   56.6500   28.6130   45.2260 C   0  0  0  0  0  0  0  0  0  0  0  0
   59.3630   33.2280   46.5170 C   0  0  0  0  0  0  0  0  0  0  0  0
   62.3570   33.6430   50.1900 C   0  0  0  0  0  0  0  0  0  0  0  0
   61.5580   33.8390   51.3200 O   0  0  0  0  0  0  0  0  0  0  0  0
   63.7060   33.3150   50.3800 C   0  0  0  0  0  0  0  0  0  0  0  0
   66.0081   32.7998   51.6109 H   0  0  0  0  0  0  0  0  0  0  0  0
   67.5684   32.5782   50.7489 H   0  0  0  0  0  0  0  0  0  0  0  0
   66.7623   34.1835   50.7489 H   0  0  0  0  0  0  0  0  0  0  0  0
   64.6850   32.9684   47.1227 H   0  0  0  0  0  0  0  0  0  0  0  0
   62.2973   33.5775   46.7607 H   0  0  0  0  0  0  0  0  0  0  0  0
   60.2039   36.4053   46.7244 H   0  0  0  0  0  0  0  0  0  0  0  0
   59.0599   35.6778   44.4205 H   0  0  0  0  0  0  0  0  0  0  0  0
   58.0423   33.6081   43.4330 H   0  0  0  0  0  0  0  0  0  0  0  0
   58.9498   32.1294   43.9245 H   0  0  0  0  0  0  0  0  0  0  0  0
   59.2574   30.8094   44.9408 H   0  0  0  0  0  0  0  0  0  0  0  0
   60.5217   28.7754   45.6411 H   0  0  0  0  0  0  0  0  0  0  0  0
   59.3131   26.6297   46.0519 H   0  0  0  0  0  0  0  0  0  0  0  0
   54.6680   27.0780   46.6550 H   0  0  0  0  0  0  0  0  0  0  0  0
   55.5535   28.5785   45.1458 H   0  0  0  0  0  0  0  0  0  0  0  0
   59.2694   32.1854   46.8551 H   0  0  0  0  0  0  0  0  0  0  0  0
   60.6200   34.2170   51.2740 H   0  0  0  0  0  0  0  0  0  0  0  0
   64.1075   33.2479   51.4019 H   0  0  0  0  0  0  0  0  0  0  0  0
  1  2  1  0
  2  3  1  0
  3  4  2  0
  4  5  1  0
  5  6  2  0
  6  7  1  0
  7  8  2  0
  7  9  1  0
  9 10  1  0
 10 11  2  0
 11 12  1  0
 12 13  1  0
 13 14  1  0
 14 15  2  0
 14 16  1  0
 16 17  1  0
 17 18  2  0
 18 19  1  0
 19 20  2  0
 20 21  1  0
 21 22  1  0
 22 23  1  0
 22 24  2  0
 22 25  2  0
 21 26  2  0
 12 27  1  0
  6 28  1  0
 28 29  1  0
 28 30  2  0
 30  3  1  0
 27  9  2  0
 26 17  1  0
  1 31  1  0
  1 32  1  0
  1 33  1  0
  4 34  1  0
  5 35  1  0
 10 36  1  0
 11 37  1  0
 13 38  1  0
 13 39  1  0
 18 40  1  0
 19 41  1  0
 20 42  1  0
 23 43  1  0
 26 44  1  0
 27 45  1  0
 29 46  1  0
 30 47  1  0
M  CHG  2  16  -1  23  -1
M  END
>  <UniqueID>  (70) 
63

>  <SMILES>  (70) 
COc1ccc(C(=O)c2ccn(CC(=O)[N-]c3cccc(S([NH-])(=O)=O)c3)c2)c(O)c1

>  <Energy>  (70) 
82.62765023716275

>  <Genealogy>  (70) 
COc1ccc(C(=O)c2ccn(CC(=O)[N-]c3cccc(S([NH-])(=O)=O)c3)c2)c(O)c1 (protonated)
COc1ccc(C(=O)c2ccn(CC(=O)[N-]c3cccc(S([NH-])(=O)=O)c3)c2)c(O)c1 (3D coordinates assigned)
COc1ccc(C(=O)c2ccn(CC(=O)[N-]c3cccc(S([NH-])(=O)=O)c3)c2)c(O)c1 (optimized conformer: 82.62765023716275 kcal/mol)

>  <smiles>  (70) 
COc1ccc(C(=O)c2ccn(CC(=O)Nc3cccc(S(N)(=O)=O)c3)c2)c(O)c1

>  <score_type>  (70) 
oracle

>  <origin>  (70) 
adg

>  <m_score__min__energy>  (70) 
-13.23

>  <m_primary>  (70) 
energy

$$$$
70:0
     RDKit          3D

 46 48  0  0  0  0  0  0  0  0999 V2000
   55.1550   26.7040   45.9920 N   0  0  0  0  0  0  0  0  0  0  0  0
   56.5160   26.2780   46.0160 C   0  0  0  0  0  0  0  0  0  0  0  0
   56.8170   25.1530   45.5290 O   0  0  0  0  0  0  0  0  0  0  0  0
   57.5680   27.1460   46.5980 C   0  0  0  0  0  0  0  0  0  0  0  0
   57.6670   28.4970   46.2260 C   0  0  0  0  0  0  0  0  0  0  0  0
   58.6660   29.3110   46.7630 C   0  0  0  0  0  0  0  0  0  0  0  0
   59.5780   28.7920   47.7000 C   0  0  0  0  0  0  0  0  0  0  0  0
   60.6300   29.6040   48.2510 N   0  0  0  0  0  0  0  0  0  0  0  0
   61.1210   29.4750   49.5970 C   0  0  0  0  0  0  0  0  0  0  0  0
   60.8680   28.4370   50.2630 O   0  0  0  0  0  0  0  0  0  0  0  0
   61.9780   30.5260   50.1900 C   0  0  0  0  0  0  0  0  0  0  0  0
   62.7030   30.2870   51.3710 C   0  0  0  0  0  0  0  0  0  0  0  0
   63.5100   31.2920   51.9210 C   0  0  0  0  0  0  0  0  0  0  0  0
   63.5870   32.5460   51.3090 C   0  0  0  0  0  0  0  0  0  0  0  0
   62.8590   32.7980   50.1430 C   0  0  0  0  0  0  0  0  0  0  0  0
   62.8850   34.4300   49.3880 S   0  0  0  0  0  0  0  0  0  0  0  0
   63.3850   33.8400   47.7300 C   0  0  0  0  0  0  0  0  0  0  0  0
   62.2180   33.3000   46.9630 C   0  0  0  0  0  0  0  0  0  0  0  0
   62.0810   32.0540   46.8340 O   0  0  0  0  0  0  0  0  0  0  0  0
   61.2590   34.2070   46.4060 N   0  0  0  0  0  0  0  0  0  0  0  0
   59.8540   33.9620   46.2330 C   0  0  0  0  0  0  0  0  0  0  0  0
   59.1540   33.3160   47.2620 C   0  0  0  0  0  0  0  0  0  0  0  0
   57.7750   33.0950   47.1510 C   0  0  0  0  0  0  0  0  0  0  0  0
   57.0870   33.5250   46.0130 C   0  0  0  0  0  0  0  0  0  0  0  0
   57.7720   34.1890   44.9920 C   0  0  0  0  0  0  0  0  0  0  0  0
   59.1490   34.4120   45.0980 C   0  0  0  0  0  0  0  0  0  0  0  0
   62.0800   31.7830   49.5700 C   0  0  0  0  0  0  0  0  0  0  0  0
   59.4930   27.4410   48.0600 C   0  0  0  0  0  0  0  0  0  0  0  0
   58.4940   26.6260   47.5210 C   0  0  0  0  0  0  0  0  0  0  0  0
   54.6990   27.0910   46.8490 H   0  0  0  0  0  0  0  0  0  0  0  0
   56.9507   28.9175   45.5048 H   0  0  0  0  0  0  0  0  0  0  0  0
   58.7404   30.3635   46.4519 H   0  0  0  0  0  0  0  0  0  0  0  0
   61.1470   30.2390   47.6030 H   0  0  0  0  0  0  0  0  0  0  0  0
   62.6363   29.3066   51.8654 H   0  0  0  0  0  0  0  0  0  0  0  0
   64.0848   31.0932   52.8376 H   0  0  0  0  0  0  0  0  0  0  0  0
   64.2197   33.3335   51.7444 H   0  0  0  0  0  0  0  0  0  0  0  0
   63.8233   34.6789   47.1696 H   0  0  0  0  0  0  0  0  0  0  0  0
   64.1171   33.0293   47.8592 H   0  0  0  0  0  0  0  0  0  0  0  0
   59.6908   32.9808   48.1617 H   0  0  0  0  0  0  0  0  0  0  0  0
   57.2335   32.5828   47.9599 H   0  0  0  0  0  0  0  0  0  0  0  0
   56.0064   33.3408   45.9211 H   0  0  0  0  0  0  0  0  0  0  0  0
   57.2269   34.5374   44.1023 H   0  0  0  0  0  0  0  0  0  0  0  0
   59.6829   34.9397   44.2939 H   0  0  0  0  0  0  0  0  0  0  0  0
   61.5445   31.9720   48.6279 H   0  0  0  0  0  0  0  0  0  0  0  0
   60.2176   27.0187   48.7718 H   0  0  0  0  0  0  0  0  0  0  0  0
   58.4310   25.5695   47.8207 H   0  0  0  0  0  0  0  0  0  0  0  0
  1  2  1  0
  2  3  2  0
  2  4  1  0
  4  5  2  0
  5  6  1  0
  6  7  2  0
  7  8  1  0
  8  9  1  0
  9 10  2  0
  9 11  1  0
 11 12  2  0
 12 13  1  0
 13 14  2  0
 14 15  1  0
 15 16  1  0
 16 17  1  0
 17 18  1  0
 18 19  2  0
 18 20  1  0
 20 21  1  0
 21 22  2  0
 22 23  1  0
 23 24  2  0
 24 25  1  0
 25 26  2  0
 15 27  2  0
  7 28  1  0
 28 29  2  0
 29  4  1  0
 27 11  1  0
 26 21  1  0
  1 30  1  0
  5 31  1  0
  6 32  1  0
  8 33  1  0
 12 34  1  0
 13 35  1  0
 14 36  1  0
 17 37  1  0
 17 38  1  0
 22 39  1  0
 23 40  1  0
 24 41  1  0
 25 42  1  0
 26 43  1  0
 27 44  1  0
 28 45  1  0
 29 46  1  0
M  CHG  2   1  -1  20  -1
M  END
>  <UniqueID>  (71) 
64

>  <SMILES>  (71) 
[NH-]C(=O)c1ccc(NC(=O)c2cccc(SCC(=O)[N-]c3ccccc3)c2)cc1

>  <Energy>  (71) 
50.94040595734514

>  <Genealogy>  (71) 
[NH-]C(=O)c1ccc(NC(=O)c2cccc(SCC(=O)[N-]c3ccccc3)c2)cc1 (protonated)
[NH-]C(=O)c1ccc(NC(=O)c2cccc(SCC(=O)[N-]c3ccccc3)c2)cc1 (3D coordinates assigned)
[NH-]C(=O)c1ccc(NC(=O)c2cccc(SCC(=O)[N-]c3ccccc3)c2)cc1 (optimized conformer: 50.94040595734514 kcal/mol)

>  <smiles>  (71) 
NC(=O)c1ccc(NC(=O)c2cccc(SCC(=O)Nc3ccccc3)c2)cc1

>  <score_type>  (71) 
oracle

>  <origin>  (71) 
adg

>  <m_score__min__energy>  (71) 
-11.94

>  <m_primary>  (71) 
energy

$$$$
71:0
     RDKit          3D

 46 48  0  0  0  0  0  0  0  0999 V2000
   55.6244   30.9743   43.9717 H   0  0  0  0  0  0  0  0  0  0  0  0
   56.4470   30.3200   44.2960 C   0  0  0  0  0  0  0  0  0  0  0  0
   56.1660   29.0490   44.8060 C   0  0  0  0  0  0  0  0  0  0  0  0
   55.1234   28.7055   44.8762 H   0  0  0  0  0  0  0  0  0  0  0  0
   57.2060   28.2110   45.2280 C   0  0  0  0  0  0  0  0  0  0  0  0
   56.8400   26.6050   45.8520 S   0  0  0  0  0  0  0  0  0  0  0  0
   57.4080   25.5530   44.9400 O   0  0  0  0  0  0  0  0  0  0  0  0
   57.4720   26.4500   47.2060 O   0  0  0  0  0  0  0  0  0  0  0  0
   55.1230   26.3910   45.9980 N   0  0  0  0  0  0  0  0  0  0  0  0
   54.7580   25.0370   45.5970 C   0  0  0  0  0  0  0  0  0  0  0  0
   54.5920   24.4213   46.4933 H   0  0  0  0  0  0  0  0  0  0  0  0
   53.8362   25.0680   44.9976 H   0  0  0  0  0  0  0  0  0  0  0  0
   55.5705   24.6005   44.9976 H   0  0  0  0  0  0  0  0  0  0  0  0
   58.5340   28.6510   45.1280 C   0  0  0  0  0  0  0  0  0  0  0  0
   59.3552   27.9942   45.4510 H   0  0  0  0  0  0  0  0  0  0  0  0
   58.8170   29.9220   44.6190 C   0  0  0  0  0  0  0  0  0  0  0  0
   59.8603   30.2637   44.5494 H   0  0  0  0  0  0  0  0  0  0  0  0
   57.7760   30.7650   44.1960 C   0  0  0  0  0  0  0  0  0  0  0  0
   58.0870   32.1380   43.6680 C   0  0  0  0  0  0  0  0  0  0  0  0
   58.8134   32.0548   42.8462 H   0  0  0  0  0  0  0  0  0  0  0  0
   57.1577   32.6005   43.3040 H   0  0  0  0  0  0  0  0  0  0  0  0
   58.6500   32.9720   44.7260 N   0  0  0  0  0  0  0  0  0  0  0  0
   59.6520   32.8330   44.9860 H   0  0  0  0  0  0  0  0  0  0  0  0
   57.8680   33.9370   45.4470 C   0  0  0  0  0  0  0  0  0  0  0  0
   56.6200   33.9900   45.2800 O   0  0  0  0  0  0  0  0  0  0  0  0
   58.4730   34.7840   46.4340 N   0  0  0  0  0  0  0  0  0  0  0  0
   59.5050   34.5150   47.1840 C   0  0  0  0  0  0  0  0  0  0  0  0
   60.6620   34.1410   46.5780 N   0  0  0  0  0  0  0  0  0  0  0  0
   61.7870   33.8290   47.2750 C   0  0  0  0  0  0  0  0  0  0  0  0
   62.9490   33.4600   46.5920 C   0  0  0  0  0  0  0  0  0  0  0  0
   62.9513   33.4211   45.4927 H   0  0  0  0  0  0  0  0  0  0  0  0
   64.1060   33.1410   47.3030 C   0  0  0  0  0  0  0  0  0  0  0  0
   65.0184   32.8509   46.7614 H   0  0  0  0  0  0  0  0  0  0  0  0
   64.1120   33.1880   48.6990 C   0  0  0  0  0  0  0  0  0  0  0  0
   65.0307   32.9367   49.2492 H   0  0  0  0  0  0  0  0  0  0  0  0
   62.9500   33.5550   49.4090 C   0  0  0  0  0  0  0  0  0  0  0  0
   62.9280   33.6080   50.8130 O   0  0  0  0  0  0  0  0  0  0  0  0
   63.8450   34.3520   51.6080 C   0  0  0  0  0  0  0  0  0  0  0  0
   63.6314   34.1787   52.6731 H   0  0  0  0  0  0  0  0  0  0  0  0
   64.8720   34.0286   51.3826 H   0  0  0  0  0  0  0  0  0  0  0  0
   63.7402   35.4236   51.3826 H   0  0  0  0  0  0  0  0  0  0  0  0
   61.7800   33.8780   48.6880 C   0  0  0  0  0  0  0  0  0  0  0  0
   60.5910   34.2420   49.3360 C   0  0  0  0  0  0  0  0  0  0  0  0
   60.5556   34.2811   50.4347 H   0  0  0  0  0  0  0  0  0  0  0  0
   59.4520   34.5550   48.5920 C   0  0  0  0  0  0  0  0  0  0  0  0
   58.5175   34.8316   49.1021 H   0  0  0  0  0  0  0  0  0  0  0  0
  1  2  1  0
  2  3  2  0
  3  4  1  0
  3  5  1  0
  5  6  1  0
  6  7  2  0
  6  8  2  0
  6  9  1  0
  9 10  1  0
 10 11  1  0
 10 12  1  0
 10 13  1  0
  5 14  2  0
 14 15  1  0
 14 16  1  0
 16 17  1  0
 16 18  2  0
 18 19  1  0
 19 20  1  0
 19 21  1  0
 19 22  1  0
 22 23  1  0
 22 24  1  0
 24 25  2  0
 24 26  1  0
 26 27  2  0
 27 28  1  0
 28 29  1  0
 29 30  2  0
 30 31  1  0
 30 32  1  0
 32 33  1  0
 32 34  2  0
 34 35  1  0
 34 36  1  0
 36 37  1  0
 37 38  1  0
 38 39  1  0
 38 40  1  0
 38 41  1  0
 36 42  2  0
 42 43  1  0
 43 44  1  0
 43 45  2  0
 45 46  1  0
 18  2  1  0
 45 27  1  0
 42 29  1  0
M  CHG  2   9  -1  28  -1
M  END
>  <UniqueID>  (72) 
65

>  <SMILES>  (72) 
C[N-]S(=O)(=O)c1ccc(CNC(=O)/N=c2\ccc3c(OC)cccc3[n-]2)cc1

>  <Energy>  (72) 
55.392803936092285

>  <Genealogy>  (72) 
C[N-]S(=O)(=O)c1ccc(CNC(=O)N=c2ccc3c(OC)cccc3[n-]2)cc1 (protonated)
C[N-]S(=O)(=O)c1ccc(CNC(=O)/N=c2\ccc3c(OC)cccc3[n-]2)cc1 (cis-trans isomerization)
C[N-]S(=O)(=O)c1ccc(CNC(=O)/N=c2\ccc3c(OC)cccc3[n-]2)cc1 (3D coordinates assigned)
C[N-]S(=O)(=O)c1ccc(CNC(=O)/N=c2\ccc3c(OC)cccc3[n-]2)cc1 (optimized conformer: 55.392803936092285 kcal/mol)

>  <smiles>  (72) 
CNS(=O)(=O)c1ccc(CNC(=O)N=c2ccc3c(OC)cccc3[nH]2)cc1

>  <score_type>  (72) 
oracle

>  <origin>  (72) 
adg

>  <m_score__min__energy>  (72) 
-11.539999999999999

>  <m_primary>  (72) 
energy

$$$$
72:0
     RDKit          3D

 53 55  0  0  0  0  0  0  0  0999 V2000
   61.6510   30.5270   49.1540 C   0  0  0  0  0  0  0  0  0  0  0  0
   60.6290   30.0590   48.1600 C   0  0  0  0  0  0  0  0  0  0  0  0
   59.5000   29.3440   48.5910 C   0  0  0  0  0  0  0  0  0  0  0  0
   58.5720   28.8640   47.6590 C   0  0  0  0  0  0  0  0  0  0  0  0
   58.7630   29.0890   46.2860 C   0  0  0  0  0  0  0  0  0  0  0  0
   57.7920   28.5250   45.2890 C   0  0  0  0  0  0  0  0  0  0  0  0
   56.6070   29.3700   45.2430 N   0  0  0  0  0  0  0  0  0  0  0  0
   56.1950   30.0640   44.0640 C   0  0  0  0  0  0  0  0  0  0  0  0
   55.1340   29.7310   43.4660 O   0  0  0  0  0  0  0  0  0  0  0  0
   57.0500   31.1630   43.5170 C   0  0  0  0  0  0  0  0  0  0  0  0
   57.5940   32.0120   44.6260 C   0  0  0  0  0  0  0  0  0  0  0  0
   58.3380   33.1690   44.4740 C   0  0  0  0  0  0  0  0  0  0  0  0
   58.6750   33.5240   45.7700 C   0  0  0  0  0  0  0  0  0  0  0  0
   59.5080   34.6380   46.1360 N   0  0  0  0  0  0  0  0  0  0  0  0
   59.6110   35.7830   45.2230 C   0  0  0  0  0  0  0  0  0  0  0  0
   59.9490   34.7780   47.5270 C   0  0  0  0  0  0  0  0  0  0  0  0
   61.3130   34.1630   47.7300 C   0  0  0  0  0  0  0  0  0  0  0  0
   61.8690   34.0710   49.0170 C   0  0  0  0  0  0  0  0  0  0  0  0
   63.1400   33.5170   49.1980 C   0  0  0  0  0  0  0  0  0  0  0  0
   63.8610   33.0420   48.0990 C   0  0  0  0  0  0  0  0  0  0  0  0
   63.3120   33.1140   46.8160 C   0  0  0  0  0  0  0  0  0  0  0  0
   62.0410   33.6700   46.6310 C   0  0  0  0  0  0  0  0  0  0  0  0
   58.1530   32.6210   46.6330 N   0  0  0  0  0  0  0  0  0  0  0  0
   58.2430   32.6270   48.0920 C   0  0  0  0  0  0  0  0  0  0  0  0
   57.5050   31.7000   45.9350 N   0  0  0  0  0  0  0  0  0  0  0  0
   59.9100   29.7740   45.8550 C   0  0  0  0  0  0  0  0  0  0  0  0
   60.8350   30.2580   46.7860 C   0  0  0  0  0  0  0  0  0  0  0  0
   61.2761   30.3553   50.1738 H   0  0  0  0  0  0  0  0  0  0  0  0
   62.5870   29.9678   49.0084 H   0  0  0  0  0  0  0  0  0  0  0  0
   61.8391   31.6010   49.0084 H   0  0  0  0  0  0  0  0  0  0  0  0
   59.3442   29.1604   49.6643 H   0  0  0  0  0  0  0  0  0  0  0  0
   57.6882   28.3074   48.0042 H   0  0  0  0  0  0  0  0  0  0  0  0
   58.2614   28.4954   44.2946 H   0  0  0  0  0  0  0  0  0  0  0  0
   57.5070   27.5052   45.5872 H   0  0  0  0  0  0  0  0  0  0  0  0
   57.8870   30.7236   42.9546 H   0  0  0  0  0  0  0  0  0  0  0  0
   56.4364   31.7936   42.8568 H   0  0  0  0  0  0  0  0  0  0  0  0
   58.6010   33.6870   43.5399 H   0  0  0  0  0  0  0  0  0  0  0  0
   59.6945   36.7114   45.8071 H   0  0  0  0  0  0  0  0  0  0  0  0
   60.5024   35.6673   44.5889 H   0  0  0  0  0  0  0  0  0  0  0  0
   58.7133   35.8283   44.5889 H   0  0  0  0  0  0  0  0  0  0  0  0
   59.9952   35.8467   47.7833 H   0  0  0  0  0  0  0  0  0  0  0  0
   59.2304   34.2553   48.1754 H   0  0  0  0  0  0  0  0  0  0  0  0
   61.3020   34.4364   49.8859 H   0  0  0  0  0  0  0  0  0  0  0  0
   63.5732   33.4549   50.2072 H   0  0  0  0  0  0  0  0  0  0  0  0
   64.8624   32.6107   48.2442 H   0  0  0  0  0  0  0  0  0  0  0  0
   63.8780   32.7342   45.9526 H   0  0  0  0  0  0  0  0  0  0  0  0
   61.6086   33.7220   45.6209 H   0  0  0  0  0  0  0  0  0  0  0  0
   57.2328   32.5596   48.5220 H   0  0  0  0  0  0  0  0  0  0  0  0
   58.8417   31.7668   48.4260 H   0  0  0  0  0  0  0  0  0  0  0  0
   58.7222   33.5591   48.4260 H   0  0  0  0  0  0  0  0  0  0  0  0
   57.0170   30.8720   46.3450 H   0  0  0  0  0  0  0  0  0  0  0  0
   60.0822   29.9309   44.7800 H   0  0  0  0  0  0  0  0  0  0  0  0
   61.7287   30.7975   46.4394 H   0  0  0  0  0  0  0  0  0  0  0  0
  1  2  1  0
  2  3  2  0
  3  4  1  0
  4  5  2  0
  5  6  1  0
  6  7  1  0
  7  8  1  0
  8  9  2  0
  8 10  1  0
 10 11  1  0
 11 12  1  0
 12 13  2  0
 13 14  1  0
 14 15  1  0
 14 16  1  0
 16 17  1  0
 17 18  2  0
 18 19  1  0
 19 20  2  0
 20 21  1  0
 21 22  2  0
 13 23  1  0
 23 24  1  0
 23 25  1  0
  5 26  1  0
 26 27  2  0
 27  2  1  0
 25 11  2  0
 22 17  1  0
  1 28  1  0
  1 29  1  0
  1 30  1  0
  3 31  1  0
  4 32  1  0
  6 33  1  0
  6 34  1  0
 10 35  1  0
 10 36  1  0
 12 37  1  0
 15 38  1  0
 15 39  1  0
 15 40  1  0
 16 41  1  0
 16 42  1  0
 18 43  1  0
 19 44  1  0
 20 45  1  0
 21 46  1  0
 22 47  1  0
 24 48  1  0
 24 49  1  0
 24 50  1  0
 25 51  1  0
 26 52  1  0
 27 53  1  0
M  CHG  2   7  -1  25   1
M  END
>  <UniqueID>  (73) 
66

>  <SMILES>  (73) 
Cc1ccc(C[N-]C(=O)Cc2cc(N(C)Cc3ccccc3)n(C)[nH+]2)cc1

>  <Energy>  (73) 
82.0925410935415

>  <Genealogy>  (73) 
Cc1ccc(C[N-]C(=O)Cc2cc(N(C)Cc3ccccc3)n(C)[nH+]2)cc1 (protonated)
Cc1ccc(C[N-]C(=O)Cc2cc(N(C)Cc3ccccc3)n(C)[nH+]2)cc1 (3D coordinates assigned)
Cc1ccc(C[N-]C(=O)Cc2cc(N(C)Cc3ccccc3)n(C)[nH+]2)cc1 (optimized conformer: 82.0925410935415 kcal/mol)

>  <smiles>  (73) 
Cc1ccc(CNC(=O)Cc2cc(N(C)Cc3ccccc3)n(C)n2)cc1

>  <score_type>  (73) 
oracle

>  <origin>  (73) 
adg

>  <m_score__min__energy>  (73) 
-9.8200000000000003

>  <m_primary>  (73) 
energy

$$$$
73:0
     RDKit          3D

 45 47  0  0  0  0  0  0  0  0999 V2000
   55.9380   30.0980   44.8520 O   0  0  0  0  0  0  0  0  0  0  0  0
   57.1470   29.8600   44.5760 C   0  0  0  0  0  0  0  0  0  0  0  0
   57.7880   30.5930   43.5200 N   0  0  0  0  0  0  0  0  0  0  0  0
   57.3960   31.9600   43.1840 C   0  0  0  0  0  0  0  0  0  0  0  0
   57.7740   32.8910   44.3100 C   0  0  0  0  0  0  0  0  0  0  0  0
   57.0800   32.8560   45.5310 C   0  0  0  0  0  0  0  0  0  0  0  0
   57.4690   33.6940   46.5860 C   0  0  0  0  0  0  0  0  0  0  0  0
   58.5560   34.5630   46.4310 C   0  0  0  0  0  0  0  0  0  0  0  0
   59.2580   34.5960   45.2220 C   0  0  0  0  0  0  0  0  0  0  0  0
   58.8700   33.7630   44.1640 C   0  0  0  0  0  0  0  0  0  0  0  0
   57.8930   28.8470   45.3590 C   0  0  0  0  0  0  0  0  0  0  0  0
   59.2260   29.0840   45.7390 C   0  0  0  0  0  0  0  0  0  0  0  0
   59.9510   28.1060   46.4270 C   0  0  0  0  0  0  0  0  0  0  0  0
   59.3590   26.8780   46.7310 C   0  0  0  0  0  0  0  0  0  0  0  0
   58.0340   26.6250   46.3550 C   0  0  0  0  0  0  0  0  0  0  0  0
   57.2970   25.0520   46.6580 S   0  0  0  0  0  0  0  0  0  0  0  0
   57.7440   24.0590   45.6160 O   0  0  0  0  0  0  0  0  0  0  0  0
   57.7350   24.5580   48.0100 O   0  0  0  0  0  0  0  0  0  0  0  0
   55.5580   25.1750   46.6280 N   0  0  0  0  0  0  0  0  0  0  0  0
   55.0280   24.8830   45.2890 C   0  0  0  0  0  0  0  0  0  0  0  0
   54.5790   23.4190   45.2120 C   0  0  0  0  0  0  0  0  0  0  0  0
   55.4890   22.6350   44.3140 C   0  0  0  0  0  0  0  0  0  0  0  0
   55.8520   23.0550   43.0820 N   0  0  0  0  0  0  0  0  0  0  0  0
   56.6130   22.0470   42.6100 C   0  0  0  0  0  0  0  0  0  0  0  0
   56.6820   21.0510   43.5550 C   0  0  0  0  0  0  0  0  0  0  0  0
   55.9660   21.4130   44.6360 N   0  0  0  0  0  0  0  0  0  0  0  0
   57.3040   27.6090   45.6760 C   0  0  0  0  0  0  0  0  0  0  0  0
   58.6030   30.1730   43.0190 H   0  0  0  0  0  0  0  0  0  0  0  0
   57.9112   32.2720   42.2635 H   0  0  0  0  0  0  0  0  0  0  0  0
   56.3075   31.9986   43.0304 H   0  0  0  0  0  0  0  0  0  0  0  0
   56.2298   32.1699   45.6597 H   0  0  0  0  0  0  0  0  0  0  0  0
   56.9186   33.6686   47.5381 H   0  0  0  0  0  0  0  0  0  0  0  0
   58.8577   35.2197   47.2603 H   0  0  0  0  0  0  0  0  0  0  0  0
   60.1145   35.2756   45.1015 H   0  0  0  0  0  0  0  0  0  0  0  0
   59.4245   33.7905   43.2144 H   0  0  0  0  0  0  0  0  0  0  0  0
   59.7015   30.0450   45.4934 H   0  0  0  0  0  0  0  0  0  0  0  0
   60.9899   28.3042   46.7295 H   0  0  0  0  0  0  0  0  0  0  0  0
   59.9344   26.1085   47.2665 H   0  0  0  0  0  0  0  0  0  0  0  0
   54.1686   25.5390   45.0861 H   0  0  0  0  0  0  0  0  0  0  0  0
   55.8158   25.0594   44.5418 H   0  0  0  0  0  0  0  0  0  0  0  0
   54.6006   22.9806   46.2206 H   0  0  0  0  0  0  0  0  0  0  0  0
   53.5585   23.3818   44.8031 H   0  0  0  0  0  0  0  0  0  0  0  0
   57.1014   22.0251   41.6246 H   0  0  0  0  0  0  0  0  0  0  0  0
   57.2353   20.1067   43.4451 H   0  0  0  0  0  0  0  0  0  0  0  0
   56.2608   27.4121   45.3880 H   0  0  0  0  0  0  0  0  0  0  0  0
  1  2  2  0
  2  3  1  0
  3  4  1  0
  4  5  1  0
  5  6  2  0
  6  7  1  0
  7  8  2  0
  8  9  1  0
  9 10  2  0
  2 11  1  0
 11 12  2  0
 12 13  1  0
 13 14  2  0
 14 15  1  0
 15 16  1  0
 16 17  2  0
 16 18  2  0
 16 19  1  0
 19 20  1  0
 20 21  1  0
 21 22  1  0
 22 23  2  0
 23 24  1  0
 24 25  2  0
 25 26  1  0
 15 27  2  0
 10  5  1  0
 27 11  1  0
 26 22  1  0
  3 28  1  0
  4 29  1  0
  4 30  1  0
  6 31  1  0
  7 32  1  0
  8 33  1  0
  9 34  1  0
 10 35  1  0
 12 36  1  0
 13 37  1  0
 14 38  1  0
 20 39  1  0
 20 40  1  0
 21 41  1  0
 21 42  1  0
 24 43  1  0
 25 44  1  0
 27 45  1  0
M  CHG  2  19  -1  26  -1
M  END
>  <UniqueID>  (74) 
67

>  <SMILES>  (74) 
O=C(NCc1ccccc1)c1cccc(S(=O)(=O)[N-]CCc2ncc[n-]2)c1

>  <Energy>  (74) 
69.33894719241589

>  <Genealogy>  (74) 
O=C(NCc1ccccc1)c1cccc(S(=O)(=O)[N-]CCc2ncc[n-]2)c1 (protonated)
O=C(NCc1ccccc1)c1cccc(S(=O)(=O)[N-]CCc2ncc[n-]2)c1 (3D coordinates assigned)
O=C(NCc1ccccc1)c1cccc(S(=O)(=O)[N-]CCc2ncc[n-]2)c1 (optimized conformer: 69.33894719241589 kcal/mol)

>  <smiles>  (74) 
O=C(NCc1ccccc1)c1cccc(S(=O)(=O)NCCc2ncc[nH]2)c1

>  <score_type>  (74) 
oracle

>  <origin>  (74) 
adg

>  <m_score__min__energy>  (74) 
-12.67

>  <m_primary>  (74) 
energy

$$$$
74:0
     RDKit          3D

 39 41  0  0  0  0  0  0  0  0999 V2000
   56.7018   30.4131   42.8213 H   0  0  0  0  0  0  0  0  0  0  0  0
   57.1150   31.1290   43.5470 C   0  0  0  0  0  0  0  0  0  0  0  0
   57.0060   31.0270   44.8880 N   0  0  0  0  0  0  0  0  0  0  0  0
   57.6630   32.1090   45.3580 C   0  0  0  0  0  0  0  0  0  0  0  0
   57.7710   32.4260   46.8160 C   0  0  0  0  0  0  0  0  0  0  0  0
   57.6417   33.5078   46.9674 H   0  0  0  0  0  0  0  0  0  0  0  0
   56.9899   31.8846   47.3698 H   0  0  0  0  0  0  0  0  0  0  0  0
   59.0870   32.0190   47.3020 N   0  0  0  0  0  0  0  0  0  0  0  0
   59.4120   30.8420   47.7540 C   0  0  0  0  0  0  0  0  0  0  0  0
   60.2240   30.7670   48.8430 N   0  0  0  0  0  0  0  0  0  0  0  0
   60.6040   29.5820   49.3830 C   0  0  0  0  0  0  0  0  0  0  0  0
   61.2579   29.5668   50.2674 H   0  0  0  0  0  0  0  0  0  0  0  0
   60.1680   28.3830   48.8200 C   0  0  0  0  0  0  0  0  0  0  0  0
   60.4718   27.4228   49.2623 H   0  0  0  0  0  0  0  0  0  0  0  0
   59.3410   28.4060   47.6880 C   0  0  0  0  0  0  0  0  0  0  0  0
   58.8750   27.1310   47.0920 C   0  0  0  0  0  0  0  0  0  0  0  0
   59.6910   26.1750   46.9840 O   0  0  0  0  0  0  0  0  0  0  0  0
   57.5160   26.9700   46.6430 N   0  0  0  0  0  0  0  0  0  0  0  0
   56.8290   27.7350   46.8140 H   0  0  0  0  0  0  0  0  0  0  0  0
   57.0230   25.7780   46.0080 C   0  0  0  0  0  0  0  0  0  0  0  0
   57.8950   24.7310   45.6510 C   0  0  0  0  0  0  0  0  0  0  0  0
   58.9681   24.8117   45.8788 H   0  0  0  0  0  0  0  0  0  0  0  0
   57.4050   23.5900   45.0090 C   0  0  0  0  0  0  0  0  0  0  0  0
   58.4990   22.2900   44.5710 Cl  0  0  0  0  0  0  0  0  0  0  0  0
   56.0440   23.4890   44.7030 C   0  0  0  0  0  0  0  0  0  0  0  0
   55.6582   22.5887   44.2024 H   0  0  0  0  0  0  0  0  0  0  0  0
   55.1750   24.5310   45.0330 C   0  0  0  0  0  0  0  0  0  0  0  0
   54.1060   24.4527   44.7858 H   0  0  0  0  0  0  0  0  0  0  0  0
   55.6600   25.6740   45.6770 C   0  0  0  0  0  0  0  0  0  0  0  0
   54.7790   26.7030   45.9970 O   0  0  0  0  0  0  0  0  0  0  0  0
   58.9500   29.6480   47.1580 C   0  0  0  0  0  0  0  0  0  0  0  0
   58.2863   29.6896   46.2818 H   0  0  0  0  0  0  0  0  0  0  0  0
   58.1530   32.8870   44.3680 N   0  0  0  0  0  0  0  0  0  0  0  0
   58.9340   34.1140   44.4990 C   0  0  0  0  0  0  0  0  0  0  0  0
   59.0801   34.3436   45.5648 H   0  0  0  0  0  0  0  0  0  0  0  0
   59.9127   33.9790   44.0154 H   0  0  0  0  0  0  0  0  0  0  0  0
   58.3974   34.9436   44.0154 H   0  0  0  0  0  0  0  0  0  0  0  0
   57.8230   32.2670   43.2250 C   0  0  0  0  0  0  0  0  0  0  0  0
   58.0734   32.6070   42.2093 H   0  0  0  0  0  0  0  0  0  0  0  0
  1  2  1  0
  2  3  1  0
  3  4  2  0
  4  5  1  0
  5  6  1  0
  5  7  1  0
  5  8  1  0
  8  9  2  0
  9 10  1  0
 10 11  1  0
 11 12  1  0
 11 13  2  0
 13 14  1  0
 13 15  1  0
 15 16  1  0
 16 17  2  0
 16 18  1  0
 18 19  1  0
 18 20  1  0
 20 21  2  0
 21 22  1  0
 21 23  1  0
 23 24  1  0
 23 25  2  0
 25 26  1  0
 25 27  1  0
 27 28  1  0
 27 29  2  0
 29 30  1  0
 15 31  2  0
 31 32  1  0
  4 33  1  0
 33 34  1  0
 34 35  1  0
 34 36  1  0
 34 37  1  0
 33 38  1  0
 38 39  1  0
 38  2  2  0
 31  9  1  0
 29 20  1  0
M  CHG  2  10  -1  30  -1
M  END
>  <UniqueID>  (75) 
68

>  <SMILES>  (75) 
Cn1ccnc1C/N=c1\cc(C(=O)Nc2cc(Cl)ccc2[O-])cc[n-]1

>  <Energy>  (75) 
78.1480171409799

>  <Genealogy>  (75) 
Cn1ccnc1CN=c1cc(C(=O)Nc2cc(Cl)ccc2[O-])cc[n-]1 (protonated)
Cn1ccnc1C/N=c1\cc(C(=O)Nc2cc(Cl)ccc2[O-])cc[n-]1 (cis-trans isomerization)
Cn1ccnc1C/N=c1\cc(C(=O)Nc2cc(Cl)ccc2[O-])cc[n-]1 (3D coordinates assigned)
Cn1ccnc1C/N=c1\cc(C(=O)Nc2cc(Cl)ccc2[O-])cc[n-]1 (optimized conformer: 78.1480171409799 kcal/mol)

>  <smiles>  (75) 
Cn1ccnc1CN=c1cc(C(=O)Nc2cc(Cl)ccc2O)cc[nH]1

>  <score_type>  (75) 
oracle

>  <origin>  (75) 
adg

>  <m_score__min__energy>  (75) 
-12.550000000000001

>  <m_primary>  (75) 
energy

$$$$
75:0
     RDKit          3D

 45 47  0  0  0  0  0  0  0  0999 V2000
   57.0453   34.4849   43.9266 H   0  0  0  0  0  0  0  0  0  0  0  0
   57.6020   34.2470   44.8450 C   0  0  0  0  0  0  0  0  0  0  0  0
   58.8880   34.7570   45.0340 C   0  0  0  0  0  0  0  0  0  0  0  0
   59.3433   35.3975   44.2642 H   0  0  0  0  0  0  0  0  0  0  0  0
   59.5980   34.4550   46.2000 C   0  0  0  0  0  0  0  0  0  0  0  0
   60.6097   34.8622   46.3436 H   0  0  0  0  0  0  0  0  0  0  0  0
   59.0280   33.6330   47.1930 C   0  0  0  0  0  0  0  0  0  0  0  0
   59.7880   33.3070   48.4290 C   0  0  0  0  0  0  0  0  0  0  0  0
   59.1570   33.2050   49.5600 N   0  0  0  0  0  0  0  0  0  0  0  0
   59.3050   34.1330   50.5670 O   0  0  0  0  0  0  0  0  0  0  0  0
   58.9560   33.8060   51.9010 C   0  0  0  0  0  0  0  0  0  0  0  0
   59.5781   34.3889   52.5962 H   0  0  0  0  0  0  0  0  0  0  0  0
   57.8954   34.0431   52.0712 H   0  0  0  0  0  0  0  0  0  0  0  0
   59.1236   32.7322   52.0712 H   0  0  0  0  0  0  0  0  0  0  0  0
   61.2570   33.1130   48.3840 C   0  0  0  0  0  0  0  0  0  0  0  0
   62.0700   33.9780   49.1350 C   0  0  0  0  0  0  0  0  0  0  0  0
   61.6101   34.7833   49.7266 H   0  0  0  0  0  0  0  0  0  0  0  0
   63.4570   33.8230   49.1360 C   0  0  0  0  0  0  0  0  0  0  0  0
   64.0854   34.5057   49.7268 H   0  0  0  0  0  0  0  0  0  0  0  0
   64.0470   32.8050   48.3900 C   0  0  0  0  0  0  0  0  0  0  0  0
   65.1400   32.6816   48.3981 H   0  0  0  0  0  0  0  0  0  0  0  0
   63.2540   31.9410   47.6320 C   0  0  0  0  0  0  0  0  0  0  0  0
   63.7273   31.1355   47.0513 H   0  0  0  0  0  0  0  0  0  0  0  0
   61.8560   32.0910   47.6040 C   0  0  0  0  0  0  0  0  0  0  0  0
   61.0390   31.1410   46.7530 C   0  0  0  0  0  0  0  0  0  0  0  0
   60.2092   31.6978   46.2931 H   0  0  0  0  0  0  0  0  0  0  0  0
   61.6998   30.7135   45.9845 H   0  0  0  0  0  0  0  0  0  0  0  0
   60.5030   30.0670   47.5280 O   0  0  0  0  0  0  0  0  0  0  0  0
   59.5140   29.1690   47.0980 C   0  0  0  0  0  0  0  0  0  0  0  0
   59.3780   27.9590   47.7860 C   0  0  0  0  0  0  0  0  0  0  0  0
   60.0544   27.7287   48.6223 H   0  0  0  0  0  0  0  0  0  0  0  0
   58.3910   27.0400   47.4210 C   0  0  0  0  0  0  0  0  0  0  0  0
   58.2933   26.0946   47.9749 H   0  0  0  0  0  0  0  0  0  0  0  0
   57.5220   27.3150   46.3510 C   0  0  0  0  0  0  0  0  0  0  0  0
   56.4700   26.3500   45.9640 C   0  0  0  0  0  0  0  0  0  0  0  0
   56.7730   25.1820   45.6020 O   0  0  0  0  0  0  0  0  0  0  0  0
   55.1300   26.7180   45.9940 O   0  0  0  0  0  0  0  0  0  0  0  0
   57.6670   28.5250   45.6510 C   0  0  0  0  0  0  0  0  0  0  0  0
   56.9971   28.7516   44.8085 H   0  0  0  0  0  0  0  0  0  0  0  0
   58.6560   29.4430   46.0170 C   0  0  0  0  0  0  0  0  0  0  0  0
   58.7638   30.3838   45.4573 H   0  0  0  0  0  0  0  0  0  0  0  0
   57.7280   33.1290   46.9900 C   0  0  0  0  0  0  0  0  0  0  0  0
   57.2643   32.4901   47.7560 H   0  0  0  0  0  0  0  0  0  0  0  0
   57.0230   33.4350   45.8220 C   0  0  0  0  0  0  0  0  0  0  0  0
   56.0093   33.0349   45.6725 H   0  0  0  0  0  0  0  0  0  0  0  0
  1  2  1  0
  2  3  2  0
  3  4  1  0
  3  5  1  0
  5  6  1  0
  5  7  2  0
  7  8  1  0
  8  9  2  0
  9 10  1  0
 10 11  1  0
 11 12  1  0
 11 13  1  0
 11 14  1  0
  8 15  1  0
 15 16  2  0
 16 17  1  0
 16 18  1  0
 18 19  1  0
 18 20  2  0
 20 21  1  0
 20 22  1  0
 22 23  1  0
 22 24  2  0
 24 25  1  0
 25 26  1  0
 25 27  1  0
 25 28  1  0
 28 29  1  0
 29 30  2  0
 30 31  1  0
 30 32  1  0
 32 33  1  0
 32 34  2  0
 34 35  1  0
 35 36  2  0
 35 37  1  0
 34 38  1  0
 38 39  1  0
 38 40  2  0
 40 41  1  0
  7 42  1  0
 42 43  1  0
 42 44  2  0
 44 45  1  0
 44  2  1  0
 24 15  1  0
 40 29  1  0
M  CHG  1  37  -1
M  END
>  <UniqueID>  (76) 
69

>  <SMILES>  (76) 
CO/N=C(/c1ccccc1)c1ccccc1COc1ccc(C(=O)[O-])cc1

>  <Energy>  (76) 
51.68834715310383

>  <Genealogy>  (76) 
CON=C(c1ccccc1)c1ccccc1COc1ccc(C(=O)[O-])cc1 (protonated)
CO/N=C(/c1ccccc1)c1ccccc1COc1ccc(C(=O)[O-])cc1 (cis-trans isomerization)
CO/N=C(/c1ccccc1)c1ccccc1COc1ccc(C(=O)[O-])cc1 (3D coordinates assigned)
CO/N=C(/c1ccccc1)c1ccccc1COc1ccc(C(=O)[O-])cc1 (optimized conformer: 51.68834715310383 kcal/mol)

>  <smiles>  (76) 
CON=C(c1ccccc1)c1ccccc1COc1ccc(C(=O)O)cc1

>  <score_type>  (76) 
oracle

>  <origin>  (76) 
adg

>  <m_score__min__energy>  (76) 
-11.01

>  <m_primary>  (76) 
energy

$$$$
76:0
     RDKit          3D

 46 48  0  0  0  0  0  0  0  0999 V2000
   59.6567   26.0001   46.3516 H   0  0  0  0  0  0  0  0  0  0  0  0
   58.5610   26.0850   46.3050 C   0  0  0  0  0  0  0  0  0  0  0  0
   57.9880   27.1910   45.7630 N   0  0  0  0  0  0  0  0  0  0  0  0
   56.6390   27.3550   45.6810 C   0  0  0  0  0  0  0  0  0  0  0  0
   56.1970   28.4610   45.1450 N   0  0  0  0  0  0  0  0  0  0  0  0
   56.7410   29.7850   45.2350 C   0  0  0  0  0  0  0  0  0  0  0  0
   56.1950   30.7460   44.6300 O   0  0  0  0  0  0  0  0  0  0  0  0
   57.9260   30.0370   46.1140 C   0  0  0  0  0  0  0  0  0  0  0  0
   57.7477   30.9413   46.7144 H   0  0  0  0  0  0  0  0  0  0  0  0
   58.0736   29.1708   46.7758 H   0  0  0  0  0  0  0  0  0  0  0  0
   59.1810   30.2350   45.2620 C   0  0  0  0  0  0  0  0  0  0  0  0
   59.2064   29.4703   44.4717 H   0  0  0  0  0  0  0  0  0  0  0  0
   59.1535   31.2402   44.8161 H   0  0  0  0  0  0  0  0  0  0  0  0
   60.4110   30.1130   46.1050 C   0  0  0  0  0  0  0  0  0  0  0  0
   61.4000   29.4580   45.6780 O   0  0  0  0  0  0  0  0  0  0  0  0
   60.4560   30.7690   47.3780 N   0  0  0  0  0  0  0  0  0  0  0  0
   61.3520   31.8200   47.7740 C   0  0  0  0  0  0  0  0  0  0  0  0
   62.5450   31.5490   48.4690 C   0  0  0  0  0  0  0  0  0  0  0  0
   62.8232   30.5090   48.6949 H   0  0  0  0  0  0  0  0  0  0  0  0
   63.3790   32.5970   48.8740 C   0  0  0  0  0  0  0  0  0  0  0  0
   64.8670   32.2500   49.7370 Cl  0  0  0  0  0  0  0  0  0  0  0  0
   63.0200   33.9200   48.6060 C   0  0  0  0  0  0  0  0  0  0  0  0
   63.6791   34.7427   48.9202 H   0  0  0  0  0  0  0  0  0  0  0  0
   61.8260   34.1990   47.9400 C   0  0  0  0  0  0  0  0  0  0  0  0
   61.5421   35.2427   47.7398 H   0  0  0  0  0  0  0  0  0  0  0  0
   60.9870   33.1570   47.5250 C   0  0  0  0  0  0  0  0  0  0  0  0
   59.7640   33.4700   46.8480 N   0  0  0  0  0  0  0  0  0  0  0  0
   59.8190   34.2140   45.5890 C   0  0  0  0  0  0  0  0  0  0  0  0
   59.8947   35.2903   45.8030 H   0  0  0  0  0  0  0  0  0  0  0  0
   60.6977   33.8902   45.0118 H   0  0  0  0  0  0  0  0  0  0  0  0
   58.5480   33.9440   44.7750 C   0  0  0  0  0  0  0  0  0  0  0  0
   58.5276   34.6167   43.9049 H   0  0  0  0  0  0  0  0  0  0  0  0
   58.5561   32.8938   44.4479 H   0  0  0  0  0  0  0  0  0  0  0  0
   57.3910   34.1650   45.5590 O   0  0  0  0  0  0  0  0  0  0  0  0
   57.3400   33.2260   46.6170 C   0  0  0  0  0  0  0  0  0  0  0  0
   56.3895   33.3433   47.1582 H   0  0  0  0  0  0  0  0  0  0  0  0
   57.4167   32.2133   46.1945 H   0  0  0  0  0  0  0  0  0  0  0  0
   58.5020   33.4420   47.5900 C   0  0  0  0  0  0  0  0  0  0  0  0
   58.3656   34.3979   48.1169 H   0  0  0  0  0  0  0  0  0  0  0  0
   58.5252   32.6196   48.3202 H   0  0  0  0  0  0  0  0  0  0  0  0
   55.7970   26.3070   46.1380 C   0  0  0  0  0  0  0  0  0  0  0  0
   54.4150   26.3390   45.9890 O   0  0  0  0  0  0  0  0  0  0  0  0
   56.3760   25.1710   46.7120 C   0  0  0  0  0  0  0  0  0  0  0  0
   55.7347   24.3631   47.0941 H   0  0  0  0  0  0  0  0  0  0  0  0
   57.7610   25.0580   46.8020 C   0  0  0  0  0  0  0  0  0  0  0  0
   58.2182   24.1685   47.2600 H   0  0  0  0  0  0  0  0  0  0  0  0
  1  2  1  0
  2  3  1  0
  3  4  1  0
  4  5  2  0
  5  6  1  0
  6  7  2  0
  6  8  1  0
  8  9  1  0
  8 10  1  0
  8 11  1  0
 11 12  1  0
 11 13  1  0
 11 14  1  0
 14 15  2  0
 14 16  1  0
 16 17  1  0
 17 18  2  0
 18 19  1  0
 18 20  1  0
 20 21  1  0
 20 22  2  0
 22 23  1  0
 22 24  1  0
 24 25  1  0
 24 26  2  0
 26 27  1  0
 27 28  1  0
 28 29  1  0
 28 30  1  0
 28 31  1  0
 31 32  1  0
 31 33  1  0
 31 34  1  0
 34 35  1  0
 35 36  1  0
 35 37  1  0
 35 38  1  0
 38 39  1  0
 38 40  1  0
  4 41  1  0
 41 42  1  0
 41 43  2  0
 43 44  1  0
 43 45  1  0
 45 46  1  0
 45  2  2  0
 26 17  1  0
 38 27  1  0
M  CHG  3   3  -1  16  -1  42  -1
M  END
>  <UniqueID>  (77) 
70

>  <SMILES>  (77) 
O=C(CCC(=O)[N-]c1cc(Cl)ccc1N1CCOCC1)/N=c1/[n-]cccc1[O-]

>  <Energy>  (77) 
65.15147804331302

>  <Genealogy>  (77) 
O=C(CCC(=O)[N-]c1cc(Cl)ccc1N1CCOCC1)N=c1[n-]cccc1[O-] (protonated)
O=C(CCC(=O)[N-]c1cc(Cl)ccc1N1CCOCC1)/N=c1/[n-]cccc1[O-] (cis-trans isomerization)
O=C(CCC(=O)[N-]c1cc(Cl)ccc1N1CCOCC1)/N=c1/[n-]cccc1[O-] (3D coordinates assigned)
O=C(CCC(=O)[N-]c1cc(Cl)ccc1N1CCOCC1)/N=c1/[n-]cccc1[O-] (nonaromatic ring conformer: 65.15147804331302 kcal/mol)

>  <smiles>  (77) 
O=C(CCC(=O)Nc1cc(Cl)ccc1N1CCOCC1)N=c1[nH]cccc1O

>  <score_type>  (77) 
oracle

>  <origin>  (77) 
adg

>  <m_score__min__energy>  (77) 
-14.75

>  <m_primary>  (77) 
energy

$$$$
77:0
     RDKit          3D

 29 31  0  0  0  0  0  0  0  0999 V2000
   53.9280   25.6810   45.8940 O   0  0  0  0  0  0  0  0  0  0  0  0
   55.1570   25.9350   45.9960 C   0  0  0  0  0  0  0  0  0  0  0  0
   56.0050   24.9920   46.4800 N   0  0  0  0  0  0  0  0  0  0  0  0
   57.3370   25.2350   46.6030 C   0  0  0  0  0  0  0  0  0  0  0  0
   58.0900   24.3330   47.0560 O   0  0  0  0  0  0  0  0  0  0  0  0
   57.8530   26.4860   46.2240 C   0  0  0  0  0  0  0  0  0  0  0  0
   59.2180   26.8020   46.3230 C   0  0  0  0  0  0  0  0  0  0  0  0
   59.6770   28.0630   45.9320 C   0  0  0  0  0  0  0  0  0  0  0  0
   58.7790   29.0270   45.4360 C   0  0  0  0  0  0  0  0  0  0  0  0
   59.2090   30.3330   45.0310 N   0  0  0  0  0  0  0  0  0  0  0  0
   58.1590   31.6530   44.6320 S   0  0  0  0  0  0  0  0  0  0  0  0
   56.7460   31.2830   44.9910 O   0  0  0  0  0  0  0  0  0  0  0  0
   58.2360   31.9130   43.1530 O   0  0  0  0  0  0  0  0  0  0  0  0
   58.6190   33.0890   45.5400 C   0  0  0  0  0  0  0  0  0  0  0  0
   59.2290   34.1750   44.9000 C   0  0  0  0  0  0  0  0  0  0  0  0
   59.5940   35.3020   45.6380 C   0  0  0  0  0  0  0  0  0  0  0  0
   59.3400   35.3320   47.0110 C   0  0  0  0  0  0  0  0  0  0  0  0
   58.7420   34.2720   47.6160 N   0  0  0  0  0  0  0  0  0  0  0  0
   58.3780   33.1620   46.9180 C   0  0  0  0  0  0  0  0  0  0  0  0
   57.4190   28.7090   45.3330 C   0  0  0  0  0  0  0  0  0  0  0  0
   56.9520   27.4490   45.7240 C   0  0  0  0  0  0  0  0  0  0  0  0
   55.6300   27.1520   45.6220 N   0  0  0  0  0  0  0  0  0  0  0  0
   59.9275   26.0553   46.7092 H   0  0  0  0  0  0  0  0  0  0  0  0
   60.7473   28.3038   46.0124 H   0  0  0  0  0  0  0  0  0  0  0  0
   59.4202   34.1399   43.8173 H   0  0  0  0  0  0  0  0  0  0  0  0
   60.0767   36.1577   45.1434 H   0  0  0  0  0  0  0  0  0  0  0  0
   59.6242   36.2143   47.6033 H   0  0  0  0  0  0  0  0  0  0  0  0
   57.8940   32.3212   47.4364 H   0  0  0  0  0  0  0  0  0  0  0  0
   56.7122   29.4555   44.9417 H   0  0  0  0  0  0  0  0  0  0  0  0
  1  2  2  0
  2  3  1  0
  3  4  1  0
  4  5  2  0
  4  6  1  0
  6  7  2  0
  7  8  1  0
  8  9  2  0
  9 10  1  0
 10 11  1  0
 11 12  2  0
 11 13  2  0
 11 14  1  0
 14 15  2  0
 15 16  1  0
 16 17  2  0
 17 18  1  0
 18 19  2  0
  9 20  1  0
 20 21  2  0
 21 22  1  0
 22  2  1  0
 21  6  1  0
 19 14  1  0
  7 23  1  0
  8 24  1  0
 15 25  1  0
 16 26  1  0
 17 27  1  0
 19 28  1  0
 20 29  1  0
M  CHG  3   3  -1  10  -1  22  -1
M  END
>  <UniqueID>  (78) 
71

>  <SMILES>  (78) 
O=c1[n-]c(=O)c2ccc([N-]S(=O)(=O)c3cccnc3)cc2[n-]1

>  <Energy>  (78) 
40.919117305638444

>  <Genealogy>  (78) 
O=c1[n-]c(=O)c2ccc([N-]S(=O)(=O)c3cccnc3)cc2[n-]1 (protonated)
O=c1[n-]c(=O)c2ccc([N-]S(=O)(=O)c3cccnc3)cc2[n-]1 (3D coordinates assigned)
O=c1[n-]c(=O)c2ccc([N-]S(=O)(=O)c3cccnc3)cc2[n-]1 (optimized conformer: 40.919117305638444 kcal/mol)

>  <smiles>  (78) 
O=c1[nH]c(=O)c2ccc(NS(=O)(=O)c3cccnc3)cc2[nH]1

>  <score_type>  (78) 
oracle

>  <origin>  (78) 
adg

>  <m_score__min__energy>  (78) 
-12.949999999999999

>  <m_primary>  (78) 
energy

$$$$
78:0
     RDKit          3D

 40 42  0  0  0  0  0  0  0  0999 V2000
   59.9765   28.5006   49.1025 H   0  0  0  0  0  0  0  0  0  0  0  0
   59.6870   28.8120   48.0880 C   0  0  0  0  0  0  0  0  0  0  0  0
   58.5200   28.3080   47.5080 C   0  0  0  0  0  0  0  0  0  0  0  0
   57.8906   27.5996   48.0667 H   0  0  0  0  0  0  0  0  0  0  0  0
   58.1510   28.7030   46.2180 C   0  0  0  0  0  0  0  0  0  0  0  0
   57.2303   28.3047   45.7667 H   0  0  0  0  0  0  0  0  0  0  0  0
   58.9470   29.6030   45.4970 C   0  0  0  0  0  0  0  0  0  0  0  0
   58.5320   29.9800   44.1780 N   0  0  0  0  0  0  0  0  0  0  0  0
   57.0630   30.8150   43.7920 S   0  0  0  0  0  0  0  0  0  0  0  0
   56.0370   30.5660   44.8630 O   0  0  0  0  0  0  0  0  0  0  0  0
   56.5410   30.3400   42.4650 O   0  0  0  0  0  0  0  0  0  0  0  0
   57.3960   32.5640   43.6930 C   0  0  0  0  0  0  0  0  0  0  0  0
   57.9955   32.7691   42.7938 H   0  0  0  0  0  0  0  0  0  0  0  0
   56.4414   33.1081   43.6410 H   0  0  0  0  0  0  0  0  0  0  0  0
   58.1530   33.0190   44.9080 C   0  0  0  0  0  0  0  0  0  0  0  0
   59.2700   33.8590   44.7740 C   0  0  0  0  0  0  0  0  0  0  0  0
   59.5722   34.2128   43.7773 H   0  0  0  0  0  0  0  0  0  0  0  0
   60.0000   34.2480   45.9010 C   0  0  0  0  0  0  0  0  0  0  0  0
   60.8588   34.9263   45.7892 H   0  0  0  0  0  0  0  0  0  0  0  0
   59.6440   33.7790   47.1710 C   0  0  0  0  0  0  0  0  0  0  0  0
   60.3800   34.2320   48.3170 N   0  0  0  0  0  0  0  0  0  0  0  0
   61.5820   33.8770   48.6840 C   0  0  0  0  0  0  0  0  0  0  0  0
   62.5020   33.2900   47.7880 C   0  0  0  0  0  0  0  0  0  0  0  0
   62.2168   33.1078   46.7414 H   0  0  0  0  0  0  0  0  0  0  0  0
   63.7750   32.9430   48.2400 C   0  0  0  0  0  0  0  0  0  0  0  0
   64.4949   32.4767   47.5513 H   0  0  0  0  0  0  0  0  0  0  0  0
   64.1350   33.1870   49.5640 C   0  0  0  0  0  0  0  0  0  0  0  0
   65.8770   32.7190   50.1940 Br  0  0  0  0  0  0  0  0  0  0  0  0
   63.2120   33.7870   50.4220 C   0  0  0  0  0  0  0  0  0  0  0  0
   63.4869   33.9905   51.4675 H   0  0  0  0  0  0  0  0  0  0  0  0
   61.9730   34.1210   49.9690 N   0  0  0  0  0  0  0  0  0  0  0  0
   61.3050   34.5710   50.6370 H   0  0  0  0  0  0  0  0  0  0  0  0
   58.5110   32.9600   47.3100 C   0  0  0  0  0  0  0  0  0  0  0  0
   58.1976   32.6241   48.3095 H   0  0  0  0  0  0  0  0  0  0  0  0
   57.7800   32.5700   46.1840 C   0  0  0  0  0  0  0  0  0  0  0  0
   56.9088   31.9084   46.2988 H   0  0  0  0  0  0  0  0  0  0  0  0
   60.1210   30.1090   46.0870 C   0  0  0  0  0  0  0  0  0  0  0  0
   60.7526   30.8180   45.5317 H   0  0  0  0  0  0  0  0  0  0  0  0
   60.4860   29.7120   47.3780 C   0  0  0  0  0  0  0  0  0  0  0  0
   61.4042   30.1093   47.8352 H   0  0  0  0  0  0  0  0  0  0  0  0
  1  2  1  0
  2  3  2  0
  3  4  1  0
  3  5  1  0
  5  6  1  0
  5  7  2  0
  7  8  1  0
  8  9  1  0
  9 10  2  0
  9 11  2  0
  9 12  1  0
 12 13  1  0
 12 14  1  0
 12 15  1  0
 15 16  2  0
 16 17  1  0
 16 18  1  0
 18 19  1  0
 18 20  2  0
 20 21  1  0
 21 22  2  0
 22 23  1  0
 23 24  1  0
 23 25  2  0
 25 26  1  0
 25 27  1  0
 27 28  1  0
 27 29  2  0
 29 30  1  0
 29 31  1  0
 31 32  1  0
 20 33  1  0
 33 34  1  0
 33 35  2  0
 35 36  1  0
  7 37  1  0
 37 38  1  0
 37 39  2  0
 39 40  1  0
 39  2  1  0
 35 15  1  0
 31 22  1  0
M  CHG  1   8  -1
M  END
>  <UniqueID>  (79) 
72

>  <SMILES>  (79) 
O=S(=O)(Cc1ccc(/N=c2\ccc(Br)c[nH]2)cc1)[N-]c1ccccc1

>  <Energy>  (79) 
50.53034005599836

>  <Genealogy>  (79) 
O=S(=O)(Cc1ccc(N=c2ccc(Br)c[nH]2)cc1)[N-]c1ccccc1 (protonated)
O=S(=O)(Cc1ccc(/N=c2\ccc(Br)c[nH]2)cc1)[N-]c1ccccc1 (cis-trans isomerization)
O=S(=O)(Cc1ccc(/N=c2\ccc(Br)c[nH]2)cc1)[N-]c1ccccc1 (3D coordinates assigned)
O=S(=O)(Cc1ccc(/N=c2\ccc(Br)c[nH]2)cc1)[N-]c1ccccc1 (optimized conformer: 50.53034005599836 kcal/mol)

>  <smiles>  (79) 
O=S(=O)(Cc1ccc(N=c2ccc(Br)c[nH]2)cc1)Nc1ccccc1

>  <score_type>  (79) 
oracle

>  <origin>  (79) 
adg

>  <m_score__min__energy>  (79) 
-9.7699999999999996

>  <m_primary>  (79) 
energy

$$$$
79:0
     RDKit          3D

 54 57  0  0  0  0  0  0  0  0999 V2000
   55.1380   29.3100   44.8760 O   0  0  0  0  0  0  0  0  0  0  0  0
   56.2310   29.8040   44.4860 C   0  0  0  0  0  0  0  0  0  0  0  0
   57.2700   28.9220   43.8430 C   0  0  0  0  0  0  0  0  0  0  0  0
   58.0650   28.2030   44.8540 N   0  0  0  0  0  0  0  0  0  0  0  0
   59.4260   28.3610   44.8580 C   0  0  0  0  0  0  0  0  0  0  0  0
   60.2200   27.6820   45.7840 C   0  0  0  0  0  0  0  0  0  0  0  0
   59.6180   26.8310   46.7080 C   0  0  0  0  0  0  0  0  0  0  0  0
   58.2350   26.6640   46.6950 C   0  0  0  0  0  0  0  0  0  0  0  0
   57.4640   27.3550   45.7530 C   0  0  0  0  0  0  0  0  0  0  0  0
   56.2140   27.1810   45.7400 O   0  0  0  0  0  0  0  0  0  0  0  0
   56.4720   31.1980   44.7040 N   0  0  0  0  0  0  0  0  0  0  0  0
   57.5260   31.9590   44.0450 C   0  0  0  0  0  0  0  0  0  0  0  0
   58.6150   32.2590   45.0360 C   0  0  0  0  0  0  0  0  0  0  0  0
   59.1600   31.2280   45.8180 C   0  0  0  0  0  0  0  0  0  0  0  0
   60.1460   31.5080   46.7690 C   0  0  0  0  0  0  0  0  0  0  0  0
   60.5850   32.8250   46.9640 C   0  0  0  0  0  0  0  0  0  0  0  0
   61.6210   33.1170   47.9740 C   0  0  0  0  0  0  0  0  0  0  0  0
   62.9610   33.1860   47.5540 C   0  0  0  0  0  0  0  0  0  0  0  0
   63.9740   33.4970   48.4630 C   0  0  0  0  0  0  0  0  0  0  0  0
   63.6610   33.7410   49.7990 C   0  0  0  0  0  0  0  0  0  0  0  0
   62.3370   33.6640   50.2350 C   0  0  0  0  0  0  0  0  0  0  0  0
   61.3060   33.3370   49.3380 C   0  0  0  0  0  0  0  0  0  0  0  0
   59.6490   33.1970   49.9580 S   0  0  0  0  0  0  0  0  0  0  0  0
   58.6570   33.3020   48.8330 O   0  0  0  0  0  0  0  0  0  0  0  0
   59.3890   34.3110   50.9320 O   0  0  0  0  0  0  0  0  0  0  0  0
   59.4100   31.6270   50.7400 C   0  0  0  0  0  0  0  0  0  0  0  0
   60.2230   30.5240   50.4200 C   0  0  0  0  0  0  0  0  0  0  0  0
   61.2120   30.6280   49.4960 F   0  0  0  0  0  0  0  0  0  0  0  0
   60.0100   29.2910   51.0430 C   0  0  0  0  0  0  0  0  0  0  0  0
   58.9850   29.1440   51.9810 C   0  0  0  0  0  0  0  0  0  0  0  0
   58.1640   30.2300   52.2930 C   0  0  0  0  0  0  0  0  0  0  0  0
   58.3710   31.4670   51.6740 C   0  0  0  0  0  0  0  0  0  0  0  0
   57.5490   32.5030   51.9800 F   0  0  0  0  0  0  0  0  0  0  0  0
   60.0460   33.8560   46.1810 C   0  0  0  0  0  0  0  0  0  0  0  0
   59.0600   33.5790   45.2300 C   0  0  0  0  0  0  0  0  0  0  0  0
   58.5370   34.5970   44.5010 F   0  0  0  0  0  0  0  0  0  0  0  0
   56.7663   28.1887   43.1960 H   0  0  0  0  0  0  0  0  0  0  0  0
   57.9493   29.5582   43.2567 H   0  0  0  0  0  0  0  0  0  0  0  0
   59.8982   29.0301   44.1236 H   0  0  0  0  0  0  0  0  0  0  0  0
   61.3116   27.8178   45.7840 H   0  0  0  0  0  0  0  0  0  0  0  0
   60.2322   26.2930   47.4450 H   0  0  0  0  0  0  0  0  0  0  0  0
   57.7518   25.9932   47.4206 H   0  0  0  0  0  0  0  0  0  0  0  0
   57.9387   31.3704   43.2124 H   0  0  0  0  0  0  0  0  0  0  0  0
   57.1123   32.9008   43.6554 H   0  0  0  0  0  0  0  0  0  0  0  0
   58.8093   30.1943   45.6817 H   0  0  0  0  0  0  0  0  0  0  0  0
   60.5788   30.6920   47.3663 H   0  0  0  0  0  0  0  0  0  0  0  0
   63.2133   32.9934   46.5008 H   0  0  0  0  0  0  0  0  0  0  0  0
   65.0194   33.5495   48.1247 H   0  0  0  0  0  0  0  0  0  0  0  0
   64.4593   33.9949   50.5119 H   0  0  0  0  0  0  0  0  0  0  0  0
   62.0986   33.8612   51.2906 H   0  0  0  0  0  0  0  0  0  0  0  0
   60.6518   28.4331   50.7938 H   0  0  0  0  0  0  0  0  0  0  0  0
   58.8247   28.1735   52.4735 H   0  0  0  0  0  0  0  0  0  0  0  0
   57.3531   30.1122   53.0269 H   0  0  0  0  0  0  0  0  0  0  0  0
   60.4012   34.8883   46.3160 H   0  0  0  0  0  0  0  0  0  0  0  0
  1  2  2  0
  2  3  1  0
  3  4  1  0
  4  5  1  0
  5  6  2  0
  6  7  1  0
  7  8  2  0
  8  9  1  0
  9 10  2  0
  2 11  1  0
 11 12  1  0
 12 13  1  0
 13 14  2  0
 14 15  1  0
 15 16  2  0
 16 17  1  0
 17 18  2  0
 18 19  1  0
 19 20  2  0
 20 21  1  0
 21 22  2  0
 22 23  1  0
 23 24  2  0
 23 25  2  0
 23 26  1  0
 26 27  2  0
 27 28  1  0
 27 29  1  0
 29 30  2  0
 30 31  1  0
 31 32  2  0
 32 33  1  0
 16 34  1  0
 34 35  2  0
 35 36  1  0
  9  4  1  0
 35 13  1  0
 22 17  1  0
 32 26  1  0
  3 37  1  0
  3 38  1  0
  5 39  1  0
  6 40  1  0
  7 41  1  0
  8 42  1  0
 12 43  1  0
 12 44  1  0
 14 45  1  0
 15 46  1  0
 18 47  1  0
 19 48  1  0
 20 49  1  0
 21 50  1  0
 29 51  1  0
 30 52  1  0
 31 53  1  0
 34 54  1  0
M  CHG  1  11  -1
M  END
>  <UniqueID>  (80) 
73

>  <SMILES>  (80) 
O=C(Cn1ccccc1=O)[N-]Cc1ccc(-c2ccccc2S(=O)(=O)c2c(F)cccc2F)cc1F

>  <Energy>  (80) 
71.38646298655706

>  <Genealogy>  (80) 
O=C(Cn1ccccc1=O)[N-]Cc1ccc(-c2ccccc2S(=O)(=O)c2c(F)cccc2F)cc1F (protonated)
O=C(Cn1ccccc1=O)[N-]Cc1ccc(-c2ccccc2S(=O)(=O)c2c(F)cccc2F)cc1F (3D coordinates assigned)
O=C(Cn1ccccc1=O)[N-]Cc1ccc(-c2ccccc2S(=O)(=O)c2c(F)cccc2F)cc1F (optimized conformer: 71.38646298655706 kcal/mol)

>  <smiles>  (80) 
O=C(Cn1ccccc1=O)NCc1ccc(-c2ccccc2S(=O)(=O)c2c(F)cccc2F)cc1F

>  <score_type>  (80) 
oracle

>  <origin>  (80) 
adg

>  <m_score__min__energy>  (80) 
-12.06

>  <m_primary>  (80) 
energy

$$$$
80:0
     RDKit          3D

 54 56  0  0  1  0  0  0  0  0999 V2000
   66.5840   32.7760   50.1960 C   0  0  0  0  0  0  0  0  0  0  0  0
   65.4430   31.7900   50.3520 C   0  0  0  0  0  0  0  0  0  0  0  0
   64.1530   32.3750   49.9090 C   0  0  0  0  0  0  0  0  0  0  0  0
   63.2040   32.6490   50.6620 O   0  0  0  0  0  0  0  0  0  0  0  0
   64.0000   32.6350   48.5210 N   0  0  0  0  0  0  0  0  0  0  0  0
   62.4750   33.3200   48.0290 S   0  0  0  0  0  0  0  0  0  0  0  0
   62.6310   33.9670   46.6600 O   0  0  0  0  0  0  0  0  0  0  0  0
   62.0010   34.2880   49.0440 O   0  0  0  0  0  0  0  0  0  0  0  0
   61.3470   31.9780   47.8600 C   0  0  0  0  0  0  0  0  0  0  0  0
   61.4300   31.1120   46.7650 C   0  0  0  0  0  0  0  0  0  0  0  0
   60.5450   30.0580   46.6330 C   0  0  0  0  0  0  0  0  0  0  0  0
   59.5620   29.8480   47.5880 C   0  0  0  0  0  0  0  0  0  0  0  0
   58.6850   28.7420   47.3850 N   0  0  0  0  0  0  0  0  0  0  0  0
   58.3980   28.2620   46.2400 C   0  0  0  0  0  0  0  0  0  0  0  0
   58.8200   26.9760   45.8940 C   0  0  0  0  0  0  0  0  0  0  0  0
   58.4840   26.4910   44.6290 C   0  0  0  0  0  0  0  0  0  0  0  0
   57.7710   27.2900   43.8130 N   0  0  0  0  0  0  0  0  0  0  0  0
   57.3770   28.5290   44.1760 C   0  0  0  0  0  0  0  0  0  0  0  0
   56.6040   29.3380   43.2330 C   0  0  0  0  0  0  0  0  0  0  0  0
   56.9960   30.5760   42.9710 C   0  0  0  0  0  0  0  0  0  0  0  0
   57.1010   31.5240   44.0870 C   0  0  0  0  0  0  0  0  0  0  0  0
   56.1610   31.5910   44.8630 O   0  0  0  0  0  0  0  0  0  0  0  0
   58.2540   32.3130   44.2340 N   0  0  0  0  0  0  0  0  0  0  0  0
   58.5730   33.2620   45.1950 C   0  0  0  0  0  0  0  0  0  0  0  0
   59.2660   34.4040   44.7590 C   0  0  0  0  0  0  0  0  0  0  0  0
   59.6360   35.4060   45.6000 C   0  0  0  0  0  0  0  0  0  0  0  0
   59.3530   35.3680   46.9470 C   0  0  0  0  0  0  0  0  0  0  0  0
   58.6800   34.2720   47.4070 C   0  0  0  0  0  0  0  0  0  0  0  0
   58.2970   33.2350   46.5350 C   0  0  0  0  0  0  0  0  0  0  0  0
   57.6320   32.2010   47.1240 O   0  0  0  0  0  0  0  0  0  0  0  0
   57.6850   29.0280   45.3900 N   0  0  0  0  0  0  0  0  0  0  0  0
   59.4620   30.6900   48.6770 C   0  0  0  0  0  0  0  0  0  0  0  0
   60.3550   31.7420   48.7970 C   0  0  0  0  0  0  0  0  0  0  0  0
   66.9407   33.0842   51.1899 H   0  0  0  0  0  0  0  0  0  0  0  0
   67.4068   32.3000   49.6425 H   0  0  0  0  0  0  0  0  0  0  0  0
   66.2323   33.6591   49.6425 H   0  0  0  0  0  0  0  0  0  0  0  0
   65.6571   30.8971   49.7463 H   0  0  0  0  0  0  0  0  0  0  0  0
   65.3557   31.5295   51.4171 H   0  0  0  0  0  0  0  0  0  0  0  0
   64.7250   32.4440   47.8160 H   0  0  0  0  0  0  0  0  0  0  0  0
   62.2063   31.2708   46.0020 H   0  0  0  0  0  0  0  0  0  0  0  0
   60.6210   29.3837   45.7673 H   0  0  0  0  0  0  0  0  0  0  0  0
   59.4008   26.3628   46.5987 H   0  0  0  0  0  0  0  0  0  0  0  0
   58.7928   25.4852   44.3081 H   0  0  0  0  0  0  0  0  0  0  0  0
   55.7083   28.9232   42.7476 H   0  0  0  0  0  0  0  0  0  0  0  0
   57.2367   30.8858   41.9433 H   0  0  0  0  0  0  0  0  0  0  0  0
   58.9880   32.1340   43.4680 H   0  0  0  0  0  0  0  0  0  0  0  0
   59.5198   34.4909   43.6922 H   0  0  0  0  0  0  0  0  0  0  0  0
   60.1773   36.2725   45.1924 H   0  0  0  0  0  0  0  0  0  0  0  0
   59.6550   36.1827   47.6216 H   0  0  0  0  0  0  0  0  0  0  0  0
   58.4332   34.1983   48.4764 H   0  0  0  0  0  0  0  0  0  0  0  0
   57.0300   31.5830   46.5880 H   0  0  0  0  0  0  0  0  0  0  0  0
   57.3680   29.9700   45.6240 H   0  0  0  0  0  0  0  0  0  0  0  0
   58.6847   30.5280   49.4383 H   0  0  0  0  0  0  0  0  0  0  0  0
   60.2735   32.4122   49.6654 H   0  0  0  0  0  0  0  0  0  0  0  0
  1  2  1  0
  2  3  1  0
  3  4  2  0
  3  5  1  0
  5  6  1  0
  6  7  2  0
  6  8  2  0
  6  9  1  0
  9 10  2  0
 10 11  1  0
 11 12  2  0
 12 13  1  0
 13 14  2  0
 14 15  1  0
 15 16  2  0
 16 17  1  0
 17 18  2  0
 18 19  1  0
 19 20  2  0
 20 21  1  0
 21 22  2  0
 21 23  1  0
 23 24  1  0
 24 25  2  0
 25 26  1  0
 26 27  2  0
 27 28  1  0
 28 29  2  0
 29 30  1  0
 18 31  1  0
 12 32  1  0
 32 33  2  0
 33  9  1  0
 31 14  1  0
 29 24  1  0
  1 34  1  0
  1 35  1  0
  1 36  1  0
  2 37  1  0
  2 38  1  0
  5 39  1  0
 10 40  1  0
 11 41  1  0
 15 42  1  0
 16 43  1  0
 19 44  1  0
 20 45  1  0
 23 46  1  0
 25 47  1  0
 26 48  1  0
 27 49  1  0
 28 50  1  0
 30 51  1  0
 31 52  1  0
 32 53  1  0
 33 54  1  0
M  END
>  <smiles>  (81) 
CCC(=O)NS(=O)(=O)c1ccc(N=c2ccnc(C=CC(=O)Nc3ccccc3O)[nH]2)cc1

>  <score_type>  (81) 
oracle

>  <origin>  (81) 
adg

>  <m_score__min__energy>  (81) 
-10.4

>  <m_primary>  (81) 
energy

$$$$
81:0
     RDKit          3D

 49 52  0  0  0  0  0  0  0  0999 V2000
   55.2070   29.3810   44.7350 O   0  0  0  0  0  0  0  0  0  0  0  0
   56.3980   28.9980   44.8950 C   0  0  0  0  0  0  0  0  0  0  0  0
   57.4830   29.5920   44.0580 C   0  0  0  0  0  0  0  0  0  0  0  0
   56.8760   31.1100   43.2470 S   0  0  0  0  0  0  0  0  0  0  0  0
   57.6520   32.1920   44.4440 C   0  0  0  0  0  0  0  0  0  0  0  0
   58.1730   33.3810   44.0450 N   0  0  0  0  0  0  0  0  0  0  0  0
   58.7680   34.2240   44.9290 C   0  0  0  0  0  0  0  0  0  0  0  0
   59.2400   35.3170   44.5180 O   0  0  0  0  0  0  0  0  0  0  0  0
   58.8480   33.8650   46.2860 C   0  0  0  0  0  0  0  0  0  0  0  0
   59.4530   34.6910   47.2510 C   0  0  0  0  0  0  0  0  0  0  0  0
   59.5040   34.2820   48.5880 C   0  0  0  0  0  0  0  0  0  0  0  0
   58.9500   33.0560   48.9700 C   0  0  0  0  0  0  0  0  0  0  0  0
   58.3460   32.2280   48.0180 C   0  0  0  0  0  0  0  0  0  0  0  0
   58.2940   32.6260   46.6780 C   0  0  0  0  0  0  0  0  0  0  0  0
   57.7110   31.8230   45.7500 N   0  0  0  0  0  0  0  0  0  0  0  0
   56.7360   28.0550   45.9220 N   0  0  0  0  0  0  0  0  0  0  0  0
   58.0430   27.8100   46.4670 C   0  0  0  0  0  0  0  0  0  0  0  0
   58.7470   26.6800   46.0310 C   0  0  0  0  0  0  0  0  0  0  0  0
   60.0110   26.3900   46.5500 C   0  0  0  0  0  0  0  0  0  0  0  0
   60.5770   27.2210   47.5220 C   0  0  0  0  0  0  0  0  0  0  0  0
   59.8720   28.3380   47.9940 C   0  0  0  0  0  0  0  0  0  0  0  0
   60.5730   29.3680   49.2470 S   0  0  0  0  0  0  0  0  0  0  0  0
   61.0800   28.5040   50.3690 O   0  0  0  0  0  0  0  0  0  0  0  0
   59.5040   30.2690   49.8020 O   0  0  0  0  0  0  0  0  0  0  0  0
   61.8820   30.3470   48.6250 N   0  0  0  0  0  0  0  0  0  0  0  0
   61.4180   31.1770   47.4980 C   0  0  0  0  0  0  0  0  0  0  0  0
   62.3710   32.3620   47.2760 C   0  0  0  0  0  0  0  0  0  0  0  0
   62.4650   33.2410   48.3920 O   0  0  0  0  0  0  0  0  0  0  0  0
   62.1560   32.6260   49.6350 C   0  0  0  0  0  0  0  0  0  0  0  0
   62.5360   31.1330   49.6950 C   0  0  0  0  0  0  0  0  0  0  0  0
   58.6050   28.6280   47.4680 C   0  0  0  0  0  0  0  0  0  0  0  0
   58.3439   29.8384   44.6969 H   0  0  0  0  0  0  0  0  0  0  0  0
   57.7879   28.8663   43.2896 H   0  0  0  0  0  0  0  0  0  0  0  0
   59.8857   35.6579   46.9544 H   0  0  0  0  0  0  0  0  0  0  0  0
   59.9812   34.9266   49.3409 H   0  0  0  0  0  0  0  0  0  0  0  0
   58.9894   32.7416   50.0234 H   0  0  0  0  0  0  0  0  0  0  0  0
   57.9121   31.2643   48.3230 H   0  0  0  0  0  0  0  0  0  0  0  0
   58.3015   26.0167   45.2750 H   0  0  0  0  0  0  0  0  0  0  0  0
   60.5618   25.5070   46.1938 H   0  0  0  0  0  0  0  0  0  0  0  0
   61.5788   26.9979   47.9179 H   0  0  0  0  0  0  0  0  0  0  0  0
   61.3845   30.5632   46.5858 H   0  0  0  0  0  0  0  0  0  0  0  0
   60.4152   31.5648   47.7303 H   0  0  0  0  0  0  0  0  0  0  0  0
   63.3742   31.9648   47.0620 H   0  0  0  0  0  0  0  0  0  0  0  0
   61.9631   32.9487   46.4397 H   0  0  0  0  0  0  0  0  0  0  0  0
   62.7006   33.1559   50.4303 H   0  0  0  0  0  0  0  0  0  0  0  0
   61.0652   32.6872   49.7634 H   0  0  0  0  0  0  0  0  0  0  0  0
   63.6267   31.0403   49.5866 H   0  0  0  0  0  0  0  0  0  0  0  0
   62.1950   30.7360   50.6626 H   0  0  0  0  0  0  0  0  0  0  0  0
   58.0459   29.4996   47.8390 H   0  0  0  0  0  0  0  0  0  0  0  0
  1  2  2  0
  2  3  1  0
  3  4  1  0
  4  5  1  0
  5  6  2  0
  6  7  1  0
  7  8  2  0
  7  9  1  0
  9 10  2  0
 10 11  1  0
 11 12  2  0
 12 13  1  0
 13 14  2  0
 14 15  1  0
  2 16  1  0
 16 17  1  0
 17 18  2  0
 18 19  1  0
 19 20  2  0
 20 21  1  0
 21 22  1  0
 22 23  2  0
 22 24  2  0
 22 25  1  0
 25 26  1  0
 26 27  1  0
 27 28  1  0
 28 29  1  0
 29 30  1  0
 21 31  2  0
 15  5  1  0
 31 17  1  0
 14  9  1  0
 30 25  1  0
  3 32  1  0
  3 33  1  0
 10 34  1  0
 11 35  1  0
 12 36  1  0
 13 37  1  0
 18 38  1  0
 19 39  1  0
 20 40  1  0
 26 41  1  0
 26 42  1  0
 27 43  1  0
 27 44  1  0
 29 45  1  0
 29 46  1  0
 30 47  1  0
 30 48  1  0
 31 49  1  0
M  CHG  2  15  -1  16  -1
M  END
>  <UniqueID>  (82) 
74

>  <SMILES>  (82) 
O=C(CSc1nc(=O)c2ccccc2[n-]1)[N-]c1cccc(S(=O)(=O)N2CCOCC2)c1

>  <Energy>  (82) 
67.3767409786173

>  <Genealogy>  (82) 
O=C(CSc1nc(=O)c2ccccc2[n-]1)[N-]c1cccc(S(=O)(=O)N2CCOCC2)c1 (protonated)
O=C(CSc1nc(=O)c2ccccc2[n-]1)[N-]c1cccc(S(=O)(=O)N2CCOCC2)c1 (3D coordinates assigned)
O=C(CSc1nc(=O)c2ccccc2[n-]1)[N-]c1cccc(S(=O)(=O)N2CCOCC2)c1 (nonaromatic ring conformer: 67.3767409786173 kcal/mol)

>  <smiles>  (82) 
O=C(CSc1nc(=O)c2ccccc2[nH]1)Nc1cccc(S(=O)(=O)N2CCOCC2)c1

>  <score_type>  (82) 
oracle

>  <origin>  (82) 
adg

>  <m_score__min__energy>  (82) 
-12.880000000000001

>  <m_primary>  (82) 
energy

$$$$
82:0
     RDKit          3D

 62 64  0  0  0  0  0  0  0  0999 V2000
   57.0330   31.2530   51.7700 C   0  0  0  0  0  0  0  0  0  0  0  0
   57.4980   32.0190   50.6630 O   0  0  0  0  0  0  0  0  0  0  0  0
   58.8200   32.0050   50.1890 C   0  0  0  0  0  0  0  0  0  0  0  0
   59.6540   33.1340   50.2730 C   0  0  0  0  0  0  0  0  0  0  0  0
   60.9700   33.0780   49.8070 C   0  0  0  0  0  0  0  0  0  0  0  0
   61.4670   31.9010   49.2290 C   0  0  0  0  0  0  0  0  0  0  0  0
   62.8990   31.8280   48.7680 C   0  0  0  0  0  0  0  0  0  0  0  0
   63.2410   33.0270   47.8790 C   0  0  0  0  0  0  0  0  0  0  0  0
   62.3100   33.0880   46.7370 N   0  0  0  0  0  0  0  0  0  0  0  0
   61.3700   34.2180   46.8370 C   0  0  0  0  0  0  0  0  0  0  0  0
   60.0190   33.8420   46.2800 C   0  0  0  0  0  0  0  0  0  0  0  0
   59.2210   34.8160   45.6640 C   0  0  0  0  0  0  0  0  0  0  0  0
   57.9900   34.4680   45.1110 C   0  0  0  0  0  0  0  0  0  0  0  0
   57.5470   33.1450   45.1600 C   0  0  0  0  0  0  0  0  0  0  0  0
   58.3340   32.1470   45.7640 C   0  0  0  0  0  0  0  0  0  0  0  0
   57.8710   30.7340   45.7640 C   0  0  0  0  0  0  0  0  0  0  0  0
   56.9650   30.3770   44.9630 O   0  0  0  0  0  0  0  0  0  0  0  0
   58.4220   29.7720   46.6780 N   0  0  0  0  0  0  0  0  0  0  0  0
   58.5910   28.3740   46.3830 C   0  0  0  0  0  0  0  0  0  0  0  0
   59.8630   27.7780   46.3180 C   0  0  0  0  0  0  0  0  0  0  0  0
   59.9900   26.4060   46.0860 C   0  0  0  0  0  0  0  0  0  0  0  0
   58.8550   25.6040   45.9280 C   0  0  0  0  0  0  0  0  0  0  0  0
   59.0830   23.8780   45.6560 Cl  0  0  0  0  0  0  0  0  0  0  0  0
   57.5740   26.1860   46.0000 C   0  0  0  0  0  0  0  0  0  0  0  0
   56.1140   25.2000   45.8360 S   0  0  0  0  0  0  0  0  0  0  0  0
   55.8800   24.4080   47.0960 O   0  0  0  0  0  0  0  0  0  0  0  0
   54.9400   26.1150   45.6190 O   0  0  0  0  0  0  0  0  0  0  0  0
   56.2840   24.1110   44.4810 N   0  0  0  0  0  0  0  0  0  0  0  0
   57.0150   24.7860   43.4030 C   0  0  0  0  0  0  0  0  0  0  0  0
   54.9510   23.7110   44.0060 C   0  0  0  0  0  0  0  0  0  0  0  0
   57.4550   27.5660   46.2280 C   0  0  0  0  0  0  0  0  0  0  0  0
   59.5770   32.5090   46.3190 C   0  0  0  0  0  0  0  0  0  0  0  0
   60.6350   30.7750   49.1400 C   0  0  0  0  0  0  0  0  0  0  0  0
   59.3210   30.8260   49.6180 C   0  0  0  0  0  0  0  0  0  0  0  0
   58.5120   29.7010   49.5240 O   0  0  0  0  0  0  0  0  0  0  0  0
   57.3316   31.7449   52.7075 H   0  0  0  0  0  0  0  0  0  0  0  0
   55.9364   31.1773   51.7287 H   0  0  0  0  0  0  0  0  0  0  0  0
   57.4719   30.2452   51.7287 H   0  0  0  0  0  0  0  0  0  0  0  0
   59.2678   34.0674   50.7084 H   0  0  0  0  0  0  0  0  0  0  0  0
   61.6194   33.9616   49.8940 H   0  0  0  0  0  0  0  0  0  0  0  0
   63.5618   31.8282   49.6459 H   0  0  0  0  0  0  0  0  0  0  0  0
   63.0377   30.9046   48.1866 H   0  0  0  0  0  0  0  0  0  0  0  0
   63.1574   33.9527   48.4673 H   0  0  0  0  0  0  0  0  0  0  0  0
   64.2686   32.9167   47.5025 H   0  0  0  0  0  0  0  0  0  0  0  0
   62.8740   33.2300   45.8650 H   0  0  0  0  0  0  0  0  0  0  0  0
   61.2581   34.5016   47.8939 H   0  0  0  0  0  0  0  0  0  0  0  0
   61.7692   35.0614   46.2545 H   0  0  0  0  0  0  0  0  0  0  0  0
   59.5677   35.8589   45.6169 H   0  0  0  0  0  0  0  0  0  0  0  0
   57.3656   35.2381   44.6345 H   0  0  0  0  0  0  0  0  0  0  0  0
   56.5733   32.8801   44.7222 H   0  0  0  0  0  0  0  0  0  0  0  0
   58.6900   30.1020   47.6340 H   0  0  0  0  0  0  0  0  0  0  0  0
   60.7635   28.3957   46.4506 H   0  0  0  0  0  0  0  0  0  0  0  0
   60.9906   25.9530   46.0271 H   0  0  0  0  0  0  0  0  0  0  0  0
   57.7576   25.4717   43.8370 H   0  0  0  0  0  0  0  0  0  0  0  0
   57.5271   24.0364   42.7819 H   0  0  0  0  0  0  0  0  0  0  0  0
   56.3085   25.3561   42.7819 H   0  0  0  0  0  0  0  0  0  0  0  0
   54.2978   23.5150   44.8691 H   0  0  0  0  0  0  0  0  0  0  0  0
   54.5209   24.5197   43.3968 H   0  0  0  0  0  0  0  0  0  0  0  0
   55.0372   22.7992   43.3968 H   0  0  0  0  0  0  0  0  0  0  0  0
   56.4551   28.0209   46.2860 H   0  0  0  0  0  0  0  0  0  0  0  0
   60.2083   31.7399   46.7879 H   0  0  0  0  0  0  0  0  0  0  0  0
   61.0180   29.8464   48.6917 H   0  0  0  0  0  0  0  0  0  0  0  0
  1  2  1  0
  2  3  1  0
  3  4  2  0
  4  5  1  0
  5  6  2  0
  6  7  1  0
  7  8  1  0
  8  9  1  0
  9 10  1  0
 10 11  1  0
 11 12  2  0
 12 13  1  0
 13 14  2  0
 14 15  1  0
 15 16  1  0
 16 17  2  0
 16 18  1  0
 18 19  1  0
 19 20  2  0
 20 21  1  0
 21 22  2  0
 22 23  1  0
 22 24  1  0
 24 25  1  0
 25 26  2  0
 25 27  2  0
 25 28  1  0
 28 29  1  0
 28 30  1  0
 24 31  2  0
 15 32  2  0
  6 33  1  0
 33 34  2  0
 34 35  1  0
 34  3  1  0
 32 11  1  0
 31 19  1  0
  1 36  1  0
  1 37  1  0
  1 38  1  0
  4 39  1  0
  5 40  1  0
  7 41  1  0
  7 42  1  0
  8 43  1  0
  8 44  1  0
  9 45  1  0
 10 46  1  0
 10 47  1  0
 12 48  1  0
 13 49  1  0
 14 50  1  0
 18 51  1  0
 20 52  1  0
 21 53  1  0
 29 54  1  0
 29 55  1  0
 29 56  1  0
 30 57  1  0
 30 58  1  0
 30 59  1  0
 31 60  1  0
 32 61  1  0
 33 62  1  0
M  CHG  1  35  -1
M  END
>  <UniqueID>  (83) 
75

>  <SMILES>  (83) 
COc1ccc(CCNCc2cccc(C(=O)Nc3ccc(Cl)c(S(=O)(=O)N(C)C)c3)c2)cc1[O-]

>  <Energy>  (83) 
60.91432517515982

>  <Genealogy>  (83) 
COc1ccc(CCNCc2cccc(C(=O)Nc3ccc(Cl)c(S(=O)(=O)N(C)C)c3)c2)cc1[O-] (protonated)
COc1ccc(CCNCc2cccc(C(=O)Nc3ccc(Cl)c(S(=O)(=O)N(C)C)c3)c2)cc1[O-] (3D coordinates assigned)
COc1ccc(CCNCc2cccc(C(=O)Nc3ccc(Cl)c(S(=O)(=O)N(C)C)c3)c2)cc1[O-] (optimized conformer: 60.91432517515982 kcal/mol)

>  <smiles>  (83) 
COc1ccc(CCNCc2cccc(C(=O)Nc3ccc(Cl)c(S(=O)(=O)N(C)C)c3)c2)cc1O

>  <score_type>  (83) 
oracle

>  <origin>  (83) 
adg

>  <m_score__min__energy>  (83) 
-13.19

>  <m_primary>  (83) 
energy

$$$$
83:0
     RDKit          3D

 50 53  0  0  0  0  0  0  0  0999 V2000
   60.3580   31.8850   46.0030 O   0  0  0  0  0  0  0  0  0  0  0  0
   60.2970   30.7400   46.5310 C   0  0  0  0  0  0  0  0  0  0  0  0
   61.3520   30.3010   47.3740 N   0  0  0  0  0  0  0  0  0  0  0  0
   62.5260   31.0640   47.6940 C   0  0  0  0  0  0  0  0  0  0  0  0
   62.2080   32.4100   48.2830 C   0  0  0  0  0  0  0  0  0  0  0  0
   61.1550   32.4290   49.2900 C   0  0  0  0  0  0  0  0  0  0  0  0
   61.1020   31.3470   50.1800 C   0  0  0  0  0  0  0  0  0  0  0  0
   60.1320   31.2300   51.1410 C   0  0  0  0  0  0  0  0  0  0  0  0
   59.1740   32.2150   51.2320 C   0  0  0  0  0  0  0  0  0  0  0  0
   59.2230   33.2740   50.3650 C   0  0  0  0  0  0  0  0  0  0  0  0
   60.2060   33.4140   49.3750 C   0  0  0  0  0  0  0  0  0  0  0  0
   60.1530   34.6320   48.5660 C   0  0  0  0  0  0  0  0  0  0  0  0
   59.3780   34.5280   47.3110 C   0  0  0  0  0  0  0  0  0  0  0  0
   59.7270   35.0640   46.1030 C   0  0  0  0  0  0  0  0  0  0  0  0
   58.8960   34.9000   44.9870 C   0  0  0  0  0  0  0  0  0  0  0  0
   57.7080   34.2030   45.0600 C   0  0  0  0  0  0  0  0  0  0  0  0
   57.3540   33.6630   46.2780 C   0  0  0  0  0  0  0  0  0  0  0  0
   58.1750   33.8210   47.3870 C   0  0  0  0  0  0  0  0  0  0  0  0
   59.1750   29.8260   46.3130 C   0  0  0  0  0  0  0  0  0  0  0  0
   59.1570   28.6130   46.9630 C   0  0  0  0  0  0  0  0  0  0  0  0
   58.1060   27.7150   46.7740 C   0  0  0  0  0  0  0  0  0  0  0  0
   57.0900   28.1120   45.9010 C   0  0  0  0  0  0  0  0  0  0  0  0
   56.0110   27.2410   45.6800 O   0  0  0  0  0  0  0  0  0  0  0  0
   57.0970   29.3100   45.2520 C   0  0  0  0  0  0  0  0  0  0  0  0
   56.2510   29.9300   44.3690 C   0  0  0  0  0  0  0  0  0  0  0  0
   55.1560   29.4300   43.9350 O   0  0  0  0  0  0  0  0  0  0  0  0
   56.7600   31.1420   44.0380 N   0  0  0  0  0  0  0  0  0  0  0  0
   57.9100   31.3050   44.6920 N   0  0  0  0  0  0  0  0  0  0  0  0
   58.1570   30.2030   45.4500 C   0  0  0  0  0  0  0  0  0  0  0  0
   61.2810   29.3380   47.8080 H   0  0  0  0  0  0  0  0  0  0  0  0
   63.1261   30.4962   48.4203 H   0  0  0  0  0  0  0  0  0  0  0  0
   63.0731   31.2360   46.7554 H   0  0  0  0  0  0  0  0  0  0  0  0
   63.1257   32.8007   48.7469 H   0  0  0  0  0  0  0  0  0  0  0  0
   61.8338   33.0205   47.4480 H   0  0  0  0  0  0  0  0  0  0  0  0
   61.8685   30.5617   50.1040 H   0  0  0  0  0  0  0  0  0  0  0  0
   60.1190   30.3683   51.8246 H   0  0  0  0  0  0  0  0  0  0  0  0
   58.3801   32.1521   51.9908 H   0  0  0  0  0  0  0  0  0  0  0  0
   58.4522   34.0542   50.4496 H   0  0  0  0  0  0  0  0  0  0  0  0
   59.7017   35.4265   49.1784 H   0  0  0  0  0  0  0  0  0  0  0  0
   61.1902   34.8404   48.2647 H   0  0  0  0  0  0  0  0  0  0  0  0
   60.6665   35.6279   46.0064 H   0  0  0  0  0  0  0  0  0  0  0  0
   59.1996   35.3395   44.0254 H   0  0  0  0  0  0  0  0  0  0  0  0
   57.0646   34.0821   44.1760 H   0  0  0  0  0  0  0  0  0  0  0  0
   56.4126   33.1018   46.3724 H   0  0  0  0  0  0  0  0  0  0  0  0
   57.8712   33.3793   48.3476 H   0  0  0  0  0  0  0  0  0  0  0  0
   59.9821   28.3480   47.6405 H   0  0  0  0  0  0  0  0  0  0  0  0
   58.0787   26.7424   47.2871 H   0  0  0  0  0  0  0  0  0  0  0  0
   55.1420   27.5620   45.2470 H   0  0  0  0  0  0  0  0  0  0  0  0
   56.3380   31.8600   43.3770 H   0  0  0  0  0  0  0  0  0  0  0  0
   58.5610   32.1460   44.6540 H   0  0  0  0  0  0  0  0  0  0  0  0
  1  2  2  0
  2  3  1  0
  3  4  1  0
  4  5  1  0
  5  6  1  0
  6  7  2  0
  7  8  1  0
  8  9  2  0
  9 10  1  0
 10 11  2  0
 11 12  1  0
 12 13  1  0
 13 14  2  0
 14 15  1  0
 15 16  2  0
 16 17  1  0
 17 18  2  0
  2 19  1  0
 19 20  2  0
 20 21  1  0
 21 22  2  0
 22 23  1  0
 22 24  1  0
 24 25  1  0
 25 26  2  0
 25 27  1  0
 27 28  1  0
 28 29  1  0
 11  6  1  0
 18 13  1  0
 29 19  1  0
 29 24  2  0
  3 30  1  0
  4 31  1  0
  4 32  1  0
  5 33  1  0
  5 34  1  0
  7 35  1  0
  8 36  1  0
  9 37  1  0
 10 38  1  0
 12 39  1  0
 12 40  1  0
 14 41  1  0
 15 42  1  0
 16 43  1  0
 17 44  1  0
 18 45  1  0
 20 46  1  0
 21 47  1  0
 23 48  1  0
 27 49  1  0
 28 50  1  0
M  END
>  <smiles>  (84) 
O=C(NCCc1ccccc1Cc1ccccc1)c1ccc(O)c2c(=O)[nH][nH]c12

>  <score_type>  (84) 
oracle

>  <origin>  (84) 
adg

>  <m_score__min__energy>  (84) 
-9.3900000000000006

>  <m_primary>  (84) 
energy

$$$$
84:0
     RDKit          3D

 45 47  0  0  0  0  0  0  0  0999 V2000
   57.3550   31.3070   53.4770 C   0  0  0  0  0  0  0  0  0  0  0  0
   57.7150   30.7980   52.1130 C   0  0  0  0  0  0  0  0  0  0  0  0
   57.1320   29.7630   51.6880 O   0  0  0  0  0  0  0  0  0  0  0  0
   58.7290   31.4780   51.2630 C   0  0  0  0  0  0  0  0  0  0  0  0
   58.7030   32.8780   51.1200 C   0  0  0  0  0  0  0  0  0  0  0  0
   59.6500   33.5310   50.3250 C   0  0  0  0  0  0  0  0  0  0  0  0
   60.6360   32.7970   49.6570 C   0  0  0  0  0  0  0  0  0  0  0  0
   61.8140   33.6260   48.6440 S   0  0  0  0  0  0  0  0  0  0  0  0
   62.9910   32.7340   48.3560 O   0  0  0  0  0  0  0  0  0  0  0  0
   62.2960   34.8510   49.3660 O   0  0  0  0  0  0  0  0  0  0  0  0
   61.0810   34.0970   47.1420 N   0  0  0  0  0  0  0  0  0  0  0  0
   59.9240   33.4560   46.5720 C   0  0  0  0  0  0  0  0  0  0  0  0
   59.4600   32.2100   47.0300 C   0  0  0  0  0  0  0  0  0  0  0  0
   58.3280   31.6240   46.4580 C   0  0  0  0  0  0  0  0  0  0  0  0
   57.6450   32.2600   45.4150 C   0  0  0  0  0  0  0  0  0  0  0  0
   56.4960   31.6140   44.8510 N   0  0  0  0  0  0  0  0  0  0  0  0
   56.4240   29.9550   44.3560 S   0  0  0  0  0  0  0  0  0  0  0  0
   55.1440   29.3450   44.8550 O   0  0  0  0  0  0  0  0  0  0  0  0
   56.4460   29.8830   42.8540 O   0  0  0  0  0  0  0  0  0  0  0  0
   57.7790   29.0640   45.0280 C   0  0  0  0  0  0  0  0  0  0  0  0
   59.0590   29.2000   44.4760 C   0  0  0  0  0  0  0  0  0  0  0  0
   60.1160   28.4650   45.0160 C   0  0  0  0  0  0  0  0  0  0  0  0
   59.8870   27.6080   46.0950 C   0  0  0  0  0  0  0  0  0  0  0  0
   58.5980   27.5020   46.6220 C   0  0  0  0  0  0  0  0  0  0  0  0
   57.5800   28.2250   46.0820 N   0  0  0  0  0  0  0  0  0  0  0  0
   58.1090   33.5030   44.9520 C   0  0  0  0  0  0  0  0  0  0  0  0
   59.2380   34.0920   45.5270 C   0  0  0  0  0  0  0  0  0  0  0  0
   60.6740   31.4050   49.7960 C   0  0  0  0  0  0  0  0  0  0  0  0
   59.7280   30.7490   50.5890 C   0  0  0  0  0  0  0  0  0  0  0  0
   57.8116   30.6614   54.2416 H   0  0  0  0  0  0  0  0  0  0  0  0
   57.7279   32.3351   53.5949 H   0  0  0  0  0  0  0  0  0  0  0  0
   56.2614   31.2979   53.5949 H   0  0  0  0  0  0  0  0  0  0  0  0
   57.9301   33.4642   51.6387 H   0  0  0  0  0  0  0  0  0  0  0  0
   59.6196   34.6260   50.2245 H   0  0  0  0  0  0  0  0  0  0  0  0
   61.4880   34.9310   46.6610 H   0  0  0  0  0  0  0  0  0  0  0  0
   59.9913   31.6938   47.8432 H   0  0  0  0  0  0  0  0  0  0  0  0
   57.9700   30.6531   46.8311 H   0  0  0  0  0  0  0  0  0  0  0  0
   59.2295   29.8781   43.6268 H   0  0  0  0  0  0  0  0  0  0  0  0
   61.1268   28.5605   44.5927 H   0  0  0  0  0  0  0  0  0  0  0  0
   60.7132   27.0228   46.5251 H   0  0  0  0  0  0  0  0  0  0  0  0
   58.4058   26.8335   47.4742 H   0  0  0  0  0  0  0  0  0  0  0  0
   57.5812   34.0144   44.1335 H   0  0  0  0  0  0  0  0  0  0  0  0
   59.5926   35.0650   45.1561 H   0  0  0  0  0  0  0  0  0  0  0  0
   61.4520   30.8243   49.2788 H   0  0  0  0  0  0  0  0  0  0  0  0
   59.7641   29.6540   50.6875 H   0  0  0  0  0  0  0  0  0  0  0  0
  1  2  1  0
  2  3  2  0
  2  4  1  0
  4  5  2  0
  5  6  1  0
  6  7  2  0
  7  8  1  0
  8  9  2  0
  8 10  2  0
  8 11  1  0
 11 12  1  0
 12 13  2  0
 13 14  1  0
 14 15  2  0
 15 16  1  0
 16 17  1  0
 17 18  2  0
 17 19  2  0
 17 20  1  0
 20 21  2  0
 21 22  1  0
 22 23  2  0
 23 24  1  0
 24 25  2  0
 15 26  1  0
 26 27  2  0
  7 28  1  0
 28 29  2  0
 29  4  1  0
 27 12  1  0
 25 20  1  0
  1 30  1  0
  1 31  1  0
  1 32  1  0
  5 33  1  0
  6 34  1  0
 11 35  1  0
 13 36  1  0
 14 37  1  0
 21 38  1  0
 22 39  1  0
 23 40  1  0
 24 41  1  0
 26 42  1  0
 27 43  1  0
 28 44  1  0
 29 45  1  0
M  CHG  1  16  -1
M  END
>  <UniqueID>  (85) 
76

>  <SMILES>  (85) 
CC(=O)c1ccc(S(=O)(=O)Nc2ccc([N-]S(=O)(=O)c3ccccn3)cc2)cc1

>  <Energy>  (85) 
54.217663348908715

>  <Genealogy>  (85) 
CC(=O)c1ccc(S(=O)(=O)Nc2ccc([N-]S(=O)(=O)c3ccccn3)cc2)cc1 (protonated)
CC(=O)c1ccc(S(=O)(=O)Nc2ccc([N-]S(=O)(=O)c3ccccn3)cc2)cc1 (3D coordinates assigned)
CC(=O)c1ccc(S(=O)(=O)Nc2ccc([N-]S(=O)(=O)c3ccccn3)cc2)cc1 (optimized conformer: 54.217663348908715 kcal/mol)

>  <smiles>  (85) 
CC(=O)c1ccc(S(=O)(=O)Nc2ccc(NS(=O)(=O)c3ccccn3)cc2)cc1

>  <score_type>  (85) 
oracle

>  <origin>  (85) 
adg

>  <m_score__min__energy>  (85) 
-11.470000000000001

>  <m_primary>  (85) 
energy

$$$$
85:0
     RDKit          3D

 41 44  0  0  1  0  0  0  0  0999 V2000
   62.9350   33.0810   47.1720 C   0  0  0  0  0  0  0  0  0  0  0  0
   62.0580   32.2630   47.7430 C   0  0  0  0  0  0  0  0  0  0  0  0
   61.9320   30.8370   47.3320 C   0  0  0  0  0  0  0  0  0  0  0  0
   57.6620   33.5630   46.4950 N   0  0  0  0  0  0  0  0  0  0  0  0
   58.0590   32.3510   46.3570 C   0  0  0  0  0  0  0  0  0  0  0  0
   59.0240   29.7950   46.1750 N   0  0  0  0  0  0  0  0  0  0  0  0
   57.9750   30.2270   45.4500 C   0  0  0  0  0  0  0  0  0  0  0  0
   57.1910   29.5760   44.5250 C   0  0  0  0  0  0  0  0  0  0  0  0
   57.3100   28.3280   44.1370 C   0  0  0  0  0  0  0  0  0  0  0  0
   57.5240   27.2080   45.0520 C   0  0  0  0  0  0  0  0  0  0  0  0
   58.7580   26.6920   45.2840 N   0  0  0  0  0  0  0  0  0  0  0  0
   58.6200   25.6810   46.1650 C   0  0  0  0  0  0  0  0  0  0  0  0
   59.5860   24.9820   46.5990 O   0  0  0  0  0  0  0  0  0  0  0  0
   57.3100   25.5720   46.4750 N   0  0  0  0  0  0  0  0  0  0  0  0
   56.6030   26.5040   45.8000 C   0  0  0  0  0  0  0  0  0  0  0  0
   55.2390   26.7410   45.8260 O   0  0  0  0  0  0  0  0  0  0  0  0
   56.2560   30.4600   44.0770 C   0  0  0  0  0  0  0  0  0  0  0  0
   56.4680   31.6250   44.7150 N   0  0  0  0  0  0  0  0  0  0  0  0
   57.4910   31.4830   45.5320 N   0  0  0  0  0  0  0  0  0  0  0  0
   59.5970   30.6790   47.0110 C   0  0  0  0  0  0  0  0  0  0  0  0
   60.6010   30.4130   47.7620 N   0  0  0  0  0  0  0  0  0  0  0  0
   58.2110   34.5930   45.6650 C   0  0  0  0  0  0  0  0  0  0  0  0
   59.2860   34.2390   44.7260 C   0  0  0  0  0  0  0  0  0  0  0  0
   59.6630   35.0120   45.9780 C   0  0  0  0  0  0  0  0  0  0  0  0
   59.1090   31.9500   47.0960 N   0  0  0  0  0  0  0  0  0  0  0  0
   63.0031   34.1292   47.4987 H   0  0  0  0  0  0  0  0  0  0  0  0
   63.5932   32.7103   46.3724 H   0  0  0  0  0  0  0  0  0  0  0  0
   61.4070   32.6493   48.5412 H   0  0  0  0  0  0  0  0  0  0  0  0
   62.0295   30.7433   46.2403 H   0  0  0  0  0  0  0  0  0  0  0  0
   62.7195   30.2153   47.7829 H   0  0  0  0  0  0  0  0  0  0  0  0
   57.2449   28.1120   43.0604 H   0  0  0  0  0  0  0  0  0  0  0  0
   59.6740   27.0080   44.8650 H   0  0  0  0  0  0  0  0  0  0  0  0
   56.9300   24.8640   47.1380 H   0  0  0  0  0  0  0  0  0  0  0  0
   54.7680   27.0850   45.0080 H   0  0  0  0  0  0  0  0  0  0  0  0
   55.4727   30.2583   43.3315 H   0  0  0  0  0  0  0  0  0  0  0  0
   57.2455   35.1089   45.5572 H   0  0  0  0  0  0  0  0  0  0  0  0
   59.5935   33.1880   44.6224 H   0  0  0  0  0  0  0  0  0  0  0  0
   59.4458   34.4009   43.6498 H   0  0  0  0  0  0  0  0  0  0  0  0
   60.2220   34.5214   46.7884 H   0  0  0  0  0  0  0  0  0  0  0  0
   60.1858   35.9538   46.2009 H   0  0  0  0  0  0  0  0  0  0  0  0
   59.5640   32.6450   47.7570 H   0  0  0  0  0  0  0  0  0  0  0  0
  1  2  2  0
  2  3  1  0
  3  4  1  0
  4  5  2  0
  5  6  1  0
  6  7  2  0
  7  8  1  0
  8  9  2  0
  9 10  1  0
 10 11  1  0
 11 12  1  0
 12 13  2  0
 12 14  1  0
 14 15  1  0
 15 16  1  0
  8 17  1  0
 17 18  2  0
 18 19  1  0
 19 20  1  0
 20 21  2  0
 21 22  1  0
 22 23  1  0
 23 24  1  0
 20 25  1  0
 25  5  1  0
 19  7  1  0
 24 22  1  0
 15 10  2  0
  1 26  1  0
  1 27  1  0
  2 28  1  0
  3 29  1  0
  3 30  1  0
  9 31  1  0
 11 32  1  0
 14 33  1  0
 16 34  1  0
 17 35  1  0
 22 36  1  0
 23 37  1  0
 23 38  1  0
 24 39  1  0
 24 40  1  0
 25 41  1  0
M  END
>  <smiles>  (86) 
C=CCN=c1nc2c(=Cc3[nH]c(=O)[nH]c3O)cnn2c(=NC2CC2)[nH]1

>  <score_type>  (86) 
oracle

>  <origin>  (86) 
adg

>  <m_score__min__energy>  (86) 
-7.7300000000000004

>  <m_primary>  (86) 
energy

$$$$
86:0
     RDKit          3D

 41 43  0  0  0  0  0  0  0  0999 V2000
   58.6380   26.9040   47.0750 O   0  0  0  0  0  0  0  0  0  0  0  0
   58.2360   27.9180   46.4400 C   0  0  0  0  0  0  0  0  0  0  0  0
   56.9580   27.9410   45.9820 N   0  0  0  0  0  0  0  0  0  0  0  0
   56.4690   29.0040   45.2960 C   0  0  0  0  0  0  0  0  0  0  0  0
   55.1500   28.9660   44.8540 O   0  0  0  0  0  0  0  0  0  0  0  0
   57.2910   30.1160   45.0440 C   0  0  0  0  0  0  0  0  0  0  0  0
   56.8070   31.3100   44.3000 C   0  0  0  0  0  0  0  0  0  0  0  0
   57.5860   32.3190   44.0450 N   0  0  0  0  0  0  0  0  0  0  0  0
   57.6400   33.5530   44.8360 C   0  0  0  0  0  0  0  0  0  0  0  0
   59.0000   34.2570   44.7200 C   0  0  0  0  0  0  0  0  0  0  0  0
   59.6210   34.2110   46.1080 C   0  0  0  0  0  0  0  0  0  0  0  0
   58.4570   34.0820   47.0730 C   0  0  0  0  0  0  0  0  0  0  0  0
   57.3930   33.2920   46.3280 C   0  0  0  0  0  0  0  0  0  0  0  0
   58.6140   30.0750   45.5250 C   0  0  0  0  0  0  0  0  0  0  0  0
   59.3790   31.0580   45.3180 O   0  0  0  0  0  0  0  0  0  0  0  0
   59.0750   28.9800   46.2150 N   0  0  0  0  0  0  0  0  0  0  0  0
   60.4550   28.9660   46.7440 C   0  0  0  0  0  0  0  0  0  0  0  0
   60.7350   30.2270   47.5210 C   0  0  0  0  0  0  0  0  0  0  0  0
   59.8990   30.6040   48.5860 C   0  0  0  0  0  0  0  0  0  0  0  0
   60.1410   31.7890   49.2880 C   0  0  0  0  0  0  0  0  0  0  0  0
   61.2130   32.6100   48.9290 C   0  0  0  0  0  0  0  0  0  0  0  0
   62.0460   32.2450   47.8690 C   0  0  0  0  0  0  0  0  0  0  0  0
   61.8090   31.0600   47.1650 C   0  0  0  0  0  0  0  0  0  0  0  0
   56.3340   27.1230   46.1620 H   0  0  0  0  0  0  0  0  0  0  0  0
   55.7624   31.3398   43.9566 H   0  0  0  0  0  0  0  0  0  0  0  0
   56.8454   34.1919   44.4231 H   0  0  0  0  0  0  0  0  0  0  0  0
   59.6414   33.7309   43.9976 H   0  0  0  0  0  0  0  0  0  0  0  0
   58.8868   35.2921   44.3654 H   0  0  0  0  0  0  0  0  0  0  0  0
   60.2930   33.3449   46.1993 H   0  0  0  0  0  0  0  0  0  0  0  0
   60.2225   35.1086   46.3142 H   0  0  0  0  0  0  0  0  0  0  0  0
   58.7687   33.5447   47.9808 H   0  0  0  0  0  0  0  0  0  0  0  0
   58.0834   35.0657   47.3934 H   0  0  0  0  0  0  0  0  0  0  0  0
   57.4887   32.2188   46.5493 H   0  0  0  0  0  0  0  0  0  0  0  0
   56.3799   33.5977   46.6283 H   0  0  0  0  0  0  0  0  0  0  0  0
   60.5799   28.0971   47.4068 H   0  0  0  0  0  0  0  0  0  0  0  0
   61.1587   28.9038   45.9009 H   0  0  0  0  0  0  0  0  0  0  0  0
   59.0503   29.9639   48.8687 H   0  0  0  0  0  0  0  0  0  0  0  0
   59.4862   32.0752   50.1243 H   0  0  0  0  0  0  0  0  0  0  0  0
   61.4008   33.5430   49.4807 H   0  0  0  0  0  0  0  0  0  0  0  0
   62.8905   32.8911   47.5872 H   0  0  0  0  0  0  0  0  0  0  0  0
   62.4663   30.7789   46.3290 H   0  0  0  0  0  0  0  0  0  0  0  0
  1  2  2  0
  2  3  1  0
  3  4  1  0
  4  5  1  0
  4  6  2  0
  6  7  1  0
  7  8  2  3
  8  9  1  0
  9 10  1  0
 10 11  1  0
 11 12  1  0
 12 13  1  0
  6 14  1  0
 14 15  2  0
 14 16  1  0
 16 17  1  0
 17 18  1  0
 18 19  2  0
 19 20  1  0
 20 21  2  0
 21 22  1  0
 22 23  2  0
 16  2  1  0
 23 18  1  0
 13  9  1  0
  3 24  1  0
  7 25  1  0
  9 26  1  0
 10 27  1  0
 10 28  1  0
 11 29  1  0
 11 30  1  0
 12 31  1  0
 12 32  1  0
 13 33  1  0
 13 34  1  0
 17 35  1  0
 17 36  1  0
 19 37  1  0
 20 38  1  0
 21 39  1  0
 22 40  1  0
 23 41  1  0
M  CHG  1   5  -1
M  END
>  <UniqueID>  (87) 
77

>  <SMILES>  (87) 
O=c1[nH]c([O-])c(C=NC2CCCC2)c(=O)n1Cc1ccccc1

>  <Energy>  (87) 
48.89369974248404

>  <Genealogy>  (87) 
O=c1[nH]c([O-])c(C=NC2CCCC2)c(=O)n1Cc1ccccc1 (protonated)
O=c1[nH]c([O-])c(C=NC2CCCC2)c(=O)n1Cc1ccccc1 (3D coordinates assigned)
O=c1[nH]c([O-])c(C=NC2CCCC2)c(=O)n1Cc1ccccc1 (nonaromatic ring conformer: 48.89369974248404 kcal/mol)

>  <smiles>  (87) 
O=c1[nH]c(O)c(C=NC2CCCC2)c(=O)n1Cc1ccccc1

>  <score_type>  (87) 
oracle

>  <origin>  (87) 
adg

>  <m_score__min__energy>  (87) 
-11.279999999999999

>  <m_primary>  (87) 
energy

$$$$
87:0
     RDKit          3D

 65 68  0  0  0  0  0  0  0  0999 V2000
   60.2600   35.7100   46.3440 O   0  0  0  0  0  0  0  0  0  0  0  0
   59.9500   34.4990   47.1770 S   0  0  0  0  0  0  0  0  0  0  0  0
   59.2910   34.9650   48.4450 O   0  0  0  0  0  0  0  0  0  0  0  0
   58.8270   33.4610   46.2900 C   0  0  0  0  0  0  0  0  0  0  0  0
   57.5530   33.9340   45.9520 C   0  0  0  0  0  0  0  0  0  0  0  0
   56.6620   33.1220   45.2490 C   0  0  0  0  0  0  0  0  0  0  0  0
   57.0300   31.8100   44.8800 C   0  0  0  0  0  0  0  0  0  0  0  0
   56.1660   30.9440   44.1840 O   0  0  0  0  0  0  0  0  0  0  0  0
   56.5180   29.6380   43.7200 C   0  0  0  0  0  0  0  0  0  0  0  0
   56.6500   28.6500   44.8980 C   0  0  0  0  0  0  0  0  0  0  0  0
   57.8630   27.7120   44.7710 C   0  0  0  0  0  0  0  0  0  0  0  0
   58.4250   27.2040   46.1110 C   0  0  0  0  0  0  0  0  0  0  0  0
   59.8880   27.4340   46.1930 N   0  0  0  0  0  0  0  0  0  0  0  0
   60.2950   28.7860   45.7210 C   0  0  0  0  0  0  0  0  0  0  0  0
   60.8880   29.7000   46.8150 C   0  0  0  0  0  0  0  0  0  0  0  0
   60.2180   29.4810   48.1020 N   0  0  0  0  0  0  0  0  0  0  0  0
   59.9730   30.5860   48.9960 C   0  0  0  0  0  0  0  0  0  0  0  0
   58.7440   31.2710   48.9640 C   0  0  0  0  0  0  0  0  0  0  0  0
   58.5060   32.3400   49.8330 C   0  0  0  0  0  0  0  0  0  0  0  0
   59.4910   32.7370   50.7420 C   0  0  0  0  0  0  0  0  0  0  0  0
   60.7160   32.0660   50.7830 C   0  0  0  0  0  0  0  0  0  0  0  0
   60.9580   30.9940   49.9180 C   0  0  0  0  0  0  0  0  0  0  0  0
   60.0200   28.1090   48.5850 C   0  0  0  0  0  0  0  0  0  0  0  0
   60.4390   27.0840   47.5210 C   0  0  0  0  0  0  0  0  0  0  0  0
   58.3030   31.3420   45.2300 C   0  0  0  0  0  0  0  0  0  0  0  0
   59.1990   32.1610   45.9220 C   0  0  0  0  0  0  0  0  0  0  0  0
   61.4380   33.6730   47.5690 N   0  0  0  0  0  0  0  0  0  0  0  0
   62.0370   34.2370   48.7890 C   0  0  0  0  0  0  0  0  0  0  0  0
   63.3310   33.4710   49.1380 C   0  0  0  0  0  0  0  0  0  0  0  0
   63.7250   32.5760   48.1120 O   0  0  0  0  0  0  0  0  0  0  0  0
   63.7840   33.2550   46.8730 C   0  0  0  0  0  0  0  0  0  0  0  0
   62.3900   33.7670   46.4500 C   0  0  0  0  0  0  0  0  0  0  0  0
   57.2528   34.9516   46.2424 H   0  0  0  0  0  0  0  0  0  0  0  0
   55.6669   33.5066   44.9808 H   0  0  0  0  0  0  0  0  0  0  0  0
   55.7375   29.2775   43.0338 H   0  0  0  0  0  0  0  0  0  0  0  0
   57.4871   29.6989   43.2032 H   0  0  0  0  0  0  0  0  0  0  0  0
   56.7509   29.2275   45.8287 H   0  0  0  0  0  0  0  0  0  0  0  0
   55.7486   28.0196   44.8978 H   0  0  0  0  0  0  0  0  0  0  0  0
   57.5606   26.8395   44.1732 H   0  0  0  0  0  0  0  0  0  0  0  0
   58.6641   28.3013   44.3010 H   0  0  0  0  0  0  0  0  0  0  0  0
   57.9297   27.7385   46.9350 H   0  0  0  0  0  0  0  0  0  0  0  0
   58.2346   26.1231   46.1846 H   0  0  0  0  0  0  0  0  0  0  0  0
   61.0516   28.6602   44.9325 H   0  0  0  0  0  0  0  0  0  0  0  0
   59.3784   29.2802   45.3666 H   0  0  0  0  0  0  0  0  0  0  0  0
   61.9601   29.4802   46.9254 H   0  0  0  0  0  0  0  0  0  0  0  0
   60.7388   30.7479   46.5156 H   0  0  0  0  0  0  0  0  0  0  0  0
   57.9654   30.9632   48.2505 H   0  0  0  0  0  0  0  0  0  0  0  0
   57.5423   32.8694   49.8014 H   0  0  0  0  0  0  0  0  0  0  0  0
   59.3017   33.5780   51.4253 H   0  0  0  0  0  0  0  0  0  0  0  0
   61.4913   32.3814   51.4968 H   0  0  0  0  0  0  0  0  0  0  0  0
   61.9224   30.4663   49.9574 H   0  0  0  0  0  0  0  0  0  0  0  0
   60.6258   27.9556   49.4902 H   0  0  0  0  0  0  0  0  0  0  0  0
   58.9520   27.9667   48.8067 H   0  0  0  0  0  0  0  0  0  0  0  0
   61.5370   27.0602   47.4587 H   0  0  0  0  0  0  0  0  0  0  0  0
   60.0451   26.0992   47.8125 H   0  0  0  0  0  0  0  0  0  0  0  0
   58.6005   30.3188   44.9572 H   0  0  0  0  0  0  0  0  0  0  0  0
   60.1999   31.7840   46.1788 H   0  0  0  0  0  0  0  0  0  0  0  0
   62.2743   35.2981   48.6225 H   0  0  0  0  0  0  0  0  0  0  0  0
   61.3235   34.1431   49.6210 H   0  0  0  0  0  0  0  0  0  0  0  0
   64.1392   34.1993   49.3005 H   0  0  0  0  0  0  0  0  0  0  0  0
   63.1343   32.8769   50.0426 H   0  0  0  0  0  0  0  0  0  0  0  0
   64.4680   34.1115   46.9654 H   0  0  0  0  0  0  0  0  0  0  0  0
   64.1440   32.5521   46.1073 H   0  0  0  0  0  0  0  0  0  0  0  0
   62.4721   34.8172   46.1334 H   0  0  0  0  0  0  0  0  0  0  0  0
   62.0223   33.1452   45.6205 H   0  0  0  0  0  0  0  0  0  0  0  0
  1  2  2  0
  2  3  2  0
  2  4  1  0
  4  5  2  0
  5  6  1  0
  6  7  2  0
  7  8  1  0
  8  9  1  0
  9 10  1  0
 10 11  1  0
 11 12  1  0
 12 13  1  0
 13 14  1  0
 14 15  1  0
 15 16  1  0
 16 17  1  0
 17 18  2  0
 18 19  1  0
 19 20  2  0
 20 21  1  0
 21 22  2  0
 16 23  1  0
 23 24  1  0
  7 25  1  0
 25 26  2  0
  2 27  1  0
 27 28  1  0
 28 29  1  0
 29 30  1  0
 30 31  1  0
 31 32  1  0
 26  4  1  0
 32 27  1  0
 24 13  1  0
 22 17  1  0
  5 33  1  0
  6 34  1  0
  9 35  1  0
  9 36  1  0
 10 37  1  0
 10 38  1  0
 11 39  1  0
 11 40  1  0
 12 41  1  0
 12 42  1  0
 14 43  1  0
 14 44  1  0
 15 45  1  0
 15 46  1  0
 18 47  1  0
 19 48  1  0
 20 49  1  0
 21 50  1  0
 22 51  1  0
 23 52  1  0
 23 53  1  0
 24 54  1  0
 24 55  1  0
 25 56  1  0
 26 57  1  0
 28 58  1  0
 28 59  1  0
 29 60  1  0
 29 61  1  0
 31 62  1  0
 31 63  1  0
 32 64  1  0
 32 65  1  0
M  END
>  <UniqueID>  (88) 
78

>  <SMILES>  (88) 
O=S(=O)(c1ccc(OCCCCN2CCN(c3ccccc3)CC2)cc1)N1CCOCC1

>  <Energy>  (88) 
86.49420858684442

>  <Genealogy>  (88) 
O=S(=O)(c1ccc(OCCCCN2CCN(c3ccccc3)CC2)cc1)N1CCOCC1 (3D coordinates assigned)
O=S(=O)(c1ccc(OCCCCN2CCN(c3ccccc3)CC2)cc1)N1CCOCC1 (nonaromatic ring conformer: 86.49420858684442 kcal/mol)

>  <smiles>  (88) 
O=S(=O)(c1ccc(OCCCCN2CCN(c3ccccc3)CC2)cc1)N1CCOCC1

>  <score_type>  (88) 
oracle

>  <origin>  (88) 
adg

>  <m_score__min__energy>  (88) 
-9.7899999999999991

>  <m_primary>  (88) 
energy

$$$$
88:0
     RDKit          3D

 47 51  0  0  0  0  0  0  0  0999 V2000
   56.8300   28.9660   45.3650 H   0  0  0  0  0  0  0  0  0  0  0  0
   56.0490   28.3300   45.2620 O   0  0  0  0  0  0  0  0  0  0  0  0
   56.1010   27.0100   45.7030 C   0  0  0  0  0  0  0  0  0  0  0  0
   55.0040   26.2570   45.8930 N   0  0  0  0  0  0  0  0  0  0  0  0
   55.5150   25.0800   46.3050 C   0  0  0  0  0  0  0  0  0  0  0  0
   54.7920   24.0900   46.5910 O   0  0  0  0  0  0  0  0  0  0  0  0
   56.8620   25.0470   46.3880 N   0  0  0  0  0  0  0  0  0  0  0  0
   57.2380   26.2820   46.0070 C   0  0  0  0  0  0  0  0  0  0  0  0
   58.6360   26.7620   45.9260 C   0  0  0  0  0  0  0  0  0  0  0  0
   59.2693   26.3465   45.1284 H   0  0  0  0  0  0  0  0  0  0  0  0
   59.1920   27.6660   46.7510 C   0  0  0  0  0  0  0  0  0  0  0  0
   60.0730   27.4890   47.8270 C   0  0  0  0  0  0  0  0  0  0  0  0
   60.4732   26.5209   48.1626 H   0  0  0  0  0  0  0  0  0  0  0  0
   60.3590   28.6880   48.3930 N   0  0  0  0  0  0  0  0  0  0  0  0
   59.6900   29.5990   47.7060 N   0  0  0  0  0  0  0  0  0  0  0  0
   59.6480   30.9310   47.9210 C   0  0  0  0  0  0  0  0  0  0  0  0
   60.4020   31.5070   48.9460 O   0  0  0  0  0  0  0  0  0  0  0  0
   61.8130   31.6820   48.8680 C   0  0  0  0  0  0  0  0  0  0  0  0
   62.2817   31.2816   49.7790 H   0  0  0  0  0  0  0  0  0  0  0  0
   62.1977   31.1463   47.9876 H   0  0  0  0  0  0  0  0  0  0  0  0
   62.1450   33.1780   48.7380 C   0  0  0  0  0  0  0  0  0  0  0  0
   62.0279   33.5812   49.7547 H   0  0  0  0  0  0  0  0  0  0  0  0
   63.5500   33.3930   48.1870 C   0  0  0  0  0  0  0  0  0  0  0  0
   63.9756   34.3281   48.5800 H   0  0  0  0  0  0  0  0  0  0  0  0
   64.2270   32.5774   48.4810 H   0  0  0  0  0  0  0  0  0  0  0  0
   63.4000   33.4750   46.6730 C   0  0  0  0  0  0  0  0  0  0  0  0
   64.0696   34.2479   46.2676 H   0  0  0  0  0  0  0  0  0  0  0  0
   63.6649   32.5188   46.1982 H   0  0  0  0  0  0  0  0  0  0  0  0
   61.9440   33.8410   46.3920 C   0  0  0  0  0  0  0  0  0  0  0  0
   61.8890   34.8245   45.9025 H   0  0  0  0  0  0  0  0  0  0  0  0
   61.4756   33.1050   45.7221 H   0  0  0  0  0  0  0  0  0  0  0  0
   61.2300   33.8850   47.7380 C   0  0  0  0  0  0  0  0  0  0  0  0
   61.0640   34.9278   48.0462 H   0  0  0  0  0  0  0  0  0  0  0  0
   60.2468   33.3948   47.6830 H   0  0  0  0  0  0  0  0  0  0  0  0
   58.8610   31.6880   47.1040 N   0  0  0  0  0  0  0  0  0  0  0  0
   58.1430   31.1120   46.0890 C   0  0  0  0  0  0  0  0  0  0  0  0
   57.3940   31.8190   45.2880 N   0  0  0  0  0  0  0  0  0  0  0  0
   57.4290   33.2360   44.8730 C   0  0  0  0  0  0  0  0  0  0  0  0
   56.6025   33.1145   44.1573 H   0  0  0  0  0  0  0  0  0  0  0  0
   58.7790   33.9370   44.8190 C   0  0  0  0  0  0  0  0  0  0  0  0
   59.7009   33.3736   45.0258 H   0  0  0  0  0  0  0  0  0  0  0  0
   59.3158   34.5383   44.0705 H   0  0  0  0  0  0  0  0  0  0  0  0
   57.7950   34.2410   45.9530 C   0  0  0  0  0  0  0  0  0  0  0  0
   58.0099   33.8966   46.9754 H   0  0  0  0  0  0  0  0  0  0  0  0
   57.3311   35.1524   46.3582 H   0  0  0  0  0  0  0  0  0  0  0  0
   58.2050   29.7610   45.9000 N   0  0  0  0  0  0  0  0  0  0  0  0
   58.9880   29.0280   46.7290 C   0  0  0  0  0  0  0  0  0  0  0  0
  1  2  1  0
  2  3  1  0
  3  4  1  0
  4  5  1  0
  5  6  2  0
  5  7  1  0
  7  8  1  0
  8  9  1  0
  9 10  1  0
  9 11  2  0
 11 12  1  0
 12 13  1  0
 12 14  2  0
 14 15  1  0
 15 16  1  0
 16 17  1  0
 17 18  1  0
 18 19  1  0
 18 20  1  0
 18 21  1  0
 21 22  1  0
 21 23  1  0
 23 24  1  0
 23 25  1  0
 23 26  1  0
 26 27  1  0
 26 28  1  0
 26 29  1  0
 29 30  1  0
 29 31  1  0
 29 32  1  0
 32 33  1  0
 32 34  1  0
 16 35  2  0
 35 36  1  0
 36 37  2  3
 37 38  1  0
 38 39  1  0
 38 40  1  0
 40 41  1  0
 40 42  1  0
 40 43  1  0
 43 44  1  0
 43 45  1  0
 36 46  1  0
 46 47  2  0
  8  3  2  0
 47 11  1  0
 47 15  1  0
 32 21  1  0
 43 38  1  0
M  CHG  2   4  -1   7  -1
M  END
>  <UniqueID>  (89) 
79

>  <SMILES>  (89) 
O=c1[n-]c(O)c(/C=c2\cnn3c(OCC4CCCC4)nc(=NC4CC4)nc23)[n-]1

>  <Energy>  (89) 
392.56960770534994

>  <Genealogy>  (89) 
O=c1[n-]c(O)c(C=c2cnn3c(OCC4CCCC4)nc(=NC4CC4)nc23)[n-]1 (protonated)
O=c1[n-]c(O)c(/C=c2\cnn3c(OCC4CCCC4)nc(=NC4CC4)nc23)[n-]1 (cis-trans isomerization)
O=c1[n-]c(O)c(/C=c2\cnn3c(OCC4CCCC4)nc(=NC4CC4)nc23)[n-]1 (3D coordinates assigned)
O=c1[n-]c(O)c(/C=c2\cnn3c(OCC4CCCC4)nc(=NC4CC4)nc23)[n-]1 (nonaromatic ring conformer: 392.56960770534994 kcal/mol)

>  <smiles>  (89) 
O=c1[nH]c(O)c(C=c2cnn3c(OCC4CCCC4)nc(=NC4CC4)nc23)[nH]1

>  <score_type>  (89) 
oracle

>  <origin>  (89) 
adg

>  <m_score__min__energy>  (89) 
-12.74

>  <m_primary>  (89) 
energy

$$$$
89:0
     RDKit          3D

 62 65  0  0  0  0  0  0  0  0999 V2000
   58.4080   26.8660   47.0360 C   0  0  0  0  0  0  0  0  0  0  0  0
   59.4180   27.8170   46.5760 N   0  0  0  0  0  0  0  0  0  0  0  0
   59.6950   28.1650   45.2990 C   0  0  0  0  0  0  0  0  0  0  0  0
   58.9040   27.4710   43.8440 S   0  0  0  0  0  0  0  0  0  0  0  0
   57.2890   28.2770   44.1390 C   0  0  0  0  0  0  0  0  0  0  0  0
   57.4490   29.7500   44.3950 C   0  0  0  0  0  0  0  0  0  0  0  0
   57.4770   30.6550   43.3230 C   0  0  0  0  0  0  0  0  0  0  0  0
   57.6640   32.0210   43.5570 C   0  0  0  0  0  0  0  0  0  0  0  0
   57.8350   32.4950   44.8640 C   0  0  0  0  0  0  0  0  0  0  0  0
   58.0560   34.2180   45.1500 S   0  0  0  0  0  0  0  0  0  0  0  0
   56.8850   34.9680   44.5790 O   0  0  0  0  0  0  0  0  0  0  0  0
   59.3100   34.7100   44.4820 O   0  0  0  0  0  0  0  0  0  0  0  0
   58.1490   34.5190   46.8530 N   0  0  0  0  0  0  0  0  0  0  0  0
   59.3500   34.3290   47.6020 C   0  0  0  0  0  0  0  0  0  0  0  0
   59.3820   34.6170   48.8290 O   0  0  0  0  0  0  0  0  0  0  0  0
   60.5260   33.8510   46.9330 N   0  0  0  0  0  0  0  0  0  0  0  0
   61.7430   33.4820   47.6040 C   0  0  0  0  0  0  0  0  0  0  0  0
   62.4620   32.3610   47.1580 C   0  0  0  0  0  0  0  0  0  0  0  0
   63.6360   31.9690   47.8060 C   0  0  0  0  0  0  0  0  0  0  0  0
   64.0950   32.6820   48.9160 C   0  0  0  0  0  0  0  0  0  0  0  0
   63.3760   33.7850   49.3830 C   0  0  0  0  0  0  0  0  0  0  0  0
   62.2010   34.1820   48.7370 C   0  0  0  0  0  0  0  0  0  0  0  0
   57.8080   31.5940   45.9370 C   0  0  0  0  0  0  0  0  0  0  0  0
   57.6150   30.2300   45.7050 C   0  0  0  0  0  0  0  0  0  0  0  0
   60.6110   29.1520   45.2360 N   0  0  0  0  0  0  0  0  0  0  0  0
   60.9110   29.4540   46.4870 N   0  0  0  0  0  0  0  0  0  0  0  0
   60.1780   28.6720   47.3000 C   0  0  0  0  0  0  0  0  0  0  0  0
   60.2530   28.7490   48.8070 C   0  0  1  0  0  0  0  0  0  0  0  0
   60.7790   27.5000   49.3630 N   0  0  0  0  0  0  0  0  0  0  0  0
   61.1150   29.9550   49.2280 C   0  0  0  0  0  0  0  0  0  0  0  0
   60.2990   31.0140   49.9220 C   0  0  0  0  0  0  0  0  0  0  0  0
   60.8840   31.8440   50.8940 C   0  0  0  0  0  0  0  0  0  0  0  0
   60.1150   32.8070   51.5540 C   0  0  0  0  0  0  0  0  0  0  0  0
   58.7570   32.9460   51.2530 C   0  0  0  0  0  0  0  0  0  0  0  0
   58.1650   32.1190   50.2940 C   0  0  0  0  0  0  0  0  0  0  0  0
   58.9320   31.1550   49.6320 C   0  0  0  0  0  0  0  0  0  0  0  0
   58.3923   26.8512   48.1358 H   0  0  0  0  0  0  0  0  0  0  0  0
   57.4201   27.1694   46.6592 H   0  0  0  0  0  0  0  0  0  0  0  0
   58.6515   25.8616   46.6592 H   0  0  0  0  0  0  0  0  0  0  0  0
   56.6512   28.1348   43.2541 H   0  0  0  0  0  0  0  0  0  0  0  0
   56.8311   27.8191   45.0282 H   0  0  0  0  0  0  0  0  0  0  0  0
   57.3513   30.2882   42.2936 H   0  0  0  0  0  0  0  0  0  0  0  0
   57.6768   32.7253   42.7122 H   0  0  0  0  0  0  0  0  0  0  0  0
   60.5230   33.8680   45.8890 H   0  0  0  0  0  0  0  0  0  0  0  0
   62.0983   31.7877   46.2925 H   0  0  0  0  0  0  0  0  0  0  0  0
   64.1997   31.0976   47.4415 H   0  0  0  0  0  0  0  0  0  0  0  0
   65.0222   32.3751   49.4222 H   0  0  0  0  0  0  0  0  0  0  0  0
   63.7349   34.3424   50.2608 H   0  0  0  0  0  0  0  0  0  0  0  0
   61.6323   35.0443   49.1152 H   0  0  0  0  0  0  0  0  0  0  0  0
   57.9392   31.9620   46.9653 H   0  0  0  0  0  0  0  0  0  0  0  0
   57.5929   29.5284   46.5520 H   0  0  0  0  0  0  0  0  0  0  0  0
   61.5920   30.1930   46.7710 H   0  0  0  0  0  0  0  0  0  0  0  0
   59.2390   28.8902   49.2093 H   0  0  0  0  0  0  0  0  0  0  0  0
   61.3850   27.7350   50.1830 H   0  0  0  0  0  0  0  0  0  0  0  0
   61.4170   27.0640   48.6590 H   0  0  0  0  0  0  0  0  0  0  0  0
   61.9026   29.6074   49.9127 H   0  0  0  0  0  0  0  0  0  0  0  0
   61.5471   30.3989   48.3190 H   0  0  0  0  0  0  0  0  0  0  0  0
   61.9515   31.7353   51.1363 H   0  0  0  0  0  0  0  0  0  0  0  0
   60.5791   33.4562   52.3111 H   0  0  0  0  0  0  0  0  0  0  0  0
   58.1540   33.7064   51.7709 H   0  0  0  0  0  0  0  0  0  0  0  0
   57.0956   32.2265   50.0600 H   0  0  0  0  0  0  0  0  0  0  0  0
   58.4622   30.5038   48.8802 H   0  0  0  0  0  0  0  0  0  0  0  0
  1  2  1  0
  2  3  1  0
  3  4  1  0
  4  5  1  0
  5  6  1  0
  6  7  2  0
  7  8  1  0
  8  9  2  0
  9 10  1  0
 10 11  2  0
 10 12  2  0
 10 13  1  0
 13 14  1  0
 14 15  2  0
 14 16  1  0
 16 17  1  0
 17 18  2  0
 18 19  1  0
 19 20  2  0
 20 21  1  0
 21 22  2  0
  9 23  1  0
 23 24  2  0
  3 25  2  0
 25 26  1  0
 26 27  2  0
 27 28  1  0
 28 29  1  0
 28 30  1  0
 30 31  1  0
 31 32  2  0
 32 33  1  0
 33 34  2  0
 34 35  1  0
 35 36  2  0
 27  2  1  0
 36 31  1  0
 24  6  1  0
 22 17  1  0
  1 37  1  0
  1 38  1  0
  1 39  1  0
  5 40  1  0
  5 41  1  0
  7 42  1  0
  8 43  1  0
 16 44  1  0
 18 45  1  0
 19 46  1  0
 20 47  1  0
 21 48  1  0
 22 49  1  0
 23 50  1  0
 24 51  1  0
 26 52  1  0
 28 53  1  1
 29 54  1  0
 29 55  1  0
 30 56  1  0
 30 57  1  0
 32 58  1  0
 33 59  1  0
 34 60  1  0
 35 61  1  0
 36 62  1  0
M  CHG  2  13  -1  26   1
M  END
>  <UniqueID>  (90) 
80

>  <SMILES>  (90) 
Cn1c(SCc2ccc(S(=O)(=O)[N-]C(=O)Nc3ccccc3)cc2)n[nH+]c1[C@@H](N)Cc1ccccc1

>  <Energy>  (90) 
98.70987147187948

>  <Genealogy>  (90) 
Cn1c(SCc2ccc(S(=O)(=O)[N-]C(=O)Nc3ccccc3)cc2)n[nH+]c1C(N)Cc1ccccc1 (protonated)
Cn1c(SCc2ccc(S(=O)(=O)[N-]C(=O)Nc3ccccc3)cc2)n[nH+]c1[C@@H](N)Cc1ccccc1 (chirality)
Cn1c(SCc2ccc(S(=O)(=O)[N-]C(=O)Nc3ccccc3)cc2)n[nH+]c1[C@@H](N)Cc1ccccc1 (3D coordinates assigned)
Cn1c(SCc2ccc(S(=O)(=O)[N-]C(=O)Nc3ccccc3)cc2)n[nH+]c1[C@@H](N)Cc1ccccc1 (optimized conformer: 98.70987147187948 kcal/mol)

>  <smiles>  (90) 
Cn1c(SCc2ccc(S(=O)(=O)NC(=O)Nc3ccccc3)cc2)nnc1C(N)Cc1ccccc1

>  <score_type>  (90) 
oracle

>  <origin>  (90) 
adg

>  <m_score__min__energy>  (90) 
-10.17

>  <m_primary>  (90) 
energy

$$$$
90:0
     RDKit          3D

 44 46  0  0  0  0  0  0  0  0999 V2000
   59.5109   26.6227   46.0331 H   0  0  0  0  0  0  0  0  0  0  0  0
   59.2500   27.5260   46.6040 C   0  0  0  0  0  0  0  0  0  0  0  0
   59.9230   27.9960   48.0730 S   0  0  0  0  0  0  0  0  0  0  0  0
   58.9780   29.3780   48.1800 C   0  0  0  0  0  0  0  0  0  0  0  0
   59.0710   30.2370   49.1510 N   0  0  0  0  0  0  0  0  0  0  0  0
   59.7420   31.5090   49.1080 C   0  0  0  0  0  0  0  0  0  0  0  0
   59.1830   32.5840   49.8100 C   0  0  0  0  0  0  0  0  0  0  0  0
   58.2634   32.4356   50.3951 H   0  0  0  0  0  0  0  0  0  0  0  0
   59.7860   33.8440   49.7720 C   0  0  0  0  0  0  0  0  0  0  0  0
   59.3469   34.6799   50.3363 H   0  0  0  0  0  0  0  0  0  0  0  0
   60.9450   34.0440   49.0190 C   0  0  0  0  0  0  0  0  0  0  0  0
   61.4208   35.0355   48.9963 H   0  0  0  0  0  0  0  0  0  0  0  0
   61.5030   32.9830   48.2920 C   0  0  0  0  0  0  0  0  0  0  0  0
   62.9400   33.2400   47.3060 S   0  0  0  0  0  0  0  0  0  0  0  0
   62.5490   33.8010   45.9670 O   0  0  0  0  0  0  0  0  0  0  0  0
   63.8530   34.2190   47.9900 O   0  0  0  0  0  0  0  0  0  0  0  0
   63.7650   31.7390   47.0800 N   0  0  0  0  0  0  0  0  0  0  0  0
   64.4560   31.8840   46.3100 H   0  0  0  0  0  0  0  0  0  0  0  0
   64.3160   31.5600   47.9490 H   0  0  0  0  0  0  0  0  0  0  0  0
   60.8920   31.7220   48.3240 C   0  0  0  0  0  0  0  0  0  0  0  0
   61.3129   30.8947   47.7337 H   0  0  0  0  0  0  0  0  0  0  0  0
   58.1600   29.5140   47.1140 N   0  0  0  0  0  0  0  0  0  0  0  0
   58.3030   28.4830   46.2370 C   0  0  0  0  0  0  0  0  0  0  0  0
   57.5100   28.4070   45.0010 C   0  0  0  0  0  0  0  0  0  0  0  0
   58.0750   28.1080   43.9150 O   0  0  0  0  0  0  0  0  0  0  0  0
   56.1050   28.6740   45.0320 N   0  0  0  0  0  0  0  0  0  0  0  0
   55.4840   29.7240   44.2360 C   0  0  0  0  0  0  0  0  0  0  0  0
   55.1698   29.3106   43.2663 H   0  0  0  0  0  0  0  0  0  0  0  0
   54.6069   30.1169   44.7711 H   0  0  0  0  0  0  0  0  0  0  0  0
   56.4850   30.8540   44.0060 C   0  0  0  0  0  0  0  0  0  0  0  0
   57.4372   30.4276   43.6575 H   0  0  0  0  0  0  0  0  0  0  0  0
   56.0757   31.5411   43.2508 H   0  0  0  0  0  0  0  0  0  0  0  0
   56.7110   31.5810   45.2140 O   0  0  0  0  0  0  0  0  0  0  0  0
   57.5860   32.6690   45.3630 C   0  0  0  0  0  0  0  0  0  0  0  0
   58.3780   33.1630   44.3060 C   0  0  0  0  0  0  0  0  0  0  0  0
   58.3253   32.6899   43.3143 H   0  0  0  0  0  0  0  0  0  0  0  0
   59.2300   34.2520   44.5140 C   0  0  0  0  0  0  0  0  0  0  0  0
   59.8474   34.6316   43.6865 H   0  0  0  0  0  0  0  0  0  0  0  0
   59.2990   34.8590   45.7700 C   0  0  0  0  0  0  0  0  0  0  0  0
   59.9713   35.7145   45.9318 H   0  0  0  0  0  0  0  0  0  0  0  0
   58.5140   34.3790   46.8200 C   0  0  0  0  0  0  0  0  0  0  0  0
   58.5666   34.8580   47.8088 H   0  0  0  0  0  0  0  0  0  0  0  0
   57.6610   33.2900   46.6160 C   0  0  0  0  0  0  0  0  0  0  0  0
   57.0436   32.9179   47.4468 H   0  0  0  0  0  0  0  0  0  0  0  0
  1  2  1  0
  2  3  1  0
  3  4  1  0
  4  5  2  0
  5  6  1  0
  6  7  2  0
  7  8  1  0
  7  9  1  0
  9 10  1  0
  9 11  2  0
 11 12  1  0
 11 13  1  0
 13 14  1  0
 14 15  2  0
 14 16  2  0
 14 17  1  0
 17 18  1  0
 17 19  1  0
 13 20  2  0
 20 21  1  0
  4 22  1  0
 22 23  1  0
 23 24  1  0
 24 25  2  0
 24 26  1  0
 26 27  1  0
 27 28  1  0
 27 29  1  0
 27 30  1  0
 30 31  1  0
 30 32  1  0
 30 33  1  0
 33 34  1  0
 34 35  2  0
 35 36  1  0
 35 37  1  0
 37 38  1  0
 37 39  2  0
 39 40  1  0
 39 41  1  0
 41 42  1  0
 41 43  2  0
 43 44  1  0
 23  2  2  0
 43 34  1  0
 20  6  1  0
M  CHG  2  22  -1  26  -1
M  END
>  <UniqueID>  (91) 
81

>  <SMILES>  (91) 
NS(=O)(=O)c1cccc(/N=c2\[n-]c(C(=O)[N-]CCOc3ccccc3)cs2)c1

>  <Energy>  (91) 
75.53496661432656

>  <Genealogy>  (91) 
NS(=O)(=O)c1cccc(N=c2[n-]c(C(=O)[N-]CCOc3ccccc3)cs2)c1 (protonated)
NS(=O)(=O)c1cccc(/N=c2\[n-]c(C(=O)[N-]CCOc3ccccc3)cs2)c1 (cis-trans isomerization)
NS(=O)(=O)c1cccc(/N=c2\[n-]c(C(=O)[N-]CCOc3ccccc3)cs2)c1 (3D coordinates assigned)
NS(=O)(=O)c1cccc(/N=c2\[n-]c(C(=O)[N-]CCOc3ccccc3)cs2)c1 (optimized conformer: 75.53496661432656 kcal/mol)

>  <smiles>  (91) 
NS(=O)(=O)c1cccc(N=c2[nH]c(C(=O)NCCOc3ccccc3)cs2)c1

>  <score_type>  (91) 
oracle

>  <origin>  (91) 
adg

>  <m_score__min__energy>  (91) 
-13

>  <m_primary>  (91) 
energy

$$$$
91:0
     RDKit          3D

 44 47  0  0  0  0  0  0  0  0999 V2000
   56.4890   27.3740   46.0130 O   0  0  0  0  0  0  0  0  0  0  0  0
   57.3960   26.9170   45.4280 C   0  0  0  0  0  0  0  0  0  0  0  0
   57.8010   25.5860   44.9490 N   0  0  0  0  0  0  0  0  0  0  0  0
   56.3570   24.8180   45.4230 C   0  0  0  0  0  0  0  0  0  0  0  0
   55.5320   25.4580   45.9470 O   0  0  0  0  0  0  0  0  0  0  0  0
   56.3520   23.4250   45.0890 C   0  0  0  0  0  0  0  0  0  0  0  0
   56.2040   22.3580   45.9300 C   0  0  0  0  0  0  0  0  0  0  0  0
   56.2700   21.0580   45.4920 C   0  0  0  0  0  0  0  0  0  0  0  0
   56.4940   20.7700   44.1670 C   0  0  0  0  0  0  0  0  0  0  0  0
   56.6460   21.8120   43.2990 C   0  0  0  0  0  0  0  0  0  0  0  0
   56.5780   23.1140   43.7420 C   0  0  0  0  0  0  0  0  0  0  0  0
   58.5080   27.8030   44.9900 N   0  0  0  0  0  0  0  0  0  0  0  0
   58.4950   29.1650   45.2970 C   0  0  0  0  0  0  0  0  0  0  0  0
   59.4980   29.6440   46.1200 C   0  0  0  0  0  0  0  0  0  0  0  0
   59.5580   30.9630   46.4850 C   0  0  0  0  0  0  0  0  0  0  0  0
   58.5830   31.8120   46.0080 C   0  0  0  0  0  0  0  0  0  0  0  0
   57.5830   31.3200   45.1850 C   0  0  0  0  0  0  0  0  0  0  0  0
   57.5120   29.9930   44.8100 C   0  0  0  0  0  0  0  0  0  0  0  0
   56.7680   32.2640   44.8460 N   0  0  0  0  0  0  0  0  0  0  0  0
   57.2120   33.4640   45.4540 C   0  0  0  0  0  0  0  0  0  0  0  0
   56.6730   34.5830   45.3500 O   0  0  0  0  0  0  0  0  0  0  0  0
   58.4370   33.0960   46.2230 C   0  0  0  0  0  0  0  0  0  0  0  0
   59.1730   34.0930   46.9870 C   0  0  0  0  0  0  0  0  0  0  0  0
   60.5680   33.8880   47.2970 C   0  0  0  0  0  0  0  0  0  0  0  0
   61.6340   33.7860   46.3910 C   0  0  0  0  0  0  0  0  0  0  0  0
   62.7610   33.5840   47.1420 C   0  0  0  0  0  0  0  0  0  0  0  0
   62.4120   33.5640   48.4630 C   0  0  0  0  0  0  0  0  0  0  0  0
   61.0560   33.7530   48.5530 N   0  0  0  0  0  0  0  0  0  0  0  0
   58.0190   24.8710   44.6910 H   0  0  0  0  0  0  0  0  0  0  0  0
   56.0252   22.5477   46.9987 H   0  0  0  0  0  0  0  0  0  0  0  0
   56.1418   20.2360   46.2116 H   0  0  0  0  0  0  0  0  0  0  0  0
   56.5492   19.7290   43.8160 H   0  0  0  0  0  0  0  0  0  0  0  0
   56.8250   21.6094   42.2327 H   0  0  0  0  0  0  0  0  0  0  0  0
   56.7046   23.9325   43.0181 H   0  0  0  0  0  0  0  0  0  0  0  0
   59.2970   27.3280   44.4440 H   0  0  0  0  0  0  0  0  0  0  0  0
   60.2661   28.9491   46.4904 H   0  0  0  0  0  0  0  0  0  0  0  0
   60.3607   31.3335   47.1395 H   0  0  0  0  0  0  0  0  0  0  0  0
   56.7109   29.6183   44.1559 H   0  0  0  0  0  0  0  0  0  0  0  0
   59.1096   35.0346   46.4219 H   0  0  0  0  0  0  0  0  0  0  0  0
   58.6897   34.0580   47.9745 H   0  0  0  0  0  0  0  0  0  0  0  0
   61.5761   33.8547   45.2947 H   0  0  0  0  0  0  0  0  0  0  0  0
   63.7799   33.4585   46.7468 H   0  0  0  0  0  0  0  0  0  0  0  0
   63.1002   33.4209   49.3091 H   0  0  0  0  0  0  0  0  0  0  0  0
   60.5110   33.7830   49.4670 H   0  0  0  0  0  0  0  0  0  0  0  0
  1  2  2  0
  2  3  1  0
  3  4  1  0
  4  5  2  0
  4  6  1  0
  6  7  2  0
  7  8  1  0
  8  9  2  0
  9 10  1  0
 10 11  2  0
  2 12  1  0
 12 13  1  0
 13 14  1  0
 14 15  2  0
 15 16  1  0
 16 17  1  0
 17 18  1  0
 17 19  2  0
 19 20  1  0
 20 21  2  0
 20 22  1  0
 22 23  1  0
 23 24  1  0
 24 25  2  0
 25 26  1  0
 26 27  2  0
 27 28  1  0
 11  6  1  0
 18 13  2  0
 28 24  1  0
 22 16  2  0
  3 29  1  0
  7 30  1  0
  8 31  1  0
  9 32  1  0
 10 33  1  0
 11 34  1  0
 12 35  1  0
 14 36  1  0
 15 37  1  0
 18 38  1  0
 23 39  1  0
 23 40  1  0
 25 41  1  0
 26 42  1  0
 27 43  1  0
 28 44  1  0
M  END
>  <UniqueID>  (92) 
82

>  <SMILES>  (92) 
O=C(NC(=O)c1ccccc1)Nc1ccc2c(c1)=NC(=O)C=2Cc1ccc[nH]1

>  <Energy>  (92) 
369.5881623310494

>  <Genealogy>  (92) 
O=C(NC(=O)c1ccccc1)Nc1ccc2c(c1)=NC(=O)C=2Cc1ccc[nH]1 (3D coordinates assigned)
O=C(NC(=O)c1ccccc1)Nc1ccc2c(c1)=NC(=O)C=2Cc1ccc[nH]1 (nonaromatic ring conformer: 369.5881623310494 kcal/mol)

>  <smiles>  (92) 
O=C(NC(=O)c1ccccc1)Nc1ccc2c(c1)=NC(=O)C=2Cc1ccc[nH]1

>  <score_type>  (92) 
oracle

>  <origin>  (92) 
adg

>  <m_score__min__energy>  (92) 
-8.9399999999999995

>  <m_primary>  (92) 
energy

$$$$
92:0
     RDKit          3D

 45 47  0  0  0  0  0  0  0  0999 V2000
   60.3260   29.1100   49.7020 C   0  0  0  0  0  0  0  0  0  0  0  0
   61.1180   29.9800   48.9000 O   0  0  0  0  0  0  0  0  0  0  0  0
   60.6430   31.1570   48.3030 C   0  0  0  0  0  0  0  0  0  0  0  0
   61.4980   31.8580   47.4440 C   0  0  0  0  0  0  0  0  0  0  0  0
   61.0710   33.0360   46.8220 C   0  0  0  0  0  0  0  0  0  0  0  0
   59.7740   33.5240   47.0450 C   0  0  0  0  0  0  0  0  0  0  0  0
   59.3270   34.8080   46.4020 C   0  0  0  0  0  0  0  0  0  0  0  0
   58.9060   34.5650   44.9510 C   0  0  0  0  0  0  0  0  0  0  0  0
   58.5570   33.1650   44.7460 N   0  0  0  0  0  0  0  0  0  0  0  0
   57.2860   32.6050   45.0920 C   0  0  0  0  0  0  0  0  0  0  0  0
   56.6370   33.0530   46.0760 O   0  0  0  0  0  0  0  0  0  0  0  0
   56.7500   31.4440   44.3170 C   0  0  0  0  0  0  0  0  0  0  0  0
   57.2390   30.1910   44.8930 N   0  0  0  0  0  0  0  0  0  0  0  0
   56.5000   29.0900   45.1580 C   0  0  0  0  0  0  0  0  0  0  0  0
   55.1470   28.9650   44.8600 O   0  0  0  0  0  0  0  0  0  0  0  0
   57.2730   28.1260   45.7700 C   0  0  0  0  0  0  0  0  0  0  0  0
   58.5320   28.6560   45.8970 C   0  0  0  0  0  0  0  0  0  0  0  0
   58.4830   29.9270   45.3600 C   0  0  0  0  0  0  0  0  0  0  0  0
   59.5580   30.8130   45.3190 O   0  0  0  0  0  0  0  0  0  0  0  0
   59.6810   27.9470   46.5380 C   0  0  0  0  0  0  0  0  0  0  0  0
   59.2870   26.5660   47.0260 C   0  0  0  0  0  0  0  0  0  0  0  0
   58.0470   26.0420   46.8970 C   0  0  0  0  0  0  0  0  0  0  0  0
   56.8840   26.7640   46.2470 C   0  0  0  0  0  0  0  0  0  0  0  0
   58.9200   32.8320   47.9180 C   0  0  0  0  0  0  0  0  0  0  0  0
   59.3460   31.6540   48.5380 C   0  0  0  0  0  0  0  0  0  0  0  0
   60.5153   29.3179   50.7655 H   0  0  0  0  0  0  0  0  0  0  0  0
   59.2613   29.2746   49.4801 H   0  0  0  0  0  0  0  0  0  0  0  0
   60.5896   28.0654   49.4801 H   0  0  0  0  0  0  0  0  0  0  0  0
   62.5137   31.4794   47.2567 H   0  0  0  0  0  0  0  0  0  0  0  0
   61.7546   33.5822   46.1553 H   0  0  0  0  0  0  0  0  0  0  0  0
   58.4729   35.2152   46.9630 H   0  0  0  0  0  0  0  0  0  0  0  0
   60.1644   35.5211   46.4138 H   0  0  0  0  0  0  0  0  0  0  0  0
   58.0336   35.1930   44.7177 H   0  0  0  0  0  0  0  0  0  0  0  0
   59.7470   34.8214   44.2900 H   0  0  0  0  0  0  0  0  0  0  0  0
   55.6507   31.4575   44.3537 H   0  0  0  0  0  0  0  0  0  0  0  0
   57.0887   31.5187   43.2731 H   0  0  0  0  0  0  0  0  0  0  0  0
   59.4300   31.8020   45.1460 H   0  0  0  0  0  0  0  0  0  0  0  0
   60.4930   27.8469   45.8027 H   0  0  0  0  0  0  0  0  0  0  0  0
   60.0064   28.5376   47.4071 H   0  0  0  0  0  0  0  0  0  0  0  0
   60.0578   25.9525   47.5153 H   0  0  0  0  0  0  0  0  0  0  0  0
   57.8717   25.0289   47.2881 H   0  0  0  0  0  0  0  0  0  0  0  0
   56.5329   26.1728   45.3884 H   0  0  0  0  0  0  0  0  0  0  0  0
   56.0896   26.8791   46.9991 H   0  0  0  0  0  0  0  0  0  0  0  0
   57.9095   33.2191   48.1154 H   0  0  0  0  0  0  0  0  0  0  0  0
   58.6658   31.1128   49.2121 H   0  0  0  0  0  0  0  0  0  0  0  0
  1  2  1  0
  2  3  1  0
  3  4  2  0
  4  5  1  0
  5  6  2  0
  6  7  1  0
  7  8  1  0
  8  9  1  0
  9 10  1  0
 10 11  2  0
 10 12  1  0
 12 13  1  0
 13 14  1  0
 14 15  1  0
 14 16  2  0
 16 17  1  0
 17 18  2  0
 18 19  1  0
 17 20  1  0
 20 21  1  0
 21 22  2  0
 22 23  1  0
  6 24  1  0
 24 25  2  0
 25  3  1  0
 18 13  1  0
 23 16  1  0
  1 26  1  0
  1 27  1  0
  1 28  1  0
  4 29  1  0
  5 30  1  0
  7 31  1  0
  7 32  1  0
  8 33  1  0
  8 34  1  0
 12 35  1  0
 12 36  1  0
 19 37  1  0
 20 38  1  0
 20 39  1  0
 21 40  1  0
 22 41  1  0
 23 42  1  0
 23 43  1  0
 24 44  1  0
 25 45  1  0
M  CHG  2   9  -1  15  -1
M  END
>  <UniqueID>  (93) 
83

>  <SMILES>  (93) 
COc1ccc(CC[N-]C(=O)Cn2c([O-])c3c(c2O)CC=CC3)cc1

>  <Energy>  (93) 
71.5347600620327

>  <Genealogy>  (93) 
COc1ccc(CC[N-]C(=O)Cn2c([O-])c3c(c2O)CC=CC3)cc1 (protonated)
COc1ccc(CC[N-]C(=O)Cn2c([O-])c3c(c2O)CC=CC3)cc1 (3D coordinates assigned)
COc1ccc(CC[N-]C(=O)Cn2c([O-])c3c(c2O)CC=CC3)cc1 (nonaromatic ring conformer: 71.5347600620327 kcal/mol)

>  <smiles>  (93) 
COc1ccc(CCNC(=O)Cn2c(O)c3c(c2O)CC=CC3)cc1

>  <score_type>  (93) 
oracle

>  <origin>  (93) 
adg

>  <m_score__min__energy>  (93) 
-11.09

>  <m_primary>  (93) 
energy

$$$$
93:0
     RDKit          3D

 49 51  0  0  0  0  0  0  0  0999 V2000
   54.6170   22.5260   48.0860 C   0  0  0  0  0  0  0  0  0  0  0  0
   55.1530   23.7240   47.4530 N   0  0  0  0  0  0  0  0  0  0  0  0
   56.5670   23.9560   47.3500 C   0  0  0  0  0  0  0  0  0  0  0  0
   57.3730   23.1440   47.8820 O   0  0  0  0  0  0  0  0  0  0  0  0
   57.0950   25.1490   46.6510 C   0  0  0  0  0  0  0  0  0  0  0  0
   58.4660   25.2360   46.3500 C   0  0  0  0  0  0  0  0  0  0  0  0
   58.9810   26.3790   45.7340 C   0  0  0  0  0  0  0  0  0  0  0  0
   58.1320   27.4290   45.3800 C   0  0  0  0  0  0  0  0  0  0  0  0
   56.7580   27.3370   45.6120 C   0  0  0  0  0  0  0  0  0  0  0  0
   55.9240   28.4470   45.2400 N   0  0  0  0  0  0  0  0  0  0  0  0
   56.2980   29.5780   44.4380 C   0  0  0  0  0  0  0  0  0  0  0  0
   55.9360   29.6500   43.2280 O   0  0  0  0  0  0  0  0  0  0  0  0
   57.1550   30.6390   45.0170 C   0  0  0  0  0  0  0  0  0  0  0  0
   57.3260   31.8670   44.3480 C   0  0  0  0  0  0  0  0  0  0  0  0
   58.1320   32.8680   44.8970 C   0  0  0  0  0  0  0  0  0  0  0  0
   58.7870   32.6580   46.1190 C   0  0  0  0  0  0  0  0  0  0  0  0
   59.8110   33.9140   46.8110 S   0  0  0  0  0  0  0  0  0  0  0  0
   59.0320   35.1990   46.8710 O   0  0  0  0  0  0  0  0  0  0  0  0
   61.0230   34.1360   45.9500 O   0  0  0  0  0  0  0  0  0  0  0  0
   60.3310   33.4940   48.4130 N   0  0  0  0  0  0  0  0  0  0  0  0
   61.7070   33.3120   48.7740 C   0  0  0  0  0  0  0  0  0  0  0  0
   62.3230   34.1700   49.7030 C   0  0  0  0  0  0  0  0  0  0  0  0
   63.6610   33.9790   50.0600 C   0  0  0  0  0  0  0  0  0  0  0  0
   64.3940   32.9270   49.5010 C   0  0  0  0  0  0  0  0  0  0  0  0
   63.7950   32.0730   48.5680 C   0  0  0  0  0  0  0  0  0  0  0  0
   62.4540   32.2640   48.1910 C   0  0  0  0  0  0  0  0  0  0  0  0
   61.8330   31.3540   47.1660 C   0  0  0  0  0  0  0  0  0  0  0  0
   58.6190   31.4410   46.7930 C   0  0  0  0  0  0  0  0  0  0  0  0
   57.8130   30.4360   46.2450 C   0  0  0  0  0  0  0  0  0  0  0  0
   56.2440   26.2010   46.2670 C   0  0  0  0  0  0  0  0  0  0  0  0
   54.6661   22.6358   49.1794 H   0  0  0  0  0  0  0  0  0  0  0  0
   53.5703   22.3857   47.7782 H   0  0  0  0  0  0  0  0  0  0  0  0
   55.2100   21.6521   47.7782 H   0  0  0  0  0  0  0  0  0  0  0  0
   54.4770   24.4500   47.1250 H   0  0  0  0  0  0  0  0  0  0  0  0
   59.1358   24.4002   46.6008 H   0  0  0  0  0  0  0  0  0  0  0  0
   60.0589   26.4519   45.5272 H   0  0  0  0  0  0  0  0  0  0  0  0
   58.5481   28.3350   44.9152 H   0  0  0  0  0  0  0  0  0  0  0  0
   56.8212   32.0393   43.3860 H   0  0  0  0  0  0  0  0  0  0  0  0
   58.2532   33.8249   44.3682 H   0  0  0  0  0  0  0  0  0  0  0  0
   61.7493   34.9949   50.1506 H   0  0  0  0  0  0  0  0  0  0  0  0
   64.1385   34.6576   50.7822 H   0  0  0  0  0  0  0  0  0  0  0  0
   65.4424   32.7707   49.7950 H   0  0  0  0  0  0  0  0  0  0  0  0
   64.3757   31.2490   48.1278 H   0  0  0  0  0  0  0  0  0  0  0  0
   61.2835   30.5488   47.6755 H   0  0  0  0  0  0  0  0  0  0  0  0
   61.1389   31.9303   46.5366 H   0  0  0  0  0  0  0  0  0  0  0  0
   62.6226   30.9178   46.5366 H   0  0  0  0  0  0  0  0  0  0  0  0
   59.1225   31.2746   47.7567 H   0  0  0  0  0  0  0  0  0  0  0  0
   57.6930   29.4811   46.7776 H   0  0  0  0  0  0  0  0  0  0  0  0
   55.1668   26.1359   46.4803 H   0  0  0  0  0  0  0  0  0  0  0  0
  1  2  1  0
  2  3  1  0
  3  4  2  0
  3  5  1  0
  5  6  2  0
  6  7  1  0
  7  8  2  0
  8  9  1  0
  9 10  1  0
 10 11  1  0
 11 12  2  0
 11 13  1  0
 13 14  2  0
 14 15  1  0
 15 16  2  0
 16 17  1  0
 17 18  2  0
 17 19  2  0
 17 20  1  0
 20 21  1  0
 21 22  2  0
 22 23  1  0
 23 24  2  0
 24 25  1  0
 25 26  2  0
 26 27  1  0
 16 28  1  0
 28 29  2  0
  9 30  2  0
 30  5  1  0
 29 13  1  0
 26 21  1  0
  1 31  1  0
  1 32  1  0
  1 33  1  0
  2 34  1  0
  6 35  1  0
  7 36  1  0
  8 37  1  0
 14 38  1  0
 15 39  1  0
 22 40  1  0
 23 41  1  0
 24 42  1  0
 25 43  1  0
 27 44  1  0
 27 45  1  0
 27 46  1  0
 28 47  1  0
 29 48  1  0
 30 49  1  0
M  CHG  2  10  -1  20  -1
M  END
>  <UniqueID>  (94) 
84

>  <SMILES>  (94) 
CNC(=O)c1cccc([N-]C(=O)c2ccc(S(=O)(=O)[N-]c3ccccc3C)cc2)c1

>  <Energy>  (94) 
62.382352627700925

>  <Genealogy>  (94) 
CNC(=O)c1cccc([N-]C(=O)c2ccc(S(=O)(=O)[N-]c3ccccc3C)cc2)c1 (protonated)
CNC(=O)c1cccc([N-]C(=O)c2ccc(S(=O)(=O)[N-]c3ccccc3C)cc2)c1 (3D coordinates assigned)
CNC(=O)c1cccc([N-]C(=O)c2ccc(S(=O)(=O)[N-]c3ccccc3C)cc2)c1 (optimized conformer: 62.382352627700925 kcal/mol)

>  <smiles>  (94) 
CNC(=O)c1cccc(NC(=O)c2ccc(S(=O)(=O)Nc3ccccc3C)cc2)c1

>  <score_type>  (94) 
oracle

>  <origin>  (94) 
adg

>  <m_score__min__energy>  (94) 
-11.890000000000001

>  <m_primary>  (94) 
energy

$$$$
94:0
     RDKit          3D

 56 58  0  0  0  0  0  0  0  0999 V2000
   56.9140   29.9810   43.9790 C   0  0  0  0  0  0  0  0  0  0  0  0
   56.5290   31.1360   44.7170 O   0  0  0  0  0  0  0  0  0  0  0  0
   57.4110   32.1430   45.1360 C   0  0  0  0  0  0  0  0  0  0  0  0
   57.4790   33.3930   44.4850 C   0  0  0  0  0  0  0  0  0  0  0  0
   58.3470   34.3850   44.9490 C   0  0  0  0  0  0  0  0  0  0  0  0
   59.1500   34.1460   46.0660 C   0  0  0  0  0  0  0  0  0  0  0  0
   59.0910   32.9110   46.7180 C   0  0  0  0  0  0  0  0  0  0  0  0
   58.2380   31.9050   46.2490 C   0  0  0  0  0  0  0  0  0  0  0  0
   58.1910   30.6550   46.9430 N   0  0  0  0  0  0  0  0  0  0  0  0
   59.5710   29.6170   47.0450 S   0  0  0  0  0  0  0  0  0  0  0  0
   60.1210   29.6640   48.4420 O   0  0  0  0  0  0  0  0  0  0  0  0
   60.6320   30.1160   46.1020 O   0  0  0  0  0  0  0  0  0  0  0  0
   59.1250   27.9590   46.6540 C   0  0  0  0  0  0  0  0  0  0  0  0
   60.1220   27.0270   46.3520 C   0  0  0  0  0  0  0  0  0  0  0  0
   59.7780   25.7120   46.0250 C   0  0  0  0  0  0  0  0  0  0  0  0
   58.4380   25.3200   46.0080 C   0  0  0  0  0  0  0  0  0  0  0  0
   57.4310   26.2390   46.3360 C   0  0  0  0  0  0  0  0  0  0  0  0
   56.0140   25.8270   46.2970 C   0  0  0  0  0  0  0  0  0  0  0  0
   55.1410   26.6600   45.9380 O   0  0  0  0  0  0  0  0  0  0  0  0
   55.5990   24.5070   46.6680 N   0  0  0  0  0  0  0  0  0  0  0  0
   54.3980   23.8560   46.1560 C   0  0  0  0  0  0  0  0  0  0  0  0
   54.6540   23.3340   44.7750 C   0  0  0  0  0  0  0  0  0  0  0  0
   53.9170   23.7370   43.8330 O   0  0  0  0  0  0  0  0  0  0  0  0
   55.7160   22.3920   44.5010 N   0  0  0  0  0  0  0  0  0  0  0  0
   56.2420   21.5140   45.5640 C   0  0  0  0  0  0  0  0  0  0  0  0
   57.6600   21.9170   46.0170 C   0  0  0  0  0  0  0  0  0  0  0  0
   58.5710   22.4550   44.9030 C   0  0  0  0  0  0  0  0  0  0  0  0
   58.6690   21.5380   43.6730 C   0  0  0  0  0  0  0  0  0  0  0  0
   57.3460   21.2700   42.9290 C   0  0  0  0  0  0  0  0  0  0  0  0
   56.2780   22.3600   43.1340 C   0  0  0  0  0  0  0  0  0  0  0  0
   57.7800   27.5640   46.6400 C   0  0  0  0  0  0  0  0  0  0  0  0
   57.1832   29.1735   44.6758 H   0  0  0  0  0  0  0  0  0  0  0  0
   56.0761   29.6545   43.3455 H   0  0  0  0  0  0  0  0  0  0  0  0
   57.7802   30.2226   43.3455 H   0  0  0  0  0  0  0  0  0  0  0  0
   56.8452   33.5877   43.6073 H   0  0  0  0  0  0  0  0  0  0  0  0
   58.3977   35.3554   44.4336 H   0  0  0  0  0  0  0  0  0  0  0  0
   59.8291   34.9297   46.4329 H   0  0  0  0  0  0  0  0  0  0  0  0
   59.7176   32.7288   47.6035 H   0  0  0  0  0  0  0  0  0  0  0  0
   61.1796   27.3289   46.3717 H   0  0  0  0  0  0  0  0  0  0  0  0
   60.5654   24.9839   45.7804 H   0  0  0  0  0  0  0  0  0  0  0  0
   58.1717   24.2878   45.7367 H   0  0  0  0  0  0  0  0  0  0  0  0
   54.1250   23.0206   46.8175 H   0  0  0  0  0  0  0  0  0  0  0  0
   53.5754   24.5855   46.1222 H   0  0  0  0  0  0  0  0  0  0  0  0
   55.5668   21.5665   46.4308 H   0  0  0  0  0  0  0  0  0  0  0  0
   56.2993   20.4940   45.1563 H   0  0  0  0  0  0  0  0  0  0  0  0
   57.5633   22.6982   46.7853 H   0  0  0  0  0  0  0  0  0  0  0  0
   58.1371   20.9970   46.3858 H   0  0  0  0  0  0  0  0  0  0  0  0
   58.1787   23.4295   44.5767 H   0  0  0  0  0  0  0  0  0  0  0  0
   59.5833   22.5244   45.3277 H   0  0  0  0  0  0  0  0  0  0  0  0
   59.3684   22.0013   42.9615 H   0  0  0  0  0  0  0  0  0  0  0  0
   59.0005   20.5609   44.0544 H   0  0  0  0  0  0  0  0  0  0  0  0
   57.5632   21.1971   41.8531 H   0  0  0  0  0  0  0  0  0  0  0  0
   56.9323   20.3385   43.3427 H   0  0  0  0  0  0  0  0  0  0  0  0
   56.7352   23.3381   42.9236 H   0  0  0  0  0  0  0  0  0  0  0  0
   55.4477   22.1290   42.4505 H   0  0  0  0  0  0  0  0  0  0  0  0
   56.9928   28.2975   46.8688 H   0  0  0  0  0  0  0  0  0  0  0  0
  1  2  1  0
  2  3  1  0
  3  4  2  0
  4  5  1  0
  5  6  2  0
  6  7  1  0
  7  8  2  0
  8  9  1  0
  9 10  1  0
 10 11  2  0
 10 12  2  0
 10 13  1  0
 13 14  2  0
 14 15  1  0
 15 16  2  0
 16 17  1  0
 17 18  1  0
 18 19  2  0
 18 20  1  0
 20 21  1  0
 21 22  1  0
 22 23  2  0
 22 24  1  0
 24 25  1  0
 25 26  1  0
 26 27  1  0
 27 28  1  0
 28 29  1  0
 29 30  1  0
 17 31  2  0
  8  3  1  0
 31 13  1  0
 30 24  1  0
  1 32  1  0
  1 33  1  0
  1 34  1  0
  4 35  1  0
  5 36  1  0
  6 37  1  0
  7 38  1  0
 14 39  1  0
 15 40  1  0
 16 41  1  0
 21 42  1  0
 21 43  1  0
 25 44  1  0
 25 45  1  0
 26 46  1  0
 26 47  1  0
 27 48  1  0
 27 49  1  0
 28 50  1  0
 28 51  1  0
 29 52  1  0
 29 53  1  0
 30 54  1  0
 30 55  1  0
 31 56  1  0
M  CHG  2   9  -1  20  -1
M  END
>  <UniqueID>  (95) 
85

>  <SMILES>  (95) 
COc1ccccc1[N-]S(=O)(=O)c1cccc(C(=O)[N-]CC(=O)N2CCCCCC2)c1

>  <Energy>  (95) 
68.12935888932003

>  <Genealogy>  (95) 
COc1ccccc1[N-]S(=O)(=O)c1cccc(C(=O)[N-]CC(=O)N2CCCCCC2)c1 (protonated)
COc1ccccc1[N-]S(=O)(=O)c1cccc(C(=O)[N-]CC(=O)N2CCCCCC2)c1 (3D coordinates assigned)
COc1ccccc1[N-]S(=O)(=O)c1cccc(C(=O)[N-]CC(=O)N2CCCCCC2)c1 (nonaromatic ring conformer: 68.12935888932003 kcal/mol)

>  <smiles>  (95) 
COc1ccccc1NS(=O)(=O)c1cccc(C(=O)NCC(=O)N2CCCCCC2)c1

>  <score_type>  (95) 
oracle

>  <origin>  (95) 
adg

>  <m_score__min__energy>  (95) 
-10.02

>  <m_primary>  (95) 
energy

$$$$
95:0
     RDKit          3D

 45 47  0  0  0  0  0  0  0  0999 V2000
   60.4850   29.4280   50.4650 C   0  0  0  0  0  0  0  0  0  0  0  0
   60.1750   29.3540   48.9920 C   0  0  0  0  0  0  0  0  0  0  0  0
   60.4880   28.1850   48.2790 C   0  0  0  0  0  0  0  0  0  0  0  0
   60.1780   28.0750   46.9220 C   0  0  0  0  0  0  0  0  0  0  0  0
   59.5580   29.1360   46.2500 C   0  0  0  0  0  0  0  0  0  0  0  0
   59.1860   29.0000   44.7980 C   0  0  0  0  0  0  0  0  0  0  0  0
   57.8360   28.4440   44.6870 N   0  0  0  0  0  0  0  0  0  0  0  0
   56.7180   29.7080   44.2760 S   0  0  0  0  0  0  0  0  0  0  0  0
   55.1390   29.3190   44.8630 N   0  0  0  0  0  0  0  0  0  0  0  0
   57.1750   30.9940   44.9030 O   0  0  0  0  0  0  0  0  0  0  0  0
   56.6680   29.8790   42.7840 O   0  0  0  0  0  0  0  0  0  0  0  0
   59.2340   30.3030   46.9540 C   0  0  0  0  0  0  0  0  0  0  0  0
   59.5570   30.4320   48.3140 C   0  0  0  0  0  0  0  0  0  0  0  0
   59.2300   31.6970   49.0010 C   0  0  0  0  0  0  0  0  0  0  0  0
   58.6160   31.6440   50.1020 O   0  0  0  0  0  0  0  0  0  0  0  0
   59.5590   32.9780   48.4220 N   0  0  0  0  0  0  0  0  0  0  0  0
   60.5840   33.8290   49.0220 C   0  0  0  0  0  0  0  0  0  0  0  0
   61.9520   33.3430   48.5850 C   0  0  0  0  0  0  0  0  0  0  0  0
   62.2630   33.6670   47.1530 C   0  0  0  0  0  0  0  0  0  0  0  0
   63.4760   33.7520   46.8270 O   0  0  0  0  0  0  0  0  0  0  0  0
   61.2790   33.8640   46.1240 N   0  0  0  0  0  0  0  0  0  0  0  0
   59.8410   33.7990   46.0800 C   0  0  0  0  0  0  0  0  0  0  0  0
   59.2380   34.1660   44.8680 C   0  0  0  0  0  0  0  0  0  0  0  0
   57.8550   34.0960   44.7000 C   0  0  0  0  0  0  0  0  0  0  0  0
   57.0490   33.6490   45.7450 C   0  0  0  0  0  0  0  0  0  0  0  0
   57.6260   33.2760   46.9580 C   0  0  0  0  0  0  0  0  0  0  0  0
   59.0200   33.3440   47.1460 C   0  0  0  0  0  0  0  0  0  0  0  0
   59.5745   29.2107   51.0427 H   0  0  0  0  0  0  0  0  0  0  0  0
   61.2619   28.6901   50.7137 H   0  0  0  0  0  0  0  0  0  0  0  0
   60.8449   30.4373   50.7137 H   0  0  0  0  0  0  0  0  0  0  0  0
   60.9820   27.3482   48.7945 H   0  0  0  0  0  0  0  0  0  0  0  0
   60.4219   27.1505   46.3781 H   0  0  0  0  0  0  0  0  0  0  0  0
   59.2150   29.9895   44.3184 H   0  0  0  0  0  0  0  0  0  0  0  0
   59.9000   28.3281   44.2993 H   0  0  0  0  0  0  0  0  0  0  0  0
   57.8280   27.7640   43.8910 H   0  0  0  0  0  0  0  0  0  0  0  0
   55.2610   28.6090   45.6190 H   0  0  0  0  0  0  0  0  0  0  0  0
   58.7212   31.1267   46.4358 H   0  0  0  0  0  0  0  0  0  0  0  0
   60.4396   34.8682   48.6914 H   0  0  0  0  0  0  0  0  0  0  0  0
   60.5078   33.7833   50.1184 H   0  0  0  0  0  0  0  0  0  0  0  0
   62.7121   33.8164   49.2239 H   0  0  0  0  0  0  0  0  0  0  0  0
   61.9566   32.2472   48.6815 H   0  0  0  0  0  0  0  0  0  0  0  0
   59.8666   34.5151   44.0355 H   0  0  0  0  0  0  0  0  0  0  0  0
   57.4010   34.3935   43.7432 H   0  0  0  0  0  0  0  0  0  0  0  0
   55.9585   33.5905   45.6130 H   0  0  0  0  0  0  0  0  0  0  0  0
   56.9841   32.9240   47.7790 H   0  0  0  0  0  0  0  0  0  0  0  0
  1  2  1  0
  2  3  2  0
  3  4  1  0
  4  5  2  0
  5  6  1  0
  6  7  1  0
  7  8  1  0
  8  9  1  0
  8 10  2  0
  8 11  2  0
  5 12  1  0
 12 13  2  0
 13 14  1  0
 14 15  2  0
 14 16  1  0
 16 17  1  0
 17 18  1  0
 18 19  1  0
 19 20  2  0
 19 21  1  0
 21 22  1  0
 22 23  2  0
 23 24  1  0
 24 25  2  0
 25 26  1  0
 26 27  2  0
 13  2  1  0
 27 16  1  0
 27 22  1  0
  1 28  1  0
  1 29  1  0
  1 30  1  0
  3 31  1  0
  4 32  1  0
  6 33  1  0
  6 34  1  0
  7 35  1  0
  9 36  1  0
 12 37  1  0
 17 38  1  0
 17 39  1  0
 18 40  1  0
 18 41  1  0
 23 42  1  0
 24 43  1  0
 25 44  1  0
 26 45  1  0
M  CHG  2   9  -1  21  -1
M  END
>  <UniqueID>  (96) 
86

>  <SMILES>  (96) 
Cc1ccc(CNS([NH-])(=O)=O)cc1C(=O)N1CCC(=O)[N-]c2ccccc21

>  <Energy>  (96) 
60.961225286642836

>  <Genealogy>  (96) 
Cc1ccc(CNS([NH-])(=O)=O)cc1C(=O)N1CCC(=O)[N-]c2ccccc21 (protonated)
Cc1ccc(CNS([NH-])(=O)=O)cc1C(=O)N1CCC(=O)[N-]c2ccccc21 (3D coordinates assigned)
Cc1ccc(CNS([NH-])(=O)=O)cc1C(=O)N1CCC(=O)[N-]c2ccccc21 (nonaromatic ring conformer: 60.961225286642836 kcal/mol)

>  <smiles>  (96) 
Cc1ccc(CNS(N)(=O)=O)cc1C(=O)N1CCC(=O)Nc2ccccc21

>  <score_type>  (96) 
oracle

>  <origin>  (96) 
adg

>  <m_score__min__energy>  (96) 
-11.31

>  <m_primary>  (96) 
energy

$$$$
96:0
     RDKit          3D

 58 60  0  0  0  0  0  0  0  0999 V2000
   56.0220   25.2114   44.0899 H   0  0  0  0  0  0  0  0  0  0  0  0
   56.3580   24.1640   44.0890 C   0  0  0  0  0  0  0  0  0  0  0  0
   56.6810   23.4770   45.1730 C   0  0  0  0  0  0  0  0  0  0  0  0
   56.6110   23.9840   46.5620 C   0  0  0  0  0  0  0  0  0  0  0  0
   56.0408   23.3891   47.2907 H   0  0  0  0  0  0  0  0  0  0  0  0
   57.1890   25.1130   47.0020 C   0  0  0  0  0  0  0  0  0  0  0  0
   57.6960   25.0785   47.9776 H   0  0  0  0  0  0  0  0  0  0  0  0
   57.1950   26.4030   46.2710 C   0  0  0  0  0  0  0  0  0  0  0  0
   56.0060   27.0760   45.9610 C   0  0  0  0  0  0  0  0  0  0  0  0
   54.7700   26.5530   46.3270 O   0  0  0  0  0  0  0  0  0  0  0  0
   56.0510   28.2420   45.2740 N   0  0  0  0  0  0  0  0  0  0  0  0
   57.2260   28.7760   44.8550 C   0  0  0  0  0  0  0  0  0  0  0  0
   57.2060   29.8610   44.2120 O   0  0  0  0  0  0  0  0  0  0  0  0
   58.4120   28.1380   45.1200 N   0  0  0  0  0  0  0  0  0  0  0  0
   59.6820   28.6940   44.6130 C   0  0  0  0  0  0  0  0  0  0  0  0
   60.1224   27.9925   43.8891 H   0  0  0  0  0  0  0  0  0  0  0  0
   59.4818   29.6599   44.1262 H   0  0  0  0  0  0  0  0  0  0  0  0
   60.6640   28.9110   45.7690 C   0  0  0  0  0  0  0  0  0  0  0  0
   60.8427   27.9497   46.2729 H   0  0  0  0  0  0  0  0  0  0  0  0
   61.6012   29.3144   45.3581 H   0  0  0  0  0  0  0  0  0  0  0  0
   60.1090   29.9160   46.7900 C   0  0  0  0  0  0  0  0  0  0  0  0
   60.8306   30.7388   46.9006 H   0  0  0  0  0  0  0  0  0  0  0  0
   59.1392   30.2705   46.4109 H   0  0  0  0  0  0  0  0  0  0  0  0
   59.8630   29.2890   48.1740 C   0  0  0  0  0  0  0  0  0  0  0  0
   59.4572   28.2773   48.0260 H   0  0  0  0  0  0  0  0  0  0  0  0
   60.8314   29.2909   48.6958 H   0  0  0  0  0  0  0  0  0  0  0  0
   58.8810   30.0770   49.0660 C   0  0  0  0  0  0  0  0  0  0  0  0
   57.8548   29.7850   48.7982 H   0  0  0  0  0  0  0  0  0  0  0  0
   59.1222   29.8325   50.1110 H   0  0  0  0  0  0  0  0  0  0  0  0
   59.0080   31.5770   48.9160 C   0  0  0  0  0  0  0  0  0  0  0  0
   59.8730   32.2080   49.5800 O   0  0  0  0  0  0  0  0  0  0  0  0
   58.1380   32.3190   48.0490 N   0  0  0  0  0  0  0  0  0  0  0  0
   58.5470   33.2510   47.0360 C   0  0  0  0  0  0  0  0  0  0  0  0
   59.3590   34.3550   47.3600 C   0  0  0  0  0  0  0  0  0  0  0  0
   59.7110   34.4900   48.3934 H   0  0  0  0  0  0  0  0  0  0  0  0
   59.7200   35.2790   46.3780 C   0  0  0  0  0  0  0  0  0  0  0  0
   60.3619   36.1340   46.6368 H   0  0  0  0  0  0  0  0  0  0  0  0
   59.2660   35.1180   45.0660 C   0  0  0  0  0  0  0  0  0  0  0  0
   59.5610   35.8399   44.2903 H   0  0  0  0  0  0  0  0  0  0  0  0
   58.4370   34.0400   44.7380 C   0  0  0  0  0  0  0  0  0  0  0  0
   58.0753   33.9231   43.7058 H   0  0  0  0  0  0  0  0  0  0  0  0
   58.0640   33.1070   45.7170 C   0  0  0  0  0  0  0  0  0  0  0  0
   57.2110   32.0110   45.3580 N   0  0  0  0  0  0  0  0  0  0  0  0
   57.0490   31.2190   46.0210 H   0  0  0  0  0  0  0  0  0  0  0  0
   56.7130   31.9810   44.4420 H   0  0  0  0  0  0  0  0  0  0  0  0
   58.4030   26.9460   45.8040 C   0  0  0  0  0  0  0  0  0  0  0  0
   59.4840   26.3310   46.0260 O   0  0  0  0  0  0  0  0  0  0  0  0
   57.0370   22.1420   44.8480 N   0  0  0  0  0  0  0  0  0  0  0  0
   57.5190   21.1390   45.7910 C   0  0  0  0  0  0  0  0  0  0  0  0
   57.3498   21.4912   46.8193 H   0  0  0  0  0  0  0  0  0  0  0  0
   56.9759   20.1957   45.6324 H   0  0  0  0  0  0  0  0  0  0  0  0
   58.5949   20.9737   45.6324 H   0  0  0  0  0  0  0  0  0  0  0  0
   56.9890   21.9660   43.4050 C   0  0  0  0  0  0  0  0  0  0  0  0
   57.9858   21.7195   43.0106 H   0  0  0  0  0  0  0  0  0  0  0  0
   56.3243   21.1416   43.1074 H   0  0  0  0  0  0  0  0  0  0  0  0
   56.5120   23.3230   42.8640 C   0  0  0  0  0  0  0  0  0  0  0  0
   57.2586   23.7570   42.1826 H   0  0  0  0  0  0  0  0  0  0  0  0
   55.5810   23.2447   42.2833 H   0  0  0  0  0  0  0  0  0  0  0  0
  1  2  1  0
  2  3  2  0
  3  4  1  0
  4  5  1  0
  4  6  2  0
  6  7  1  0
  6  8  1  0
  8  9  2  0
  9 10  1  0
  9 11  1  0
 11 12  1  0
 12 13  2  0
 12 14  1  0
 14 15  1  0
 15 16  1  0
 15 17  1  0
 15 18  1  0
 18 19  1  0
 18 20  1  0
 18 21  1  0
 21 22  1  0
 21 23  1  0
 21 24  1  0
 24 25  1  0
 24 26  1  0
 24 27  1  0
 27 28  1  0
 27 29  1  0
 27 30  1  0
 30 31  2  0
 30 32  1  0
 32 33  1  0
 33 34  2  0
 34 35  1  0
 34 36  1  0
 36 37  1  0
 36 38  2  0
 38 39  1  0
 38 40  1  0
 40 41  1  0
 40 42  2  0
 42 43  1  0
 43 44  1  0
 43 45  1  0
 14 46  1  0
 46 47  2  0
  3 48  1  0
 48 49  1  0
 49 50  1  0
 49 51  1  0
 49 52  1  0
 48 53  1  0
 53 54  1  0
 53 55  1  0
 53 56  1  0
 56 57  1  0
 56 58  1  0
 56  2  1  0
 46  8  1  0
 42 33  1  0
M  CHG  3  10  -1  11  -1  32  -1
M  END
>  <UniqueID>  (97) 
87

>  <SMILES>  (97) 
CN1CCC=C1/C=C\c1c([O-])[n-]c(=O)n(CCCCCC(=O)[N-]c2ccccc2N)c1=O

>  <Energy>  (97) 
81.02359644066408

>  <Genealogy>  (97) 
CN1CCC=C1C=Cc1c([O-])[n-]c(=O)n(CCCCCC(=O)[N-]c2ccccc2N)c1=O (protonated)
CN1CCC=C1/C=C\c1c([O-])[n-]c(=O)n(CCCCCC(=O)[N-]c2ccccc2N)c1=O (cis-trans isomerization)
CN1CCC=C1/C=C\c1c([O-])[n-]c(=O)n(CCCCCC(=O)[N-]c2ccccc2N)c1=O (3D coordinates assigned)
CN1CCC=C1/C=C\c1c([O-])[n-]c(=O)n(CCCCCC(=O)[N-]c2ccccc2N)c1=O (nonaromatic ring conformer: 81.02359644066408 kcal/mol)

>  <smiles>  (97) 
CN1CCC=C1C=Cc1c(O)[nH]c(=O)n(CCCCCC(=O)Nc2ccccc2N)c1=O

>  <score_type>  (97) 
oracle

>  <origin>  (97) 
adg

>  <m_score__min__energy>  (97) 
-13.529999999999999

>  <m_primary>  (97) 
energy

$$$$
97:0
     RDKit          3D

 47 49  0  0  1  0  0  0  0  0999 V2000
   58.9640   34.4430   46.6770 C   0  0  0  0  0  0  0  0  0  0  0  0
   59.4410   33.0290   46.5730 C   0  0  0  0  0  0  0  0  0  0  0  0
   58.8700   32.1780   45.6680 C   0  0  0  0  0  0  0  0  0  0  0  0
   59.3310   30.9150   45.6110 N   0  0  0  0  0  0  0  0  0  0  0  0
   58.6970   30.0400   44.6350 C   0  0  1  0  0  0  0  0  0  0  0  0
   58.5190   28.7840   45.1670 O   0  0  0  0  0  0  0  0  0  0  0  0
   57.2240   28.7290   45.6740 C   0  0  2  0  0  0  0  0  0  0  0  0
   56.7400   27.3480   45.8450 C   0  0  0  0  0  0  0  0  0  0  0  0
   55.5200   27.0780   45.9020 O   0  0  0  0  0  0  0  0  0  0  0  0
   57.6980   26.3110   45.9450 N   0  0  0  0  0  0  0  0  0  0  0  0
   57.3360   24.9420   46.1130 C   0  0  0  0  0  0  0  0  0  0  0  0
   57.1050   24.4340   47.3790 C   0  0  0  0  0  0  0  0  0  0  0  0
   56.7560   23.1170   47.5550 C   0  0  0  0  0  0  0  0  0  0  0  0
   56.6360   22.3010   46.4480 C   0  0  0  0  0  0  0  0  0  0  0  0
   56.8590   22.7720   45.1710 C   0  0  0  0  0  0  0  0  0  0  0  0
   56.7070   21.7410   43.7910 S   0  0  0  0  0  0  0  0  0  0  0  0
   58.2120   21.1060   43.2360 N   0  0  0  0  0  0  0  0  0  0  0  0
   55.9560   22.4220   42.6800 O   0  0  0  0  0  0  0  0  0  0  0  0
   55.8470   20.5530   44.1840 O   0  0  0  0  0  0  0  0  0  0  0  0
   57.2100   24.0990   45.0020 C   0  0  0  0  0  0  0  0  0  0  0  0
   56.4580   29.3530   44.5140 C   0  0  1  0  0  0  0  0  0  0  0  0
   55.1590   29.6840   44.8630 O   0  0  0  0  0  0  0  0  0  0  0  0
   57.3350   30.5660   44.2520 C   0  0  2  0  0  0  0  0  0  0  0  0
   57.2880   30.9690   42.9350 F   0  0  0  0  0  0  0  0  0  0  0  0
   60.4680   32.6050   47.4080 C   0  0  0  0  0  0  0  0  0  0  0  0
   60.7210   29.3050   46.3240 O   0  0  0  0  0  0  0  0  0  0  0  0
   60.8930   31.3280   47.3100 N   0  0  0  0  0  0  0  0  0  0  0  0
   60.3300   30.4890   46.4180 C   0  0  0  0  0  0  0  0  0  0  0  0
   60.9990   33.4040   48.2520 N   0  0  0  0  0  0  0  0  0  0  0  0
   58.8701   34.7213   47.7371 H   0  0  0  0  0  0  0  0  0  0  0  0
   59.6866   35.1108   46.1852 H   0  0  0  0  0  0  0  0  0  0  0  0
   57.9845   34.5367   46.1852 H   0  0  0  0  0  0  0  0  0  0  0  0
   58.0584   32.5155   45.0066 H   0  0  0  0  0  0  0  0  0  0  0  0
   59.3522   30.0001   43.7523 H   0  0  0  0  0  0  0  0  0  0  0  0
   57.1270   29.2061   46.6604 H   0  0  0  0  0  0  0  0  0  0  0  0
   58.7240   26.5490   45.8960 H   0  0  0  0  0  0  0  0  0  0  0  0
   57.2019   25.0924   48.2549 H   0  0  0  0  0  0  0  0  0  0  0  0
   56.5747   22.7182   48.5640 H   0  0  0  0  0  0  0  0  0  0  0  0
   56.3550   21.2468   46.5881 H   0  0  0  0  0  0  0  0  0  0  0  0
   58.8730   20.8800   44.0020 H   0  0  0  0  0  0  0  0  0  0  0  0
   58.0680   20.2450   42.6770 H   0  0  0  0  0  0  0  0  0  0  0  0
   57.3908   24.4936   43.9913 H   0  0  0  0  0  0  0  0  0  0  0  0
   56.3104   28.7009   43.6405 H   0  0  0  0  0  0  0  0  0  0  0  0
   54.7720   28.8760   45.3160 H   0  0  0  0  0  0  0  0  0  0  0  0
   57.0290   31.4641   44.8087 H   0  0  0  0  0  0  0  0  0  0  0  0
   61.6770   31.0120   47.9520 H   0  0  0  0  0  0  0  0  0  0  0  0
   62.0260   33.3520   48.4440 H   0  0  0  0  0  0  0  0  0  0  0  0
  1  2  1  0
  2  3  2  0
  3  4  1  0
  4  5  1  0
  5  6  1  0
  6  7  1  0
  7  8  1  0
  8  9  2  0
  8 10  1  0
 10 11  1  0
 11 12  2  0
 12 13  1  0
 13 14  2  0
 14 15  1  0
 15 16  1  0
 16 17  1  0
 16 18  2  0
 16 19  2  0
 15 20  2  0
  7 21  1  0
 21 22  1  0
 21 23  1  0
 23 24  1  0
  4 25  1  0
 25 26  2  0
 25 27  1  0
 27 28  1  0
 28 29  2  3
 28  2  1  0
 23  5  1  0
 20 11  1  0
  1 30  1  0
  1 31  1  0
  1 32  1  0
  3 33  1  0
  5 34  1  6
  7 35  1  1
 10 36  1  0
 12 37  1  0
 13 38  1  0
 14 39  1  0
 17 40  1  0
 17 41  1  0
 20 42  1  0
 21 43  1  6
 22 44  1  0
 23 45  1  1
 27 46  1  0
 29 47  1  0
M  END
>  <smiles>  (98) 
Cc1cn(C2OC(C(=O)Nc3cccc(S(N)(=O)=O)c3)C(O)C2F)c(=O)[nH]c1=N

>  <score_type>  (98) 
oracle

>  <origin>  (98) 
adg

>  <m_score__min__energy>  (98) 
-9.6799999999999997

>  <m_primary>  (98) 
energy

$$$$
