0:0
     RDKit          3D

 75 80  0  0  0  0  0  0  0  0999 V2000
   65.7890   32.7210   49.9750 C   0  0  0  0  0  0  0  0  0  0  0  0
   64.7110   31.7190   50.2760 C   0  0  0  0  0  0  0  0  0  0  0  0
   64.8820   30.7750   51.2150 N   0  0  0  0  0  0  0  0  0  0  0  0
   63.6990   30.2430   51.4490 N   0  0  0  0  0  0  0  0  0  0  0  0
   62.8060   30.8680   50.6540 C   0  0  0  0  0  0  0  0  0  0  0  0
   61.3270   30.6640   50.8490 C   0  0  0  0  0  0  0  0  0  0  0  0
   60.9260   29.8840   52.0990 C   0  0  0  0  0  0  0  0  0  0  0  0
   60.8480   29.2230   50.7390 C   0  0  0  0  0  0  0  0  0  0  0  0
   63.4150   31.8040   49.8650 N   0  0  0  0  0  0  0  0  0  0  0  0
   62.9190   32.8520   48.9330 C   0  0  2  0  0  0  0  0  0  0  0  0
   61.4360   33.2760   49.0090 C   0  0  0  0  0  0  0  0  0  0  0  0
   60.9940   33.1160   47.5400 C   0  0  1  0  0  0  0  0  0  0  0  0
   61.6650   34.2170   46.7000 C   0  0  0  0  0  0  0  0  0  0  0  0
   63.1040   33.6830   46.5860 C   0  0  0  0  0  0  0  0  0  0  0  0
   63.0140   32.4070   47.4370 C   0  0  2  0  0  0  0  0  0  0  0  0
   61.6890   31.9300   47.0620 N   0  0  0  0  0  0  0  0  0  0  0  0
   61.2830   30.6460   47.6770 C   0  0  0  0  0  0  0  0  0  0  0  0
   59.7580   30.5900   47.8350 C   0  0  0  0  0  0  0  0  0  0  0  0
   59.0050   30.4300   46.4980 C   0  0  1  0  0  0  0  0  0  0  0  0
   57.8770   29.5240   46.6870 N   0  0  0  0  0  0  0  0  0  0  0  0
   57.0310   29.0950   45.6160 C   0  0  0  0  0  0  0  0  0  0  0  0
   56.3740   29.9400   44.9470 O   0  0  0  0  0  0  0  0  0  0  0  0
   56.9600   27.6390   45.2720 C   0  0  0  0  0  0  0  0  0  0  0  0
   55.8160   27.0000   45.9150 N   0  0  0  0  0  0  0  0  0  0  0  0
   55.4980   25.6070   45.7780 C   0  0  0  0  0  0  0  0  0  0  0  0
   54.3100   25.2160   45.9500 O   0  0  0  0  0  0  0  0  0  0  0  0
   56.5530   24.6330   45.4140 C   0  0  0  0  0  0  0  0  0  0  0  0
   57.8380   24.7280   45.9750 C   0  0  0  0  0  0  0  0  0  0  0  0
   58.8330   23.8130   45.6260 C   0  0  0  0  0  0  0  0  0  0  0  0
   58.5560   22.7840   44.7250 C   0  0  0  0  0  0  0  0  0  0  0  0
   57.2710   22.6500   44.1730 C   0  0  0  0  0  0  0  0  0  0  0  0
   56.9870   21.5580   43.1710 C   0  0  0  0  0  0  0  0  0  0  0  0
   56.1850   22.0630   42.1640 F   0  0  0  0  0  0  0  0  0  0  0  0
   56.3360   20.4950   43.7760 F   0  0  0  0  0  0  0  0  0  0  0  0
   58.1650   21.0850   42.6200 F   0  0  0  0  0  0  0  0  0  0  0  0
   56.2830   23.5960   44.5010 C   0  0  0  0  0  0  0  0  0  0  0  0
   58.4910   31.7490   45.9480 C   0  0  0  0  0  0  0  0  0  0  0  0
   58.5260   31.9970   44.5640 C   0  0  0  0  0  0  0  0  0  0  0  0
   58.0580   33.2100   44.0480 C   0  0  0  0  0  0  0  0  0  0  0  0
   57.5400   34.1810   44.9080 C   0  0  0  0  0  0  0  0  0  0  0  0
   57.4690   33.9330   46.2800 C   0  0  0  0  0  0  0  0  0  0  0  0
   57.9330   32.7210   46.7990 C   0  0  0  0  0  0  0  0  0  0  0  0
   66.2043   33.1070   50.9176 H   0  0  0  0  0  0  0  0  0  0  0  0
   66.5875   32.2370   49.3935 H   0  0  0  0  0  0  0  0  0  0  0  0
   65.3645   33.5527   49.3935 H   0  0  0  0  0  0  0  0  0  0  0  0
   61.0327   31.6245   50.4008 H   0  0  0  0  0  0  0  0  0  0  0  0
   61.6943   29.5686   52.8203 H   0  0  0  0  0  0  0  0  0  0  0  0
   60.2182   30.0493   52.9247 H   0  0  0  0  0  0  0  0  0  0  0  0
   61.5592   28.4268   50.4740 H   0  0  0  0  0  0  0  0  0  0  0  0
   60.0588   28.7093   50.1705 H   0  0  0  0  0  0  0  0  0  0  0  0
   63.5718   33.6759   49.2570 H   0  0  0  0  0  0  0  0  0  0  0  0
   60.8627   32.6146   49.6753 H   0  0  0  0  0  0  0  0  0  0  0  0
   61.2788   34.2854   49.4170 H   0  0  0  0  0  0  0  0  0  0  0  0
   59.8963   33.1121   47.4685 H   0  0  0  0  0  0  0  0  0  0  0  0
   61.1923   34.3122   45.7113 H   0  0  0  0  0  0  0  0  0  0  0  0
   61.5937   35.2226   47.1400 H   0  0  0  0  0  0  0  0  0  0  0  0
   63.3683   33.4546   45.5429 H   0  0  0  0  0  0  0  0  0  0  0  0
   63.8774   34.3927   46.9149 H   0  0  0  0  0  0  0  0  0  0  0  0
   63.8402   31.6928   47.3051 H   0  0  0  0  0  0  0  0  0  0  0  0
   61.6120   29.8159   47.0346 H   0  0  0  0  0  0  0  0  0  0  0  0
   61.7489   30.5616   48.6699 H   0  0  0  0  0  0  0  0  0  0  0  0
   59.5062   29.7357   48.4805 H   0  0  0  0  0  0  0  0  0  0  0  0
   59.4429   31.5498   48.2703 H   0  0  0  0  0  0  0  0  0  0  0  0
   59.7223   30.0258   45.7685 H   0  0  0  0  0  0  0  0  0  0  0  0
   56.8645   27.5322   44.1814 H   0  0  0  0  0  0  0  0  0  0  0  0
   57.8784   27.1512   45.6304 H   0  0  0  0  0  0  0  0  0  0  0  0
   58.0615   25.5294   46.6946 H   0  0  0  0  0  0  0  0  0  0  0  0
   59.8386   23.9035   46.0626 H   0  0  0  0  0  0  0  0  0  0  0  0
   59.3482   22.0738   44.4454 H   0  0  0  0  0  0  0  0  0  0  0  0
   55.2875   23.5246   44.0386 H   0  0  0  0  0  0  0  0  0  0  0  0
   58.9244   31.2313   43.8822 H   0  0  0  0  0  0  0  0  0  0  0  0
   58.0979   33.3991   42.9651 H   0  0  0  0  0  0  0  0  0  0  0  0
   57.1878   35.1416   44.5041 H   0  0  0  0  0  0  0  0  0  0  0  0
   57.0470   34.6930   46.9540 H   0  0  0  0  0  0  0  0  0  0  0  0
   57.8616   32.5258   47.8792 H   0  0  0  0  0  0  0  0  0  0  0  0
  1  2  1  0
  2  3  2  0
  3  4  1  0
  4  5  2  0
  5  6  1  0
  6  7  1  0
  7  8  1  0
  5  9  1  0
  9 10  1  0
 10 11  1  0
 11 12  1  0
 12 13  1  0
 13 14  1  0
 14 15  1  0
 15 16  1  0
 16 17  1  0
 17 18  1  0
 18 19  1  0
 19 20  1  0
 20 21  1  0
 21 22  2  0
 21 23  1  0
 23 24  1  0
 24 25  1  0
 25 26  2  0
 25 27  1  0
 27 28  2  0
 28 29  1  0
 29 30  2  0
 30 31  1  0
 31 32  1  0
 32 33  1  0
 32 34  1  0
 32 35  1  0
 31 36  2  0
 19 37  1  0
 37 38  2  0
 38 39  1  0
 39 40  2  0
 40 41  1  0
 41 42  2  0
  9  2  1  0
 15 10  1  0
 36 27  1  0
 42 37  1  0
  8  6  1  0
 16 12  1  0
  1 43  1  0
  1 44  1  0
  1 45  1  0
  6 46  1  0
  7 47  1  0
  7 48  1  0
  8 49  1  0
  8 50  1  0
 10 51  1  6
 11 52  1  0
 11 53  1  0
 12 54  1  1
 13 55  1  0
 13 56  1  0
 14 57  1  0
 14 58  1  0
 15 59  1  1
 17 60  1  0
 17 61  1  0
 18 62  1  0
 18 63  1  0
 19 64  1  6
 23 65  1  0
 23 66  1  0
 28 67  1  0
 29 68  1  0
 30 69  1  0
 36 70  1  0
 38 71  1  0
 39 72  1  0
 40 73  1  0
 41 74  1  0
 42 75  1  0
M  CHG  2  20  -1  24  -1
M  END
>  <UniqueID>  (1) 
1

>  <SMILES>  (1) 
Cc1nnc(C2CC2)n1[C@@H]1C[C@H]2CCC1N2CCC([N-]C(=O)C[N-]C(=O)c1cccc(C(F)(F)F)c1)c1ccccc1

>  <Energy>  (1) 
417.67788308169776

>  <Genealogy>  (1) 
Cc1nnc(C2CC2)n1C1CC2CCC1N2CCC([N-]C(=O)C[N-]C(=O)c1cccc(C(F)(F)F)c1)c1ccccc1 (protonated)
Cc1nnc(C2CC2)n1[C@@H]1C[C@H]2CCC1N2CCC([N-]C(=O)C[N-]C(=O)c1cccc(C(F)(F)F)c1)c1ccccc1 (chirality)
Cc1nnc(C2CC2)n1[C@@H]1C[C@H]2CCC1N2CCC([N-]C(=O)C[N-]C(=O)c1cccc(C(F)(F)F)c1)c1ccccc1 (3D coordinates assigned)
Cc1nnc(C2CC2)n1[C@@H]1C[C@H]2CCC1N2CCC([N-]C(=O)C[N-]C(=O)c1cccc(C(F)(F)F)c1)c1ccccc1 (nonaromatic ring conformer: 417.67788308169776 kcal/mol)

>  <smiles>  (1) 
Cc1nnc(C2CC2)n1C1CC2CCC1N2CCC(NC(=O)CNC(=O)c1cccc(C(F)(F)F)c1)c1ccccc1

>  <score_type>  (1) 
oracle

>  <origin>  (1) 
adg

>  <m_score__min__energy>  (1) 
-13.880000000000001

>  <m_primary>  (1) 
energy

$$$$
1:0
     RDKit          3D

 55 56  0  0  0  0  0  0  0  0999 V2000
   61.5640   30.6340   48.2800 C   0  0  0  0  0  0  0  0  0  0  0  0
   62.6130   31.6420   47.7720 C   0  0  0  0  0  0  0  0  0  0  0  0
   62.3240   33.0850   48.0640 N   0  0  0  0  0  0  0  0  0  0  0  0
   62.5360   33.8270   46.7920 C   0  0  0  0  0  0  0  0  0  0  0  0
   63.2790   33.5990   49.0810 C   0  0  0  0  0  0  0  0  0  0  0  0
   60.9070   33.2340   48.5330 C   0  0  0  0  0  0  0  0  0  0  0  0
   60.0470   34.2760   47.7510 C   0  0  0  0  0  0  0  0  0  0  0  0
   59.2580   33.7540   46.5810 N   0  0  0  0  0  0  0  0  0  0  0  0
   59.6160   32.2990   46.3510 C   0  0  0  0  0  0  0  0  0  0  0  0
   58.5380   31.2140   46.6240 C   0  0  0  0  0  0  0  0  0  0  0  0
   58.0330   30.2470   45.2050 S   0  0  0  0  0  0  0  0  0  0  0  0
   58.8110   30.6580   43.9860 O   0  0  0  0  0  0  0  0  0  0  0  0
   56.5640   30.4250   44.9340 O   0  0  0  0  0  0  0  0  0  0  0  0
   58.3560   28.5510   45.5460 C   0  0  0  0  0  0  0  0  0  0  0  0
   59.6690   28.1210   45.7810 C   0  0  0  0  0  0  0  0  0  0  0  0
   59.9280   26.7760   46.0620 C   0  0  0  0  0  0  0  0  0  0  0  0
   58.8770   25.8560   46.1140 C   0  0  0  0  0  0  0  0  0  0  0  0
   57.5630   26.2820   45.8910 C   0  0  0  0  0  0  0  0  0  0  0  0
   57.3020   27.6260   45.6110 C   0  0  0  0  0  0  0  0  0  0  0  0
   57.8060   33.8160   46.8930 C   0  0  0  0  0  0  0  0  0  0  0  0
   57.0520   33.8960   45.5610 C   0  0  0  0  0  0  0  0  0  0  0  0
   58.1070   34.2310   44.5200 C   0  0  0  0  0  0  0  0  0  0  0  0
   59.3400   34.5690   45.3420 C   0  0  0  0  0  0  0  0  0  0  0  0
   61.5609   30.6310   49.3800 H   0  0  0  0  0  0  0  0  0  0  0  0
   60.5688   30.9233   47.9113 H   0  0  0  0  0  0  0  0  0  0  0  0
   61.8134   29.6281   47.9113 H   0  0  0  0  0  0  0  0  0  0  0  0
   63.5772   31.3896   48.2374 H   0  0  0  0  0  0  0  0  0  0  0  0
   62.6093   31.5515   46.6757 H   0  0  0  0  0  0  0  0  0  0  0  0
   62.8318   34.8624   47.0164 H   0  0  0  0  0  0  0  0  0  0  0  0
   63.3300   33.3369   46.2095 H   0  0  0  0  0  0  0  0  0  0  0  0
   61.6029   33.8303   46.2095 H   0  0  0  0  0  0  0  0  0  0  0  0
   62.8898   33.3895   50.0883 H   0  0  0  0  0  0  0  0  0  0  0  0
   64.2525   33.1030   48.9536 H   0  0  0  0  0  0  0  0  0  0  0  0
   63.4012   34.6847   48.9536 H   0  0  0  0  0  0  0  0  0  0  0  0
   60.4156   32.2539   48.4441 H   0  0  0  0  0  0  0  0  0  0  0  0
   60.9682   33.6069   49.5661 H   0  0  0  0  0  0  0  0  0  0  0  0
   59.3354   34.7222   48.4613 H   0  0  0  0  0  0  0  0  0  0  0  0
   60.7696   34.9852   47.3211 H   0  0  0  0  0  0  0  0  0  0  0  0
   59.9139   32.2015   45.2966 H   0  0  0  0  0  0  0  0  0  0  0  0
   60.3967   32.0943   47.0984 H   0  0  0  0  0  0  0  0  0  0  0  0
   58.9388   30.5219   47.3792 H   0  0  0  0  0  0  0  0  0  0  0  0
   57.6400   31.7591   46.9502 H   0  0  0  0  0  0  0  0  0  0  0  0
   60.4978   28.8433   45.7443 H   0  0  0  0  0  0  0  0  0  0  0  0
   60.9603   26.4415   46.2424 H   0  0  0  0  0  0  0  0  0  0  0  0
   59.0829   24.7973   46.3302 H   0  0  0  0  0  0  0  0  0  0  0  0
   56.7353   25.5589   45.9361 H   0  0  0  0  0  0  0  0  0  0  0  0
   56.2678   27.9601   45.4411 H   0  0  0  0  0  0  0  0  0  0  0  0
   57.5012   32.9138   47.4436 H   0  0  0  0  0  0  0  0  0  0  0  0
   57.5811   34.6922   47.5189 H   0  0  0  0  0  0  0  0  0  0  0  0
   56.5757   32.9318   45.3298 H   0  0  0  0  0  0  0  0  0  0  0  0
   56.2509   34.6493   45.5889 H   0  0  0  0  0  0  0  0  0  0  0  0
   58.2981   33.3681   43.8652 H   0  0  0  0  0  0  0  0  0  0  0  0
   57.8014   35.0538   43.8570 H   0  0  0  0  0  0  0  0  0  0  0  0
   60.2517   34.3164   44.7808 H   0  0  0  0  0  0  0  0  0  0  0  0
   59.3804   35.6433   45.5748 H   0  0  0  0  0  0  0  0  0  0  0  0
  1  2  1  0
  2  3  1  0
  3  4  1  0
  3  5  1  0
  3  6  1  0
  6  7  1  0
  7  8  1  0
  8  9  1  0
  9 10  1  0
 10 11  1  0
 11 12  2  0
 11 13  2  0
 11 14  1  0
 14 15  2  0
 15 16  1  0
 16 17  2  0
 17 18  1  0
 18 19  2  0
  8 20  1  0
 20 21  1  0
 21 22  1  0
 22 23  1  0
 23  8  1  0
 19 14  1  0
  1 24  1  0
  1 25  1  0
  1 26  1  0
  2 27  1  0
  2 28  1  0
  4 29  1  0
  4 30  1  0
  4 31  1  0
  5 32  1  0
  5 33  1  0
  5 34  1  0
  6 35  1  0
  6 36  1  0
  7 37  1  0
  7 38  1  0
  9 39  1  0
  9 40  1  0
 10 41  1  0
 10 42  1  0
 15 43  1  0
 16 44  1  0
 17 45  1  0
 18 46  1  0
 19 47  1  0
 20 48  1  0
 20 49  1  0
 21 50  1  0
 21 51  1  0
 22 52  1  0
 22 53  1  0
 23 54  1  0
 23 55  1  0
M  CHG  2   3   1   8   1
M  END
>  <UniqueID>  (2) 
2

>  <SMILES>  (2) 
CC[N+](C)(C)CC[N+]1(CCS(=O)(=O)c2ccccc2)CCCC1

>  <Energy>  (2) 
87.39397322974456

>  <Genealogy>  (2) 
CC[N+](C)(C)CC[N+]1(CCS(=O)(=O)c2ccccc2)CCCC1 (3D coordinates assigned)
CC[N+](C)(C)CC[N+]1(CCS(=O)(=O)c2ccccc2)CCCC1 (nonaromatic ring conformer: 87.39397322974456 kcal/mol)

>  <smiles>  (2) 
CC[N+](C)(C)CC[N+]1(CCS(=O)(=O)c2ccccc2)CCCC1

>  <score_type>  (2) 
oracle

>  <origin>  (2) 
adg

>  <m_score__min__energy>  (2) 
-4.8600000000000003

>  <m_primary>  (2) 
energy

$$$$
2:0
     RDKit          3D

 39 41  0  0  0  0  0  0  0  0999 V2000
   60.0119   34.3782   43.9465 H   0  0  0  0  0  0  0  0  0  0  0  0
   59.2620   34.0560   44.6840 C   0  0  0  0  0  0  0  0  0  0  0  0
   58.3860   33.0650   44.3720 N   0  0  0  0  0  0  0  0  0  0  0  0
   57.4460   32.6220   45.2520 C   0  0  0  0  0  0  0  0  0  0  0  0
   56.6380   31.6730   44.8730 N   0  0  0  0  0  0  0  0  0  0  0  0
   57.0000   30.4640   44.1920 C   0  0  0  0  0  0  0  0  0  0  0  0
   55.8790   29.7680   43.2190 S   0  0  0  0  0  0  0  0  0  0  0  0
   58.3900   30.1170   44.0310 N   0  0  0  0  0  0  0  0  0  0  0  0
   58.5690   29.7720   43.0610 H   0  0  0  0  0  0  0  0  0  0  0  0
   58.9850   30.9660   44.1720 H   0  0  0  0  0  0  0  0  0  0  0  0
   58.7470   29.0860   44.9740 C   0  0  0  0  0  0  0  0  0  0  0  0
   60.0980   28.8150   45.2520 C   0  0  0  0  0  0  0  0  0  0  0  0
   60.8864   29.4135   44.7722 H   0  0  0  0  0  0  0  0  0  0  0  0
   60.4440   27.7890   46.1350 C   0  0  0  0  0  0  0  0  0  0  0  0
   61.5030   27.5872   46.3534 H   0  0  0  0  0  0  0  0  0  0  0  0
   59.4490   27.0190   46.7410 C   0  0  0  0  0  0  0  0  0  0  0  0
   59.7278   26.2081   47.4300 H   0  0  0  0  0  0  0  0  0  0  0  0
   58.0950   27.2750   46.4750 C   0  0  0  0  0  0  0  0  0  0  0  0
   57.0270   26.4080   47.0880 C   0  0  0  0  0  0  0  0  0  0  0  0
   56.1598   27.0314   47.3514 H   0  0  0  0  0  0  0  0  0  0  0  0
   57.4306   25.9254   47.9903 H   0  0  0  0  0  0  0  0  0  0  0  0
   56.6070   25.3690   46.1350 N   0  0  0  0  0  0  0  0  0  0  0  0
   55.3380   25.3630   45.6130 C   0  0  0  0  0  0  0  0  0  0  0  0
   54.4030   26.3200   45.9960 O   0  0  0  0  0  0  0  0  0  0  0  0
   54.9750   24.4140   44.7110 N   0  0  0  0  0  0  0  0  0  0  0  0
   55.8480   23.4620   44.3000 C   0  0  0  0  0  0  0  0  0  0  0  0
   55.4850   22.5940   43.4630 O   0  0  0  0  0  0  0  0  0  0  0  0
   57.1450   23.4490   44.8040 C   0  0  0  0  0  0  0  0  0  0  0  0
   57.8672   22.6855   44.4793 H   0  0  0  0  0  0  0  0  0  0  0  0
   57.5080   24.4260   45.7300 C   0  0  0  0  0  0  0  0  0  0  0  0
   58.5294   24.4374   46.1381 H   0  0  0  0  0  0  0  0  0  0  0  0
   57.7500   28.3050   45.5860 C   0  0  0  0  0  0  0  0  0  0  0  0
   56.6906   28.5032   45.3660 H   0  0  0  0  0  0  0  0  0  0  0  0
   57.3570   33.2310   46.5220 C   0  0  0  0  0  0  0  0  0  0  0  0
   56.5909   32.9051   47.2409 H   0  0  0  0  0  0  0  0  0  0  0  0
   58.2490   34.2500   46.8580 C   0  0  0  0  0  0  0  0  0  0  0  0
   58.1932   34.7259   47.8481 H   0  0  0  0  0  0  0  0  0  0  0  0
   59.2120   34.6650   45.9370 C   0  0  0  0  0  0  0  0  0  0  0  0
   59.9231   35.4631   46.1967 H   0  0  0  0  0  0  0  0  0  0  0  0
  1  2  1  0
  2  3  1  0
  3  4  1  0
  4  5  2  0
  5  6  1  0
  6  7  2  0
  6  8  1  0
  8  9  1  0
  8 10  1  0
  8 11  1  0
 11 12  2  0
 12 13  1  0
 12 14  1  0
 14 15  1  0
 14 16  2  0
 16 17  1  0
 16 18  1  0
 18 19  1  0
 19 20  1  0
 19 21  1  0
 19 22  1  0
 22 23  1  0
 23 24  1  0
 23 25  2  0
 25 26  1  0
 26 27  2  0
 26 28  1  0
 28 29  1  0
 28 30  2  0
 30 31  1  0
 18 32  2  0
 32 33  1  0
  4 34  1  0
 34 35  1  0
 34 36  2  0
 36 37  1  0
 36 38  1  0
 38 39  1  0
 38  2  2  0
 32 11  1  0
 30 22  1  0
M  CHG  3   3  -1   8   1  24  -1
M  END
>  <UniqueID>  (3) 
3

>  <SMILES>  (3) 
O=c1ccn(Cc2cccc([NH2+]C(=S)/N=c3\cccc[n-]3)c2)c([O-])n1

>  <Energy>  (3) 
53.32485899931994

>  <Genealogy>  (3) 
O=c1ccn(Cc2cccc([NH2+]C(=S)N=c3cccc[n-]3)c2)c([O-])n1 (protonated)
O=c1ccn(Cc2cccc([NH2+]C(=S)/N=c3\cccc[n-]3)c2)c([O-])n1 (cis-trans isomerization)
O=c1ccn(Cc2cccc([NH2+]C(=S)/N=c3\cccc[n-]3)c2)c([O-])n1 (3D coordinates assigned)
O=c1ccn(Cc2cccc([NH2+]C(=S)/N=c3\cccc[n-]3)c2)c([O-])n1 (optimized conformer: 53.32485899931994 kcal/mol)

>  <smiles>  (3) 
O=c1ccn(Cc2cccc(NC(=S)N=c3cccc[nH]3)c2)c(O)n1

>  <score_type>  (3) 
oracle

>  <origin>  (3) 
adg

>  <m_score__min__energy>  (3) 
-12.25

>  <m_primary>  (3) 
energy

$$$$
3:0
     RDKit          3D

 60 63  0  0  0  0  0  0  0  0999 V2000
   56.6430   22.3610   42.9670 C   0  0  0  0  0  0  0  0  0  0  0  0
   56.8280   22.3320   44.4760 C   0  0  0  0  0  0  0  0  0  0  0  0
   55.6200   22.7380   45.1110 O   0  0  0  0  0  0  0  0  0  0  0  0
   55.4950   23.9480   45.8030 C   0  0  0  0  0  0  0  0  0  0  0  0
   54.3900   24.2680   46.3200 O   0  0  0  0  0  0  0  0  0  0  0  0
   56.6650   24.8460   45.9290 C   0  0  0  0  0  0  0  0  0  0  0  0
   57.6530   24.5880   46.8890 C   0  0  0  0  0  0  0  0  0  0  0  0
   58.7410   25.4490   47.0330 C   0  0  0  0  0  0  0  0  0  0  0  0
   58.8770   26.5840   46.2160 C   0  0  0  0  0  0  0  0  0  0  0  0
   59.9410   27.5180   46.4870 N   0  0  0  0  0  0  0  0  0  0  0  0
   60.4020   27.7200   47.8670 C   0  0  0  0  0  0  0  0  0  0  0  0
   60.0800   29.1470   48.3100 C   0  0  0  0  0  0  0  0  0  0  0  0
   60.5110   30.1290   47.3020 N   0  0  0  0  0  0  0  0  0  0  0  0
   60.4790   31.5340   47.6230 C   0  0  0  0  0  0  0  0  0  0  0  0
   61.0610   32.4800   46.7580 C   0  0  0  0  0  0  0  0  0  0  0  0
   61.0220   33.8440   47.0710 C   0  0  0  0  0  0  0  0  0  0  0  0
   60.4160   34.2720   48.2560 C   0  0  0  0  0  0  0  0  0  0  0  0
   59.8510   33.3390   49.1300 C   0  0  0  0  0  0  0  0  0  0  0  0
   59.8830   31.9780   48.8200 C   0  0  0  0  0  0  0  0  0  0  0  0
   61.1110   29.6730   46.0370 C   0  0  0  0  0  0  0  0  0  0  0  0
   60.3060   28.5030   45.4530 C   0  0  0  0  0  0  0  0  0  0  0  0
   57.9050   26.8270   45.2140 C   0  0  0  0  0  0  0  0  0  0  0  0
   57.9740   27.9530   44.3270 N   0  0  0  0  0  0  0  0  0  0  0  0
   57.4840   29.2700   44.5920 C   0  0  0  0  0  0  0  0  0  0  0  0
   56.3690   29.3990   45.1640 O   0  0  0  0  0  0  0  0  0  0  0  0
   58.2120   30.4320   44.1630 N   0  0  0  0  0  0  0  0  0  0  0  0
   58.0210   31.7380   44.7310 C   0  0  0  0  0  0  0  0  0  0  0  0
   57.9970   32.8860   43.9170 C   0  0  0  0  0  0  0  0  0  0  0  0
   57.7750   34.1460   44.4810 C   0  0  0  0  0  0  0  0  0  0  0  0
   57.5580   34.2710   45.8550 C   0  0  0  0  0  0  0  0  0  0  0  0
   57.5560   33.1360   46.6660 C   0  0  0  0  0  0  0  0  0  0  0  0
   57.7830   31.8720   46.1100 C   0  0  0  0  0  0  0  0  0  0  0  0
   57.7800   30.7830   46.9190 F   0  0  0  0  0  0  0  0  0  0  0  0
   56.8010   25.9720   45.0990 C   0  0  0  0  0  0  0  0  0  0  0  0
   55.5816   22.5274   42.7308 H   0  0  0  0  0  0  0  0  0  0  0  0
   57.2459   23.1756   42.5393 H   0  0  0  0  0  0  0  0  0  0  0  0
   56.9677   21.4010   42.5393 H   0  0  0  0  0  0  0  0  0  0  0  0
   57.0840   21.3107   44.7943 H   0  0  0  0  0  0  0  0  0  0  0  0
   57.6393   23.0189   44.7588 H   0  0  0  0  0  0  0  0  0  0  0  0
   57.5699   23.7004   47.5334 H   0  0  0  0  0  0  0  0  0  0  0  0
   59.5033   25.2364   47.7970 H   0  0  0  0  0  0  0  0  0  0  0  0
   59.8928   27.0064   48.5315 H   0  0  0  0  0  0  0  0  0  0  0  0
   61.4888   27.5578   47.9171 H   0  0  0  0  0  0  0  0  0  0  0  0
   58.9941   29.2396   48.4594 H   0  0  0  0  0  0  0  0  0  0  0  0
   60.6199   29.3504   49.2465 H   0  0  0  0  0  0  0  0  0  0  0  0
   61.5492   32.1455   45.8308 H   0  0  0  0  0  0  0  0  0  0  0  0
   61.4681   34.5789   46.3847 H   0  0  0  0  0  0  0  0  0  0  0  0
   60.3838   35.3439   48.5007 H   0  0  0  0  0  0  0  0  0  0  0  0
   59.3799   33.6779   50.0645 H   0  0  0  0  0  0  0  0  0  0  0  0
   59.4405   31.2484   49.5141 H   0  0  0  0  0  0  0  0  0  0  0  0
   61.1151   30.5049   45.3173 H   0  0  0  0  0  0  0  0  0  0  0  0
   62.1399   29.3359   46.2315 H   0  0  0  0  0  0  0  0  0  0  0  0
   59.3861   28.8969   44.9963 H   0  0  0  0  0  0  0  0  0  0  0  0
   60.9338   27.9963   44.7053 H   0  0  0  0  0  0  0  0  0  0  0  0
   58.8910   30.3240   43.3770 H   0  0  0  0  0  0  0  0  0  0  0  0
   58.1536   32.7915   42.8323 H   0  0  0  0  0  0  0  0  0  0  0  0
   57.7713   35.0408   43.8412 H   0  0  0  0  0  0  0  0  0  0  0  0
   57.3888   35.2638   46.2974 H   0  0  0  0  0  0  0  0  0  0  0  0
   57.3753   33.2349   47.7465 H   0  0  0  0  0  0  0  0  0  0  0  0
   56.0277   26.1856   44.3464 H   0  0  0  0  0  0  0  0  0  0  0  0
  1  2  1  0
  2  3  1  0
  3  4  1  0
  4  5  2  0
  4  6  1  0
  6  7  2  0
  7  8  1  0
  8  9  2  0
  9 10  1  0
 10 11  1  0
 11 12  1  0
 12 13  1  0
 13 14  1  0
 14 15  2  0
 15 16  1  0
 16 17  2  0
 17 18  1  0
 18 19  2  0
 13 20  1  0
 20 21  1  0
  9 22  1  0
 22 23  1  0
 23 24  1  0
 24 25  2  0
 24 26  1  0
 26 27  1  0
 27 28  2  0
 28 29  1  0
 29 30  2  0
 30 31  1  0
 31 32  2  0
 32 33  1  0
 22 34  2  0
 34  6  1  0
 21 10  1  0
 32 27  1  0
 19 14  1  0
  1 35  1  0
  1 36  1  0
  1 37  1  0
  2 38  1  0
  2 39  1  0
  7 40  1  0
  8 41  1  0
 11 42  1  0
 11 43  1  0
 12 44  1  0
 12 45  1  0
 15 46  1  0
 16 47  1  0
 17 48  1  0
 18 49  1  0
 19 50  1  0
 20 51  1  0
 20 52  1  0
 21 53  1  0
 21 54  1  0
 26 55  1  0
 28 56  1  0
 29 57  1  0
 30 58  1  0
 31 59  1  0
 34 60  1  0
M  CHG  1  23  -1
M  END
>  <UniqueID>  (4) 
4

>  <SMILES>  (4) 
CCOC(=O)c1ccc(N2CCN(c3ccccc3)CC2)c([N-]C(=O)Nc2ccccc2F)c1

>  <Energy>  (4) 
75.19159920829819

>  <Genealogy>  (4) 
CCOC(=O)c1ccc(N2CCN(c3ccccc3)CC2)c([N-]C(=O)Nc2ccccc2F)c1 (protonated)
CCOC(=O)c1ccc(N2CCN(c3ccccc3)CC2)c([N-]C(=O)Nc2ccccc2F)c1 (3D coordinates assigned)
CCOC(=O)c1ccc(N2CCN(c3ccccc3)CC2)c([N-]C(=O)Nc2ccccc2F)c1 (nonaromatic ring conformer: 75.19159920829819 kcal/mol)

>  <smiles>  (4) 
CCOC(=O)c1ccc(N2CCN(c3ccccc3)CC2)c(NC(=O)Nc2ccccc2F)c1

>  <score_type>  (4) 
oracle

>  <origin>  (4) 
adg

>  <m_score__min__energy>  (4) 
-9.5600000000000005

>  <m_primary>  (4) 
energy

$$$$
4:0
     RDKit          3D

 49 52  0  0  0  0  0  0  0  0999 V2000
   51.0240   32.5310   51.5800 N   0  0  0  0  0  0  0  0  0  0  0  0
   52.1530   31.6710   51.7250 C   0  0  0  0  0  0  0  0  0  0  0  0
   53.2550   32.0120   51.2160 O   0  0  0  0  0  0  0  0  0  0  0  0
   52.0530   30.4150   52.5030 C   0  0  0  0  0  0  0  0  0  0  0  0
   50.7730   29.9190   52.8170 C   0  0  0  0  0  0  0  0  0  0  0  0
   50.6230   28.6830   53.4500 C   0  0  0  0  0  0  0  0  0  0  0  0
   51.7460   27.9230   53.7740 C   0  0  0  0  0  0  0  0  0  0  0  0
   53.0240   28.4080   53.4920 C   0  0  0  0  0  0  0  0  0  0  0  0
   53.1940   29.6620   52.8890 C   0  0  0  0  0  0  0  0  0  0  0  0
   54.5330   30.1460   52.7160 N   0  0  0  0  0  0  0  0  0  0  0  0
   55.7030   29.3820   53.0240 C   0  0  0  0  0  0  0  0  0  0  0  0
   55.7590   28.7570   54.1150 O   0  0  0  0  0  0  0  0  0  0  0  0
   56.8170   29.3820   52.1230 N   0  0  0  0  0  0  0  0  0  0  0  0
   57.4960   30.5280   51.5920 C   0  0  0  0  0  0  0  0  0  0  0  0
   57.4840   31.7750   52.2430 C   0  0  0  0  0  0  0  0  0  0  0  0
   58.2130   32.8450   51.7200 C   0  0  0  0  0  0  0  0  0  0  0  0
   58.9810   32.6770   50.5660 C   0  0  0  0  0  0  0  0  0  0  0  0
   59.0270   31.4310   49.9230 C   0  0  0  0  0  0  0  0  0  0  0  0
   59.9110   31.2340   48.7180 C   0  0  0  0  0  0  0  0  0  0  0  0
   59.1060   31.3240   47.4460 C   0  0  0  0  0  0  0  0  0  0  0  0
   58.4100   30.2250   47.0480 N   0  0  0  0  0  0  0  0  0  0  0  0
   57.6180   30.2390   45.9780 N   0  0  0  0  0  0  0  0  0  0  0  0
   57.4520   31.3560   45.2280 C   0  0  0  0  0  0  0  0  0  0  0  0
   56.6770   31.3270   44.2360 O   0  0  0  0  0  0  0  0  0  0  0  0
   58.1430   32.5290   45.5670 C   0  0  0  0  0  0  0  0  0  0  0  0
   58.9780   32.5180   46.7040 C   0  0  0  0  0  0  0  0  0  0  0  0
   59.6990   33.7110   47.0600 N   0  0  0  0  0  0  0  0  0  0  0  0
   59.3500   35.0000   46.4710 C   0  0  0  0  0  0  0  0  0  0  0  0
   59.0590   34.8200   44.9830 C   0  0  0  0  0  0  0  0  0  0  0  0
   57.9260   33.8060   44.7810 C   0  0  0  0  0  0  0  0  0  0  0  0
   58.2720   30.3640   50.4380 C   0  0  0  0  0  0  0  0  0  0  0  0
   50.2810   32.3270   50.8770 H   0  0  0  0  0  0  0  0  0  0  0  0
   49.8820   30.5111   52.5611 H   0  0  0  0  0  0  0  0  0  0  0  0
   49.6176   28.3088   53.6932 H   0  0  0  0  0  0  0  0  0  0  0  0
   51.6247   26.9400   54.2524 H   0  0  0  0  0  0  0  0  0  0  0  0
   53.9056   27.8008   53.7452 H   0  0  0  0  0  0  0  0  0  0  0  0
   56.8995   31.9074   53.1654 H   0  0  0  0  0  0  0  0  0  0  0  0
   58.1821   33.8246   52.2193 H   0  0  0  0  0  0  0  0  0  0  0  0
   59.5521   33.5248   50.1596 H   0  0  0  0  0  0  0  0  0  0  0  0
   60.6883   32.0123   48.7093 H   0  0  0  0  0  0  0  0  0  0  0  0
   60.3706   30.2363   48.7758 H   0  0  0  0  0  0  0  0  0  0  0  0
   60.5560   33.6620   47.6520 H   0  0  0  0  0  0  0  0  0  0  0  0
   58.4576   35.4024   46.9727 H   0  0  0  0  0  0  0  0  0  0  0  0
   60.1896   35.6993   46.5975 H   0  0  0  0  0  0  0  0  0  0  0  0
   58.7615   35.7873   44.5518 H   0  0  0  0  0  0  0  0  0  0  0  0
   59.9656   34.4477   44.4836 H   0  0  0  0  0  0  0  0  0  0  0  0
   56.9804   34.2642   45.1065 H   0  0  0  0  0  0  0  0  0  0  0  0
   57.9009   33.5412   43.7136 H   0  0  0  0  0  0  0  0  0  0  0  0
   58.2907   29.3890   49.9291 H   0  0  0  0  0  0  0  0  0  0  0  0
  1  2  1  0
  2  3  2  0
  2  4  1  0
  4  5  2  0
  5  6  1  0
  6  7  2  0
  7  8  1  0
  8  9  2  0
  9 10  1  0
 10 11  1  0
 11 12  2  0
 11 13  1  0
 13 14  1  0
 14 15  2  0
 15 16  1  0
 16 17  2  0
 17 18  1  0
 18 19  1  0
 19 20  1  0
 20 21  2  0
 21 22  1  0
 22 23  1  0
 23 24  2  0
 23 25  1  0
 25 26  2  0
 26 27  1  0
 27 28  1  0
 28 29  1  0
 29 30  1  0
 18 31  2  0
  9  4  1  0
 31 14  1  0
 26 20  1  0
 30 25  1  0
  1 32  1  0
  5 33  1  0
  6 34  1  0
  7 35  1  0
  8 36  1  0
 15 37  1  0
 16 38  1  0
 17 39  1  0
 19 40  1  0
 19 41  1  0
 27 42  1  0
 28 43  1  0
 28 44  1  0
 29 45  1  0
 29 46  1  0
 30 47  1  0
 30 48  1  0
 31 49  1  0
M  CHG  4   1  -1  10  -1  13  -1  22  -1
M  END
>  <UniqueID>  (5) 
5

>  <SMILES>  (5) 
[NH-]C(=O)c1ccccc1[N-]C(=O)[N-]c1cccc(Cc2n[n-]c(=O)c3c2NCCC3)c1

>  <Energy>  (5) 
65.74140047405126

>  <Genealogy>  (5) 
[NH-]C(=O)c1ccccc1[N-]C(=O)[N-]c1cccc(Cc2n[n-]c(=O)c3c2NCCC3)c1 (protonated)
[NH-]C(=O)c1ccccc1[N-]C(=O)[N-]c1cccc(Cc2n[n-]c(=O)c3c2NCCC3)c1 (3D coordinates assigned)
[NH-]C(=O)c1ccccc1[N-]C(=O)[N-]c1cccc(Cc2n[n-]c(=O)c3c2NCCC3)c1 (nonaromatic ring conformer: 65.74140047405126 kcal/mol)

>  <smiles>  (5) 
NC(=O)c1ccccc1NC(=O)Nc1cccc(Cc2n[nH]c(=O)c3c2NCCC3)c1

>  <score_type>  (5) 
oracle

>  <origin>  (5) 
adg

>  <m_score__min__energy>  (5) 
-16.07

>  <m_primary>  (5) 
energy

$$$$
5:0
     RDKit          3D

 46 48  0  0  0  0  0  0  0  0999 V2000
   57.7270   32.8860   43.4450 C   0  0  0  0  0  0  0  0  0  0  0  0
   58.2780   33.1850   44.8060 C   0  0  0  0  0  0  0  0  0  0  0  0
   59.4930   33.8760   44.9410 C   0  0  0  0  0  0  0  0  0  0  0  0
   60.0120   34.1440   46.2100 C   0  0  0  0  0  0  0  0  0  0  0  0
   59.3410   33.7020   47.3560 C   0  0  0  0  0  0  0  0  0  0  0  0
   59.9910   34.0890   48.9460 S   0  0  0  0  0  0  0  0  0  0  0  0
   61.4610   34.3900   48.8750 O   0  0  0  0  0  0  0  0  0  0  0  0
   59.2780   35.3000   49.4790 O   0  0  0  0  0  0  0  0  0  0  0  0
   59.7190   32.7500   50.0140 N   0  0  0  0  0  0  0  0  0  0  0  0
   59.8910   31.3720   49.6620 C   0  0  0  0  0  0  0  0  0  0  0  0
   58.7830   30.6530   49.2020 C   0  0  0  0  0  0  0  0  0  0  0  0
   58.9130   29.3150   48.8210 C   0  0  0  0  0  0  0  0  0  0  0  0
   60.1620   28.6730   48.8970 C   0  0  0  0  0  0  0  0  0  0  0  0
   60.3240   27.2660   48.4620 C   0  0  0  0  0  0  0  0  0  0  0  0
   60.1710   26.3420   49.3040 O   0  0  0  0  0  0  0  0  0  0  0  0
   60.6170   26.8930   47.0610 C   0  0  0  0  0  0  0  0  0  0  0  0
   60.3080   27.6270   45.9790 C   0  0  0  0  0  0  0  0  0  0  0  0
   58.9530   28.1090   45.6300 C   0  0  0  0  0  0  0  0  0  0  0  0
   58.8060   29.3930   45.0850 C   0  0  0  0  0  0  0  0  0  0  0  0
   57.5370   29.8820   44.7610 C   0  0  0  0  0  0  0  0  0  0  0  0
   56.3990   29.1000   44.9950 C   0  0  0  0  0  0  0  0  0  0  0  0
   55.1320   29.5850   44.6830 O   0  0  0  0  0  0  0  0  0  0  0  0
   56.5360   27.8240   45.5570 C   0  0  0  0  0  0  0  0  0  0  0  0
   55.4130   27.0410   45.7930 O   0  0  0  0  0  0  0  0  0  0  0  0
   57.8050   27.3370   45.8880 C   0  0  0  0  0  0  0  0  0  0  0  0
   61.2650   29.3850   49.3920 C   0  0  0  0  0  0  0  0  0  0  0  0
   61.1350   30.7250   49.7640 C   0  0  0  0  0  0  0  0  0  0  0  0
   58.1440   32.9840   47.2230 C   0  0  0  0  0  0  0  0  0  0  0  0
   57.6170   32.7260   45.9540 C   0  0  0  0  0  0  0  0  0  0  0  0
   56.7643   32.3636   43.5459 H   0  0  0  0  0  0  0  0  0  0  0  0
   57.5778   33.8269   42.8950 H   0  0  0  0  0  0  0  0  0  0  0  0
   58.4345   32.2481   42.8950 H   0  0  0  0  0  0  0  0  0  0  0  0
   60.0378   34.2073   44.0447 H   0  0  0  0  0  0  0  0  0  0  0  0
   60.9528   34.7053   46.3091 H   0  0  0  0  0  0  0  0  0  0  0  0
   57.8011   31.1450   49.1397 H   0  0  0  0  0  0  0  0  0  0  0  0
   58.0340   28.7610   48.4598 H   0  0  0  0  0  0  0  0  0  0  0  0
   61.1305   25.9352   46.8909 H   0  0  0  0  0  0  0  0  0  0  0  0
   61.1293   27.8913   45.2967 H   0  0  0  0  0  0  0  0  0  0  0  0
   59.6940   30.0186   44.9116 H   0  0  0  0  0  0  0  0  0  0  0  0
   57.4320   30.8846   44.3207 H   0  0  0  0  0  0  0  0  0  0  0  0
   54.3370   28.9640   44.5780 H   0  0  0  0  0  0  0  0  0  0  0  0
   57.9061   26.3450   46.3526 H   0  0  0  0  0  0  0  0  0  0  0  0
   62.2396   28.8841   49.4878 H   0  0  0  0  0  0  0  0  0  0  0  0
   62.0099   31.2766   50.1385 H   0  0  0  0  0  0  0  0  0  0  0  0
   57.6183   32.6229   48.1192 H   0  0  0  0  0  0  0  0  0  0  0  0
   56.6789   32.1600   45.8558 H   0  0  0  0  0  0  0  0  0  0  0  0
  1  2  1  0
  2  3  2  0
  3  4  1  0
  4  5  2  0
  5  6  1  0
  6  7  2  0
  6  8  2  0
  6  9  1  0
  9 10  1  0
 10 11  2  0
 11 12  1  0
 12 13  2  0
 13 14  1  0
 14 15  2  0
 14 16  1  0
 16 17  2  3
 17 18  1  0
 18 19  2  0
 19 20  1  0
 20 21  2  0
 21 22  1  0
 21 23  1  0
 23 24  1  0
 23 25  2  0
 13 26  1  0
 26 27  2  0
  5 28  1  0
 28 29  2  0
 29  2  1  0
 27 10  1  0
 25 18  1  0
  1 30  1  0
  1 31  1  0
  1 32  1  0
  3 33  1  0
  4 34  1  0
 11 35  1  0
 12 36  1  0
 16 37  1  0
 17 38  1  0
 19 39  1  0
 20 40  1  0
 22 41  1  0
 25 42  1  0
 26 43  1  0
 27 44  1  0
 28 45  1  0
 29 46  1  0
M  CHG  2   9  -1  24  -1
M  END
>  <UniqueID>  (6) 
6

>  <SMILES>  (6) 
Cc1ccc(S(=O)(=O)[N-]c2ccc(C(=O)C=Cc3ccc(O)c([O-])c3)cc2)cc1

>  <Energy>  (6) 
58.55693416008645

>  <Genealogy>  (6) 
Cc1ccc(S(=O)(=O)[N-]c2ccc(C(=O)C=Cc3ccc(O)c([O-])c3)cc2)cc1 (protonated)
Cc1ccc(S(=O)(=O)[N-]c2ccc(C(=O)C=Cc3ccc(O)c([O-])c3)cc2)cc1 (3D coordinates assigned)
Cc1ccc(S(=O)(=O)[N-]c2ccc(C(=O)C=Cc3ccc(O)c([O-])c3)cc2)cc1 (optimized conformer: 58.55693416008645 kcal/mol)

>  <smiles>  (6) 
Cc1ccc(S(=O)(=O)Nc2ccc(C(=O)C=Cc3ccc(O)c(O)c3)cc2)cc1

>  <score_type>  (6) 
oracle

>  <origin>  (6) 
adg

>  <m_score__min__energy>  (6) 
-13.9

>  <m_primary>  (6) 
energy

$$$$
6:0
     RDKit          3D

 49 51  0  0  0  0  0  0  0  0999 V2000
   57.7916   32.6028   41.7188 H   0  0  0  0  0  0  0  0  0  0  0  0
   57.7640   32.2900   42.7730 C   0  0  0  0  0  0  0  0  0  0  0  0
   57.1570   31.0820   43.1250 C   0  0  0  0  0  0  0  0  0  0  0  0
   56.7254   30.4376   42.3449 H   0  0  0  0  0  0  0  0  0  0  0  0
   57.0960   30.6880   44.4700 C   0  0  0  0  0  0  0  0  0  0  0  0
   56.4570   29.4080   44.8450 C   0  0  0  0  0  0  0  0  0  0  0  0
   55.2050   29.2940   44.7700 O   0  0  0  0  0  0  0  0  0  0  0  0
   57.2350   28.2710   45.2460 N   0  0  0  0  0  0  0  0  0  0  0  0
   58.0190   28.2460   46.2810 C   0  0  0  0  0  0  0  0  0  0  0  0
   58.1300   29.2700   47.1670 N   0  0  0  0  0  0  0  0  0  0  0  0
   58.9730   28.9370   48.1770 C   0  0  0  0  0  0  0  0  0  0  0  0
   59.3150   29.7870   49.2270 C   0  0  0  0  0  0  0  0  0  0  0  0
   58.8722   30.7912   49.3015 H   0  0  0  0  0  0  0  0  0  0  0  0
   60.2360   29.3380   50.1890 C   0  0  0  0  0  0  0  0  0  0  0  0
   60.5303   30.0039   51.0136 H   0  0  0  0  0  0  0  0  0  0  0  0
   60.7910   28.0320   50.1070 C   0  0  0  0  0  0  0  0  0  0  0  0
   61.7000   27.5440   51.0570 O   0  0  0  0  0  0  0  0  0  0  0  0
   61.5880   26.2790   51.6970 C   0  0  0  0  0  0  0  0  0  0  0  0
   61.6003   26.4178   52.7881 H   0  0  0  0  0  0  0  0  0  0  0  0
   60.6439   25.7996   51.3989 H   0  0  0  0  0  0  0  0  0  0  0  0
   62.4332   25.6412   51.3989 H   0  0  0  0  0  0  0  0  0  0  0  0
   60.4240   27.1900   49.0410 C   0  0  0  0  0  0  0  0  0  0  0  0
   60.8405   26.1753   48.9579 H   0  0  0  0  0  0  0  0  0  0  0  0
   59.5230   27.6680   48.0940 C   0  0  0  0  0  0  0  0  0  0  0  0
   58.9400   26.8960   46.7170 S   0  0  0  0  0  0  0  0  0  0  0  0
   57.6800   31.5050   45.4560 C   0  0  0  0  0  0  0  0  0  0  0  0
   57.6452   31.1971   46.5115 H   0  0  0  0  0  0  0  0  0  0  0  0
   58.3060   32.7090   45.1020 C   0  0  0  0  0  0  0  0  0  0  0  0
   59.1340   33.6710   46.3290 S   0  0  0  0  0  0  0  0  0  0  0  0
   58.1590   34.6160   46.9800 O   0  0  0  0  0  0  0  0  0  0  0  0
   60.1780   34.4900   45.6150 O   0  0  0  0  0  0  0  0  0  0  0  0
   59.8790   32.6580   47.5600 N   0  0  0  0  0  0  0  0  0  0  0  0
   59.3870   31.7330   47.5560 H   0  0  0  0  0  0  0  0  0  0  0  0
   59.7620   33.2810   48.9030 C   0  0  0  0  0  0  0  0  0  0  0  0
   59.4044   32.5206   49.6129 H   0  0  0  0  0  0  0  0  0  0  0  0
   59.0590   34.1226   48.8167 H   0  0  0  0  0  0  0  0  0  0  0  0
   61.0900   33.8420   49.4160 C   0  0  0  0  0  0  0  0  0  0  0  0
   61.0879   33.8411   50.5160 H   0  0  0  0  0  0  0  0  0  0  0  0
   61.9179   33.2167   49.0504 H   0  0  0  0  0  0  0  0  0  0  0  0
   61.2189   34.8714   49.0504 H   0  0  0  0  0  0  0  0  0  0  0  0
   61.3000   32.4360   47.2010 C   0  0  0  0  0  0  0  0  0  0  0  0
   61.4844   32.8780   46.2107 H   0  0  0  0  0  0  0  0  0  0  0  0
   61.9141   32.9076   47.9823 H   0  0  0  0  0  0  0  0  0  0  0  0
   61.6820   30.9490   47.1520 C   0  0  0  0  0  0  0  0  0  0  0  0
   61.7814   30.5620   48.1769 H   0  0  0  0  0  0  0  0  0  0  0  0
   60.8992   30.3866   46.6220 H   0  0  0  0  0  0  0  0  0  0  0  0
   62.6390   30.8335   46.6220 H   0  0  0  0  0  0  0  0  0  0  0  0
   58.3360   33.1020   43.7550 C   0  0  0  0  0  0  0  0  0  0  0  0
   58.8115   34.0526   43.4717 H   0  0  0  0  0  0  0  0  0  0  0  0
  1  2  1  0
  2  3  2  0
  3  4  1  0
  3  5  1  0
  5  6  1  0
  6  7  2  0
  6  8  1  0
  8  9  2  0
  9 10  1  0
 10 11  1  0
 11 12  2  0
 12 13  1  0
 12 14  1  0
 14 15  1  0
 14 16  2  0
 16 17  1  0
 17 18  1  0
 18 19  1  0
 18 20  1  0
 18 21  1  0
 16 22  1  0
 22 23  1  0
 22 24  2  0
 24 25  1  0
  5 26  2  0
 26 27  1  0
 26 28  1  0
 28 29  1  0
 29 30  2  0
 29 31  2  0
 29 32  1  0
 32 33  1  0
 32 34  1  0
 34 35  1  0
 34 36  1  0
 34 37  1  0
 37 38  1  0
 37 39  1  0
 37 40  1  0
 32 41  1  0
 41 42  1  0
 41 43  1  0
 41 44  1  0
 44 45  1  0
 44 46  1  0
 44 47  1  0
 28 48  2  0
 48 49  1  0
 48  2  1  0
 25  9  1  0
 24 11  1  0
M  CHG  2  10  -1  32   1
M  END
>  <UniqueID>  (7) 
7

>  <SMILES>  (7) 
CC[NH+](CC)S(=O)(=O)c1cccc(C(=O)/N=c2\[n-]c3ccc(OC)cc3s2)c1

>  <Energy>  (7) 
90.01602219770615

>  <Genealogy>  (7) 
CC[NH+](CC)S(=O)(=O)c1cccc(C(=O)N=c2[n-]c3ccc(OC)cc3s2)c1 (protonated)
CC[NH+](CC)S(=O)(=O)c1cccc(C(=O)/N=c2\[n-]c3ccc(OC)cc3s2)c1 (cis-trans isomerization)
CC[NH+](CC)S(=O)(=O)c1cccc(C(=O)/N=c2\[n-]c3ccc(OC)cc3s2)c1 (3D coordinates assigned)
CC[NH+](CC)S(=O)(=O)c1cccc(C(=O)/N=c2\[n-]c3ccc(OC)cc3s2)c1 (optimized conformer: 90.01602219770615 kcal/mol)

>  <smiles>  (7) 
CCN(CC)S(=O)(=O)c1cccc(C(=O)N=c2[nH]c3ccc(OC)cc3s2)c1

>  <score_type>  (7) 
oracle

>  <origin>  (7) 
adg

>  <m_score__min__energy>  (7) 
-9.8900000000000006

>  <m_primary>  (7) 
energy

$$$$
7:0
     RDKit          3D

 34 36  0  0  0  0  0  0  0  0999 V2000
   55.9410   29.6370   42.9710 C   0  0  0  0  0  0  0  0  0  0  0  0
   56.8480   30.6880   43.5250 C   0  0  0  0  0  0  0  0  0  0  0  0
   57.2970   31.7420   42.8150 N   0  0  0  0  0  0  0  0  0  0  0  0
   58.0620   32.4880   43.6010 N   0  0  0  0  0  0  0  0  0  0  0  0
   58.1190   31.9140   44.8180 C   0  0  0  0  0  0  0  0  0  0  0  0
   58.8650   32.4850   45.9510 C   0  0  0  0  0  0  0  0  0  0  0  0
   59.9250   31.7620   46.5160 C   0  0  0  0  0  0  0  0  0  0  0  0
   60.6610   32.3040   47.5750 C   0  0  0  0  0  0  0  0  0  0  0  0
   60.3320   33.5630   48.0830 C   0  0  0  0  0  0  0  0  0  0  0  0
   59.2620   34.2790   47.5400 C   0  0  0  0  0  0  0  0  0  0  0  0
   58.5240   33.7430   46.4790 C   0  0  0  0  0  0  0  0  0  0  0  0
   57.4720   34.4400   45.9820 F   0  0  0  0  0  0  0  0  0  0  0  0
   57.3370   30.7700   44.8160 C   0  0  0  0  0  0  0  0  0  0  0  0
   57.0260   29.8990   45.9250 N   0  0  0  0  0  0  0  0  0  0  0  0
   57.6800   28.6190   45.7780 C   0  0  0  0  0  0  0  0  0  0  0  0
   59.0850   28.5390   45.7600 C   0  0  0  0  0  0  0  0  0  0  0  0
   59.7250   27.3010   45.6500 C   0  0  0  0  0  0  0  0  0  0  0  0
   58.9720   26.1320   45.5400 C   0  0  0  0  0  0  0  0  0  0  0  0
   57.5770   26.1960   45.5330 C   0  0  0  0  0  0  0  0  0  0  0  0
   56.9280   27.4310   45.6470 C   0  0  0  0  0  0  0  0  0  0  0  0
   55.5380   27.4700   45.6290 O   0  0  0  0  0  0  0  0  0  0  0  0
   55.4674   29.0882   43.7983 H   0  0  0  0  0  0  0  0  0  0  0  0
   55.1641   30.1115   42.3535 H   0  0  0  0  0  0  0  0  0  0  0  0
   56.5240   28.9379   42.3535 H   0  0  0  0  0  0  0  0  0  0  0  0
   60.1787   30.7655   46.1254 H   0  0  0  0  0  0  0  0  0  0  0  0
   61.4993   31.7385   48.0079 H   0  0  0  0  0  0  0  0  0  0  0  0
   60.9158   33.9911   48.9112 H   0  0  0  0  0  0  0  0  0  0  0  0
   58.9993   35.2663   47.9476 H   0  0  0  0  0  0  0  0  0  0  0  0
   55.9870   29.7890   45.9780 H   0  0  0  0  0  0  0  0  0  0  0  0
   57.3380   30.3310   46.8250 H   0  0  0  0  0  0  0  0  0  0  0  0
   59.6846   29.4583   45.8331 H   0  0  0  0  0  0  0  0  0  0  0  0
   60.8238   27.2487   45.6502 H   0  0  0  0  0  0  0  0  0  0  0  0
   59.4776   25.1585   45.4587 H   0  0  0  0  0  0  0  0  0  0  0  0
   56.9863   25.2730   45.4376 H   0  0  0  0  0  0  0  0  0  0  0  0
  1  2  1  0
  2  3  1  0
  3  4  1  0
  4  5  2  0
  5  6  1  0
  6  7  2  0
  7  8  1  0
  8  9  2  0
  9 10  1  0
 10 11  2  0
 11 12  1  0
  5 13  1  0
 13 14  1  0
 14 15  1  0
 15 16  2  0
 16 17  1  0
 17 18  2  0
 18 19  1  0
 19 20  2  0
 20 21  1  0
 13  2  2  0
 20 15  1  0
 11  6  1  0
  1 22  1  0
  1 23  1  0
  1 24  1  0
  7 25  1  0
  8 26  1  0
  9 27  1  0
 10 28  1  0
 14 29  1  0
 14 30  1  0
 16 31  1  0
 17 32  1  0
 18 33  1  0
 19 34  1  0
M  CHG  3   3  -1  14   1  21  -1
M  END
>  <UniqueID>  (8) 
8

>  <SMILES>  (8) 
Cc1[n-]nc(-c2ccccc2F)c1[NH2+]c1ccccc1[O-]

>  <Energy>  (8) 
74.50409799828677

>  <Genealogy>  (8) 
Cc1[n-]nc(-c2ccccc2F)c1[NH2+]c1ccccc1[O-] (protonated)
Cc1[n-]nc(-c2ccccc2F)c1[NH2+]c1ccccc1[O-] (3D coordinates assigned)
Cc1[n-]nc(-c2ccccc2F)c1[NH2+]c1ccccc1[O-] (optimized conformer: 74.50409799828677 kcal/mol)

>  <smiles>  (8) 
Cc1[nH]nc(-c2ccccc2F)c1Nc1ccccc1O

>  <score_type>  (8) 
oracle

>  <origin>  (8) 
adg

>  <m_score__min__energy>  (8) 
-9.8800000000000008

>  <m_primary>  (8) 
energy

$$$$
8:0
     RDKit          3D

 39 41  0  0  0  0  0  0  0  0999 V2000
   54.4700   26.2480   45.9680 O   0  0  0  0  0  0  0  0  0  0  0  0
   54.3450   25.0370   45.6310 C   0  0  0  0  0  0  0  0  0  0  0  0
   53.0720   24.4850   45.6110 O   0  0  0  0  0  0  0  0  0  0  0  0
   55.5390   24.2360   45.2400 C   0  0  0  0  0  0  0  0  0  0  0  0
   55.3410   23.0200   44.5660 C   0  0  0  0  0  0  0  0  0  0  0  0
   56.4350   22.2300   44.2070 C   0  0  0  0  0  0  0  0  0  0  0  0
   56.2500   21.0210   43.5440 O   0  0  0  0  0  0  0  0  0  0  0  0
   57.6900   22.6390   44.5110 N   0  0  0  0  0  0  0  0  0  0  0  0
   57.9370   23.8080   45.1540 C   0  0  0  0  0  0  0  0  0  0  0  0
   59.1300   24.1060   45.4130 O   0  0  0  0  0  0  0  0  0  0  0  0
   56.8640   24.6550   45.5260 C   0  0  0  0  0  0  0  0  0  0  0  0
   57.0690   25.9290   46.1640 N   0  0  0  0  0  0  0  0  0  0  0  0
   57.3060   27.4830   45.4300 S   0  0  0  0  0  0  0  0  0  0  0  0
   55.9850   28.1840   45.2910 O   0  0  0  0  0  0  0  0  0  0  0  0
   57.9440   27.3280   44.0760 O   0  0  0  0  0  0  0  0  0  0  0  0
   58.3830   28.4280   46.4600 C   0  0  0  0  0  0  0  0  0  0  0  0
   59.4160   27.7990   47.1730 C   0  0  0  0  0  0  0  0  0  0  0  0
   60.2560   28.5460   48.0040 C   0  0  0  0  0  0  0  0  0  0  0  0
   60.0750   29.9250   48.1220 C   0  0  0  0  0  0  0  0  0  0  0  0
   59.0560   30.5630   47.4130 C   0  0  0  0  0  0  0  0  0  0  0  0
   58.1930   29.8180   46.5860 C   0  0  0  0  0  0  0  0  0  0  0  0
   57.1740   30.4400   45.8500 O   0  0  0  0  0  0  0  0  0  0  0  0
   57.3090   30.9670   44.5580 C   0  0  0  0  0  0  0  0  0  0  0  0
   56.6360   30.3320   43.5050 C   0  0  0  0  0  0  0  0  0  0  0  0
   56.7270   30.8320   42.2030 C   0  0  0  0  0  0  0  0  0  0  0  0
   57.4810   31.9800   41.9460 C   0  0  0  0  0  0  0  0  0  0  0  0
   58.1390   32.6350   42.9920 C   0  0  0  0  0  0  0  0  0  0  0  0
   58.0550   32.1380   44.2970 C   0  0  0  0  0  0  0  0  0  0  0  0
   58.6560   32.8220   45.3050 F   0  0  0  0  0  0  0  0  0  0  0  0
   54.3212   22.6889   44.3202 H   0  0  0  0  0  0  0  0  0  0  0  0
   56.9470   20.2830   43.5770 H   0  0  0  0  0  0  0  0  0  0  0  0
   59.5651   26.7134   47.0773 H   0  0  0  0  0  0  0  0  0  0  0  0
   61.0598   28.0469   48.5651 H   0  0  0  0  0  0  0  0  0  0  0  0
   60.7377   30.5109   48.7759 H   0  0  0  0  0  0  0  0  0  0  0  0
   58.9264   31.6518   47.5004 H   0  0  0  0  0  0  0  0  0  0  0  0
   56.0324   29.4344   43.7047 H   0  0  0  0  0  0  0  0  0  0  0  0
   56.2049   30.3216   41.3803 H   0  0  0  0  0  0  0  0  0  0  0  0
   57.5571   32.3690   40.9199 H   0  0  0  0  0  0  0  0  0  0  0  0
   58.7243   33.5437   42.7879 H   0  0  0  0  0  0  0  0  0  0  0  0
  1  2  2  0
  2  3  1  0
  2  4  1  0
  4  5  1  0
  5  6  2  0
  6  7  1  0
  6  8  1  0
  8  9  1  0
  9 10  2  0
  9 11  1  0
 11 12  1  0
 12 13  1  0
 13 14  2  0
 13 15  2  0
 13 16  1  0
 16 17  2  0
 17 18  1  0
 18 19  2  0
 19 20  1  0
 20 21  2  0
 21 22  1  0
 22 23  1  0
 23 24  2  0
 24 25  1  0
 25 26  2  0
 26 27  1  0
 27 28  2  0
 28 29  1  0
 11  4  2  0
 21 16  1  0
 28 23  1  0
  5 30  1  0
  7 31  1  0
 17 32  1  0
 18 33  1  0
 19 34  1  0
 20 35  1  0
 24 36  1  0
 25 37  1  0
 26 38  1  0
 27 39  1  0
M  CHG  3   3  -1   8  -1  12  -1
M  END
>  <UniqueID>  (9) 
9

>  <SMILES>  (9) 
O=C([O-])c1cc(O)[n-]c(=O)c1[N-]S(=O)(=O)c1ccccc1Oc1ccccc1F

>  <Energy>  (9) 
61.07507450891499

>  <Genealogy>  (9) 
O=C([O-])c1cc(O)[n-]c(=O)c1[N-]S(=O)(=O)c1ccccc1Oc1ccccc1F (protonated)
O=C([O-])c1cc(O)[n-]c(=O)c1[N-]S(=O)(=O)c1ccccc1Oc1ccccc1F (3D coordinates assigned)
O=C([O-])c1cc(O)[n-]c(=O)c1[N-]S(=O)(=O)c1ccccc1Oc1ccccc1F (optimized conformer: 61.07507450891499 kcal/mol)

>  <smiles>  (9) 
O=C(O)c1cc(O)[nH]c(=O)c1NS(=O)(=O)c1ccccc1Oc1ccccc1F

>  <score_type>  (9) 
oracle

>  <origin>  (9) 
adg

>  <m_score__min__energy>  (9) 
-14

>  <m_primary>  (9) 
energy

$$$$
9:0
     RDKit          3D

 40 42  0  0  0  0  0  0  0  0999 V2000
   54.7740   26.3030   45.9720 N   0  0  0  0  0  0  0  0  0  0  0  0
   56.3760   25.6640   46.0710 S   0  0  0  0  0  0  0  0  0  0  0  0
   56.6310   25.1670   47.4670 O   0  0  0  0  0  0  0  0  0  0  0  0
   56.5180   24.5110   45.1170 O   0  0  0  0  0  0  0  0  0  0  0  0
   57.5380   26.9230   45.6670 C   0  0  0  0  0  0  0  0  0  0  0  0
   58.2240   26.8830   44.4460 C   0  0  0  0  0  0  0  0  0  0  0  0
   59.1310   27.8940   44.1190 C   0  0  0  0  0  0  0  0  0  0  0  0
   59.3570   28.9490   45.0060 C   0  0  0  0  0  0  0  0  0  0  0  0
   58.6810   29.0010   46.2360 C   0  0  0  0  0  0  0  0  0  0  0  0
   58.9090   30.1270   47.1690 C   0  0  0  0  0  0  0  0  0  0  0  0
   58.8430   29.9300   48.4130 O   0  0  0  0  0  0  0  0  0  0  0  0
   59.2260   31.4460   46.6850 N   0  0  0  0  0  0  0  0  0  0  0  0
   58.1420   32.2910   46.1620 C   0  0  0  0  0  0  0  0  0  0  0  0
   57.5670   31.6930   44.9140 C   0  0  0  0  0  0  0  0  0  0  0  0
   57.9350   32.0090   43.6220 C   0  0  0  0  0  0  0  0  0  0  0  0
   57.1620   31.2080   42.8100 C   0  0  0  0  0  0  0  0  0  0  0  0
   56.3780   30.4500   43.6550 C   0  0  0  0  0  0  0  0  0  0  0  0
   56.6430   30.7590   44.9030 O   0  0  0  0  0  0  0  0  0  0  0  0
   60.5640   31.9670   46.8650 C   0  0  0  0  0  0  0  0  0  0  0  0
   60.8400   33.3200   46.5840 C   0  0  0  0  0  0  0  0  0  0  0  0
   62.1270   33.8340   46.7590 C   0  0  0  0  0  0  0  0  0  0  0  0
   63.1560   33.0090   47.2170 C   0  0  0  0  0  0  0  0  0  0  0  0
   62.8980   31.6670   47.5020 C   0  0  0  0  0  0  0  0  0  0  0  0
   61.6120   31.1470   47.3300 C   0  0  0  0  0  0  0  0  0  0  0  0
   57.7590   27.9860   46.5530 C   0  0  0  0  0  0  0  0  0  0  0  0
   54.7050   27.0640   46.6840 H   0  0  0  0  0  0  0  0  0  0  0  0
   58.0482   26.0546   43.7440 H   0  0  0  0  0  0  0  0  0  0  0  0
   59.6688   27.8591   43.1601 H   0  0  0  0  0  0  0  0  0  0  0  0
   60.0689   29.7441   44.7395 H   0  0  0  0  0  0  0  0  0  0  0  0
   57.3504   32.3755   46.9211 H   0  0  0  0  0  0  0  0  0  0  0  0
   58.5482   33.2856   45.9259 H   0  0  0  0  0  0  0  0  0  0  0  0
   58.6880   32.7462   43.3064 H   0  0  0  0  0  0  0  0  0  0  0  0
   57.1686   31.1788   41.7104 H   0  0  0  0  0  0  0  0  0  0  0  0
   55.6416   29.6996   43.3316 H   0  0  0  0  0  0  0  0  0  0  0  0
   60.0349   33.9772   46.2237 H   0  0  0  0  0  0  0  0  0  0  0  0
   62.3303   34.8917   46.5353 H   0  0  0  0  0  0  0  0  0  0  0  0
   64.1688   33.4160   47.3531 H   0  0  0  0  0  0  0  0  0  0  0  0
   63.7088   31.0171   47.8628 H   0  0  0  0  0  0  0  0  0  0  0  0
   61.4162   30.0892   47.5594 H   0  0  0  0  0  0  0  0  0  0  0  0
   57.2074   28.0274   47.5038 H   0  0  0  0  0  0  0  0  0  0  0  0
  1  2  1  0
  2  3  2  0
  2  4  2  0
  2  5  1  0
  5  6  2  0
  6  7  1  0
  7  8  2  0
  8  9  1  0
  9 10  1  0
 10 11  2  0
 10 12  1  0
 12 13  1  0
 13 14  1  0
 14 15  2  0
 15 16  1  0
 16 17  2  0
 17 18  1  0
 12 19  1  0
 19 20  2  0
 20 21  1  0
 21 22  2  0
 22 23  1  0
 23 24  2  0
  9 25  2  0
 25  5  1  0
 18 14  1  0
 24 19  1  0
  1 26  1  0
  6 27  1  0
  7 28  1  0
  8 29  1  0
 13 30  1  0
 13 31  1  0
 15 32  1  0
 16 33  1  0
 17 34  1  0
 20 35  1  0
 21 36  1  0
 22 37  1  0
 23 38  1  0
 24 39  1  0
 25 40  1  0
M  CHG  1   1  -1
M  END
>  <UniqueID>  (10) 
10

>  <SMILES>  (10) 
[NH-]S(=O)(=O)c1cccc(C(=O)N(Cc2ccco2)c2ccccc2)c1

>  <Energy>  (10) 
76.51038591562269

>  <Genealogy>  (10) 
[NH-]S(=O)(=O)c1cccc(C(=O)N(Cc2ccco2)c2ccccc2)c1 (protonated)
[NH-]S(=O)(=O)c1cccc(C(=O)N(Cc2ccco2)c2ccccc2)c1 (3D coordinates assigned)
[NH-]S(=O)(=O)c1cccc(C(=O)N(Cc2ccco2)c2ccccc2)c1 (optimized conformer: 76.51038591562269 kcal/mol)

>  <smiles>  (10) 
NS(=O)(=O)c1cccc(C(=O)N(Cc2ccco2)c2ccccc2)c1

>  <score_type>  (10) 
oracle

>  <origin>  (10) 
adg

>  <m_score__min__energy>  (10) 
-11.869999999999999

>  <m_primary>  (10) 
energy

$$$$
10:0
     RDKit          3D

 47 49  0  0  0  0  0  0  0  0999 V2000
   58.6732   34.7772   44.0423 H   0  0  0  0  0  0  0  0  0  0  0  0
   58.4500   33.8360   44.5660 C   0  0  0  0  0  0  0  0  0  0  0  0
   58.6070   33.7820   46.0360 C   0  0  0  0  0  0  0  0  0  0  0  0
   57.6580   34.1520   46.7810 O   0  0  0  0  0  0  0  0  0  0  0  0
   59.8540   33.2690   46.6560 C   0  0  0  0  0  0  0  0  0  0  0  0
   61.0840   33.8860   46.3720 C   0  0  0  0  0  0  0  0  0  0  0  0
   61.1188   34.7457   45.6866 H   0  0  0  0  0  0  0  0  0  0  0  0
   62.2620   33.4150   46.9540 C   0  0  0  0  0  0  0  0  0  0  0  0
   63.2203   33.9042   46.7251 H   0  0  0  0  0  0  0  0  0  0  0  0
   62.2280   32.3260   47.8250 C   0  0  0  0  0  0  0  0  0  0  0  0
   63.1597   31.9687   48.2879 H   0  0  0  0  0  0  0  0  0  0  0  0
   61.0150   31.6820   48.1160 C   0  0  0  0  0  0  0  0  0  0  0  0
   61.0160   30.5650   49.0240 N   0  0  0  0  0  0  0  0  0  0  0  0
   61.9290   30.1340   49.2960 H   0  0  0  0  0  0  0  0  0  0  0  0
   59.5890   29.8910   49.7480 S   0  0  0  0  0  0  0  0  0  0  0  0
   59.9770   28.7130   50.5950 O   0  0  0  0  0  0  0  0  0  0  0  0
   58.6610   29.4270   48.6600 O   0  0  0  0  0  0  0  0  0  0  0  0
   58.7880   31.0840   50.7690 C   0  0  0  0  0  0  0  0  0  0  0  0
   57.5790   30.7720   51.4080 C   0  0  0  0  0  0  0  0  0  0  0  0
   57.1211   29.7823   51.2638 H   0  0  0  0  0  0  0  0  0  0  0  0
   56.9550   31.7170   52.2280 C   0  0  0  0  0  0  0  0  0  0  0  0
   56.0121   31.4670   52.7364 H   0  0  0  0  0  0  0  0  0  0  0  0
   57.5300   32.9810   52.4020 C   0  0  0  0  0  0  0  0  0  0  0  0
   57.0392   33.7234   53.0485 H   0  0  0  0  0  0  0  0  0  0  0  0
   58.7260   33.3010   51.7560 C   0  0  0  0  0  0  0  0  0  0  0  0
   59.1711   34.2984   51.8863 H   0  0  0  0  0  0  0  0  0  0  0  0
   59.3580   32.3550   50.9440 C   0  0  0  0  0  0  0  0  0  0  0  0
   60.3035   32.6068   50.4413 H   0  0  0  0  0  0  0  0  0  0  0  0
   59.8310   32.1540   47.5150 C   0  0  0  0  0  0  0  0  0  0  0  0
   58.8775   31.6451   47.7195 H   0  0  0  0  0  0  0  0  0  0  0  0
   58.0450   32.7770   43.8500 C   0  0  0  0  0  0  0  0  0  0  0  0
   57.8181   32.9265   42.7841 H   0  0  0  0  0  0  0  0  0  0  0  0
   57.8860   31.4150   44.4160 C   0  0  0  0  0  0  0  0  0  0  0  0
   58.9680   30.6870   44.9460 C   0  0  0  0  0  0  0  0  0  0  0  0
   59.9752   31.1293   44.9485 H   0  0  0  0  0  0  0  0  0  0  0  0
   58.7710   29.4060   45.4690 C   0  0  0  0  0  0  0  0  0  0  0  0
   59.6221   28.8517   45.8914 H   0  0  0  0  0  0  0  0  0  0  0  0
   57.4930   28.8210   45.4590 C   0  0  0  0  0  0  0  0  0  0  0  0
   57.2520   27.5370   45.9740 O   0  0  0  0  0  0  0  0  0  0  0  0
   58.0060   26.9380   47.0240 C   0  0  0  0  0  0  0  0  0  0  0  0
   57.6016   27.2593   47.9952 H   0  0  0  0  0  0  0  0  0  0  0  0
   57.9406   25.8429   46.9437 H   0  0  0  0  0  0  0  0  0  0  0  0
   59.0580   27.2494   46.9437 H   0  0  0  0  0  0  0  0  0  0  0  0
   56.4200   29.5370   44.9130 C   0  0  0  0  0  0  0  0  0  0  0  0
   55.1500   28.9720   44.8850 O   0  0  0  0  0  0  0  0  0  0  0  0
   56.6150   30.8200   44.3920 C   0  0  0  0  0  0  0  0  0  0  0  0
   55.7648   31.3678   43.9595 H   0  0  0  0  0  0  0  0  0  0  0  0
  1  2  1  0
  2  3  1  0
  3  4  2  0
  3  5  1  0
  5  6  2  0
  6  7  1  0
  6  8  1  0
  8  9  1  0
  8 10  2  0
 10 11  1  0
 10 12  1  0
 12 13  1  0
 13 14  1  0
 13 15  1  0
 15 16  2  0
 15 17  2  0
 15 18  1  0
 18 19  2  0
 19 20  1  0
 19 21  1  0
 21 22  1  0
 21 23  2  0
 23 24  1  0
 23 25  1  0
 25 26  1  0
 25 27  2  0
 27 28  1  0
 12 29  2  0
 29 30  1  0
  2 31  2  0
 31 32  1  0
 31 33  1  0
 33 34  2  0
 34 35  1  0
 34 36  1  0
 36 37  1  0
 36 38  2  0
 38 39  1  0
 39 40  1  0
 40 41  1  0
 40 42  1  0
 40 43  1  0
 38 44  1  0
 44 45  1  0
 44 46  2  0
 46 47  1  0
 29  5  1  0
 46 33  1  0
 27 18  1  0
M  CHG  1  45  -1
M  END
>  <UniqueID>  (11) 
11

>  <SMILES>  (11) 
COc1ccc(/C=C/C(=O)c2cccc(NS(=O)(=O)c3ccccc3)c2)cc1[O-]

>  <Energy>  (11) 
54.30384573168997

>  <Genealogy>  (11) 
COc1ccc(C=CC(=O)c2cccc(NS(=O)(=O)c3ccccc3)c2)cc1[O-] (protonated)
COc1ccc(/C=C/C(=O)c2cccc(NS(=O)(=O)c3ccccc3)c2)cc1[O-] (cis-trans isomerization)
COc1ccc(/C=C/C(=O)c2cccc(NS(=O)(=O)c3ccccc3)c2)cc1[O-] (3D coordinates assigned)
COc1ccc(/C=C/C(=O)c2cccc(NS(=O)(=O)c3ccccc3)c2)cc1[O-] (optimized conformer: 54.30384573168997 kcal/mol)

>  <smiles>  (11) 
COc1ccc(C=CC(=O)c2cccc(NS(=O)(=O)c3ccccc3)c2)cc1O

>  <score_type>  (11) 
oracle

>  <origin>  (11) 
adg

>  <m_score__min__energy>  (11) 
-13.44

>  <m_primary>  (11) 
energy

$$$$
11:0
     RDKit          3D

 40 42  0  0  0  0  0  0  0  0999 V2000
   58.0940   28.2090   43.7490 C   0  0  0  0  0  0  0  0  0  0  0  0
   57.2670   28.7790   45.2190 S   0  0  0  0  0  0  0  0  0  0  0  0
   56.1910   27.7920   45.5740 O   0  0  0  0  0  0  0  0  0  0  0  0
   56.6300   30.1190   44.9790 O   0  0  0  0  0  0  0  0  0  0  0  0
   58.3910   28.8800   46.5390 N   0  0  0  0  0  0  0  0  0  0  0  0
   58.5870   30.0490   47.3580 C   0  0  0  0  0  0  0  0  0  0  0  0
   58.6850   31.3400   46.8070 C   0  0  0  0  0  0  0  0  0  0  0  0
   58.8870   32.4470   47.6350 C   0  0  0  0  0  0  0  0  0  0  0  0
   58.9810   32.2830   49.0180 C   0  0  0  0  0  0  0  0  0  0  0  0
   58.8580   31.0120   49.5880 C   0  0  0  0  0  0  0  0  0  0  0  0
   58.9680   30.8850   50.9800 O   0  0  0  0  0  0  0  0  0  0  0  0
   58.0120   30.2970   51.8220 C   0  0  0  0  0  0  0  0  0  0  0  0
   58.3710   29.3810   52.8240 C   0  0  0  0  0  0  0  0  0  0  0  0
   57.3900   28.8060   53.6330 C   0  0  0  0  0  0  0  0  0  0  0  0
   56.0440   29.1290   53.4410 C   0  0  0  0  0  0  0  0  0  0  0  0
   55.6610   30.0280   52.4310 C   0  0  0  0  0  0  0  0  0  0  0  0
   54.2250   30.3520   52.2360 C   0  0  0  0  0  0  0  0  0  0  0  0
   53.7100   31.4990   51.6460 C   0  0  0  0  0  0  0  0  0  0  0  0
   52.3400   31.3600   51.6880 C   0  0  0  0  0  0  0  0  0  0  0  0
   51.3520   32.3210   51.1820 C   0  0  0  0  0  0  0  0  0  0  0  0
   51.3990   32.7120   49.9850 O   0  0  0  0  0  0  0  0  0  0  0  0
   50.3560   32.8030   52.0210 O   0  0  0  0  0  0  0  0  0  0  0  0
   52.0770   30.1480   52.2920 C   0  0  0  0  0  0  0  0  0  0  0  0
   53.2250   29.5310   52.6280 N   0  0  0  0  0  0  0  0  0  0  0  0
   56.6610   30.6020   51.6190 C   0  0  0  0  0  0  0  0  0  0  0  0
   58.6770   29.8960   48.7510 C   0  0  0  0  0  0  0  0  0  0  0  0
   58.9694   27.6057   44.0313 H   0  0  0  0  0  0  0  0  0  0  0  0
   57.4021   27.5951   43.1537 H   0  0  0  0  0  0  0  0  0  0  0  0
   58.4215   29.0741   43.1537 H   0  0  0  0  0  0  0  0  0  0  0  0
   58.9990   28.0460   46.6990 H   0  0  0  0  0  0  0  0  0  0  0  0
   58.6022   31.4783   45.7189 H   0  0  0  0  0  0  0  0  0  0  0  0
   58.9723   33.4517   47.1954 H   0  0  0  0  0  0  0  0  0  0  0  0
   59.1526   33.1577   49.6625 H   0  0  0  0  0  0  0  0  0  0  0  0
   59.4283   29.1160   52.9716 H   0  0  0  0  0  0  0  0  0  0  0  0
   57.6769   28.0970   54.4236 H   0  0  0  0  0  0  0  0  0  0  0  0
   55.2773   28.6754   54.0863 H   0  0  0  0  0  0  0  0  0  0  0  0
   54.2787   32.3441   51.2308 H   0  0  0  0  0  0  0  0  0  0  0  0
   51.0706   29.7428   52.4735 H   0  0  0  0  0  0  0  0  0  0  0  0
   56.3758   31.2979   50.8163 H   0  0  0  0  0  0  0  0  0  0  0  0
   58.6051   28.8913   49.1930 H   0  0  0  0  0  0  0  0  0  0  0  0
  1  2  1  0
  2  3  2  0
  2  4  2  0
  2  5  1  0
  5  6  1  0
  6  7  2  0
  7  8  1  0
  8  9  2  0
  9 10  1  0
 10 11  1  0
 11 12  1  0
 12 13  2  0
 13 14  1  0
 14 15  2  0
 15 16  1  0
 16 17  1  0
 17 18  2  0
 18 19  1  0
 19 20  1  0
 20 21  2  0
 20 22  1  0
 19 23  2  0
 23 24  1  0
 16 25  2  0
 10 26  2  0
 26  6  1  0
 25 12  1  0
 24 17  1  0
  1 27  1  0
  1 28  1  0
  1 29  1  0
  5 30  1  0
  7 31  1  0
  8 32  1  0
  9 33  1  0
 13 34  1  0
 14 35  1  0
 15 36  1  0
 18 37  1  0
 23 38  1  0
 25 39  1  0
 26 40  1  0
M  CHG  2  22  -1  24  -1
M  END
>  <UniqueID>  (12) 
12

>  <SMILES>  (12) 
CS(=O)(=O)Nc1cccc(Oc2cccc(-c3cc(C(=O)[O-])c[n-]3)c2)c1

>  <Energy>  (12) 
73.55249786975877

>  <Genealogy>  (12) 
CS(=O)(=O)Nc1cccc(Oc2cccc(-c3cc(C(=O)[O-])c[n-]3)c2)c1 (protonated)
CS(=O)(=O)Nc1cccc(Oc2cccc(-c3cc(C(=O)[O-])c[n-]3)c2)c1 (3D coordinates assigned)
CS(=O)(=O)Nc1cccc(Oc2cccc(-c3cc(C(=O)[O-])c[n-]3)c2)c1 (optimized conformer: 73.55249786975877 kcal/mol)

>  <smiles>  (12) 
CS(=O)(=O)Nc1cccc(Oc2cccc(-c3cc(C(=O)O)c[nH]3)c2)c1

>  <score_type>  (12) 
oracle

>  <origin>  (12) 
adg

>  <m_score__min__energy>  (12) 
-12.449999999999999

>  <m_primary>  (12) 
energy

$$$$
12:0
     RDKit          3D

 38 39  0  0  0  0  0  0  0  0999 V2000
   63.1230   33.4950   46.7560 C   0  0  0  0  0  0  0  0  0  0  0  0
   62.5810   32.6970   47.9540 C   0  0  0  0  0  0  0  0  0  0  0  0
   61.9100   33.6610   48.9540 C   0  0  0  0  0  0  0  0  0  0  0  0
   63.7490   31.9820   48.6640 C   0  0  0  0  0  0  0  0  0  0  0  0
   61.5740   31.6830   47.4470 C   0  0  0  0  0  0  0  0  0  0  0  0
   61.9680   30.5610   47.0240 O   0  0  0  0  0  0  0  0  0  0  0  0
   60.2060   31.9920   47.4690 O   0  0  0  0  0  0  0  0  0  0  0  0
   59.5480   32.8560   46.5790 C   0  0  0  0  0  0  0  0  0  0  0  0
   59.9460   34.2020   46.4590 C   0  0  0  0  0  0  0  0  0  0  0  0
   59.2900   35.0600   45.5770 C   0  0  0  0  0  0  0  0  0  0  0  0
   58.2380   34.5880   44.7960 C   0  0  0  0  0  0  0  0  0  0  0  0
   57.8450   33.2510   44.8850 C   0  0  0  0  0  0  0  0  0  0  0  0
   58.4960   32.3630   45.7650 C   0  0  0  0  0  0  0  0  0  0  0  0
   58.0540   30.9410   45.8240 C   0  0  0  0  0  0  0  0  0  0  0  0
   56.9000   30.5590   45.2130 N   0  0  0  0  0  0  0  0  0  0  0  0
   56.4660   29.2720   45.2400 C   0  0  0  0  0  0  0  0  0  0  0  0
   55.3870   28.9820   44.6570 O   0  0  0  0  0  0  0  0  0  0  0  0
   57.2190   28.2890   45.9150 C   0  0  0  0  0  0  0  0  0  0  0  0
   56.8060   26.8620   45.9880 C   0  0  0  0  0  0  0  0  0  0  0  0
   55.4270   26.4930   46.0100 N   0  0  0  0  0  0  0  0  0  0  0  0
   57.6780   25.9530   46.0310 O   0  0  0  0  0  0  0  0  0  0  0  0
   58.4080   28.7070   46.5340 C   0  0  0  0  0  0  0  0  0  0  0  0
   58.7940   30.0060   46.4750 N   0  0  0  0  0  0  0  0  0  0  0  0
   63.7061   34.3534   47.1209 H   0  0  0  0  0  0  0  0  0  0  0  0
   63.7683   32.8465   46.1452 H   0  0  0  0  0  0  0  0  0  0  0  0
   62.2823   33.8558   46.1452 H   0  0  0  0  0  0  0  0  0  0  0  0
   62.1346   33.3383   49.9813 H   0  0  0  0  0  0  0  0  0  0  0  0
   62.2956   34.6791   48.7969 H   0  0  0  0  0  0  0  0  0  0  0  0
   60.8213   33.6529   48.7969 H   0  0  0  0  0  0  0  0  0  0  0  0
   63.6195   32.0613   49.7535 H   0  0  0  0  0  0  0  0  0  0  0  0
   63.7613   30.9214   48.3724 H   0  0  0  0  0  0  0  0  0  0  0  0
   64.6991   32.4535   48.3724 H   0  0  0  0  0  0  0  0  0  0  0  0
   60.7817   34.5795   47.0665 H   0  0  0  0  0  0  0  0  0  0  0  0
   59.6039   36.1113   45.4980 H   0  0  0  0  0  0  0  0  0  0  0  0
   57.7159   35.2693   44.1081 H   0  0  0  0  0  0  0  0  0  0  0  0
   57.0165   32.8860   44.2602 H   0  0  0  0  0  0  0  0  0  0  0  0
   54.8000   26.7120   45.2060 H   0  0  0  0  0  0  0  0  0  0  0  0
   59.0307   27.9760   47.0705 H   0  0  0  0  0  0  0  0  0  0  0  0
  1  2  1  0
  2  3  1  0
  2  4  1  0
  2  5  1  0
  5  6  2  0
  5  7  1  0
  7  8  1  0
  8  9  2  0
  9 10  1  0
 10 11  2  0
 11 12  1  0
 12 13  2  0
 13 14  1  0
 14 15  2  0
 15 16  1  0
 16 17  2  0
 16 18  1  0
 18 19  1  0
 19 20  1  0
 19 21  2  0
 18 22  2  0
 22 23  1  0
 13  8  1  0
 23 14  1  0
  1 24  1  0
  1 25  1  0
  1 26  1  0
  3 27  1  0
  3 28  1  0
  3 29  1  0
  4 30  1  0
  4 31  1  0
  4 32  1  0
  9 33  1  0
 10 34  1  0
 11 35  1  0
 12 36  1  0
 20 37  1  0
 22 38  1  0
M  CHG  2  20  -1  23  -1
M  END
>  <UniqueID>  (13) 
13

>  <SMILES>  (13) 
CC(C)(C)C(=O)Oc1ccccc1-c1nc(=O)c(C([NH-])=O)c[n-]1

>  <Energy>  (13) 
44.52489655134633

>  <Genealogy>  (13) 
CC(C)(C)C(=O)Oc1ccccc1-c1nc(=O)c(C([NH-])=O)c[n-]1 (protonated)
CC(C)(C)C(=O)Oc1ccccc1-c1nc(=O)c(C([NH-])=O)c[n-]1 (3D coordinates assigned)
CC(C)(C)C(=O)Oc1ccccc1-c1nc(=O)c(C([NH-])=O)c[n-]1 (optimized conformer: 44.52489655134633 kcal/mol)

>  <smiles>  (13) 
CC(C)(C)C(=O)Oc1ccccc1-c1nc(=O)c(C(N)=O)c[nH]1

>  <score_type>  (13) 
oracle

>  <origin>  (13) 
adg

>  <m_score__min__energy>  (13) 
-12.73

>  <m_primary>  (13) 
energy

$$$$
13:0
     RDKit          3D

 38 40  0  0  0  0  0  0  0  0999 V2000
   55.1770   24.0950   46.9780 N   0  0  0  0  0  0  0  0  0  0  0  0
   56.5650   24.4360   47.0110 C   0  0  0  0  0  0  0  0  0  0  0  0
   57.3890   23.5890   47.4510 O   0  0  0  0  0  0  0  0  0  0  0  0
   57.0430   25.7600   46.5410 C   0  0  0  0  0  0  0  0  0  0  0  0
   58.4130   26.0770   46.5990 C   0  0  0  0  0  0  0  0  0  0  0  0
   58.8780   27.3310   46.1780 C   0  0  0  0  0  0  0  0  0  0  0  0
   60.5960   27.7260   46.2880 S   0  0  0  0  0  0  0  0  0  0  0  0
   61.3340   26.5670   46.8970 O   0  0  0  0  0  0  0  0  0  0  0  0
   61.1440   27.9530   44.9070 O   0  0  0  0  0  0  0  0  0  0  0  0
   60.8550   29.1570   47.2610 N   0  0  0  0  0  0  0  0  0  0  0  0
   60.0490   29.1210   48.5100 C   0  0  0  0  0  0  0  0  0  0  0  0
   58.8490   30.0750   48.4930 C   0  0  0  0  0  0  0  0  0  0  0  0
   59.3450   31.4550   48.1920 C   0  0  0  0  0  0  0  0  0  0  0  0
   58.8500   32.5830   48.8640 C   0  0  0  0  0  0  0  0  0  0  0  0
   59.3480   33.8520   48.5520 C   0  0  0  0  0  0  0  0  0  0  0  0
   60.3270   33.9980   47.5650 C   0  0  0  0  0  0  0  0  0  0  0  0
   60.8110   32.8760   46.8840 C   0  0  0  0  0  0  0  0  0  0  0  0
   60.3290   31.5980   47.2080 C   0  0  0  0  0  0  0  0  0  0  0  0
   60.7490   30.3810   46.4260 C   0  0  0  0  0  0  0  0  0  0  0  0
   57.9690   28.2730   45.6810 C   0  0  0  0  0  0  0  0  0  0  0  0
   56.6080   27.9730   45.6220 C   0  0  0  0  0  0  0  0  0  0  0  0
   56.1400   26.7270   46.0490 C   0  0  0  0  0  0  0  0  0  0  0  0
   54.7780   26.4570   45.9640 O   0  0  0  0  0  0  0  0  0  0  0  0
   54.8680   23.1380   47.2600 H   0  0  0  0  0  0  0  0  0  0  0  0
   54.4460   24.8030   46.7500 H   0  0  0  0  0  0  0  0  0  0  0  0
   59.1275   25.3321   46.9792 H   0  0  0  0  0  0  0  0  0  0  0  0
   59.6766   28.0961   48.6543 H   0  0  0  0  0  0  0  0  0  0  0  0
   60.7079   29.4455   49.3289 H   0  0  0  0  0  0  0  0  0  0  0  0
   58.1351   29.7598   47.7178 H   0  0  0  0  0  0  0  0  0  0  0  0
   58.3417   30.0608   49.4690 H   0  0  0  0  0  0  0  0  0  0  0  0
   58.0726   32.4694   49.6339 H   0  0  0  0  0  0  0  0  0  0  0  0
   58.9687   34.7368   49.0842 H   0  0  0  0  0  0  0  0  0  0  0  0
   60.7177   34.9974   47.3232 H   0  0  0  0  0  0  0  0  0  0  0  0
   61.5686   32.9951   46.0954 H   0  0  0  0  0  0  0  0  0  0  0  0
   60.0070   30.2009   45.6342 H   0  0  0  0  0  0  0  0  0  0  0  0
   61.7492   30.5848   46.0161 H   0  0  0  0  0  0  0  0  0  0  0  0
   58.3295   29.2532   45.3358 H   0  0  0  0  0  0  0  0  0  0  0  0
   55.8992   28.7211   45.2373 H   0  0  0  0  0  0  0  0  0  0  0  0
  1  2  1  0
  2  3  2  0
  2  4  1  0
  4  5  2  0
  5  6  1  0
  6  7  1  0
  7  8  2  0
  7  9  2  0
  7 10  1  0
 10 11  1  0
 11 12  1  0
 12 13  1  0
 13 14  2  0
 14 15  1  0
 15 16  2  0
 16 17  1  0
 17 18  2  0
 18 19  1  0
  6 20  2  0
 20 21  1  0
 21 22  2  0
 22 23  1  0
 22  4  1  0
 19 10  1  0
 18 13  1  0
  1 24  1  0
  1 25  1  0
  5 26  1  0
 11 27  1  0
 11 28  1  0
 12 29  1  0
 12 30  1  0
 14 31  1  0
 15 32  1  0
 16 33  1  0
 17 34  1  0
 19 35  1  0
 19 36  1  0
 20 37  1  0
 21 38  1  0
M  CHG  1  23  -1
M  END
>  <UniqueID>  (14) 
14

>  <SMILES>  (14) 
NC(=O)c1cc(S(=O)(=O)N2CCc3ccccc3C2)ccc1[O-]

>  <Energy>  (14) 
51.418552351959434

>  <Genealogy>  (14) 
NC(=O)c1cc(S(=O)(=O)N2CCc3ccccc3C2)ccc1[O-] (protonated)
NC(=O)c1cc(S(=O)(=O)N2CCc3ccccc3C2)ccc1[O-] (3D coordinates assigned)
NC(=O)c1cc(S(=O)(=O)N2CCc3ccccc3C2)ccc1[O-] (nonaromatic ring conformer: 51.418552351959434 kcal/mol)

>  <smiles>  (14) 
NC(=O)c1cc(S(=O)(=O)N2CCc3ccccc3C2)ccc1O

>  <score_type>  (14) 
oracle

>  <origin>  (14) 
adg

>  <m_score__min__energy>  (14) 
-11.49

>  <m_primary>  (14) 
energy

$$$$
14:0
     RDKit          3D

 42 45  0  0  0  0  0  0  0  0999 V2000
   55.2230   27.4480   46.7460 H   0  0  0  0  0  0  0  0  0  0  0  0
   55.1360   26.5370   46.3110 O   0  0  0  0  0  0  0  0  0  0  0  0
   56.2520   25.7360   46.0620 C   0  0  0  0  0  0  0  0  0  0  0  0
   56.0810   24.3650   45.8180 C   0  0  0  0  0  0  0  0  0  0  0  0
   55.0744   23.9235   45.8611 H   0  0  0  0  0  0  0  0  0  0  0  0
   57.1800   23.5580   45.5210 C   0  0  0  0  0  0  0  0  0  0  0  0
   57.0384   22.4832   45.3348 H   0  0  0  0  0  0  0  0  0  0  0  0
   58.4590   24.1140   45.4600 C   0  0  0  0  0  0  0  0  0  0  0  0
   59.3235   23.4786   45.2174 H   0  0  0  0  0  0  0  0  0  0  0  0
   58.6420   25.4780   45.7070 C   0  0  0  0  0  0  0  0  0  0  0  0
   59.6512   25.9120   45.6507 H   0  0  0  0  0  0  0  0  0  0  0  0
   57.5460   26.3000   46.0270 C   0  0  0  0  0  0  0  0  0  0  0  0
   57.7800   27.7390   46.2890 C   0  0  0  0  0  0  0  0  0  0  0  0
   57.1990   28.6680   45.4710 N   0  0  0  0  0  0  0  0  0  0  0  0
   57.4250   29.9870   45.6910 C   0  0  0  0  0  0  0  0  0  0  0  0
   56.8880   30.9910   44.9690 N   0  0  0  0  0  0  0  0  0  0  0  0
   57.4110   32.0910   45.5640 C   0  0  0  0  0  0  0  0  0  0  0  0
   57.0140   33.4230   45.2110 N   0  0  0  0  0  0  0  0  0  0  0  0
   57.7180   34.4800   45.3580 N   0  0  0  0  0  0  0  0  0  0  0  0
   59.1410   34.5800   45.1850 C   0  0  0  0  0  0  0  0  0  0  0  0
   59.6890   34.2070   44.1140 O   0  0  0  0  0  0  0  0  0  0  0  0
   59.9600   35.2680   46.2310 C   0  0  0  0  0  0  0  0  0  0  0  0
   60.7610   35.8444   45.7450 H   0  0  0  0  0  0  0  0  0  0  0  0
   59.3118   35.9424   46.8098 H   0  0  0  0  0  0  0  0  0  0  0  0
   60.5700   34.2540   47.1600 C   0  0  0  0  0  0  0  0  0  0  0  0
   61.6890   33.5060   46.7560 C   0  0  0  0  0  0  0  0  0  0  0  0
   62.1360   33.6792   45.7660 H   0  0  0  0  0  0  0  0  0  0  0  0
   62.2360   32.5420   47.6090 C   0  0  0  0  0  0  0  0  0  0  0  0
   63.1155   31.9627   47.2913 H   0  0  0  0  0  0  0  0  0  0  0  0
   61.6660   32.3140   48.8650 C   0  0  0  0  0  0  0  0  0  0  0  0
   62.1001   31.5587   49.5366 H   0  0  0  0  0  0  0  0  0  0  0  0
   60.5450   33.0450   49.2680 C   0  0  0  0  0  0  0  0  0  0  0  0
   60.0948   32.8608   50.2546 H   0  0  0  0  0  0  0  0  0  0  0  0
   59.9950   34.0100   48.4190 C   0  0  0  0  0  0  0  0  0  0  0  0
   59.1097   34.5799   48.7373 H   0  0  0  0  0  0  0  0  0  0  0  0
   58.2060   31.7390   46.6480 C   0  0  0  0  0  0  0  0  0  0  0  0
   58.7292   32.4240   47.3314 H   0  0  0  0  0  0  0  0  0  0  0  0
   58.2090   30.3980   46.6960 N   0  0  0  0  0  0  0  0  0  0  0  0
   58.8240   29.5370   47.5430 C   0  0  0  0  0  0  0  0  0  0  0  0
   59.5600   29.9560   48.4760 O   0  0  0  0  0  0  0  0  0  0  0  0
   58.6220   28.1640   47.3470 C   0  0  0  0  0  0  0  0  0  0  0  0
   59.1091   27.4281   48.0037 H   0  0  0  0  0  0  0  0  0  0  0  0
  1  2  1  0
  2  3  1  0
  3  4  2  0
  4  5  1  0
  4  6  1  0
  6  7  1  0
  6  8  2  0
  8  9  1  0
  8 10  1  0
 10 11  1  0
 10 12  2  0
 12 13  1  0
 13 14  1  0
 14 15  2  0
 15 16  1  0
 16 17  1  0
 17 18  1  0
 18 19  2  0
 19 20  1  0
 20 21  2  0
 20 22  1  0
 22 23  1  0
 22 24  1  0
 22 25  1  0
 25 26  2  0
 26 27  1  0
 26 28  1  0
 28 29  1  0
 28 30  2  0
 30 31  1  0
 30 32  1  0
 32 33  1  0
 32 34  2  0
 34 35  1  0
 17 36  2  0
 36 37  1  0
 36 38  1  0
 38 39  1  0
 39 40  2  0
 39 41  1  0
 41 42  1  0
 12  3  1  0
 41 13  2  0
 38 15  1  0
 34 25  1  0
M  CHG  1  16  -1
M  END
>  <UniqueID>  (15) 
15

>  <SMILES>  (15) 
O=C(Cc1ccccc1)/N=N\c1cn2c(=O)cc(-c3ccccc3O)nc2[n-]1

>  <Energy>  (15) 
98.08853935725342

>  <Genealogy>  (15) 
O=C(Cc1ccccc1)N=Nc1cn2c(=O)cc(-c3ccccc3O)nc2[n-]1 (protonated)
O=C(Cc1ccccc1)/N=N\c1cn2c(=O)cc(-c3ccccc3O)nc2[n-]1 (cis-trans isomerization)
O=C(Cc1ccccc1)/N=N\c1cn2c(=O)cc(-c3ccccc3O)nc2[n-]1 (3D coordinates assigned)
O=C(Cc1ccccc1)/N=N\c1cn2c(=O)cc(-c3ccccc3O)nc2[n-]1 (optimized conformer: 98.08853935725342 kcal/mol)

>  <smiles>  (15) 
O=C(Cc1ccccc1)N=Nc1cn2c(=O)cc(-c3ccccc3O)nc2[nH]1

>  <score_type>  (15) 
oracle

>  <origin>  (15) 
adg

>  <m_score__min__energy>  (15) 
-11.51

>  <m_primary>  (15) 
energy

$$$$
15:0
     RDKit          3D

 35 37  0  0  0  0  0  0  0  0999 V2000
   59.9853   25.9466   45.8340 H   0  0  0  0  0  0  0  0  0  0  0  0
   58.9000   26.1120   45.9030 C   0  0  0  0  0  0  0  0  0  0  0  0
   58.3890   27.3570   45.7130 N   0  0  0  0  0  0  0  0  0  0  0  0
   57.0560   27.6250   45.7890 C   0  0  0  0  0  0  0  0  0  0  0  0
   56.6780   28.8600   45.6010 N   0  0  0  0  0  0  0  0  0  0  0  0
   57.1210   29.8050   44.6150 C   0  0  0  0  0  0  0  0  0  0  0  0
   57.0140   29.5330   43.3890 O   0  0  0  0  0  0  0  0  0  0  0  0
   57.6270   31.1270   45.0470 C   0  0  0  0  0  0  0  0  0  0  0  0
   56.8340   32.2600   44.7880 C   0  0  0  0  0  0  0  0  0  0  0  0
   55.9004   32.1519   44.2165 H   0  0  0  0  0  0  0  0  0  0  0  0
   57.2200   33.5200   45.2490 C   0  0  0  0  0  0  0  0  0  0  0  0
   56.5930   34.3984   45.0360 H   0  0  0  0  0  0  0  0  0  0  0  0
   58.3990   33.6670   45.9790 C   0  0  0  0  0  0  0  0  0  0  0  0
   58.6920   34.6574   46.3576 H   0  0  0  0  0  0  0  0  0  0  0  0
   59.2070   32.5570   46.2290 C   0  0  0  0  0  0  0  0  0  0  0  0
   60.1330   32.6774   46.8105 H   0  0  0  0  0  0  0  0  0  0  0  0
   58.8500   31.2890   45.7460 C   0  0  0  0  0  0  0  0  0  0  0  0
   60.0050   29.9280   46.0180 S   0  0  0  0  0  0  0  0  0  0  0  0
   60.0610   30.1620   47.8050 C   0  0  0  0  0  0  0  0  0  0  0  0
   59.0670   29.5680   48.5950 C   0  0  0  0  0  0  0  0  0  0  0  0
   58.2783   28.9660   48.1201 H   0  0  0  0  0  0  0  0  0  0  0  0
   59.0720   29.7360   49.9820 C   0  0  0  0  0  0  0  0  0  0  0  0
   58.2818   29.2769   50.5942 H   0  0  0  0  0  0  0  0  0  0  0  0
   60.0790   30.4860   50.5910 C   0  0  0  0  0  0  0  0  0  0  0  0
   60.0776   30.6249   51.6822 H   0  0  0  0  0  0  0  0  0  0  0  0
   61.0880   31.0600   49.8160 C   0  0  0  0  0  0  0  0  0  0  0  0
   61.8850   31.6433   50.3003 H   0  0  0  0  0  0  0  0  0  0  0  0
   61.0910   30.8970   48.4240 C   0  0  0  0  0  0  0  0  0  0  0  0
   62.4250   31.5800   47.5070 Cl  0  0  0  0  0  0  0  0  0  0  0  0
   56.1600   26.5500   46.0270 C   0  0  0  0  0  0  0  0  0  0  0  0
   54.7790   26.7090   46.0000 O   0  0  0  0  0  0  0  0  0  0  0  0
   56.6750   25.2690   46.2430 C   0  0  0  0  0  0  0  0  0  0  0  0
   55.9930   24.4335   46.4596 H   0  0  0  0  0  0  0  0  0  0  0  0
   58.0500   25.0460   46.1850 C   0  0  0  0  0  0  0  0  0  0  0  0
   58.4585   24.0397   46.3600 H   0  0  0  0  0  0  0  0  0  0  0  0
  1  2  1  0
  2  3  1  0
  3  4  1  0
  4  5  2  0
  5  6  1  0
  6  7  2  0
  6  8  1  0
  8  9  2  0
  9 10  1  0
  9 11  1  0
 11 12  1  0
 11 13  2  0
 13 14  1  0
 13 15  1  0
 15 16  1  0
 15 17  2  0
 17 18  1  0
 18 19  1  0
 19 20  2  0
 20 21  1  0
 20 22  1  0
 22 23  1  0
 22 24  2  0
 24 25  1  0
 24 26  1  0
 26 27  1  0
 26 28  2  0
 28 29  1  0
  4 30  1  0
 30 31  1  0
 30 32  2  0
 32 33  1  0
 32 34  1  0
 34 35  1  0
 34  2  2  0
 17  8  1  0
 28 19  1  0
M  CHG  2   3  -1  31  -1
M  END
>  <UniqueID>  (16) 
16

>  <SMILES>  (16) 
O=C(/N=c1/[n-]cccc1[O-])c1ccccc1Sc1ccccc1Cl

>  <Energy>  (16) 
52.768868036764076

>  <Genealogy>  (16) 
O=C(N=c1[n-]cccc1[O-])c1ccccc1Sc1ccccc1Cl (protonated)
O=C(/N=c1/[n-]cccc1[O-])c1ccccc1Sc1ccccc1Cl (cis-trans isomerization)
O=C(/N=c1/[n-]cccc1[O-])c1ccccc1Sc1ccccc1Cl (3D coordinates assigned)
O=C(/N=c1/[n-]cccc1[O-])c1ccccc1Sc1ccccc1Cl (optimized conformer: 52.768868036764076 kcal/mol)

>  <smiles>  (16) 
O=C(N=c1[nH]cccc1O)c1ccccc1Sc1ccccc1Cl

>  <score_type>  (16) 
oracle

>  <origin>  (16) 
adg

>  <m_score__min__energy>  (16) 
-14.19

>  <m_primary>  (16) 
energy

$$$$
16:0
     RDKit          3D

 45 47  0  0  0  0  0  0  0  0999 V2000
   57.7640   30.0770   46.4100 O   0  0  0  0  0  0  0  0  0  0  0  0
   57.0490   29.9640   45.3810 C   0  0  0  0  0  0  0  0  0  0  0  0
   57.0200   31.0460   44.4420 N   0  0  0  0  0  0  0  0  0  0  0  0
   57.8560   32.2390   44.5190 C   0  0  0  0  0  0  0  0  0  0  0  0
   57.4090   33.1240   45.6830 C   0  0  0  0  0  0  0  0  0  0  0  0
   58.5220   33.3320   46.6770 C   0  0  0  0  0  0  0  0  0  0  0  0
   59.6710   34.0550   46.3100 C   0  0  0  0  0  0  0  0  0  0  0  0
   60.7180   34.2230   47.2220 C   0  0  0  0  0  0  0  0  0  0  0  0
   60.6300   33.6650   48.5010 C   0  0  0  0  0  0  0  0  0  0  0  0
   59.4960   32.9350   48.8690 C   0  0  0  0  0  0  0  0  0  0  0  0
   58.4470   32.7640   47.9600 C   0  0  0  0  0  0  0  0  0  0  0  0
   56.2620   28.7300   45.1840 C   0  0  0  0  0  0  0  0  0  0  0  0
   55.1930   28.7730   44.5170 O   0  0  0  0  0  0  0  0  0  0  0  0
   56.7270   27.4310   45.7150 C   0  0  0  0  0  0  0  0  0  0  0  0
   55.9100   26.3760   46.0720 C   0  0  0  0  0  0  0  0  0  0  0  0
   54.5230   26.3410   45.9730 O   0  0  0  0  0  0  0  0  0  0  0  0
   56.7220   25.3640   46.5450 C   0  0  0  0  0  0  0  0  0  0  0  0
   56.3070   24.0490   47.0560 C   0  0  0  0  0  0  0  0  0  0  0  0
   55.0860   23.7420   47.1090 O   0  0  0  0  0  0  0  0  0  0  0  0
   57.2610   23.1350   47.4810 O   0  0  0  0  0  0  0  0  0  0  0  0
   58.0160   25.8430   46.4720 C   0  0  0  0  0  0  0  0  0  0  0  0
   58.0180   27.0940   45.9590 N   0  0  0  0  0  0  0  0  0  0  0  0
   59.1690   27.9520   45.9050 C   0  0  0  0  0  0  0  0  0  0  0  0
   59.6770   28.3240   44.6490 C   0  0  0  0  0  0  0  0  0  0  0  0
   60.7600   29.1960   44.5490 C   0  0  0  0  0  0  0  0  0  0  0  0
   61.3410   29.7190   45.7030 C   0  0  0  0  0  0  0  0  0  0  0  0
   60.8500   29.3620   46.9600 C   0  0  0  0  0  0  0  0  0  0  0  0
   59.7700   28.4680   47.0840 C   0  0  0  0  0  0  0  0  0  0  0  0
   59.3320   28.0650   48.4430 C   0  0  0  0  0  0  0  0  0  0  0  0
   59.7130   26.9770   48.9510 O   0  0  0  0  0  0  0  0  0  0  0  0
   58.5230   28.9090   49.1950 O   0  0  0  0  0  0  0  0  0  0  0  0
   58.9033   31.9393   44.6720 H   0  0  0  0  0  0  0  0  0  0  0  0
   57.7601   32.8052   43.5808 H   0  0  0  0  0  0  0  0  0  0  0  0
   57.0945   34.1015   45.2886 H   0  0  0  0  0  0  0  0  0  0  0  0
   56.5757   32.6231   46.1975 H   0  0  0  0  0  0  0  0  0  0  0  0
   59.7466   34.4898   45.3024 H   0  0  0  0  0  0  0  0  0  0  0  0
   61.6120   34.7949   46.9326 H   0  0  0  0  0  0  0  0  0  0  0  0
   61.4533   33.8005   49.2178 H   0  0  0  0  0  0  0  0  0  0  0  0
   59.4287   32.4946   49.8747 H   0  0  0  0  0  0  0  0  0  0  0  0
   57.5596   32.1825   48.2506 H   0  0  0  0  0  0  0  0  0  0  0  0
   58.9127   25.2882   46.7852 H   0  0  0  0  0  0  0  0  0  0  0  0
   59.2152   27.9229   43.7348 H   0  0  0  0  0  0  0  0  0  0  0  0
   61.1557   29.4711   43.5602 H   0  0  0  0  0  0  0  0  0  0  0  0
   62.1889   30.4151   45.6229 H   0  0  0  0  0  0  0  0  0  0  0  0
   61.3126   29.7843   47.8642 H   0  0  0  0  0  0  0  0  0  0  0  0
  1  2  2  0
  2  3  1  0
  3  4  1  0
  4  5  1  0
  5  6  1  0
  6  7  2  0
  7  8  1  0
  8  9  2  0
  9 10  1  0
 10 11  2  0
  2 12  1  0
 12 13  2  0
 12 14  1  0
 14 15  2  0
 15 16  1  0
 15 17  1  0
 17 18  1  0
 18 19  2  0
 18 20  1  0
 17 21  2  0
 21 22  1  0
 22 23  1  0
 23 24  2  0
 24 25  1  0
 25 26  2  0
 26 27  1  0
 27 28  2  0
 28 29  1  0
 29 30  2  0
 29 31  1  0
 11  6  1  0
 22 14  1  0
 28 23  1  0
  4 32  1  0
  4 33  1  0
  5 34  1  0
  5 35  1  0
  7 36  1  0
  8 37  1  0
  9 38  1  0
 10 39  1  0
 11 40  1  0
 21 41  1  0
 24 42  1  0
 25 43  1  0
 26 44  1  0
 27 45  1  0
M  CHG  4   3  -1  16  -1  20  -1  31  -1
M  END
>  <UniqueID>  (17) 
17

>  <SMILES>  (17) 
O=C([N-]CCc1ccccc1)C(=O)c1c([O-])c(C(=O)[O-])cn1-c1ccccc1C(=O)[O-]

>  <Energy>  (17) 
85.22911798158015

>  <Genealogy>  (17) 
O=C([N-]CCc1ccccc1)C(=O)c1c([O-])c(C(=O)[O-])cn1-c1ccccc1C(=O)[O-] (protonated)
O=C([N-]CCc1ccccc1)C(=O)c1c([O-])c(C(=O)[O-])cn1-c1ccccc1C(=O)[O-] (3D coordinates assigned)
O=C([N-]CCc1ccccc1)C(=O)c1c([O-])c(C(=O)[O-])cn1-c1ccccc1C(=O)[O-] (optimized conformer: 85.22911798158015 kcal/mol)

>  <smiles>  (17) 
O=C(NCCc1ccccc1)C(=O)c1c(O)c(C(=O)O)cn1-c1ccccc1C(=O)O

>  <score_type>  (17) 
oracle

>  <origin>  (17) 
adg

>  <m_score__min__energy>  (17) 
-14.52

>  <m_primary>  (17) 
energy

$$$$
17:0
     RDKit          3D

 89 94  0  0  0  0  0  0  0  0999 V2000
   66.4840   28.4260   51.5550 C   0  0  0  0  0  0  0  0  0  0  0  0
   67.3230   29.6430   51.1930 C   0  0  0  0  0  0  0  0  0  0  0  0
   66.4740   30.8620   51.2120 N   0  0  0  0  0  0  0  0  0  0  0  0
   65.0900   30.5660   51.6560 C   0  0  0  0  0  0  0  0  0  0  0  0
   64.7900   31.2160   53.0140 C   0  0  0  0  0  0  0  0  0  0  0  0
   63.0450   31.4930   53.2540 Cl  0  0  0  0  0  0  0  0  0  0  0  0
   67.0750   31.9350   52.0370 C   0  0  0  0  0  0  0  0  0  0  0  0
   67.4010   33.1720   51.1870 C   0  0  0  0  0  0  0  0  0  0  0  0
   66.2740   34.0460   51.1260 O   0  0  0  0  0  0  0  0  0  0  0  0
   65.0500   33.7460   50.5090 C   0  0  0  0  0  0  0  0  0  0  0  0
   64.9600   33.0030   49.3140 C   0  0  0  0  0  0  0  0  0  0  0  0
   63.7110   32.7340   48.7440 C   0  0  0  0  0  0  0  0  0  0  0  0
   62.5390   33.1680   49.3710 C   0  0  0  0  0  0  0  0  0  0  0  0
   61.2740   32.9120   48.7490 N   0  0  0  0  0  0  0  0  0  0  0  0
   60.6880   31.7800   48.4370 C   0  0  0  0  0  0  0  0  0  0  0  0
   60.8450   30.5640   49.1740 C   0  0  0  0  0  0  0  0  0  0  0  0
   61.8920   30.3210   50.0970 C   0  0  0  0  0  0  0  0  0  0  0  0
   61.9410   29.1290   50.8290 C   0  0  0  0  0  0  0  0  0  0  0  0
   60.9900   28.1320   50.6140 C   0  0  0  0  0  0  0  0  0  0  0  0
   60.0190   28.3030   49.6310 C   0  0  0  0  0  0  0  0  0  0  0  0
   59.9650   29.4890   48.8900 C   0  0  0  0  0  0  0  0  0  0  0  0
   59.0880   29.5740   47.8610 N   0  0  0  0  0  0  0  0  0  0  0  0
   58.9940   30.6630   47.0590 C   0  0  0  0  0  0  0  0  0  0  0  0
   58.0990   30.6640   45.9610 C   0  0  0  0  0  0  0  0  0  0  0  0
   57.2390   29.4950   45.6340 C   0  0  0  0  0  0  0  0  0  0  0  0
   56.2150   29.6650   44.9160 O   0  0  0  0  0  0  0  0  0  0  0  0
   57.5170   28.1920   46.1780 N   0  0  0  0  0  0  0  0  0  0  0  0
   57.0650   26.9620   45.5830 C   0  0  0  0  0  0  0  0  0  0  0  0
   55.8960   26.3160   46.0250 C   0  0  0  0  0  0  0  0  0  0  0  0
   55.4810   25.1200   45.4300 C   0  0  0  0  0  0  0  0  0  0  0  0
   56.2100   24.5670   44.3710 C   0  0  0  0  0  0  0  0  0  0  0  0
   55.6920   23.0550   43.6260 S   0  0  0  0  0  0  0  0  0  0  0  0
   55.1250   22.1490   44.6840 O   0  0  0  0  0  0  0  0  0  0  0  0
   54.6140   23.3380   42.6160 O   0  0  0  0  0  0  0  0  0  0  0  0
   57.0240   22.2530   42.8490 N   0  0  0  0  0  0  0  0  0  0  0  0
   57.6370   21.2980   43.7720 C   0  0  0  0  0  0  0  0  0  0  0  0
   58.4790   22.0360   44.8130 C   0  0  0  0  0  0  0  0  0  0  0  0
   57.7300   22.2230   46.1090 C   0  0  0  0  0  0  0  0  0  0  0  0
   57.7410   23.4680   46.7630 C   0  0  0  0  0  0  0  0  0  0  0  0
   57.0460   23.6380   47.9650 C   0  0  0  0  0  0  0  0  0  0  0  0
   56.3440   22.5680   48.5270 C   0  0  0  0  0  0  0  0  0  0  0  0
   56.3360   21.3240   47.8890 C   0  0  0  0  0  0  0  0  0  0  0  0
   57.0320   21.1480   46.6870 C   0  0  0  0  0  0  0  0  0  0  0  0
   57.3600   25.2220   43.9090 C   0  0  0  0  0  0  0  0  0  0  0  0
   57.7820   26.4120   44.5080 C   0  0  0  0  0  0  0  0  0  0  0  0
   58.0470   31.7920   45.1270 C   0  0  0  0  0  0  0  0  0  0  0  0
   58.8410   32.9060   45.3840 C   0  0  0  0  0  0  0  0  0  0  0  0
   59.7120   32.9130   46.4700 C   0  0  0  0  0  0  0  0  0  0  0  0
   59.8150   31.7890   47.3180 C   0  0  0  0  0  0  0  0  0  0  0  0
   62.6270   33.9360   50.5420 C   0  0  0  0  0  0  0  0  0  0  0  0
   63.8740   34.2060   51.1140 C   0  0  0  0  0  0  0  0  0  0  0  0
   66.4219   28.3359   52.6495 H   0  0  0  0  0  0  0  0  0  0  0  0
   65.4724   28.5410   51.1386 H   0  0  0  0  0  0  0  0  0  0  0  0
   66.9513   27.5215   51.1386 H   0  0  0  0  0  0  0  0  0  0  0  0
   68.1387   29.7545   51.9225 H   0  0  0  0  0  0  0  0  0  0  0  0
   67.7433   29.5083   50.1854 H   0  0  0  0  0  0  0  0  0  0  0  0
   64.3828   30.9547   50.9085 H   0  0  0  0  0  0  0  0  0  0  0  0
   64.9842   29.4762   51.7613 H   0  0  0  0  0  0  0  0  0  0  0  0
   65.1573   30.5547   53.8126 H   0  0  0  0  0  0  0  0  0  0  0  0
   65.2950   32.1929   53.0409 H   0  0  0  0  0  0  0  0  0  0  0  0
   66.3653   32.2198   52.8277 H   0  0  0  0  0  0  0  0  0  0  0  0
   68.0106   31.5560   52.4739 H   0  0  0  0  0  0  0  0  0  0  0  0
   68.2504   33.7070   51.6367 H   0  0  0  0  0  0  0  0  0  0  0  0
   67.6555   32.8469   50.1674 H   0  0  0  0  0  0  0  0  0  0  0  0
   65.8751   32.6335   48.8282 H   0  0  0  0  0  0  0  0  0  0  0  0
   63.6506   32.1778   47.7969 H   0  0  0  0  0  0  0  0  0  0  0  0
   62.6764   31.0788   50.2402 H   0  0  0  0  0  0  0  0  0  0  0  0
   62.7331   28.9780   51.5771 H   0  0  0  0  0  0  0  0  0  0  0  0
   61.0070   27.2135   51.2190 H   0  0  0  0  0  0  0  0  0  0  0  0
   59.2907   27.5020   49.4358 H   0  0  0  0  0  0  0  0  0  0  0  0
   57.9860   28.1440   47.1120 H   0  0  0  0  0  0  0  0  0  0  0  0
   55.3051   26.7538   46.8430 H   0  0  0  0  0  0  0  0  0  0  0  0
   54.5770   24.6115   45.7963 H   0  0  0  0  0  0  0  0  0  0  0  0
   56.8470   20.7272   44.2820 H   0  0  0  0  0  0  0  0  0  0  0  0
   58.2860   20.6155   43.2037 H   0  0  0  0  0  0  0  0  0  0  0  0
   59.3917   21.4545   45.0100 H   0  0  0  0  0  0  0  0  0  0  0  0
   58.7229   23.0310   44.4124 H   0  0  0  0  0  0  0  0  0  0  0  0
   58.2980   24.3109   46.3279 H   0  0  0  0  0  0  0  0  0  0  0  0
   57.0520   24.6158   48.4689 H   0  0  0  0  0  0  0  0  0  0  0  0
   55.7975   22.7047   49.4718 H   0  0  0  0  0  0  0  0  0  0  0  0
   55.7824   20.4828   48.3318 H   0  0  0  0  0  0  0  0  0  0  0  0
   57.0328   20.1652   46.1930 H   0  0  0  0  0  0  0  0  0  0  0  0
   57.9328   24.7975   43.0713 H   0  0  0  0  0  0  0  0  0  0  0  0
   58.6825   26.9217   44.1347 H   0  0  0  0  0  0  0  0  0  0  0  0
   57.3704   31.7956   44.2597 H   0  0  0  0  0  0  0  0  0  0  0  0
   58.7800   33.7852   44.7257 H   0  0  0  0  0  0  0  0  0  0  0  0
   60.3263   33.8035   46.6694 H   0  0  0  0  0  0  0  0  0  0  0  0
   61.7122   34.3269   51.0114 H   0  0  0  0  0  0  0  0  0  0  0  0
   63.9317   34.7849   52.0476 H   0  0  0  0  0  0  0  0  0  0  0  0
  1  2  1  0
  2  3  1  0
  3  4  1  0
  4  5  1  0
  5  6  1  0
  3  7  1  0
  7  8  1  0
  8  9  1  0
  9 10  1  0
 10 11  2  0
 11 12  1  0
 12 13  2  0
 13 14  1  0
 14 15  2  3
 15 16  1  0
 16 17  2  0
 17 18  1  0
 18 19  2  0
 19 20  1  0
 20 21  2  0
 21 22  1  0
 22 23  1  0
 23 24  2  0
 24 25  1  0
 25 26  2  0
 25 27  1  0
 27 28  1  0
 28 29  2  0
 29 30  1  0
 30 31  2  0
 31 32  1  0
 32 33  2  0
 32 34  2  0
 32 35  1  0
 35 36  1  0
 36 37  1  0
 37 38  1  0
 38 39  2  0
 39 40  1  0
 40 41  2  0
 41 42  1  0
 42 43  2  0
 31 44  1  0
 44 45  2  0
 24 46  1  0
 46 47  2  0
 47 48  1  0
 48 49  2  0
 13 50  1  0
 50 51  2  0
 51 10  1  0
 49 15  1  0
 21 16  1  0
 49 23  1  0
 45 28  1  0
 43 38  1  0
  1 52  1  0
  1 53  1  0
  1 54  1  0
  2 55  1  0
  2 56  1  0
  4 57  1  0
  4 58  1  0
  5 59  1  0
  5 60  1  0
  7 61  1  0
  7 62  1  0
  8 63  1  0
  8 64  1  0
 11 65  1  0
 12 66  1  0
 17 67  1  0
 18 68  1  0
 19 69  1  0
 20 70  1  0
 27 71  1  0
 29 72  1  0
 30 73  1  0
 36 74  1  0
 36 75  1  0
 37 76  1  0
 37 77  1  0
 39 78  1  0
 40 79  1  0
 41 80  1  0
 42 81  1  0
 43 82  1  0
 44 83  1  0
 45 84  1  0
 46 85  1  0
 47 86  1  0
 48 87  1  0
 50 88  1  0
 51 89  1  0
M  CHG  2  22  -1  35  -1
M  END
>  <UniqueID>  (18) 
18

>  <SMILES>  (18) 
CCN(CCCl)CCOc1ccc(N=c2c3ccccc3[n-]c3c(C(=O)Nc4ccc(S(=O)(=O)[N-]CCc5ccccc5)cc4)cccc23)cc1

>  <Energy>  (18) 
130.03397301504637

>  <Genealogy>  (18) 
CCN(CCCl)CCOc1ccc(N=c2c3ccccc3[n-]c3c(C(=O)Nc4ccc(S(=O)(=O)[N-]CCc5ccccc5)cc4)cccc23)cc1 (protonated)
CCN(CCCl)CCOc1ccc(N=c2c3ccccc3[n-]c3c(C(=O)Nc4ccc(S(=O)(=O)[N-]CCc5ccccc5)cc4)cccc23)cc1 (3D coordinates assigned)
CCN(CCCl)CCOc1ccc(N=c2c3ccccc3[n-]c3c(C(=O)Nc4ccc(S(=O)(=O)[N-]CCc5ccccc5)cc4)cccc23)cc1 (optimized conformer: 130.03397301504637 kcal/mol)

>  <smiles>  (18) 
CCN(CCCl)CCOc1ccc(N=c2c3ccccc3[nH]c3c(C(=O)Nc4ccc(S(=O)(=O)NCCc5ccccc5)cc4)cccc23)cc1

>  <score_type>  (18) 
oracle

>  <origin>  (18) 
adg

>  <m_score__min__energy>  (18) 
-13.06

>  <m_primary>  (18) 
energy

$$$$
18:0
     RDKit          3D

 53 55  0  0  0  0  0  0  0  0999 V2000
   57.4730   21.5290   43.6630 C   0  0  0  0  0  0  0  0  0  0  0  0
   56.1940   22.1290   43.8360 O   0  0  0  0  0  0  0  0  0  0  0  0
   55.9210   23.2860   44.5840 C   0  0  0  0  0  0  0  0  0  0  0  0
   57.0210   24.0200   45.0480 C   0  0  0  0  0  0  0  0  0  0  0  0
   56.8490   25.2310   45.7410 C   0  0  0  0  0  0  0  0  0  0  0  0
   58.0400   26.0210   46.2360 C   0  0  0  0  0  0  0  0  0  0  0  0
   59.4020   25.4620   45.7830 C   0  0  0  0  0  0  0  0  0  0  0  0
   60.6160   25.9310   46.6140 C   0  0  0  0  0  0  0  0  0  0  0  0
   60.4390   27.2810   47.2100 N   0  0  0  0  0  0  0  0  0  0  0  0
   60.2660   28.4050   46.4260 C   0  0  0  0  0  0  0  0  0  0  0  0
   60.3900   28.3380   44.9130 C   0  0  0  0  0  0  0  0  0  0  0  0
   59.9170   29.6330   47.0350 C   0  0  0  0  0  0  0  0  0  0  0  0
   59.4950   30.8110   46.2290 C   0  0  0  0  0  0  0  0  0  0  0  0
   60.1290   31.8910   46.3830 O   0  0  0  0  0  0  0  0  0  0  0  0
   58.3640   30.7600   45.2630 C   0  0  0  0  0  0  0  0  0  0  0  0
   58.3650   31.5400   44.0910 C   0  0  0  0  0  0  0  0  0  0  0  0
   57.3040   31.4660   43.1840 C   0  0  0  0  0  0  0  0  0  0  0  0
   56.2300   30.6110   43.4320 C   0  0  0  0  0  0  0  0  0  0  0  0
   56.2130   29.8270   44.5890 C   0  0  0  0  0  0  0  0  0  0  0  0
   55.1430   28.9760   44.8330 O   0  0  0  0  0  0  0  0  0  0  0  0
   57.2730   29.8990   45.4990 C   0  0  0  0  0  0  0  0  0  0  0  0
   59.8760   29.6990   48.4320 C   0  0  0  0  0  0  0  0  0  0  0  0
   59.5410   30.7790   48.9950 O   0  0  0  0  0  0  0  0  0  0  0  0
   60.1720   28.5990   49.1850 N   0  0  0  0  0  0  0  0  0  0  0  0
   60.1670   28.6940   50.6560 C   0  0  0  0  0  0  0  0  0  0  0  0
   60.3680   27.3860   48.5800 C   0  0  0  0  0  0  0  0  0  0  0  0
   60.4700   26.3500   49.2960 O   0  0  0  0  0  0  0  0  0  0  0  0
   55.5500   25.6600   46.0440 C   0  0  0  0  0  0  0  0  0  0  0  0
   54.4450   24.9200   45.6230 C   0  0  0  0  0  0  0  0  0  0  0  0
   54.6170   23.7430   44.8890 C   0  0  0  0  0  0  0  0  0  0  0  0
   53.4860   23.0480   44.4820 O   0  0  0  0  0  0  0  0  0  0  0  0
   57.9166   21.3209   44.6478 H   0  0  0  0  0  0  0  0  0  0  0  0
   57.3640   20.5881   43.1037 H   0  0  0  0  0  0  0  0  0  0  0  0
   58.1269   22.2143   43.1037 H   0  0  0  0  0  0  0  0  0  0  0  0
   58.0378   23.6416   44.8666 H   0  0  0  0  0  0  0  0  0  0  0  0
   57.9491   27.0519   45.8631 H   0  0  0  0  0  0  0  0  0  0  0  0
   58.0239   25.9616   47.3343 H   0  0  0  0  0  0  0  0  0  0  0  0
   59.3549   24.3645   45.8394 H   0  0  0  0  0  0  0  0  0  0  0  0
   59.5644   25.8438   44.7642 H   0  0  0  0  0  0  0  0  0  0  0  0
   60.7807   25.2097   47.4280 H   0  0  0  0  0  0  0  0  0  0  0  0
   61.4747   25.9892   45.9290 H   0  0  0  0  0  0  0  0  0  0  0  0
   61.3284   27.8310   44.6441 H   0  0  0  0  0  0  0  0  0  0  0  0
   59.5387   27.7771   44.4998 H   0  0  0  0  0  0  0  0  0  0  0  0
   60.3926   29.3574   44.4998 H   0  0  0  0  0  0  0  0  0  0  0  0
   59.2095   32.2147   43.8869 H   0  0  0  0  0  0  0  0  0  0  0  0
   57.3160   32.0829   42.2733 H   0  0  0  0  0  0  0  0  0  0  0  0
   55.3962   30.5538   42.7168 H   0  0  0  0  0  0  0  0  0  0  0  0
   57.2551   29.2782   46.4069 H   0  0  0  0  0  0  0  0  0  0  0  0
   60.2202   27.6841   51.0888 H   0  0  0  0  0  0  0  0  0  0  0  0
   61.0355   29.2816   50.9884 H   0  0  0  0  0  0  0  0  0  0  0  0
   59.2416   29.1872   50.9884 H   0  0  0  0  0  0  0  0  0  0  0  0
   55.4006   26.5866   46.6177 H   0  0  0  0  0  0  0  0  0  0  0  0
   53.4304   25.2654   45.8706 H   0  0  0  0  0  0  0  0  0  0  0  0
  1  2  1  0
  2  3  1  0
  3  4  2  0
  4  5  1  0
  5  6  1  0
  6  7  1  0
  7  8  1  0
  8  9  1  0
  9 10  1  0
 10 11  1  0
 10 12  2  0
 12 13  1  0
 13 14  2  0
 13 15  1  0
 15 16  2  0
 16 17  1  0
 17 18  2  0
 18 19  1  0
 19 20  1  0
 19 21  2  0
 12 22  1  0
 22 23  2  0
 22 24  1  0
 24 25  1  0
 24 26  1  0
 26 27  2  0
  5 28  2  0
 28 29  1  0
 29 30  2  0
 30 31  1  0
 30  3  1  0
 26  9  1  0
 21 15  1  0
  1 32  1  0
  1 33  1  0
  1 34  1  0
  4 35  1  0
  6 36  1  0
  6 37  1  0
  7 38  1  0
  7 39  1  0
  8 40  1  0
  8 41  1  0
 11 42  1  0
 11 43  1  0
 11 44  1  0
 16 45  1  0
 17 46  1  0
 18 47  1  0
 21 48  1  0
 25 49  1  0
 25 50  1  0
 25 51  1  0
 28 52  1  0
 29 53  1  0
M  CHG  2  20  -1  31  -1
M  END
>  <UniqueID>  (19) 
19

>  <SMILES>  (19) 
COc1cc(CCCn2c(C)c(C(=O)c3cccc([O-])c3)c(=O)n(C)c2=O)ccc1[O-]

>  <Energy>  (19) 
72.17425911926036

>  <Genealogy>  (19) 
COc1cc(CCCn2c(C)c(C(=O)c3cccc([O-])c3)c(=O)n(C)c2=O)ccc1[O-] (protonated)
COc1cc(CCCn2c(C)c(C(=O)c3cccc([O-])c3)c(=O)n(C)c2=O)ccc1[O-] (3D coordinates assigned)
COc1cc(CCCn2c(C)c(C(=O)c3cccc([O-])c3)c(=O)n(C)c2=O)ccc1[O-] (optimized conformer: 72.17425911926036 kcal/mol)

>  <smiles>  (19) 
COc1cc(CCCn2c(C)c(C(=O)c3cccc(O)c3)c(=O)n(C)c2=O)ccc1O

>  <score_type>  (19) 
oracle

>  <origin>  (19) 
adg

>  <m_score__min__energy>  (19) 
-14.81

>  <m_primary>  (19) 
energy

$$$$
19:0
     RDKit          3D

 39 41  0  0  0  0  0  0  0  0999 V2000
   54.7660   27.1030   45.9830 H   0  0  0  0  0  0  0  0  0  0  0  0
   54.3250   26.1990   45.8560 O   0  0  0  0  0  0  0  0  0  0  0  0
   55.0540   25.0130   45.9420 C   0  0  0  0  0  0  0  0  0  0  0  0
   54.3850   23.7800   45.9100 C   0  0  0  0  0  0  0  0  0  0  0  0
   53.2950   23.7517   45.7647 H   0  0  0  0  0  0  0  0  0  0  0  0
   55.0980   22.5880   46.0620 C   0  0  0  0  0  0  0  0  0  0  0  0
   54.5692   21.6239   46.0312 H   0  0  0  0  0  0  0  0  0  0  0  0
   56.4810   22.6190   46.2530 C   0  0  0  0  0  0  0  0  0  0  0  0
   57.0393   21.6803   46.3838 H   0  0  0  0  0  0  0  0  0  0  0  0
   57.1560   23.8430   46.2780 C   0  0  0  0  0  0  0  0  0  0  0  0
   58.2433   23.8638   46.4432 H   0  0  0  0  0  0  0  0  0  0  0  0
   56.4570   25.0440   46.0940 C   0  0  0  0  0  0  0  0  0  0  0  0
   57.1900   26.2760   46.1340 N   0  0  0  0  0  0  0  0  0  0  0  0
   57.4040   27.1540   45.0220 C   0  0  0  0  0  0  0  0  0  0  0  0
   57.5790   26.6750   43.8690 O   0  0  0  0  0  0  0  0  0  0  0  0
   57.4680   28.6190   45.2320 C   0  0  0  0  0  0  0  0  0  0  0  0
   56.6050   29.4850   44.5430 C   0  0  0  0  0  0  0  0  0  0  0  0
   55.8680   29.0751   43.8367 H   0  0  0  0  0  0  0  0  0  0  0  0
   56.6750   30.8290   44.7440 N   0  0  0  0  0  0  0  0  0  0  0  0
   57.5650   31.3920   45.6030 C   0  0  0  0  0  0  0  0  0  0  0  0
   57.5670   32.6880   45.7360 N   0  0  0  0  0  0  0  0  0  0  0  0
   57.3690   33.4300   46.9800 C   0  0  0  0  0  0  0  0  0  0  0  0
   57.0313   34.4511   46.7492 H   0  0  0  0  0  0  0  0  0  0  0  0
   56.6086   32.9250   47.5938 H   0  0  0  0  0  0  0  0  0  0  0  0
   58.6710   33.4890   47.7360 C   0  0  0  0  0  0  0  0  0  0  0  0
   58.8060   32.8020   48.9600 C   0  0  0  0  0  0  0  0  0  0  0  0
   57.7810   32.0690   49.4620 F   0  0  0  0  0  0  0  0  0  0  0  0
   60.0030   32.8710   49.6790 C   0  0  0  0  0  0  0  0  0  0  0  0
   60.1045   32.3237   50.6278 H   0  0  0  0  0  0  0  0  0  0  0  0
   61.0690   33.6310   49.1980 C   0  0  0  0  0  0  0  0  0  0  0  0
   62.0107   33.6773   49.7647 H   0  0  0  0  0  0  0  0  0  0  0  0
   60.9420   34.3330   47.9980 C   0  0  0  0  0  0  0  0  0  0  0  0
   61.7832   34.9357   47.6251 H   0  0  0  0  0  0  0  0  0  0  0  0
   59.7500   34.2740   47.2670 C   0  0  0  0  0  0  0  0  0  0  0  0
   59.6400   35.2050   45.7760 Cl  0  0  0  0  0  0  0  0  0  0  0  0
   58.4510   30.5590   46.3140 C   0  0  0  0  0  0  0  0  0  0  0  0
   59.1799   30.9942   47.0136 H   0  0  0  0  0  0  0  0  0  0  0  0
   58.3970   29.1770   46.1240 C   0  0  0  0  0  0  0  0  0  0  0  0
   59.0864   28.5217   46.6765 H   0  0  0  0  0  0  0  0  0  0  0  0
  1  2  1  0
  2  3  1  0
  3  4  2  0
  4  5  1  0
  4  6  1  0
  6  7  1  0
  6  8  2  0
  8  9  1  0
  8 10  1  0
 10 11  1  0
 10 12  2  0
 12 13  1  0
 13 14  1  0
 14 15  2  0
 14 16  1  0
 16 17  2  0
 17 18  1  0
 17 19  1  0
 19 20  1  0
 20 21  2  0
 21 22  1  0
 22 23  1  0
 22 24  1  0
 22 25  1  0
 25 26  2  0
 26 27  1  0
 26 28  1  0
 28 29  1  0
 28 30  2  0
 30 31  1  0
 30 32  1  0
 32 33  1  0
 32 34  2  0
 34 35  1  0
 20 36  1  0
 36 37  1  0
 36 38  2  0
 38 39  1  0
 12  3  1  0
 38 16  1  0
 34 25  1  0
M  CHG  2  13  -1  19  -1
M  END
>  <UniqueID>  (20) 
20

>  <SMILES>  (20) 
O=C([N-]c1ccccc1O)c1cc/c(=N\Cc2c(F)cccc2Cl)[n-]c1

>  <Energy>  (20) 
51.25856933407158

>  <Genealogy>  (20) 
O=C([N-]c1ccccc1O)c1ccc(=NCc2c(F)cccc2Cl)[n-]c1 (protonated)
O=C([N-]c1ccccc1O)c1cc/c(=N\Cc2c(F)cccc2Cl)[n-]c1 (cis-trans isomerization)
O=C([N-]c1ccccc1O)c1cc/c(=N\Cc2c(F)cccc2Cl)[n-]c1 (3D coordinates assigned)
O=C([N-]c1ccccc1O)c1cc/c(=N\Cc2c(F)cccc2Cl)[n-]c1 (optimized conformer: 51.25856933407158 kcal/mol)

>  <smiles>  (20) 
O=C(Nc1ccccc1O)c1ccc(=NCc2c(F)cccc2Cl)[nH]c1

>  <score_type>  (20) 
oracle

>  <origin>  (20) 
adg

>  <m_score__min__energy>  (20) 
-11.67

>  <m_primary>  (20) 
energy

$$$$
20:0
     RDKit          3D

 60 64  0  0  0  0  0  0  0  0999 V2000
   56.4160   21.5940   48.3960 C   0  0  0  0  0  0  0  0  0  0  0  0
   57.3390   22.5070   47.8100 O   0  0  0  0  0  0  0  0  0  0  0  0
   56.9870   23.7660   47.3010 C   0  0  0  0  0  0  0  0  0  0  0  0
   55.8530   23.8640   46.4890 C   0  0  0  0  0  0  0  0  0  0  0  0
   55.4730   25.0950   45.9440 C   0  0  0  0  0  0  0  0  0  0  0  0
   56.2120   26.2530   46.2350 C   0  0  0  0  0  0  0  0  0  0  0  0
   55.8960   27.5140   45.6340 N   0  0  0  0  0  0  0  0  0  0  0  0
   56.7640   28.3400   44.8480 C   0  0  0  0  0  0  0  0  0  0  0  0
   57.7650   27.8000   44.3040 O   0  0  0  0  0  0  0  0  0  0  0  0
   56.6280   29.8580   44.8210 C   0  0  2  0  0  0  0  0  0  0  0  0
   56.9010   30.4090   43.4110 C   0  0  0  0  0  0  0  0  0  0  0  0
   56.2720   29.7600   42.2130 C   0  0  0  0  0  0  0  0  0  0  0  0
   57.5270   31.5340   43.2220 N   0  0  0  0  0  0  0  0  0  0  0  0
   58.0450   32.2790   44.3130 C   0  0  0  0  0  0  0  0  0  0  0  0
   58.6770   33.4600   44.2050 N   0  0  0  0  0  0  0  0  0  0  0  0
   58.9810   33.7050   45.5020 C   0  0  0  0  0  0  0  0  0  0  0  0
   59.8820   35.1540   46.0400 S   0  0  0  0  0  0  0  0  0  0  0  0
   60.2120   34.5120   47.7190 C   0  0  0  0  0  0  0  0  0  0  0  0
   61.3550   33.5350   47.6930 C   0  0  0  0  0  0  0  0  0  0  0  0
   62.5780   33.8840   47.0950 C   0  0  0  0  0  0  0  0  0  0  0  0
   63.6370   32.9720   47.0720 C   0  0  0  0  0  0  0  0  0  0  0  0
   63.4860   31.7130   47.6560 C   0  0  0  0  0  0  0  0  0  0  0  0
   62.2780   31.3610   48.2630 C   0  0  0  0  0  0  0  0  0  0  0  0
   61.2150   32.2690   48.2850 C   0  0  0  0  0  0  0  0  0  0  0  0
   58.5710   32.7300   46.3440 N   0  0  0  0  0  0  0  0  0  0  0  0
   57.9680   31.8490   45.5700 N   0  0  0  0  0  0  0  0  0  0  0  0
   57.4550   30.5450   45.9800 C   0  0  2  0  0  0  0  0  0  0  0  0
   58.6070   29.6960   46.5070 C   0  0  0  0  0  0  0  0  0  0  0  0
   58.6440   29.3210   47.8630 C   0  0  0  0  0  0  0  0  0  0  0  0
   59.7130   28.5730   48.3640 C   0  0  0  0  0  0  0  0  0  0  0  0
   60.7610   28.2010   47.5230 C   0  0  0  0  0  0  0  0  0  0  0  0
   60.7470   28.5780   46.1790 C   0  0  0  0  0  0  0  0  0  0  0  0
   59.6790   29.3250   45.6640 C   0  0  0  0  0  0  0  0  0  0  0  0
   59.6860   29.7040   44.3210 O   0  0  0  0  0  0  0  0  0  0  0  0
   57.3580   26.1540   47.0270 C   0  0  0  0  0  0  0  0  0  0  0  0
   57.7420   24.9240   47.5670 C   0  0  0  0  0  0  0  0  0  0  0  0
   56.4817   21.6590   49.4921 H   0  0  0  0  0  0  0  0  0  0  0  0
   55.3951   21.8475   48.0742 H   0  0  0  0  0  0  0  0  0  0  0  0
   56.6583   20.5704   48.0742 H   0  0  0  0  0  0  0  0  0  0  0  0
   55.2547   22.9656   46.2770 H   0  0  0  0  0  0  0  0  0  0  0  0
   54.5935   25.1560   45.2862 H   0  0  0  0  0  0  0  0  0  0  0  0
   55.5840   30.1264   45.0401 H   0  0  0  0  0  0  0  0  0  0  0  0
   55.5421   29.0069   42.5449 H   0  0  0  0  0  0  0  0  0  0  0  0
   55.7615   30.5238   41.6080 H   0  0  0  0  0  0  0  0  0  0  0  0
   57.0514   29.2736   41.6080 H   0  0  0  0  0  0  0  0  0  0  0  0
   60.4673   35.3505   48.3837 H   0  0  0  0  0  0  0  0  0  0  0  0
   59.3120   33.9976   48.0869 H   0  0  0  0  0  0  0  0  0  0  0  0
   62.7024   34.8791   46.6431 H   0  0  0  0  0  0  0  0  0  0  0  0
   64.5890   33.2462   46.5939 H   0  0  0  0  0  0  0  0  0  0  0  0
   64.3203   30.9963   47.6382 H   0  0  0  0  0  0  0  0  0  0  0  0
   62.1630   30.3689   48.7239 H   0  0  0  0  0  0  0  0  0  0  0  0
   60.2663   31.9911   48.7674 H   0  0  0  0  0  0  0  0  0  0  0  0
   56.7359   30.6659   46.8035 H   0  0  0  0  0  0  0  0  0  0  0  0
   57.8249   29.6191   48.5340 H   0  0  0  0  0  0  0  0  0  0  0  0
   59.7276   28.2773   49.4234 H   0  0  0  0  0  0  0  0  0  0  0  0
   61.5998   27.6098   47.9190 H   0  0  0  0  0  0  0  0  0  0  0  0
   61.5788   28.2871   45.5206 H   0  0  0  0  0  0  0  0  0  0  0  0
   58.8630   29.6080   43.7360 H   0  0  0  0  0  0  0  0  0  0  0  0
   57.9626   27.0509   47.2271 H   0  0  0  0  0  0  0  0  0  0  0  0
   58.6377   24.8602   48.2024 H   0  0  0  0  0  0  0  0  0  0  0  0
  1  2  1  0
  2  3  1  0
  3  4  2  0
  4  5  1  0
  5  6  2  0
  6  7  1  0
  7  8  1  0
  8  9  2  0
  8 10  1  0
 10 11  1  0
 11 12  1  0
 11 13  2  0
 13 14  1  0
 14 15  2  0
 15 16  1  0
 16 17  1  0
 17 18  1  0
 18 19  1  0
 19 20  2  0
 20 21  1  0
 21 22  2  0
 22 23  1  0
 23 24  2  0
 16 25  2  0
 25 26  1  0
 26 27  1  0
 27 28  1  0
 28 29  2  0
 29 30  1  0
 30 31  2  0
 31 32  1  0
 32 33  2  0
 33 34  1  0
  6 35  1  0
 35 36  2  0
 36  3  1  0
 27 10  1  0
 33 28  1  0
 26 14  1  0
 24 19  1  0
  1 37  1  0
  1 38  1  0
  1 39  1  0
  4 40  1  0
  5 41  1  0
 10 42  1  1
 12 43  1  0
 12 44  1  0
 12 45  1  0
 18 46  1  0
 18 47  1  0
 20 48  1  0
 21 49  1  0
 22 50  1  0
 23 51  1  0
 24 52  1  0
 27 53  1  1
 29 54  1  0
 30 55  1  0
 31 56  1  0
 32 57  1  0
 34 58  1  0
 35 59  1  0
 36 60  1  0
M  CHG  1   7  -1
M  END
>  <UniqueID>  (21) 
21

>  <SMILES>  (21) 
COc1ccc([N-]C(=O)[C@@H]2C(C)=Nc3nc(SCc4ccccc4)nn3[C@@H]2c2ccccc2O)cc1

>  <Energy>  (21) 
107.19069807126999

>  <Genealogy>  (21) 
COc1ccc([N-]C(=O)C2C(C)=Nc3nc(SCc4ccccc4)nn3C2c2ccccc2O)cc1 (protonated)
COc1ccc([N-]C(=O)[C@@H]2C(C)=Nc3nc(SCc4ccccc4)nn3[C@@H]2c2ccccc2O)cc1 (chirality)
COc1ccc([N-]C(=O)[C@@H]2C(C)=Nc3nc(SCc4ccccc4)nn3[C@@H]2c2ccccc2O)cc1 (3D coordinates assigned)
COc1ccc([N-]C(=O)[C@@H]2C(C)=Nc3nc(SCc4ccccc4)nn3[C@@H]2c2ccccc2O)cc1 (nonaromatic ring conformer: 107.19069807126999 kcal/mol)

>  <smiles>  (21) 
COc1ccc(NC(=O)C2C(C)=Nc3nc(SCc4ccccc4)nn3C2c2ccccc2O)cc1

>  <score_type>  (21) 
oracle

>  <origin>  (21) 
adg

>  <m_score__min__energy>  (21) 
-10.67

>  <m_primary>  (21) 
energy

$$$$
21:0
     RDKit          3D

 51 54  0  0  1  0  0  0  0  0999 V2000
   58.0180   32.3210   41.9470 C   0  0  0  0  0  0  0  0  0  0  0  0
   57.3840   31.8030   43.2170 C   0  0  1  0  0  0  0  0  0  0  0  0
   57.7680   30.4200   43.4670 N   0  0  0  0  0  0  0  0  0  0  0  0
   56.8450   29.6280   44.1770 C   0  0  0  0  0  0  0  0  0  0  0  0
   55.7540   30.1720   44.5480 O   0  0  0  0  0  0  0  0  0  0  0  0
   57.0130   28.2740   44.5220 N   0  0  0  0  0  0  0  0  0  0  0  0
   57.5270   27.8790   45.6090 C   0  0  0  0  0  0  0  0  0  0  0  0
   57.4900   26.6530   46.1700 N   0  0  0  0  0  0  0  0  0  0  0  0
   58.1630   26.6910   47.3050 N   0  0  0  0  0  0  0  0  0  0  0  0
   58.6610   27.9180   47.5340 C   0  0  0  0  0  0  0  0  0  0  0  0
   59.4170   28.5210   48.5220 C   0  0  0  0  0  0  0  0  0  0  0  0
   59.7720   29.8710   48.4420 C   0  0  0  0  0  0  0  0  0  0  0  0
   60.4800   30.3700   49.4060 N   0  0  0  0  0  0  0  0  0  0  0  0
   61.0520   31.6580   49.1650 C   0  0  0  0  0  0  0  0  0  0  0  0
   60.2810   32.5430   48.7250 O   0  0  0  0  0  0  0  0  0  0  0  0
   62.4600   31.9630   49.4100 C   0  0  0  0  0  0  0  0  0  0  0  0
   63.1500   31.4060   50.4690 C   0  0  0  0  0  0  0  0  0  0  0  0
   64.4830   31.6830   50.7250 C   0  0  0  0  0  0  0  0  0  0  0  0
   65.1640   32.5540   49.8880 C   0  0  0  0  0  0  0  0  0  0  0  0
   66.5420   32.8780   50.1020 C   0  0  0  0  0  0  0  0  0  0  0  0
   67.6540   33.1400   50.2860 N   0  0  0  0  0  0  0  0  0  0  0  0
   64.4840   33.1100   48.8340 C   0  0  0  0  0  0  0  0  0  0  0  0
   63.1780   32.8310   48.5950 C   0  0  0  0  0  0  0  0  0  0  0  0
   59.3690   30.5880   47.3830 N   0  0  0  0  0  0  0  0  0  0  0  0
   58.6340   30.0170   46.4160 C   0  0  0  0  0  0  0  0  0  0  0  0
   58.2610   28.6790   46.4610 C   0  0  0  0  0  0  0  0  0  0  0  0
   57.8400   32.7240   44.3060 C   0  0  0  0  0  0  0  0  0  0  0  0
   57.1940   32.6890   45.5550 C   0  0  0  0  0  0  0  0  0  0  0  0
   57.5570   33.5170   46.5770 C   0  0  0  0  0  0  0  0  0  0  0  0
   58.5900   34.4040   46.3480 C   0  0  0  0  0  0  0  0  0  0  0  0
   59.2640   34.4910   45.1500 C   0  0  0  0  0  0  0  0  0  0  0  0
   58.8710   33.6330   44.1250 C   0  0  0  0  0  0  0  0  0  0  0  0
   58.8469   32.9982   42.2007 H   0  0  0  0  0  0  0  0  0  0  0  0
   58.4026   31.4754   41.3579 H   0  0  0  0  0  0  0  0  0  0  0  0
   57.2661   32.8665   41.3579 H   0  0  0  0  0  0  0  0  0  0  0  0
   56.2860   31.7934   43.1521 H   0  0  0  0  0  0  0  0  0  0  0  0
   58.6560   30.0040   43.1530 H   0  0  0  0  0  0  0  0  0  0  0  0
   56.9880   25.8610   45.7050 H   0  0  0  0  0  0  0  0  0  0  0  0
   58.3040   25.8890   47.9650 H   0  0  0  0  0  0  0  0  0  0  0  0
   59.7456   27.9273   49.3877 H   0  0  0  0  0  0  0  0  0  0  0  0
   62.6184   30.7129   51.1376 H   0  0  0  0  0  0  0  0  0  0  0  0
   64.9944   31.2182   51.5808 H   0  0  0  0  0  0  0  0  0  0  0  0
   65.0134   33.8024   48.1629 H   0  0  0  0  0  0  0  0  0  0  0  0
   62.6759   33.3021   47.7371 H   0  0  0  0  0  0  0  0  0  0  0  0
   59.6580   31.5980   47.3560 H   0  0  0  0  0  0  0  0  0  0  0  0
   58.3161   30.6288   45.5589 H   0  0  0  0  0  0  0  0  0  0  0  0
   56.3730   31.9740   45.7123 H   0  0  0  0  0  0  0  0  0  0  0  0
   57.0444   33.4791   47.5496 H   0  0  0  0  0  0  0  0  0  0  0  0
   58.8904   35.0764   47.1651 H   0  0  0  0  0  0  0  0  0  0  0  0
   60.0828   35.2117   45.0076 H   0  0  0  0  0  0  0  0  0  0  0  0
   59.3879   33.6776   43.1550 H   0  0  0  0  0  0  0  0  0  0  0  0
  1  2  1  0
  2  3  1  0
  3  4  1  0
  4  5  2  0
  4  6  1  0
  6  7  2  0
  7  8  1  0
  8  9  1  0
  9 10  1  0
 10 11  2  0
 11 12  1  0
 12 13  2  0
 13 14  1  0
 14 15  2  0
 14 16  1  0
 16 17  2  0
 17 18  1  0
 18 19  2  0
 19 20  1  0
 20 21  3  0
 19 22  1  0
 22 23  2  0
 12 24  1  0
 24 25  1  0
 25 26  2  0
  2 27  1  0
 27 28  2  0
 28 29  1  0
 29 30  2  0
 30 31  1  0
 31 32  2  0
 26  7  1  0
 32 27  1  0
 26 10  1  0
 23 16  1  0
  1 33  1  0
  1 34  1  0
  1 35  1  0
  2 36  1  6
  3 37  1  0
  8 38  1  0
  9 39  1  0
 11 40  1  0
 17 41  1  0
 18 42  1  0
 22 43  1  0
 23 44  1  0
 24 45  1  0
 25 46  1  0
 28 47  1  0
 29 48  1  0
 30 49  1  0
 31 50  1  0
 32 51  1  0
M  END
>  <smiles>  (22) 
CC(NC(=O)N=c1[nH][nH]c2cc(=NC(=O)c3ccc(C#N)cc3)[nH]cc12)c1ccccc1

>  <score_type>  (22) 
oracle

>  <origin>  (22) 
adg

>  <m_score__min__energy>  (22) 
-9.8200000000000003

>  <m_primary>  (22) 
energy

$$$$
22:0
     RDKit          3D

 43 45  0  0  0  0  0  0  0  0999 V2000
   53.5470   24.0540   45.3540 C   0  0  0  0  0  0  0  0  0  0  0  0
   54.4960   23.9980   46.4150 O   0  0  0  0  0  0  0  0  0  0  0  0
   55.8030   24.5040   46.3380 C   0  0  0  0  0  0  0  0  0  0  0  0
   56.9350   23.6760   46.4530 C   0  0  0  0  0  0  0  0  0  0  0  0
   58.2150   24.2180   46.3590 C   0  0  0  0  0  0  0  0  0  0  0  0
   58.3850   25.5900   46.1610 C   0  0  0  0  0  0  0  0  0  0  0  0
   57.2700   26.4400   46.0640 C   0  0  0  0  0  0  0  0  0  0  0  0
   57.4810   27.8940   45.8650 C   0  0  0  0  0  0  0  0  0  0  0  0
   58.3170   28.5030   46.5870 O   0  0  0  0  0  0  0  0  0  0  0  0
   56.6920   28.6260   44.9140 N   0  0  0  0  0  0  0  0  0  0  0  0
   57.0640   29.9110   44.3840 C   0  0  0  0  0  0  0  0  0  0  0  0
   57.0210   30.1750   43.0040 C   0  0  0  0  0  0  0  0  0  0  0  0
   57.3770   31.4340   42.5170 C   0  0  0  0  0  0  0  0  0  0  0  0
   57.7570   32.4480   43.3990 C   0  0  0  0  0  0  0  0  0  0  0  0
   57.7610   32.2140   44.7850 C   0  0  0  0  0  0  0  0  0  0  0  0
   58.1580   33.2220   45.7260 N   0  0  0  0  0  0  0  0  0  0  0  0
   59.3140   34.0660   45.6410 C   0  0  0  0  0  0  0  0  0  0  0  0
   59.4350   34.8790   44.6840 O   0  0  0  0  0  0  0  0  0  0  0  0
   60.3430   34.0240   46.7070 C   0  0  0  0  0  0  0  0  0  0  0  0
   59.9840   34.1990   48.0570 C   0  0  0  0  0  0  0  0  0  0  0  0
   60.9580   34.1560   49.0610 C   0  0  0  0  0  0  0  0  0  0  0  0
   62.2980   33.9380   48.7290 C   0  0  0  0  0  0  0  0  0  0  0  0
   62.6660   33.7610   47.3940 C   0  0  0  0  0  0  0  0  0  0  0  0
   61.6960   33.8030   46.3860 C   0  0  0  0  0  0  0  0  0  0  0  0
   57.4260   30.9420   45.2660 C   0  0  0  0  0  0  0  0  0  0  0  0
   55.9750   25.8830   46.1370 C   0  0  0  0  0  0  0  0  0  0  0  0
   54.8480   26.6850   45.9820 O   0  0  0  0  0  0  0  0  0  0  0  0
   52.5317   24.1139   45.7730 H   0  0  0  0  0  0  0  0  0  0  0  0
   53.7412   24.9422   44.7349 H   0  0  0  0  0  0  0  0  0  0  0  0
   53.6354   23.1491   44.7349 H   0  0  0  0  0  0  0  0  0  0  0  0
   56.8087   22.5958   46.6179 H   0  0  0  0  0  0  0  0  0  0  0  0
   59.0949   23.5630   46.4410 H   0  0  0  0  0  0  0  0  0  0  0  0
   59.3991   26.0084   46.0804 H   0  0  0  0  0  0  0  0  0  0  0  0
   55.7440   28.2530   44.6760 H   0  0  0  0  0  0  0  0  0  0  0  0
   56.7056   29.3864   42.3050 H   0  0  0  0  0  0  0  0  0  0  0  0
   57.3581   31.6281   41.4344 H   0  0  0  0  0  0  0  0  0  0  0  0
   58.0539   33.4324   43.0080 H   0  0  0  0  0  0  0  0  0  0  0  0
   58.9309   34.3707   48.3244 H   0  0  0  0  0  0  0  0  0  0  0  0
   60.6684   34.2940   50.1132 H   0  0  0  0  0  0  0  0  0  0  0  0
   63.0624   33.9059   49.5193 H   0  0  0  0  0  0  0  0  0  0  0  0
   63.7207   33.5881   47.1338 H   0  0  0  0  0  0  0  0  0  0  0  0
   61.9926   33.6624   45.3361 H   0  0  0  0  0  0  0  0  0  0  0  0
   57.4467   30.7481   46.3486 H   0  0  0  0  0  0  0  0  0  0  0  0
  1  2  1  0
  2  3  1  0
  3  4  2  0
  4  5  1  0
  5  6  2  0
  6  7  1  0
  7  8  1  0
  8  9  2  0
  8 10  1  0
 10 11  1  0
 11 12  2  0
 12 13  1  0
 13 14  2  0
 14 15  1  0
 15 16  1  0
 16 17  1  0
 17 18  2  0
 17 19  1  0
 19 20  2  0
 20 21  1  0
 21 22  2  0
 22 23  1  0
 23 24  2  0
 15 25  2  0
  7 26  2  0
 26 27  1  0
 26  3  1  0
 25 11  1  0
 24 19  1  0
  1 28  1  0
  1 29  1  0
  1 30  1  0
  4 31  1  0
  5 32  1  0
  6 33  1  0
 10 34  1  0
 12 35  1  0
 13 36  1  0
 14 37  1  0
 20 38  1  0
 21 39  1  0
 22 40  1  0
 23 41  1  0
 24 42  1  0
 25 43  1  0
M  CHG  2  16  -1  27  -1
M  END
>  <UniqueID>  (23) 
22

>  <SMILES>  (23) 
COc1cccc(C(=O)Nc2cccc([N-]C(=O)c3ccccc3)c2)c1[O-]

>  <Energy>  (23) 
57.47451834790755

>  <Genealogy>  (23) 
COc1cccc(C(=O)Nc2cccc([N-]C(=O)c3ccccc3)c2)c1[O-] (protonated)
COc1cccc(C(=O)Nc2cccc([N-]C(=O)c3ccccc3)c2)c1[O-] (3D coordinates assigned)
COc1cccc(C(=O)Nc2cccc([N-]C(=O)c3ccccc3)c2)c1[O-] (optimized conformer: 57.47451834790755 kcal/mol)

>  <smiles>  (23) 
COc1cccc(C(=O)Nc2cccc(NC(=O)c3ccccc3)c2)c1O

>  <score_type>  (23) 
oracle

>  <origin>  (23) 
adg

>  <m_score__min__energy>  (23) 
-14.41

>  <m_primary>  (23) 
energy

$$$$
23:0
     RDKit          3D

 54 57  0  0  0  0  0  0  0  0999 V2000
   60.1530   33.4400   49.4340 C   0  0  0  0  0  0  0  0  0  0  0  0
   60.0140   32.0220   48.9330 C   0  0  0  0  0  0  0  0  0  0  0  0
   59.9700   31.7830   47.5380 C   0  0  0  0  0  0  0  0  0  0  0  0
   59.9990   32.8740   46.6090 N   0  0  0  0  0  0  0  0  0  0  0  0
   58.5450   33.6160   46.0300 S   0  0  0  0  0  0  0  0  0  0  0  0
   58.8460   35.0080   45.5490 O   0  0  0  0  0  0  0  0  0  0  0  0
   57.5250   33.6990   47.1320 O   0  0  0  0  0  0  0  0  0  0  0  0
   57.9170   32.6430   44.7060 C   0  0  0  0  0  0  0  0  0  0  0  0
   58.3230   32.9150   43.3940 C   0  0  0  0  0  0  0  0  0  0  0  0
   57.8660   32.1180   42.3420 C   0  0  0  0  0  0  0  0  0  0  0  0
   57.0110   31.0430   42.5930 C   0  0  0  0  0  0  0  0  0  0  0  0
   56.6060   30.7500   43.9040 C   0  0  0  0  0  0  0  0  0  0  0  0
   55.6940   29.6090   44.1660 C   0  0  0  0  0  0  0  0  0  0  0  0
   54.6430   29.4850   43.4830 O   0  0  0  0  0  0  0  0  0  0  0  0
   55.9480   28.6650   45.2150 N   0  0  0  0  0  0  0  0  0  0  0  0
   57.1690   27.9330   45.4020 C   0  0  0  0  0  0  0  0  0  0  0  0
   58.3970   28.5020   45.0120 C   0  0  0  0  0  0  0  0  0  0  0  0
   59.5870   27.7880   45.1480 C   0  0  0  0  0  0  0  0  0  0  0  0
   59.5710   26.5010   45.6790 C   0  0  0  0  0  0  0  0  0  0  0  0
   58.3630   25.9180   46.0660 C   0  0  0  0  0  0  0  0  0  0  0  0
   57.1460   26.6150   45.9270 C   0  0  0  0  0  0  0  0  0  0  0  0
   55.8880   25.9510   46.3570 C   0  0  0  0  0  0  0  0  0  0  0  0
   54.7660   26.3550   45.9540 O   0  0  0  0  0  0  0  0  0  0  0  0
   55.9310   24.8660   47.2240 O   0  0  0  0  0  0  0  0  0  0  0  0
   57.0580   31.5650   44.9590 C   0  0  0  0  0  0  0  0  0  0  0  0
   59.8450   30.4720   47.0550 C   0  0  0  0  0  0  0  0  0  0  0  0
   59.7550   29.3990   47.9390 C   0  0  0  0  0  0  0  0  0  0  0  0
   59.7800   29.6230   49.3140 C   0  0  0  0  0  0  0  0  0  0  0  0
   59.9000   30.9230   49.8220 C   0  0  0  0  0  0  0  0  0  0  0  0
   59.9370   31.1130   51.6130 S   0  0  0  0  0  0  0  0  0  0  0  0
   58.1560   31.0030   51.7790 C   0  0  0  0  0  0  0  0  0  0  0  0
   57.4510   29.8720   51.5890 N   0  0  0  0  0  0  0  0  0  0  0  0
   56.1830   30.2240   51.7640 N   0  0  0  0  0  0  0  0  0  0  0  0
   56.1050   31.5170   52.0410 N   0  0  0  0  0  0  0  0  0  0  0  0
   57.3250   32.0230   52.0480 N   0  0  0  0  0  0  0  0  0  0  0  0
   57.6550   33.4050   52.3720 C   0  0  0  0  0  0  0  0  0  0  0  0
   60.1532   33.4419   50.5340 H   0  0  0  0  0  0  0  0  0  0  0  0
   61.0974   33.8678   49.0664 H   0  0  0  0  0  0  0  0  0  0  0  0
   59.3097   34.0431   49.0664 H   0  0  0  0  0  0  0  0  0  0  0  0
   60.8790   33.0790   46.0870 H   0  0  0  0  0  0  0  0  0  0  0  0
   59.0020   33.7565   43.1917 H   0  0  0  0  0  0  0  0  0  0  0  0
   58.1810   32.3381   41.3113 H   0  0  0  0  0  0  0  0  0  0  0  0
   56.6530   30.4224   41.7583 H   0  0  0  0  0  0  0  0  0  0  0  0
   58.4175   29.5200   44.5959 H   0  0  0  0  0  0  0  0  0  0  0  0
   60.5391   28.2419   44.8356 H   0  0  0  0  0  0  0  0  0  0  0  0
   60.5118   25.9426   45.7938 H   0  0  0  0  0  0  0  0  0  0  0  0
   58.3610   24.9010   46.4851 H   0  0  0  0  0  0  0  0  0  0  0  0
   56.7347   31.3543   45.9891 H   0  0  0  0  0  0  0  0  0  0  0  0
   59.8178   30.2898   45.9705 H   0  0  0  0  0  0  0  0  0  0  0  0
   59.6641   28.3737   47.5510 H   0  0  0  0  0  0  0  0  0  0  0  0
   59.7049   28.7717   50.0066 H   0  0  0  0  0  0  0  0  0  0  0  0
   57.6845   33.5284   53.4647 H   0  0  0  0  0  0  0  0  0  0  0  0
   58.6384   33.6563   51.9480 H   0  0  0  0  0  0  0  0  0  0  0  0
   56.8912   34.0734   51.9480 H   0  0  0  0  0  0  0  0  0  0  0  0
  1  2  1  0
  2  3  2  0
  3  4  1  0
  4  5  1  0
  5  6  2  0
  5  7  2  0
  5  8  1  0
  8  9  2  0
  9 10  1  0
 10 11  2  0
 11 12  1  0
 12 13  1  0
 13 14  2  0
 13 15  1  0
 15 16  1  0
 16 17  2  0
 17 18  1  0
 18 19  2  0
 19 20  1  0
 20 21  2  0
 21 22  1  0
 22 23  2  0
 22 24  1  0
 12 25  2  0
  3 26  1  0
 26 27  2  0
 27 28  1  0
 28 29  2  0
 29 30  1  0
 30 31  1  0
 31 32  2  0
 32 33  1  0
 33 34  2  0
 34 35  1  0
 35 36  1  0
 29  2  1  0
 35 31  1  0
 25  8  1  0
 21 16  1  0
  1 37  1  0
  1 38  1  0
  1 39  1  0
  4 40  1  0
  9 41  1  0
 10 42  1  0
 11 43  1  0
 17 44  1  0
 18 45  1  0
 19 46  1  0
 20 47  1  0
 25 48  1  0
 26 49  1  0
 27 50  1  0
 28 51  1  0
 36 52  1  0
 36 53  1  0
 36 54  1  0
M  CHG  2  15  -1  24  -1
M  END
>  <UniqueID>  (24) 
23

>  <SMILES>  (24) 
Cc1c(NS(=O)(=O)c2cccc(C(=O)[N-]c3ccccc3C(=O)[O-])c2)cccc1Sc1nnnn1C

>  <Energy>  (24) 
108.21289491535818

>  <Genealogy>  (24) 
Cc1c(NS(=O)(=O)c2cccc(C(=O)[N-]c3ccccc3C(=O)[O-])c2)cccc1Sc1nnnn1C (protonated)
Cc1c(NS(=O)(=O)c2cccc(C(=O)[N-]c3ccccc3C(=O)[O-])c2)cccc1Sc1nnnn1C (3D coordinates assigned)
Cc1c(NS(=O)(=O)c2cccc(C(=O)[N-]c3ccccc3C(=O)[O-])c2)cccc1Sc1nnnn1C (optimized conformer: 108.21289491535818 kcal/mol)

>  <smiles>  (24) 
Cc1c(NS(=O)(=O)c2cccc(C(=O)Nc3ccccc3C(=O)O)c2)cccc1Sc1nnnn1C

>  <score_type>  (24) 
oracle

>  <origin>  (24) 
adg

>  <m_score__min__energy>  (24) 
-16.800000000000001

>  <m_primary>  (24) 
energy

$$$$
24:0
     RDKit          3D

 34 36  0  0  0  0  0  0  0  0999 V2000
   56.0470   24.4090   44.5570 C   0  0  0  0  0  0  0  0  0  0  0  0
   56.0230   25.4000   46.0320 S   0  0  0  0  0  0  0  0  0  0  0  0
   55.8910   24.5070   47.2350 O   0  0  0  0  0  0  0  0  0  0  0  0
   54.8460   26.3340   45.9940 O   0  0  0  0  0  0  0  0  0  0  0  0
   57.5150   26.3300   46.1360 C   0  0  0  0  0  0  0  0  0  0  0  0
   58.7390   25.6790   46.3230 C   0  0  0  0  0  0  0  0  0  0  0  0
   59.9220   26.4180   46.3910 C   0  0  0  0  0  0  0  0  0  0  0  0
   59.8890   27.8090   46.2660 C   0  0  0  0  0  0  0  0  0  0  0  0
   58.6690   28.4830   46.0690 C   0  0  0  0  0  0  0  0  0  0  0  0
   58.6340   29.9230   45.9340 N   0  0  0  0  0  0  0  0  0  0  0  0
   57.9440   30.6340   44.8510 C   0  0  0  0  0  0  0  0  0  0  0  0
   58.2000   32.0600   45.1590 C   0  0  0  0  0  0  0  0  0  0  0  0
   57.7710   33.1820   44.4490 C   0  0  0  0  0  0  0  0  0  0  0  0
   58.1320   34.4540   44.9230 C   0  0  0  0  0  0  0  0  0  0  0  0
   58.9080   34.5820   46.0900 C   0  0  0  0  0  0  0  0  0  0  0  0
   59.3280   33.4390   46.7890 C   0  0  0  0  0  0  0  0  0  0  0  0
   58.9580   32.1850   46.2990 C   0  0  0  0  0  0  0  0  0  0  0  0
   59.2830   30.8540   46.8640 C   0  0  0  0  0  0  0  0  0  0  0  0
   57.4820   27.7250   46.0030 C   0  0  0  0  0  0  0  0  0  0  0  0
   56.0728   23.3440   44.8312 H   0  0  0  0  0  0  0  0  0  0  0  0
   55.1437   24.6130   43.9634 H   0  0  0  0  0  0  0  0  0  0  0  0
   56.9394   24.6565   43.9634 H   0  0  0  0  0  0  0  0  0  0  0  0
   58.7697   24.5834   46.4166 H   0  0  0  0  0  0  0  0  0  0  0  0
   60.8823   25.9035   46.5434 H   0  0  0  0  0  0  0  0  0  0  0  0
   60.8256   28.3832   46.3221 H   0  0  0  0  0  0  0  0  0  0  0  0
   58.3634   30.3614   43.8713 H   0  0  0  0  0  0  0  0  0  0  0  0
   56.8723   30.3927   44.7933 H   0  0  0  0  0  0  0  0  0  0  0  0
   57.1636   33.0728   43.5384 H   0  0  0  0  0  0  0  0  0  0  0  0
   57.8069   35.3536   44.3799 H   0  0  0  0  0  0  0  0  0  0  0  0
   59.1866   35.5812   46.4559 H   0  0  0  0  0  0  0  0  0  0  0  0
   59.9348   33.5294   47.7020 H   0  0  0  0  0  0  0  0  0  0  0  0
   60.3707   30.6916   46.8887 H   0  0  0  0  0  0  0  0  0  0  0  0
   58.9407   30.7327   47.9023 H   0  0  0  0  0  0  0  0  0  0  0  0
   56.5196   28.2339   45.8454 H   0  0  0  0  0  0  0  0  0  0  0  0
  1  2  1  0
  2  3  2  0
  2  4  2  0
  2  5  1  0
  5  6  2  0
  6  7  1  0
  7  8  2  0
  8  9  1  0
  9 10  1  0
 10 11  1  0
 11 12  1  0
 12 13  2  0
 13 14  1  0
 14 15  2  0
 15 16  1  0
 16 17  2  0
 17 18  1  0
  9 19  2  0
 19  5  1  0
 18 10  1  0
 17 12  1  0
  1 20  1  0
  1 21  1  0
  1 22  1  0
  6 23  1  0
  7 24  1  0
  8 25  1  0
 11 26  1  0
 11 27  1  0
 13 28  1  0
 14 29  1  0
 15 30  1  0
 16 31  1  0
 18 32  1  0
 18 33  1  0
 19 34  1  0
M  END
>  <UniqueID>  (25) 
24

>  <SMILES>  (25) 
CS(=O)(=O)c1cccc(N2Cc3ccccc3C2)c1

>  <Energy>  (25) 
44.80652495083111

>  <Genealogy>  (25) 
CS(=O)(=O)c1cccc(N2Cc3ccccc3C2)c1 (3D coordinates assigned)
CS(=O)(=O)c1cccc(N2Cc3ccccc3C2)c1 (nonaromatic ring conformer: 44.80652495083111 kcal/mol)

>  <smiles>  (25) 
CS(=O)(=O)c1cccc(N2Cc3ccccc3C2)c1

>  <score_type>  (25) 
oracle

>  <origin>  (25) 
adg

>  <m_score__min__energy>  (25) 
-7.8300000000000001

>  <m_primary>  (25) 
energy

$$$$
25:0
     RDKit          3D

 24 24  0  0  0  0  0  0  0  0999 V2000
   54.7030   25.9910   45.6610 O   0  0  0  0  0  0  0  0  0  0  0  0
   55.7860   26.1210   46.2710 N   0  0  0  0  0  0  0  0  0  0  0  0
   56.2150   25.1210   47.1090 O   0  0  0  0  0  0  0  0  0  0  0  0
   56.5560   27.2560   46.1170 O   0  0  0  0  0  0  0  0  0  0  0  0
   57.9700   27.1960   45.9720 C   0  0  0  0  0  0  0  0  0  0  0  0
   58.4980   28.5660   45.6880 C   0  0  0  0  0  0  0  0  0  0  0  0
   59.3660   29.1360   46.4500 N   0  0  0  0  0  0  0  0  0  0  0  0
   59.6450   30.4830   45.9660 C   0  0  0  0  0  0  0  0  0  0  0  0
   58.7520   30.6600   44.7280 C   0  0  0  0  0  0  0  0  0  0  0  0
   58.0390   29.3980   44.6320 N   0  0  0  0  0  0  0  0  0  0  0  0
   57.1070   29.0400   43.5630 C   0  0  0  0  0  0  0  0  0  0  0  0
   55.7300   29.6610   43.8050 C   0  0  0  0  0  0  0  0  0  0  0  0
   55.1530   29.1530   44.9770 O   0  0  0  0  0  0  0  0  0  0  0  0
   58.4185   26.8150   46.9014 H   0  0  0  0  0  0  0  0  0  0  0  0
   58.2262   26.5234   45.1401 H   0  0  0  0  0  0  0  0  0  0  0  0
   59.3919   31.2288   46.7339 H   0  0  0  0  0  0  0  0  0  0  0  0
   60.7099   30.6216   45.7277 H   0  0  0  0  0  0  0  0  0  0  0  0
   58.0512   31.4965   44.8666 H   0  0  0  0  0  0  0  0  0  0  0  0
   59.3260   30.8946   43.8194 H   0  0  0  0  0  0  0  0  0  0  0  0
   57.5026   29.4050   42.6037 H   0  0  0  0  0  0  0  0  0  0  0  0
   56.9993   27.9455   43.5441 H   0  0  0  0  0  0  0  0  0  0  0  0
   55.8380   30.7516   43.8998 H   0  0  0  0  0  0  0  0  0  0  0  0
   55.0774   29.4129   42.9550 H   0  0  0  0  0  0  0  0  0  0  0  0
   55.1430   28.1650   44.8840 H   0  0  0  0  0  0  0  0  0  0  0  0
  1  2  2  0
  2  3  1  0
  2  4  1  0
  4  5  1  0
  5  6  1  0
  6  7  2  0
  7  8  1  0
  8  9  1  0
  9 10  1  0
 10 11  1  0
 11 12  1  0
 12 13  1  0
 10  6  1  0
  5 14  1  0
  5 15  1  0
  8 16  1  0
  8 17  1  0
  9 18  1  0
  9 19  1  0
 11 20  1  0
 11 21  1  0
 12 22  1  0
 12 23  1  0
 13 24  1  0
M  CHG  2   2   1   3  -1
M  END
>  <UniqueID>  (26) 
25

>  <SMILES>  (26) 
O=[N+]([O-])OCC1=NCCN1CCO

>  <Energy>  (26) 
26.757172488374646

>  <Genealogy>  (26) 
O=[N+]([O-])OCC1=NCCN1CCO (3D coordinates assigned)
O=[N+]([O-])OCC1=NCCN1CCO (nonaromatic ring conformer: 26.757172488374646 kcal/mol)

>  <smiles>  (26) 
O=[N+]([O-])OCC1=NCCN1CCO

>  <score_type>  (26) 
oracle

>  <origin>  (26) 
adg

>  <m_score__min__energy>  (26) 
-5.0999999999999996

>  <m_primary>  (26) 
energy

$$$$
26:0
     RDKit          3D

 53 55  0  0  0  0  0  0  0  0999 V2000
   60.0380   29.9470   48.7090 C   0  0  0  0  0  0  0  0  0  0  0  0
   61.4290   30.5550   48.8480 C   0  0  0  0  0  0  0  0  0  0  0  0
   61.5240   31.8370   48.0850 C   0  0  0  0  0  0  0  0  0  0  0  0
   60.5140   32.7290   48.0040 N   0  0  0  0  0  0  0  0  0  0  0  0
   60.8720   33.8370   47.2990 C   0  0  0  0  0  0  0  0  0  0  0  0
   59.9220   34.9830   47.1040 C   0  0  0  0  0  0  0  0  0  0  0  0
   58.8380   34.6310   46.0810 C   0  0  0  0  0  0  0  0  0  0  0  0
   58.5310   33.2010   46.1020 N   0  0  0  0  0  0  0  0  0  0  0  0
   57.9000   32.5610   44.9830 C   0  0  0  0  0  0  0  0  0  0  0  0
   57.4060   33.2680   44.0630 O   0  0  0  0  0  0  0  0  0  0  0  0
   57.8220   31.0810   44.8830 C   0  0  0  0  0  0  0  0  0  0  0  0
   58.7340   30.2820   45.5970 C   0  0  0  0  0  0  0  0  0  0  0  0
   58.6320   28.8880   45.5680 C   0  0  0  0  0  0  0  0  0  0  0  0
   57.6220   28.2650   44.8190 C   0  0  0  0  0  0  0  0  0  0  0  0
   57.4090   26.7810   44.9200 C   0  0  0  0  0  0  0  0  0  0  0  0
   56.5720   26.5040   46.1260 C   0  0  0  0  0  0  0  0  0  0  0  0
   57.0930   26.5190   47.2730 O   0  0  0  0  0  0  0  0  0  0  0  0
   55.1580   26.3450   45.9760 N   0  0  0  0  0  0  0  0  0  0  0  0
   54.5430   25.0760   45.6160 C   0  0  0  0  0  0  0  0  0  0  0  0
   55.6130   24.1200   45.1580 C   0  0  0  0  0  0  0  0  0  0  0  0
   56.3840   23.4100   46.0940 C   0  0  0  0  0  0  0  0  0  0  0  0
   57.3080   22.4520   45.6620 C   0  0  0  0  0  0  0  0  0  0  0  0
   57.4630   22.1910   44.2980 C   0  0  0  0  0  0  0  0  0  0  0  0
   56.6940   22.8870   43.3630 C   0  0  0  0  0  0  0  0  0  0  0  0
   55.7680   23.8450   43.7890 C   0  0  0  0  0  0  0  0  0  0  0  0
   56.7160   29.0570   44.0980 C   0  0  0  0  0  0  0  0  0  0  0  0
   56.8110   30.4510   44.1300 C   0  0  0  0  0  0  0  0  0  0  0  0
   62.1860   33.8460   46.8340 C   0  0  0  0  0  0  0  0  0  0  0  0
   62.9070   32.4030   47.3140 S   0  0  0  0  0  0  0  0  0  0  0  0
   59.6168   29.7629   49.7083 H   0  0  0  0  0  0  0  0  0  0  0  0
   59.3870   30.6427   48.1592 H   0  0  0  0  0  0  0  0  0  0  0  0
   60.1065   28.9967   48.1592 H   0  0  0  0  0  0  0  0  0  0  0  0
   61.6326   30.7515   49.9110 H   0  0  0  0  0  0  0  0  0  0  0  0
   62.1666   29.8467   48.4427 H   0  0  0  0  0  0  0  0  0  0  0  0
   59.4446   35.2219   48.0658 H   0  0  0  0  0  0  0  0  0  0  0  0
   60.4892   35.8478   46.7293 H   0  0  0  0  0  0  0  0  0  0  0  0
   57.9249   35.1969   46.3175 H   0  0  0  0  0  0  0  0  0  0  0  0
   59.2090   34.8916   45.0788 H   0  0  0  0  0  0  0  0  0  0  0  0
   58.7300   32.6510   46.9660 H   0  0  0  0  0  0  0  0  0  0  0  0
   59.5339   30.7582   46.1829 H   0  0  0  0  0  0  0  0  0  0  0  0
   59.3479   28.2757   46.1359 H   0  0  0  0  0  0  0  0  0  0  0  0
   56.8932   26.4179   44.0188 H   0  0  0  0  0  0  0  0  0  0  0  0
   58.3771   26.2660   45.0064 H   0  0  0  0  0  0  0  0  0  0  0  0
   54.0250   24.6567   46.4911 H   0  0  0  0  0  0  0  0  0  0  0  0
   53.8165   25.2340   44.8052 H   0  0  0  0  0  0  0  0  0  0  0  0
   56.2609   23.6078   47.1690 H   0  0  0  0  0  0  0  0  0  0  0  0
   57.9138   21.9030   46.3980 H   0  0  0  0  0  0  0  0  0  0  0  0
   58.1903   21.4377   43.9610 H   0  0  0  0  0  0  0  0  0  0  0  0
   56.8167   22.6815   42.2893 H   0  0  0  0  0  0  0  0  0  0  0  0
   55.1588   24.3851   43.0493 H   0  0  0  0  0  0  0  0  0  0  0  0
   55.9249   28.5773   43.5030 H   0  0  0  0  0  0  0  0  0  0  0  0
   56.0917   31.0606   43.5635 H   0  0  0  0  0  0  0  0  0  0  0  0
   62.6652   34.6509   46.2574 H   0  0  0  0  0  0  0  0  0  0  0  0
  1  2  1  0
  2  3  1  0
  3  4  2  0
  4  5  1  0
  5  6  1  0
  6  7  1  0
  7  8  1  0
  8  9  1  0
  9 10  2  0
  9 11  1  0
 11 12  2  0
 12 13  1  0
 13 14  2  0
 14 15  1  0
 15 16  1  0
 16 17  2  0
 16 18  1  0
 18 19  1  0
 19 20  1  0
 20 21  2  0
 21 22  1  0
 22 23  2  0
 23 24  1  0
 24 25  2  0
 14 26  1  0
 26 27  2  0
  5 28  2  0
 28 29  1  0
 29  3  1  0
 27 11  1  0
 25 20  1  0
  1 30  1  0
  1 31  1  0
  1 32  1  0
  2 33  1  0
  2 34  1  0
  6 35  1  0
  6 36  1  0
  7 37  1  0
  7 38  1  0
  8 39  1  0
 12 40  1  0
 13 41  1  0
 15 42  1  0
 15 43  1  0
 19 44  1  0
 19 45  1  0
 21 46  1  0
 22 47  1  0
 23 48  1  0
 24 49  1  0
 25 50  1  0
 26 51  1  0
 27 52  1  0
 28 53  1  0
M  CHG  1  18  -1
M  END
>  <UniqueID>  (27) 
26

>  <SMILES>  (27) 
CCc1nc(CCNC(=O)c2ccc(CC(=O)[N-]Cc3ccccc3)cc2)cs1

>  <Energy>  (27) 
68.31948966587566

>  <Genealogy>  (27) 
CCc1nc(CCNC(=O)c2ccc(CC(=O)[N-]Cc3ccccc3)cc2)cs1 (protonated)
CCc1nc(CCNC(=O)c2ccc(CC(=O)[N-]Cc3ccccc3)cc2)cs1 (3D coordinates assigned)
CCc1nc(CCNC(=O)c2ccc(CC(=O)[N-]Cc3ccccc3)cc2)cs1 (optimized conformer: 68.31948966587566 kcal/mol)

>  <smiles>  (27) 
CCc1nc(CCNC(=O)c2ccc(CC(=O)NCc3ccccc3)cc2)cs1

>  <score_type>  (27) 
oracle

>  <origin>  (27) 
adg

>  <m_score__min__energy>  (27) 
-10.529999999999999

>  <m_primary>  (27) 
energy

$$$$
27:0
     RDKit          3D

 28 30  0  0  0  0  0  0  0  0999 V2000
   55.1280   26.7010   45.6200 O   0  0  0  0  0  0  0  0  0  0  0  0
   56.2660   27.4690   45.8400 C   0  0  0  0  0  0  0  0  0  0  0  0
   57.3640   26.9020   46.4940 C   0  0  0  0  0  0  0  0  0  0  0  0
   58.5150   27.6600   46.7230 C   0  0  0  0  0  0  0  0  0  0  0  0
   58.5790   28.9980   46.2990 C   0  0  0  0  0  0  0  0  0  0  0  0
   59.7920   29.8050   46.5380 C   0  0  0  0  0  0  0  0  0  0  0  0
   59.8480   30.8660   47.3670 N   0  0  0  0  0  0  0  0  0  0  0  0
   61.1380   31.2440   47.2370 C   0  0  0  0  0  0  0  0  0  0  0  0
   61.7360   32.3910   47.9540 C   0  0  0  0  0  0  0  0  0  0  0  0
   63.0830   32.7380   47.7470 C   0  0  0  0  0  0  0  0  0  0  0  0
   63.6460   33.8230   48.4260 C   0  0  0  0  0  0  0  0  0  0  0  0
   62.8720   34.5710   49.3160 C   0  0  0  0  0  0  0  0  0  0  0  0
   61.5330   34.2350   49.5300 C   0  0  0  0  0  0  0  0  0  0  0  0
   60.9640   33.1500   48.8530 C   0  0  0  0  0  0  0  0  0  0  0  0
   61.8180   30.4570   46.3800 N   0  0  0  0  0  0  0  0  0  0  0  0
   60.9520   29.5810   45.9690 O   0  0  0  0  0  0  0  0  0  0  0  0
   57.4730   29.5630   45.6430 C   0  0  0  0  0  0  0  0  0  0  0  0
   56.3190   28.8060   45.4120 C   0  0  0  0  0  0  0  0  0  0  0  0
   55.2390   29.3960   44.7580 O   0  0  0  0  0  0  0  0  0  0  0  0
   57.3214   25.8553   46.8295 H   0  0  0  0  0  0  0  0  0  0  0  0
   59.3752   27.2071   47.2377 H   0  0  0  0  0  0  0  0  0  0  0  0
   63.6972   32.1526   47.0470 H   0  0  0  0  0  0  0  0  0  0  0  0
   64.7005   34.0879   48.2589 H   0  0  0  0  0  0  0  0  0  0  0  0
   63.3167   35.4247   49.8484 H   0  0  0  0  0  0  0  0  0  0  0  0
   60.9246   34.8242   50.2319 H   0  0  0  0  0  0  0  0  0  0  0  0
   59.9091   32.8896   49.0244 H   0  0  0  0  0  0  0  0  0  0  0  0
   57.5143   30.6099   45.3079 H   0  0  0  0  0  0  0  0  0  0  0  0
   54.4110   28.8700   44.5020 H   0  0  0  0  0  0  0  0  0  0  0  0
  1  2  1  0
  2  3  2  0
  3  4  1  0
  4  5  2  0
  5  6  1  0
  6  7  2  0
  7  8  1  0
  8  9  1  0
  9 10  2  0
 10 11  1  0
 11 12  2  0
 12 13  1  0
 13 14  2  0
  8 15  2  0
 15 16  1  0
  5 17  1  0
 17 18  2  0
 18 19  1  0
 18  2  1  0
 16  6  1  0
 14  9  1  0
  3 20  1  0
  4 21  1  0
 10 22  1  0
 11 23  1  0
 12 24  1  0
 13 25  1  0
 14 26  1  0
 17 27  1  0
 19 28  1  0
M  CHG  1   1  -1
M  END
>  <UniqueID>  (28) 
27

>  <SMILES>  (28) 
[O-]c1ccc(-c2nc(-c3ccccc3)no2)cc1O

>  <Energy>  (28) 
64.83178162471609

>  <Genealogy>  (28) 
[O-]c1ccc(-c2nc(-c3ccccc3)no2)cc1O (protonated)
[O-]c1ccc(-c2nc(-c3ccccc3)no2)cc1O (3D coordinates assigned)
[O-]c1ccc(-c2nc(-c3ccccc3)no2)cc1O (optimized conformer: 64.83178162471609 kcal/mol)

>  <smiles>  (28) 
Oc1ccc(-c2nc(-c3ccccc3)no2)cc1O

>  <score_type>  (28) 
oracle

>  <origin>  (28) 
adg

>  <m_score__min__energy>  (28) 
-9.6099999999999994

>  <m_primary>  (28) 
energy

$$$$
28:0
     RDKit          3D

 54 56  0  0  0  0  0  0  0  0999 V2000
   67.0680   33.0100   50.6410 C   0  0  0  0  0  0  0  0  0  0  0  0
   66.1470   32.7400   49.5900 O   0  0  0  0  0  0  0  0  0  0  0  0
   64.8060   32.3760   49.7880 C   0  0  0  0  0  0  0  0  0  0  0  0
   64.3790   31.6520   50.9190 C   0  0  0  0  0  0  0  0  0  0  0  0
   63.0290   31.3270   51.0780 C   0  0  0  0  0  0  0  0  0  0  0  0
   62.0880   31.7150   50.1120 C   0  0  0  0  0  0  0  0  0  0  0  0
   60.6990   31.3880   50.2810 N   0  0  0  0  0  0  0  0  0  0  0  0
   60.2980   30.0170   50.6100 C   0  0  0  0  0  0  0  0  0  0  0  0
   59.3680   29.4970   49.5630 C   0  0  0  0  0  0  0  0  0  0  0  0
   58.1430   29.7880   49.6210 O   0  0  0  0  0  0  0  0  0  0  0  0
   59.9020   28.7690   48.4500 N   0  0  0  0  0  0  0  0  0  0  0  0
   59.2150   28.4040   47.2430 C   0  0  0  0  0  0  0  0  0  0  0  0
   59.4200   29.0830   46.0280 C   0  0  0  0  0  0  0  0  0  0  0  0
   58.7130   28.7050   44.8830 C   0  0  0  0  0  0  0  0  0  0  0  0
   57.7860   27.6610   44.9430 C   0  0  0  0  0  0  0  0  0  0  0  0
   57.5530   26.9950   46.1550 C   0  0  0  0  0  0  0  0  0  0  0  0
   56.3830   25.6830   46.2420 S   0  0  0  0  0  0  0  0  0  0  0  0
   54.7940   26.3120   45.9960 N   0  0  0  0  0  0  0  0  0  0  0  0
   56.6900   24.6640   45.1810 O   0  0  0  0  0  0  0  0  0  0  0  0
   56.4560   25.0170   47.5870 O   0  0  0  0  0  0  0  0  0  0  0  0
   58.2690   27.3710   47.3000 C   0  0  0  0  0  0  0  0  0  0  0  0
   59.4990   32.6470   50.2600 S   0  0  0  0  0  0  0  0  0  0  0  0
   58.2580   32.1570   50.9510 O   0  0  0  0  0  0  0  0  0  0  0  0
   60.0130   33.8650   50.9790 O   0  0  0  0  0  0  0  0  0  0  0  0
   59.1500   33.0920   48.5920 C   0  0  0  0  0  0  0  0  0  0  0  0
   59.5730   34.3360   48.1070 C   0  0  0  0  0  0  0  0  0  0  0  0
   59.3180   34.6980   46.7800 C   0  0  0  0  0  0  0  0  0  0  0  0
   58.6440   33.8140   45.9220 C   0  0  0  0  0  0  0  0  0  0  0  0
   58.3390   34.2190   44.5100 C   0  0  0  0  0  0  0  0  0  0  0  0
   58.2010   32.5770   46.4180 C   0  0  0  0  0  0  0  0  0  0  0  0
   58.4570   32.2150   47.7450 C   0  0  0  0  0  0  0  0  0  0  0  0
   62.5140   32.4280   48.9830 C   0  0  0  0  0  0  0  0  0  0  0  0
   63.8650   32.7560   48.8240 C   0  0  0  0  0  0  0  0  0  0  0  0
   66.5704   32.8641   51.6111 H   0  0  0  0  0  0  0  0  0  0  0  0
   67.9254   32.3254   50.5621 H   0  0  0  0  0  0  0  0  0  0  0  0
   67.4201   34.0491   50.5621 H   0  0  0  0  0  0  0  0  0  0  0  0
   65.1107   31.3415   51.6794 H   0  0  0  0  0  0  0  0  0  0  0  0
   62.7025   30.7642   51.9649 H   0  0  0  0  0  0  0  0  0  0  0  0
   61.1910   29.3764   50.6560 H   0  0  0  0  0  0  0  0  0  0  0  0
   59.7875   30.0117   51.5844 H   0  0  0  0  0  0  0  0  0  0  0  0
   60.1390   29.9141   45.9789 H   0  0  0  0  0  0  0  0  0  0  0  0
   58.8867   29.2306   43.9324 H   0  0  0  0  0  0  0  0  0  0  0  0
   57.2379   27.3610   44.0377 H   0  0  0  0  0  0  0  0  0  0  0  0
   54.6660   27.1010   46.6700 H   0  0  0  0  0  0  0  0  0  0  0  0
   58.0869   26.8507   48.2519 H   0  0  0  0  0  0  0  0  0  0  0  0
   60.1075   35.0306   48.7717 H   0  0  0  0  0  0  0  0  0  0  0  0
   59.6468   35.6792   46.4071 H   0  0  0  0  0  0  0  0  0  0  0  0
   57.6773   35.0977   44.5154 H   0  0  0  0  0  0  0  0  0  0  0  0
   59.2755   34.4684   43.9897 H   0  0  0  0  0  0  0  0  0  0  0  0
   57.8406   33.3878   43.9897 H   0  0  0  0  0  0  0  0  0  0  0  0
   57.6499   31.8892   45.7598 H   0  0  0  0  0  0  0  0  0  0  0  0
   58.1142   31.2411   48.1245 H   0  0  0  0  0  0  0  0  0  0  0  0
   61.7832   32.7310   48.2187 H   0  0  0  0  0  0  0  0  0  0  0  0
   64.1899   33.3165   47.9350 H   0  0  0  0  0  0  0  0  0  0  0  0
  1  2  1  0
  2  3  1  0
  3  4  2  0
  4  5  1  0
  5  6  2  0
  6  7  1  0
  7  8  1  0
  8  9  1  0
  9 10  2  0
  9 11  1  0
 11 12  1  0
 12 13  2  0
 13 14  1  0
 14 15  2  0
 15 16  1  0
 16 17  1  0
 17 18  1  0
 17 19  2  0
 17 20  2  0
 16 21  2  0
  7 22  1  0
 22 23  2  0
 22 24  2  0
 22 25  1  0
 25 26  2  0
 26 27  1  0
 27 28  2  0
 28 29  1  0
 28 30  1  0
 30 31  2  0
  6 32  1  0
 32 33  2  0
 33  3  1  0
 21 12  1  0
 31 25  1  0
  1 34  1  0
  1 35  1  0
  1 36  1  0
  4 37  1  0
  5 38  1  0
  8 39  1  0
  8 40  1  0
 13 41  1  0
 14 42  1  0
 15 43  1  0
 18 44  1  0
 21 45  1  0
 26 46  1  0
 27 47  1  0
 29 48  1  0
 29 49  1  0
 29 50  1  0
 30 51  1  0
 31 52  1  0
 32 53  1  0
 33 54  1  0
M  CHG  2  11  -1  18  -1
M  END
>  <UniqueID>  (29) 
28

>  <SMILES>  (29) 
COc1ccc(N(CC(=O)[N-]c2cccc(S([NH-])(=O)=O)c2)S(=O)(=O)c2ccc(C)cc2)cc1

>  <Energy>  (29) 
61.66690059720495

>  <Genealogy>  (29) 
COc1ccc(N(CC(=O)[N-]c2cccc(S([NH-])(=O)=O)c2)S(=O)(=O)c2ccc(C)cc2)cc1 (protonated)
COc1ccc(N(CC(=O)[N-]c2cccc(S([NH-])(=O)=O)c2)S(=O)(=O)c2ccc(C)cc2)cc1 (3D coordinates assigned)
COc1ccc(N(CC(=O)[N-]c2cccc(S([NH-])(=O)=O)c2)S(=O)(=O)c2ccc(C)cc2)cc1 (optimized conformer: 61.66690059720495 kcal/mol)

>  <smiles>  (29) 
COc1ccc(N(CC(=O)Nc2cccc(S(N)(=O)=O)c2)S(=O)(=O)c2ccc(C)cc2)cc1

>  <score_type>  (29) 
oracle

>  <origin>  (29) 
adg

>  <m_score__min__energy>  (29) 
-14.050000000000001

>  <m_primary>  (29) 
energy

$$$$
29:0
     RDKit          3D

 50 52  0  0  0  0  0  0  0  0999 V2000
   58.8450   27.0730   47.8560 C   0  0  0  0  0  0  0  0  0  0  0  0
   58.4210   28.0160   46.7540 C   0  0  0  0  0  0  0  0  0  0  0  0
   58.9880   29.3130   46.6580 C   0  0  0  0  0  0  0  0  0  0  0  0
   59.9570   29.7850   47.6000 N   0  0  0  0  0  0  0  0  0  0  0  0
   59.7440   29.8890   49.0140 C   0  0  0  0  0  0  0  0  0  0  0  0
   58.5650   29.9760   49.4450 O   0  0  0  0  0  0  0  0  0  0  0  0
   60.8830   29.9100   49.9980 C   0  0  0  0  0  0  0  0  0  0  0  0
   61.2880   31.2430   50.3080 O   0  0  0  0  0  0  0  0  0  0  0  0
   62.5650   31.7880   50.0910 C   0  0  0  0  0  0  0  0  0  0  0  0
   63.7110   31.2560   50.7180 C   0  0  0  0  0  0  0  0  0  0  0  0
   64.9770   31.7710   50.4380 C   0  0  0  0  0  0  0  0  0  0  0  0
   65.1200   32.8240   49.5370 C   0  0  0  0  0  0  0  0  0  0  0  0
   63.9960   33.3780   48.9240 C   0  0  0  0  0  0  0  0  0  0  0  0
   62.7080   32.8830   49.2050 C   0  0  0  0  0  0  0  0  0  0  0  0
   61.5340   33.5320   48.5670 C   0  0  0  0  0  0  0  0  0  0  0  0
   61.4320   34.7890   48.6020 O   0  0  0  0  0  0  0  0  0  0  0  0
   60.4710   32.7420   48.0040 N   0  0  0  0  0  0  0  0  0  0  0  0
   59.4910   33.2230   47.0660 C   0  0  0  0  0  0  0  0  0  0  0  0
   58.1160   32.9590   47.2200 C   0  0  0  0  0  0  0  0  0  0  0  0
   57.1900   33.4720   46.3060 C   0  0  0  0  0  0  0  0  0  0  0  0
   57.6210   34.2610   45.2390 C   0  0  0  0  0  0  0  0  0  0  0  0
   58.9800   34.5410   45.0820 C   0  0  0  0  0  0  0  0  0  0  0  0
   59.9100   34.0300   45.9930 C   0  0  0  0  0  0  0  0  0  0  0  0
   58.6450   30.1520   45.5930 C   0  0  0  0  0  0  0  0  0  0  0  0
   57.7230   29.7370   44.6370 C   0  0  0  0  0  0  0  0  0  0  0  0
   57.1340   28.4790   44.7340 C   0  0  0  0  0  0  0  0  0  0  0  0
   57.4540   27.6160   45.7920 C   0  0  0  0  0  0  0  0  0  0  0  0
   56.6350   26.0450   45.8790 S   0  0  0  0  0  0  0  0  0  0  0  0
   54.9230   26.2740   45.9330 N   0  0  0  0  0  0  0  0  0  0  0  0
   57.0880   25.3040   47.1050 O   0  0  0  0  0  0  0  0  0  0  0  0
   56.9650   25.2170   44.6680 O   0  0  0  0  0  0  0  0  0  0  0  0
   58.6377   27.5340   48.8330 H   0  0  0  0  0  0  0  0  0  0  0  0
   58.2838   26.1310   47.7686 H   0  0  0  0  0  0  0  0  0  0  0  0
   59.9221   26.8676   47.7686 H   0  0  0  0  0  0  0  0  0  0  0  0
   60.5633   29.4100   50.9242 H   0  0  0  0  0  0  0  0  0  0  0  0
   61.7384   29.3885   49.5437 H   0  0  0  0  0  0  0  0  0  0  0  0
   63.6056   30.4277   51.4341 H   0  0  0  0  0  0  0  0  0  0  0  0
   65.8640   31.3448   50.9296 H   0  0  0  0  0  0  0  0  0  0  0  0
   66.1208   33.2192   49.3086 H   0  0  0  0  0  0  0  0  0  0  0  0
   64.1170   34.2096   48.2142 H   0  0  0  0  0  0  0  0  0  0  0  0
   60.3460   31.7740   48.3800 H   0  0  0  0  0  0  0  0  0  0  0  0
   57.7684   32.3456   48.0643 H   0  0  0  0  0  0  0  0  0  0  0  0
   56.1190   33.2529   46.4287 H   0  0  0  0  0  0  0  0  0  0  0  0
   56.8903   34.6625   44.5215 H   0  0  0  0  0  0  0  0  0  0  0  0
   59.3193   35.1639   44.2412 H   0  0  0  0  0  0  0  0  0  0  0  0
   60.9783   34.2612   45.8693 H   0  0  0  0  0  0  0  0  0  0  0  0
   59.1072   31.1468   45.5105 H   0  0  0  0  0  0  0  0  0  0  0  0
   57.4589   30.4040   43.8031 H   0  0  0  0  0  0  0  0  0  0  0  0
   56.4089   28.1583   43.9715 H   0  0  0  0  0  0  0  0  0  0  0  0
   54.7430   27.0660   46.5890 H   0  0  0  0  0  0  0  0  0  0  0  0
  1  2  1  0
  2  3  2  0
  3  4  1  0
  4  5  1  0
  5  6  2  0
  5  7  1  0
  7  8  1  0
  8  9  1  0
  9 10  2  0
 10 11  1  0
 11 12  2  0
 12 13  1  0
 13 14  2  0
 14 15  1  0
 15 16  2  0
 15 17  1  0
 17 18  1  0
 18 19  2  0
 19 20  1  0
 20 21  2  0
 21 22  1  0
 22 23  2  0
  3 24  1  0
 24 25  2  0
 25 26  1  0
 26 27  2  0
 27 28  1  0
 28 29  1  0
 28 30  2  0
 28 31  2  0
 27  2  1  0
 14  9  1  0
 23 18  1  0
  1 32  1  0
  1 33  1  0
  1 34  1  0
  7 35  1  0
  7 36  1  0
 10 37  1  0
 11 38  1  0
 12 39  1  0
 13 40  1  0
 17 41  1  0
 19 42  1  0
 20 43  1  0
 21 44  1  0
 22 45  1  0
 23 46  1  0
 24 47  1  0
 25 48  1  0
 26 49  1  0
 29 50  1  0
M  CHG  2   4  -1  29  -1
M  END
>  <UniqueID>  (30) 
29

>  <SMILES>  (30) 
Cc1c([N-]C(=O)COc2ccccc2C(=O)Nc2ccccc2)cccc1S([NH-])(=O)=O

>  <Energy>  (30) 
63.273344453549846

>  <Genealogy>  (30) 
Cc1c([N-]C(=O)COc2ccccc2C(=O)Nc2ccccc2)cccc1S([NH-])(=O)=O (protonated)
Cc1c([N-]C(=O)COc2ccccc2C(=O)Nc2ccccc2)cccc1S([NH-])(=O)=O (3D coordinates assigned)
Cc1c([N-]C(=O)COc2ccccc2C(=O)Nc2ccccc2)cccc1S([NH-])(=O)=O (optimized conformer: 63.273344453549846 kcal/mol)

>  <smiles>  (30) 
Cc1c(NC(=O)COc2ccccc2C(=O)Nc2ccccc2)cccc1S(N)(=O)=O

>  <score_type>  (30) 
oracle

>  <origin>  (30) 
adg

>  <m_score__min__energy>  (30) 
-12.380000000000001

>  <m_primary>  (30) 
energy

$$$$
30:0
     RDKit          3D

 48 50  0  0  1  0  0  0  0  0999 V2000
   56.9430   29.2670   42.9560 N   0  0  0  0  0  0  0  0  0  0  0  0
   56.5520   29.8690   44.5100 S   0  0  0  0  0  0  0  0  0  0  0  0
   55.1860   29.3520   44.9110 O   0  0  0  0  0  0  0  0  0  0  0  0
   56.4260   31.3640   44.4200 O   0  0  0  0  0  0  0  0  0  0  0  0
   57.6840   29.3770   45.7480 C   0  0  0  0  0  0  0  0  0  0  0  0
   57.6200   28.1450   46.3720 C   0  0  0  0  0  0  0  0  0  0  0  0
   58.5540   27.8230   47.3480 C   0  0  0  0  0  0  0  0  0  0  0  0
   59.5350   28.7380   47.6800 C   0  0  0  0  0  0  0  0  0  0  0  0
   60.5710   28.4490   48.7240 C   0  0  0  0  0  0  0  0  0  0  0  0
   59.9230   28.7400   49.9890 N   0  0  0  0  0  0  0  0  0  0  0  0
   59.5690   29.9570   50.2250 C   0  0  0  0  0  0  0  0  0  0  0  0
   58.2650   30.1250   50.5900 N   0  0  0  0  0  0  0  0  0  0  0  0
   57.7790   31.3490   50.8610 C   0  0  0  0  0  0  0  0  0  0  0  0
   58.6510   32.4160   50.7540 C   0  0  0  0  0  0  0  0  0  0  0  0
   59.9750   32.2580   50.3840 C   0  0  0  0  0  0  0  0  0  0  0  0
   60.7480   33.2960   50.3000 N   0  0  0  0  0  0  0  0  0  0  0  0
   60.7170   34.2100   49.1880 C   0  0  0  0  0  0  0  0  0  0  0  0
   60.8520   33.5260   47.8450 C   0  0  0  0  0  0  0  0  0  0  0  0
   59.6150   33.6920   47.0190 C   0  0  0  0  0  0  0  0  0  0  0  0
   59.7570   34.2950   45.7660 C   0  0  0  0  0  0  0  0  0  0  0  0
   58.6630   34.4830   44.9480 C   0  0  0  0  0  0  0  0  0  0  0  0
   57.4250   34.0720   45.3750 C   0  0  0  0  0  0  0  0  0  0  0  0
   57.2980   33.4750   46.6200 C   0  0  0  0  0  0  0  0  0  0  0  0
   58.3750   33.2840   47.4390 C   0  0  0  0  0  0  0  0  0  0  0  0
   60.4150   31.0050   50.1230 N   0  0  0  0  0  0  0  0  0  0  0  0
   59.6190   29.9860   47.0640 C   0  0  0  0  0  0  0  0  0  0  0  0
   58.6780   30.2850   46.0960 C   0  0  0  0  0  0  0  0  0  0  0  0
   56.7170   28.2310   42.9000 H   0  0  0  0  0  0  0  0  0  0  0  0
   58.0020   29.2960   42.8460 H   0  0  0  0  0  0  0  0  0  0  0  0
   56.8350   27.4250   46.0974 H   0  0  0  0  0  0  0  0  0  0  0  0
   58.5133   26.8467   47.8532 H   0  0  0  0  0  0  0  0  0  0  0  0
   60.8786   27.3938   48.6813 H   0  0  0  0  0  0  0  0  0  0  0  0
   61.4813   29.0493   48.5791 H   0  0  0  0  0  0  0  0  0  0  0  0
   57.6210   29.3050   50.6650 H   0  0  0  0  0  0  0  0  0  0  0  0
   56.7295   31.4953   51.1560 H   0  0  0  0  0  0  0  0  0  0  0  0
   58.2788   33.4281   50.9710 H   0  0  0  0  0  0  0  0  0  0  0  0
   59.7601   34.7522   49.2087 H   0  0  0  0  0  0  0  0  0  0  0  0
   61.5790   34.8845   49.2974 H   0  0  0  0  0  0  0  0  0  0  0  0
   61.7042   33.9640   47.3047 H   0  0  0  0  0  0  0  0  0  0  0  0
   61.0097   32.4513   48.0189 H   0  0  0  0  0  0  0  0  0  0  0  0
   60.7515   34.6229   45.4291 H   0  0  0  0  0  0  0  0  0  0  0  0
   58.7813   34.9578   43.9628 H   0  0  0  0  0  0  0  0  0  0  0  0
   56.5416   34.2149   44.7353 H   0  0  0  0  0  0  0  0  0  0  0  0
   56.3039   33.1464   46.9573 H   0  0  0  0  0  0  0  0  0  0  0  0
   58.2489   32.8088   48.4230 H   0  0  0  0  0  0  0  0  0  0  0  0
   61.4040   30.8420   49.8410 H   0  0  0  0  0  0  0  0  0  0  0  0
   60.4045   30.7058   47.3378 H   0  0  0  0  0  0  0  0  0  0  0  0
   58.7165   31.2613   45.5908 H   0  0  0  0  0  0  0  0  0  0  0  0
  1  2  1  0
  2  3  2  0
  2  4  2  0
  2  5  1  0
  5  6  2  0
  6  7  1  0
  7  8  2  0
  8  9  1  0
  9 10  1  0
 10 11  2  0
 11 12  1  0
 12 13  1  0
 13 14  2  0
 14 15  1  0
 15 16  2  0
 16 17  1  0
 17 18  1  0
 18 19  1  0
 19 20  2  0
 20 21  1  0
 21 22  2  0
 22 23  1  0
 23 24  2  0
 15 25  1  0
  8 26  1  0
 26 27  2  0
 27  5  1  0
 25 11  1  0
 24 19  1  0
  1 28  1  0
  1 29  1  0
  6 30  1  0
  7 31  1  0
  9 32  1  0
  9 33  1  0
 12 34  1  0
 13 35  1  0
 14 36  1  0
 17 37  1  0
 17 38  1  0
 18 39  1  0
 18 40  1  0
 20 41  1  0
 21 42  1  0
 22 43  1  0
 23 44  1  0
 24 45  1  0
 25 46  1  0
 26 47  1  0
 27 48  1  0
M  END
>  <smiles>  (31) 
NS(=O)(=O)c1ccc(CN=c2[nH]ccc(=NCCc3ccccc3)[nH]2)cc1

>  <score_type>  (31) 
oracle

>  <origin>  (31) 
adg

>  <m_score__min__energy>  (31) 
-9.5199999999999996

>  <m_primary>  (31) 
energy

$$$$
31:0
     RDKit          3D

 25 26  0  0  0  0  0  0  0  0999 V2000
   57.2900   27.1330   47.2090 O   0  0  0  0  0  0  0  0  0  0  0  0
   57.2680   27.4110   45.9820 C   0  0  0  0  0  0  0  0  0  0  0  0
   57.0840   26.3470   45.0380 N   0  0  0  0  0  0  0  0  0  0  0  0
   56.3510   25.1340   45.2660 C   0  0  0  0  0  0  0  0  0  0  0  0
   57.0080   23.9100   45.0880 C   0  0  0  0  0  0  0  0  0  0  0  0
   56.3290   22.7050   45.2920 C   0  0  0  0  0  0  0  0  0  0  0  0
   54.9920   22.7160   45.6950 C   0  0  0  0  0  0  0  0  0  0  0  0
   54.3360   23.9310   45.9090 C   0  0  0  0  0  0  0  0  0  0  0  0
   55.0130   25.1400   45.7130 C   0  0  0  0  0  0  0  0  0  0  0  0
   54.3590   26.3330   45.9960 O   0  0  0  0  0  0  0  0  0  0  0  0
   57.4800   28.8140   45.5500 C   0  0  0  0  0  0  0  0  0  0  0  0
   56.4100   29.5590   45.0110 C   0  0  0  0  0  0  0  0  0  0  0  0
   55.1490   28.9880   44.8660 O   0  0  0  0  0  0  0  0  0  0  0  0
   56.6090   30.8790   44.5970 C   0  0  0  0  0  0  0  0  0  0  0  0
   57.8680   31.4720   44.7150 C   0  0  0  0  0  0  0  0  0  0  0  0
   58.1350   33.2740   44.1400 Br  0  0  0  0  0  0  0  0  0  0  0  0
   58.9300   30.7490   45.2630 C   0  0  0  0  0  0  0  0  0  0  0  0
   58.7420   29.4310   45.6900 C   0  0  0  0  0  0  0  0  0  0  0  0
   59.8060   28.7540   46.2750 O   0  0  0  0  0  0  0  0  0  0  0  0
   58.0655   23.8966   44.7856 H   0  0  0  0  0  0  0  0  0  0  0  0
   56.8481   21.7480   45.1350 H   0  0  0  0  0  0  0  0  0  0  0  0
   54.4550   21.7676   45.8441 H   0  0  0  0  0  0  0  0  0  0  0  0
   53.2846   23.9372   46.2324 H   0  0  0  0  0  0  0  0  0  0  0  0
   55.7704   31.4533   44.1764 H   0  0  0  0  0  0  0  0  0  0  0  0
   59.9198   31.2192   45.3592 H   0  0  0  0  0  0  0  0  0  0  0  0
  1  2  2  0
  2  3  1  0
  3  4  1  0
  4  5  2  0
  5  6  1  0
  6  7  2  0
  7  8  1  0
  8  9  2  0
  9 10  1  0
  2 11  1  0
 11 12  2  0
 12 13  1  0
 12 14  1  0
 14 15  2  0
 15 16  1  0
 15 17  1  0
 17 18  2  0
 18 19  1  0
  9  4  1  0
 18 11  1  0
  5 20  1  0
  6 21  1  0
  7 22  1  0
  8 23  1  0
 14 24  1  0
 17 25  1  0
M  CHG  4   3  -1  10  -1  13  -1  19  -1
M  END
>  <UniqueID>  (32) 
30

>  <SMILES>  (32) 
O=C([N-]c1ccccc1[O-])c1c([O-])cc(Br)cc1[O-]

>  <Energy>  (32) 
37.51798773055854

>  <Genealogy>  (32) 
O=C([N-]c1ccccc1[O-])c1c([O-])cc(Br)cc1[O-] (protonated)
O=C([N-]c1ccccc1[O-])c1c([O-])cc(Br)cc1[O-] (3D coordinates assigned)
O=C([N-]c1ccccc1[O-])c1c([O-])cc(Br)cc1[O-] (optimized conformer: 37.51798773055854 kcal/mol)

>  <smiles>  (32) 
O=C(Nc1ccccc1O)c1c(O)cc(Br)cc1O

>  <score_type>  (32) 
oracle

>  <origin>  (32) 
adg

>  <m_score__min__energy>  (32) 
-16.41

>  <m_primary>  (32) 
energy

$$$$
32:0
     RDKit          3D

 72 77  0  0  0  0  0  0  0  0999 V2000
   65.7370   28.5340   52.0070 C   0  0  0  0  0  0  0  0  0  0  0  0
   66.4300   29.7720   51.8850 O   0  0  0  0  0  0  0  0  0  0  0  0
   65.9360   30.8930   51.2030 C   0  0  0  0  0  0  0  0  0  0  0  0
   66.7640   31.9620   50.8050 C   0  0  0  0  0  0  0  0  0  0  0  0
   66.2230   33.0570   50.1240 C   0  0  0  0  0  0  0  0  0  0  0  0
   64.8560   33.0990   49.8380 C   0  0  0  0  0  0  0  0  0  0  0  0
   64.0200   32.0450   50.2330 C   0  0  0  0  0  0  0  0  0  0  0  0
   62.5670   32.0980   49.9440 C   0  0  0  0  0  0  0  0  0  0  0  0
   62.0480   31.8270   48.6610 C   0  0  0  0  0  0  0  0  0  0  0  0
   63.0010   31.6220   47.4960 C   0  0  0  0  0  0  0  0  0  0  0  0
   60.6800   31.7750   48.4790 N   0  0  0  0  0  0  0  0  0  0  0  0
   60.0930   31.3800   47.1690 C   0  0  0  0  0  0  0  0  0  0  0  0
   59.6210   32.5690   46.3490 C   0  0  0  0  0  0  0  0  0  0  0  0
   60.1070   33.8520   46.6650 C   0  0  0  0  0  0  0  0  0  0  0  0
   59.6600   34.9750   45.9670 C   0  0  0  0  0  0  0  0  0  0  0  0
   58.7220   34.8360   44.9440 C   0  0  0  0  0  0  0  0  0  0  0  0
   58.2380   33.5720   44.6060 C   0  0  0  0  0  0  0  0  0  0  0  0
   58.6880   32.4310   45.2900 C   0  0  0  0  0  0  0  0  0  0  0  0
   58.1840   31.1150   44.8560 C   0  0  0  0  0  0  0  0  0  0  0  0
   59.0720   30.0400   44.6960 C   0  0  0  0  0  0  0  0  0  0  0  0
   58.6090   28.8100   44.2200 C   0  0  0  0  0  0  0  0  0  0  0  0
   57.2590   28.6510   43.8920 C   0  0  0  0  0  0  0  0  0  0  0  0
   56.3680   29.7180   44.0530 C   0  0  0  0  0  0  0  0  0  0  0  0
   55.0560   29.5570   43.7450 F   0  0  0  0  0  0  0  0  0  0  0  0
   56.8290   30.9500   44.5290 C   0  0  0  0  0  0  0  0  0  0  0  0
   59.8450   32.1920   49.4940 C   0  0  0  0  0  0  0  0  0  0  0  0
   58.6020   32.2780   49.2850 O   0  0  0  0  0  0  0  0  0  0  0  0
   60.3380   32.5210   50.7320 N   0  0  0  0  0  0  0  0  0  0  0  0
   59.4020   32.9120   51.8150 C   0  0  0  0  0  0  0  0  0  0  0  0
   58.3010   31.8860   52.0010 C   0  0  0  0  0  0  0  0  0  0  0  0
   56.9700   32.3280   52.1240 C   0  0  0  0  0  0  0  0  0  0  0  0
   55.9360   31.4210   52.3770 C   0  0  0  0  0  0  0  0  0  0  0  0
   56.2180   30.0630   52.5160 C   0  0  0  0  0  0  0  0  0  0  0  0
   57.5290   29.6050   52.3860 C   0  0  0  0  0  0  0  0  0  0  0  0
   58.5760   30.5010   52.1100 C   0  0  0  0  0  0  0  0  0  0  0  0
   59.8970   29.9790   51.9120 N   0  0  0  0  0  0  0  0  0  0  0  0
   60.3350   29.2840   50.8510 C   0  0  0  0  0  0  0  0  0  0  0  0
   61.6010   28.8230   51.1420 C   0  0  0  0  0  0  0  0  0  0  0  0
   61.9460   29.2060   52.3890 N   0  0  0  0  0  0  0  0  0  0  0  0
   60.8790   29.9040   52.8310 C   0  0  0  0  0  0  0  0  0  0  0  0
   61.6810   32.4220   50.9760 C   0  0  0  0  0  0  0  0  0  0  0  0
   62.1360   32.6200   52.1370 O   0  0  0  0  0  0  0  0  0  0  0  0
   64.5670   30.9460   50.9130 C   0  0  0  0  0  0  0  0  0  0  0  0
   65.6020   28.2928   53.0717 H   0  0  0  0  0  0  0  0  0  0  0  0
   64.7531   28.6152   51.5218 H   0  0  0  0  0  0  0  0  0  0  0  0
   66.3206   27.7378   51.5218 H   0  0  0  0  0  0  0  0  0  0  0  0
   67.8402   31.9348   51.0310 H   0  0  0  0  0  0  0  0  0  0  0  0
   66.8748   33.8867   49.8129 H   0  0  0  0  0  0  0  0  0  0  0  0
   64.4344   33.9616   49.3013 H   0  0  0  0  0  0  0  0  0  0  0  0
   64.0086   31.4052   47.8803 H   0  0  0  0  0  0  0  0  0  0  0  0
   62.6534   30.7781   46.8820 H   0  0  0  0  0  0  0  0  0  0  0  0
   63.0311   32.5342   46.8820 H   0  0  0  0  0  0  0  0  0  0  0  0
   60.8560   30.8367   46.5922 H   0  0  0  0  0  0  0  0  0  0  0  0
   59.2134   30.7532   47.3774 H   0  0  0  0  0  0  0  0  0  0  0  0
   60.8467   33.9706   47.4704 H   0  0  0  0  0  0  0  0  0  0  0  0
   60.0482   35.9716   46.2241 H   0  0  0  0  0  0  0  0  0  0  0  0
   58.3635   35.7242   44.4031 H   0  0  0  0  0  0  0  0  0  0  0  0
   57.4987   33.4683   43.7981 H   0  0  0  0  0  0  0  0  0  0  0  0
   60.1358   30.1658   44.9460 H   0  0  0  0  0  0  0  0  0  0  0  0
   59.3064   27.9674   44.1035 H   0  0  0  0  0  0  0  0  0  0  0  0
   56.8970   27.6862   43.5070 H   0  0  0  0  0  0  0  0  0  0  0  0
   56.1290   31.7902   44.6471 H   0  0  0  0  0  0  0  0  0  0  0  0
   59.9644   33.0062   52.7557 H   0  0  0  0  0  0  0  0  0  0  0  0
   58.9361   33.8690   51.5373 H   0  0  0  0  0  0  0  0  0  0  0  0
   56.7408   33.3988   52.0199 H   0  0  0  0  0  0  0  0  0  0  0  0
   54.8999   31.7794   52.4663 H   0  0  0  0  0  0  0  0  0  0  0  0
   55.4060   29.3520   52.7284 H   0  0  0  0  0  0  0  0  0  0  0  0
   57.7455   28.5326   52.5006 H   0  0  0  0  0  0  0  0  0  0  0  0
   59.7822   29.1127   49.9156 H   0  0  0  0  0  0  0  0  0  0  0  0
   62.2332   28.2333   50.4619 H   0  0  0  0  0  0  0  0  0  0  0  0
   60.8180   30.3606   53.8299 H   0  0  0  0  0  0  0  0  0  0  0  0
   63.9132   30.1170   51.2216 H   0  0  0  0  0  0  0  0  0  0  0  0
  1  2  1  0
  2  3  1  0
  3  4  2  0
  4  5  1  0
  5  6  2  0
  6  7  1  0
  7  8  1  0
  8  9  2  0
  9 10  1  0
  9 11  1  0
 11 12  1  0
 12 13  1  0
 13 14  2  0
 14 15  1  0
 15 16  2  0
 16 17  1  0
 17 18  2  0
 18 19  1  0
 19 20  2  0
 20 21  1  0
 21 22  2  0
 22 23  1  0
 23 24  1  0
 23 25  2  0
 11 26  1  0
 26 27  2  0
 26 28  1  0
 28 29  1  0
 29 30  1  0
 30 31  2  0
 31 32  1  0
 32 33  2  0
 33 34  1  0
 34 35  2  0
 35 36  1  0
 36 37  1  0
 37 38  2  0
 38 39  1  0
 39 40  2  0
 28 41  1  0
 41 42  2  0
  7 43  2  0
 43  3  1  0
 41  8  1  0
 18 13  1  0
 25 19  1  0
 35 30  1  0
 40 36  1  0
  1 44  1  0
  1 45  1  0
  1 46  1  0
  4 47  1  0
  5 48  1  0
  6 49  1  0
 10 50  1  0
 10 51  1  0
 10 52  1  0
 12 53  1  0
 12 54  1  0
 14 55  1  0
 15 56  1  0
 16 57  1  0
 17 58  1  0
 20 59  1  0
 21 60  1  0
 22 61  1  0
 25 62  1  0
 29 63  1  0
 29 64  1  0
 31 65  1  0
 32 66  1  0
 33 67  1  0
 34 68  1  0
 37 69  1  0
 38 70  1  0
 40 71  1  0
 43 72  1  0
M  END
>  <UniqueID>  (33) 
31

>  <SMILES>  (33) 
COc1cccc(-c2c(C)n(Cc3ccccc3-c3cccc(F)c3)c(=O)n(Cc3ccccc3-n3ccnc3)c2=O)c1

>  <Energy>  (33) 
141.63169852483423

>  <Genealogy>  (33) 
COc1cccc(-c2c(C)n(Cc3ccccc3-c3cccc(F)c3)c(=O)n(Cc3ccccc3-n3ccnc3)c2=O)c1 (3D coordinates assigned)
COc1cccc(-c2c(C)n(Cc3ccccc3-c3cccc(F)c3)c(=O)n(Cc3ccccc3-n3ccnc3)c2=O)c1 (optimized conformer: 141.63169852483423 kcal/mol)

>  <smiles>  (33) 
COc1cccc(-c2c(C)n(Cc3ccccc3-c3cccc(F)c3)c(=O)n(Cc3ccccc3-n3ccnc3)c2=O)c1

>  <score_type>  (33) 
oracle

>  <origin>  (33) 
adg

>  <m_score__min__energy>  (33) 
-9.6999999999999993

>  <m_primary>  (33) 
energy

$$$$
33:0
     RDKit          3D

 59 62  0  0  0  0  0  0  0  0999 V2000
   57.7460   27.9620   44.1320 C   0  0  0  0  0  0  0  0  0  0  0  0
   57.0420   28.7170   45.2580 C   0  0  0  0  0  0  0  0  0  0  0  0
   56.5900   30.0590   44.8210 N   0  0  0  0  0  0  0  0  0  0  0  0
   56.2240   30.1630   43.3860 C   0  0  0  0  0  0  0  0  0  0  0  0
   57.0530   31.1960   42.6070 C   0  0  0  0  0  0  0  0  0  0  0  0
   57.5090   31.1370   45.2610 C   0  0  0  0  0  0  0  0  0  0  0  0
   58.8790   30.5450   45.6060 C   0  0  0  0  0  0  0  0  0  0  0  0
   59.3070   30.9680   46.9430 N   0  0  0  0  0  0  0  0  0  0  0  0
   59.3420   30.2050   48.0650 C   0  0  0  0  0  0  0  0  0  0  0  0
   59.1170   28.9640   48.0650 O   0  0  0  0  0  0  0  0  0  0  0  0
   59.5790   30.9210   49.1920 N   0  0  0  0  0  0  0  0  0  0  0  0
   59.4510   30.4530   50.5720 C   0  0  0  0  0  0  0  0  0  0  0  0
   58.1450   30.9120   51.1350 C   0  0  0  0  0  0  0  0  0  0  0  0
   57.0630   30.1170   51.2830 N   0  0  0  0  0  0  0  0  0  0  0  0
   56.1540   30.9850   51.7830 C   0  0  0  0  0  0  0  0  0  0  0  0
   54.7670   30.6020   52.1410 C   0  0  0  0  0  0  0  0  0  0  0  0
   53.6970   30.8330   51.2570 C   0  0  0  0  0  0  0  0  0  0  0  0
   52.3910   30.4800   51.6150 C   0  0  0  0  0  0  0  0  0  0  0  0
   52.1280   29.8910   52.8550 C   0  0  0  0  0  0  0  0  0  0  0  0
   50.7990   29.5630   53.1680 O   0  0  0  0  0  0  0  0  0  0  0  0
   50.4180   28.5270   54.0680 C   0  0  0  0  0  0  0  0  0  0  0  0
   53.1960   29.6480   53.7400 C   0  0  0  0  0  0  0  0  0  0  0  0
   54.5020   29.9990   53.3820 C   0  0  0  0  0  0  0  0  0  0  0  0
   56.6770   32.2210   51.9240 N   0  0  0  0  0  0  0  0  0  0  0  0
   57.9030   32.1440   51.5170 O   0  0  0  0  0  0  0  0  0  0  0  0
   59.6630   32.1970   48.7570 C   0  0  0  0  0  0  0  0  0  0  0  0
   59.7860   33.3680   49.5080 C   0  0  0  0  0  0  0  0  0  0  0  0
   59.7560   34.5940   48.8190 C   0  0  0  0  0  0  0  0  0  0  0  0
   59.5890   34.6260   47.4180 C   0  0  0  0  0  0  0  0  0  0  0  0
   59.4480   33.4300   46.6880 C   0  0  0  0  0  0  0  0  0  0  0  0
   59.5010   32.2260   47.3950 C   0  0  0  0  0  0  0  0  0  0  0  0
   58.4363   27.2217   44.5626 H   0  0  0  0  0  0  0  0  0  0  0  0
   56.9974   27.4478   43.5113 H   0  0  0  0  0  0  0  0  0  0  0  0
   58.3112   28.6728   43.5113 H   0  0  0  0  0  0  0  0  0  0  0  0
   56.1673   28.1353   45.5844 H   0  0  0  0  0  0  0  0  0  0  0  0
   57.7586   28.8487   46.0821 H   0  0  0  0  0  0  0  0  0  0  0  0
   56.3699   29.1779   42.9188 H   0  0  0  0  0  0  0  0  0  0  0  0
   55.1768   30.4974   43.3462 H   0  0  0  0  0  0  0  0  0  0  0  0
   57.5799   31.8525   43.3151 H   0  0  0  0  0  0  0  0  0  0  0  0
   57.7868   30.6753   41.9741 H   0  0  0  0  0  0  0  0  0  0  0  0
   56.3858   31.7996   41.9741 H   0  0  0  0  0  0  0  0  0  0  0  0
   57.6229   31.8725   44.4510 H   0  0  0  0  0  0  0  0  0  0  0  0
   57.0914   31.6277   46.1525 H   0  0  0  0  0  0  0  0  0  0  0  0
   58.8149   29.4472   45.5783 H   0  0  0  0  0  0  0  0  0  0  0  0
   59.6138   30.9042   44.8704 H   0  0  0  0  0  0  0  0  0  0  0  0
   59.4927   29.3540   50.5917 H   0  0  0  0  0  0  0  0  0  0  0  0
   60.2744   30.8623   51.1757 H   0  0  0  0  0  0  0  0  0  0  0  0
   53.8885   31.2946   50.2771 H   0  0  0  0  0  0  0  0  0  0  0  0
   51.5641   30.6677   50.9143 H   0  0  0  0  0  0  0  0  0  0  0  0
   50.5461   28.8754   55.1035 H   0  0  0  0  0  0  0  0  0  0  0  0
   49.3639   28.2627   53.8978 H   0  0  0  0  0  0  0  0  0  0  0  0
   51.0498   27.6427   53.8978 H   0  0  0  0  0  0  0  0  0  0  0  0
   53.0026   29.1803   54.7167 H   0  0  0  0  0  0  0  0  0  0  0  0
   55.3296   29.8009   54.0790 H   0  0  0  0  0  0  0  0  0  0  0  0
   56.2280   33.0860   52.2980 H   0  0  0  0  0  0  0  0  0  0  0  0
   59.9024   33.3328   50.6013 H   0  0  0  0  0  0  0  0  0  0  0  0
   59.8636   35.5359   49.3770 H   0  0  0  0  0  0  0  0  0  0  0  0
   59.5688   35.5921   46.8924 H   0  0  0  0  0  0  0  0  0  0  0  0
   59.3011   33.4432   45.5979 H   0  0  0  0  0  0  0  0  0  0  0  0
  1  2  1  0
  2  3  1  0
  3  4  1  0
  4  5  1  0
  3  6  1  0
  6  7  1  0
  7  8  1  0
  8  9  1  0
  9 10  2  0
  9 11  1  0
 11 12  1  0
 12 13  1  0
 13 14  2  0
 14 15  1  0
 15 16  1  0
 16 17  2  0
 17 18  1  0
 18 19  2  0
 19 20  1  0
 20 21  1  0
 19 22  1  0
 22 23  2  0
 15 24  2  0
 24 25  1  0
 11 26  1  0
 26 27  2  0
 27 28  1  0
 28 29  2  0
 29 30  1  0
 30 31  2  0
 31  8  1  0
 25 13  1  0
 31 26  1  0
 23 16  1  0
  1 32  1  0
  1 33  1  0
  1 34  1  0
  2 35  1  0
  2 36  1  0
  4 37  1  0
  4 38  1  0
  5 39  1  0
  5 40  1  0
  5 41  1  0
  6 42  1  0
  6 43  1  0
  7 44  1  0
  7 45  1  0
 12 46  1  0
 12 47  1  0
 17 48  1  0
 18 49  1  0
 21 50  1  0
 21 51  1  0
 21 52  1  0
 22 53  1  0
 23 54  1  0
 24 55  1  0
 27 56  1  0
 28 57  1  0
 29 58  1  0
 30 59  1  0
M  CHG  1  24   1
M  END
>  <UniqueID>  (34) 
32

>  <SMILES>  (34) 
CCN(CC)CCn1c(=O)n(Cc2nc(-c3ccc(OC)cc3)[nH+]o2)c2ccccc21

>  <Energy>  (34) 
133.88664105959893

>  <Genealogy>  (34) 
CCN(CC)CCn1c(=O)n(Cc2nc(-c3ccc(OC)cc3)[nH+]o2)c2ccccc21 (protonated)
CCN(CC)CCn1c(=O)n(Cc2nc(-c3ccc(OC)cc3)[nH+]o2)c2ccccc21 (3D coordinates assigned)
CCN(CC)CCn1c(=O)n(Cc2nc(-c3ccc(OC)cc3)[nH+]o2)c2ccccc21 (optimized conformer: 133.88664105959893 kcal/mol)

>  <smiles>  (34) 
CCN(CC)CCn1c(=O)n(Cc2nc(-c3ccc(OC)cc3)no2)c2ccccc21

>  <score_type>  (34) 
oracle

>  <origin>  (34) 
adg

>  <m_score__min__energy>  (34) 
-7.2000000000000002

>  <m_primary>  (34) 
energy

$$$$
34:0
     RDKit          3D

 42 43  0  0  0  0  0  0  0  0999 V2000
   60.3350   34.5640   47.5920 C   0  0  0  0  0  0  0  0  0  0  0  0
   59.3060   33.8070   46.8080 C   0  0  0  0  0  0  0  0  0  0  0  0
   58.2860   34.5100   46.1140 C   0  0  0  0  0  0  0  0  0  0  0  0
   57.3330   33.8180   45.3420 C   0  0  0  0  0  0  0  0  0  0  0  0
   57.4360   32.4320   45.2780 C   0  0  0  0  0  0  0  0  0  0  0  0
   56.6490   31.5770   44.6010 N   0  0  0  0  0  0  0  0  0  0  0  0
   57.1330   30.3610   44.8350 N   0  0  0  0  0  0  0  0  0  0  0  0
   56.5890   29.1450   44.2390 C   0  0  0  0  0  0  0  0  0  0  0  0
   57.4060   27.9210   44.6650 C   0  0  0  0  0  0  0  0  0  0  0  0
   57.0440   27.4890   46.0120 N   0  0  0  0  0  0  0  0  0  0  0  0
   56.2680   26.3290   46.3380 C   0  0  0  0  0  0  0  0  0  0  0  0
   55.0540   26.3000   46.0040 O   0  0  0  0  0  0  0  0  0  0  0  0
   56.8440   25.2140   47.0380 N   0  0  0  0  0  0  0  0  0  0  0  0
   56.0820   23.9830   47.2520 C   0  0  0  0  0  0  0  0  0  0  0  0
   56.8100   22.7870   46.6850 C   0  0  0  0  0  0  0  0  0  0  0  0
   57.2320   21.9130   47.4900 O   0  0  0  0  0  0  0  0  0  0  0  0
   56.9850   22.5850   45.2630 N   0  0  0  0  0  0  0  0  0  0  0  0
   57.7350   21.4110   44.8030 C   0  0  0  0  0  0  0  0  0  0  0  0
   56.4000   23.5060   44.2810 C   0  0  0  0  0  0  0  0  0  0  0  0
   58.2230   30.4260   45.6380 C   0  0  0  0  0  0  0  0  0  0  0  0
   58.4250   31.7530   45.9340 C   0  0  0  0  0  0  0  0  0  0  0  0
   59.3870   32.4000   46.7030 C   0  0  0  0  0  0  0  0  0  0  0  0
   60.1498   34.4277   48.6677 H   0  0  0  0  0  0  0  0  0  0  0  0
   61.3374   34.1865   47.3418 H   0  0  0  0  0  0  0  0  0  0  0  0
   60.2730   35.6334   47.3418 H   0  0  0  0  0  0  0  0  0  0  0  0
   58.2397   35.6070   46.1801 H   0  0  0  0  0  0  0  0  0  0  0  0
   56.5349   34.3546   44.8081 H   0  0  0  0  0  0  0  0  0  0  0  0
   55.5473   29.0163   44.5682 H   0  0  0  0  0  0  0  0  0  0  0  0
   56.6345   29.2369   43.1438 H   0  0  0  0  0  0  0  0  0  0  0  0
   57.2142   27.0983   43.9604 H   0  0  0  0  0  0  0  0  0  0  0  0
   58.4716   28.1940   44.6607 H   0  0  0  0  0  0  0  0  0  0  0  0
   57.8250   25.2800   47.3890 H   0  0  0  0  0  0  0  0  0  0  0  0
   55.9346   23.8350   48.3320 H   0  0  0  0  0  0  0  0  0  0  0  0
   55.1136   24.0780   46.7389 H   0  0  0  0  0  0  0  0  0  0  0  0
   58.0975   20.8436   45.6728 H   0  0  0  0  0  0  0  0  0  0  0  0
   57.0780   20.7711   44.1956 H   0  0  0  0  0  0  0  0  0  0  0  0
   58.5918   21.7381   44.1956 H   0  0  0  0  0  0  0  0  0  0  0  0
   55.8819   24.3217   44.8066 H   0  0  0  0  0  0  0  0  0  0  0  0
   57.1980   23.9248   43.6503 H   0  0  0  0  0  0  0  0  0  0  0  0
   55.6817   22.9617   43.6503 H   0  0  0  0  0  0  0  0  0  0  0  0
   58.8306   29.5779   45.9866 H   0  0  0  0  0  0  0  0  0  0  0  0
   60.1829   31.8361   47.2115 H   0  0  0  0  0  0  0  0  0  0  0  0
  1  2  1  0
  2  3  1  0
  3  4  2  0
  4  5  1  0
  5  6  2  0
  6  7  1  0
  7  8  1  0
  8  9  1  0
  9 10  1  0
 10 11  1  0
 11 12  2  0
 11 13  1  0
 13 14  1  0
 14 15  1  0
 15 16  2  0
 15 17  1  0
 17 18  1  0
 17 19  1  0
  7 20  1  0
 20 21  2  0
 21 22  1  0
 22  2  2  0
 21  5  1  0
  1 23  1  0
  1 24  1  0
  1 25  1  0
  3 26  1  0
  4 27  1  0
  8 28  1  0
  8 29  1  0
  9 30  1  0
  9 31  1  0
 13 32  1  0
 14 33  1  0
 14 34  1  0
 18 35  1  0
 18 36  1  0
 18 37  1  0
 19 38  1  0
 19 39  1  0
 19 40  1  0
 20 41  1  0
 22 42  1  0
M  CHG  1  10  -1
M  END
>  <UniqueID>  (35) 
33

>  <SMILES>  (35) 
Cc1ccc2nn(CC[N-]C(=O)NCC(=O)N(C)C)cc2c1

>  <Energy>  (35) 
70.49741845087158

>  <Genealogy>  (35) 
Cc1ccc2nn(CC[N-]C(=O)NCC(=O)N(C)C)cc2c1 (protonated)
Cc1ccc2nn(CC[N-]C(=O)NCC(=O)N(C)C)cc2c1 (3D coordinates assigned)
Cc1ccc2nn(CC[N-]C(=O)NCC(=O)N(C)C)cc2c1 (optimized conformer: 70.49741845087158 kcal/mol)

>  <smiles>  (35) 
Cc1ccc2nn(CCNC(=O)NCC(=O)N(C)C)cc2c1

>  <score_type>  (35) 
oracle

>  <origin>  (35) 
adg

>  <m_score__min__energy>  (35) 
-9.5

>  <m_primary>  (35) 
energy

$$$$
35:0
     RDKit          3D

 49 51  0  0  1  0  0  0  0  0999 V2000
   59.8070   30.6430   49.1440 C   0  0  0  0  0  0  0  0  0  0  0  0
   59.2320   29.3940   49.3040 C   0  0  0  0  0  0  0  0  0  0  0  0
   59.4540   28.4340   48.3660 C   0  0  0  0  0  0  0  0  0  0  0  0
   60.2400   28.6310   47.2370 C   0  0  0  0  0  0  0  0  0  0  0  0
   60.3880   27.5010   46.3010 C   0  0  0  0  0  0  0  0  0  0  0  0
   59.3300   26.4310   46.5490 C   0  0  0  0  0  0  0  0  0  0  0  0
   58.1450   26.6280   45.6320 C   0  0  0  0  0  0  0  0  0  0  0  0
   57.2270   27.5670   46.2140 N   0  0  0  0  0  0  0  0  0  0  0  0
   57.0210   28.8110   45.5590 C   0  0  0  0  0  0  0  0  0  0  0  0
   57.9170   29.8450   45.5590 C   0  0  0  0  0  0  0  0  0  0  0  0
   57.6070   31.0140   44.9020 C   0  0  0  0  0  0  0  0  0  0  0  0
   58.4170   32.0090   44.8430 N   0  0  0  0  0  0  0  0  0  0  0  0
   57.8930   33.3480   44.9000 C   0  0  0  0  0  0  0  0  0  0  0  0
   57.8950   33.9260   46.2860 C   0  0  0  0  0  0  0  0  0  0  0  0
   59.2500   33.9570   46.8940 C   0  0  0  0  0  0  0  0  0  0  0  0
   59.3930   34.1390   48.2640 C   0  0  0  0  0  0  0  0  0  0  0  0
   60.6310   34.1760   48.8520 C   0  0  0  0  0  0  0  0  0  0  0  0
   61.7730   34.0300   48.0750 C   0  0  0  0  0  0  0  0  0  0  0  0
   61.6570   33.8460   46.7000 C   0  0  0  0  0  0  0  0  0  0  0  0
   60.3980   33.8120   46.1300 C   0  0  0  0  0  0  0  0  0  0  0  0
   56.4260   31.1670   44.2520 N   0  0  0  0  0  0  0  0  0  0  0  0
   55.5460   30.1310   44.2620 C   0  0  0  0  0  0  0  0  0  0  0  0
   55.8590   28.9750   44.9130 N   0  0  0  0  0  0  0  0  0  0  0  0
   60.8120   29.8640   47.0770 C   0  0  0  0  0  0  0  0  0  0  0  0
   60.5900   30.8590   48.0300 C   0  0  0  0  0  0  0  0  0  0  0  0
   59.6439   31.4401   49.8843 H   0  0  0  0  0  0  0  0  0  0  0  0
   58.6023   29.1800   50.1802 H   0  0  0  0  0  0  0  0  0  0  0  0
   58.9861   27.4488   48.5089 H   0  0  0  0  0  0  0  0  0  0  0  0
   60.2857   27.8736   45.2711 H   0  0  0  0  0  0  0  0  0  0  0  0
   61.3793   27.0503   46.4563 H   0  0  0  0  0  0  0  0  0  0  0  0
   59.7689   25.4395   46.3637 H   0  0  0  0  0  0  0  0  0  0  0  0
   58.9870   26.5081   47.5913 H   0  0  0  0  0  0  0  0  0  0  0  0
   58.4942   27.0125   44.6623 H   0  0  0  0  0  0  0  0  0  0  0  0
   57.6345   25.6643   45.4880 H   0  0  0  0  0  0  0  0  0  0  0  0
   56.7370   27.3100   47.1000 H   0  0  0  0  0  0  0  0  0  0  0  0
   58.8797   29.7426   46.0812 H   0  0  0  0  0  0  0  0  0  0  0  0
   58.5065   33.9913   44.2521 H   0  0  0  0  0  0  0  0  0  0  0  0
   56.8458   33.3035   44.5661 H   0  0  0  0  0  0  0  0  0  0  0  0
   57.5073   34.9543   46.2387 H   0  0  0  0  0  0  0  0  0  0  0  0
   57.2640   33.2809   46.9151 H   0  0  0  0  0  0  0  0  0  0  0  0
   58.4954   34.2557   48.8891 H   0  0  0  0  0  0  0  0  0  0  0  0
   60.7198   34.3213   49.9387 H   0  0  0  0  0  0  0  0  0  0  0  0
   62.7670   34.0597   48.5452 H   0  0  0  0  0  0  0  0  0  0  0  0
   62.5550   33.7292   46.0755 H   0  0  0  0  0  0  0  0  0  0  0  0
   60.3047   33.6663   45.0437 H   0  0  0  0  0  0  0  0  0  0  0  0
   54.5802   30.2256   43.7441 H   0  0  0  0  0  0  0  0  0  0  0  0
   55.1450   28.2140   44.8840 H   0  0  0  0  0  0  0  0  0  0  0  0
   61.4442   30.0699   46.2007 H   0  0  0  0  0  0  0  0  0  0  0  0
   61.0541   31.8461   47.8880 H   0  0  0  0  0  0  0  0  0  0  0  0
  1  2  2  0
  2  3  1  0
  3  4  2  0
  4  5  1  0
  5  6  1  0
  6  7  1  0
  7  8  1  0
  8  9  1  0
  9 10  2  0
 10 11  1  0
 11 12  2  0
 12 13  1  0
 13 14  1  0
 14 15  1  0
 15 16  2  0
 16 17  1  0
 17 18  2  0
 18 19  1  0
 19 20  2  0
 11 21  1  0
 21 22  2  0
 22 23  1  0
  4 24  1  0
 24 25  2  0
 25  1  1  0
 23  9  1  0
 20 15  1  0
  1 26  1  0
  2 27  1  0
  3 28  1  0
  5 29  1  0
  5 30  1  0
  6 31  1  0
  6 32  1  0
  7 33  1  0
  7 34  1  0
  8 35  1  0
 10 36  1  0
 13 37  1  0
 13 38  1  0
 14 39  1  0
 14 40  1  0
 16 41  1  0
 17 42  1  0
 18 43  1  0
 19 44  1  0
 20 45  1  0
 22 46  1  0
 23 47  1  0
 24 48  1  0
 25 49  1  0
M  END
>  <smiles>  (36) 
c1ccc(CCCNc2cc(=NCCc3ccccc3)nc[nH]2)cc1

>  <score_type>  (36) 
oracle

>  <origin>  (36) 
adg

>  <m_score__min__energy>  (36) 
-8

>  <m_primary>  (36) 
energy

$$$$
36:0
     RDKit          3D

 45 48  0  0  0  0  0  0  0  0999 V2000
   55.5150   26.7360   46.0130 N   0  0  0  0  0  0  0  0  0  0  0  0
   57.1430   26.1810   46.1740 S   0  0  0  0  0  0  0  0  0  0  0  0
   57.4540   25.2100   45.0680 O   0  0  0  0  0  0  0  0  0  0  0  0
   57.3040   25.4770   47.4920 O   0  0  0  0  0  0  0  0  0  0  0  0
   58.2440   27.5530   46.0920 C   0  0  0  0  0  0  0  0  0  0  0  0
   59.2130   27.6180   45.0820 C   0  0  0  0  0  0  0  0  0  0  0  0
   60.0820   28.7090   45.0160 C   0  0  0  0  0  0  0  0  0  0  0  0
   59.9830   29.7450   45.9490 C   0  0  0  0  0  0  0  0  0  0  0  0
   58.9950   29.7060   46.9490 C   0  0  0  0  0  0  0  0  0  0  0  0
   58.8860   30.7450   47.9380 N   0  0  0  0  0  0  0  0  0  0  0  0
   58.6040   30.5110   49.3270 C   0  0  0  0  0  0  0  0  0  0  0  0
   58.6470   29.3460   49.8060 O   0  0  0  0  0  0  0  0  0  0  0  0
   58.2630   31.6600   50.2200 C   0  0  0  0  0  0  0  0  0  0  0  0
   59.7970   32.4960   50.7350 S   0  0  0  0  0  0  0  0  0  0  0  0
   60.1700   33.0840   49.0780 C   0  0  0  0  0  0  0  0  0  0  0  0
   59.1420   33.5250   48.3070 N   0  0  0  0  0  0  0  0  0  0  0  0
   59.3430   33.9790   47.0420 C   0  0  0  0  0  0  0  0  0  0  0  0
   58.1900   34.4900   46.2370 C   0  0  0  0  0  0  0  0  0  0  0  0
   58.0330   33.8360   44.8710 C   0  0  0  0  0  0  0  0  0  0  0  0
   57.0790   33.4770   45.9970 C   0  0  0  0  0  0  0  0  0  0  0  0
   60.5990   34.0220   46.5290 N   0  0  0  0  0  0  0  0  0  0  0  0
   61.6670   33.5940   47.2510 C   0  0  0  0  0  0  0  0  0  0  0  0
   62.9510   33.6440   46.6940 C   0  0  0  0  0  0  0  0  0  0  0  0
   64.0510   33.2060   47.4340 C   0  0  0  0  0  0  0  0  0  0  0  0
   63.8770   32.7170   48.7310 C   0  0  0  0  0  0  0  0  0  0  0  0
   62.6000   32.6630   49.2980 C   0  0  0  0  0  0  0  0  0  0  0  0
   61.4820   33.1020   48.5630 C   0  0  0  0  0  0  0  0  0  0  0  0
   58.1380   28.5970   47.0220 C   0  0  0  0  0  0  0  0  0  0  0  0
   55.5160   27.4790   45.2810 H   0  0  0  0  0  0  0  0  0  0  0  0
   59.2892   26.8090   44.3406 H   0  0  0  0  0  0  0  0  0  0  0  0
   60.8472   28.7533   44.2270 H   0  0  0  0  0  0  0  0  0  0  0  0
   60.6806   30.5941   45.9009 H   0  0  0  0  0  0  0  0  0  0  0  0
   59.0940   31.7260   47.6430 H   0  0  0  0  0  0  0  0  0  0  0  0
   57.6218   32.3700   49.6770 H   0  0  0  0  0  0  0  0  0  0  0  0
   57.7278   31.2914   51.1075 H   0  0  0  0  0  0  0  0  0  0  0  0
   58.2348   35.5242   46.6090 H   0  0  0  0  0  0  0  0  0  0  0  0
   57.6759   34.4283   44.0157 H   0  0  0  0  0  0  0  0  0  0  0  0
   58.6942   33.2667   44.2011 H   0  0  0  0  0  0  0  0  0  0  0  0
   56.0312   33.8094   45.9568 H   0  0  0  0  0  0  0  0  0  0  0  0
   56.7636   32.5402   46.4797 H   0  0  0  0  0  0  0  0  0  0  0  0
   63.0929   34.0285   45.6732 H   0  0  0  0  0  0  0  0  0  0  0  0
   65.0584   33.2461   46.9941 H   0  0  0  0  0  0  0  0  0  0  0  0
   64.7479   32.3731   49.3084 H   0  0  0  0  0  0  0  0  0  0  0  0
   62.4686   32.2770   50.3196 H   0  0  0  0  0  0  0  0  0  0  0  0
   57.3773   28.5464   47.8149 H   0  0  0  0  0  0  0  0  0  0  0  0
  1  2  1  0
  2  3  2  0
  2  4  2  0
  2  5  1  0
  5  6  2  0
  6  7  1  0
  7  8  2  0
  8  9  1  0
  9 10  1  0
 10 11  1  0
 11 12  2  0
 11 13  1  0
 13 14  1  0
 14 15  1  0
 15 16  2  0
 16 17  1  0
 17 18  1  0
 18 19  1  0
 19 20  1  0
 17 21  2  0
 21 22  1  0
 22 23  2  0
 23 24  1  0
 24 25  2  0
 25 26  1  0
 26 27  2  0
  9 28  2  0
 28  5  1  0
 27 15  1  0
 20 18  1  0
 27 22  1  0
  1 29  1  0
  6 30  1  0
  7 31  1  0
  8 32  1  0
 10 33  1  0
 13 34  1  0
 13 35  1  0
 18 36  1  0
 19 37  1  0
 19 38  1  0
 20 39  1  0
 20 40  1  0
 23 41  1  0
 24 42  1  0
 25 43  1  0
 26 44  1  0
 28 45  1  0
M  CHG  1   1  -1
M  END
>  <UniqueID>  (37) 
34

>  <SMILES>  (37) 
[NH-]S(=O)(=O)c1cccc(NC(=O)CSc2nc(C3CC3)nc3ccccc23)c1

>  <Energy>  (37) 
313.62708531380093

>  <Genealogy>  (37) 
[NH-]S(=O)(=O)c1cccc(NC(=O)CSc2nc(C3CC3)nc3ccccc23)c1 (protonated)
[NH-]S(=O)(=O)c1cccc(NC(=O)CSc2nc(C3CC3)nc3ccccc23)c1 (3D coordinates assigned)
[NH-]S(=O)(=O)c1cccc(NC(=O)CSc2nc(C3CC3)nc3ccccc23)c1 (nonaromatic ring conformer: 313.62708531380093 kcal/mol)

>  <smiles>  (37) 
NS(=O)(=O)c1cccc(NC(=O)CSc2nc(C3CC3)nc3ccccc23)c1

>  <score_type>  (37) 
oracle

>  <origin>  (37) 
adg

>  <m_score__min__energy>  (37) 
-12.56

>  <m_primary>  (37) 
energy

$$$$
37:0
     RDKit          3D

 25 26  0  0  0  0  0  0  0  0999 V2000
   56.1720   28.6600   42.6710 H   0  0  0  0  0  0  0  0  0  0  0  0
   56.5180   29.3450   43.3790 N   0  0  0  0  0  0  0  0  0  0  0  0
   57.0550   30.8880   43.0920 S   0  0  0  0  0  0  0  0  0  0  0  0
   57.4000   31.2630   44.6830 C   0  0  0  0  0  0  0  0  0  0  0  0
   57.9250   32.5090   45.1800 N   0  0  0  0  0  0  0  0  0  0  0  0
   57.7670   32.8360   46.6020 C   0  0  0  0  0  0  0  0  0  0  0  0
   56.7644   33.2570   46.7677 H   0  0  0  0  0  0  0  0  0  0  0  0
   57.8949   31.9184   47.1950 H   0  0  0  0  0  0  0  0  0  0  0  0
   58.8210   33.8580   47.0360 C   0  0  0  0  0  0  0  0  0  0  0  0
   58.5890   34.2050   48.0537 H   0  0  0  0  0  0  0  0  0  0  0  0
   59.8097   33.3764   47.0111 H   0  0  0  0  0  0  0  0  0  0  0  0
   58.8360   34.9670   46.1610 O   0  0  0  0  0  0  0  0  0  0  0  0
   59.2710   34.5520   44.8820 C   0  0  0  0  0  0  0  0  0  0  0  0
   59.3836   35.4351   44.2359 H   0  0  0  0  0  0  0  0  0  0  0  0
   60.2330   34.0298   44.9906 H   0  0  0  0  0  0  0  0  0  0  0  0
   58.2620   33.5910   44.2460 C   0  0  0  0  0  0  0  0  0  0  0  0
   57.3473   34.1448   43.9880 H   0  0  0  0  0  0  0  0  0  0  0  0
   58.7081   33.1540   43.3404 H   0  0  0  0  0  0  0  0  0  0  0  0
   57.1040   30.1970   45.4620 N   0  0  0  0  0  0  0  0  0  0  0  0
   56.6190   29.1500   44.7200 C   0  0  0  0  0  0  0  0  0  0  0  0
   56.2690   28.0220   45.2610 N   0  0  0  0  0  0  0  0  0  0  0  0
   57.2200   27.0050   45.6910 C   0  0  0  0  0  0  0  0  0  0  0  0
   57.2503   26.9726   46.7901 H   0  0  0  0  0  0  0  0  0  0  0  0
   56.9078   26.0239   45.3037 H   0  0  0  0  0  0  0  0  0  0  0  0
   58.2198   27.2508   45.3037 H   0  0  0  0  0  0  0  0  0  0  0  0
  1  2  1  0
  2  3  1  0
  3  4  1  0
  4  5  1  0
  5  6  1  0
  6  7  1  0
  6  8  1  0
  6  9  1  0
  9 10  1  0
  9 11  1  0
  9 12  1  0
 12 13  1  0
 13 14  1  0
 13 15  1  0
 13 16  1  0
 16 17  1  0
 16 18  1  0
  4 19  2  0
 19 20  1  0
 20 21  2  0
 21 22  1  0
 22 23  1  0
 22 24  1  0
 22 25  1  0
 20  2  1  0
 16  5  1  0
M  END
>  <UniqueID>  (38) 
35

>  <SMILES>  (38) 
C/N=c1\nc(N2CCOCC2)s[nH]1

>  <Energy>  (38) 
61.98595460484818

>  <Genealogy>  (38) 
C/N=c1\nc(N2CCOCC2)s[nH]1 (cis-trans isomerization)
C/N=c1\nc(N2CCOCC2)s[nH]1 (3D coordinates assigned)
C/N=c1\nc(N2CCOCC2)s[nH]1 (nonaromatic ring conformer: 61.98595460484818 kcal/mol)

>  <smiles>  (38) 
CN=c1nc(N2CCOCC2)s[nH]1

>  <score_type>  (38) 
oracle

>  <origin>  (38) 
adg

>  <m_score__min__energy>  (38) 
-5.1799999999999997

>  <m_primary>  (38) 
energy

$$$$
38:0
     RDKit          3D

 52 55  0  0  0  0  0  0  0  0999 V2000
   56.5250   29.2990   42.6790 N   0  0  0  0  0  0  0  0  0  0  0  0
   56.4470   29.7210   44.3560 S   0  0  0  0  0  0  0  0  0  0  0  0
   55.0890   29.3750   44.9020 O   0  0  0  0  0  0  0  0  0  0  0  0
   56.6640   31.2030   44.4830 O   0  0  0  0  0  0  0  0  0  0  0  0
   57.6810   28.8500   45.2670 C   0  0  0  0  0  0  0  0  0  0  0  0
   58.3240   27.7380   44.7070 C   0  0  0  0  0  0  0  0  0  0  0  0
   59.3000   27.0510   45.4340 C   0  0  0  0  0  0  0  0  0  0  0  0
   59.6480   27.4790   46.7170 C   0  0  0  0  0  0  0  0  0  0  0  0
   59.0360   28.6050   47.2810 C   0  0  0  0  0  0  0  0  0  0  0  0
   59.4110   28.9840   48.6130 N   0  0  0  0  0  0  0  0  0  0  0  0
   60.4500   29.8850   49.0190 C   0  0  0  0  0  0  0  0  0  0  0  0
   61.4310   29.4620   49.6870 O   0  0  0  0  0  0  0  0  0  0  0  0
   60.4150   31.3500   48.6150 C   0  0  2  0  0  0  0  0  0  0  0  0
   61.7490   32.0800   48.6220 C   0  0  0  0  0  0  0  0  0  0  0  0
   62.4720   32.2820   47.4230 C   0  0  0  0  0  0  0  0  0  0  0  0
   63.6870   32.9670   47.4260 C   0  0  0  0  0  0  0  0  0  0  0  0
   64.2190   33.4410   48.6220 C   0  0  0  0  0  0  0  0  0  0  0  0
   63.5510   33.2090   49.8210 C   0  0  0  0  0  0  0  0  0  0  0  0
   62.3330   32.5160   49.8520 C   0  0  0  0  0  0  0  0  0  0  0  0
   61.7990   32.2690   51.1370 O   0  0  0  0  0  0  0  0  0  0  0  0
   60.5040   32.5920   51.6500 C   0  0  0  0  0  0  0  0  0  0  0  0
   59.4140   31.9990   50.8020 C   0  0  0  0  0  0  0  0  0  0  0  0
   58.5020   31.3210   51.3500 O   0  0  0  0  0  0  0  0  0  0  0  0
   59.4360   32.1570   49.3700 N   0  0  0  0  0  0  0  0  0  0  0  0
   58.2130   32.6660   48.7220 C   0  0  0  0  0  0  0  0  0  0  0  0
   58.4840   33.3920   47.4200 C   0  0  0  0  0  0  0  0  0  0  0  0
   57.7640   33.1200   46.2360 C   0  0  0  0  0  0  0  0  0  0  0  0
   58.0100   33.8570   45.0740 C   0  0  0  0  0  0  0  0  0  0  0  0
   58.9720   34.8690   45.0750 C   0  0  0  0  0  0  0  0  0  0  0  0
   59.6940   35.1460   46.2370 C   0  0  0  0  0  0  0  0  0  0  0  0
   59.4510   34.4160   47.4060 C   0  0  0  0  0  0  0  0  0  0  0  0
   60.1530   34.7150   48.5290 F   0  0  0  0  0  0  0  0  0  0  0  0
   58.0360   29.2790   46.5550 C   0  0  0  0  0  0  0  0  0  0  0  0
   57.4980   29.5000   42.3540 H   0  0  0  0  0  0  0  0  0  0  0  0
   56.3840   28.2660   42.6070 H   0  0  0  0  0  0  0  0  0  0  0  0
   58.0598   27.4049   43.6925 H   0  0  0  0  0  0  0  0  0  0  0  0
   59.7947   26.1720   44.9951 H   0  0  0  0  0  0  0  0  0  0  0  0
   60.4087   26.9273   47.2888 H   0  0  0  0  0  0  0  0  0  0  0  0
   60.0966   31.2656   47.5655 H   0  0  0  0  0  0  0  0  0  0  0  0
   62.0705   31.8936   46.4754 H   0  0  0  0  0  0  0  0  0  0  0  0
   64.2259   33.1330   46.4815 H   0  0  0  0  0  0  0  0  0  0  0  0
   65.1671   33.9988   48.6195 H   0  0  0  0  0  0  0  0  0  0  0  0
   63.9871   33.5764   50.7617 H   0  0  0  0  0  0  0  0  0  0  0  0
   60.4159   32.1977   52.6731 H   0  0  0  0  0  0  0  0  0  0  0  0
   60.3918   33.6862   51.6421 H   0  0  0  0  0  0  0  0  0  0  0  0
   57.5470   31.8152   48.5156 H   0  0  0  0  0  0  0  0  0  0  0  0
   57.7561   33.3914   49.4112 H   0  0  0  0  0  0  0  0  0  0  0  0
   57.0052   32.3236   46.2281 H   0  0  0  0  0  0  0  0  0  0  0  0
   57.4441   33.6391   44.1562 H   0  0  0  0  0  0  0  0  0  0  0  0
   59.1610   35.4484   44.1593 H   0  0  0  0  0  0  0  0  0  0  0  0
   60.4556   35.9397   46.2339 H   0  0  0  0  0  0  0  0  0  0  0  0
   57.5294   30.1479   47.0004 H   0  0  0  0  0  0  0  0  0  0  0  0
  1  2  1  0
  2  3  2  0
  2  4  2  0
  2  5  1  0
  5  6  2  0
  6  7  1  0
  7  8  2  0
  8  9  1  0
  9 10  1  0
 10 11  1  0
 11 12  2  0
 11 13  1  0
 13 14  1  0
 14 15  2  0
 15 16  1  0
 16 17  2  0
 17 18  1  0
 18 19  2  0
 19 20  1  0
 20 21  1  0
 21 22  1  0
 22 23  2  0
 22 24  1  0
 24 25  1  0
 25 26  1  0
 26 27  2  0
 27 28  1  0
 28 29  2  0
 29 30  1  0
 30 31  2  0
 31 32  1  0
  9 33  2  0
 33  5  1  0
 24 13  1  0
 31 26  1  0
 19 14  1  0
  1 34  1  0
  1 35  1  0
  6 36  1  0
  7 37  1  0
  8 38  1  0
 13 39  1  6
 15 40  1  0
 16 41  1  0
 17 42  1  0
 18 43  1  0
 21 44  1  0
 21 45  1  0
 25 46  1  0
 25 47  1  0
 27 48  1  0
 28 49  1  0
 29 50  1  0
 30 51  1  0
 33 52  1  0
M  CHG  1  10  -1
M  END
>  <UniqueID>  (39) 
36

>  <SMILES>  (39) 
NS(=O)(=O)c1cccc([N-]C(=O)[C@@H]2c3ccccc3OCC(=O)N2Cc2ccccc2F)c1

>  <Energy>  (39) 
75.38372169046518

>  <Genealogy>  (39) 
NS(=O)(=O)c1cccc([N-]C(=O)C2c3ccccc3OCC(=O)N2Cc2ccccc2F)c1 (protonated)
NS(=O)(=O)c1cccc([N-]C(=O)[C@@H]2c3ccccc3OCC(=O)N2Cc2ccccc2F)c1 (chirality)
NS(=O)(=O)c1cccc([N-]C(=O)[C@@H]2c3ccccc3OCC(=O)N2Cc2ccccc2F)c1 (3D coordinates assigned)
NS(=O)(=O)c1cccc([N-]C(=O)[C@@H]2c3ccccc3OCC(=O)N2Cc2ccccc2F)c1 (nonaromatic ring conformer: 75.38372169046518 kcal/mol)

>  <smiles>  (39) 
NS(=O)(=O)c1cccc(NC(=O)C2c3ccccc3OCC(=O)N2Cc2ccccc2F)c1

>  <score_type>  (39) 
oracle

>  <origin>  (39) 
adg

>  <m_score__min__energy>  (39) 
-9.7100000000000009

>  <m_primary>  (39) 
energy

$$$$
39:0
     RDKit          3D

 47 49  0  0  0  0  0  0  0  0999 V2000
   62.3090   31.2920   47.1190 C   0  0  0  0  0  0  0  0  0  0  0  0
   62.7870   32.5870   47.4600 O   0  0  0  0  0  0  0  0  0  0  0  0
   63.3230   32.9360   48.7110 C   0  0  0  0  0  0  0  0  0  0  0  0
   64.4970   32.3310   49.2070 C   0  0  0  0  0  0  0  0  0  0  0  0
   65.0110   32.6970   50.4530 C   0  0  0  0  0  0  0  0  0  0  0  0
   64.3670   33.6680   51.2160 C   0  0  0  0  0  0  0  0  0  0  0  0
   63.2060   34.2790   50.7390 C   0  0  0  0  0  0  0  0  0  0  0  0
   62.6700   33.9150   49.4920 C   0  0  0  0  0  0  0  0  0  0  0  0
   61.4220   34.6080   49.0050 C   0  0  0  0  0  0  0  0  0  0  0  0
   60.6850   33.7390   48.0910 N   0  0  0  0  0  0  0  0  0  0  0  0
   59.8340   34.2580   47.0540 C   0  0  0  0  0  0  0  0  0  0  0  0
   59.8770   35.4870   46.7740 O   0  0  0  0  0  0  0  0  0  0  0  0
   58.9160   33.3720   46.2990 C   0  0  0  0  0  0  0  0  0  0  0  0
   58.6430   32.0750   46.7740 C   0  0  0  0  0  0  0  0  0  0  0  0
   57.7850   31.2270   46.0700 C   0  0  0  0  0  0  0  0  0  0  0  0
   57.1770   31.6580   44.8820 C   0  0  0  0  0  0  0  0  0  0  0  0
   56.2320   30.7570   44.1310 C   0  0  0  0  0  0  0  0  0  0  0  0
   56.1190   29.4580   44.7910 N   0  0  0  0  0  0  0  0  0  0  0  0
   57.1300   28.4400   44.8460 C   0  0  0  0  0  0  0  0  0  0  0  0
   58.1960   28.6210   44.2010 O   0  0  0  0  0  0  0  0  0  0  0  0
   56.9600   27.1920   45.6170 C   0  0  0  0  0  0  0  0  0  0  0  0
   58.0750   26.4790   46.0790 C   0  0  0  0  0  0  0  0  0  0  0  0
   57.8820   25.3100   46.8110 C   0  0  0  0  0  0  0  0  0  0  0  0
   56.5820   24.8790   47.0720 C   0  0  0  0  0  0  0  0  0  0  0  0
   56.3790   23.8220   47.7240 O   0  0  0  0  0  0  0  0  0  0  0  0
   55.5310   25.6120   46.6190 N   0  0  0  0  0  0  0  0  0  0  0  0
   55.7170   26.7320   45.9180 N   0  0  0  0  0  0  0  0  0  0  0  0
   57.4640   32.9410   44.3930 C   0  0  0  0  0  0  0  0  0  0  0  0
   58.3270   33.7890   45.0910 C   0  0  0  0  0  0  0  0  0  0  0  0
   62.0996   30.7247   48.0379 H   0  0  0  0  0  0  0  0  0  0  0  0
   61.3862   31.3857   46.5277 H   0  0  0  0  0  0  0  0  0  0  0  0
   63.0714   30.7637   46.5277 H   0  0  0  0  0  0  0  0  0  0  0  0
   65.0114   31.5652   48.6079 H   0  0  0  0  0  0  0  0  0  0  0  0
   65.9256   32.2177   50.8322 H   0  0  0  0  0  0  0  0  0  0  0  0
   64.7742   33.9542   52.1970 H   0  0  0  0  0  0  0  0  0  0  0  0
   62.7072   35.0508   51.3435 H   0  0  0  0  0  0  0  0  0  0  0  0
   60.7836   34.8539   49.8664 H   0  0  0  0  0  0  0  0  0  0  0  0
   61.7071   35.5278   48.4734 H   0  0  0  0  0  0  0  0  0  0  0  0
   60.8400   32.7090   48.1680 H   0  0  0  0  0  0  0  0  0  0  0  0
   59.1093   31.7266   47.7074 H   0  0  0  0  0  0  0  0  0  0  0  0
   57.5848   30.2143   46.4499 H   0  0  0  0  0  0  0  0  0  0  0  0
   55.2391   31.2288   44.0910 H   0  0  0  0  0  0  0  0  0  0  0  0
   56.6241   30.6033   43.1148 H   0  0  0  0  0  0  0  0  0  0  0  0
   59.0922   26.8392   45.8655 H   0  0  0  0  0  0  0  0  0  0  0  0
   58.7441   24.7341   47.1785 H   0  0  0  0  0  0  0  0  0  0  0  0
   57.0060   33.2819   43.4528 H   0  0  0  0  0  0  0  0  0  0  0  0
   58.5479   34.7905   44.6933 H   0  0  0  0  0  0  0  0  0  0  0  0
  1  2  1  0
  2  3  1  0
  3  4  2  0
  4  5  1  0
  5  6  2  0
  6  7  1  0
  7  8  2  0
  8  9  1  0
  9 10  1  0
 10 11  1  0
 11 12  2  0
 11 13  1  0
 13 14  2  0
 14 15  1  0
 15 16  2  0
 16 17  1  0
 17 18  1  0
 18 19  1  0
 19 20  2  0
 19 21  1  0
 21 22  1  0
 22 23  2  0
 23 24  1  0
 24 25  2  0
 24 26  1  0
 26 27  1  0
 16 28  1  0
 28 29  2  0
  8  3  1  0
 29 13  1  0
 27 21  2  0
  1 30  1  0
  1 31  1  0
  1 32  1  0
  4 33  1  0
  5 34  1  0
  6 35  1  0
  7 36  1  0
  9 37  1  0
  9 38  1  0
 10 39  1  0
 14 40  1  0
 15 41  1  0
 17 42  1  0
 17 43  1  0
 22 44  1  0
 23 45  1  0
 28 46  1  0
 29 47  1  0
M  CHG  2  18  -1  26  -1
M  END
>  <UniqueID>  (40) 
37

>  <SMILES>  (40) 
COc1ccccc1CNC(=O)c1ccc(C[N-]C(=O)c2ccc(=O)[n-]n2)cc1

>  <Energy>  (40) 
52.011857190764765

>  <Genealogy>  (40) 
COc1ccccc1CNC(=O)c1ccc(C[N-]C(=O)c2ccc(=O)[n-]n2)cc1 (protonated)
COc1ccccc1CNC(=O)c1ccc(C[N-]C(=O)c2ccc(=O)[n-]n2)cc1 (3D coordinates assigned)
COc1ccccc1CNC(=O)c1ccc(C[N-]C(=O)c2ccc(=O)[n-]n2)cc1 (optimized conformer: 52.011857190764765 kcal/mol)

>  <smiles>  (40) 
COc1ccccc1CNC(=O)c1ccc(CNC(=O)c2ccc(=O)[nH]n2)cc1

>  <score_type>  (40) 
oracle

>  <origin>  (40) 
adg

>  <m_score__min__energy>  (40) 
-12.15

>  <m_primary>  (40) 
energy

$$$$
40:0
     RDKit          3D

 51 54  0  0  0  0  0  0  0  0999 V2000
   51.1090   32.7510   51.6150 N   0  0  0  0  0  0  0  0  0  0  0  0
   51.4850   31.0650   51.6370 S   0  0  0  0  0  0  0  0  0  0  0  0
   51.4270   30.5220   50.2370 O   0  0  0  0  0  0  0  0  0  0  0  0
   50.4750   30.3360   52.4780 O   0  0  0  0  0  0  0  0  0  0  0  0
   53.0970   30.8300   52.3060 C   0  0  0  0  0  0  0  0  0  0  0  0
   53.2570   30.2740   53.5820 C   0  0  0  0  0  0  0  0  0  0  0  0
   54.5380   30.0670   54.0990 C   0  0  0  0  0  0  0  0  0  0  0  0
   55.6650   30.4170   53.3490 C   0  0  0  0  0  0  0  0  0  0  0  0
   55.5160   30.9910   52.0740 C   0  0  0  0  0  0  0  0  0  0  0  0
   56.6560   31.3290   51.2660 N   0  0  0  0  0  0  0  0  0  0  0  0
   57.7960   30.4680   51.0840 C   0  0  0  0  0  0  0  0  0  0  0  0
   57.8710   29.3770   51.7130 O   0  0  0  0  0  0  0  0  0  0  0  0
   58.8960   30.8410   50.1650 C   0  0  0  0  0  0  0  0  0  0  0  0
   60.2160   30.8980   50.6430 C   0  0  0  0  0  0  0  0  0  0  0  0
   61.2650   31.2400   49.7860 C   0  0  0  0  0  0  0  0  0  0  0  0
   61.0100   31.5310   48.4460 C   0  0  0  0  0  0  0  0  0  0  0  0
   59.6990   31.4850   47.9470 C   0  0  0  0  0  0  0  0  0  0  0  0
   59.4280   31.8040   46.4970 C   0  0  0  0  0  0  0  0  0  0  0  0
   58.3040   30.9550   45.9570 C   0  0  0  0  0  0  0  0  0  0  0  0
   57.2550   31.5870   45.3660 N   0  0  0  0  0  0  0  0  0  0  0  0
   56.2270   30.9200   44.8420 N   0  0  0  0  0  0  0  0  0  0  0  0
   56.1750   29.5650   44.8610 C   0  0  0  0  0  0  0  0  0  0  0  0
   55.1780   28.9770   44.3650 O   0  0  0  0  0  0  0  0  0  0  0  0
   57.2310   28.8420   45.4340 C   0  0  0  0  0  0  0  0  0  0  0  0
   58.3120   29.5410   45.9950 C   0  0  0  0  0  0  0  0  0  0  0  0
   59.3970   28.7220   46.6580 C   0  0  0  0  0  0  0  0  0  0  0  0
   59.7990   27.5370   45.7670 C   0  0  0  0  0  0  0  0  0  0  0  0
   58.6010   26.7520   45.1730 C   0  0  0  0  0  0  0  0  0  0  0  0
   57.2210   27.3350   45.5210 C   0  0  0  0  0  0  0  0  0  0  0  0
   58.6440   31.1600   48.8180 C   0  0  0  0  0  0  0  0  0  0  0  0
   54.2270   31.1720   51.5510 C   0  0  0  0  0  0  0  0  0  0  0  0
   51.3990   33.1160   50.6810 H   0  0  0  0  0  0  0  0  0  0  0  0
   52.3733   30.0003   54.1771 H   0  0  0  0  0  0  0  0  0  0  0  0
   54.6606   29.6271   55.0997 H   0  0  0  0  0  0  0  0  0  0  0  0
   56.6713   30.2428   53.7576 H   0  0  0  0  0  0  0  0  0  0  0  0
   56.6630   32.2790   50.8320 H   0  0  0  0  0  0  0  0  0  0  0  0
   60.4249   30.6718   51.6990 H   0  0  0  0  0  0  0  0  0  0  0  0
   62.2953   31.2799   50.1693 H   0  0  0  0  0  0  0  0  0  0  0  0
   61.8410   31.7980   47.7766 H   0  0  0  0  0  0  0  0  0  0  0  0
   59.1521   32.8651   46.4077 H   0  0  0  0  0  0  0  0  0  0  0  0
   60.3375   31.5918   45.9158 H   0  0  0  0  0  0  0  0  0  0  0  0
   60.2767   29.3594   46.8309 H   0  0  0  0  0  0  0  0  0  0  0  0
   59.0151   28.3341   47.6139 H   0  0  0  0  0  0  0  0  0  0  0  0
   60.4058   27.9221   44.9342 H   0  0  0  0  0  0  0  0  0  0  0  0
   60.3510   26.8334   46.4076 H   0  0  0  0  0  0  0  0  0  0  0  0
   58.7044   26.7441   44.0779 H   0  0  0  0  0  0  0  0  0  0  0  0
   58.6361   25.7456   45.6156 H   0  0  0  0  0  0  0  0  0  0  0  0
   56.4754   26.9392   44.8157 H   0  0  0  0  0  0  0  0  0  0  0  0
   56.9690   27.0459   46.5520 H   0  0  0  0  0  0  0  0  0  0  0  0
   57.6102   31.1551   48.4421 H   0  0  0  0  0  0  0  0  0  0  0  0
   54.1021   31.5860   50.5395 H   0  0  0  0  0  0  0  0  0  0  0  0
  1  2  1  0
  2  3  2  0
  2  4  2  0
  2  5  1  0
  5  6  2  0
  6  7  1  0
  7  8  2  0
  8  9  1  0
  9 10  1  0
 10 11  1  0
 11 12  2  0
 11 13  1  0
 13 14  2  0
 14 15  1  0
 15 16  2  0
 16 17  1  0
 17 18  1  0
 18 19  1  0
 19 20  2  0
 20 21  1  0
 21 22  1  0
 22 23  2  0
 22 24  1  0
 24 25  2  0
 25 26  1  0
 26 27  1  0
 27 28  1  0
 28 29  1  0
 17 30  2  0
  9 31  2  0
 31  5  1  0
 30 13  1  0
 25 19  1  0
 29 24  1  0
  1 32  1  0
  6 33  1  0
  7 34  1  0
  8 35  1  0
 10 36  1  0
 14 37  1  0
 15 38  1  0
 16 39  1  0
 18 40  1  0
 18 41  1  0
 26 42  1  0
 26 43  1  0
 27 44  1  0
 27 45  1  0
 28 46  1  0
 28 47  1  0
 29 48  1  0
 29 49  1  0
 30 50  1  0
 31 51  1  0
M  CHG  2   1  -1  21  -1
M  END
>  <UniqueID>  (41) 
38

>  <SMILES>  (41) 
[NH-]S(=O)(=O)c1cccc(NC(=O)c2cccc(Cc3n[n-]c(=O)c4c3CCCC4)c2)c1

>  <Energy>  (41) 
68.47045715428011

>  <Genealogy>  (41) 
[NH-]S(=O)(=O)c1cccc(NC(=O)c2cccc(Cc3n[n-]c(=O)c4c3CCCC4)c2)c1 (protonated)
[NH-]S(=O)(=O)c1cccc(NC(=O)c2cccc(Cc3n[n-]c(=O)c4c3CCCC4)c2)c1 (3D coordinates assigned)
[NH-]S(=O)(=O)c1cccc(NC(=O)c2cccc(Cc3n[n-]c(=O)c4c3CCCC4)c2)c1 (nonaromatic ring conformer: 68.47045715428011 kcal/mol)

>  <smiles>  (41) 
NS(=O)(=O)c1cccc(NC(=O)c2cccc(Cc3n[nH]c(=O)c4c3CCCC4)c2)c1

>  <score_type>  (41) 
oracle

>  <origin>  (41) 
adg

>  <m_score__min__energy>  (41) 
-15.32

>  <m_primary>  (41) 
energy

$$$$
41:0
     RDKit          3D

 27 28  0  0  0  0  0  0  0  0999 V2000
   59.5510   28.6990   47.0050 N   0  0  0  0  0  0  0  0  0  0  0  0
   59.5420   27.4040   45.8600 S   0  0  0  0  0  0  0  0  0  0  0  0
   59.7850   27.9470   44.4800 O   0  0  0  0  0  0  0  0  0  0  0  0
   60.6400   26.4370   46.2040 O   0  0  0  0  0  0  0  0  0  0  0  0
   57.9710   26.5930   45.9020 C   0  0  0  0  0  0  0  0  0  0  0  0
   57.9040   25.1930   45.8940 C   0  0  0  0  0  0  0  0  0  0  0  0
   56.6660   24.5510   45.9340 C   0  0  0  0  0  0  0  0  0  0  0  0
   55.5020   25.3150   45.9840 C   0  0  0  0  0  0  0  0  0  0  0  0
   55.5800   26.6710   45.9900 N   0  0  0  0  0  0  0  0  0  0  0  0
   56.7710   27.3320   45.9410 C   0  0  0  0  0  0  0  0  0  0  0  0
   56.8130   28.6340   45.9710 N   0  0  0  0  0  0  0  0  0  0  0  0
   57.0510   29.5200   44.8640 C   0  0  0  0  0  0  0  0  0  0  0  0
   57.9270   30.6180   44.9610 C   0  0  0  0  0  0  0  0  0  0  0  0
   58.1020   31.4780   43.8710 C   0  0  0  0  0  0  0  0  0  0  0  0
   57.3920   31.2610   42.6850 C   0  0  0  0  0  0  0  0  0  0  0  0
   57.6100   32.3420   41.3210 Cl  0  0  0  0  0  0  0  0  0  0  0  0
   56.4980   30.1900   42.5940 C   0  0  0  0  0  0  0  0  0  0  0  0
   56.3210   29.3300   43.6830 C   0  0  0  0  0  0  0  0  0  0  0  0
   59.9740   29.5260   46.5270 H   0  0  0  0  0  0  0  0  0  0  0  0
   58.5540   28.9410   47.2020 H   0  0  0  0  0  0  0  0  0  0  0  0
   58.8293   24.5993   45.8561 H   0  0  0  0  0  0  0  0  0  0  0  0
   56.6095   23.4525   45.9261 H   0  0  0  0  0  0  0  0  0  0  0  0
   54.5202   24.8202   46.0186 H   0  0  0  0  0  0  0  0  0  0  0  0
   58.4757   30.8004   45.8968 H   0  0  0  0  0  0  0  0  0  0  0  0
   58.7987   32.3258   43.9467 H   0  0  0  0  0  0  0  0  0  0  0  0
   55.9331   30.0234   41.6650 H   0  0  0  0  0  0  0  0  0  0  0  0
   55.6039   28.4989   43.6118 H   0  0  0  0  0  0  0  0  0  0  0  0
  1  2  1  0
  2  3  2  0
  2  4  2  0
  2  5  1  0
  5  6  2  0
  6  7  1  0
  7  8  2  0
  8  9  1  0
  9 10  1  0
 10 11  2  3
 11 12  1  0
 12 13  2  0
 13 14  1  0
 14 15  2  0
 15 16  1  0
 15 17  1  0
 17 18  2  0
 10  5  1  0
 18 12  1  0
  1 19  1  0
  1 20  1  0
  6 21  1  0
  7 22  1  0
  8 23  1  0
 13 24  1  0
 14 25  1  0
 17 26  1  0
 18 27  1  0
M  CHG  1   9  -1
M  END
>  <UniqueID>  (42) 
39

>  <SMILES>  (42) 
NS(=O)(=O)c1ccc[n-]c1=Nc1ccc(Cl)cc1

>  <Energy>  (42) 
34.3913525868461

>  <Genealogy>  (42) 
NS(=O)(=O)c1ccc[n-]c1=Nc1ccc(Cl)cc1 (protonated)
NS(=O)(=O)c1ccc[n-]c1=Nc1ccc(Cl)cc1 (3D coordinates assigned)
NS(=O)(=O)c1ccc[n-]c1=Nc1ccc(Cl)cc1 (optimized conformer: 34.3913525868461 kcal/mol)

>  <smiles>  (42) 
NS(=O)(=O)c1ccc[nH]c1=Nc1ccc(Cl)cc1

>  <score_type>  (42) 
oracle

>  <origin>  (42) 
adg

>  <m_score__min__energy>  (42) 
-8.6699999999999999

>  <m_primary>  (42) 
energy

$$$$
42:0
     RDKit          3D

 31 33  0  0  1  0  0  0  0  0999 V2000
   59.9690   36.1240   45.9290 O   0  0  0  0  0  0  0  0  0  0  0  0
   60.0170   34.9760   46.4220 C   0  0  0  0  0  0  0  0  0  0  0  0
   60.8660   34.5250   47.4470 N   0  0  0  0  0  0  0  0  0  0  0  0
   61.7870   33.6500   47.3290 C   0  0  0  0  0  0  0  0  0  0  0  0
   61.6700   32.3650   47.7320 N   0  0  0  0  0  0  0  0  0  0  0  0
   62.8350   31.7590   47.4530 C   0  0  0  0  0  0  0  0  0  0  0  0
   63.6420   32.7100   46.8770 N   0  0  0  0  0  0  0  0  0  0  0  0
   63.0010   33.8580   46.8050 N   0  0  0  0  0  0  0  0  0  0  0  0
   59.0820   33.9780   45.8630 C   0  0  0  0  0  0  0  0  0  0  0  0
   58.6440   33.0260   46.7960 C   0  0  0  0  0  0  0  0  0  0  0  0
   57.7770   32.0440   46.3520 C   0  0  0  0  0  0  0  0  0  0  0  0
   57.3880   32.0600   45.0040 C   0  0  0  0  0  0  0  0  0  0  0  0
   56.5230   31.0620   44.5930 O   0  0  0  0  0  0  0  0  0  0  0  0
   56.5890   29.7350   44.8420 C   0  0  0  0  0  0  0  0  0  0  0  0
   55.5200   29.0550   44.8780 O   0  0  0  0  0  0  0  0  0  0  0  0
   57.8750   29.1080   45.0710 C   0  0  0  0  0  0  0  0  0  0  0  0
   59.0930   29.2510   44.5340 C   0  0  0  0  0  0  0  0  0  0  0  0
   60.1190   28.5030   44.9380 C   0  0  0  0  0  0  0  0  0  0  0  0
   59.8880   27.5700   45.9310 C   0  0  0  0  0  0  0  0  0  0  0  0
   58.0870   27.7490   46.3390 S   0  0  0  0  0  0  0  0  0  0  0  0
   57.8470   33.0070   44.1550 N   0  0  0  0  0  0  0  0  0  0  0  0
   58.6910   33.9690   44.5590 C   0  0  0  0  0  0  0  0  0  0  0  0
   63.0928   30.7075   47.6474 H   0  0  0  0  0  0  0  0  0  0  0  0
   64.6040   32.4530   46.5830 H   0  0  0  0  0  0  0  0  0  0  0  0
   63.3620   34.7290   46.4210 H   0  0  0  0  0  0  0  0  0  0  0  0
   58.9783   33.0594   47.8434 H   0  0  0  0  0  0  0  0  0  0  0  0
   57.4021   31.2703   47.0381 H   0  0  0  0  0  0  0  0  0  0  0  0
   59.2497   30.0004   43.7441 H   0  0  0  0  0  0  0  0  0  0  0  0
   61.1185   28.6243   44.4950 H   0  0  0  0  0  0  0  0  0  0  0  0
   60.6122   26.8746   46.3804 H   0  0  0  0  0  0  0  0  0  0  0  0
   59.0574   34.7305   43.8548 H   0  0  0  0  0  0  0  0  0  0  0  0
  1  2  2  0
  2  3  1  0
  3  4  2  0
  4  5  1  0
  5  6  2  0
  6  7  1  0
  7  8  1  0
  2  9  1  0
  9 10  2  0
 10 11  1  0
 11 12  2  0
 12 13  1  0
 13 14  1  0
 14 15  2  0
 14 16  1  0
 16 17  2  0
 17 18  1  0
 18 19  2  0
 19 20  1  0
 12 21  1  0
 21 22  2  0
  8  4  1  0
 22  9  1  0
 20 16  1  0
  6 23  1  0
  7 24  1  0
  8 25  1  0
 10 26  1  0
 11 27  1  0
 17 28  1  0
 18 29  1  0
 19 30  1  0
 22 31  1  0
M  END
>  <smiles>  (43) 
O=C(N=c1nc[nH][nH]1)c1ccc(OC(=O)c2cccs2)nc1

>  <score_type>  (43) 
oracle

>  <origin>  (43) 
adg

>  <m_score__min__energy>  (43) 
-7.7999999999999998

>  <m_primary>  (43) 
energy

$$$$
43:0
     RDKit          3D

 32 32  0  0  0  0  0  0  0  0999 V2000
   57.3880   31.2360   42.8970 C   0  0  0  0  0  0  0  0  0  0  0  0
   56.4010   30.0690   42.9060 C   0  0  0  0  0  0  0  0  0  0  0  0
   55.9680   29.6790   44.3280 C   0  0  0  0  0  0  0  0  0  0  0  0
   57.1200   29.1770   45.1680 C   0  0  0  0  0  0  0  0  0  0  0  0
   57.1080   27.9990   45.8430 C   0  0  0  0  0  0  0  0  0  0  0  0
   56.0260   27.1600   45.7290 N   0  0  0  0  0  0  0  0  0  0  0  0
   56.0620   25.8730   46.1670 C   0  0  0  0  0  0  0  0  0  0  0  0
   55.0590   25.1240   46.0140 O   0  0  0  0  0  0  0  0  0  0  0  0
   57.2190   25.3850   46.7680 C   0  0  0  0  0  0  0  0  0  0  0  0
   57.2960   24.1870   47.1440 O   0  0  0  0  0  0  0  0  0  0  0  0
   58.2650   26.2220   46.9650 N   0  0  0  0  0  0  0  0  0  0  0  0
   58.2440   27.5280   46.5840 C   0  0  0  0  0  0  0  0  0  0  0  0
   59.2920   28.2810   46.9890 C   0  0  0  0  0  0  0  0  0  0  0  0
   60.0470   29.1490   46.1300 N   0  0  0  0  0  0  0  0  0  0  0  0
   60.7090   30.3200   46.7090 C   0  0  0  0  0  0  0  0  0  0  0  0
   60.6090   28.5790   44.9070 C   0  0  0  0  0  0  0  0  0  0  0  0
   57.6287   31.5206   43.9319 H   0  0  0  0  0  0  0  0  0  0  0  0
   58.3086   30.9336   42.3763 H   0  0  0  0  0  0  0  0  0  0  0  0
   56.9370   32.0936   42.3763 H   0  0  0  0  0  0  0  0  0  0  0  0
   55.5083   30.3569   42.3313 H   0  0  0  0  0  0  0  0  0  0  0  0
   56.9053   29.1998   42.4587 H   0  0  0  0  0  0  0  0  0  0  0  0
   55.5325   30.5620   44.8186 H   0  0  0  0  0  0  0  0  0  0  0  0
   55.2369   28.8617   44.2418 H   0  0  0  0  0  0  0  0  0  0  0  0
   58.0217   29.8033   45.2365 H   0  0  0  0  0  0  0  0  0  0  0  0
   55.1480   27.4650   45.2530 H   0  0  0  0  0  0  0  0  0  0  0  0
   59.5856   28.2246   48.0476 H   0  0  0  0  0  0  0  0  0  0  0  0
   60.6730   30.2562   47.8066 H   0  0  0  0  0  0  0  0  0  0  0  0
   61.7575   30.3496   46.3777 H   0  0  0  0  0  0  0  0  0  0  0  0
   60.1938   31.2337   46.3777 H   0  0  0  0  0  0  0  0  0  0  0  0
   61.3592   27.8181   45.1682 H   0  0  0  0  0  0  0  0  0  0  0  0
   59.8058   28.1144   44.3162 H   0  0  0  0  0  0  0  0  0  0  0  0
   61.0849   29.3755   44.3162 H   0  0  0  0  0  0  0  0  0  0  0  0
  1  2  1  0
  2  3  1  0
  3  4  1  0
  4  5  2  3
  5  6  1  0
  6  7  1  0
  7  8  2  0
  7  9  1  0
  9 10  2  0
  9 11  1  0
 11 12  1  0
 12 13  2  3
 13 14  1  0
 14 15  1  0
 14 16  1  0
 12  5  1  0
  1 17  1  0
  1 18  1  0
  1 19  1  0
  2 20  1  0
  2 21  1  0
  3 22  1  0
  3 23  1  0
  4 24  1  0
  6 25  1  0
 13 26  1  0
 15 27  1  0
 15 28  1  0
 15 29  1  0
 16 30  1  0
 16 31  1  0
 16 32  1  0
M  CHG  1  11  -1
M  END
>  <UniqueID>  (44) 
40

>  <SMILES>  (44) 
CCCC=c1[nH]c(=O)c(=O)[n-]c1=CN(C)C

>  <Energy>  (44) 
44.32326886165625

>  <Genealogy>  (44) 
CCCC=c1[nH]c(=O)c(=O)[n-]c1=CN(C)C (protonated)
CCCC=c1[nH]c(=O)c(=O)[n-]c1=CN(C)C (3D coordinates assigned)
CCCC=c1[nH]c(=O)c(=O)[n-]c1=CN(C)C (optimized conformer: 44.32326886165625 kcal/mol)

>  <smiles>  (44) 
CCCC=c1[nH]c(=O)c(=O)[nH]c1=CN(C)C

>  <score_type>  (44) 
oracle

>  <origin>  (44) 
adg

>  <m_score__min__energy>  (44) 
-6.8899999999999997

>  <m_primary>  (44) 
energy

$$$$
44:0
     RDKit          3D

 41 43  0  0  0  0  0  0  0  0999 V2000
   62.3830   31.8550   48.4010 C   0  0  0  0  0  0  0  0  0  0  0  0
   61.5330   30.7490   48.6850 O   0  0  0  0  0  0  0  0  0  0  0  0
   60.6440   30.1290   47.7890 C   0  0  0  0  0  0  0  0  0  0  0  0
   61.0380   30.0800   46.4470 C   0  0  0  0  0  0  0  0  0  0  0  0
   60.2250   29.4900   45.4800 C   0  0  0  0  0  0  0  0  0  0  0  0
   59.0000   28.9200   45.8400 C   0  0  0  0  0  0  0  0  0  0  0  0
   58.0900   28.3480   44.7890 C   0  0  0  0  0  0  0  0  0  0  0  0
   56.6720   28.6860   45.1180 C   0  0  0  0  0  0  0  0  0  0  0  0
   55.9080   27.8020   45.5910 O   0  0  0  0  0  0  0  0  0  0  0  0
   56.2080   30.0300   44.9470 N   0  0  0  0  0  0  0  0  0  0  0  0
   56.9630   31.0470   44.2780 C   0  0  0  0  0  0  0  0  0  0  0  0
   57.0080   31.0400   42.8830 C   0  0  0  0  0  0  0  0  0  0  0  0
   57.7080   32.0480   42.2150 C   0  0  0  0  0  0  0  0  0  0  0  0
   57.7370   32.0640   40.9570 O   0  0  0  0  0  0  0  0  0  0  0  0
   58.3430   32.9940   42.8990 O   0  0  0  0  0  0  0  0  0  0  0  0
   58.3600   33.0280   44.2290 C   0  0  0  0  0  0  0  0  0  0  0  0
   59.0690   34.0430   44.8820 C   0  0  0  0  0  0  0  0  0  0  0  0
   59.1250   34.0740   46.2780 C   0  0  0  0  0  0  0  0  0  0  0  0
   58.4840   33.0850   47.0270 C   0  0  0  0  0  0  0  0  0  0  0  0
   57.7680   32.0690   46.3870 C   0  0  0  0  0  0  0  0  0  0  0  0
   57.6780   32.0410   44.9810 C   0  0  0  0  0  0  0  0  0  0  0  0
   58.5870   28.9670   47.1800 C   0  0  0  0  0  0  0  0  0  0  0  0
   59.3950   29.5680   48.1680 C   0  0  0  0  0  0  0  0  0  0  0  0
   58.9760   29.6220   49.5060 O   0  0  0  0  0  0  0  0  0  0  0  0
   59.7940   29.3150   50.6310 C   0  0  0  0  0  0  0  0  0  0  0  0
   62.7280   32.3039   49.3441 H   0  0  0  0  0  0  0  0  0  0  0  0
   63.2510   31.5106   47.8197 H   0  0  0  0  0  0  0  0  0  0  0  0
   61.8268   32.6052   47.8197 H   0  0  0  0  0  0  0  0  0  0  0  0
   62.0043   30.5138   46.1504 H   0  0  0  0  0  0  0  0  0  0  0  0
   60.5489   29.4729   44.4289 H   0  0  0  0  0  0  0  0  0  0  0  0
   58.3500   28.7733   43.8084 H   0  0  0  0  0  0  0  0  0  0  0  0
   58.2080   27.2548   44.7584 H   0  0  0  0  0  0  0  0  0  0  0  0
   56.4973   30.2485   42.3149 H   0  0  0  0  0  0  0  0  0  0  0  0
   59.5833   34.8181   44.2949 H   0  0  0  0  0  0  0  0  0  0  0  0
   59.6749   34.8788   46.7877 H   0  0  0  0  0  0  0  0  0  0  0  0
   58.5427   33.1054   48.1252 H   0  0  0  0  0  0  0  0  0  0  0  0
   57.2730   31.2884   46.9833 H   0  0  0  0  0  0  0  0  0  0  0  0
   57.6190   28.5288   47.4644 H   0  0  0  0  0  0  0  0  0  0  0  0
   59.2377   29.5238   51.5567 H   0  0  0  0  0  0  0  0  0  0  0  0
   60.0724   28.2512   50.6025 H   0  0  0  0  0  0  0  0  0  0  0  0
   60.7036   29.9329   50.6025 H   0  0  0  0  0  0  0  0  0  0  0  0
  1  2  1  0
  2  3  1  0
  3  4  2  0
  4  5  1  0
  5  6  2  0
  6  7  1  0
  7  8  1  0
  8  9  2  0
  8 10  1  0
 10 11  1  0
 11 12  2  0
 12 13  1  0
 13 14  2  0
 13 15  1  0
 15 16  1  0
 16 17  2  0
 17 18  1  0
 18 19  2  0
 19 20  1  0
 20 21  2  0
  6 22  1  0
 22 23  2  0
 23 24  1  0
 24 25  1  0
 23  3  1  0
 21 11  1  0
 21 16  1  0
  1 26  1  0
  1 27  1  0
  1 28  1  0
  4 29  1  0
  5 30  1  0
  7 31  1  0
  7 32  1  0
 12 33  1  0
 17 34  1  0
 18 35  1  0
 19 36  1  0
 20 37  1  0
 22 38  1  0
 25 39  1  0
 25 40  1  0
 25 41  1  0
M  CHG  1  10  -1
M  END
>  <UniqueID>  (45) 
41

>  <SMILES>  (45) 
COc1ccc(CC(=O)[N-]c2cc(=O)oc3ccccc23)cc1OC

>  <Energy>  (45) 
53.72613851985348

>  <Genealogy>  (45) 
COc1ccc(CC(=O)[N-]c2cc(=O)oc3ccccc23)cc1OC (protonated)
COc1ccc(CC(=O)[N-]c2cc(=O)oc3ccccc23)cc1OC (3D coordinates assigned)
COc1ccc(CC(=O)[N-]c2cc(=O)oc3ccccc23)cc1OC (optimized conformer: 53.72613851985348 kcal/mol)

>  <smiles>  (45) 
COc1ccc(CC(=O)Nc2cc(=O)oc3ccccc23)cc1OC

>  <score_type>  (45) 
oracle

>  <origin>  (45) 
adg

>  <m_score__min__energy>  (45) 
-9.4100000000000001

>  <m_primary>  (45) 
energy

$$$$
45:0
     RDKit          3D

 35 37  0  0  0  0  0  0  0  0999 V2000
   59.6090   29.1160   49.6630 N   0  0  0  0  0  0  0  0  0  0  0  0
   59.2640   28.4570   48.6060 C   0  0  0  0  0  0  0  0  0  0  0  0
   58.6090   29.0910   47.6010 N   0  0  0  0  0  0  0  0  0  0  0  0
   58.2270   28.4340   46.4720 C   0  0  0  0  0  0  0  0  0  0  0  0
   57.5650   29.2120   45.4000 C   0  0  0  0  0  0  0  0  0  0  0  0
   58.2370   30.2810   44.7820 C   0  0  0  0  0  0  0  0  0  0  0  0
   57.6200   31.0080   43.7590 C   0  0  0  0  0  0  0  0  0  0  0  0
   56.3240   30.6850   43.3550 C   0  0  0  0  0  0  0  0  0  0  0  0
   55.6390   29.6350   43.9740 C   0  0  0  0  0  0  0  0  0  0  0  0
   56.2520   28.8990   44.9940 C   0  0  0  0  0  0  0  0  0  0  0  0
   55.5590   27.8490   45.5860 O   0  0  0  0  0  0  0  0  0  0  0  0
   58.5050   27.0520   46.3490 C   0  0  0  0  0  0  0  0  0  0  0  0
   58.0550   26.2430   45.1890 C   0  0  0  0  0  0  0  0  0  0  0  0
   58.2140   26.7300   43.8820 C   0  0  0  0  0  0  0  0  0  0  0  0
   57.7590   25.9840   42.7910 C   0  0  0  0  0  0  0  0  0  0  0  0
   57.1440   24.7450   42.9950 C   0  0  0  0  0  0  0  0  0  0  0  0
   56.9950   24.2400   44.2930 C   0  0  0  0  0  0  0  0  0  0  0  0
   56.1910   22.7000   44.5740 S   0  0  0  0  0  0  0  0  0  0  0  0
   54.5380   22.9840   44.9890 N   0  0  0  0  0  0  0  0  0  0  0  0
   56.8760   21.9730   45.6970 O   0  0  0  0  0  0  0  0  0  0  0  0
   56.2510   21.8480   43.3370 O   0  0  0  0  0  0  0  0  0  0  0  0
   57.4610   24.9840   45.3840 C   0  0  0  0  0  0  0  0  0  0  0  0
   59.1990   26.4290   47.3960 C   0  0  0  0  0  0  0  0  0  0  0  0
   59.5590   27.1360   48.4960 N   0  0  0  0  0  0  0  0  0  0  0  0
   60.3750   28.7810   50.2900 H   0  0  0  0  0  0  0  0  0  0  0  0
   59.2542   30.5472   45.1050 H   0  0  0  0  0  0  0  0  0  0  0  0
   58.1570   31.8355   43.2722 H   0  0  0  0  0  0  0  0  0  0  0  0
   55.8410   31.2568   42.5490 H   0  0  0  0  0  0  0  0  0  0  0  0
   54.6150   29.3867   43.6581 H   0  0  0  0  0  0  0  0  0  0  0  0
   58.6989   27.7032   43.7157 H   0  0  0  0  0  0  0  0  0  0  0  0
   57.8851   26.3726   41.7697 H   0  0  0  0  0  0  0  0  0  0  0  0
   56.7766   24.1660   42.1349 H   0  0  0  0  0  0  0  0  0  0  0  0
   54.0320   22.0770   44.8710 H   0  0  0  0  0  0  0  0  0  0  0  0
   57.3614   24.5798   46.4022 H   0  0  0  0  0  0  0  0  0  0  0  0
   59.4529   25.3611   47.3248 H   0  0  0  0  0  0  0  0  0  0  0  0
  1  2  2  3
  2  3  1  0
  3  4  2  0
  4  5  1  0
  5  6  2  0
  6  7  1  0
  7  8  2  0
  8  9  1  0
  9 10  2  0
 10 11  1  0
  4 12  1  0
 12 13  1  0
 13 14  2  0
 14 15  1  0
 15 16  2  0
 16 17  1  0
 17 18  1  0
 18 19  1  0
 18 20  2  0
 18 21  2  0
 17 22  2  0
 12 23  2  0
 23 24  1  0
 24  2  1  0
 10  5  1  0
 22 13  1  0
  1 25  1  0
  6 26  1  0
  7 27  1  0
  8 28  1  0
  9 29  1  0
 14 30  1  0
 15 31  1  0
 16 32  1  0
 19 33  1  0
 22 34  1  0
 23 35  1  0
M  CHG  3  11  -1  19  -1  24  -1
M  END
>  <UniqueID>  (46) 
42

>  <SMILES>  (46) 
N=c1nc(-c2ccccc2[O-])c(-c2cccc(S([NH-])(=O)=O)c2)c[n-]1

>  <Energy>  (46) 
50.01527658167211

>  <Genealogy>  (46) 
N=c1nc(-c2ccccc2[O-])c(-c2cccc(S([NH-])(=O)=O)c2)c[n-]1 (protonated)
N=c1nc(-c2ccccc2[O-])c(-c2cccc(S([NH-])(=O)=O)c2)c[n-]1 (3D coordinates assigned)
N=c1nc(-c2ccccc2[O-])c(-c2cccc(S([NH-])(=O)=O)c2)c[n-]1 (optimized conformer: 50.01527658167211 kcal/mol)

>  <smiles>  (46) 
N=c1nc(-c2ccccc2O)c(-c2cccc(S(N)(=O)=O)c2)c[nH]1

>  <score_type>  (46) 
oracle

>  <origin>  (46) 
adg

>  <m_score__min__energy>  (46) 
-13.199999999999999

>  <m_primary>  (46) 
energy

$$$$
46:0
     RDKit          3D

 25 26  0  0  0  0  0  0  0  0999 V2000
   57.4010   28.5850   42.9530 O   0  0  0  0  0  0  0  0  0  0  0  0
   56.5330   29.4880   43.7850 S   0  0  0  0  0  0  0  0  0  0  0  0
   55.2880   29.8170   43.0130 O   0  0  0  0  0  0  0  0  0  0  0  0
   56.0860   28.6660   45.2460 N   0  0  0  0  0  0  0  0  0  0  0  0
   56.6240   27.4310   45.7480 C   0  0  0  0  0  0  0  0  0  0  0  0
   58.0120   27.3600   45.9410 C   0  0  0  0  0  0  0  0  0  0  0  0
   58.6080   26.1870   46.4080 C   0  0  0  0  0  0  0  0  0  0  0  0
   57.8220   25.0710   46.6970 C   0  0  0  0  0  0  0  0  0  0  0  0
   56.4380   25.1310   46.5310 C   0  0  0  0  0  0  0  0  0  0  0  0
   55.8300   26.3050   46.0690 C   0  0  0  0  0  0  0  0  0  0  0  0
   54.4460   26.3330   45.9630 O   0  0  0  0  0  0  0  0  0  0  0  0
   57.3670   30.9930   44.1590 C   0  0  0  0  0  0  0  0  0  0  0  0
   57.7620   31.2770   45.4710 C   0  0  0  0  0  0  0  0  0  0  0  0
   58.4270   32.4710   45.7570 C   0  0  0  0  0  0  0  0  0  0  0  0
   58.6860   33.3720   44.7220 C   0  0  0  0  0  0  0  0  0  0  0  0
   58.2900   33.0850   43.4530 N   0  0  0  0  0  0  0  0  0  0  0  0
   57.6420   31.9280   43.1510 C   0  0  0  0  0  0  0  0  0  0  0  0
   58.6373   28.2381   45.7220 H   0  0  0  0  0  0  0  0  0  0  0  0
   59.6981   26.1426   46.5482 H   0  0  0  0  0  0  0  0  0  0  0  0
   58.2934   24.1441   47.0556 H   0  0  0  0  0  0  0  0  0  0  0  0
   55.8207   24.2510   46.7644 H   0  0  0  0  0  0  0  0  0  0  0  0
   57.5486   30.5596   46.2771 H   0  0  0  0  0  0  0  0  0  0  0  0
   58.7432   32.6992   46.7856 H   0  0  0  0  0  0  0  0  0  0  0  0
   59.2111   34.3152   44.9334 H   0  0  0  0  0  0  0  0  0  0  0  0
   57.3333   31.7255   42.1148 H   0  0  0  0  0  0  0  0  0  0  0  0
  1  2  2  0
  2  3  2  0
  2  4  1  0
  4  5  1  0
  5  6  2  0
  6  7  1  0
  7  8  2  0
  8  9  1  0
  9 10  2  0
 10 11  1  0
  2 12  1  0
 12 13  2  0
 13 14  1  0
 14 15  2  0
 15 16  1  0
 16 17  2  0
 10  5  1  0
 17 12  1  0
  6 18  1  0
  7 19  1  0
  8 20  1  0
  9 21  1  0
 13 22  1  0
 14 23  1  0
 15 24  1  0
 17 25  1  0
M  CHG  2   4  -1  11  -1
M  END
>  <UniqueID>  (47) 
43

>  <SMILES>  (47) 
O=S(=O)([N-]c1ccccc1[O-])c1cccnc1

>  <Energy>  (47) 
33.508731267969246

>  <Genealogy>  (47) 
O=S(=O)([N-]c1ccccc1[O-])c1cccnc1 (protonated)
O=S(=O)([N-]c1ccccc1[O-])c1cccnc1 (3D coordinates assigned)
O=S(=O)([N-]c1ccccc1[O-])c1cccnc1 (optimized conformer: 33.508731267969246 kcal/mol)

>  <smiles>  (47) 
O=S(=O)(Nc1ccccc1O)c1cccnc1

>  <score_type>  (47) 
oracle

>  <origin>  (47) 
adg

>  <m_score__min__energy>  (47) 
-12.26

>  <m_primary>  (47) 
energy

$$$$
47:0
     RDKit          3D

 43 45  0  0  0  0  0  0  0  0999 V2000
   56.0340   28.7230   45.0140 O   0  0  0  0  0  0  0  0  0  0  0  0
   56.8450   29.6620   45.2300 C   0  0  0  0  0  0  0  0  0  0  0  0
   56.5680   30.9570   44.6830 N   0  0  0  0  0  0  0  0  0  0  0  0
   57.3520   32.1380   44.9010 C   0  0  0  0  0  0  0  0  0  0  0  0
   57.3630   32.7200   46.1750 C   0  0  0  0  0  0  0  0  0  0  0  0
   58.1220   33.8700   46.4180 C   0  0  0  0  0  0  0  0  0  0  0  0
   58.8850   34.4360   45.3940 C   0  0  0  0  0  0  0  0  0  0  0  0
   59.6190   35.5510   45.6320 F   0  0  0  0  0  0  0  0  0  0  0  0
   58.8990   33.8490   44.1260 C   0  0  0  0  0  0  0  0  0  0  0  0
   58.1430   32.6980   43.8800 C   0  0  0  0  0  0  0  0  0  0  0  0
   58.0470   29.4090   45.9790 N   0  0  0  0  0  0  0  0  0  0  0  0
   58.0200   28.4460   47.0870 C   0  0  0  0  0  0  0  0  0  0  0  0
   58.9330   28.9210   48.2260 C   0  0  0  0  0  0  0  0  0  0  0  0
   60.2020   29.4650   47.7180 N   0  0  0  0  0  0  0  0  0  0  0  0
   61.1310   30.0590   48.6430 C   0  0  0  0  0  0  0  0  0  0  0  0
   61.1340   29.6860   49.8480 O   0  0  0  0  0  0  0  0  0  0  0  0
   62.0110   31.1130   48.2210 N   0  0  0  0  0  0  0  0  0  0  0  0
   63.0910   31.5870   49.0370 C   0  0  0  0  0  0  0  0  0  0  0  0
   63.3290   30.9750   50.2770 C   0  0  0  0  0  0  0  0  0  0  0  0
   64.3740   31.4130   51.0940 C   0  0  0  0  0  0  0  0  0  0  0  0
   65.1820   32.4770   50.6870 C   0  0  0  0  0  0  0  0  0  0  0  0
   64.9390   33.1120   49.4660 C   0  0  0  0  0  0  0  0  0  0  0  0
   63.8940   32.6800   48.6400 C   0  0  0  0  0  0  0  0  0  0  0  0
   63.5670   33.5770   47.1620 Cl  0  0  0  0  0  0  0  0  0  0  0  0
   60.5070   29.3700   46.2840 C   0  0  0  0  0  0  0  0  0  0  0  0
   59.3320   29.9250   45.4770 C   0  0  0  0  0  0  0  0  0  0  0  0
   56.7727   32.2713   46.9875 H   0  0  0  0  0  0  0  0  0  0  0  0
   58.1178   34.3293   47.4175 H   0  0  0  0  0  0  0  0  0  0  0  0
   59.5044   34.2919   43.3214 H   0  0  0  0  0  0  0  0  0  0  0  0
   58.1667   32.2289   42.8853 H   0  0  0  0  0  0  0  0  0  0  0  0
   56.9901   28.3527   47.4620 H   0  0  0  0  0  0  0  0  0  0  0  0
   58.3777   27.4713   46.7236 H   0  0  0  0  0  0  0  0  0  0  0  0
   58.4126   29.7045   48.7963 H   0  0  0  0  0  0  0  0  0  0  0  0
   59.1631   28.0548   48.8637 H   0  0  0  0  0  0  0  0  0  0  0  0
   61.7110   31.7070   47.4160 H   0  0  0  0  0  0  0  0  0  0  0  0
   62.6882   30.1445   50.6081 H   0  0  0  0  0  0  0  0  0  0  0  0
   64.5607   30.9193   52.0591 H   0  0  0  0  0  0  0  0  0  0  0  0
   66.0098   32.8153   51.3276 H   0  0  0  0  0  0  0  0  0  0  0  0
   65.5717   33.9553   49.1522 H   0  0  0  0  0  0  0  0  0  0  0  0
   61.4128   29.9533   46.0620 H   0  0  0  0  0  0  0  0  0  0  0  0
   60.6744   28.3172   46.0128 H   0  0  0  0  0  0  0  0  0  0  0  0
   59.3317   31.0224   45.5528 H   0  0  0  0  0  0  0  0  0  0  0  0
   59.4487   29.6073   44.4304 H   0  0  0  0  0  0  0  0  0  0  0  0
  1  2  2  0
  2  3  1  0
  3  4  1  0
  4  5  2  0
  5  6  1  0
  6  7  2  0
  7  8  1  0
  7  9  1  0
  9 10  2  0
  2 11  1  0
 11 12  1  0
 12 13  1  0
 13 14  1  0
 14 15  1  0
 15 16  2  0
 15 17  1  0
 17 18  1  0
 18 19  2  0
 19 20  1  0
 20 21  2  0
 21 22  1  0
 22 23  2  0
 23 24  1  0
 14 25  1  0
 25 26  1  0
 10  4  1  0
 26 11  1  0
 23 18  1  0
  5 27  1  0
  6 28  1  0
  9 29  1  0
 10 30  1  0
 12 31  1  0
 12 32  1  0
 13 33  1  0
 13 34  1  0
 17 35  1  0
 19 36  1  0
 20 37  1  0
 21 38  1  0
 22 39  1  0
 25 40  1  0
 25 41  1  0
 26 42  1  0
 26 43  1  0
M  CHG  1   3  -1
M  END
>  <UniqueID>  (48) 
44

>  <SMILES>  (48) 
O=C([N-]c1ccc(F)cc1)N1CCN(C(=O)Nc2ccccc2Cl)CC1

>  <Energy>  (48) 
57.223318869708194

>  <Genealogy>  (48) 
O=C([N-]c1ccc(F)cc1)N1CCN(C(=O)Nc2ccccc2Cl)CC1 (protonated)
O=C([N-]c1ccc(F)cc1)N1CCN(C(=O)Nc2ccccc2Cl)CC1 (3D coordinates assigned)
O=C([N-]c1ccc(F)cc1)N1CCN(C(=O)Nc2ccccc2Cl)CC1 (nonaromatic ring conformer: 57.223318869708194 kcal/mol)

>  <smiles>  (48) 
O=C(Nc1ccc(F)cc1)N1CCN(C(=O)Nc2ccccc2Cl)CC1

>  <score_type>  (48) 
oracle

>  <origin>  (48) 
adg

>  <m_score__min__energy>  (48) 
-9.5700000000000003

>  <m_primary>  (48) 
energy

$$$$
48:0
     RDKit          3D

 69 72  0  0  0  0  0  0  0  0999 V2000
   65.9580   30.4430   51.2290 C   0  0  0  0  0  0  0  0  0  0  0  0
   65.9050   31.6340   50.4480 O   0  0  0  0  0  0  0  0  0  0  0  0
   66.4730   32.8620   50.8270 C   0  0  0  0  0  0  0  0  0  0  0  0
   67.8510   33.1180   50.6690 C   0  0  0  0  0  0  0  0  0  0  0  0
   68.3930   34.3440   51.0590 C   0  0  0  0  0  0  0  0  0  0  0  0
   67.5730   35.3260   51.6140 C   0  0  0  0  0  0  0  0  0  0  0  0
   66.2070   35.0900   51.7720 C   0  0  0  0  0  0  0  0  0  0  0  0
   65.6440   33.8640   51.3780 C   0  0  0  0  0  0  0  0  0  0  0  0
   64.1660   33.6430   51.5790 C   0  0  0  0  0  0  0  0  0  0  0  0
   63.6520   32.7240   50.5690 N   0  0  0  0  0  0  0  0  0  0  0  0
   62.3580   32.8880   49.9660 C   0  0  0  0  0  0  0  0  0  0  0  0
   61.6710   33.9110   50.2360 O   0  0  0  0  0  0  0  0  0  0  0  0
   61.8260   31.8860   49.0130 C   0  0  0  0  0  0  0  0  0  0  0  0
   61.9270   32.0850   47.6130 C   0  0  0  0  0  0  0  0  0  0  0  0
   61.4320   31.1260   46.7120 C   0  0  0  0  0  0  0  0  0  0  0  0
   60.8370   29.9730   47.2180 C   0  0  0  0  0  0  0  0  0  0  0  0
   60.3260   28.9760   46.4510 N   0  0  0  0  0  0  0  0  0  0  0  0
   59.8190   27.9880   47.2270 C   0  0  0  0  0  0  0  0  0  0  0  0
   59.0730   26.5010   46.5620 S   0  0  0  0  0  0  0  0  0  0  0  0
   57.3700   27.1690   46.5670 C   0  0  0  0  0  0  0  0  0  0  0  0
   57.1300   28.0160   45.3450 C   0  0  0  0  0  0  0  0  0  0  0  0
   57.4460   27.5560   44.2160 O   0  0  0  0  0  0  0  0  0  0  0  0
   56.5170   29.3110   45.4050 N   0  0  0  0  0  0  0  0  0  0  0  0
   55.8990   30.0300   44.2930 C   0  0  0  0  0  0  0  0  0  0  0  0
   56.8250   31.1360   43.7610 C   0  0  0  0  0  0  0  0  0  0  0  0
   58.2600   31.0360   44.3070 C   0  0  0  0  0  0  0  0  0  0  0  0
   58.6060   32.1690   45.1940 N   0  0  0  0  0  0  0  0  0  0  0  0
   58.3070   33.5010   44.6100 C   0  0  0  0  0  0  0  0  0  0  0  0
   59.3790   34.5840   44.8500 C   0  0  0  0  0  0  0  0  0  0  0  0
   59.6060   34.9840   46.3160 C   0  0  0  0  0  0  0  0  0  0  0  0
   58.5580   34.4170   47.2890 C   0  0  0  0  0  0  0  0  0  0  0  0
   58.7050   32.9100   47.6330 C   0  0  0  0  0  0  0  0  0  0  0  0
   58.1400   31.9300   46.5840 C   0  0  0  0  0  0  0  0  0  0  0  0
   59.9760   28.3110   48.8820 S   0  0  0  0  0  0  0  0  0  0  0  0
   60.7360   29.7790   48.5850 C   0  0  0  0  0  0  0  0  0  0  0  0
   61.2240   30.7070   49.5020 C   0  0  0  0  0  0  0  0  0  0  0  0
   65.9464   30.7043   52.2974 H   0  0  0  0  0  0  0  0  0  0  0  0
   65.0870   29.8128   50.9962 H   0  0  0  0  0  0  0  0  0  0  0  0
   66.8815   29.8926   50.9962 H   0  0  0  0  0  0  0  0  0  0  0  0
   68.5035   32.3459   50.2353 H   0  0  0  0  0  0  0  0  0  0  0  0
   69.4683   34.5357   50.9283 H   0  0  0  0  0  0  0  0  0  0  0  0
   68.0039   36.2882   51.9277 H   0  0  0  0  0  0  0  0  0  0  0  0
   65.5655   35.8698   52.2084 H   0  0  0  0  0  0  0  0  0  0  0  0
   63.9949   33.2170   52.5786 H   0  0  0  0  0  0  0  0  0  0  0  0
   63.6432   34.6064   51.4869 H   0  0  0  0  0  0  0  0  0  0  0  0
   64.3070   32.0030   50.1950 H   0  0  0  0  0  0  0  0  0  0  0  0
   62.3984   33.0009   47.2270 H   0  0  0  0  0  0  0  0  0  0  0  0
   61.5132   31.2836   45.6264 H   0  0  0  0  0  0  0  0  0  0  0  0
   56.6540   26.3340   46.5745 H   0  0  0  0  0  0  0  0  0  0  0  0
   57.2360   27.7927   47.4631 H   0  0  0  0  0  0  0  0  0  0  0  0
   55.6858   29.3194   43.4808 H   0  0  0  0  0  0  0  0  0  0  0  0
   54.9709   30.4973   44.6540 H   0  0  0  0  0  0  0  0  0  0  0  0
   56.8620   31.0640   42.6640 H   0  0  0  0  0  0  0  0  0  0  0  0
   56.4126   32.0989   44.0968 H   0  0  0  0  0  0  0  0  0  0  0  0
   58.3571   30.0995   44.8758 H   0  0  0  0  0  0  0  0  0  0  0  0
   58.9479   31.0594   43.4489 H   0  0  0  0  0  0  0  0  0  0  0  0
   58.1877   33.3763   43.5236 H   0  0  0  0  0  0  0  0  0  0  0  0
   57.3977   33.8569   45.1164 H   0  0  0  0  0  0  0  0  0  0  0  0
   60.3330   34.2096   44.4503 H   0  0  0  0  0  0  0  0  0  0  0  0
   59.0086   35.4891   44.3463 H   0  0  0  0  0  0  0  0  0  0  0  0
   60.5971   34.6198   46.6244 H   0  0  0  0  0  0  0  0  0  0  0  0
   59.5238   36.0799   46.3631 H   0  0  0  0  0  0  0  0  0  0  0  0
   58.6255   34.9862   48.2279 H   0  0  0  0  0  0  0  0  0  0  0  0
   57.5893   34.5148   46.7770 H   0  0  0  0  0  0  0  0  0  0  0  0
   59.7765   32.6937   47.7561 H   0  0  0  0  0  0  0  0  0  0  0  0
   58.1120   32.7498   48.5455 H   0  0  0  0  0  0  0  0  0  0  0  0
   58.4356   30.9108   46.8736 H   0  0  0  0  0  0  0  0  0  0  0  0
   57.0503   32.0798   46.5754 H   0  0  0  0  0  0  0  0  0  0  0  0
   61.1419   30.5248   50.5837 H   0  0  0  0  0  0  0  0  0  0  0  0
  1  2  1  0
  2  3  1  0
  3  4  2  0
  4  5  1  0
  5  6  2  0
  6  7  1  0
  7  8  2  0
  8  9  1  0
  9 10  1  0
 10 11  1  0
 11 12  2  0
 11 13  1  0
 13 14  2  0
 14 15  1  0
 15 16  2  0
 16 17  1  0
 17 18  2  0
 18 19  1  0
 19 20  1  0
 20 21  1  0
 21 22  2  0
 21 23  1  0
 23 24  1  0
 24 25  1  0
 25 26  1  0
 26 27  1  0
 27 28  1  0
 28 29  1  0
 29 30  1  0
 30 31  1  0
 31 32  1  0
 32 33  1  0
 18 34  1  0
 34 35  1  0
 35 36  2  0
  8  3  1  0
 36 13  1  0
 35 16  1  0
 33 27  1  0
  1 37  1  0
  1 38  1  0
  1 39  1  0
  4 40  1  0
  5 41  1  0
  6 42  1  0
  7 43  1  0
  9 44  1  0
  9 45  1  0
 10 46  1  0
 14 47  1  0
 15 48  1  0
 20 49  1  0
 20 50  1  0
 24 51  1  0
 24 52  1  0
 25 53  1  0
 25 54  1  0
 26 55  1  0
 26 56  1  0
 28 57  1  0
 28 58  1  0
 29 59  1  0
 29 60  1  0
 30 61  1  0
 30 62  1  0
 31 63  1  0
 31 64  1  0
 32 65  1  0
 32 66  1  0
 33 67  1  0
 33 68  1  0
 36 69  1  0
M  CHG  1  23  -1
M  END
>  <UniqueID>  (49) 
45

>  <SMILES>  (49) 
COc1ccccc1CNC(=O)c1ccc2nc(SCC(=O)[N-]CCCN3CCCCCC3)sc2c1

>  <Energy>  (49) 
115.7225876594845

>  <Genealogy>  (49) 
COc1ccccc1CNC(=O)c1ccc2nc(SCC(=O)[N-]CCCN3CCCCCC3)sc2c1 (protonated)
COc1ccccc1CNC(=O)c1ccc2nc(SCC(=O)[N-]CCCN3CCCCCC3)sc2c1 (3D coordinates assigned)
COc1ccccc1CNC(=O)c1ccc2nc(SCC(=O)[N-]CCCN3CCCCCC3)sc2c1 (nonaromatic ring conformer: 115.7225876594845 kcal/mol)

>  <smiles>  (49) 
COc1ccccc1CNC(=O)c1ccc2nc(SCC(=O)NCCCN3CCCCCC3)sc2c1

>  <score_type>  (49) 
oracle

>  <origin>  (49) 
adg

>  <m_score__min__energy>  (49) 
-8.5399999999999991

>  <m_primary>  (49) 
energy

$$$$
49:0
     RDKit          3D

 48 50  0  0  0  0  0  0  0  0999 V2000
   62.5310   31.1140   51.4220 C   0  0  0  0  0  0  0  0  0  0  0  0
   61.3780   30.7270   50.5540 C   0  0  0  0  0  0  0  0  0  0  0  0
   60.2060   30.7970   51.0160 O   0  0  0  0  0  0  0  0  0  0  0  0
   61.6030   30.3710   49.1820 N   0  0  0  0  0  0  0  0  0  0  0  0
   60.5980   29.8180   48.3160 C   0  0  0  0  0  0  0  0  0  0  0  0
   60.4400   30.2680   46.9930 C   0  0  0  0  0  0  0  0  0  0  0  0
   59.4390   29.7290   46.1780 C   0  0  0  0  0  0  0  0  0  0  0  0
   58.5810   28.7410   46.6750 C   0  0  0  0  0  0  0  0  0  0  0  0
   57.3340   28.0530   45.6400 S   0  0  0  0  0  0  0  0  0  0  0  0
   57.9540   27.3020   44.4930 O   0  0  0  0  0  0  0  0  0  0  0  0
   56.4970   27.1060   46.4510 O   0  0  0  0  0  0  0  0  0  0  0  0
   56.3200   29.3090   45.0090 N   0  0  0  0  0  0  0  0  0  0  0  0
   56.7450   30.3430   44.1110 C   0  0  0  0  0  0  0  0  0  0  0  0
   56.5750   30.2430   42.7190 C   0  0  0  0  0  0  0  0  0  0  0  0
   57.0220   31.2670   41.8800 C   0  0  0  0  0  0  0  0  0  0  0  0
   57.6300   32.4030   42.4210 C   0  0  0  0  0  0  0  0  0  0  0  0
   57.7810   32.5280   43.8120 C   0  0  0  0  0  0  0  0  0  0  0  0
   58.4120   33.6730   44.4020 N   0  0  0  0  0  0  0  0  0  0  0  0
   58.4320   34.0030   45.7980 C   0  0  0  0  0  0  0  0  0  0  0  0
   57.3980   34.5060   46.3120 O   0  0  0  0  0  0  0  0  0  0  0  0
   59.6450   33.8220   46.6310 C   0  0  0  0  0  0  0  0  0  0  0  0
   59.5270   33.6740   48.0230 C   0  0  0  0  0  0  0  0  0  0  0  0
   60.6640   33.5030   48.8180 C   0  0  0  0  0  0  0  0  0  0  0  0
   61.9440   33.4890   48.2390 C   0  0  0  0  0  0  0  0  0  0  0  0
   63.1130   33.3130   49.0600 N   0  0  0  0  0  0  0  0  0  0  0  0
   63.8350   32.3030   48.9310 O   0  0  0  0  0  0  0  0  0  0  0  0
   63.4530   34.2550   50.0030 O   0  0  0  0  0  0  0  0  0  0  0  0
   62.0620   33.6550   46.8470 C   0  0  0  0  0  0  0  0  0  0  0  0
   60.9250   33.8250   46.0530 C   0  0  0  0  0  0  0  0  0  0  0  0
   57.3540   31.4860   44.6460 C   0  0  0  0  0  0  0  0  0  0  0  0
   58.7160   28.3110   48.0000 C   0  0  0  0  0  0  0  0  0  0  0  0
   59.7140   28.8500   48.8170 C   0  0  0  0  0  0  0  0  0  0  0  0
   62.2428   31.0173   52.4792 H   0  0  0  0  0  0  0  0  0  0  0  0
   63.3853   30.4534   51.2129 H   0  0  0  0  0  0  0  0  0  0  0  0
   62.8137   32.1563   51.2129 H   0  0  0  0  0  0  0  0  0  0  0  0
   62.5340   30.6080   48.7670 H   0  0  0  0  0  0  0  0  0  0  0  0
   61.1070   31.0479   46.5970 H   0  0  0  0  0  0  0  0  0  0  0  0
   59.3257   30.0829   45.1427 H   0  0  0  0  0  0  0  0  0  0  0  0
   56.0883   29.3553   42.2888 H   0  0  0  0  0  0  0  0  0  0  0  0
   56.8950   31.1787   40.7909 H   0  0  0  0  0  0  0  0  0  0  0  0
   57.9912   33.2013   41.7560 H   0  0  0  0  0  0  0  0  0  0  0  0
   58.5318   33.6928   48.4912 H   0  0  0  0  0  0  0  0  0  0  0  0
   60.5557   33.3784   49.9055 H   0  0  0  0  0  0  0  0  0  0  0  0
   63.0578   33.6509   46.3798 H   0  0  0  0  0  0  0  0  0  0  0  0
   61.0332   33.9622   44.9670 H   0  0  0  0  0  0  0  0  0  0  0  0
   57.4986   31.5663   45.7335 H   0  0  0  0  0  0  0  0  0  0  0  0
   58.0342   27.5460   48.4000 H   0  0  0  0  0  0  0  0  0  0  0  0
   59.8071   28.5130   49.8600 H   0  0  0  0  0  0  0  0  0  0  0  0
  1  2  1  0
  2  3  2  0
  2  4  1  0
  4  5  1  0
  5  6  2  0
  6  7  1  0
  7  8  2  0
  8  9  1  0
  9 10  2  0
  9 11  2  0
  9 12  1  0
 12 13  1  0
 13 14  2  0
 14 15  1  0
 15 16  2  0
 16 17  1  0
 17 18  1  0
 18 19  1  0
 19 20  2  0
 19 21  1  0
 21 22  2  0
 22 23  1  0
 23 24  2  0
 24 25  1  0
 25 26  2  0
 25 27  1  0
 24 28  1  0
 28 29  2  0
 17 30  2  0
  8 31  1  0
 31 32  2  0
 32  5  1  0
 30 13  1  0
 29 21  1  0
  1 33  1  0
  1 34  1  0
  1 35  1  0
  4 36  1  0
  6 37  1  0
  7 38  1  0
 14 39  1  0
 15 40  1  0
 16 41  1  0
 22 42  1  0
 23 43  1  0
 28 44  1  0
 29 45  1  0
 30 46  1  0
 31 47  1  0
 32 48  1  0
M  CHG  4  12  -1  18  -1  25   1  27  -1
M  END
>  <UniqueID>  (50) 
46

>  <SMILES>  (50) 
CC(=O)Nc1ccc(S(=O)(=O)[N-]c2cccc([N-]C(=O)c3ccc([N+](=O)[O-])cc3)c2)cc1

>  <Energy>  (50) 
63.26822789896456

>  <Genealogy>  (50) 
CC(=O)Nc1ccc(S(=O)(=O)[N-]c2cccc([N-]C(=O)c3ccc([N+](=O)[O-])cc3)c2)cc1 (protonated)
CC(=O)Nc1ccc(S(=O)(=O)[N-]c2cccc([N-]C(=O)c3ccc([N+](=O)[O-])cc3)c2)cc1 (3D coordinates assigned)
CC(=O)Nc1ccc(S(=O)(=O)[N-]c2cccc([N-]C(=O)c3ccc([N+](=O)[O-])cc3)c2)cc1 (optimized conformer: 63.26822789896456 kcal/mol)

>  <smiles>  (50) 
CC(=O)Nc1ccc(S(=O)(=O)Nc2cccc(NC(=O)c3ccc([N+](=O)[O-])cc3)c2)cc1

>  <score_type>  (50) 
oracle

>  <origin>  (50) 
adg

>  <m_score__min__energy>  (50) 
-10.460000000000001

>  <m_primary>  (50) 
energy

$$$$
50:0
     RDKit          3D

 42 44  0  0  0  0  0  0  0  0999 V2000
   58.5907   32.0192   43.2880 H   0  0  0  0  0  0  0  0  0  0  0  0
   57.8680   32.0400   44.1170 C   0  0  0  0  0  0  0  0  0  0  0  0
   57.9790   33.1470   45.0890 C   0  0  0  0  0  0  0  0  0  0  0  0
   57.4210   34.2420   44.8170 O   0  0  0  0  0  0  0  0  0  0  0  0
   58.6730   32.9930   46.3850 C   0  0  0  0  0  0  0  0  0  0  0  0
   58.1270   32.5330   47.5720 C   0  0  0  0  0  0  0  0  0  0  0  0
   57.0858   32.2247   47.7474 H   0  0  0  0  0  0  0  0  0  0  0  0
   59.1590   32.5410   48.4900 C   0  0  0  0  0  0  0  0  0  0  0  0
   59.0300   32.1630   49.8210 O   0  0  0  0  0  0  0  0  0  0  0  0
   60.3050   32.9880   47.9330 N   0  0  0  0  0  0  0  0  0  0  0  0
   61.5870   33.1180   48.5710 C   0  0  0  0  0  0  0  0  0  0  0  0
   61.7520   33.9790   49.6690 C   0  0  0  0  0  0  0  0  0  0  0  0
   60.8941   34.5564   50.0439 H   0  0  0  0  0  0  0  0  0  0  0  0
   62.9980   34.1070   50.2880 C   0  0  0  0  0  0  0  0  0  0  0  0
   63.1136   34.7775   51.1524 H   0  0  0  0  0  0  0  0  0  0  0  0
   64.1030   33.3840   49.8120 C   0  0  0  0  0  0  0  0  0  0  0  0
   65.4380   33.4960   50.5000 C   0  0  0  0  0  0  0  0  0  0  0  0
   65.2805   33.5467   51.5875 H   0  0  0  0  0  0  0  0  0  0  0  0
   65.9436   34.4059   50.1445 H   0  0  0  0  0  0  0  0  0  0  0  0
   66.3140   32.2910   50.1770 C   0  0  0  0  0  0  0  0  0  0  0  0
   66.6539   31.8234   51.1128 H   0  0  0  0  0  0  0  0  0  0  0  0
   65.7336   31.5619   49.5925 H   0  0  0  0  0  0  0  0  0  0  0  0
   67.1866   32.6181   49.5925 H   0  0  0  0  0  0  0  0  0  0  0  0
   63.9380   32.5140   48.7240 C   0  0  0  0  0  0  0  0  0  0  0  0
   64.7945   31.9300   48.3560 H   0  0  0  0  0  0  0  0  0  0  0  0
   62.6920   32.3850   48.1050 C   0  0  0  0  0  0  0  0  0  0  0  0
   62.5752   31.7056   47.2478 H   0  0  0  0  0  0  0  0  0  0  0  0
   60.0040   33.2680   46.6470 C   0  0  0  0  0  0  0  0  0  0  0  0
   60.9270   33.7240   45.7120 O   0  0  0  0  0  0  0  0  0  0  0  0
   56.9540   31.0570   44.1660 C   0  0  0  0  0  0  0  0  0  0  0  0
   55.9606   31.2663   43.7425 H   0  0  0  0  0  0  0  0  0  0  0  0
   57.1800   29.7130   44.7460 C   0  0  0  0  0  0  0  0  0  0  0  0
   58.4830   29.2240   44.9540 C   0  0  0  0  0  0  0  0  0  0  0  0
   59.3496   29.8428   44.6781 H   0  0  0  0  0  0  0  0  0  0  0  0
   58.6830   27.9570   45.5090 C   0  0  0  0  0  0  0  0  0  0  0  0
   59.7046   27.5895   45.6858 H   0  0  0  0  0  0  0  0  0  0  0  0
   57.5880   27.1580   45.8390 C   0  0  0  0  0  0  0  0  0  0  0  0
   57.7477   26.1639   46.2819 H   0  0  0  0  0  0  0  0  0  0  0  0
   56.2880   27.6180   45.6080 C   0  0  0  0  0  0  0  0  0  0  0  0
   55.2040   26.8110   45.9290 O   0  0  0  0  0  0  0  0  0  0  0  0
   56.0810   28.8900   45.0560 C   0  0  0  0  0  0  0  0  0  0  0  0
   54.7820   29.3370   44.8320 O   0  0  0  0  0  0  0  0  0  0  0  0
  1  2  1  0
  2  3  1  0
  3  4  2  0
  3  5  1  0
  5  6  1  0
  6  7  1  0
  6  8  2  0
  8  9  1  0
  8 10  1  0
 10 11  1  0
 11 12  2  0
 12 13  1  0
 12 14  1  0
 14 15  1  0
 14 16  2  0
 16 17  1  0
 17 18  1  0
 17 19  1  0
 17 20  1  0
 20 21  1  0
 20 22  1  0
 20 23  1  0
 16 24  1  0
 24 25  1  0
 24 26  2  0
 26 27  1  0
 10 28  1  0
 28 29  1  0
  2 30  2  0
 30 31  1  0
 30 32  1  0
 32 33  2  0
 33 34  1  0
 33 35  1  0
 35 36  1  0
 35 37  2  0
 37 38  1  0
 37 39  1  0
 39 40  1  0
 39 41  2  0
 41 42  1  0
 28  5  2  0
 41 32  1  0
 26 11  1  0
M  CHG  4   9  -1  29  -1  40  -1  42  -1
M  END
>  <UniqueID>  (51) 
47

>  <SMILES>  (51) 
CCc1ccc(-n2c([O-])cc(C(=O)/C=C\c3cccc([O-])c3[O-])c2[O-])cc1

>  <Energy>  (51) 
84.67118882389343

>  <Genealogy>  (51) 
CCc1ccc(-n2c([O-])cc(C(=O)C=Cc3cccc([O-])c3[O-])c2[O-])cc1 (protonated)
CCc1ccc(-n2c([O-])cc(C(=O)/C=C\c3cccc([O-])c3[O-])c2[O-])cc1 (cis-trans isomerization)
CCc1ccc(-n2c([O-])cc(C(=O)/C=C\c3cccc([O-])c3[O-])c2[O-])cc1 (3D coordinates assigned)
CCc1ccc(-n2c([O-])cc(C(=O)/C=C\c3cccc([O-])c3[O-])c2[O-])cc1 (optimized conformer: 84.67118882389343 kcal/mol)

>  <smiles>  (51) 
CCc1ccc(-n2c(O)cc(C(=O)C=Cc3cccc(O)c3O)c2O)cc1

>  <score_type>  (51) 
oracle

>  <origin>  (51) 
adg

>  <m_score__min__energy>  (51) 
-17.809999999999999

>  <m_primary>  (51) 
energy

$$$$
51:0
     RDKit          3D

 42 45  0  0  0  0  0  0  0  0999 V2000
   59.4590   29.1710   49.3250 O   0  0  0  0  0  0  0  0  0  0  0  0
   60.1440   30.2210   49.2030 C   0  0  0  0  0  0  0  0  0  0  0  0
   59.9780   31.3410   50.1890 C   0  0  0  0  0  0  0  0  0  0  0  0
   60.3900   32.6270   49.6040 N   0  0  0  0  0  0  0  0  0  0  0  0
   59.6500   33.8160   49.9450 C   0  0  0  0  0  0  0  0  0  0  0  0
   59.3130   34.0290   51.1420 O   0  0  0  0  0  0  0  0  0  0  0  0
   59.2800   34.7460   48.9190 N   0  0  0  0  0  0  0  0  0  0  0  0
   59.1560   34.4380   47.5240 C   0  0  0  0  0  0  0  0  0  0  0  0
   59.6330   35.3620   46.5870 C   0  0  0  0  0  0  0  0  0  0  0  0
   59.5340   35.0960   45.2200 C   0  0  0  0  0  0  0  0  0  0  0  0
   58.9470   33.9090   44.7770 C   0  0  0  0  0  0  0  0  0  0  0  0
   58.4390   32.9860   45.7020 C   0  0  0  0  0  0  0  0  0  0  0  0
   57.6930   31.4920   45.1360 S   0  0  0  0  0  0  0  0  0  0  0  0
   56.2410   31.7500   44.8520 O   0  0  0  0  0  0  0  0  0  0  0  0
   58.3590   31.0120   43.8750 O   0  0  0  0  0  0  0  0  0  0  0  0
   57.8260   30.2560   46.3480 N   0  0  0  0  0  0  0  0  0  0  0  0
   58.5330   29.1760   46.2200 C   0  0  0  0  0  0  0  0  0  0  0  0
   59.8560   29.2090   45.9600 N   0  0  0  0  0  0  0  0  0  0  0  0
   60.3790   27.9570   45.8600 C   0  0  0  0  0  0  0  0  0  0  0  0
   59.4700   26.9190   46.0420 C   0  0  0  0  0  0  0  0  0  0  0  0
   57.9570   27.5940   46.3380 S   0  0  0  0  0  0  0  0  0  0  0  0
   58.5240   33.2610   47.0770 C   0  0  0  0  0  0  0  0  0  0  0  0
   57.9460   32.4140   47.9670 F   0  0  0  0  0  0  0  0  0  0  0  0
   61.5380   32.6700   48.7240 C   0  0  0  0  0  0  0  0  0  0  0  0
   62.3330   33.8260   48.5960 C   0  0  0  0  0  0  0  0  0  0  0  0
   63.4240   33.8400   47.7220 C   0  0  0  0  0  0  0  0  0  0  0  0
   63.7400   32.7020   46.9780 C   0  0  0  0  0  0  0  0  0  0  0  0
   62.9770   31.5400   47.1170 C   0  0  0  0  0  0  0  0  0  0  0  0
   61.8870   31.5150   47.9980 C   0  0  0  0  0  0  0  0  0  0  0  0
   61.1250   30.3160   48.1670 N   0  0  0  0  0  0  0  0  0  0  0  0
   58.9209   31.4039   50.4867 H   0  0  0  0  0  0  0  0  0  0  0  0
   60.6139   31.1347   51.0625 H   0  0  0  0  0  0  0  0  0  0  0  0
   60.0884   36.3029   46.9296 H   0  0  0  0  0  0  0  0  0  0  0  0
   59.9193   35.8233   44.4902 H   0  0  0  0  0  0  0  0  0  0  0  0
   58.8830   33.6975   43.6994 H   0  0  0  0  0  0  0  0  0  0  0  0
   61.4439   27.7780   45.6503 H   0  0  0  0  0  0  0  0  0  0  0  0
   59.7004   25.8442   45.9997 H   0  0  0  0  0  0  0  0  0  0  0  0
   62.0940   34.7225   49.1870 H   0  0  0  0  0  0  0  0  0  0  0  0
   64.0345   34.7494   47.6204 H   0  0  0  0  0  0  0  0  0  0  0  0
   64.5910   32.7202   46.2813 H   0  0  0  0  0  0  0  0  0  0  0  0
   63.2321   30.6428   46.5339 H   0  0  0  0  0  0  0  0  0  0  0  0
   61.3010   29.4900   47.5510 H   0  0  0  0  0  0  0  0  0  0  0  0
  1  2  2  0
  2  3  1  0
  3  4  1  0
  4  5  1  0
  5  6  2  0
  5  7  1  0
  7  8  1  0
  8  9  2  0
  9 10  1  0
 10 11  2  0
 11 12  1  0
 12 13  1  0
 13 14  2  0
 13 15  2  0
 13 16  1  0
 16 17  2  3
 17 18  1  0
 18 19  1  0
 19 20  2  0
 20 21  1  0
 12 22  2  0
 22 23  1  0
  4 24  1  0
 24 25  2  0
 25 26  1  0
 26 27  2  0
 27 28  1  0
 28 29  2  0
 29 30  1  0
 30  2  1  0
 22  8  1  0
 29 24  1  0
 21 17  1  0
  3 31  1  0
  3 32  1  0
  9 33  1  0
 10 34  1  0
 11 35  1  0
 19 36  1  0
 20 37  1  0
 25 38  1  0
 26 39  1  0
 27 40  1  0
 28 41  1  0
 30 42  1  0
M  CHG  2   7  -1  18  -1
M  END
>  <UniqueID>  (52) 
48

>  <SMILES>  (52) 
O=C1CN(C(=O)[N-]c2cccc(S(=O)(=O)N=c3[n-]ccs3)c2F)c2ccccc2N1

>  <Energy>  (52) 
90.81930489544537

>  <Genealogy>  (52) 
O=C1CN(C(=O)[N-]c2cccc(S(=O)(=O)N=c3[n-]ccs3)c2F)c2ccccc2N1 (protonated)
O=C1CN(C(=O)[N-]c2cccc(S(=O)(=O)N=c3[n-]ccs3)c2F)c2ccccc2N1 (3D coordinates assigned)
O=C1CN(C(=O)[N-]c2cccc(S(=O)(=O)N=c3[n-]ccs3)c2F)c2ccccc2N1 (nonaromatic ring conformer: 90.81930489544537 kcal/mol)

>  <smiles>  (52) 
O=C1CN(C(=O)Nc2cccc(S(=O)(=O)N=c3[nH]ccs3)c2F)c2ccccc2N1

>  <score_type>  (52) 
oracle

>  <origin>  (52) 
adg

>  <m_score__min__energy>  (52) 
-12.359999999999999

>  <m_primary>  (52) 
energy

$$$$
52:0
     RDKit          3D

 40 41  0  0  0  0  0  0  0  0999 V2000
   56.9680   24.7040   47.3860 C   0  0  0  0  0  0  0  0  0  0  0  0
   57.2670   25.8690   46.5640 N   0  0  0  0  0  0  0  0  0  0  0  0
   56.2300   26.7110   46.0480 C   0  0  0  0  0  0  0  0  0  0  0  0
   55.0450   26.2870   46.0060 O   0  0  0  0  0  0  0  0  0  0  0  0
   56.5100   28.0130   45.5210 N   0  0  0  0  0  0  0  0  0  0  0  0
   58.0410   28.5870   44.9270 S   0  0  0  0  0  0  0  0  0  0  0  0
   59.1290   27.9540   45.7450 O   0  0  0  0  0  0  0  0  0  0  0  0
   58.2180   28.0980   43.5170 O   0  0  0  0  0  0  0  0  0  0  0  0
   58.1880   30.3700   44.9600 C   0  0  0  0  0  0  0  0  0  0  0  0
   57.6220   31.1550   43.9180 C   0  0  0  0  0  0  0  0  0  0  0  0
   56.8720   30.5500   42.7570 C   0  0  0  0  0  0  0  0  0  0  0  0
   57.7770   32.5460   43.9390 C   0  0  0  0  0  0  0  0  0  0  0  0
   58.4660   33.1590   44.9830 C   0  0  0  0  0  0  0  0  0  0  0  0
   58.5930   34.6540   45.0230 C   0  0  0  0  0  0  0  0  0  0  0  0
   58.9590   32.4040   46.0000 N   0  0  0  0  0  0  0  0  0  0  0  0
   58.8370   31.0480   46.0300 C   0  0  0  0  0  0  0  0  0  0  0  0
   59.5290   30.2010   47.4660 S   0  0  0  0  0  0  0  0  0  0  0  0
   60.8030   31.4340   47.7420 C   0  0  0  0  0  0  0  0  0  0  0  0
   62.0610   31.3000   47.1380 C   0  0  0  0  0  0  0  0  0  0  0  0
   63.0420   32.2730   47.3420 C   0  0  0  0  0  0  0  0  0  0  0  0
   62.7760   33.3750   48.1610 C   0  0  0  0  0  0  0  0  0  0  0  0
   61.5320   33.4980   48.7860 C   0  0  0  0  0  0  0  0  0  0  0  0
   60.5480   32.5240   48.5830 C   0  0  0  0  0  0  0  0  0  0  0  0
   57.0382   24.9776   48.4491 H   0  0  0  0  0  0  0  0  0  0  0  0
   55.9501   24.3507   47.1648 H   0  0  0  0  0  0  0  0  0  0  0  0
   57.6900   23.9041   47.1648 H   0  0  0  0  0  0  0  0  0  0  0  0
   58.2580   26.0370   46.2930 H   0  0  0  0  0  0  0  0  0  0  0  0
   56.0686   29.9019   43.1372 H   0  0  0  0  0  0  0  0  0  0  0  0
   56.4364   31.3525   42.1437 H   0  0  0  0  0  0  0  0  0  0  0  0
   57.5642   29.9544   42.1437 H   0  0  0  0  0  0  0  0  0  0  0  0
   57.3533   33.1571   43.1284 H   0  0  0  0  0  0  0  0  0  0  0  0
   58.6217   34.9917   46.0695 H   0  0  0  0  0  0  0  0  0  0  0  0
   59.5201   34.9570   44.5144 H   0  0  0  0  0  0  0  0  0  0  0  0
   57.7303   35.1090   44.5144 H   0  0  0  0  0  0  0  0  0  0  0  0
   59.4480   32.8820   46.7910 H   0  0  0  0  0  0  0  0  0  0  0  0
   62.2756   30.4279   46.5029 H   0  0  0  0  0  0  0  0  0  0  0  0
   64.0247   32.1725   46.8581 H   0  0  0  0  0  0  0  0  0  0  0  0
   63.5463   34.1454   48.3133 H   0  0  0  0  0  0  0  0  0  0  0  0
   61.3265   34.3603   49.4373 H   0  0  0  0  0  0  0  0  0  0  0  0
   59.5732   32.6148   49.0846 H   0  0  0  0  0  0  0  0  0  0  0  0
  1  2  1  0
  2  3  1  0
  3  4  2  0
  3  5  1  0
  5  6  1  0
  6  7  2  0
  6  8  2  0
  6  9  1  0
  9 10  2  0
 10 11  1  0
 10 12  1  0
 12 13  2  0
 13 14  1  0
 13 15  1  0
 15 16  2  0
 16 17  1  0
 17 18  1  0
 18 19  2  0
 19 20  1  0
 20 21  2  0
 21 22  1  0
 22 23  2  0
 16  9  1  0
 23 18  1  0
  1 24  1  0
  1 25  1  0
  1 26  1  0
  2 27  1  0
 11 28  1  0
 11 29  1  0
 11 30  1  0
 12 31  1  0
 14 32  1  0
 14 33  1  0
 14 34  1  0
 15 35  1  0
 19 36  1  0
 20 37  1  0
 21 38  1  0
 22 39  1  0
 23 40  1  0
M  CHG  2   5  -1  15   1
M  END
>  <UniqueID>  (53) 
49

>  <SMILES>  (53) 
CNC(=O)[N-]S(=O)(=O)c1c(C)cc(C)[nH+]c1Sc1ccccc1

>  <Energy>  (53) 
43.1553651492219

>  <Genealogy>  (53) 
CNC(=O)[N-]S(=O)(=O)c1c(C)cc(C)[nH+]c1Sc1ccccc1 (protonated)
CNC(=O)[N-]S(=O)(=O)c1c(C)cc(C)[nH+]c1Sc1ccccc1 (3D coordinates assigned)
CNC(=O)[N-]S(=O)(=O)c1c(C)cc(C)[nH+]c1Sc1ccccc1 (optimized conformer: 43.1553651492219 kcal/mol)

>  <smiles>  (53) 
CNC(=O)NS(=O)(=O)c1c(C)cc(C)nc1Sc1ccccc1

>  <score_type>  (53) 
oracle

>  <origin>  (53) 
adg

>  <m_score__min__energy>  (53) 
-8.0800000000000001

>  <m_primary>  (53) 
energy

$$$$
53:0
     RDKit          3D

 44 48  0  0  0  0  0  0  0  0999 V2000
   53.4525   32.4537   52.7390 H   0  0  0  0  0  0  0  0  0  0  0  0
   53.3300   31.4740   52.2540 C   0  0  0  0  0  0  0  0  0  0  0  0
   52.3990   31.3940   51.1080 C   0  0  0  0  0  0  0  0  0  0  0  0
   52.4160   30.4590   50.1410 N   0  0  0  0  0  0  0  0  0  0  0  0
   51.3870   30.8130   49.3410 C   0  0  0  0  0  0  0  0  0  0  0  0
   51.0790   30.1650   48.3070 O   0  0  0  0  0  0  0  0  0  0  0  0
   50.7140   31.9130   49.7390 N   0  0  0  0  0  0  0  0  0  0  0  0
   51.3670   32.2670   50.8570 C   0  0  0  0  0  0  0  0  0  0  0  0
   51.0260   33.3690   51.6320 O   0  0  0  0  0  0  0  0  0  0  0  0
   54.0380   30.4460   52.7500 C   0  0  0  0  0  0  0  0  0  0  0  0
   53.6640   29.4370   53.6450 C   0  0  0  0  0  0  0  0  0  0  0  0
   52.6684   29.3345   54.1014 H   0  0  0  0  0  0  0  0  0  0  0  0
   54.7120   28.6040   53.8660 N   0  0  0  0  0  0  0  0  0  0  0  0
   55.7190   29.0600   53.1430 N   0  0  0  0  0  0  0  0  0  0  0  0
   56.9710   28.5550   53.0420 C   0  0  0  0  0  0  0  0  0  0  0  0
   57.3110   27.4900   53.7040 N   0  0  0  0  0  0  0  0  0  0  0  0
   57.9100   27.5300   55.0340 C   0  0  0  0  0  0  0  0  0  0  0  0
   58.1564   26.4612   55.1176 H   0  0  0  0  0  0  0  0  0  0  0  0
   57.2810   28.5570   55.9550 C   0  0  0  0  0  0  0  0  0  0  0  0
   56.3937   29.1190   55.6282 H   0  0  0  0  0  0  0  0  0  0  0  0
   56.8942   28.5459   56.9847 H   0  0  0  0  0  0  0  0  0  0  0  0
   58.6340   28.8320   55.3160 C   0  0  0  0  0  0  0  0  0  0  0  0
   58.7255   29.5929   54.5269 H   0  0  0  0  0  0  0  0  0  0  0  0
   59.6319   29.1023   55.6917 H   0  0  0  0  0  0  0  0  0  0  0  0
   57.8560   29.1960   52.2270 N   0  0  0  0  0  0  0  0  0  0  0  0
   57.4900   30.3180   51.5290 C   0  0  0  0  0  0  0  0  0  0  0  0
   58.4360   30.9880   50.6670 N   0  0  0  0  0  0  0  0  0  0  0  0
   58.1120   32.3550   50.2020 C   0  0  0  0  0  0  0  0  0  0  0  0
   57.1379   32.3267   49.6919 H   0  0  0  0  0  0  0  0  0  0  0  0
   58.1012   33.0031   51.0907 H   0  0  0  0  0  0  0  0  0  0  0  0
   59.1490   32.9380   49.2340 C   0  0  0  0  0  0  0  0  0  0  0  0
   59.1020   32.3931   48.2796 H   0  0  0  0  0  0  0  0  0  0  0  0
   58.9279   34.0029   49.0695 H   0  0  0  0  0  0  0  0  0  0  0  0
   60.7850   32.7830   49.9200 S   0  0  0  0  0  0  0  0  0  0  0  0
   61.8080   32.9100   48.8260 O   0  0  0  0  0  0  0  0  0  0  0  0
   61.0130   33.8530   50.9490 O   0  0  0  0  0  0  0  0  0  0  0  0
   60.8980   31.1760   50.6800 C   0  0  0  0  0  0  0  0  0  0  0  0
   61.8243   30.6813   50.3525 H   0  0  0  0  0  0  0  0  0  0  0  0
   60.9066   31.2909   51.7740 H   0  0  0  0  0  0  0  0  0  0  0  0
   59.6970   30.3260   50.2710 C   0  0  0  0  0  0  0  0  0  0  0  0
   59.7061   30.1876   49.1798 H   0  0  0  0  0  0  0  0  0  0  0  0
   59.7617   29.3515   50.7771 H   0  0  0  0  0  0  0  0  0  0  0  0
   56.2160   30.8020   51.6540 N   0  0  0  0  0  0  0  0  0  0  0  0
   55.3540   30.1500   52.4700 C   0  0  0  0  0  0  0  0  0  0  0  0
  1  2  1  0
  2  3  1  0
  3  4  1  0
  4  5  1  0
  5  6  2  0
  5  7  1  0
  7  8  1  0
  8  9  1  0
  2 10  2  3
 10 11  1  0
 11 12  1  0
 11 13  2  0
 13 14  1  0
 14 15  1  0
 15 16  2  0
 16 17  1  0
 17 18  1  0
 17 19  1  0
 19 20  1  0
 19 21  1  0
 19 22  1  0
 22 23  1  0
 22 24  1  0
 15 25  1  0
 25 26  2  0
 26 27  1  0
 27 28  1  0
 28 29  1  0
 28 30  1  0
 28 31  1  0
 31 32  1  0
 31 33  1  0
 31 34  1  0
 34 35  2  0
 34 36  2  0
 34 37  1  0
 37 38  1  0
 37 39  1  0
 37 40  1  0
 40 41  1  0
 40 42  1  0
 26 43  1  0
 43 44  2  0
  8  3  2  0
 44 10  1  0
 44 14  1  0
 22 17  1  0
 40 27  1  0
M  CHG  3   4  -1   7  -1   9  -1
M  END
>  <UniqueID>  (54) 
50

>  <SMILES>  (54) 
O=c1[n-]c([O-])c(C=c2cnn3/c(=N/C4CC4)nc(N4CCS(=O)(=O)CC4)nc23)[n-]1

>  <Energy>  (54) 
378.68500143887377

>  <Genealogy>  (54) 
O=c1[n-]c([O-])c(C=c2cnn3c(=NC4CC4)nc(N4CCS(=O)(=O)CC4)nc23)[n-]1 (protonated)
O=c1[n-]c([O-])c(C=c2cnn3/c(=N/C4CC4)nc(N4CCS(=O)(=O)CC4)nc23)[n-]1 (cis-trans isomerization)
O=c1[n-]c([O-])c(C=c2cnn3/c(=N/C4CC4)nc(N4CCS(=O)(=O)CC4)nc23)[n-]1 (3D coordinates assigned)
O=c1[n-]c([O-])c(C=c2cnn3/c(=N/C4CC4)nc(N4CCS(=O)(=O)CC4)nc23)[n-]1 (nonaromatic ring conformer: 378.68500143887377 kcal/mol)

>  <smiles>  (54) 
O=c1[nH]c(O)c(C=c2cnn3c(=NC4CC4)nc(N4CCS(=O)(=O)CC4)nc23)[nH]1

>  <score_type>  (54) 
oracle

>  <origin>  (54) 
adg

>  <m_score__min__energy>  (54) 
-16.16

>  <m_primary>  (54) 
energy

$$$$
54:0
     RDKit          3D

 47 50  0  0  0  0  0  0  0  0999 V2000
   55.3820   28.9790   44.5670 O   0  0  0  0  0  0  0  0  0  0  0  0
   56.6370   29.0710   44.6120 C   0  0  0  0  0  0  0  0  0  0  0  0
   57.4170   27.8690   44.5850 N   0  0  0  0  0  0  0  0  0  0  0  0
   58.8700   27.8210   44.4690 C   0  0  0  0  0  0  0  0  0  0  0  0
   59.4840   28.4230   45.6990 C   0  0  0  0  0  0  0  0  0  0  0  0
   60.5060   29.3810   45.5840 C   0  0  0  0  0  0  0  0  0  0  0  0
   61.1000   29.9160   46.7310 C   0  0  0  0  0  0  0  0  0  0  0  0
   60.6880   29.4910   47.9970 C   0  0  0  0  0  0  0  0  0  0  0  0
   59.6840   28.5270   48.1190 C   0  0  0  0  0  0  0  0  0  0  0  0
   59.0870   27.9890   46.9750 C   0  0  0  0  0  0  0  0  0  0  0  0
   57.2540   30.4070   44.7310 C   0  0  0  0  0  0  0  0  0  0  0  0
   57.3870   31.2220   43.5780 C   0  0  0  0  0  0  0  0  0  0  0  0
   57.9860   32.4910   43.6620 C   0  0  0  0  0  0  0  0  0  0  0  0
   58.4490   32.9160   44.9040 C   0  0  0  0  0  0  0  0  0  0  0  0
   58.3410   32.1210   46.0240 C   0  0  0  0  0  0  0  0  0  0  0  0
   57.7590   30.8570   45.9700 C   0  0  0  0  0  0  0  0  0  0  0  0
   58.9570   32.8380   47.1350 C   0  0  0  0  0  0  0  0  0  0  0  0
   59.0810   32.4010   48.3100 O   0  0  0  0  0  0  0  0  0  0  0  0
   59.4320   34.1140   46.6950 N   0  0  0  0  0  0  0  0  0  0  0  0
   60.3940   34.9640   47.3900 C   0  0  0  0  0  0  0  0  0  0  0  0
   61.4620   34.1210   48.0330 C   0  0  0  0  0  0  0  0  0  0  0  0
   61.5690   34.0580   49.4300 C   0  0  0  0  0  0  0  0  0  0  0  0
   62.5860   33.3100   50.0280 C   0  0  0  0  0  0  0  0  0  0  0  0
   63.5210   32.6160   49.2390 C   0  0  0  0  0  0  0  0  0  0  0  0
   64.5680   31.8480   49.8590 N   0  0  0  0  0  0  0  0  0  0  0  0
   64.3020   30.8100   50.5000 O   0  0  0  0  0  0  0  0  0  0  0  0
   65.8810   32.2440   49.7550 O   0  0  0  0  0  0  0  0  0  0  0  0
   63.4170   32.6910   47.8390 C   0  0  0  0  0  0  0  0  0  0  0  0
   62.3990   33.4410   47.2420 C   0  0  0  0  0  0  0  0  0  0  0  0
   59.1320   34.1430   45.2970 C   0  0  0  0  0  0  0  0  0  0  0  0
   59.4410   35.0890   44.5250 O   0  0  0  0  0  0  0  0  0  0  0  0
   59.1966   26.7754   44.3689 H   0  0  0  0  0  0  0  0  0  0  0  0
   59.1886   28.3880   43.5819 H   0  0  0  0  0  0  0  0  0  0  0  0
   60.8394   29.7107   44.5889 H   0  0  0  0  0  0  0  0  0  0  0  0
   61.8929   30.6726   46.6368 H   0  0  0  0  0  0  0  0  0  0  0  0
   61.1545   29.9157   48.8981 H   0  0  0  0  0  0  0  0  0  0  0  0
   59.3630   28.1911   49.1160 H   0  0  0  0  0  0  0  0  0  0  0  0
   58.3036   27.2232   47.0742 H   0  0  0  0  0  0  0  0  0  0  0  0
   57.0177   30.8574   42.6081 H   0  0  0  0  0  0  0  0  0  0  0  0
   58.0859   33.1296   42.7720 H   0  0  0  0  0  0  0  0  0  0  0  0
   57.6945   30.2261   46.8688 H   0  0  0  0  0  0  0  0  0  0  0  0
   60.8591   35.6518   46.6684 H   0  0  0  0  0  0  0  0  0  0  0  0
   59.8701   35.5362   48.1698 H   0  0  0  0  0  0  0  0  0  0  0  0
   60.8478   34.6009   50.0586 H   0  0  0  0  0  0  0  0  0  0  0  0
   62.6562   33.2634   51.1248 H   0  0  0  0  0  0  0  0  0  0  0  0
   64.1420   32.1556   47.2084 H   0  0  0  0  0  0  0  0  0  0  0  0
   62.3329   33.4979   46.1455 H   0  0  0  0  0  0  0  0  0  0  0  0
  1  2  2  0
  2  3  1  0
  3  4  1  0
  4  5  1  0
  5  6  2  0
  6  7  1  0
  7  8  2  0
  8  9  1  0
  9 10  2  0
  2 11  1  0
 11 12  2  0
 12 13  1  0
 13 14  2  0
 14 15  1  0
 15 16  2  0
 15 17  1  0
 17 18  2  0
 17 19  1  0
 19 20  1  0
 20 21  1  0
 21 22  2  0
 22 23  1  0
 23 24  2  0
 24 25  1  0
 25 26  2  0
 25 27  1  0
 24 28  1  0
 28 29  2  0
 19 30  1  0
 30 31  2  0
 10  5  1  0
 16 11  1  0
 29 21  1  0
 30 14  1  0
  4 32  1  0
  4 33  1  0
  6 34  1  0
  7 35  1  0
  8 36  1  0
  9 37  1  0
 10 38  1  0
 12 39  1  0
 13 40  1  0
 16 41  1  0
 20 42  1  0
 20 43  1  0
 22 44  1  0
 23 45  1  0
 28 46  1  0
 29 47  1  0
M  CHG  3   3  -1  25   1  27  -1
M  END
>  <UniqueID>  (55) 
51

>  <SMILES>  (55) 
O=C([N-]Cc1ccccc1)c1ccc2c(c1)C(=O)N(Cc1ccc([N+](=O)[O-])cc1)C2=O

>  <Energy>  (55) 
86.17896068997827

>  <Genealogy>  (55) 
O=C([N-]Cc1ccccc1)c1ccc2c(c1)C(=O)N(Cc1ccc([N+](=O)[O-])cc1)C2=O (protonated)
O=C([N-]Cc1ccccc1)c1ccc2c(c1)C(=O)N(Cc1ccc([N+](=O)[O-])cc1)C2=O (3D coordinates assigned)
O=C([N-]Cc1ccccc1)c1ccc2c(c1)C(=O)N(Cc1ccc([N+](=O)[O-])cc1)C2=O (nonaromatic ring conformer: 86.17896068997827 kcal/mol)

>  <smiles>  (55) 
O=C(NCc1ccccc1)c1ccc2c(c1)C(=O)N(Cc1ccc([N+](=O)[O-])cc1)C2=O

>  <score_type>  (55) 
oracle

>  <origin>  (55) 
adg

>  <m_score__min__energy>  (55) 
-10.75

>  <m_primary>  (55) 
energy

$$$$
55:0
     RDKit          3D

 47 49  0  0  0  0  0  0  0  0999 V2000
   52.6550   24.8520   45.2830 O   0  0  0  0  0  0  0  0  0  0  0  0
   53.3620   23.8270   45.3860 N   0  0  0  0  0  0  0  0  0  0  0  0
   52.7370   22.6020   45.3700 O   0  0  0  0  0  0  0  0  0  0  0  0
   54.7940   23.9390   45.5290 C   0  0  0  0  0  0  0  0  0  0  0  0
   55.5970   22.7870   45.4280 C   0  0  0  0  0  0  0  0  0  0  0  0
   56.9830   22.8680   45.5700 C   0  0  0  0  0  0  0  0  0  0  0  0
   57.5930   24.0970   45.8100 C   0  0  0  0  0  0  0  0  0  0  0  0
   56.8220   25.2650   45.9020 C   0  0  0  0  0  0  0  0  0  0  0  0
   57.4970   26.5800   46.1950 C   0  0  0  0  0  0  0  0  0  0  0  0
   57.6330   27.3560   44.9630 N   0  0  0  0  0  0  0  0  0  0  0  0
   57.7190   28.7890   44.9750 C   0  0  0  0  0  0  0  0  0  0  0  0
   58.9750   29.4000   45.0960 C   0  0  0  0  0  0  0  0  0  0  0  0
   59.0850   30.7920   45.1190 C   0  0  0  0  0  0  0  0  0  0  0  0
   57.9430   31.5920   45.0020 C   0  0  0  0  0  0  0  0  0  0  0  0
   58.0880   33.3470   45.0670 S   0  0  0  0  0  0  0  0  0  0  0  0
   56.7400   33.9870   44.8820 O   0  0  0  0  0  0  0  0  0  0  0  0
   58.9890   33.8070   43.9550 O   0  0  0  0  0  0  0  0  0  0  0  0
   58.7690   33.8340   46.5890 N   0  0  0  0  0  0  0  0  0  0  0  0
   59.9880   34.6070   46.3630 C   0  0  0  0  0  0  0  0  0  0  0  0
   61.1460   33.8980   47.0030 C   0  0  0  0  0  0  0  0  0  0  0  0
   61.0020   33.3020   48.2670 C   0  0  0  0  0  0  0  0  0  0  0  0
   62.0900   32.6690   48.8740 C   0  0  0  0  0  0  0  0  0  0  0  0
   63.3310   32.6380   48.2320 C   0  0  0  0  0  0  0  0  0  0  0  0
   63.4870   33.2430   46.9810 C   0  0  0  0  0  0  0  0  0  0  0  0
   62.4010   33.8770   46.3700 C   0  0  0  0  0  0  0  0  0  0  0  0
   56.6870   30.9880   44.8580 C   0  0  0  0  0  0  0  0  0  0  0  0
   56.5700   29.5900   44.8330 C   0  0  0  0  0  0  0  0  0  0  0  0
   55.3220   29.0020   44.6420 O   0  0  0  0  0  0  0  0  0  0  0  0
   55.4190   25.1850   45.7760 C   0  0  0  0  0  0  0  0  0  0  0  0
   54.6600   26.3440   45.9010 O   0  0  0  0  0  0  0  0  0  0  0  0
   55.1265   21.8117   45.2349 H   0  0  0  0  0  0  0  0  0  0  0  0
   57.5959   21.9579   45.4921 H   0  0  0  0  0  0  0  0  0  0  0  0
   58.6853   24.1518   45.9280 H   0  0  0  0  0  0  0  0  0  0  0  0
   56.8924   27.1470   46.9181 H   0  0  0  0  0  0  0  0  0  0  0  0
   58.4959   26.3885   46.6141 H   0  0  0  0  0  0  0  0  0  0  0  0
   58.0240   26.8570   44.1310 H   0  0  0  0  0  0  0  0  0  0  0  0
   59.8796   28.7790   45.1733 H   0  0  0  0  0  0  0  0  0  0  0  0
   60.0736   31.2615   45.2296 H   0  0  0  0  0  0  0  0  0  0  0  0
   60.1674   34.7039   45.2821 H   0  0  0  0  0  0  0  0  0  0  0  0
   59.8781   35.6089   46.8036 H   0  0  0  0  0  0  0  0  0  0  0  0
   60.0297   33.3337   48.7805 H   0  0  0  0  0  0  0  0  0  0  0  0
   61.9694   32.1943   49.8589 H   0  0  0  0  0  0  0  0  0  0  0  0
   64.1854   32.1375   48.7110 H   0  0  0  0  0  0  0  0  0  0  0  0
   64.4647   33.2201   46.4774 H   0  0  0  0  0  0  0  0  0  0  0  0
   62.5290   34.3611   45.3906 H   0  0  0  0  0  0  0  0  0  0  0  0
   55.7871   31.6136   44.7640 H   0  0  0  0  0  0  0  0  0  0  0  0
   55.1410   28.0400   44.9060 H   0  0  0  0  0  0  0  0  0  0  0  0
  1  2  2  0
  2  3  1  0
  2  4  1  0
  4  5  2  0
  5  6  1  0
  6  7  2  0
  7  8  1  0
  8  9  1  0
  9 10  1  0
 10 11  1  0
 11 12  2  0
 12 13  1  0
 13 14  2  0
 14 15  1  0
 15 16  2  0
 15 17  2  0
 15 18  1  0
 18 19  1  0
 19 20  1  0
 20 21  2  0
 21 22  1  0
 22 23  2  0
 23 24  1  0
 24 25  2  0
 14 26  1  0
 26 27  2  0
 27 28  1  0
  8 29  2  0
 29 30  1  0
 29  4  1  0
 27 11  1  0
 25 20  1  0
  5 31  1  0
  6 32  1  0
  7 33  1  0
  9 34  1  0
  9 35  1  0
 10 36  1  0
 12 37  1  0
 13 38  1  0
 19 39  1  0
 19 40  1  0
 21 41  1  0
 22 42  1  0
 23 43  1  0
 24 44  1  0
 25 45  1  0
 26 46  1  0
 28 47  1  0
M  CHG  4   2   1   3  -1  18  -1  30  -1
M  END
>  <UniqueID>  (56) 
52

>  <SMILES>  (56) 
O=[N+]([O-])c1cccc(CNc2ccc(S(=O)(=O)[N-]Cc3ccccc3)cc2O)c1[O-]

>  <Energy>  (56) 
54.139374376486735

>  <Genealogy>  (56) 
O=[N+]([O-])c1cccc(CNc2ccc(S(=O)(=O)[N-]Cc3ccccc3)cc2O)c1[O-] (protonated)
O=[N+]([O-])c1cccc(CNc2ccc(S(=O)(=O)[N-]Cc3ccccc3)cc2O)c1[O-] (3D coordinates assigned)
O=[N+]([O-])c1cccc(CNc2ccc(S(=O)(=O)[N-]Cc3ccccc3)cc2O)c1[O-] (optimized conformer: 54.139374376486735 kcal/mol)

>  <smiles>  (56) 
O=[N+]([O-])c1cccc(CNc2ccc(S(=O)(=O)NCc3ccccc3)cc2O)c1O

>  <score_type>  (56) 
oracle

>  <origin>  (56) 
adg

>  <m_score__min__energy>  (56) 
-15.01

>  <m_primary>  (56) 
energy

$$$$
56:0
     RDKit          3D

 44 47  0  0  0  0  0  0  0  0999 V2000
   59.8940   30.4900   46.9090 O   0  0  0  0  0  0  0  0  0  0  0  0
   59.0630   29.6500   46.4760 C   0  0  0  0  0  0  0  0  0  0  0  0
   59.1960   28.3360   46.8120 N   0  0  0  0  0  0  0  0  0  0  0  0
   58.3280   27.3890   46.3470 C   0  0  0  0  0  0  0  0  0  0  0  0
   58.5150   25.6770   46.8300 S   0  0  0  0  0  0  0  0  0  0  0  0
   56.7310   25.2580   46.8830 C   0  0  0  0  0  0  0  0  0  0  0  0
   56.4030   23.9720   47.6530 C   0  0  0  0  0  0  0  0  0  0  0  0
   54.9650   23.7160   47.5950 N   0  0  0  0  0  0  0  0  0  0  0  0
   54.3650   23.8520   45.9680 S   0  0  0  0  0  0  0  0  0  0  0  0
   52.9950   23.2450   45.8390 O   0  0  0  0  0  0  0  0  0  0  0  0
   54.2670   25.3090   45.6150 O   0  0  0  0  0  0  0  0  0  0  0  0
   55.4640   23.0550   44.8470 C   0  0  0  0  0  0  0  0  0  0  0  0
   55.8140   23.6740   43.6370 C   0  0  0  0  0  0  0  0  0  0  0  0
   56.6310   23.0090   42.7190 C   0  0  0  0  0  0  0  0  0  0  0  0
   57.1120   21.7290   43.0090 C   0  0  0  0  0  0  0  0  0  0  0  0
   56.7860   21.1180   44.2230 C   0  0  0  0  0  0  0  0  0  0  0  0
   55.9630   21.7790   45.1410 C   0  0  0  0  0  0  0  0  0  0  0  0
   57.3260   27.7350   45.4930 N   0  0  0  0  0  0  0  0  0  0  0  0
   57.1920   29.0320   45.1340 C   0  0  0  0  0  0  0  0  0  0  0  0
   56.0900   29.6550   44.0410 S   0  0  0  0  0  0  0  0  0  0  0  0
   56.6250   31.2520   44.1990 C   0  0  0  0  0  0  0  0  0  0  0  0
   57.6750   31.3040   45.1230 C   0  0  0  0  0  0  0  0  0  0  0  0
   58.2880   32.5810   45.5360 C   0  0  0  0  0  0  0  0  0  0  0  0
   58.3550   32.9310   46.8960 C   0  0  0  0  0  0  0  0  0  0  0  0
   58.9040   34.1580   47.2800 C   0  0  0  0  0  0  0  0  0  0  0  0
   59.3780   35.0470   46.3120 C   0  0  0  0  0  0  0  0  0  0  0  0
   59.2970   34.7150   44.9570 C   0  0  0  0  0  0  0  0  0  0  0  0
   58.7480   33.4890   44.5680 C   0  0  0  0  0  0  0  0  0  0  0  0
   58.0110   30.0280   45.6280 C   0  0  0  0  0  0  0  0  0  0  0  0
   56.1963   26.0914   47.3621 H   0  0  0  0  0  0  0  0  0  0  0  0
   56.4180   25.0884   45.8422 H   0  0  0  0  0  0  0  0  0  0  0  0
   56.9433   23.1272   47.2008 H   0  0  0  0  0  0  0  0  0  0  0  0
   56.7103   24.0877   48.7029 H   0  0  0  0  0  0  0  0  0  0  0  0
   55.4443   24.6850   43.4108 H   0  0  0  0  0  0  0  0  0  0  0  0
   56.8958   23.4931   41.7674 H   0  0  0  0  0  0  0  0  0  0  0  0
   57.7473   21.2024   42.2815 H   0  0  0  0  0  0  0  0  0  0  0  0
   57.1768   20.1167   44.4568 H   0  0  0  0  0  0  0  0  0  0  0  0
   55.7070   21.2961   46.0956 H   0  0  0  0  0  0  0  0  0  0  0  0
   56.2114   32.1164   43.6588 H   0  0  0  0  0  0  0  0  0  0  0  0
   57.9743   32.2374   47.6602 H   0  0  0  0  0  0  0  0  0  0  0  0
   58.9629   34.4239   48.3458 H   0  0  0  0  0  0  0  0  0  0  0  0
   59.8154   36.0092   46.6168 H   0  0  0  0  0  0  0  0  0  0  0  0
   59.6653   35.4185   44.1958 H   0  0  0  0  0  0  0  0  0  0  0  0
   58.6762   33.2348   43.5002 H   0  0  0  0  0  0  0  0  0  0  0  0
  1  2  2  0
  2  3  1  0
  3  4  2  0
  4  5  1  0
  5  6  1  0
  6  7  1  0
  7  8  1  0
  8  9  1  0
  9 10  2  0
  9 11  2  0
  9 12  1  0
 12 13  2  0
 13 14  1  0
 14 15  2  0
 15 16  1  0
 16 17  2  0
  4 18  1  0
 18 19  1  0
 19 20  1  0
 20 21  1  0
 21 22  2  0
 22 23  1  0
 23 24  2  0
 24 25  1  0
 25 26  2  0
 26 27  1  0
 27 28  2  0
 22 29  1  0
 29  2  1  0
 17 12  1  0
 29 19  2  0
 28 23  1  0
  6 30  1  0
  6 31  1  0
  7 32  1  0
  7 33  1  0
 13 34  1  0
 14 35  1  0
 15 36  1  0
 16 37  1  0
 17 38  1  0
 21 39  1  0
 24 40  1  0
 25 41  1  0
 26 42  1  0
 27 43  1  0
 28 44  1  0
M  CHG  2   8  -1  18  -1
M  END
>  <UniqueID>  (57) 
53

>  <SMILES>  (57) 
O=c1nc(SCC[N-]S(=O)(=O)c2ccccc2)[n-]c2scc(-c3ccccc3)c12

>  <Energy>  (57) 
82.04974203724503

>  <Genealogy>  (57) 
O=c1nc(SCC[N-]S(=O)(=O)c2ccccc2)[n-]c2scc(-c3ccccc3)c12 (protonated)
O=c1nc(SCC[N-]S(=O)(=O)c2ccccc2)[n-]c2scc(-c3ccccc3)c12 (3D coordinates assigned)
O=c1nc(SCC[N-]S(=O)(=O)c2ccccc2)[n-]c2scc(-c3ccccc3)c12 (optimized conformer: 82.04974203724503 kcal/mol)

>  <smiles>  (57) 
O=c1nc(SCCNS(=O)(=O)c2ccccc2)[nH]c2scc(-c3ccccc3)c12

>  <score_type>  (57) 
oracle

>  <origin>  (57) 
adg

>  <m_score__min__energy>  (57) 
-13.15

>  <m_primary>  (57) 
energy

$$$$
57:0
     RDKit          3D

 47 49  0  0  0  0  0  0  0  0999 V2000
   59.3640   30.0080   50.2990 C   0  0  0  0  0  0  0  0  0  0  0  0
   60.7210   29.5120   49.7960 C   0  0  0  0  0  0  0  0  0  0  0  0
   60.6810   28.0520   49.3110 C   0  0  0  0  0  0  0  0  0  0  0  0
   60.8120   27.8780   47.7860 C   0  0  0  0  0  0  0  0  0  0  0  0
   59.7480   28.5910   47.0430 N   0  0  0  0  0  0  0  0  0  0  0  0
   60.0360   29.8830   46.6990 C   0  0  0  0  0  0  0  0  0  0  0  0
   59.1300   30.6800   46.0040 C   0  0  0  0  0  0  0  0  0  0  0  0
   59.4650   32.1300   45.7450 C   0  0  0  0  0  0  0  0  0  0  0  0
   59.8250   32.8150   47.0370 C   0  0  0  0  0  0  0  0  0  0  0  0
   58.9870   32.7100   48.1570 C   0  0  0  0  0  0  0  0  0  0  0  0
   59.3070   33.3860   49.3340 C   0  0  0  0  0  0  0  0  0  0  0  0
   60.4630   34.1680   49.3820 C   0  0  0  0  0  0  0  0  0  0  0  0
   61.2610   34.2690   48.2860 N   0  0  0  0  0  0  0  0  0  0  0  0
   60.9700   33.6200   47.1270 C   0  0  0  0  0  0  0  0  0  0  0  0
   57.8940   30.1400   45.6330 C   0  0  0  0  0  0  0  0  0  0  0  0
   57.0700   30.8680   45.0130 O   0  0  0  0  0  0  0  0  0  0  0  0
   57.5750   28.8050   45.9670 C   0  0  0  0  0  0  0  0  0  0  0  0
   56.3300   28.2290   45.6000 C   0  0  0  0  0  0  0  0  0  0  0  0
   55.3970   28.9600   44.8600 O   0  0  0  0  0  0  0  0  0  0  0  0
   56.0230   26.9160   45.9820 C   0  0  0  0  0  0  0  0  0  0  0  0
   54.8050   26.3510   45.6200 O   0  0  0  0  0  0  0  0  0  0  0  0
   56.9230   26.1640   46.7320 C   0  0  0  0  0  0  0  0  0  0  0  0
   56.5480   24.8640   47.1070 O   0  0  0  0  0  0  0  0  0  0  0  0
   56.2670   23.8030   46.1990 C   0  0  0  0  0  0  0  0  0  0  0  0
   58.1610   26.7200   47.0900 C   0  0  0  0  0  0  0  0  0  0  0  0
   58.5240   28.0340   46.7040 C   0  0  0  0  0  0  0  0  0  0  0  0
   59.3590   30.0098   51.3990 H   0  0  0  0  0  0  0  0  0  0  0  0
   59.1870   31.0290   49.9298 H   0  0  0  0  0  0  0  0  0  0  0  0
   58.5703   29.3418   49.9298 H   0  0  0  0  0  0  0  0  0  0  0  0
   61.0408   30.1513   48.9599 H   0  0  0  0  0  0  0  0  0  0  0  0
   61.4247   29.5610   50.6401 H   0  0  0  0  0  0  0  0  0  0  0  0
   61.5085   27.5086   49.7905 H   0  0  0  0  0  0  0  0  0  0  0  0
   59.6905   27.6599   49.5851 H   0  0  0  0  0  0  0  0  0  0  0  0
   61.7890   28.2712   47.4682 H   0  0  0  0  0  0  0  0  0  0  0  0
   60.7167   26.8054   47.5614 H   0  0  0  0  0  0  0  0  0  0  0  0
   61.0123   30.3051   46.9797 H   0  0  0  0  0  0  0  0  0  0  0  0
   60.3172   32.1887   45.0520 H   0  0  0  0  0  0  0  0  0  0  0  0
   58.5898   32.6292   45.3037 H   0  0  0  0  0  0  0  0  0  0  0  0
   58.0770   32.0941   48.1068 H   0  0  0  0  0  0  0  0  0  0  0  0
   58.6551   33.3040   50.2162 H   0  0  0  0  0  0  0  0  0  0  0  0
   60.7278   34.7021   50.3064 H   0  0  0  0  0  0  0  0  0  0  0  0
   61.6348   33.7267   46.2572 H   0  0  0  0  0  0  0  0  0  0  0  0
   54.5480   28.5490   44.4920 H   0  0  0  0  0  0  0  0  0  0  0  0
   56.0254   22.8909   46.7644 H   0  0  0  0  0  0  0  0  0  0  0  0
   55.4111   24.0794   45.5657 H   0  0  0  0  0  0  0  0  0  0  0  0
   57.1475   23.6195   45.5657 H   0  0  0  0  0  0  0  0  0  0  0  0
   58.8665   26.1211   47.6846 H   0  0  0  0  0  0  0  0  0  0  0  0
  1  2  1  0
  2  3  1  0
  3  4  1  0
  4  5  1  0
  5  6  1  0
  6  7  2  0
  7  8  1  0
  8  9  1  0
  9 10  2  0
 10 11  1  0
 11 12  2  0
 12 13  1  0
 13 14  2  0
  7 15  1  0
 15 16  2  0
 15 17  1  0
 17 18  2  0
 18 19  1  0
 18 20  1  0
 20 21  1  0
 20 22  2  0
 22 23  1  0
 23 24  1  0
 22 25  1  0
 25 26  2  0
 26  5  1  0
 14  9  1  0
 26 17  1  0
  1 27  1  0
  1 28  1  0
  1 29  1  0
  2 30  1  0
  2 31  1  0
  3 32  1  0
  3 33  1  0
  4 34  1  0
  4 35  1  0
  6 36  1  0
  8 37  1  0
  8 38  1  0
 10 39  1  0
 11 40  1  0
 12 41  1  0
 14 42  1  0
 19 43  1  0
 24 44  1  0
 24 45  1  0
 24 46  1  0
 25 47  1  0
M  CHG  1  21  -1
M  END
>  <UniqueID>  (58) 
54

>  <SMILES>  (58) 
CCCCn1cc(Cc2cccnc2)c(=O)c2c(O)c([O-])c(OC)cc21

>  <Energy>  (58) 
58.32592880730042

>  <Genealogy>  (58) 
CCCCn1cc(Cc2cccnc2)c(=O)c2c(O)c([O-])c(OC)cc21 (protonated)
CCCCn1cc(Cc2cccnc2)c(=O)c2c(O)c([O-])c(OC)cc21 (3D coordinates assigned)
CCCCn1cc(Cc2cccnc2)c(=O)c2c(O)c([O-])c(OC)cc21 (optimized conformer: 58.32592880730042 kcal/mol)

>  <smiles>  (58) 
CCCCn1cc(Cc2cccnc2)c(=O)c2c(O)c(O)c(OC)cc21

>  <score_type>  (58) 
oracle

>  <origin>  (58) 
adg

>  <m_score__min__energy>  (58) 
-10.550000000000001

>  <m_primary>  (58) 
energy

$$$$
58:0
     RDKit          3D

 51 54  0  0  0  0  0  0  0  0999 V2000
   56.5950   26.0730   45.6700 C   0  0  0  0  0  0  0  0  0  0  0  0
   57.8730   26.8140   45.9690 C   0  0  0  0  0  0  0  0  0  0  0  0
   58.8570   26.1800   46.7440 C   0  0  0  0  0  0  0  0  0  0  0  0
   60.0370   26.8440   47.0750 C   0  0  0  0  0  0  0  0  0  0  0  0
   60.2640   28.1380   46.6150 C   0  0  0  0  0  0  0  0  0  0  0  0
   59.3230   28.7790   45.8050 C   0  0  0  0  0  0  0  0  0  0  0  0
   59.6310   30.0590   45.3240 O   0  0  0  0  0  0  0  0  0  0  0  0
   58.8110   31.1920   45.4710 C   0  0  0  0  0  0  0  0  0  0  0  0
   58.2440   31.8380   44.3550 C   0  0  0  0  0  0  0  0  0  0  0  0
   57.4140   32.9490   44.5260 C   0  0  0  0  0  0  0  0  0  0  0  0
   57.1490   33.4310   45.8090 C   0  0  0  0  0  0  0  0  0  0  0  0
   57.7220   32.8130   46.9220 C   0  0  0  0  0  0  0  0  0  0  0  0
   58.5630   31.7000   46.7610 C   0  0  0  0  0  0  0  0  0  0  0  0
   59.2840   30.9380   48.1810 S   0  0  0  0  0  0  0  0  0  0  0  0
   59.1350   31.8570   49.3610 O   0  0  0  0  0  0  0  0  0  0  0  0
   58.5930   29.6310   48.4510 O   0  0  0  0  0  0  0  0  0  0  0  0
   60.9650   30.6370   47.8880 N   0  0  0  0  0  0  0  0  0  0  0  0
   62.0310   31.5790   48.0770 C   0  0  0  0  0  0  0  0  0  0  0  0
   62.3920   32.4900   47.0660 C   0  0  0  0  0  0  0  0  0  0  0  0
   63.4290   33.4020   47.2750 C   0  0  0  0  0  0  0  0  0  0  0  0
   64.1150   33.4160   48.4900 C   0  0  0  0  0  0  0  0  0  0  0  0
   63.7670   32.5180   49.5010 C   0  0  0  0  0  0  0  0  0  0  0  0
   62.7280   31.5960   49.3030 C   0  0  0  0  0  0  0  0  0  0  0  0
   62.3040   30.4610   50.5900 S   0  0  0  0  0  0  0  0  0  0  0  0
   61.0490   29.4080   50.0370 N   0  0  0  0  0  0  0  0  0  0  0  0
   63.5000   29.6360   50.9780 O   0  0  0  0  0  0  0  0  0  0  0  0
   61.8280   31.2260   51.7920 O   0  0  0  0  0  0  0  0  0  0  0  0
   58.0990   28.1330   45.4960 C   0  0  0  0  0  0  0  0  0  0  0  0
   57.0600   28.8480   44.7200 C   0  0  0  0  0  0  0  0  0  0  0  0
   57.0840   29.0960   43.3640 C   0  0  0  0  0  0  0  0  0  0  0  0
   55.9000   29.7530   43.1200 C   0  0  0  0  0  0  0  0  0  0  0  0
   55.2160   29.8880   44.2720 N   0  0  0  0  0  0  0  0  0  0  0  0
   55.9210   29.3360   45.2480 N   0  0  0  0  0  0  0  0  0  0  0  0
   56.1061   25.7895   46.6137 H   0  0  0  0  0  0  0  0  0  0  0  0
   55.9226   26.7213   45.0890 H   0  0  0  0  0  0  0  0  0  0  0  0
   56.8236   25.1673   45.0890 H   0  0  0  0  0  0  0  0  0  0  0  0
   58.6953   25.1496   47.0933 H   0  0  0  0  0  0  0  0  0  0  0  0
   60.7907   26.3442   47.7013 H   0  0  0  0  0  0  0  0  0  0  0  0
   61.1918   28.6603   46.8914 H   0  0  0  0  0  0  0  0  0  0  0  0
   58.4561   31.4653   43.3420 H   0  0  0  0  0  0  0  0  0  0  0  0
   56.9695   33.4437   43.6498 H   0  0  0  0  0  0  0  0  0  0  0  0
   56.4874   34.2995   45.9433 H   0  0  0  0  0  0  0  0  0  0  0  0
   57.5136   33.1999   47.9304 H   0  0  0  0  0  0  0  0  0  0  0  0
   61.8544   32.4834   46.1063 H   0  0  0  0  0  0  0  0  0  0  0  0
   63.7054   34.1105   46.4803 H   0  0  0  0  0  0  0  0  0  0  0  0
   64.9312   34.1356   48.6516 H   0  0  0  0  0  0  0  0  0  0  0  0
   64.3101   32.5334   50.4575 H   0  0  0  0  0  0  0  0  0  0  0  0
   61.3660   29.0050   49.1270 H   0  0  0  0  0  0  0  0  0  0  0  0
   60.2160   30.0060   49.8310 H   0  0  0  0  0  0  0  0  0  0  0  0
   57.8701   28.8295   42.6422 H   0  0  0  0  0  0  0  0  0  0  0  0
   55.5641   30.1124   42.1361 H   0  0  0  0  0  0  0  0  0  0  0  0
  1  2  1  0
  2  3  2  0
  3  4  1  0
  4  5  2  0
  5  6  1  0
  6  7  1  0
  7  8  1  0
  8  9  2  0
  9 10  1  0
 10 11  2  0
 11 12  1  0
 12 13  2  0
 13 14  1  0
 14 15  2  0
 14 16  2  0
 14 17  1  0
 17 18  1  0
 18 19  2  0
 19 20  1  0
 20 21  2  0
 21 22  1  0
 22 23  2  0
 23 24  1  0
 24 25  1  0
 24 26  2  0
 24 27  2  0
  6 28  2  0
 28 29  1  0
 29 30  1  0
 30 31  2  0
 31 32  1  0
 32 33  1  0
 28  2  1  0
 33 29  2  0
 13  8  1  0
 23 18  1  0
  1 34  1  0
  1 35  1  0
  1 36  1  0
  3 37  1  0
  4 38  1  0
  5 39  1  0
  9 40  1  0
 10 41  1  0
 11 42  1  0
 12 43  1  0
 19 44  1  0
 20 45  1  0
 21 46  1  0
 22 47  1  0
 25 48  1  0
 25 49  1  0
 30 50  1  0
 31 51  1  0
M  CHG  2  17  -1  32  -1
M  END
>  <UniqueID>  (59) 
55

>  <SMILES>  (59) 
Cc1cccc(Oc2ccccc2S(=O)(=O)[N-]c2ccccc2S(N)(=O)=O)c1-c1cc[n-]n1

>  <Energy>  (59) 
101.20426886665703

>  <Genealogy>  (59) 
Cc1cccc(Oc2ccccc2S(=O)(=O)[N-]c2ccccc2S(N)(=O)=O)c1-c1cc[n-]n1 (protonated)
Cc1cccc(Oc2ccccc2S(=O)(=O)[N-]c2ccccc2S(N)(=O)=O)c1-c1cc[n-]n1 (3D coordinates assigned)
Cc1cccc(Oc2ccccc2S(=O)(=O)[N-]c2ccccc2S(N)(=O)=O)c1-c1cc[n-]n1 (optimized conformer: 101.20426886665703 kcal/mol)

>  <smiles>  (59) 
Cc1cccc(Oc2ccccc2S(=O)(=O)Nc2ccccc2S(N)(=O)=O)c1-c1cc[nH]n1

>  <score_type>  (59) 
oracle

>  <origin>  (59) 
adg

>  <m_score__min__energy>  (59) 
-13.220000000000001

>  <m_primary>  (59) 
energy

$$$$
59:0
     RDKit          3D

 67 71  0  0  0  0  0  0  0  0999 V2000
   63.4730   33.3000   48.0660 C   0  0  0  0  0  0  0  0  0  0  0  0
   62.2180   32.5990   48.6390 C   0  0  0  0  0  0  0  0  0  0  0  0
   62.6860   31.2180   49.1940 C   0  0  0  0  0  0  0  0  0  0  0  0
   61.6580   30.1770   49.1240 N   0  0  0  0  0  0  0  0  0  0  0  0
   61.1240   29.6270   48.0150 C   0  0  0  0  0  0  0  0  0  0  0  0
   60.2410   28.6560   48.4460 C   0  0  0  0  0  0  0  0  0  0  0  0
   59.3890   27.7880   47.6060 C   0  0  0  0  0  0  0  0  0  0  0  0
   59.7060   26.4320   47.4300 C   0  0  0  0  0  0  0  0  0  0  0  0
   58.9130   25.6170   46.6180 C   0  0  0  0  0  0  0  0  0  0  0  0
   57.7740   26.1420   45.9830 C   0  0  0  0  0  0  0  0  0  0  0  0
   56.9030   25.3420   45.1690 N   0  0  0  0  0  0  0  0  0  0  0  0
   55.3070   24.7940   45.5740 S   0  0  0  0  0  0  0  0  0  0  0  0
   54.3980   25.9580   45.8570 O   0  0  0  0  0  0  0  0  0  0  0  0
   54.7410   24.0470   44.3960 O   0  0  0  0  0  0  0  0  0  0  0  0
   55.3920   23.7060   46.9570 C   0  0  0  0  0  0  0  0  0  0  0  0
   54.2670   22.9420   47.3040 C   0  0  0  0  0  0  0  0  0  0  0  0
   54.3220   22.0540   48.3830 C   0  0  0  0  0  0  0  0  0  0  0  0
   55.5050   21.9210   49.1210 C   0  0  0  0  0  0  0  0  0  0  0  0
   55.5780   20.8010   50.4730 Cl  0  0  0  0  0  0  0  0  0  0  0  0
   56.6310   22.6840   48.7790 C   0  0  0  0  0  0  0  0  0  0  0  0
   56.5770   23.5740   47.6990 C   0  0  0  0  0  0  0  0  0  0  0  0
   57.4530   27.4920   46.1660 C   0  0  0  0  0  0  0  0  0  0  0  0
   58.2610   28.3140   46.9570 C   0  0  0  0  0  0  0  0  0  0  0  0
   60.2870   28.6380   49.7920 N   0  0  0  0  0  0  0  0  0  0  0  0
   61.1480   29.5650   50.1820 N   0  0  0  0  0  0  0  0  0  0  0  0
   61.6230   33.4790   49.7820 C   0  0  0  0  0  0  0  0  0  0  0  0
   60.7240   34.5930   49.2190 C   0  0  0  0  0  0  0  0  0  0  0  0
   59.5590   34.0680   48.4560 N   0  0  0  0  0  0  0  0  0  0  0  0
   59.1640   34.9880   47.3680 C   0  0  0  0  0  0  0  0  0  0  0  0
   58.6180   34.2300   46.1860 C   0  0  0  0  0  0  0  0  0  0  0  0
   59.3080   34.2200   44.9610 C   0  0  0  0  0  0  0  0  0  0  0  0
   58.8140   33.4760   43.8840 C   0  0  0  0  0  0  0  0  0  0  0  0
   57.6310   32.7400   44.0220 C   0  0  0  0  0  0  0  0  0  0  0  0
   56.9300   32.7630   45.2290 C   0  0  0  0  0  0  0  0  0  0  0  0
   57.4190   33.5050   46.3090 C   0  0  0  0  0  0  0  0  0  0  0  0
   59.7400   32.6840   47.9510 C   0  0  0  0  0  0  0  0  0  0  0  0
   61.1780   32.4210   47.4830 C   0  0  0  0  0  0  0  0  0  0  0  0
   64.1056   33.6534   48.8936 H   0  0  0  0  0  0  0  0  0  0  0  0
   64.0407   32.5883   47.4485 H   0  0  0  0  0  0  0  0  0  0  0  0
   63.1648   34.1566   47.4485 H   0  0  0  0  0  0  0  0  0  0  0  0
   63.5570   30.8860   48.6099 H   0  0  0  0  0  0  0  0  0  0  0  0
   62.9251   31.3631   50.2579 H   0  0  0  0  0  0  0  0  0  0  0  0
   61.3474   29.8980   46.9726 H   0  0  0  0  0  0  0  0  0  0  0  0
   60.5859   26.0074   47.9355 H   0  0  0  0  0  0  0  0  0  0  0  0
   59.1812   24.5598   46.4750 H   0  0  0  0  0  0  0  0  0  0  0  0
   53.3374   23.0421   46.7244 H   0  0  0  0  0  0  0  0  0  0  0  0
   53.4362   21.4600   48.6521 H   0  0  0  0  0  0  0  0  0  0  0  0
   57.5592   22.5831   49.3607 H   0  0  0  0  0  0  0  0  0  0  0  0
   57.4625   24.1695   47.4320 H   0  0  0  0  0  0  0  0  0  0  0  0
   56.5572   27.9098   45.6832 H   0  0  0  0  0  0  0  0  0  0  0  0
   58.0114   29.3792   47.0715 H   0  0  0  0  0  0  0  0  0  0  0  0
   59.7390   28.0280   50.4390 H   0  0  0  0  0  0  0  0  0  0  0  0
   61.0270   32.8416   50.4517 H   0  0  0  0  0  0  0  0  0  0  0  0
   62.4548   33.9471   50.3288 H   0  0  0  0  0  0  0  0  0  0  0  0
   60.3500   35.1993   50.0572 H   0  0  0  0  0  0  0  0  0  0  0  0
   61.3332   35.1880   48.5227 H   0  0  0  0  0  0  0  0  0  0  0  0
   58.3908   35.6752   47.7420 H   0  0  0  0  0  0  0  0  0  0  0  0
   60.0543   35.5464   47.0431 H   0  0  0  0  0  0  0  0  0  0  0  0
   60.2373   34.7978   44.8492 H   0  0  0  0  0  0  0  0  0  0  0  0
   59.3561   33.4693   42.9269 H   0  0  0  0  0  0  0  0  0  0  0  0
   57.2536   32.1431   43.1786 H   0  0  0  0  0  0  0  0  0  0  0  0
   55.9923   32.1971   45.3307 H   0  0  0  0  0  0  0  0  0  0  0  0
   56.8637   33.5217   47.2584 H   0  0  0  0  0  0  0  0  0  0  0  0
   59.4953   31.9776   48.7579 H   0  0  0  0  0  0  0  0  0  0  0  0
   59.0736   32.5502   47.0861 H   0  0  0  0  0  0  0  0  0  0  0  0
   61.2439   31.3909   47.1027 H   0  0  0  0  0  0  0  0  0  0  0  0
   61.4169   33.1537   46.6981 H   0  0  0  0  0  0  0  0  0  0  0  0
  1  2  1  0
  2  3  1  0
  3  4  1  0
  4  5  1  0
  5  6  2  0
  6  7  1  0
  7  8  2  0
  8  9  1  0
  9 10  2  0
 10 11  1  0
 11 12  1  0
 12 13  2  0
 12 14  2  0
 12 15  1  0
 15 16  2  0
 16 17  1  0
 17 18  2  0
 18 19  1  0
 18 20  1  0
 20 21  2  0
 10 22  1  0
 22 23  2  0
  6 24  1  0
 24 25  2  0
  2 26  1  0
 26 27  1  0
 27 28  1  0
 28 29  1  0
 29 30  1  0
 30 31  2  0
 31 32  1  0
 32 33  2  0
 33 34  1  0
 34 35  2  0
 28 36  1  0
 36 37  1  0
 37  2  1  0
 25  4  1  0
 35 30  1  0
 23  7  1  0
 21 15  1  0
  1 38  1  0
  1 39  1  0
  1 40  1  0
  3 41  1  0
  3 42  1  0
  5 43  1  0
  8 44  1  0
  9 45  1  0
 16 46  1  0
 17 47  1  0
 20 48  1  0
 21 49  1  0
 22 50  1  0
 23 51  1  0
 24 52  1  0
 26 53  1  0
 26 54  1  0
 27 55  1  0
 27 56  1  0
 29 57  1  0
 29 58  1  0
 31 59  1  0
 32 60  1  0
 33 61  1  0
 34 62  1  0
 35 63  1  0
 36 64  1  0
 36 65  1  0
 37 66  1  0
 37 67  1  0
M  CHG  2  11  -1  24   1
M  END
>  <UniqueID>  (60) 
56

>  <SMILES>  (60) 
CC1(Cn2cc(-c3ccc([N-]S(=O)(=O)c4ccc(Cl)cc4)cc3)[nH+]n2)CCN(Cc2ccccc2)CC1

>  <Energy>  (60) 
124.36258976569623

>  <Genealogy>  (60) 
CC1(Cn2cc(-c3ccc([N-]S(=O)(=O)c4ccc(Cl)cc4)cc3)[nH+]n2)CCN(Cc2ccccc2)CC1 (protonated)
CC1(Cn2cc(-c3ccc([N-]S(=O)(=O)c4ccc(Cl)cc4)cc3)[nH+]n2)CCN(Cc2ccccc2)CC1 (3D coordinates assigned)
CC1(Cn2cc(-c3ccc([N-]S(=O)(=O)c4ccc(Cl)cc4)cc3)[nH+]n2)CCN(Cc2ccccc2)CC1 (nonaromatic ring conformer: 124.36258976569623 kcal/mol)

>  <smiles>  (60) 
CC1(Cn2cc(-c3ccc(NS(=O)(=O)c4ccc(Cl)cc4)cc3)nn2)CCN(Cc2ccccc2)CC1

>  <score_type>  (60) 
oracle

>  <origin>  (60) 
adg

>  <m_score__min__energy>  (60) 
-11.449999999999999

>  <m_primary>  (60) 
energy

$$$$
60:0
     RDKit          3D

 41 42  0  0  0  0  0  0  0  0999 V2000
   57.8980   32.8310   45.7100 C   0  0  0  0  0  0  0  0  0  0  0  0
   57.8370   31.3480   45.5070 C   0  0  0  0  0  0  0  0  0  0  0  0
   56.6630   30.8080   45.1880 O   0  0  0  0  0  0  0  0  0  0  0  0
   56.4920   29.5060   44.9910 C   0  0  0  0  0  0  0  0  0  0  0  0
   55.2230   29.0320   44.6710 O   0  0  0  0  0  0  0  0  0  0  0  0
   57.5750   28.6180   45.1050 C   0  0  0  0  0  0  0  0  0  0  0  0
   57.3740   27.1320   44.9170 C   0  0  0  0  0  0  0  0  0  0  0  0
   56.8600   26.4950   46.1720 C   0  0  0  0  0  0  0  0  0  0  0  0
   57.6180   26.3550   47.1690 O   0  0  0  0  0  0  0  0  0  0  0  0
   55.5230   25.9860   46.2020 N   0  0  0  0  0  0  0  0  0  0  0  0
   55.1910   24.5640   46.1770 C   0  0  0  0  0  0  0  0  0  0  0  0
   55.5570   23.9650   44.7980 C   0  0  0  0  0  0  0  0  0  0  0  0
   55.9600   22.4780   44.8350 C   0  0  0  0  0  0  0  0  0  0  0  0
   54.9350   21.6250   45.6020 C   0  0  0  0  0  0  0  0  0  0  0  0
   55.2900   21.4210   47.0820 C   0  0  0  0  0  0  0  0  0  0  0  0
   55.0870   22.6780   47.9440 C   0  0  0  0  0  0  0  0  0  0  0  0
   55.8580   23.8890   47.3930 C   0  0  0  0  0  0  0  0  0  0  0  0
   58.8320   29.1480   45.4500 C   0  0  0  0  0  0  0  0  0  0  0  0
   59.8240   28.3820   45.5970 O   0  0  0  0  0  0  0  0  0  0  0  0
   58.9780   30.5310   45.6460 C   0  0  0  0  0  0  0  0  0  0  0  0
   60.2600   31.0830   45.9850 N   0  0  0  0  0  0  0  0  0  0  0  0
   57.9072   33.0536   46.7872 H   0  0  0  0  0  0  0  0  0  0  0  0
   58.8132   33.2273   45.2459 H   0  0  0  0  0  0  0  0  0  0  0  0
   57.0184   33.3011   45.2459 H   0  0  0  0  0  0  0  0  0  0  0  0
   56.6483   26.9671   44.1070 H   0  0  0  0  0  0  0  0  0  0  0  0
   58.3434   26.6770   44.6655 H   0  0  0  0  0  0  0  0  0  0  0  0
   54.1107   24.3845   46.2803 H   0  0  0  0  0  0  0  0  0  0  0  0
   54.6847   24.0684   44.1358 H   0  0  0  0  0  0  0  0  0  0  0  0
   56.4368   24.5192   44.4392 H   0  0  0  0  0  0  0  0  0  0  0  0
   56.0333   22.1036   43.8033 H   0  0  0  0  0  0  0  0  0  0  0  0
   56.9262   22.3994   45.3549 H   0  0  0  0  0  0  0  0  0  0  0  0
   53.9558   22.1228   45.5446 H   0  0  0  0  0  0  0  0  0  0  0  0
   54.9267   20.6305   45.1321 H   0  0  0  0  0  0  0  0  0  0  0  0
   54.6552   20.6177   47.4841 H   0  0  0  0  0  0  0  0  0  0  0  0
   56.3603   21.1706   47.1249 H   0  0  0  0  0  0  0  0  0  0  0  0
   54.0146   22.9217   47.9685 H   0  0  0  0  0  0  0  0  0  0  0  0
   55.4709   22.4626   48.9521 H   0  0  0  0  0  0  0  0  0  0  0  0
   55.9471   24.6355   48.1960 H   0  0  0  0  0  0  0  0  0  0  0  0
   56.8332   23.5131   47.0500 H   0  0  0  0  0  0  0  0  0  0  0  0
   60.3840   32.1110   46.1190 H   0  0  0  0  0  0  0  0  0  0  0  0
   61.1090   30.4870   46.1020 H   0  0  0  0  0  0  0  0  0  0  0  0
  1  2  1  0
  2  3  1  0
  3  4  1  0
  4  5  1  0
  4  6  2  0
  6  7  1  0
  7  8  1  0
  8  9  2  0
  8 10  1  0
 10 11  1  0
 11 12  1  0
 12 13  1  0
 13 14  1  0
 14 15  1  0
 15 16  1  0
 16 17  1  0
  6 18  1  0
 18 19  2  0
 18 20  1  0
 20 21  1  0
 20  2  2  0
 17 11  1  0
  1 22  1  0
  1 23  1  0
  1 24  1  0
  7 25  1  0
  7 26  1  0
 11 27  1  0
 12 28  1  0
 12 29  1  0
 13 30  1  0
 13 31  1  0
 14 32  1  0
 14 33  1  0
 15 34  1  0
 15 35  1  0
 16 36  1  0
 16 37  1  0
 17 38  1  0
 17 39  1  0
 21 40  1  0
 21 41  1  0
M  CHG  2   5  -1  10  -1
M  END
>  <UniqueID>  (61) 
57

>  <SMILES>  (61) 
Cc1oc([O-])c(CC(=O)[N-]C2CCCCCC2)c(=O)c1N

>  <Energy>  (61) 
41.393857383123425

>  <Genealogy>  (61) 
Cc1oc([O-])c(CC(=O)[N-]C2CCCCCC2)c(=O)c1N (protonated)
Cc1oc([O-])c(CC(=O)[N-]C2CCCCCC2)c(=O)c1N (3D coordinates assigned)
Cc1oc([O-])c(CC(=O)[N-]C2CCCCCC2)c(=O)c1N (nonaromatic ring conformer: 41.393857383123425 kcal/mol)

>  <smiles>  (61) 
Cc1oc(O)c(CC(=O)NC2CCCCCC2)c(=O)c1N

>  <score_type>  (61) 
oracle

>  <origin>  (61) 
adg

>  <m_score__min__energy>  (61) 
-8.4800000000000004

>  <m_primary>  (61) 
energy

$$$$
61:0
     RDKit          3D

 50 53  0  0  0  0  0  0  0  0999 V2000
   54.8320   26.3480   46.0090 N   0  0  0  0  0  0  0  0  0  0  0  0
   56.4960   25.8830   46.0840 S   0  0  0  0  0  0  0  0  0  0  0  0
   56.7130   24.7070   45.1760 O   0  0  0  0  0  0  0  0  0  0  0  0
   56.8490   25.4870   47.4890 O   0  0  0  0  0  0  0  0  0  0  0  0
   57.5090   27.2350   45.5870 C   0  0  0  0  0  0  0  0  0  0  0  0
   58.8920   27.2140   45.8140 C   0  0  0  0  0  0  0  0  0  0  0  0
   59.6820   28.3010   45.4320 C   0  0  0  0  0  0  0  0  0  0  0  0
   59.0950   29.4190   44.8350 C   0  0  0  0  0  0  0  0  0  0  0  0
   57.7090   29.4580   44.6110 C   0  0  0  0  0  0  0  0  0  0  0  0
   57.0690   30.6710   44.0450 C   0  0  0  0  0  0  0  0  0  0  0  0
   56.8720   30.7440   42.8040 O   0  0  0  0  0  0  0  0  0  0  0  0
   56.7130   31.7950   44.8690 N   0  0  0  0  0  0  0  0  0  0  0  0
   57.5070   32.7240   45.3260 C   0  0  0  0  0  0  0  0  0  0  0  0
   58.0790   32.6660   46.6150 C   0  0  0  0  0  0  0  0  0  0  0  0
   58.9700   33.6640   47.0330 C   0  0  0  0  0  0  0  0  0  0  0  0
   59.6360   33.5830   48.3570 C   0  0  0  0  0  0  0  0  0  0  0  0
   59.8990   34.6560   48.9650 O   0  0  0  0  0  0  0  0  0  0  0  0
   59.9490   32.2980   48.9640 N   0  0  1  0  0  0  0  0  0  0  0  0
   60.5880   31.3520   48.0240 C   0  0  0  0  0  0  0  0  0  0  0  0
   62.0220   31.7460   47.6250 C   0  0  0  0  0  0  0  0  0  0  0  0
   62.8120   32.3440   48.7580 C   0  0  0  0  0  0  0  0  0  0  0  0
   64.1860   32.5790   48.5800 C   0  0  0  0  0  0  0  0  0  0  0  0
   64.9370   33.1810   49.5930 C   0  0  0  0  0  0  0  0  0  0  0  0
   64.3230   33.5580   50.7880 C   0  0  0  0  0  0  0  0  0  0  0  0
   62.9570   33.3350   50.9740 C   0  0  0  0  0  0  0  0  0  0  0  0
   62.1880   32.7470   49.9560 C   0  0  0  0  0  0  0  0  0  0  0  0
   60.7290   32.4550   50.2090 C   0  0  0  0  0  0  0  0  0  0  0  0
   59.2160   34.7520   46.1840 C   0  0  0  0  0  0  0  0  0  0  0  0
   58.5970   34.8040   44.9340 C   0  0  0  0  0  0  0  0  0  0  0  0
   57.7720   33.8000   44.5370 N   0  0  0  0  0  0  0  0  0  0  0  0
   56.9230   28.3520   44.9770 C   0  0  0  0  0  0  0  0  0  0  0  0
   54.6870   27.0900   46.7300 H   0  0  0  0  0  0  0  0  0  0  0  0
   59.3562   26.3398   46.2939 H   0  0  0  0  0  0  0  0  0  0  0  0
   60.7685   28.2764   45.6017 H   0  0  0  0  0  0  0  0  0  0  0  0
   59.7214   30.2733   44.5387 H   0  0  0  0  0  0  0  0  0  0  0  0
   57.8254   31.8370   47.2920 H   0  0  0  0  0  0  0  0  0  0  0  0
   59.0470   31.8400   49.2330 H   0  0  0  0  0  0  0  0  0  0  0  0
   60.6201   30.3601   48.4984 H   0  0  0  0  0  0  0  0  0  0  0  0
   59.9859   31.3590   47.1035 H   0  0  0  0  0  0  0  0  0  0  0  0
   62.5458   30.8458   47.2711 H   0  0  0  0  0  0  0  0  0  0  0  0
   61.9429   32.5143   46.8418 H   0  0  0  0  0  0  0  0  0  0  0  0
   64.6731   32.2874   47.6378 H   0  0  0  0  0  0  0  0  0  0  0  0
   66.0130   33.3578   49.4483 H   0  0  0  0  0  0  0  0  0  0  0  0
   64.9157   34.0315   51.5846 H   0  0  0  0  0  0  0  0  0  0  0  0
   62.4804   33.6214   51.9231 H   0  0  0  0  0  0  0  0  0  0  0  0
   60.6531   31.5242   50.7903 H   0  0  0  0  0  0  0  0  0  0  0  0
   60.3105   33.3138   50.7542 H   0  0  0  0  0  0  0  0  0  0  0  0
   59.8924   35.5595   46.5008 H   0  0  0  0  0  0  0  0  0  0  0  0
   58.7777   35.6607   44.2681 H   0  0  0  0  0  0  0  0  0  0  0  0
   55.8403   28.3633   44.7832 H   0  0  0  0  0  0  0  0  0  0  0  0
  1  2  1  0
  2  3  2  0
  2  4  2  0
  2  5  1  0
  5  6  2  0
  6  7  1  0
  7  8  2  0
  8  9  1  0
  9 10  1  0
 10 11  2  0
 10 12  1  0
 12 13  2  3
 13 14  1  0
 14 15  2  0
 15 16  1  0
 16 17  2  0
 16 18  1  0
 18 19  1  0
 19 20  1  0
 20 21  1  0
 21 22  2  0
 22 23  1  0
 23 24  2  0
 24 25  1  0
 25 26  2  0
 26 27  1  0
 15 28  1  0
 28 29  2  0
 29 30  1  0
  9 31  2  0
 31  5  1  0
 30 13  1  0
 27 18  1  0
 26 21  1  0
  1 32  1  0
  6 33  1  0
  7 34  1  0
  8 35  1  0
 14 36  1  0
 18 37  1  1
 19 38  1  0
 19 39  1  0
 20 40  1  0
 20 41  1  0
 22 42  1  0
 23 43  1  0
 24 44  1  0
 25 45  1  0
 27 46  1  0
 27 47  1  0
 28 48  1  0
 29 49  1  0
 31 50  1  0
M  CHG  3   1  -1  18   1  30  -1
M  END
>  <UniqueID>  (62) 
58

>  <SMILES>  (62) 
[NH-]S(=O)(=O)c1cccc(C(=O)N=c2cc(C(=O)[N@H+]3CCc4ccccc4C3)cc[n-]2)c1

>  <Energy>  (62) 
75.2157829238202

>  <Genealogy>  (62) 
[NH-]S(=O)(=O)c1cccc(C(=O)N=c2cc(C(=O)[NH+]3CCc4ccccc4C3)cc[n-]2)c1 (protonated)
[NH-]S(=O)(=O)c1cccc(C(=O)N=c2cc(C(=O)[N@H+]3CCc4ccccc4C3)cc[n-]2)c1 (chirality)
[NH-]S(=O)(=O)c1cccc(C(=O)N=c2cc(C(=O)[N@H+]3CCc4ccccc4C3)cc[n-]2)c1 (3D coordinates assigned)
[NH-]S(=O)(=O)c1cccc(C(=O)N=c2cc(C(=O)[N@H+]3CCc4ccccc4C3)cc[n-]2)c1 (nonaromatic ring conformer: 75.2157829238202 kcal/mol)

>  <smiles>  (62) 
NS(=O)(=O)c1cccc(C(=O)N=c2cc(C(=O)N3CCc4ccccc4C3)cc[nH]2)c1

>  <score_type>  (62) 
oracle

>  <origin>  (62) 
adg

>  <m_score__min__energy>  (62) 
-13.029999999999999

>  <m_primary>  (62) 
energy

$$$$
62:0
     RDKit          3D

 49 52  0  0  0  0  0  0  0  0999 V2000
   57.8210   29.6970   51.5920 O   0  0  0  0  0  0  0  0  0  0  0  0
   57.5750   30.9180   51.3910 C   0  0  0  0  0  0  0  0  0  0  0  0
   56.4480   31.5310   52.0410 N   0  0  0  0  0  0  0  0  0  0  0  0
   55.6160   30.8140   53.0050 C   0  0  0  0  0  0  0  0  0  0  0  0
   54.2470   30.5480   52.4260 C   0  0  0  0  0  0  0  0  0  0  0  0
   53.6220   31.5350   51.6450 C   0  0  0  0  0  0  0  0  0  0  0  0
   52.3470   31.3190   51.1150 C   0  0  0  0  0  0  0  0  0  0  0  0
   51.6820   30.1160   51.3600 C   0  0  0  0  0  0  0  0  0  0  0  0
   52.2910   29.1270   52.1370 C   0  0  0  0  0  0  0  0  0  0  0  0
   53.5680   29.3340   52.6720 C   0  0  0  0  0  0  0  0  0  0  0  0
   54.2840   28.0510   53.6430 Cl  0  0  0  0  0  0  0  0  0  0  0  0
   58.4460   31.6900   50.4740 C   0  0  0  0  0  0  0  0  0  0  0  0
   58.8180   33.0060   50.8020 C   0  0  0  0  0  0  0  0  0  0  0  0
   59.6290   33.7490   49.9420 C   0  0  0  0  0  0  0  0  0  0  0  0
   60.0800   33.1890   48.7450 C   0  0  0  0  0  0  0  0  0  0  0  0
   59.7240   31.8740   48.4020 C   0  0  0  0  0  0  0  0  0  0  0  0
   60.1340   31.2870   47.1950 O   0  0  0  0  0  0  0  0  0  0  0  0
   59.4670   30.2510   46.5270 C   0  0  0  0  0  0  0  0  0  0  0  0
   59.7300   28.9290   46.9000 C   0  0  0  0  0  0  0  0  0  0  0  0
   59.0950   27.8680   46.2490 C   0  0  0  0  0  0  0  0  0  0  0  0
   58.1980   28.1180   45.1980 C   0  0  0  0  0  0  0  0  0  0  0  0
   57.4820   26.9810   44.5230 C   0  0  0  0  0  0  0  0  0  0  0  0
   57.1070   25.9380   45.5300 C   0  0  0  0  0  0  0  0  0  0  0  0
   58.0780   24.6370   45.9840 S   0  0  0  0  0  0  0  0  0  0  0  0
   56.8920   24.0000   46.9920 C   0  0  0  0  0  0  0  0  0  0  0  0
   57.0290   22.9500   47.6720 O   0  0  0  0  0  0  0  0  0  0  0  0
   55.7610   24.7350   46.9940 N   0  0  0  0  0  0  0  0  0  0  0  0
   55.8790   25.8120   46.1740 C   0  0  0  0  0  0  0  0  0  0  0  0
   54.8360   26.7130   45.9980 O   0  0  0  0  0  0  0  0  0  0  0  0
   57.9400   29.4430   44.8150 C   0  0  0  0  0  0  0  0  0  0  0  0
   58.5760   30.5030   45.4670 C   0  0  0  0  0  0  0  0  0  0  0  0
   58.8940   31.1400   49.2580 C   0  0  0  0  0  0  0  0  0  0  0  0
   56.1740   32.5080   51.7960 H   0  0  0  0  0  0  0  0  0  0  0  0
   56.0956   29.8563   53.2556 H   0  0  0  0  0  0  0  0  0  0  0  0
   55.5066   31.4308   53.9092 H   0  0  0  0  0  0  0  0  0  0  0  0
   54.1404   32.4852   51.4492 H   0  0  0  0  0  0  0  0  0  0  0  0
   51.8668   32.0976   50.5041 H   0  0  0  0  0  0  0  0  0  0  0  0
   50.6789   29.9468   50.9415 H   0  0  0  0  0  0  0  0  0  0  0  0
   51.7641   28.1807   52.3293 H   0  0  0  0  0  0  0  0  0  0  0  0
   58.4672   33.4535   51.7436 H   0  0  0  0  0  0  0  0  0  0  0  0
   59.9133   34.7778   50.2080 H   0  0  0  0  0  0  0  0  0  0  0  0
   60.7158   33.7792   48.0687 H   0  0  0  0  0  0  0  0  0  0  0  0
   60.4424   28.7228   47.7123 H   0  0  0  0  0  0  0  0  0  0  0  0
   59.2986   26.8330   46.5611 H   0  0  0  0  0  0  0  0  0  0  0  0
   56.5714   27.3617   44.0374 H   0  0  0  0  0  0  0  0  0  0  0  0
   58.1478   26.5323   43.7711 H   0  0  0  0  0  0  0  0  0  0  0  0
   57.2335   29.6485   43.9973 H   0  0  0  0  0  0  0  0  0  0  0  0
   58.3795   31.5380   45.1506 H   0  0  0  0  0  0  0  0  0  0  0  0
   58.5883   30.1214   48.9770 H   0  0  0  0  0  0  0  0  0  0  0  0
  1  2  2  0
  2  3  1  0
  3  4  1  0
  4  5  1  0
  5  6  2  0
  6  7  1  0
  7  8  2  0
  8  9  1  0
  9 10  2  0
 10 11  1  0
  2 12  1  0
 12 13  2  0
 13 14  1  0
 14 15  2  0
 15 16  1  0
 16 17  1  0
 17 18  1  0
 18 19  2  0
 19 20  1  0
 20 21  2  0
 21 22  1  0
 22 23  1  0
 23 24  1  0
 24 25  1  0
 25 26  2  0
 25 27  1  0
 27 28  1  0
 28 29  1  0
 21 30  1  0
 30 31  2  0
 16 32  2  0
 10  5  1  0
 32 12  1  0
 31 18  1  0
 28 23  2  0
  3 33  1  0
  4 34  1  0
  4 35  1  0
  6 36  1  0
  7 37  1  0
  8 38  1  0
  9 39  1  0
 13 40  1  0
 14 41  1  0
 15 42  1  0
 19 43  1  0
 20 44  1  0
 22 45  1  0
 22 46  1  0
 30 47  1  0
 31 48  1  0
 32 49  1  0
M  CHG  2  27  -1  29  -1
M  END
>  <UniqueID>  (63) 
59

>  <SMILES>  (63) 
O=C(NCc1ccccc1Cl)c1cccc(Oc2ccc(Cc3sc(=O)[n-]c3[O-])cc2)c1

>  <Energy>  (63) 
90.62979675967028

>  <Genealogy>  (63) 
O=C(NCc1ccccc1Cl)c1cccc(Oc2ccc(Cc3sc(=O)[n-]c3[O-])cc2)c1 (protonated)
O=C(NCc1ccccc1Cl)c1cccc(Oc2ccc(Cc3sc(=O)[n-]c3[O-])cc2)c1 (3D coordinates assigned)
O=C(NCc1ccccc1Cl)c1cccc(Oc2ccc(Cc3sc(=O)[n-]c3[O-])cc2)c1 (optimized conformer: 90.62979675967028 kcal/mol)

>  <smiles>  (63) 
O=C(NCc1ccccc1Cl)c1cccc(Oc2ccc(Cc3sc(=O)[nH]c3O)cc2)c1

>  <score_type>  (63) 
oracle

>  <origin>  (63) 
adg

>  <m_score__min__energy>  (63) 
-16.43

>  <m_primary>  (63) 
energy

$$$$
63:0
     RDKit          3D

 38 39  0  0  0  0  0  0  0  0999 V2000
   60.6480   31.3030   47.6930 C   0  0  0  0  0  0  0  0  0  0  0  0
   59.2650   31.1150   48.3020 C   0  0  0  0  0  0  0  0  0  0  0  0
   58.3160   31.9730   47.6710 O   0  0  0  0  0  0  0  0  0  0  0  0
   58.6690   33.0840   46.8940 C   0  0  0  0  0  0  0  0  0  0  0  0
   59.2240   34.1870   47.4710 N   0  0  0  0  0  0  0  0  0  0  0  0
   59.6130   35.2650   46.7390 C   0  0  0  0  0  0  0  0  0  0  0  0
   59.4540   35.2610   45.3530 C   0  0  0  0  0  0  0  0  0  0  0  0
   58.8910   34.1460   44.7320 C   0  0  0  0  0  0  0  0  0  0  0  0
   58.4880   33.0470   45.5010 C   0  0  0  0  0  0  0  0  0  0  0  0
   57.9330   31.8500   44.8470 C   0  0  0  0  0  0  0  0  0  0  0  0
   56.7020   31.6080   44.9500 O   0  0  0  0  0  0  0  0  0  0  0  0
   58.7700   30.9310   44.1310 N   0  0  0  0  0  0  0  0  0  0  0  0
   59.5860   29.8880   44.7490 C   0  0  0  0  0  0  0  0  0  0  0  0
   58.7450   28.6900   45.1040 C   0  0  0  0  0  0  0  0  0  0  0  0
   58.1820   28.5690   46.3860 C   0  0  0  0  0  0  0  0  0  0  0  0
   57.3280   27.5040   46.6850 C   0  0  0  0  0  0  0  0  0  0  0  0
   57.0300   26.5440   45.7080 C   0  0  0  0  0  0  0  0  0  0  0  0
   55.9280   25.2220   46.0740 S   0  0  0  0  0  0  0  0  0  0  0  0
   54.2910   25.7620   45.9450 N   0  0  0  0  0  0  0  0  0  0  0  0
   56.1840   24.7300   47.4700 O   0  0  0  0  0  0  0  0  0  0  0  0
   56.1420   24.0970   45.1000 O   0  0  0  0  0  0  0  0  0  0  0  0
   57.6190   26.6400   44.4410 C   0  0  0  0  0  0  0  0  0  0  0  0
   58.4730   27.7050   44.1410 C   0  0  0  0  0  0  0  0  0  0  0  0
   61.3920   31.4041   48.4969 H   0  0  0  0  0  0  0  0  0  0  0  0
   60.8965   30.4304   47.0711 H   0  0  0  0  0  0  0  0  0  0  0  0
   60.6545   32.2103   47.0711 H   0  0  0  0  0  0  0  0  0  0  0  0
   58.9509   30.0692   48.1690 H   0  0  0  0  0  0  0  0  0  0  0  0
   59.3124   31.3658   49.3720 H   0  0  0  0  0  0  0  0  0  0  0  0
   60.0530   36.1401   47.2397 H   0  0  0  0  0  0  0  0  0  0  0  0
   59.7696   36.1290   44.7555 H   0  0  0  0  0  0  0  0  0  0  0  0
   58.7637   34.1299   43.6395 H   0  0  0  0  0  0  0  0  0  0  0  0
   60.3723   29.5803   44.0440 H   0  0  0  0  0  0  0  0  0  0  0  0
   60.0331   30.2900   45.6702 H   0  0  0  0  0  0  0  0  0  0  0  0
   58.4149   29.3168   47.1584 H   0  0  0  0  0  0  0  0  0  0  0  0
   56.8884   27.4188   47.6898 H   0  0  0  0  0  0  0  0  0  0  0  0
   54.2470   26.7140   46.3710 H   0  0  0  0  0  0  0  0  0  0  0  0
   57.4088   25.8746   43.6794 H   0  0  0  0  0  0  0  0  0  0  0  0
   58.9347   27.7719   43.1448 H   0  0  0  0  0  0  0  0  0  0  0  0
  1  2  1  0
  2  3  1  0
  3  4  1  0
  4  5  2  0
  5  6  1  0
  6  7  2  0
  7  8  1  0
  8  9  2  0
  9 10  1  0
 10 11  2  0
 10 12  1  0
 12 13  1  0
 13 14  1  0
 14 15  2  0
 15 16  1  0
 16 17  2  0
 17 18  1  0
 18 19  1  0
 18 20  2  0
 18 21  2  0
 17 22  1  0
 22 23  2  0
  9  4  1  0
 23 14  1  0
  1 24  1  0
  1 25  1  0
  1 26  1  0
  2 27  1  0
  2 28  1  0
  6 29  1  0
  7 30  1  0
  8 31  1  0
 13 32  1  0
 13 33  1  0
 15 34  1  0
 16 35  1  0
 19 36  1  0
 22 37  1  0
 23 38  1  0
M  CHG  2  12  -1  19  -1
M  END
>  <UniqueID>  (64) 
60

>  <SMILES>  (64) 
CCOc1ncccc1C(=O)[N-]Cc1ccc(S([NH-])(=O)=O)cc1

>  <Energy>  (64) 
35.62302516075519

>  <Genealogy>  (64) 
CCOc1ncccc1C(=O)[N-]Cc1ccc(S([NH-])(=O)=O)cc1 (protonated)
CCOc1ncccc1C(=O)[N-]Cc1ccc(S([NH-])(=O)=O)cc1 (3D coordinates assigned)
CCOc1ncccc1C(=O)[N-]Cc1ccc(S([NH-])(=O)=O)cc1 (optimized conformer: 35.62302516075519 kcal/mol)

>  <smiles>  (64) 
CCOc1ncccc1C(=O)NCc1ccc(S(N)(=O)=O)cc1

>  <score_type>  (64) 
oracle

>  <origin>  (64) 
adg

>  <m_score__min__energy>  (64) 
-11.289999999999999

>  <m_primary>  (64) 
energy

$$$$
64:0
     RDKit          3D

 46 48  0  0  0  0  0  0  0  0999 V2000
   56.4560   31.7236   43.8729 H   0  0  0  0  0  0  0  0  0  0  0  0
   57.1880   31.5390   44.6730 C   0  0  0  0  0  0  0  0  0  0  0  0
   57.5050   30.2280   45.0340 C   0  0  0  0  0  0  0  0  0  0  0  0
   57.0342   29.3852   44.5066 H   0  0  0  0  0  0  0  0  0  0  0  0
   58.4210   29.9820   46.0660 C   0  0  0  0  0  0  0  0  0  0  0  0
   58.7880   28.6470   46.4400 N   0  0  0  0  0  0  0  0  0  0  0  0
   59.2990   28.2200   47.7100 C   0  0  0  0  0  0  0  0  0  0  0  0
   59.1330   27.0200   48.0550 O   0  0  0  0  0  0  0  0  0  0  0  0
   60.1210   29.1220   48.5880 C   0  0  0  0  0  0  0  0  0  0  0  0
   59.7559   30.1544   48.4835 H   0  0  0  0  0  0  0  0  0  0  0  0
   61.1729   29.0488   48.2746 H   0  0  0  0  0  0  0  0  0  0  0  0
   60.0040   28.6230   50.3430 S   0  0  0  0  0  0  0  0  0  0  0  0
   59.0850   30.0690   50.8660 C   0  0  0  0  0  0  0  0  0  0  0  0
   57.7740   29.9550   51.2000 N   0  0  0  0  0  0  0  0  0  0  0  0
   57.0560   31.0360   51.6040 C   0  0  0  0  0  0  0  0  0  0  0  0
   55.6170   30.8790   51.9820 C   0  0  0  0  0  0  0  0  0  0  0  0
   55.5248   30.8689   53.0781 H   0  0  0  0  0  0  0  0  0  0  0  0
   55.0367   31.7192   51.5729 H   0  0  0  0  0  0  0  0  0  0  0  0
   55.2315   29.9335   51.5729 H   0  0  0  0  0  0  0  0  0  0  0  0
   57.6800   32.2850   51.6940 C   0  0  0  0  0  0  0  0  0  0  0  0
   57.1191   33.1713   52.0255 H   0  0  0  0  0  0  0  0  0  0  0  0
   59.0290   32.3810   51.3540 C   0  0  0  0  0  0  0  0  0  0  0  0
   59.6230   33.4890   51.4210 O   0  0  0  0  0  0  0  0  0  0  0  0
   59.7060   31.2750   50.9480 N   0  0  0  0  0  0  0  0  0  0  0  0
   59.0530   31.0600   46.6950 C   0  0  0  0  0  0  0  0  0  0  0  0
   59.8018   30.8694   47.4779 H   0  0  0  0  0  0  0  0  0  0  0  0
   58.7430   32.3820   46.3390 C   0  0  0  0  0  0  0  0  0  0  0  0
   59.5410   33.7220   47.1730 S   0  0  0  0  0  0  0  0  0  0  0  0
   60.6270   34.2960   46.3070 O   0  0  0  0  0  0  0  0  0  0  0  0
   58.5230   34.7880   47.4640 O   0  0  0  0  0  0  0  0  0  0  0  0
   60.2380   33.1320   48.6510 N   0  0  0  0  0  0  0  0  0  0  0  0
   59.5840   32.8010   49.3940 H   0  0  0  0  0  0  0  0  0  0  0  0
   61.5220   33.0760   48.8650 C   0  0  0  0  0  0  0  0  0  0  0  0
   62.0580   32.7200   50.1230 N   0  0  0  0  0  0  0  0  0  0  0  0
   61.4970   32.5070   50.9760 H   0  0  0  0  0  0  0  0  0  0  0  0
   63.5050   32.7600   50.0810 C   0  0  0  0  0  0  0  0  0  0  0  0
   63.9220   31.7847   50.3724 H   0  0  0  0  0  0  0  0  0  0  0  0
   63.9055   33.5103   50.7786 H   0  0  0  0  0  0  0  0  0  0  0  0
   63.8840   33.0890   48.6250 C   0  0  0  0  0  0  0  0  0  0  0  0
   64.4034   32.2334   48.1687 H   0  0  0  0  0  0  0  0  0  0  0  0
   64.5575   33.9578   48.5848 H   0  0  0  0  0  0  0  0  0  0  0  0
   62.5790   33.3770   47.8670 C   0  0  0  0  0  0  0  0  0  0  0  0
   62.4844   32.7251   46.9860 H   0  0  0  0  0  0  0  0  0  0  0  0
   62.5251   34.4070   47.4847 H   0  0  0  0  0  0  0  0  0  0  0  0
   57.7950   32.6190   45.3220 C   0  0  0  0  0  0  0  0  0  0  0  0
   57.3490   34.2470   44.8240 Cl  0  0  0  0  0  0  0  0  0  0  0  0
  1  2  1  0
  2  3  2  0
  3  4  1  0
  3  5  1  0
  5  6  1  0
  6  7  1  0
  7  8  2  0
  7  9  1  0
  9 10  1  0
  9 11  1  0
  9 12  1  0
 12 13  1  0
 13 14  2  0
 14 15  1  0
 15 16  1  0
 16 17  1  0
 16 18  1  0
 16 19  1  0
 15 20  2  0
 20 21  1  0
 20 22  1  0
 22 23  2  0
 22 24  1  0
  5 25  2  0
 25 26  1  0
 25 27  1  0
 27 28  1  0
 28 29  2  0
 28 30  2  0
 28 31  1  0
 31 32  1  0
 31 33  2  0
 33 34  1  0
 34 35  1  0
 34 36  1  0
 36 37  1  0
 36 38  1  0
 36 39  1  0
 39 40  1  0
 39 41  1  0
 39 42  1  0
 42 43  1  0
 42 44  1  0
 27 45  2  0
 45 46  1  0
 45  2  1  0
 24 13  1  0
 42 33  1  0
M  CHG  3   6  -1  24  -1  31   1
M  END
>  <UniqueID>  (65) 
61

>  <SMILES>  (65) 
Cc1cc(=O)[n-]c(SCC(=O)[N-]c2ccc(Cl)c(S(=O)(=O)/[NH+]=C3\CCCN3)c2)n1

>  <Energy>  (65) 
58.21213345324102

>  <Genealogy>  (65) 
Cc1cc(=O)[n-]c(SCC(=O)[N-]c2ccc(Cl)c(S(=O)(=O)[NH+]=C3CCCN3)c2)n1 (protonated)
Cc1cc(=O)[n-]c(SCC(=O)[N-]c2ccc(Cl)c(S(=O)(=O)/[NH+]=C3\CCCN3)c2)n1 (cis-trans isomerization)
Cc1cc(=O)[n-]c(SCC(=O)[N-]c2ccc(Cl)c(S(=O)(=O)/[NH+]=C3\CCCN3)c2)n1 (3D coordinates assigned)
Cc1cc(=O)[n-]c(SCC(=O)[N-]c2ccc(Cl)c(S(=O)(=O)/[NH+]=C3\CCCN3)c2)n1 (nonaromatic ring conformer: 58.21213345324102 kcal/mol)

>  <smiles>  (65) 
Cc1cc(=O)[nH]c(SCC(=O)Nc2ccc(Cl)c(S(=O)(=O)N=C3CCCN3)c2)n1

>  <score_type>  (65) 
oracle

>  <origin>  (65) 
adg

>  <m_score__min__energy>  (65) 
-11.27

>  <m_primary>  (65) 
energy

$$$$
65:0
     RDKit          3D

 48 50  0  0  0  0  0  0  0  0999 V2000
   59.6780   33.8240   51.0450 C   0  0  0  0  0  0  0  0  0  0  0  0
   60.0420   32.4820   50.4740 C   0  0  0  0  0  0  0  0  0  0  0  0
   61.0240   31.6950   51.0970 C   0  0  0  0  0  0  0  0  0  0  0  0
   61.3410   30.4300   50.5880 C   0  0  0  0  0  0  0  0  0  0  0  0
   62.3440   29.6260   51.2350 C   0  0  0  0  0  0  0  0  0  0  0  0
   63.1490   28.9760   51.7540 N   0  0  0  0  0  0  0  0  0  0  0  0
   60.6720   29.9410   49.4630 C   0  0  0  0  0  0  0  0  0  0  0  0
   59.6780   30.7070   48.8400 C   0  0  0  0  0  0  0  0  0  0  0  0
   58.9300   30.1440   47.6630 C   0  0  0  0  0  0  0  0  0  0  0  0
   59.3560   31.9800   49.3540 C   0  0  0  0  0  0  0  0  0  0  0  0
   58.3590   32.7540   48.7480 O   0  0  0  0  0  0  0  0  0  0  0  0
   58.5160   33.3820   47.5050 C   0  0  0  0  0  0  0  0  0  0  0  0
   59.3980   34.4570   47.4020 C   0  0  0  0  0  0  0  0  0  0  0  0
   59.5850   35.0810   46.1670 C   0  0  0  0  0  0  0  0  0  0  0  0
   58.9130   34.6420   45.0680 N   0  0  0  0  0  0  0  0  0  0  0  0
   58.0350   33.5960   45.1280 C   0  0  0  0  0  0  0  0  0  0  0  0
   57.4450   33.2080   44.0310 N   0  0  0  0  0  0  0  0  0  0  0  0
   57.8290   32.0810   43.1740 C   0  0  0  0  0  0  0  0  0  0  0  0
   57.6080   30.7630   43.8770 C   0  0  0  0  0  0  0  0  0  0  0  0
   56.3140   30.3660   44.2470 C   0  0  0  0  0  0  0  0  0  0  0  0
   56.1050   29.1280   44.8580 C   0  0  0  0  0  0  0  0  0  0  0  0
   57.1880   28.2800   45.1320 C   0  0  0  0  0  0  0  0  0  0  0  0
   56.9140   26.7150   45.8980 S   0  0  0  0  0  0  0  0  0  0  0  0
   55.2190   26.4160   46.0700 N   0  0  0  0  0  0  0  0  0  0  0  0
   57.5310   25.6280   45.0640 O   0  0  0  0  0  0  0  0  0  0  0  0
   57.5330   26.7090   47.2670 O   0  0  0  0  0  0  0  0  0  0  0  0
   58.4870   28.6860   44.7890 C   0  0  0  0  0  0  0  0  0  0  0  0
   59.5520   27.8870   45.0490 F   0  0  0  0  0  0  0  0  0  0  0  0
   58.6960   29.9220   44.1690 C   0  0  0  0  0  0  0  0  0  0  0  0
   57.8100   32.9650   46.3660 C   0  0  0  0  0  0  0  0  0  0  0  0
   59.6923   33.7711   52.1436 H   0  0  0  0  0  0  0  0  0  0  0  0
   60.4045   34.5766   50.7046 H   0  0  0  0  0  0  0  0  0  0  0  0
   58.6708   34.1064   50.7046 H   0  0  0  0  0  0  0  0  0  0  0  0
   61.5460   32.0738   51.9881 H   0  0  0  0  0  0  0  0  0  0  0  0
   60.9274   28.9483   49.0639 H   0  0  0  0  0  0  0  0  0  0  0  0
   58.0992   29.5186   48.0216 H   0  0  0  0  0  0  0  0  0  0  0  0
   58.5318   30.9684   47.0532 H   0  0  0  0  0  0  0  0  0  0  0  0
   59.6120   29.5332   47.0532 H   0  0  0  0  0  0  0  0  0  0  0  0
   59.9436   34.8116   48.2889 H   0  0  0  0  0  0  0  0  0  0  0  0
   60.2782   35.9308   46.0820 H   0  0  0  0  0  0  0  0  0  0  0  0
   59.0830   35.1190   44.1580 H   0  0  0  0  0  0  0  0  0  0  0  0
   57.2229   32.1047   42.2564 H   0  0  0  0  0  0  0  0  0  0  0  0
   58.8984   32.1736   42.9337 H   0  0  0  0  0  0  0  0  0  0  0  0
   55.4606   31.0329   44.0549 H   0  0  0  0  0  0  0  0  0  0  0  0
   55.0848   28.8159   45.1261 H   0  0  0  0  0  0  0  0  0  0  0  0
   54.7710   26.6810   45.1660 H   0  0  0  0  0  0  0  0  0  0  0  0
   59.7170   30.2378   43.9085 H   0  0  0  0  0  0  0  0  0  0  0  0
   57.0807   32.1449   46.4407 H   0  0  0  0  0  0  0  0  0  0  0  0
  1  2  1  0
  2  3  2  0
  3  4  1  0
  4  5  1  0
  5  6  3  0
  4  7  2  0
  7  8  1  0
  8  9  1  0
  8 10  2  0
 10 11  1  0
 11 12  1  0
 12 13  1  0
 13 14  2  0
 14 15  1  0
 15 16  1  0
 16 17  2  3
 17 18  1  0
 18 19  1  0
 19 20  2  0
 20 21  1  0
 21 22  2  0
 22 23  1  0
 23 24  1  0
 23 25  2  0
 23 26  2  0
 22 27  1  0
 27 28  1  0
 27 29  2  0
 16 30  1  0
 10  2  1  0
 30 12  2  0
 29 19  1  0
  1 31  1  0
  1 32  1  0
  1 33  1  0
  3 34  1  0
  7 35  1  0
  9 36  1  0
  9 37  1  0
  9 38  1  0
 13 39  1  0
 14 40  1  0
 15 41  1  0
 18 42  1  0
 18 43  1  0
 20 44  1  0
 21 45  1  0
 24 46  1  0
 29 47  1  0
 30 48  1  0
M  CHG  1  24  -1
M  END
>  <UniqueID>  (66) 
62

>  <SMILES>  (66) 
Cc1cc(C#N)cc(C)c1Oc1cc[nH]c(=NCc2ccc(S([NH-])(=O)=O)c(F)c2)c1

>  <Energy>  (66) 
55.481092961868896

>  <Genealogy>  (66) 
Cc1cc(C#N)cc(C)c1Oc1cc[nH]c(=NCc2ccc(S([NH-])(=O)=O)c(F)c2)c1 (protonated)
Cc1cc(C#N)cc(C)c1Oc1cc[nH]c(=NCc2ccc(S([NH-])(=O)=O)c(F)c2)c1 (3D coordinates assigned)
Cc1cc(C#N)cc(C)c1Oc1cc[nH]c(=NCc2ccc(S([NH-])(=O)=O)c(F)c2)c1 (optimized conformer: 55.481092961868896 kcal/mol)

>  <smiles>  (66) 
Cc1cc(C#N)cc(C)c1Oc1cc[nH]c(=NCc2ccc(S(N)(=O)=O)c(F)c2)c1

>  <score_type>  (66) 
oracle

>  <origin>  (66) 
adg

>  <m_score__min__energy>  (66) 
-11.380000000000001

>  <m_primary>  (66) 
energy

$$$$
66:0
     RDKit          3D

 43 45  0  0  0  0  0  0  0  0999 V2000
   61.8150   30.8230   49.3810 C   0  0  0  0  0  0  0  0  0  0  0  0
   61.6010   30.8980   47.9750 O   0  0  0  0  0  0  0  0  0  0  0  0
   60.5270   30.2970   47.3050 C   0  0  0  0  0  0  0  0  0  0  0  0
   59.2210   30.2790   47.8350 C   0  0  0  0  0  0  0  0  0  0  0  0
   58.1890   29.6450   47.1390 C   0  0  0  0  0  0  0  0  0  0  0  0
   58.4400   29.0300   45.9060 C   0  0  0  0  0  0  0  0  0  0  0  0
   57.1240   28.2380   45.0450 S   0  0  0  0  0  0  0  0  0  0  0  0
   57.6520   27.4960   43.8470 O   0  0  0  0  0  0  0  0  0  0  0  0
   56.4720   27.2460   45.9670 O   0  0  0  0  0  0  0  0  0  0  0  0
   55.9380   29.4080   44.5430 N   0  0  0  0  0  0  0  0  0  0  0  0
   56.5130   30.3780   43.6110 C   0  0  0  0  0  0  0  0  0  0  0  0
   57.0130   31.5900   44.3340 C   0  0  0  0  0  0  0  0  0  0  0  0
   58.2060   32.2440   44.0970 C   0  0  0  0  0  0  0  0  0  0  0  0
   58.1910   33.3360   44.8790 N   0  0  0  0  0  0  0  0  0  0  0  0
   59.2250   34.3630   44.9680 C   0  0  0  0  0  0  0  0  0  0  0  0
   59.9180   34.2900   46.2990 C   0  0  0  0  0  0  0  0  0  0  0  0
   59.2250   34.5940   47.4810 C   0  0  0  0  0  0  0  0  0  0  0  0
   59.8810   34.5450   48.7140 C   0  0  0  0  0  0  0  0  0  0  0  0
   61.2250   34.1720   48.7780 C   0  0  0  0  0  0  0  0  0  0  0  0
   61.9180   33.8450   47.6080 C   0  0  0  0  0  0  0  0  0  0  0  0
   63.7510   33.3200   47.6980 Br  0  0  0  0  0  0  0  0  0  0  0  0
   61.2660   33.8990   46.3720 C   0  0  0  0  0  0  0  0  0  0  0  0
   57.0550   33.3420   45.5570 N   0  0  0  0  0  0  0  0  0  0  0  0
   56.3010   32.3000   45.2350 N   0  0  0  0  0  0  0  0  0  0  0  0
   59.7340   29.0640   45.3660 C   0  0  0  0  0  0  0  0  0  0  0  0
   60.7690   29.6900   46.0670 C   0  0  0  0  0  0  0  0  0  0  0  0
   60.9039   31.1423   49.9081 H   0  0  0  0  0  0  0  0  0  0  0  0
   62.0562   29.7868   49.6604 H   0  0  0  0  0  0  0  0  0  0  0  0
   62.6503   31.4820   49.6604 H   0  0  0  0  0  0  0  0  0  0  0  0
   59.0138   30.7656   48.7995 H   0  0  0  0  0  0  0  0  0  0  0  0
   57.1736   29.6287   47.5617 H   0  0  0  0  0  0  0  0  0  0  0  0
   57.3510   29.9082   43.0753 H   0  0  0  0  0  0  0  0  0  0  0  0
   55.7294   30.6909   42.9052 H   0  0  0  0  0  0  0  0  0  0  0  0
   59.0056   31.9339   43.4082 H   0  0  0  0  0  0  0  0  0  0  0  0
   59.9616   34.2069   44.1661 H   0  0  0  0  0  0  0  0  0  0  0  0
   58.7569   35.3527   44.8617 H   0  0  0  0  0  0  0  0  0  0  0  0
   58.1616   34.8719   47.4367 H   0  0  0  0  0  0  0  0  0  0  0  0
   59.3376   34.8007   49.6356 H   0  0  0  0  0  0  0  0  0  0  0  0
   61.7393   34.1353   49.7497 H   0  0  0  0  0  0  0  0  0  0  0  0
   61.8103   33.6344   45.4534 H   0  0  0  0  0  0  0  0  0  0  0  0
   56.7730   34.0780   46.2410 H   0  0  0  0  0  0  0  0  0  0  0  0
   59.9347   28.5977   44.3901 H   0  0  0  0  0  0  0  0  0  0  0  0
   61.7833   29.7057   45.6417 H   0  0  0  0  0  0  0  0  0  0  0  0
  1  2  1  0
  2  3  1  0
  3  4  2  0
  4  5  1  0
  5  6  2  0
  6  7  1  0
  7  8  2  0
  7  9  2  0
  7 10  1  0
 10 11  1  0
 11 12  1  0
 12 13  2  0
 13 14  1  0
 14 15  1  0
 15 16  1  0
 16 17  2  0
 17 18  1  0
 18 19  2  0
 19 20  1  0
 20 21  1  0
 20 22  2  0
 14 23  1  0
 23 24  2  0
  6 25  1  0
 25 26  2  0
 26  3  1  0
 24 12  1  0
 22 16  1  0
  1 27  1  0
  1 28  1  0
  1 29  1  0
  4 30  1  0
  5 31  1  0
 11 32  1  0
 11 33  1  0
 13 34  1  0
 15 35  1  0
 15 36  1  0
 17 37  1  0
 18 38  1  0
 19 39  1  0
 22 40  1  0
 23 41  1  0
 25 42  1  0
 26 43  1  0
M  CHG  2  10  -1  23   1
M  END
>  <UniqueID>  (67) 
63

>  <SMILES>  (67) 
COc1ccc(S(=O)(=O)[N-]Cc2cn(Cc3cccc(Br)c3)[nH+]n2)cc1

>  <Energy>  (67) 
70.05316710594313

>  <Genealogy>  (67) 
COc1ccc(S(=O)(=O)[N-]Cc2cn(Cc3cccc(Br)c3)[nH+]n2)cc1 (protonated)
COc1ccc(S(=O)(=O)[N-]Cc2cn(Cc3cccc(Br)c3)[nH+]n2)cc1 (3D coordinates assigned)
COc1ccc(S(=O)(=O)[N-]Cc2cn(Cc3cccc(Br)c3)[nH+]n2)cc1 (optimized conformer: 70.05316710594313 kcal/mol)

>  <smiles>  (67) 
COc1ccc(S(=O)(=O)NCc2cn(Cc3cccc(Br)c3)nn2)cc1

>  <score_type>  (67) 
oracle

>  <origin>  (67) 
adg

>  <m_score__min__energy>  (67) 
-8.9900000000000002

>  <m_primary>  (67) 
energy

$$$$
67:0
     RDKit          3D

 46 47  0  0  0  0  0  0  0  0999 V2000
   57.2920   25.6980   45.2500 C   0  0  0  0  0  0  0  0  0  0  0  0
   56.2700   26.3830   46.1510 C   0  0  0  0  0  0  0  0  0  0  0  0
   55.9030   27.6910   45.6180 N   0  0  0  0  0  0  0  0  0  0  0  0
   56.8170   28.7870   45.5470 C   0  0  0  0  0  0  0  0  0  0  0  0
   58.0190   28.6060   45.8770 O   0  0  0  0  0  0  0  0  0  0  0  0
   56.3490   30.0560   45.1830 O   0  0  0  0  0  0  0  0  0  0  0  0
   56.9140   30.9180   44.2290 C   0  0  0  0  0  0  0  0  0  0  0  0
   56.7770   30.7030   42.8450 C   0  0  0  0  0  0  0  0  0  0  0  0
   57.3450   31.5960   41.9310 C   0  0  0  0  0  0  0  0  0  0  0  0
   58.0410   32.7160   42.3870 C   0  0  0  0  0  0  0  0  0  0  0  0
   58.1640   32.9540   43.7580 C   0  0  0  0  0  0  0  0  0  0  0  0
   57.5990   32.0640   44.6850 C   0  0  0  0  0  0  0  0  0  0  0  0
   57.7160   32.3280   46.1610 C   0  0  0  0  0  0  0  0  0  0  0  0
   58.9260   33.0390   46.4130 O   0  0  0  0  0  0  0  0  0  0  0  0
   60.0520   32.4460   46.9870 C   0  0  0  0  0  0  0  0  0  0  0  0
   61.2820   33.0920   46.9040 C   0  0  0  0  0  0  0  0  0  0  0  0
   62.3960   32.4930   47.4970 C   0  0  0  0  0  0  0  0  0  0  0  0
   63.7240   33.1930   47.4730 C   0  0  0  0  0  0  0  0  0  0  0  0
   62.2580   31.3080   48.1580 N   0  0  0  0  0  0  0  0  0  0  0  0
   61.0440   30.6770   48.2260 C   0  0  0  0  0  0  0  0  0  0  0  0
   60.8870   29.4150   48.9150 N   0  0  0  0  0  0  0  0  0  0  0  0
   60.3610   28.2320   48.2240 C   0  0  0  0  0  0  0  0  0  0  0  0
   61.2560   29.3250   50.3330 C   0  0  0  0  0  0  0  0  0  0  0  0
   59.9610   31.2580   47.6400 N   0  0  0  0  0  0  0  0  0  0  0  0
   58.0467   25.1921   45.8701 H   0  0  0  0  0  0  0  0  0  0  0  0
   56.7832   24.9578   44.6150 H   0  0  0  0  0  0  0  0  0  0  0  0
   57.7833   26.4499   44.6150 H   0  0  0  0  0  0  0  0  0  0  0  0
   55.3693   25.7550   46.2171 H   0  0  0  0  0  0  0  0  0  0  0  0
   56.7150   26.5207   47.1475 H   0  0  0  0  0  0  0  0  0  0  0  0
   56.2199   29.8275   42.4801 H   0  0  0  0  0  0  0  0  0  0  0  0
   57.2429   31.4152   40.8508 H   0  0  0  0  0  0  0  0  0  0  0  0
   58.4935   33.4126   41.6659 H   0  0  0  0  0  0  0  0  0  0  0  0
   58.7061   33.8429   44.1128 H   0  0  0  0  0  0  0  0  0  0  0  0
   56.8585   32.9296   46.4968 H   0  0  0  0  0  0  0  0  0  0  0  0
   57.7256   31.3740   46.7086 H   0  0  0  0  0  0  0  0  0  0  0  0
   61.3751   34.0555   46.3816 H   0  0  0  0  0  0  0  0  0  0  0  0
   64.0630   33.3717   48.5041 H   0  0  0  0  0  0  0  0  0  0  0  0
   64.4598   32.5656   46.9487 H   0  0  0  0  0  0  0  0  0  0  0  0
   63.6222   34.1546   46.9487 H   0  0  0  0  0  0  0  0  0  0  0  0
   63.0990   30.8930   48.6130 H   0  0  0  0  0  0  0  0  0  0  0  0
   60.0312   27.4902   48.9663 H   0  0  0  0  0  0  0  0  0  0  0  0
   59.5081   28.5244   47.5939 H   0  0  0  0  0  0  0  0  0  0  0  0
   61.1495   27.7946   47.5939 H   0  0  0  0  0  0  0  0  0  0  0  0
   60.3749   29.5399   50.9555 H   0  0  0  0  0  0  0  0  0  0  0  0
   61.6220   28.3113   50.5530 H   0  0  0  0  0  0  0  0  0  0  0  0
   62.0476   30.0564   50.5530 H   0  0  0  0  0  0  0  0  0  0  0  0
  1  2  1  0
  2  3  1  0
  3  4  1  0
  4  5  2  0
  4  6  1  0
  6  7  1  0
  7  8  2  0
  8  9  1  0
  9 10  2  0
 10 11  1  0
 11 12  2  0
 12 13  1  0
 13 14  1  0
 14 15  1  0
 15 16  2  0
 16 17  1  0
 17 18  1  0
 17 19  2  0
 19 20  1  0
 20 21  1  0
 21 22  1  0
 21 23  1  0
 20 24  2  0
 12  7  1  0
 24 15  1  0
  1 25  1  0
  1 26  1  0
  1 27  1  0
  2 28  1  0
  2 29  1  0
  8 30  1  0
  9 31  1  0
 10 32  1  0
 11 33  1  0
 13 34  1  0
 13 35  1  0
 16 36  1  0
 18 37  1  0
 18 38  1  0
 18 39  1  0
 19 40  1  0
 22 41  1  0
 22 42  1  0
 22 43  1  0
 23 44  1  0
 23 45  1  0
 23 46  1  0
M  CHG  2   3  -1  19   1
M  END
>  <UniqueID>  (68) 
64

>  <SMILES>  (68) 
CC[N-]C(=O)Oc1ccccc1COc1cc(C)[nH+]c(N(C)C)n1

>  <Energy>  (68) 
39.107194609170826

>  <Genealogy>  (68) 
CC[N-]C(=O)Oc1ccccc1COc1cc(C)[nH+]c(N(C)C)n1 (protonated)
CC[N-]C(=O)Oc1ccccc1COc1cc(C)[nH+]c(N(C)C)n1 (3D coordinates assigned)
CC[N-]C(=O)Oc1ccccc1COc1cc(C)[nH+]c(N(C)C)n1 (optimized conformer: 39.107194609170826 kcal/mol)

>  <smiles>  (68) 
CCNC(=O)Oc1ccccc1COc1cc(C)nc(N(C)C)n1

>  <score_type>  (68) 
oracle

>  <origin>  (68) 
adg

>  <m_score__min__energy>  (68) 
-8.1799999999999997

>  <m_primary>  (68) 
energy

$$$$
68:0
     RDKit          3D

 43 45  0  0  0  0  0  0  0  0999 V2000
   62.9900   31.6100   47.4580 O   0  0  0  0  0  0  0  0  0  0  0  0
   62.1770   32.8740   47.4320 S   0  0  0  0  0  0  0  0  0  0  0  0
   62.9240   33.8980   46.6230 O   0  0  0  0  0  0  0  0  0  0  0  0
   60.6260   32.5190   46.6710 C   0  0  0  0  0  0  0  0  0  0  0  0
   59.8050   33.5500   46.2110 C   0  0  0  0  0  0  0  0  0  0  0  0
   58.5710   33.2590   45.6290 C   0  0  0  0  0  0  0  0  0  0  0  0
   58.1300   31.9260   45.5070 C   0  0  0  0  0  0  0  0  0  0  0  0
   56.8810   31.6100   44.9390 O   0  0  0  0  0  0  0  0  0  0  0  0
   56.6500   31.0660   43.6380 C   0  0  0  0  0  0  0  0  0  0  0  0
   55.9220   29.7230   43.7260 C   0  0  0  0  0  0  0  0  0  0  0  0
   55.1580   29.6370   44.8970 O   0  0  0  0  0  0  0  0  0  0  0  0
   58.9640   30.8770   45.9630 C   0  0  0  0  0  0  0  0  0  0  0  0
   58.5460   29.4540   45.8420 C   0  0  0  0  0  0  0  0  0  0  0  0
   59.2450   28.4370   45.2150 C   0  0  0  0  0  0  0  0  0  0  0  0
   58.4470   27.3260   45.3700 C   0  0  0  0  0  0  0  0  0  0  0  0
   57.3360   27.6640   46.0480 N   0  0  0  0  0  0  0  0  0  0  0  0
   57.3950   28.9550   46.3350 N   0  0  0  0  0  0  0  0  0  0  0  0
   60.2070   31.1920   46.5450 C   0  0  0  0  0  0  0  0  0  0  0  0
   61.9440   33.4450   49.0740 N   0  0  0  0  0  0  0  0  0  0  0  0
   62.1290   32.3670   50.0710 C   0  0  0  0  0  0  0  0  0  0  0  0
   61.0760   31.2470   49.9820 C   0  0  0  0  0  0  0  0  0  0  0  0
   59.3620   31.8220   49.6740 S   0  0  0  0  0  0  0  0  0  0  0  0
   59.6300   33.5590   50.1340 C   0  0  0  0  0  0  0  0  0  0  0  0
   60.6730   34.2090   49.2140 C   0  0  0  0  0  0  0  0  0  0  0  0
   60.1323   34.5957   46.3078 H   0  0  0  0  0  0  0  0  0  0  0  0
   57.9357   34.0784   45.2616 H   0  0  0  0  0  0  0  0  0  0  0  0
   56.0362   31.7704   43.0574 H   0  0  0  0  0  0  0  0  0  0  0  0
   57.6216   30.9062   43.1476 H   0  0  0  0  0  0  0  0  0  0  0  0
   55.2578   29.6171   42.8556 H   0  0  0  0  0  0  0  0  0  0  0  0
   56.6733   28.9197   43.7404 H   0  0  0  0  0  0  0  0  0  0  0  0
   55.6880   30.0710   45.6150 H   0  0  0  0  0  0  0  0  0  0  0  0
   60.2187   28.5019   44.7073 H   0  0  0  0  0  0  0  0  0  0  0  0
   58.6818   26.3181   44.9971 H   0  0  0  0  0  0  0  0  0  0  0  0
   60.8575   30.3816   46.9057 H   0  0  0  0  0  0  0  0  0  0  0  0
   62.7270   34.1210   49.2360 H   0  0  0  0  0  0  0  0  0  0  0  0
   63.1228   31.9209   49.9183 H   0  0  0  0  0  0  0  0  0  0  0  0
   62.0211   32.8284   51.0637 H   0  0  0  0  0  0  0  0  0  0  0  0
   61.3629   30.5726   49.1617 H   0  0  0  0  0  0  0  0  0  0  0  0
   61.0645   30.7552   50.9659 H   0  0  0  0  0  0  0  0  0  0  0  0
   58.6800   34.1065   50.0464 H   0  0  0  0  0  0  0  0  0  0  0  0
   59.9986   33.5978   51.1697 H   0  0  0  0  0  0  0  0  0  0  0  0
   60.2272   34.3180   48.2143 H   0  0  0  0  0  0  0  0  0  0  0  0
   60.9388   35.1706   49.6774 H   0  0  0  0  0  0  0  0  0  0  0  0
  1  2  2  0
  2  3  2  0
  2  4  1  0
  4  5  2  0
  5  6  1  0
  6  7  2  0
  7  8  1  0
  8  9  1  0
  9 10  1  0
 10 11  1  0
  7 12  1  0
 12 13  1  0
 13 14  1  0
 14 15  2  0
 15 16  1  0
 16 17  1  0
 12 18  2  0
  2 19  1  0
 19 20  1  0
 20 21  1  0
 21 22  1  0
 22 23  1  0
 23 24  1  0
 18  4  1  0
 24 19  1  0
 17 13  2  0
  5 25  1  0
  6 26  1  0
  9 27  1  0
  9 28  1  0
 10 29  1  0
 10 30  1  0
 11 31  1  0
 14 32  1  0
 15 33  1  0
 18 34  1  0
 19 35  1  0
 20 36  1  0
 20 37  1  0
 21 38  1  0
 21 39  1  0
 23 40  1  0
 23 41  1  0
 24 42  1  0
 24 43  1  0
M  CHG  2  16  -1  19   1
M  END
>  <UniqueID>  (69) 
65

>  <SMILES>  (69) 
O=S(=O)(c1ccc(OCCO)c(-c2cc[n-]n2)c1)[NH+]1CCSCC1

>  <Energy>  (69) 
83.27066177162459

>  <Genealogy>  (69) 
O=S(=O)(c1ccc(OCCO)c(-c2cc[n-]n2)c1)[NH+]1CCSCC1 (protonated)
O=S(=O)(c1ccc(OCCO)c(-c2cc[n-]n2)c1)[NH+]1CCSCC1 (3D coordinates assigned)
O=S(=O)(c1ccc(OCCO)c(-c2cc[n-]n2)c1)[NH+]1CCSCC1 (nonaromatic ring conformer: 83.27066177162459 kcal/mol)

>  <smiles>  (69) 
O=S(=O)(c1ccc(OCCO)c(-c2cc[nH]n2)c1)N1CCSCC1

>  <score_type>  (69) 
oracle

>  <origin>  (69) 
adg

>  <m_score__min__energy>  (69) 
-8.8800000000000008

>  <m_primary>  (69) 
energy

$$$$
69:0
     RDKit          3D

 37 40  0  0  0  0  0  0  0  0999 V2000
   50.6350   33.2990   51.9960 O   0  0  0  0  0  0  0  0  0  0  0  0
   51.0670   32.1970   51.2700 C   0  0  0  0  0  0  0  0  0  0  0  0
   50.8030   32.0070   49.9680 N   0  0  0  0  0  0  0  0  0  0  0  0
   51.3960   30.8190   49.7130 C   0  0  0  0  0  0  0  0  0  0  0  0
   51.3610   30.1140   48.2420 S   0  0  0  0  0  0  0  0  0  0  0  0
   52.0120   30.2580   50.7770 N   0  0  0  0  0  0  0  0  0  0  0  0
   51.8060   31.1490   51.7630 C   0  0  0  0  0  0  0  0  0  0  0  0
   52.2400   30.9480   53.1810 C   0  0  0  0  0  0  0  0  0  0  0  0
   53.4790   30.1060   53.2240 C   0  0  0  0  0  0  0  0  0  0  0  0
   53.5750   28.7980   53.6860 C   0  0  0  0  0  0  0  0  0  0  0  0
   54.8270   28.3220   53.4940 N   0  0  0  0  0  0  0  0  0  0  0  0
   55.5160   29.3140   52.9030 C   0  0  0  0  0  0  0  0  0  0  0  0
   56.8450   29.2860   52.4850 C   0  0  0  0  0  0  0  0  0  0  0  0
   57.3760   30.4390   51.8690 C   0  0  0  0  0  0  0  0  0  0  0  0
   58.7370   30.4230   51.4040 N   0  0  0  0  0  0  0  0  0  0  0  0
   59.2690   31.3250   50.4200 C   0  0  0  0  0  0  0  0  0  0  0  0
   59.3160   30.9780   49.0570 C   0  0  0  0  0  0  0  0  0  0  0  0
   59.8120   31.8840   48.1150 C   0  0  0  0  0  0  0  0  0  0  0  0
   60.2500   33.1470   48.5210 C   0  0  0  0  0  0  0  0  0  0  0  0
   60.1850   33.5090   49.8680 C   0  0  0  0  0  0  0  0  0  0  0  0
   59.6890   32.6060   50.8140 C   0  0  0  0  0  0  0  0  0  0  0  0
   56.5410   31.5700   51.6560 C   0  0  0  0  0  0  0  0  0  0  0  0
   55.2030   31.5650   52.0880 C   0  0  0  0  0  0  0  0  0  0  0  0
   54.7250   30.4170   52.7160 C   0  0  0  0  0  0  0  0  0  0  0  0
   52.4480   31.9257   53.6402 H   0  0  0  0  0  0  0  0  0  0  0  0
   51.4380   30.4383   53.7350 H   0  0  0  0  0  0  0  0  0  0  0  0
   52.7504   28.2309   54.1426 H   0  0  0  0  0  0  0  0  0  0  0  0
   55.1790   27.3700   53.7390 H   0  0  0  0  0  0  0  0  0  0  0  0
   57.4639   28.3885   52.6314 H   0  0  0  0  0  0  0  0  0  0  0  0
   59.3830   29.7080   51.8110 H   0  0  0  0  0  0  0  0  0  0  0  0
   58.9608   29.9892   48.7313 H   0  0  0  0  0  0  0  0  0  0  0  0
   59.8575   31.6021   47.0527 H   0  0  0  0  0  0  0  0  0  0  0  0
   60.6461   33.8563   47.7794 H   0  0  0  0  0  0  0  0  0  0  0  0
   60.5244   34.5059   50.1857 H   0  0  0  0  0  0  0  0  0  0  0  0
   59.6275   32.9006   51.8720 H   0  0  0  0  0  0  0  0  0  0  0  0
   56.9459   32.4578   51.1481 H   0  0  0  0  0  0  0  0  0  0  0  0
   54.5541   32.4399   51.9349 H   0  0  0  0  0  0  0  0  0  0  0  0
  1  2  1  0
  2  3  1  0
  3  4  1  0
  4  5  2  0
  4  6  1  0
  6  7  1  0
  7  8  1  0
  8  9  1  0
  9 10  2  0
 10 11  1  0
 11 12  1  0
 12 13  2  0
 13 14  1  0
 14 15  1  0
 15 16  1  0
 16 17  2  0
 17 18  1  0
 18 19  2  0
 19 20  1  0
 20 21  2  0
 14 22  2  0
 22 23  1  0
 23 24  2  0
  7  2  2  0
 24  9  1  0
 24 12  1  0
 21 16  1  0
  8 25  1  0
  8 26  1  0
 10 27  1  0
 11 28  1  0
 13 29  1  0
 15 30  1  0
 17 31  1  0
 18 32  1  0
 19 33  1  0
 20 34  1  0
 21 35  1  0
 22 36  1  0
 23 37  1  0
M  CHG  3   1  -1   3  -1   6  -1
M  END
>  <UniqueID>  (70) 
66

>  <SMILES>  (70) 
[O-]c1[n-]c(=S)[n-]c1Cc1c[nH]c2cc(Nc3ccccc3)ccc12

>  <Energy>  (70) 
106.15632808470326

>  <Genealogy>  (70) 
[O-]c1[n-]c(=S)[n-]c1Cc1c[nH]c2cc(Nc3ccccc3)ccc12 (protonated)
[O-]c1[n-]c(=S)[n-]c1Cc1c[nH]c2cc(Nc3ccccc3)ccc12 (3D coordinates assigned)
[O-]c1[n-]c(=S)[n-]c1Cc1c[nH]c2cc(Nc3ccccc3)ccc12 (optimized conformer: 106.15632808470326 kcal/mol)

>  <smiles>  (70) 
Oc1[nH]c(=S)[nH]c1Cc1c[nH]c2cc(Nc3ccccc3)ccc12

>  <score_type>  (70) 
oracle

>  <origin>  (70) 
adg

>  <m_score__min__energy>  (70) 
-15.52

>  <m_primary>  (70) 
energy

$$$$
70:0
     RDKit          3D

 35 36  0  0  0  0  0  0  0  0999 V2000
   59.8630   28.0730   47.6570 C   0  0  0  0  0  0  0  0  0  0  0  0
   59.1240   28.3790   46.3750 C   0  0  0  0  0  0  0  0  0  0  0  0
   58.7240   27.4000   45.5350 C   0  0  0  0  0  0  0  0  0  0  0  0
   57.6040   26.4730   45.8100 C   0  0  0  0  0  0  0  0  0  0  0  0
   56.2650   26.8890   45.7130 C   0  0  0  0  0  0  0  0  0  0  0  0
   55.9540   28.1960   45.3500 O   0  0  0  0  0  0  0  0  0  0  0  0
   55.2640   26.0120   45.9920 N   0  0  0  0  0  0  0  0  0  0  0  0
   55.5320   24.7410   46.3830 C   0  0  0  0  0  0  0  0  0  0  0  0
   54.5880   23.9480   46.6320 O   0  0  0  0  0  0  0  0  0  0  0  0
   56.8180   24.3260   46.5110 N   0  0  0  0  0  0  0  0  0  0  0  0
   57.8550   25.1610   46.2420 C   0  0  0  0  0  0  0  0  0  0  0  0
   59.0370   24.7430   46.3750 O   0  0  0  0  0  0  0  0  0  0  0  0
   58.8620   29.7990   46.0340 C   0  0  0  0  0  0  0  0  0  0  0  0
   59.8200   30.5890   45.8020 O   0  0  0  0  0  0  0  0  0  0  0  0
   57.5180   30.2820   45.9680 N   0  0  0  0  0  0  0  0  0  0  0  0
   56.8040   30.8440   44.4940 S   0  0  0  0  0  0  0  0  0  0  0  0
   57.4490   30.1470   43.3300 O   0  0  0  0  0  0  0  0  0  0  0  0
   55.3340   30.5350   44.5020 O   0  0  0  0  0  0  0  0  0  0  0  0
   57.0330   32.5340   44.3430 O   0  0  0  0  0  0  0  0  0  0  0  0
   57.8570   33.3040   45.1760 C   0  0  0  0  0  0  0  0  0  0  0  0
   58.7900   34.1580   44.5740 C   0  0  0  0  0  0  0  0  0  0  0  0
   59.6320   34.9540   45.3570 C   0  0  0  0  0  0  0  0  0  0  0  0
   59.5480   34.9010   46.7500 C   0  0  0  0  0  0  0  0  0  0  0  0
   58.6240   34.0520   47.3620 C   0  0  0  0  0  0  0  0  0  0  0  0
   57.7800   33.2540   46.5820 C   0  0  0  0  0  0  0  0  0  0  0  0
   59.2294   28.3354   48.5170 H   0  0  0  0  0  0  0  0  0  0  0  0
   60.1052   27.0006   47.6936 H   0  0  0  0  0  0  0  0  0  0  0  0
   60.7924   28.6603   47.6936 H   0  0  0  0  0  0  0  0  0  0  0  0
   59.2660   27.2843   44.5848 H   0  0  0  0  0  0  0  0  0  0  0  0
   56.5720   28.7310   44.7510 H   0  0  0  0  0  0  0  0  0  0  0  0
   58.8609   34.2028   43.4772 H   0  0  0  0  0  0  0  0  0  0  0  0
   60.3610   35.6223   44.8754 H   0  0  0  0  0  0  0  0  0  0  0  0
   60.2099   35.5283   47.3651 H   0  0  0  0  0  0  0  0  0  0  0  0
   58.5594   34.0104   48.4593 H   0  0  0  0  0  0  0  0  0  0  0  0
   57.0541   32.5855   47.0679 H   0  0  0  0  0  0  0  0  0  0  0  0
  1  2  1  0
  2  3  2  3
  3  4  1  0
  4  5  2  0
  5  6  1  0
  5  7  1  0
  7  8  1  0
  8  9  2  0
  8 10  1  0
 10 11  1  0
 11 12  2  0
  2 13  1  0
 13 14  2  0
 13 15  1  0
 15 16  1  0
 16 17  2  0
 16 18  2  0
 16 19  1  0
 19 20  1  0
 20 21  2  0
 21 22  1  0
 22 23  2  0
 23 24  1  0
 24 25  2  0
 11  4  1  0
 25 20  1  0
  1 26  1  0
  1 27  1  0
  1 28  1  0
  3 29  1  0
  6 30  1  0
 21 31  1  0
 22 32  1  0
 23 33  1  0
 24 34  1  0
 25 35  1  0
M  CHG  3   7  -1  10  -1  15  -1
M  END
>  <UniqueID>  (71) 
67

>  <SMILES>  (71) 
CC(=Cc1c(O)[n-]c(=O)[n-]c1=O)C(=O)[N-]S(=O)(=O)Oc1ccccc1

>  <Energy>  (71) 
44.48733357340411

>  <Genealogy>  (71) 
CC(=Cc1c(O)[n-]c(=O)[n-]c1=O)C(=O)[N-]S(=O)(=O)Oc1ccccc1 (protonated)
CC(=Cc1c(O)[n-]c(=O)[n-]c1=O)C(=O)[N-]S(=O)(=O)Oc1ccccc1 (3D coordinates assigned)
CC(=Cc1c(O)[n-]c(=O)[n-]c1=O)C(=O)[N-]S(=O)(=O)Oc1ccccc1 (optimized conformer: 44.48733357340411 kcal/mol)

>  <smiles>  (71) 
CC(=Cc1c(O)[nH]c(=O)[nH]c1=O)C(=O)NS(=O)(=O)Oc1ccccc1

>  <score_type>  (71) 
oracle

>  <origin>  (71) 
adg

>  <m_score__min__energy>  (71) 
-14.98

>  <m_primary>  (71) 
energy

$$$$
71:0
     RDKit          3D

 60 62  0  0  0  0  0  0  0  0999 V2000
   54.7530   25.1870   45.6370 C   0  0  0  0  0  0  0  0  0  0  0  0
   55.2020   26.4980   45.9660 O   0  0  0  0  0  0  0  0  0  0  0  0
   56.5510   26.8800   46.0430 C   0  0  0  0  0  0  0  0  0  0  0  0
   57.5230   26.0590   46.6510 C   0  0  0  0  0  0  0  0  0  0  0  0
   58.8570   26.4680   46.7110 C   0  0  0  0  0  0  0  0  0  0  0  0
   59.2360   27.7000   46.1780 C   0  0  0  0  0  0  0  0  0  0  0  0
   58.2840   28.5260   45.5770 C   0  0  0  0  0  0  0  0  0  0  0  0
   56.9400   28.1220   45.4990 C   0  0  0  0  0  0  0  0  0  0  0  0
   55.9260   29.0190   44.8370 C   0  0  0  0  0  0  0  0  0  0  0  0
   56.3540   30.4120   44.8990 N   0  0  0  0  0  0  0  0  0  0  0  0
   57.1170   31.0590   43.8750 C   0  0  0  0  0  0  0  0  0  0  0  0
   56.8220   30.8980   42.6600 O   0  0  0  0  0  0  0  0  0  0  0  0
   58.2440   31.9800   44.2580 C   0  0  0  0  0  0  0  0  0  0  0  0
   58.5530   31.9320   45.7080 N   0  0  1  0  0  0  0  0  0  0  0  0
   59.9370   31.4630   45.9980 C   0  0  0  0  0  0  0  0  0  0  0  0
   60.1530   30.6850   47.3270 C   0  0  0  0  0  0  0  0  0  0  0  0
   61.3750   31.1120   48.0950 C   0  0  0  0  0  0  0  0  0  0  0  0
   61.5730   30.6570   49.4110 C   0  0  0  0  0  0  0  0  0  0  0  0
   62.7000   31.0590   50.1340 C   0  0  0  0  0  0  0  0  0  0  0  0
   63.6400   31.9120   49.5490 C   0  0  0  0  0  0  0  0  0  0  0  0
   63.4560   32.3610   48.2380 C   0  0  0  0  0  0  0  0  0  0  0  0
   62.3310   31.9600   47.5110 C   0  0  0  0  0  0  0  0  0  0  0  0
   58.1510   33.4330   46.5380 S   0  0  0  0  0  0  0  0  0  0  0  0
   58.6580   34.6280   45.7830 O   0  0  0  0  0  0  0  0  0  0  0  0
   56.6650   33.5850   46.7050 O   0  0  0  0  0  0  0  0  0  0  0  0
   58.9040   33.4410   48.1370 C   0  0  0  0  0  0  0  0  0  0  0  0
   60.0260   34.2450   48.3960 C   0  0  0  0  0  0  0  0  0  0  0  0
   60.6220   34.2380   49.6600 C   0  0  0  0  0  0  0  0  0  0  0  0
   60.1010   33.4320   50.6840 C   0  0  0  0  0  0  0  0  0  0  0  0
   60.7550   33.3930   52.0320 C   0  0  0  0  0  0  0  0  0  0  0  0
   58.9940   32.6150   50.4180 C   0  0  0  0  0  0  0  0  0  0  0  0
   58.3920   32.6300   49.1570 C   0  0  0  0  0  0  0  0  0  0  0  0
   54.5598   24.6229   46.5613 H   0  0  0  0  0  0  0  0  0  0  0  0
   53.8265   25.2538   45.0478 H   0  0  0  0  0  0  0  0  0  0  0  0
   55.5259   24.6718   45.0478 H   0  0  0  0  0  0  0  0  0  0  0  0
   57.2286   25.0902   47.0808 H   0  0  0  0  0  0  0  0  0  0  0  0
   59.6102   25.8174   47.1794 H   0  0  0  0  0  0  0  0  0  0  0  0
   60.2866   28.0214   46.2312 H   0  0  0  0  0  0  0  0  0  0  0  0
   58.5876   29.4985   45.1622 H   0  0  0  0  0  0  0  0  0  0  0  0
   55.8137   28.7220   43.7838 H   0  0  0  0  0  0  0  0  0  0  0  0
   54.9663   28.9193   45.3652 H   0  0  0  0  0  0  0  0  0  0  0  0
   59.1437   31.6882   43.6963 H   0  0  0  0  0  0  0  0  0  0  0  0
   57.9309   33.0069   44.0182 H   0  0  0  0  0  0  0  0  0  0  0  0
   57.9270   31.2060   46.1300 H   0  0  0  0  0  0  0  0  0  0  0  0
   60.2438   30.8031   45.1732 H   0  0  0  0  0  0  0  0  0  0  0  0
   60.5343   32.3807   46.1030 H   0  0  0  0  0  0  0  0  0  0  0  0
   59.2712   30.8404   47.9659 H   0  0  0  0  0  0  0  0  0  0  0  0
   60.2999   29.6288   47.0571 H   0  0  0  0  0  0  0  0  0  0  0  0
   60.8379   29.9819   49.8734 H   0  0  0  0  0  0  0  0  0  0  0  0
   62.8471   30.7035   51.1645 H   0  0  0  0  0  0  0  0  0  0  0  0
   64.5246   32.2300   50.1202 H   0  0  0  0  0  0  0  0  0  0  0  0
   64.1973   33.0307   47.7777 H   0  0  0  0  0  0  0  0  0  0  0  0
   62.1938   32.3100   46.4772 H   0  0  0  0  0  0  0  0  0  0  0  0
   60.4376   34.8832   47.6002 H   0  0  0  0  0  0  0  0  0  0  0  0
   61.5035   34.8671   49.8532 H   0  0  0  0  0  0  0  0  0  0  0  0
   59.9839   33.4390   52.8151 H   0  0  0  0  0  0  0  0  0  0  0  0
   61.3271   32.4591   52.1351 H   0  0  0  0  0  0  0  0  0  0  0  0
   61.4340   34.2523   52.1351 H   0  0  0  0  0  0  0  0  0  0  0  0
   58.5968   31.9583   51.2060 H   0  0  0  0  0  0  0  0  0  0  0  0
   57.5105   32.0008   48.9646 H   0  0  0  0  0  0  0  0  0  0  0  0
  1  2  1  0
  2  3  1  0
  3  4  2  0
  4  5  1  0
  5  6  2  0
  6  7  1  0
  7  8  2  0
  8  9  1  0
  9 10  1  0
 10 11  1  0
 11 12  2  0
 11 13  1  0
 13 14  1  0
 14 15  1  0
 15 16  1  0
 16 17  1  0
 17 18  2  0
 18 19  1  0
 19 20  2  0
 20 21  1  0
 21 22  2  0
 14 23  1  0
 23 24  2  0
 23 25  2  0
 23 26  1  0
 26 27  2  0
 27 28  1  0
 28 29  2  0
 29 30  1  0
 29 31  1  0
 31 32  2  0
  8  3  1  0
 22 17  1  0
 32 26  1  0
  1 33  1  0
  1 34  1  0
  1 35  1  0
  4 36  1  0
  5 37  1  0
  6 38  1  0
  7 39  1  0
  9 40  1  0
  9 41  1  0
 13 42  1  0
 13 43  1  0
 14 44  1  1
 15 45  1  0
 15 46  1  0
 16 47  1  0
 16 48  1  0
 18 49  1  0
 19 50  1  0
 20 51  1  0
 21 52  1  0
 22 53  1  0
 27 54  1  0
 28 55  1  0
 30 56  1  0
 30 57  1  0
 30 58  1  0
 31 59  1  0
 32 60  1  0
M  CHG  2  10  -1  14   1
M  END
>  <UniqueID>  (72) 
68

>  <SMILES>  (72) 
COc1ccccc1C[N-]C(=O)C[N@@H+](CCc1ccccc1)S(=O)(=O)c1ccc(C)cc1

>  <Energy>  (72) 
61.7596126130594

>  <Genealogy>  (72) 
COc1ccccc1C[N-]C(=O)C[NH+](CCc1ccccc1)S(=O)(=O)c1ccc(C)cc1 (protonated)
COc1ccccc1C[N-]C(=O)C[N@@H+](CCc1ccccc1)S(=O)(=O)c1ccc(C)cc1 (chirality)
COc1ccccc1C[N-]C(=O)C[N@@H+](CCc1ccccc1)S(=O)(=O)c1ccc(C)cc1 (3D coordinates assigned)
COc1ccccc1C[N-]C(=O)C[N@@H+](CCc1ccccc1)S(=O)(=O)c1ccc(C)cc1 (optimized conformer: 61.7596126130594 kcal/mol)

>  <smiles>  (72) 
COc1ccccc1CNC(=O)CN(CCc1ccccc1)S(=O)(=O)c1ccc(C)cc1

>  <score_type>  (72) 
oracle

>  <origin>  (72) 
adg

>  <m_score__min__energy>  (72) 
-9.75

>  <m_primary>  (72) 
energy

$$$$
72:0
     RDKit          3D

 71 77  0  0  0  0  0  0  0  0999 V2000
   60.8520   28.9760   45.1050 C   0  0  0  0  0  0  0  0  0  0  0  0
   61.2030   29.8410   46.1830 O   0  0  0  0  0  0  0  0  0  0  0  0
   60.8780   29.6090   47.5300 C   0  0  0  0  0  0  0  0  0  0  0  0
   60.2420   28.4220   47.9430 C   0  0  0  0  0  0  0  0  0  0  0  0
   59.9470   28.2060   49.2920 C   0  0  0  0  0  0  0  0  0  0  0  0
   60.2760   29.1700   50.2400 C   0  0  0  0  0  0  0  0  0  0  0  0
   60.8980   30.3560   49.8470 C   0  0  0  0  0  0  0  0  0  0  0  0
   61.2090   30.5900   48.4930 C   0  0  0  0  0  0  0  0  0  0  0  0
   61.9410   31.8720   48.1050 C   0  0  2  0  0  0  0  0  0  0  0  0
   62.7620   32.3680   49.2720 C   0  0  0  0  0  0  0  0  0  0  0  0
   63.7780   31.5660   49.8160 C   0  0  0  0  0  0  0  0  0  0  0  0
   64.5140   32.0080   50.9210 C   0  0  0  0  0  0  0  0  0  0  0  0
   64.2450   33.2650   51.4940 C   0  0  0  0  0  0  0  0  0  0  0  0
   64.9390   33.7540   52.6150 O   0  0  0  0  0  0  0  0  0  0  0  0
   64.5710   34.9050   53.3730 C   0  0  0  0  0  0  0  0  0  0  0  0
   65.5010   36.0440   53.0900 C   0  0  0  0  0  0  0  0  0  0  0  0
   66.7410   35.8930   52.5720 N   0  0  0  0  0  0  0  0  0  0  0  0
   67.3990   37.0760   52.4450 C   0  0  0  0  0  0  0  0  0  0  0  0
   66.6880   38.1870   52.8790 C   0  0  0  0  0  0  0  0  0  0  0  0
   65.1900   37.6560   53.4410 S   0  0  0  0  0  0  0  0  0  0  0  0
   63.2480   34.0670   50.9310 C   0  0  0  0  0  0  0  0  0  0  0  0
   62.5160   33.6260   49.8240 C   0  0  0  0  0  0  0  0  0  0  0  0
   61.5480   34.4600   49.2740 O   0  0  0  0  0  0  0  0  0  0  0  0
   60.8030   34.1620   48.1300 C   0  0  0  0  0  0  0  0  0  0  0  0
   60.0140   35.1810   47.6990 N   0  0  0  0  0  0  0  0  0  0  0  0
   59.1180   35.3410   46.7000 C   0  0  0  0  0  0  0  0  0  0  0  0
   58.6930   34.3420   45.8490 C   0  0  0  0  0  0  0  0  0  0  0  0
   57.6900   34.5010   44.9100 C   0  0  0  0  0  0  0  0  0  0  0  0
   57.4670   33.2870   44.2950 C   0  0  0  0  0  0  0  0  0  0  0  0
   58.3180   32.3500   44.8400 C   0  0  0  0  0  0  0  0  0  0  0  0
   58.2510   30.9880   44.5010 O   0  0  0  0  0  0  0  0  0  0  0  0
   57.7720   29.9640   45.3710 C   0  0  0  0  0  0  0  0  0  0  0  0
   56.3730   29.6020   44.9950 C   0  0  0  0  0  0  0  0  0  0  0  0
   55.6290   30.4640   44.4530 O   0  0  0  0  0  0  0  0  0  0  0  0
   55.8770   28.2880   45.2720 N   0  0  0  0  0  0  0  0  0  0  0  0
   56.6910   27.2380   45.8750 C   0  0  0  0  0  0  0  0  0  0  0  0
   55.9990   25.9190   45.7390 C   0  0  0  0  0  0  0  0  0  0  0  0
   56.6060   24.7130   45.4550 C   0  0  0  0  0  0  0  0  0  0  0  0
   55.5830   23.7890   45.4130 C   0  0  0  0  0  0  0  0  0  0  0  0
   54.4180   24.4880   45.6630 C   0  0  0  0  0  0  0  0  0  0  0  0
   54.6980   25.7570   45.8510 O   0  0  0  0  0  0  0  0  0  0  0  0
   59.1440   32.9700   45.7800 C   0  0  0  0  0  0  0  0  0  0  0  0
   60.2540   32.4120   46.3890 C   0  0  0  0  0  0  0  0  0  0  0  0
   60.9570   32.8890   47.5110 C   0  0  0  0  0  0  0  0  0  0  0  0
   60.4670   28.0271   45.5067 H   0  0  0  0  0  0  0  0  0  0  0  0
   60.0769   29.4545   44.4884 H   0  0  0  0  0  0  0  0  0  0  0  0
   61.7414   28.7791   44.4884 H   0  0  0  0  0  0  0  0  0  0  0  0
   59.9752   27.6585   47.1974 H   0  0  0  0  0  0  0  0  0  0  0  0
   59.4545   27.2734   49.6045 H   0  0  0  0  0  0  0  0  0  0  0  0
   60.0453   28.9969   51.3015 H   0  0  0  0  0  0  0  0  0  0  0  0
   61.1479   31.1158   50.6022 H   0  0  0  0  0  0  0  0  0  0  0  0
   62.6668   31.6820   47.3006 H   0  0  0  0  0  0  0  0  0  0  0  0
   63.9968   30.5842   49.3708 H   0  0  0  0  0  0  0  0  0  0  0  0
   65.3053   31.3710   51.3431 H   0  0  0  0  0  0  0  0  0  0  0  0
   63.5458   35.2008   53.1058 H   0  0  0  0  0  0  0  0  0  0  0  0
   64.6298   34.6576   54.4432 H   0  0  0  0  0  0  0  0  0  0  0  0
   67.1520   34.9750   52.2950 H   0  0  0  0  0  0  0  0  0  0  0  0
   68.4155   37.1474   52.0307 H   0  0  0  0  0  0  0  0  0  0  0  0
   67.0399   39.2290   52.8595 H   0  0  0  0  0  0  0  0  0  0  0  0
   63.0369   35.0561   51.3636 H   0  0  0  0  0  0  0  0  0  0  0  0
   58.6948   36.3458   46.5542 H   0  0  0  0  0  0  0  0  0  0  0  0
   57.1590   35.4390   44.6905 H   0  0  0  0  0  0  0  0  0  0  0  0
   56.7307   33.0976   43.5000 H   0  0  0  0  0  0  0  0  0  0  0  0
   58.4163   29.0769   45.2820 H   0  0  0  0  0  0  0  0  0  0  0  0
   57.7890   30.3285   46.4087 H   0  0  0  0  0  0  0  0  0  0  0  0
   57.6651   27.1935   45.3659 H   0  0  0  0  0  0  0  0  0  0  0  0
   56.8399   27.4616   46.9417 H   0  0  0  0  0  0  0  0  0  0  0  0
   57.6785   24.5277   45.2958 H   0  0  0  0  0  0  0  0  0  0  0  0
   55.6762   22.7102   45.2190 H   0  0  0  0  0  0  0  0  0  0  0  0
   53.4101   24.0488   45.6990 H   0  0  0  0  0  0  0  0  0  0  0  0
   60.6335   31.4816   45.9414 H   0  0  0  0  0  0  0  0  0  0  0  0
  1  2  1  0
  2  3  1  0
  3  4  2  0
  4  5  1  0
  5  6  2  0
  6  7  1  0
  7  8  2  0
  8  9  1  0
  9 10  1  0
 10 11  2  0
 11 12  1  0
 12 13  2  0
 13 14  1  0
 14 15  1  0
 15 16  1  0
 16 17  2  0
 17 18  1  0
 18 19  2  0
 19 20  1  0
 13 21  1  0
 21 22  2  0
 22 23  1  0
 23 24  1  0
 24 25  2  0
 25 26  1  0
 26 27  2  0
 27 28  1  0
 28 29  2  0
 29 30  1  0
 30 31  1  0
 31 32  1  0
 32 33  1  0
 33 34  2  0
 33 35  1  0
 35 36  1  0
 36 37  1  0
 37 38  2  0
 38 39  1  0
 39 40  2  0
 40 41  1  0
 30 42  2  0
 42 43  1  0
 43 44  2  0
  8  3  1  0
 44  9  1  0
 22 10  1  0
 44 24  1  0
 20 16  1  0
 42 27  1  0
 41 37  1  0
  1 45  1  0
  1 46  1  0
  1 47  1  0
  4 48  1  0
  5 49  1  0
  6 50  1  0
  7 51  1  0
  9 52  1  6
 11 53  1  0
 12 54  1  0
 15 55  1  0
 15 56  1  0
 17 57  1  0
 18 58  1  0
 19 59  1  0
 21 60  1  0
 26 61  1  0
 28 62  1  0
 29 63  1  0
 32 64  1  0
 32 65  1  0
 36 66  1  0
 36 67  1  0
 38 68  1  0
 39 69  1  0
 40 70  1  0
 43 71  1  0
M  CHG  2  17   1  35  -1
M  END
>  <UniqueID>  (73) 
69

>  <SMILES>  (73) 
COc1ccccc1[C@@H]1c2ccc(OCc3[nH+]ccs3)cc2Oc2ncc3ccc(OCC(=O)[N-]Cc4ccco4)c-3cc21

>  <Energy>  (73) 
179.019561856523

>  <Genealogy>  (73) 
COc1ccccc1C1c2ccc(OCc3[nH+]ccs3)cc2Oc2ncc3ccc(OCC(=O)[N-]Cc4ccco4)c-3cc21 (protonated)
COc1ccccc1[C@@H]1c2ccc(OCc3[nH+]ccs3)cc2Oc2ncc3ccc(OCC(=O)[N-]Cc4ccco4)c-3cc21 (chirality)
COc1ccccc1[C@@H]1c2ccc(OCc3[nH+]ccs3)cc2Oc2ncc3ccc(OCC(=O)[N-]Cc4ccco4)c-3cc21 (3D coordinates assigned)
COc1ccccc1[C@@H]1c2ccc(OCc3[nH+]ccs3)cc2Oc2ncc3ccc(OCC(=O)[N-]Cc4ccco4)c-3cc21 (nonaromatic ring conformer: 179.019561856523 kcal/mol)

>  <smiles>  (73) 
COc1ccccc1C1c2ccc(OCc3nccs3)cc2Oc2ncc3ccc(OCC(=O)NCc4ccco4)c-3cc21

>  <score_type>  (73) 
oracle

>  <origin>  (73) 
adg

>  <m_score__min__energy>  (73) 
-11.02

>  <m_primary>  (73) 
energy

$$$$
73:0
     RDKit          3D

 59 62  0  0  0  0  0  0  0  0999 V2000
   60.8440   26.4330   46.3990 C   0  0  0  0  0  0  0  0  0  0  0  0
   59.7060   27.3090   45.9720 C   0  0  0  0  0  0  0  0  0  0  0  0
   59.8730   28.2350   44.9350 C   0  0  0  0  0  0  0  0  0  0  0  0
   58.8150   29.0670   44.5640 C   0  0  0  0  0  0  0  0  0  0  0  0
   57.5890   28.9690   45.2380 C   0  0  0  0  0  0  0  0  0  0  0  0
   56.4440   29.8210   44.8530 C   0  0  0  0  0  0  0  0  0  0  0  0
   55.2790   29.3410   44.8770 O   0  0  0  0  0  0  0  0  0  0  0  0
   56.6210   31.1690   44.3930 N   0  0  0  0  0  0  0  0  0  0  0  0
   57.4430   32.1840   44.9910 C   0  0  0  0  0  0  0  0  0  0  0  0
   57.3320   33.5000   44.5250 C   0  0  0  0  0  0  0  0  0  0  0  0
   58.0790   34.5250   45.1120 C   0  0  0  0  0  0  0  0  0  0  0  0
   58.9430   34.2430   46.1730 C   0  0  0  0  0  0  0  0  0  0  0  0
   59.0660   32.9310   46.6540 C   0  0  0  0  0  0  0  0  0  0  0  0
   59.9930   32.6300   47.8050 C   0  0  0  0  0  0  0  0  0  0  0  0
   61.3490   32.2890   47.3240 N   0  0  0  0  0  0  0  0  0  0  0  0
   61.8580   31.0550   47.9830 C   0  0  0  0  0  0  0  0  0  0  0  0
   62.7850   31.3610   49.1660 C   0  0  0  0  0  0  0  0  0  0  0  0
   64.0490   32.0880   48.6680 C   0  0  0  0  0  0  0  0  0  0  0  0
   64.7630   32.7780   49.8060 C   0  0  0  0  0  0  0  0  0  0  0  0
   64.1010   33.1200   50.8250 O   0  0  0  0  0  0  0  0  0  0  0  0
   66.1730   33.0440   49.7460 N   0  0  0  0  0  0  0  0  0  0  0  0
   66.8740   33.8040   50.7770 C   0  0  0  0  0  0  0  0  0  0  0  0
   68.3860   33.6010   50.6380 C   0  0  0  0  0  0  0  0  0  0  0  0
   69.1780   34.7740   50.0810 C   0  0  0  0  0  0  0  0  0  0  0  0
   69.2230   34.4660   51.5690 C   0  0  0  0  0  0  0  0  0  0  0  0
   63.7490   33.0530   47.4940 C   0  0  0  0  0  0  0  0  0  0  0  0
   62.2660   33.4560   47.4320 C   0  0  0  0  0  0  0  0  0  0  0  0
   58.2940   31.9100   46.0770 C   0  0  0  0  0  0  0  0  0  0  0  0
   57.4600   28.0810   46.2620 N   0  0  0  0  0  0  0  0  0  0  0  0
   58.4760   27.2630   46.6430 C   0  0  0  0  0  0  0  0  0  0  0  0
   60.8883   26.3989   47.4976 H   0  0  0  0  0  0  0  0  0  0  0  0
   60.6918   25.4168   46.0065 H   0  0  0  0  0  0  0  0  0  0  0  0
   61.7875   26.8402   46.0065 H   0  0  0  0  0  0  0  0  0  0  0  0
   60.8383   28.3070   44.4124 H   0  0  0  0  0  0  0  0  0  0  0  0
   58.9421   29.7944   43.7487 H   0  0  0  0  0  0  0  0  0  0  0  0
   56.6521   33.7285   43.6911 H   0  0  0  0  0  0  0  0  0  0  0  0
   57.9865   35.5553   44.7380 H   0  0  0  0  0  0  0  0  0  0  0  0
   59.5289   35.0525   46.6328 H   0  0  0  0  0  0  0  0  0  0  0  0
   60.0551   33.5142   48.4564 H   0  0  0  0  0  0  0  0  0  0  0  0
   59.5926   31.7679   48.3586 H   0  0  0  0  0  0  0  0  0  0  0  0
   61.0006   30.4709   48.3485 H   0  0  0  0  0  0  0  0  0  0  0  0
   62.4410   30.4941   47.2377 H   0  0  0  0  0  0  0  0  0  0  0  0
   62.2563   32.0014   49.8874 H   0  0  0  0  0  0  0  0  0  0  0  0
   63.0772   30.4176   49.6503 H   0  0  0  0  0  0  0  0  0  0  0  0
   64.7300   31.3230   48.2669 H   0  0  0  0  0  0  0  0  0  0  0  0
   66.7330   32.6860   48.9420 H   0  0  0  0  0  0  0  0  0  0  0  0
   66.6379   34.8726   50.6662 H   0  0  0  0  0  0  0  0  0  0  0  0
   66.5513   33.4524   51.7681 H   0  0  0  0  0  0  0  0  0  0  0  0
   68.3251   32.5303   50.3934 H   0  0  0  0  0  0  0  0  0  0  0  0
   70.0637   34.5916   49.4547 H   0  0  0  0  0  0  0  0  0  0  0  0
   68.9337   35.6606   49.4775 H   0  0  0  0  0  0  0  0  0  0  0  0
   70.1411   34.0606   52.0192 H   0  0  0  0  0  0  0  0  0  0  0  0
   69.0246   35.0372   52.4879 H   0  0  0  0  0  0  0  0  0  0  0  0
   64.3571   33.9611   47.6187 H   0  0  0  0  0  0  0  0  0  0  0  0
   63.9942   32.5297   46.5581 H   0  0  0  0  0  0  0  0  0  0  0  0
   62.0162   34.0143   48.3463 H   0  0  0  0  0  0  0  0  0  0  0  0
   62.1290   34.0662   46.5271 H   0  0  0  0  0  0  0  0  0  0  0  0
   58.3552   30.8873   46.4775 H   0  0  0  0  0  0  0  0  0  0  0  0
   58.3330   26.5633   47.4796 H   0  0  0  0  0  0  0  0  0  0  0  0
  1  2  1  0
  2  3  2  0
  3  4  1  0
  4  5  2  0
  5  6  1  0
  6  7  2  0
  6  8  1  0
  8  9  1  0
  9 10  2  0
 10 11  1  0
 11 12  2  0
 12 13  1  0
 13 14  1  0
 14 15  1  0
 15 16  1  0
 16 17  1  0
 17 18  1  0
 18 19  1  0
 19 20  2  0
 19 21  1  0
 21 22  1  0
 22 23  1  0
 23 24  1  0
 24 25  1  0
 18 26  1  0
 26 27  1  0
 13 28  2  0
  5 29  1  0
 29 30  2  0
 30  2  1  0
 28  9  1  0
 27 15  1  0
 25 23  1  0
  1 31  1  0
  1 32  1  0
  1 33  1  0
  3 34  1  0
  4 35  1  0
 10 36  1  0
 11 37  1  0
 12 38  1  0
 14 39  1  0
 14 40  1  0
 16 41  1  0
 16 42  1  0
 17 43  1  0
 17 44  1  0
 18 45  1  0
 21 46  1  0
 22 47  1  0
 22 48  1  0
 23 49  1  0
 24 50  1  0
 24 51  1  0
 25 52  1  0
 25 53  1  0
 26 54  1  0
 26 55  1  0
 27 56  1  0
 27 57  1  0
 28 58  1  0
 30 59  1  0
M  CHG  1   8  -1
M  END
>  <UniqueID>  (74) 
70

>  <SMILES>  (74) 
Cc1ccc(C(=O)[N-]c2cccc(CN3CCC(C(=O)NCC4CC4)CC3)c2)nc1

>  <Energy>  (74) 
334.68890308888587

>  <Genealogy>  (74) 
Cc1ccc(C(=O)[N-]c2cccc(CN3CCC(C(=O)NCC4CC4)CC3)c2)nc1 (protonated)
Cc1ccc(C(=O)[N-]c2cccc(CN3CCC(C(=O)NCC4CC4)CC3)c2)nc1 (3D coordinates assigned)
Cc1ccc(C(=O)[N-]c2cccc(CN3CCC(C(=O)NCC4CC4)CC3)c2)nc1 (nonaromatic ring conformer: 334.68890308888587 kcal/mol)

>  <smiles>  (74) 
Cc1ccc(C(=O)Nc2cccc(CN3CCC(C(=O)NCC4CC4)CC3)c2)nc1

>  <score_type>  (74) 
oracle

>  <origin>  (74) 
adg

>  <m_score__min__energy>  (74) 
-11.779999999999999

>  <m_primary>  (74) 
energy

$$$$
74:0
     RDKit          3D

 47 49  0  0  0  0  0  0  0  0999 V2000
   56.1080   25.2900   44.5440 H   0  0  0  0  0  0  0  0  0  0  0  0
   57.0560   24.9680   44.7010 O   0  0  0  0  0  0  0  0  0  0  0  0
   57.9830   25.7300   45.4150 C   0  0  0  0  0  0  0  0  0  0  0  0
   59.2690   25.2210   45.6320 C   0  0  0  0  0  0  0  0  0  0  0  0
   59.5401   24.2311   45.2364 H   0  0  0  0  0  0  0  0  0  0  0  0
   60.2070   25.9630   46.3470 C   0  0  0  0  0  0  0  0  0  0  0  0
   61.2139   25.5544   46.5182 H   0  0  0  0  0  0  0  0  0  0  0  0
   59.8740   27.2210   46.8460 C   0  0  0  0  0  0  0  0  0  0  0  0
   60.6261   27.8030   47.3989 H   0  0  0  0  0  0  0  0  0  0  0  0
   58.5880   27.7550   46.6510 C   0  0  0  0  0  0  0  0  0  0  0  0
   58.3340   29.1740   47.1220 C   0  0  0  0  0  0  0  0  0  0  0  0
   58.4458   29.2178   48.2154 H   0  0  0  0  0  0  0  0  0  0  0  0
   57.3141   29.4672   46.8326 H   0  0  0  0  0  0  0  0  0  0  0  0
   59.3320   30.1440   46.4730 C   0  0  0  0  0  0  0  0  0  0  0  0
   59.9666   29.5867   45.7683 H   0  0  0  0  0  0  0  0  0  0  0  0
   59.9402   30.5996   47.2683 H   0  0  0  0  0  0  0  0  0  0  0  0
   58.6180   31.2500   45.7250 C   0  0  0  0  0  0  0  0  0  0  0  0
   58.3050   31.0360   44.3700 C   0  0  0  0  0  0  0  0  0  0  0  0
   58.5292   30.0623   43.9099 H   0  0  0  0  0  0  0  0  0  0  0  0
   57.7120   32.0440   43.5970 C   0  0  0  0  0  0  0  0  0  0  0  0
   57.4090   31.7890   42.1760 C   0  0  0  0  0  0  0  0  0  0  0  0
   56.7150   30.9787   41.9079 H   0  0  0  0  0  0  0  0  0  0  0  0
   57.9320   32.4840   41.2640 O   0  0  0  0  0  0  0  0  0  0  0  0
   57.4330   33.2840   44.1850 C   0  0  0  0  0  0  0  0  0  0  0  0
   56.9764   34.0839   43.5836 H   0  0  0  0  0  0  0  0  0  0  0  0
   57.7310   33.5110   45.5300 C   0  0  0  0  0  0  0  0  0  0  0  0
   57.5153   34.4931   45.9761 H   0  0  0  0  0  0  0  0  0  0  0  0
   58.3020   32.5020   46.3190 C   0  0  0  0  0  0  0  0  0  0  0  0
   58.5970   32.8260   47.7320 C   0  0  0  0  0  0  0  0  0  0  0  0
   58.0933   32.2586   48.5285 H   0  0  0  0  0  0  0  0  0  0  0  0
   59.4640   33.7950   48.0670 C   0  0  0  0  0  0  0  0  0  0  0  0
   59.0594   34.6934   48.5561 H   0  0  0  0  0  0  0  0  0  0  0  0
   60.9300   33.7440   47.8260 C   0  0  0  0  0  0  0  0  0  0  0  0
   61.5060   33.8600   46.5400 C   0  0  0  0  0  0  0  0  0  0  0  0
   60.8598   34.0116   45.6629 H   0  0  0  0  0  0  0  0  0  0  0  0
   62.8930   33.7830   46.3770 C   0  0  0  0  0  0  0  0  0  0  0  0
   63.3335   33.8771   45.3734 H   0  0  0  0  0  0  0  0  0  0  0  0
   63.7200   33.5870   47.4850 C   0  0  0  0  0  0  0  0  0  0  0  0
   64.8111   33.5373   47.3547 H   0  0  0  0  0  0  0  0  0  0  0  0
   63.1620   33.4540   48.7590 C   0  0  0  0  0  0  0  0  0  0  0  0
   63.8132   33.2813   49.6286 H   0  0  0  0  0  0  0  0  0  0  0  0
   61.7780   33.5400   48.9300 C   0  0  0  0  0  0  0  0  0  0  0  0
   61.3471   33.4473   49.9378 H   0  0  0  0  0  0  0  0  0  0  0  0
   57.6230   26.9980   45.9230 C   0  0  0  0  0  0  0  0  0  0  0  0
   56.2580   27.5080   45.6580 C   0  0  0  0  0  0  0  0  0  0  0  0
   56.0770   28.6780   45.2290 O   0  0  0  0  0  0  0  0  0  0  0  0
   55.1530   26.7100   45.9330 O   0  0  0  0  0  0  0  0  0  0  0  0
  1  2  1  0
  2  3  1  0
  3  4  2  0
  4  5  1  0
  4  6  1  0
  6  7  1  0
  6  8  2  0
  8  9  1  0
  8 10  1  0
 10 11  1  0
 11 12  1  0
 11 13  1  0
 11 14  1  0
 14 15  1  0
 14 16  1  0
 14 17  1  0
 17 18  2  0
 18 19  1  0
 18 20  1  0
 20 21  1  0
 21 22  1  0
 21 23  2  0
 20 24  2  0
 24 25  1  0
 24 26  1  0
 26 27  1  0
 26 28  2  0
 28 29  1  0
 29 30  1  0
 29 31  2  0
 31 32  1  0
 31 33  1  0
 33 34  2  0
 34 35  1  0
 34 36  1  0
 36 37  1  0
 36 38  2  0
 38 39  1  0
 38 40  1  0
 40 41  1  0
 40 42  2  0
 42 43  1  0
 10 44  2  0
 44 45  1  0
 45 46  2  0
 45 47  1  0
 44  3  1  0
 28 17  1  0
 42 33  1  0
M  CHG  1  47  -1
M  END
>  <UniqueID>  (75) 
71

>  <SMILES>  (75) 
O=Cc1ccc(/C=C/c2ccccc2)c(CCc2cccc(O)c2C(=O)[O-])c1

>  <Energy>  (75) 
63.1078706288711

>  <Genealogy>  (75) 
O=Cc1ccc(C=Cc2ccccc2)c(CCc2cccc(O)c2C(=O)[O-])c1 (protonated)
O=Cc1ccc(/C=C/c2ccccc2)c(CCc2cccc(O)c2C(=O)[O-])c1 (cis-trans isomerization)
O=Cc1ccc(/C=C/c2ccccc2)c(CCc2cccc(O)c2C(=O)[O-])c1 (3D coordinates assigned)
O=Cc1ccc(/C=C/c2ccccc2)c(CCc2cccc(O)c2C(=O)[O-])c1 (optimized conformer: 63.1078706288711 kcal/mol)

>  <smiles>  (75) 
O=Cc1ccc(C=Cc2ccccc2)c(CCc2cccc(O)c2C(=O)O)c1

>  <score_type>  (75) 
oracle

>  <origin>  (75) 
adg

>  <m_score__min__energy>  (75) 
-12.960000000000001

>  <m_primary>  (75) 
energy

$$$$
75:0
     RDKit          3D

 59 63  0  0  1  0  0  0  0  0999 V2000
   57.2010   21.6060   43.4330 C   0  0  0  0  0  0  0  0  0  0  0  0
   56.1520   22.1560   42.5900 N   0  0  0  0  0  0  0  0  0  0  0  0
   55.5180   23.2280   43.3030 C   0  0  0  0  0  0  0  0  0  0  0  0
   55.9810   23.3500   44.7390 C   0  0  0  0  0  0  0  0  0  0  0  0
   56.6660   24.6410   44.8520 N   0  0  0  0  0  0  0  0  0  0  0  0
   57.7570   25.0320   44.1700 C   0  0  0  0  0  0  0  0  0  0  0  0
   58.1130   26.3210   44.5500 C   0  0  0  0  0  0  0  0  0  0  0  0
   57.1670   26.6840   45.5030 C   0  0  0  0  0  0  0  0  0  0  0  0
   57.0880   27.9310   46.2150 N   0  0  0  0  0  0  0  0  0  0  0  0
   57.2670   29.0560   45.6050 C   0  0  0  0  0  0  0  0  0  0  0  0
   57.8100   30.1060   46.2460 N   0  0  0  0  0  0  0  0  0  0  0  0
   57.9780   31.2550   45.5720 C   0  0  0  0  0  0  0  0  0  0  0  0
   57.6160   31.4000   44.2500 C   0  0  0  0  0  0  0  0  0  0  0  0
   57.0610   30.2870   43.6380 C   0  0  0  0  0  0  0  0  0  0  0  0
   56.8940   29.1380   44.3160 N   0  0  0  0  0  0  0  0  0  0  0  0
   57.7680   32.6160   43.4570 C   0  0  0  0  0  0  0  0  0  0  0  0
   58.3430   33.8000   44.1280 C   0  0  0  0  0  0  0  0  0  0  0  0
   58.7080   33.6070   45.5480 C   0  0  0  0  0  0  0  0  0  0  0  0
   59.2340   34.4810   46.4130 N   0  0  0  0  0  0  0  0  0  0  0  0
   59.4050   33.9010   47.5760 N   0  0  0  0  0  0  0  0  0  0  0  0
   59.9640   34.6010   48.7320 C   0  0  0  0  0  0  0  0  0  0  0  0
   58.9920   32.6140   47.5170 C   0  0  0  0  0  0  0  0  0  0  0  0
   59.0830   31.7120   48.6470 C   0  0  0  0  0  0  0  0  0  0  0  0
   59.8260   30.5400   48.5220 C   0  0  0  0  0  0  0  0  0  0  0  0
   59.9410   29.6260   49.5480 C   0  0  0  0  0  0  0  0  0  0  0  0
   59.3090   29.8500   50.7550 C   0  0  0  0  0  0  0  0  0  0  0  0
   59.3860   28.9680   51.8280 O   0  0  0  0  0  0  0  0  0  0  0  0
   60.5260   28.2130   52.1330 C   0  0  0  0  0  0  0  0  0  0  0  0
   58.5660   31.0010   50.9110 C   0  0  0  0  0  0  0  0  0  0  0  0
   58.4650   31.9100   49.8580 C   0  0  0  0  0  0  0  0  0  0  0  0
   58.5480   32.4210   46.2320 C   0  0  0  0  0  0  0  0  0  0  0  0
   56.2860   25.6350   45.6760 C   0  0  0  0  0  0  0  0  0  0  0  0
   56.9330   21.7465   44.4905 H   0  0  0  0  0  0  0  0  0  0  0  0
   57.3148   20.5322   43.2231 H   0  0  0  0  0  0  0  0  0  0  0  0
   58.1489   22.1231   43.2231 H   0  0  0  0  0  0  0  0  0  0  0  0
   56.6350   22.5820   41.7570 H   0  0  0  0  0  0  0  0  0  0  0  0
   55.7399   24.1719   42.7835 H   0  0  0  0  0  0  0  0  0  0  0  0
   54.4400   23.0104   43.3262 H   0  0  0  0  0  0  0  0  0  0  0  0
   55.1176   23.3180   45.4198 H   0  0  0  0  0  0  0  0  0  0  0  0
   56.6512   22.5211   45.0106 H   0  0  0  0  0  0  0  0  0  0  0  0
   58.2881   24.4232   43.4234 H   0  0  0  0  0  0  0  0  0  0  0  0
   58.9567   26.9214   44.1789 H   0  0  0  0  0  0  0  0  0  0  0  0
   56.7531   30.3445   42.5835 H   0  0  0  0  0  0  0  0  0  0  0  0
   56.4740   28.2860   43.8570 H   0  0  0  0  0  0  0  0  0  0  0  0
   58.4174   32.3734   42.6029 H   0  0  0  0  0  0  0  0  0  0  0  0
   56.7408   32.9119   43.1977 H   0  0  0  0  0  0  0  0  0  0  0  0
   59.2510   34.0932   43.5806 H   0  0  0  0  0  0  0  0  0  0  0  0
   57.5551   34.5675   44.1183 H   0  0  0  0  0  0  0  0  0  0  0  0
   59.5926   34.1359   49.6571 H   0  0  0  0  0  0  0  0  0  0  0  0
   61.0617   34.5363   48.7042 H   0  0  0  0  0  0  0  0  0  0  0  0
   59.6581   35.6572   48.7042 H   0  0  0  0  0  0  0  0  0  0  0  0
   60.3393   30.3365   47.5706 H   0  0  0  0  0  0  0  0  0  0  0  0
   60.5391   28.7141   49.4042 H   0  0  0  0  0  0  0  0  0  0  0  0
   60.6361   28.1401   53.2250 H   0  0  0  0  0  0  0  0  0  0  0  0
   60.4226   27.2042   51.7067 H   0  0  0  0  0  0  0  0  0  0  0  0
   61.4144   28.7019   51.7067 H   0  0  0  0  0  0  0  0  0  0  0  0
   58.0541   31.2019   51.8637 H   0  0  0  0  0  0  0  0  0  0  0  0
   57.8668   32.8217   50.0028 H   0  0  0  0  0  0  0  0  0  0  0  0
   55.4277   25.6152   46.3637 H   0  0  0  0  0  0  0  0  0  0  0  0
  1  2  1  0
  2  3  1  0
  3  4  1  0
  4  5  1  0
  5  6  1  0
  6  7  2  0
  7  8  1  0
  8  9  1  0
  9 10  2  0
 10 11  1  0
 11 12  2  0
 12 13  1  0
 13 14  2  0
 14 15  1  0
 13 16  1  0
 16 17  1  0
 17 18  1  0
 18 19  2  0
 19 20  1  0
 20 21  1  0
 20 22  1  0
 22 23  1  0
 23 24  2  0
 24 25  1  0
 25 26  2  0
 26 27  1  0
 27 28  1  0
 26 29  1  0
 29 30  2  0
 22 31  2  0
  8 32  2  0
 32  5  1  0
 15 10  1  0
 31 18  1  0
 31 12  1  0
 30 23  1  0
  1 33  1  0
  1 34  1  0
  1 35  1  0
  2 36  1  0
  3 37  1  0
  3 38  1  0
  4 39  1  0
  4 40  1  0
  6 41  1  0
  7 42  1  0
 14 43  1  0
 15 44  1  0
 16 45  1  0
 16 46  1  0
 17 47  1  0
 17 48  1  0
 21 49  1  0
 21 50  1  0
 21 51  1  0
 24 52  1  0
 25 53  1  0
 28 54  1  0
 28 55  1  0
 28 56  1  0
 29 57  1  0
 30 58  1  0
 32 59  1  0
M  END
>  <smiles>  (76) 
CNCCn1ccc(N=c2nc3c(c[nH]2)CCc2nn(C)c(-c4ccc(OC)cc4)c2-3)c1

>  <score_type>  (76) 
oracle

>  <origin>  (76) 
adg

>  <m_score__min__energy>  (76) 
-9.1600000000000001

>  <m_primary>  (76) 
energy

$$$$
76:0
     RDKit          3D

 35 36  0  0  0  0  0  0  0  0999 V2000
   66.4090   32.7840   50.2030 C   0  0  0  0  0  0  0  0  0  0  0  0
   65.2550   33.4610   49.7140 O   0  0  0  0  0  0  0  0  0  0  0  0
   64.1910   32.8340   49.0490 C   0  0  0  0  0  0  0  0  0  0  0  0
   63.8030   33.1930   47.7440 C   0  0  0  0  0  0  0  0  0  0  0  0
   62.7360   32.5420   47.1200 C   0  0  0  0  0  0  0  0  0  0  0  0
   62.0340   31.5210   47.7830 C   0  0  0  0  0  0  0  0  0  0  0  0
   60.9000   30.8300   47.1190 C   0  0  0  0  0  0  0  0  0  0  0  0
   61.1280   29.7250   46.2810 C   0  0  0  0  0  0  0  0  0  0  0  0
   60.0600   29.0740   45.6560 C   0  0  0  0  0  0  0  0  0  0  0  0
   58.7400   29.5130   45.8540 C   0  0  0  0  0  0  0  0  0  0  0  0
   57.5930   28.8010   45.1680 C   0  0  2  0  0  0  0  0  0  0  0  0
   58.0780   28.0210   43.9390 C   0  0  0  0  0  0  0  0  0  0  0  0
   56.4970   29.7740   44.8170 C   0  0  0  0  0  0  0  0  0  0  0  0
   55.1430   29.3320   44.7950 N   0  0  0  0  0  0  0  0  0  0  0  0
   56.7600   30.9860   44.5880 O   0  0  0  0  0  0  0  0  0  0  0  0
   58.5120   30.6200   46.6920 C   0  0  0  0  0  0  0  0  0  0  0  0
   59.5790   31.2700   47.3170 C   0  0  0  0  0  0  0  0  0  0  0  0
   62.4240   31.1650   49.0860 C   0  0  0  0  0  0  0  0  0  0  0  0
   63.4920   31.8160   49.7120 C   0  0  0  0  0  0  0  0  0  0  0  0
   63.8630   31.4440   50.9980 O   0  0  0  0  0  0  0  0  0  0  0  0
   66.3990   32.7899   51.3029 H   0  0  0  0  0  0  0  0  0  0  0  0
   66.4051   31.7450   49.8418 H   0  0  0  0  0  0  0  0  0  0  0  0
   67.3140   33.2943   49.8418 H   0  0  0  0  0  0  0  0  0  0  0  0
   64.3431   33.9906   47.2128 H   0  0  0  0  0  0  0  0  0  0  0  0
   62.4426   32.8313   46.1001 H   0  0  0  0  0  0  0  0  0  0  0  0
   62.1556   29.3692   46.1154 H   0  0  0  0  0  0  0  0  0  0  0  0
   60.2550   28.2103   45.0033 H   0  0  0  0  0  0  0  0  0  0  0  0
   57.1740   28.0660   45.8709 H   0  0  0  0  0  0  0  0  0  0  0  0
   58.6326   27.1291   44.2661 H   0  0  0  0  0  0  0  0  0  0  0  0
   57.2119   27.7131   43.3349 H   0  0  0  0  0  0  0  0  0  0  0  0
   58.7373   28.6616   43.3349 H   0  0  0  0  0  0  0  0  0  0  0  0
   54.5590   29.3460   45.6610 H   0  0  0  0  0  0  0  0  0  0  0  0
   57.4845   30.9768   46.8565 H   0  0  0  0  0  0  0  0  0  0  0  0
   59.3842   32.1337   47.9698 H   0  0  0  0  0  0  0  0  0  0  0  0
   61.8845   30.3675   49.6178 H   0  0  0  0  0  0  0  0  0  0  0  0
  1  2  1  0
  2  3  1  0
  3  4  2  0
  4  5  1  0
  5  6  2  0
  6  7  1  0
  7  8  2  0
  8  9  1  0
  9 10  2  0
 10 11  1  0
 11 12  1  0
 11 13  1  0
 13 14  1  0
 13 15  2  0
 10 16  1  0
 16 17  2  0
  6 18  1  0
 18 19  2  0
 19 20  1  0
 19  3  1  0
 17  7  1  0
  1 21  1  0
  1 22  1  0
  1 23  1  0
  4 24  1  0
  5 25  1  0
  8 26  1  0
  9 27  1  0
 11 28  1  1
 12 29  1  0
 12 30  1  0
 12 31  1  0
 14 32  1  0
 16 33  1  0
 17 34  1  0
 18 35  1  0
M  CHG  2  14  -1  20  -1
M  END
>  <UniqueID>  (77) 
72

>  <SMILES>  (77) 
COc1ccc(-c2ccc([C@H](C)C([NH-])=O)cc2)cc1[O-]

>  <Energy>  (77) 
38.26292139303976

>  <Genealogy>  (77) 
COc1ccc(-c2ccc(C(C)C([NH-])=O)cc2)cc1[O-] (protonated)
COc1ccc(-c2ccc([C@H](C)C([NH-])=O)cc2)cc1[O-] (chirality)
COc1ccc(-c2ccc([C@H](C)C([NH-])=O)cc2)cc1[O-] (3D coordinates assigned)
COc1ccc(-c2ccc([C@H](C)C([NH-])=O)cc2)cc1[O-] (optimized conformer: 38.26292139303976 kcal/mol)

>  <smiles>  (77) 
COc1ccc(-c2ccc(C(C)C(N)=O)cc2)cc1O

>  <score_type>  (77) 
oracle

>  <origin>  (77) 
adg

>  <m_score__min__energy>  (77) 
-10.869999999999999

>  <m_primary>  (77) 
energy

$$$$
77:0
     RDKit          3D

 50 52  0  0  1  0  0  0  0  0999 V2000
   63.7830   33.0540   46.7550 C   0  0  0  0  0  0  0  0  0  0  0  0
   63.6220   32.4740   48.1200 C   0  0  0  0  0  0  0  0  0  0  0  0
   62.2840   32.4670   48.6640 N   0  0  0  0  0  0  0  0  0  0  0  0
   61.6580   33.8060   48.7030 C   0  0  0  0  0  0  0  0  0  0  0  0
   60.5790   33.9160   47.7130 C   0  0  0  0  0  0  0  0  0  0  0  0
   60.8240   34.1960   46.3850 C   0  0  0  0  0  0  0  0  0  0  0  0
   59.7140   34.2750   45.5370 C   0  0  0  0  0  0  0  0  0  0  0  0
   58.4300   34.0810   45.9990 C   0  0  0  0  0  0  0  0  0  0  0  0
   57.0210   34.1730   44.9640 Cl  0  0  0  0  0  0  0  0  0  0  0  0
   58.2410   33.8080   47.3180 N   0  0  0  0  0  0  0  0  0  0  0  0
   59.2760   33.7220   48.1700 C   0  0  0  0  0  0  0  0  0  0  0  0
   61.6080   31.3080   49.1300 C   0  0  0  0  0  0  0  0  0  0  0  0
   60.5460   30.8600   48.4570 N   0  0  0  0  0  0  0  0  0  0  0  0
   59.8970   29.7730   48.8720 C   0  0  0  0  0  0  0  0  0  0  0  0
   58.8680   29.3130   48.2370 N   0  0  0  0  0  0  0  0  0  0  0  0
   58.8990   28.9610   46.8610 C   0  0  0  0  0  0  0  0  0  0  0  0
   59.6890   27.9550   46.3460 C   0  0  0  0  0  0  0  0  0  0  0  0
   59.6220   27.7230   44.9950 C   0  0  0  0  0  0  0  0  0  0  0  0
   58.8130   28.4360   44.1310 C   0  0  0  0  0  0  0  0  0  0  0  0
   58.0250   29.4400   44.6530 C   0  0  0  0  0  0  0  0  0  0  0  0
   56.9530   30.4200   43.6790 S   0  0  0  0  0  0  0  0  0  0  0  0
   56.3580   29.5930   42.5830 O   0  0  0  0  0  0  0  0  0  0  0  0
   55.8850   31.0180   44.5250 O   0  0  0  0  0  0  0  0  0  0  0  0
   57.9310   31.6490   42.9280 N   0  0  0  0  0  0  0  0  0  0  0  0
   57.4060   31.9990   41.6340 C   0  0  0  0  0  0  0  0  0  0  0  0
   58.0770   29.6900   46.0100 C   0  0  0  0  0  0  0  0  0  0  0  0
   60.2660   29.0450   50.0030 C   0  0  0  0  0  0  0  0  0  0  0  0
   61.3650   29.5270   50.6810 C   0  0  0  0  0  0  0  0  0  0  0  0
   62.0070   30.6450   50.2280 N   0  0  0  0  0  0  0  0  0  0  0  0
   64.0764   34.1109   46.8380 H   0  0  0  0  0  0  0  0  0  0  0  0
   64.5611   32.4992   46.2103 H   0  0  0  0  0  0  0  0  0  0  0  0
   62.8302   32.9796   46.2103 H   0  0  0  0  0  0  0  0  0  0  0  0
   63.9735   31.4323   48.0840 H   0  0  0  0  0  0  0  0  0  0  0  0
   64.2030   33.1298   48.7851 H   0  0  0  0  0  0  0  0  0  0  0  0
   61.2431   33.9791   49.7069 H   0  0  0  0  0  0  0  0  0  0  0  0
   62.4261   34.5570   48.4664 H   0  0  0  0  0  0  0  0  0  0  0  0
   61.8463   34.3503   46.0093 H   0  0  0  0  0  0  0  0  0  0  0  0
   59.8705   34.4983   44.4713 H   0  0  0  0  0  0  0  0  0  0  0  0
   59.0950   33.4978   49.2316 H   0  0  0  0  0  0  0  0  0  0  0  0
   60.3489   27.3600   46.9945 H   0  0  0  0  0  0  0  0  0  0  0  0
   60.2491   26.9226   44.5754 H   0  0  0  0  0  0  0  0  0  0  0  0
   58.7980   28.2086   43.0549 H   0  0  0  0  0  0  0  0  0  0  0  0
   58.0790   32.4700   43.5450 H   0  0  0  0  0  0  0  0  0  0  0  0
   56.4967   32.6052   41.7590 H   0  0  0  0  0  0  0  0  0  0  0  0
   58.1583   32.5769   41.0772 H   0  0  0  0  0  0  0  0  0  0  0  0
   57.1619   31.0823   41.0772 H   0  0  0  0  0  0  0  0  0  0  0  0
   57.4493   30.4898   46.4298 H   0  0  0  0  0  0  0  0  0  0  0  0
   59.7184   28.1491   50.3309 H   0  0  0  0  0  0  0  0  0  0  0  0
   61.7244   29.0129   51.5846 H   0  0  0  0  0  0  0  0  0  0  0  0
   62.8240   30.9230   50.8080 H   0  0  0  0  0  0  0  0  0  0  0  0
  1  2  1  0
  2  3  1  0
  3  4  1  0
  4  5  1  0
  5  6  2  0
  6  7  1  0
  7  8  2  0
  8  9  1  0
  8 10  1  0
 10 11  2  0
  3 12  1  0
 12 13  2  0
 13 14  1  0
 14 15  2  0
 15 16  1  0
 16 17  2  0
 17 18  1  0
 18 19  2  0
 19 20  1  0
 20 21  1  0
 21 22  2  0
 21 23  2  0
 21 24  1  0
 24 25  1  0
 20 26  2  0
 14 27  1  0
 27 28  2  0
 28 29  1  0
 11  5  1  0
 29 12  1  0
 26 16  1  0
  1 30  1  0
  1 31  1  0
  1 32  1  0
  2 33  1  0
  2 34  1  0
  4 35  1  0
  4 36  1  0
  6 37  1  0
  7 38  1  0
 11 39  1  0
 17 40  1  0
 18 41  1  0
 19 42  1  0
 24 43  1  0
 25 44  1  0
 25 45  1  0
 25 46  1  0
 26 47  1  0
 27 48  1  0
 28 49  1  0
 29 50  1  0
M  END
>  <smiles>  (78) 
CCN(Cc1ccc(Cl)nc1)c1nc(=Nc2cccc(S(=O)(=O)NC)c2)cc[nH]1

>  <score_type>  (78) 
oracle

>  <origin>  (78) 
adg

>  <m_score__min__energy>  (78) 
-9.3499999999999996

>  <m_primary>  (78) 
energy

$$$$
78:0
     RDKit          3D

 41 43  0  0  0  0  0  0  0  0999 V2000
   61.8480   31.2010   48.1380 C   0  0  0  0  0  0  0  0  0  0  0  0
   61.8080   30.8680   49.5640 N   0  0  0  0  0  0  0  0  0  0  0  0
   62.5230   31.6850   50.5470 C   0  0  0  0  0  0  0  0  0  0  0  0
   61.0650   29.7210   50.0110 C   0  0  0  0  0  0  0  0  0  0  0  0
   60.4260   29.0210   49.1780 O   0  0  0  0  0  0  0  0  0  0  0  0
   61.0110   29.4190   51.3800 O   0  0  0  0  0  0  0  0  0  0  0  0
   59.8780   28.9560   52.0670 C   0  0  0  0  0  0  0  0  0  0  0  0
   59.8940   27.7780   52.8310 C   0  0  0  0  0  0  0  0  0  0  0  0
   58.7450   27.3390   53.5000 C   0  0  0  0  0  0  0  0  0  0  0  0
   58.8160   26.1090   54.1580 O   0  0  0  0  0  0  0  0  0  0  0  0
   57.5670   28.1300   53.4620 C   0  0  0  0  0  0  0  0  0  0  0  0
   57.5650   29.3190   52.7020 C   0  0  0  0  0  0  0  0  0  0  0  0
   58.7110   29.7190   52.0110 C   0  0  0  0  0  0  0  0  0  0  0  0
   56.4120   30.1130   52.6200 O   0  0  0  0  0  0  0  0  0  0  0  0
   55.2930   29.9400   53.4950 C   0  0  1  0  0  0  0  0  0  0  0  0
   54.0700   30.5980   52.9050 C   0  0  0  0  0  0  0  0  0  0  0  0
   52.9240   30.7970   53.6940 C   0  0  0  0  0  0  0  0  0  0  0  0
   51.7790   31.3790   53.1410 C   0  0  0  0  0  0  0  0  0  0  0  0
   51.7630   31.7570   51.7960 C   0  0  0  0  0  0  0  0  0  0  0  0
   50.6240   32.3350   51.2490 O   0  0  0  0  0  0  0  0  0  0  0  0
   52.8940   31.5500   50.9990 C   0  0  0  0  0  0  0  0  0  0  0  0
   54.0400   30.9680   51.5480 C   0  0  0  0  0  0  0  0  0  0  0  0
   55.0360   28.4480   53.7540 C   0  0  0  0  0  0  0  0  0  0  0  0
   56.3160   27.7970   54.1870 C   0  0  0  0  0  0  0  0  0  0  0  0
   56.3110   27.0310   55.1850 O   0  0  0  0  0  0  0  0  0  0  0  0
   61.9784   32.2867   48.0185 H   0  0  0  0  0  0  0  0  0  0  0  0
   62.6895   30.6761   47.6623 H   0  0  0  0  0  0  0  0  0  0  0  0
   60.9061   30.8903   47.6623 H   0  0  0  0  0  0  0  0  0  0  0  0
   62.2436   31.3657   51.5619 H   0  0  0  0  0  0  0  0  0  0  0  0
   63.6071   31.5600   50.4087 H   0  0  0  0  0  0  0  0  0  0  0  0
   62.2553   32.7429   50.4087 H   0  0  0  0  0  0  0  0  0  0  0  0
   60.8220   27.1920   52.9050 H   0  0  0  0  0  0  0  0  0  0  0  0
   58.1140   25.7680   54.7980 H   0  0  0  0  0  0  0  0  0  0  0  0
   58.6934   30.6446   51.4168 H   0  0  0  0  0  0  0  0  0  0  0  0
   55.5194   30.4191   54.4590 H   0  0  0  0  0  0  0  0  0  0  0  0
   52.9278   30.4936   54.7513 H   0  0  0  0  0  0  0  0  0  0  0  0
   50.8886   31.5396   53.7666 H   0  0  0  0  0  0  0  0  0  0  0  0
   52.8813   31.8455   49.9395 H   0  0  0  0  0  0  0  0  0  0  0  0
   54.9237   30.7982   50.9153 H   0  0  0  0  0  0  0  0  0  0  0  0
   54.2801   28.3364   54.5453 H   0  0  0  0  0  0  0  0  0  0  0  0
   54.6702   27.9699   52.8334 H   0  0  0  0  0  0  0  0  0  0  0  0
  1  2  1  0
  2  3  1  0
  2  4  1  0
  4  5  2  0
  4  6  1  0
  6  7  1  0
  7  8  2  0
  8  9  1  0
  9 10  1  0
  9 11  2  0
 11 12  1  0
 12 13  2  0
 12 14  1  0
 14 15  1  0
 15 16  1  0
 16 17  2  0
 17 18  1  0
 18 19  2  0
 19 20  1  0
 19 21  1  0
 21 22  2  0
 15 23  1  0
 23 24  1  0
 24 25  2  0
 13  7  1  0
 22 16  1  0
 24 11  1  0
  1 26  1  0
  1 27  1  0
  1 28  1  0
  3 29  1  0
  3 30  1  0
  3 31  1  0
  8 32  1  0
 10 33  1  0
 13 34  1  0
 15 35  1  1
 17 36  1  0
 18 37  1  0
 21 38  1  0
 22 39  1  0
 23 40  1  0
 23 41  1  0
M  CHG  1  20  -1
M  END
>  <UniqueID>  (79) 
73

>  <SMILES>  (79) 
CN(C)C(=O)Oc1cc(O)c2c(c1)O[C@@H](c1ccc([O-])cc1)CC2=O

>  <Energy>  (79) 
49.93283322461178

>  <Genealogy>  (79) 
CN(C)C(=O)Oc1cc(O)c2c(c1)OC(c1ccc([O-])cc1)CC2=O (protonated)
CN(C)C(=O)Oc1cc(O)c2c(c1)O[C@@H](c1ccc([O-])cc1)CC2=O (chirality)
CN(C)C(=O)Oc1cc(O)c2c(c1)O[C@@H](c1ccc([O-])cc1)CC2=O (3D coordinates assigned)
CN(C)C(=O)Oc1cc(O)c2c(c1)O[C@@H](c1ccc([O-])cc1)CC2=O (nonaromatic ring conformer: 49.93283322461178 kcal/mol)

>  <smiles>  (79) 
CN(C)C(=O)Oc1cc(O)c2c(c1)OC(c1ccc(O)cc1)CC2=O

>  <score_type>  (79) 
oracle

>  <origin>  (79) 
adg

>  <m_score__min__energy>  (79) 
-8.6799999999999997

>  <m_primary>  (79) 
energy

$$$$
79:0
     RDKit          3D

 43 45  0  0  0  0  0  0  0  0999 V2000
   60.9630   34.7270   49.0970 O   0  0  0  0  0  0  0  0  0  0  0  0
   60.5910   34.0770   48.0830 C   0  0  0  0  0  0  0  0  0  0  0  0
   59.2010   33.8230   47.8520 N   0  0  0  0  0  0  0  0  0  0  0  0
   58.6410   32.8900   46.9170 C   0  0  0  0  0  0  0  0  0  0  0  0
   58.8440   31.5220   47.1330 C   0  0  0  0  0  0  0  0  0  0  0  0
   58.2500   30.5750   46.2940 C   0  0  0  0  0  0  0  0  0  0  0  0
   57.4340   30.9860   45.2330 C   0  0  0  0  0  0  0  0  0  0  0  0
   56.6270   29.7890   44.2260 S   0  0  0  0  0  0  0  0  0  0  0  0
   57.6080   29.1310   43.2960 O   0  0  0  0  0  0  0  0  0  0  0  0
   55.5720   30.4750   43.4050 O   0  0  0  0  0  0  0  0  0  0  0  0
   55.8790   28.5730   45.2090 N   0  0  0  0  0  0  0  0  0  0  0  0
   56.5440   27.4080   45.7170 C   0  0  0  0  0  0  0  0  0  0  0  0
   57.9430   27.3610   45.8640 C   0  0  0  0  0  0  0  0  0  0  0  0
   58.5620   26.1960   46.3250 C   0  0  0  0  0  0  0  0  0  0  0  0
   57.7930   25.0770   46.6520 C   0  0  0  0  0  0  0  0  0  0  0  0
   56.4030   25.1270   46.5360 C   0  0  0  0  0  0  0  0  0  0  0  0
   55.7780   26.2880   46.0750 C   0  0  0  0  0  0  0  0  0  0  0  0
   54.3940   26.3260   45.9640 O   0  0  0  0  0  0  0  0  0  0  0  0
   57.2230   32.3530   45.0140 C   0  0  0  0  0  0  0  0  0  0  0  0
   57.8190   33.3000   45.8530 C   0  0  0  0  0  0  0  0  0  0  0  0
   61.5540   33.6120   47.1280 N   0  0  0  0  0  0  0  0  0  0  0  0
   62.9900   33.8320   47.2880 C   0  0  0  0  0  0  0  0  0  0  0  0
   63.5110   33.0380   48.4500 C   0  0  0  0  0  0  0  0  0  0  0  0
   62.7630   31.9830   48.9960 C   0  0  0  0  0  0  0  0  0  0  0  0
   63.2810   31.2620   50.0780 C   0  0  0  0  0  0  0  0  0  0  0  0
   64.5280   31.6010   50.6050 C   0  0  0  0  0  0  0  0  0  0  0  0
   65.2390   32.6690   50.0440 C   0  0  0  0  0  0  0  0  0  0  0  0
   64.7180   33.3620   48.9910 N   0  0  0  0  0  0  0  0  0  0  0  0
   59.4760   31.1896   47.9697 H   0  0  0  0  0  0  0  0  0  0  0  0
   58.4242   29.5029   46.4679 H   0  0  0  0  0  0  0  0  0  0  0  0
   58.5507   28.2436   45.6154 H   0  0  0  0  0  0  0  0  0  0  0  0
   59.6564   26.1603   46.4305 H   0  0  0  0  0  0  0  0  0  0  0  0
   58.2829   24.1560   47.0011 H   0  0  0  0  0  0  0  0  0  0  0  0
   55.7980   24.2496   46.8084 H   0  0  0  0  0  0  0  0  0  0  0  0
   56.5866   32.6829   44.1796 H   0  0  0  0  0  0  0  0  0  0  0  0
   57.6435   34.3719   45.6793 H   0  0  0  0  0  0  0  0  0  0  0  0
   61.2220   33.0590   46.3110 H   0  0  0  0  0  0  0  0  0  0  0  0
   63.5099   33.5175   46.3711 H   0  0  0  0  0  0  0  0  0  0  0  0
   63.1701   34.9009   47.4748 H   0  0  0  0  0  0  0  0  0  0  0  0
   61.7789   31.7254   48.5774 H   0  0  0  0  0  0  0  0  0  0  0  0
   62.7067   30.4302   50.5119 H   0  0  0  0  0  0  0  0  0  0  0  0
   64.9472   31.0362   51.4507 H   0  0  0  0  0  0  0  0  0  0  0  0
   66.2205   32.9499   50.4537 H   0  0  0  0  0  0  0  0  0  0  0  0
  1  2  2  0
  2  3  1  0
  3  4  1  0
  4  5  2  0
  5  6  1  0
  6  7  2  0
  7  8  1  0
  8  9  2  0
  8 10  2  0
  8 11  1  0
 11 12  1  0
 12 13  2  0
 13 14  1  0
 14 15  2  0
 15 16  1  0
 16 17  2  0
 17 18  1  0
  7 19  1  0
 19 20  2  0
  2 21  1  0
 21 22  1  0
 22 23  1  0
 23 24  2  0
 24 25  1  0
 25 26  2  0
 26 27  1  0
 27 28  2  0
 20  4  1  0
 28 23  1  0
 17 12  1  0
  5 29  1  0
  6 30  1  0
 13 31  1  0
 14 32  1  0
 15 33  1  0
 16 34  1  0
 19 35  1  0
 20 36  1  0
 21 37  1  0
 22 38  1  0
 22 39  1  0
 24 40  1  0
 25 41  1  0
 26 42  1  0
 27 43  1  0
M  CHG  3   3  -1  11  -1  18  -1
M  END
>  <UniqueID>  (80) 
74

>  <SMILES>  (80) 
O=C([N-]c1ccc(S(=O)(=O)[N-]c2ccccc2[O-])cc1)NCc1ccccn1

>  <Energy>  (80) 
51.3277338215969

>  <Genealogy>  (80) 
O=C([N-]c1ccc(S(=O)(=O)[N-]c2ccccc2[O-])cc1)NCc1ccccn1 (protonated)
O=C([N-]c1ccc(S(=O)(=O)[N-]c2ccccc2[O-])cc1)NCc1ccccn1 (3D coordinates assigned)
O=C([N-]c1ccc(S(=O)(=O)[N-]c2ccccc2[O-])cc1)NCc1ccccn1 (optimized conformer: 51.3277338215969 kcal/mol)

>  <smiles>  (80) 
O=C(NCc1ccccn1)Nc1ccc(S(=O)(=O)Nc2ccccc2O)cc1

>  <score_type>  (80) 
oracle

>  <origin>  (80) 
adg

>  <m_score__min__energy>  (80) 
-15.4

>  <m_primary>  (80) 
energy

$$$$
80:0
     RDKit          3D

 34 35  0  0  0  0  0  0  0  0999 V2000
   59.2230   34.8410   46.6110 C   0  0  0  0  0  0  0  0  0  0  0  0
   58.0020   33.6580   46.0830 S   0  0  0  0  0  0  0  0  0  0  0  0
   57.4390   32.9220   47.2660 O   0  0  0  0  0  0  0  0  0  0  0  0
   56.8870   34.3930   45.3950 O   0  0  0  0  0  0  0  0  0  0  0  0
   58.7020   32.5350   44.9610 N   0  0  0  0  0  0  0  0  0  0  0  0
   58.4330   31.1270   44.9050 C   0  0  0  0  0  0  0  0  0  0  0  0
   59.4580   30.1670   44.8740 C   0  0  0  0  0  0  0  0  0  0  0  0
   59.1480   28.8070   44.8120 C   0  0  0  0  0  0  0  0  0  0  0  0
   57.8080   28.3800   44.7790 C   0  0  0  0  0  0  0  0  0  0  0  0
   57.4630   26.9870   44.7040 N   0  0  0  0  0  0  0  0  0  0  0  0
   56.6050   26.0990   45.9210 S   0  0  0  0  0  0  0  0  0  0  0  0
   55.2040   26.6310   46.0210 O   0  0  0  0  0  0  0  0  0  0  0  0
   57.2960   26.2850   47.2430 O   0  0  0  0  0  0  0  0  0  0  0  0
   56.5380   24.3930   45.4890 C   0  0  0  0  0  0  0  0  0  0  0  0
   56.9190   23.4190   46.4220 C   0  0  0  0  0  0  0  0  0  0  0  0
   56.8580   22.0630   46.0870 C   0  0  0  0  0  0  0  0  0  0  0  0
   56.4200   21.6740   44.8170 C   0  0  0  0  0  0  0  0  0  0  0  0
   56.0420   22.6420   43.8810 C   0  0  0  0  0  0  0  0  0  0  0  0
   55.6060   22.2550   42.6200 O   0  0  0  0  0  0  0  0  0  0  0  0
   56.1030   24.0000   44.2140 C   0  0  0  0  0  0  0  0  0  0  0  0
   56.7810   29.3410   44.8200 C   0  0  0  0  0  0  0  0  0  0  0  0
   55.4360   28.9690   44.7980 O   0  0  0  0  0  0  0  0  0  0  0  0
   57.1000   30.7020   44.8840 C   0  0  0  0  0  0  0  0  0  0  0  0
   59.2536   34.8706   47.7102 H   0  0  0  0  0  0  0  0  0  0  0  0
   60.2099   34.5466   46.2245 H   0  0  0  0  0  0  0  0  0  0  0  0
   58.9600   35.8367   46.2245 H   0  0  0  0  0  0  0  0  0  0  0  0
   60.5098   30.4882   44.8987 H   0  0  0  0  0  0  0  0  0  0  0  0
   59.9582   28.0633   44.7888 H   0  0  0  0  0  0  0  0  0  0  0  0
   57.2669   23.7222   47.4205 H   0  0  0  0  0  0  0  0  0  0  0  0
   57.1548   21.3013   46.8230 H   0  0  0  0  0  0  0  0  0  0  0  0
   56.3728   20.6069   44.5544 H   0  0  0  0  0  0  0  0  0  0  0  0
   55.8096   24.7604   43.4753 H   0  0  0  0  0  0  0  0  0  0  0  0
   55.1380   28.0060   44.8920 H   0  0  0  0  0  0  0  0  0  0  0  0
   56.2921   31.4477   44.9183 H   0  0  0  0  0  0  0  0  0  0  0  0
  1  2  1  0
  2  3  2  0
  2  4  2  0
  2  5  1  0
  5  6  1  0
  6  7  2  0
  7  8  1  0
  8  9  2  0
  9 10  1  0
 10 11  1  0
 11 12  2  0
 11 13  2  0
 11 14  1  0
 14 15  2  0
 15 16  1  0
 16 17  2  0
 17 18  1  0
 18 19  1  0
 18 20  2  0
  9 21  1  0
 21 22  1  0
 21 23  2  0
 23  6  1  0
 20 14  1  0
  1 24  1  0
  1 25  1  0
  1 26  1  0
  7 27  1  0
  8 28  1  0
 15 29  1  0
 16 30  1  0
 17 31  1  0
 20 32  1  0
 22 33  1  0
 23 34  1  0
M  CHG  3   5  -1  10  -1  19  -1
M  END
>  <UniqueID>  (81) 
75

>  <SMILES>  (81) 
CS(=O)(=O)[N-]c1ccc([N-]S(=O)(=O)c2cccc([O-])c2)c(O)c1

>  <Energy>  (81) 
37.010992640239486

>  <Genealogy>  (81) 
CS(=O)(=O)[N-]c1ccc([N-]S(=O)(=O)c2cccc([O-])c2)c(O)c1 (protonated)
CS(=O)(=O)[N-]c1ccc([N-]S(=O)(=O)c2cccc([O-])c2)c(O)c1 (3D coordinates assigned)
CS(=O)(=O)[N-]c1ccc([N-]S(=O)(=O)c2cccc([O-])c2)c(O)c1 (optimized conformer: 37.010992640239486 kcal/mol)

>  <smiles>  (81) 
CS(=O)(=O)Nc1ccc(NS(=O)(=O)c2cccc(O)c2)c(O)c1

>  <score_type>  (81) 
oracle

>  <origin>  (81) 
adg

>  <m_score__min__energy>  (81) 
-13.19

>  <m_primary>  (81) 
energy

$$$$
81:0
     RDKit          3D

 33 34  0  0  0  0  0  0  0  0999 V2000
   63.1660   33.2780   47.1050 C   0  0  0  0  0  0  0  0  0  0  0  0
   61.9560   31.9800   47.5030 S   0  0  0  0  0  0  0  0  0  0  0  0
   60.5400   32.9620   46.9830 C   0  0  0  0  0  0  0  0  0  0  0  0
   60.7600   34.2120   46.3910 C   0  0  0  0  0  0  0  0  0  0  0  0
   59.6790   35.0070   46.0010 C   0  0  0  0  0  0  0  0  0  0  0  0
   58.3730   34.5620   46.2130 C   0  0  0  0  0  0  0  0  0  0  0  0
   58.1450   33.3190   46.8080 C   0  0  0  0  0  0  0  0  0  0  0  0
   59.2230   32.4990   47.1750 C   0  0  0  0  0  0  0  0  0  0  0  0
   58.9830   31.2420   47.8200 N   0  0  0  0  0  0  0  0  0  0  0  0
   59.2090   29.9630   47.1970 C   0  0  0  0  0  0  0  0  0  0  0  0
   59.2990   28.6500   48.1890 S   0  0  0  0  0  0  0  0  0  0  0  0
   59.6870   29.8830   45.8310 N   0  0  0  0  0  0  0  0  0  0  0  0
   58.6380   30.1170   44.8610 C   0  0  0  0  0  0  0  0  0  0  0  0
   58.5190   31.3840   44.2530 C   0  0  0  0  0  0  0  0  0  0  0  0
   57.5220   31.6260   43.3050 C   0  0  0  0  0  0  0  0  0  0  0  0
   56.6340   30.6110   42.9470 C   0  0  0  0  0  0  0  0  0  0  0  0
   56.7420   29.3490   43.5350 C   0  0  0  0  0  0  0  0  0  0  0  0
   57.7360   29.0930   44.4870 C   0  0  0  0  0  0  0  0  0  0  0  0
   57.8280   27.3320   45.2370 Br  0  0  0  0  0  0  0  0  0  0  0  0
   63.5647   33.7057   48.0367 H   0  0  0  0  0  0  0  0  0  0  0  0
   63.9895   32.8443   46.5188 H   0  0  0  0  0  0  0  0  0  0  0  0
   62.6756   34.0691   46.5188 H   0  0  0  0  0  0  0  0  0  0  0  0
   61.7881   34.5695   46.2323 H   0  0  0  0  0  0  0  0  0  0  0  0
   59.8572   35.9835   45.5269 H   0  0  0  0  0  0  0  0  0  0  0  0
   57.5225   35.1909   45.9112 H   0  0  0  0  0  0  0  0  0  0  0  0
   57.1142   32.9809   46.9900 H   0  0  0  0  0  0  0  0  0  0  0  0
   58.8160   31.2640   48.8520 H   0  0  0  0  0  0  0  0  0  0  0  0
   60.4410   30.5810   45.6610 H   0  0  0  0  0  0  0  0  0  0  0  0
   60.1110   28.9370   45.6890 H   0  0  0  0  0  0  0  0  0  0  0  0
   59.2172   32.1884   44.5276 H   0  0  0  0  0  0  0  0  0  0  0  0
   57.4367   32.6191   42.8396 H   0  0  0  0  0  0  0  0  0  0  0  0
   55.8488   30.8050   42.2015 H   0  0  0  0  0  0  0  0  0  0  0  0
   56.0415   28.5508   43.2483 H   0  0  0  0  0  0  0  0  0  0  0  0
  1  2  1  0
  2  3  1  0
  3  4  2  0
  4  5  1  0
  5  6  2  0
  6  7  1  0
  7  8  2  0
  8  9  1  0
  9 10  1  0
 10 11  2  0
 10 12  1  0
 12 13  1  0
 13 14  2  0
 14 15  1  0
 15 16  2  0
 16 17  1  0
 17 18  2  0
 18 19  1  0
  8  3  1  0
 18 13  1  0
  1 20  1  0
  1 21  1  0
  1 22  1  0
  4 23  1  0
  5 24  1  0
  6 25  1  0
  7 26  1  0
  9 27  1  0
 12 28  1  0
 12 29  1  0
 14 30  1  0
 15 31  1  0
 16 32  1  0
 17 33  1  0
M  CHG  1  12   1
M  END
>  <UniqueID>  (82) 
76

>  <SMILES>  (82) 
CSc1ccccc1NC(=S)[NH2+]c1ccccc1Br

>  <Energy>  (82) 
40.50509421390056

>  <Genealogy>  (82) 
CSc1ccccc1NC(=S)[NH2+]c1ccccc1Br (protonated)
CSc1ccccc1NC(=S)[NH2+]c1ccccc1Br (3D coordinates assigned)
CSc1ccccc1NC(=S)[NH2+]c1ccccc1Br (optimized conformer: 40.50509421390056 kcal/mol)

>  <smiles>  (82) 
CSc1ccccc1NC(=S)Nc1ccccc1Br

>  <score_type>  (82) 
oracle

>  <origin>  (82) 
adg

>  <m_score__min__energy>  (82) 
-6.04

>  <m_primary>  (82) 
energy

$$$$
82:0
     RDKit          3D

 40 42  0  0  0  0  0  0  0  0999 V2000
   56.0520   30.9020   44.7710 O   0  0  0  0  0  0  0  0  0  0  0  0
   57.2660   31.0850   44.4860 C   0  0  0  0  0  0  0  0  0  0  0  0
   57.6790   32.3690   43.8350 C   0  0  0  0  0  0  0  0  0  0  0  0
   58.6230   33.1100   44.7290 C   0  0  0  0  0  0  0  0  0  0  0  0
   58.7370   34.4600   44.6340 N   0  0  0  0  0  0  0  0  0  0  0  0
   59.5540   35.1520   45.4680 C   0  0  0  0  0  0  0  0  0  0  0  0
   59.6430   36.4030   45.3640 O   0  0  0  0  0  0  0  0  0  0  0  0
   60.2880   34.4760   46.4450 C   0  0  0  0  0  0  0  0  0  0  0  0
   60.1620   33.0820   46.5350 C   0  0  0  0  0  0  0  0  0  0  0  0
   60.8660   32.3340   47.5430 N   0  0  0  0  0  0  0  0  0  0  0  0
   60.1570   31.3440   48.3620 C   0  0  0  0  0  0  0  0  0  0  0  0
   61.1510   30.3150   48.9110 C   0  0  0  0  0  0  0  0  0  0  0  0
   62.2250   30.9580   49.5710 O   0  0  0  0  0  0  0  0  0  0  0  0
   62.9730   31.7160   48.6400 C   0  0  0  0  0  0  0  0  0  0  0  0
   62.1310   32.8600   48.0670 C   0  0  0  0  0  0  0  0  0  0  0  0
   59.3240   32.4380   45.6790 N   0  0  0  0  0  0  0  0  0  0  0  0
   58.2620   30.1210   44.8630 N   0  0  0  0  0  0  0  0  0  0  0  0
   57.9640   28.8170   45.3880 C   0  0  0  0  0  0  0  0  0  0  0  0
   58.9750   27.9850   45.9060 C   0  0  0  0  0  0  0  0  0  0  0  0
   58.6540   26.7300   46.4310 C   0  0  0  0  0  0  0  0  0  0  0  0
   57.3260   26.2980   46.4560 C   0  0  0  0  0  0  0  0  0  0  0  0
   56.3120   27.1250   45.9630 C   0  0  0  0  0  0  0  0  0  0  0  0
   54.9900   26.7000   45.9980 O   0  0  0  0  0  0  0  0  0  0  0  0
   56.6300   28.3820   45.4380 C   0  0  0  0  0  0  0  0  0  0  0  0
   58.1773   32.1500   42.8791 H   0  0  0  0  0  0  0  0  0  0  0  0
   56.7877   32.9881   43.6551 H   0  0  0  0  0  0  0  0  0  0  0  0
   60.9510   35.0253   47.1296 H   0  0  0  0  0  0  0  0  0  0  0  0
   59.6587   31.8532   49.2001 H   0  0  0  0  0  0  0  0  0  0  0  0
   59.4081   30.8297   47.7418 H   0  0  0  0  0  0  0  0  0  0  0  0
   60.6322   29.6564   49.6231 H   0  0  0  0  0  0  0  0  0  0  0  0
   61.5526   29.7290   48.0712 H   0  0  0  0  0  0  0  0  0  0  0  0
   63.8562   32.1358   49.1437 H   0  0  0  0  0  0  0  0  0  0  0  0
   63.2796   31.0567   47.8145 H   0  0  0  0  0  0  0  0  0  0  0  0
   61.9209   33.5916   48.8611 H   0  0  0  0  0  0  0  0  0  0  0  0
   62.6869   33.3460   47.2517 H   0  0  0  0  0  0  0  0  0  0  0  0
   59.2620   30.4250   44.8480 H   0  0  0  0  0  0  0  0  0  0  0  0
   60.0214   28.3240   45.8975 H   0  0  0  0  0  0  0  0  0  0  0  0
   59.4495   26.0808   46.8256 H   0  0  0  0  0  0  0  0  0  0  0  0
   57.0778   25.3069   46.8636 H   0  0  0  0  0  0  0  0  0  0  0  0
   55.8287   29.0347   45.0614 H   0  0  0  0  0  0  0  0  0  0  0  0
  1  2  2  0
  2  3  1  0
  3  4  1  0
  4  5  2  0
  5  6  1  0
  6  7  2  0
  6  8  1  0
  8  9  2  0
  9 10  1  0
 10 11  1  0
 11 12  1  0
 12 13  1  0
 13 14  1  0
 14 15  1  0
  9 16  1  0
  2 17  1  0
 17 18  1  0
 18 19  2  0
 19 20  1  0
 20 21  2  0
 21 22  1  0
 22 23  1  0
 22 24  2  0
 16  4  1  0
 24 18  1  0
 15 10  1  0
  3 25  1  0
  3 26  1  0
  8 27  1  0
 11 28  1  0
 11 29  1  0
 12 30  1  0
 12 31  1  0
 14 32  1  0
 14 33  1  0
 15 34  1  0
 15 35  1  0
 17 36  1  0
 19 37  1  0
 20 38  1  0
 21 39  1  0
 24 40  1  0
M  CHG  2  16  -1  23  -1
M  END
>  <UniqueID>  (83) 
77

>  <SMILES>  (83) 
O=C(Cc1nc(=O)cc(N2CCOCC2)[n-]1)Nc1cccc([O-])c1

>  <Energy>  (83) 
47.066051075111304

>  <Genealogy>  (83) 
O=C(Cc1nc(=O)cc(N2CCOCC2)[n-]1)Nc1cccc([O-])c1 (protonated)
O=C(Cc1nc(=O)cc(N2CCOCC2)[n-]1)Nc1cccc([O-])c1 (3D coordinates assigned)
O=C(Cc1nc(=O)cc(N2CCOCC2)[n-]1)Nc1cccc([O-])c1 (nonaromatic ring conformer: 47.066051075111304 kcal/mol)

>  <smiles>  (83) 
O=C(Cc1nc(=O)cc(N2CCOCC2)[nH]1)Nc1cccc(O)c1

>  <score_type>  (83) 
oracle

>  <origin>  (83) 
adg

>  <m_score__min__energy>  (83) 
-12.710000000000001

>  <m_primary>  (83) 
energy

$$$$
83:0
     RDKit          3D

 68 72  0  0  0  0  0  0  0  0999 V2000
   57.4835   25.8062   42.4208 H   0  0  0  0  0  0  0  0  0  0  0  0
   57.8000   26.1820   43.4050 C   0  0  0  0  0  0  0  0  0  0  0  0
   57.5810   25.4390   44.5160 N   0  0  0  0  0  0  0  0  0  0  0  0
   57.9430   25.8340   45.7650 C   0  0  0  0  0  0  0  0  0  0  0  0
   57.5980   25.0340   46.7420 N   0  0  0  0  0  0  0  0  0  0  0  0
   56.3110   24.5000   47.1890 C   0  0  0  0  0  0  0  0  0  0  0  0
   56.0308   24.9929   48.1316 H   0  0  0  0  0  0  0  0  0  0  0  0
   56.4237   23.4142   47.3240 H   0  0  0  0  0  0  0  0  0  0  0  0
   55.2250   24.7290   46.1830 C   0  0  0  0  0  0  0  0  0  0  0  0
   54.7640   25.8870   45.9910 O   0  0  0  0  0  0  0  0  0  0  0  0
   54.7360   23.6200   45.4210 N   0  0  0  0  0  0  0  0  0  0  0  0
   55.5720   22.7350   44.6630 C   0  0  0  0  0  0  0  0  0  0  0  0
   55.8060   23.0310   43.3140 C   0  0  0  0  0  0  0  0  0  0  0  0
   55.3272   23.9103   42.8584 H   0  0  0  0  0  0  0  0  0  0  0  0
   56.6410   22.2210   42.5420 C   0  0  0  0  0  0  0  0  0  0  0  0
   56.8304   22.4719   41.4879 H   0  0  0  0  0  0  0  0  0  0  0  0
   57.2350   21.0930   43.1090 C   0  0  0  0  0  0  0  0  0  0  0  0
   57.9088   20.4661   42.5065 H   0  0  0  0  0  0  0  0  0  0  0  0
   56.9760   20.7580   44.4400 C   0  0  0  0  0  0  0  0  0  0  0  0
   57.4430   19.8639   44.8787 H   0  0  0  0  0  0  0  0  0  0  0  0
   56.1230   21.5550   45.2230 C   0  0  0  0  0  0  0  0  0  0  0  0
   55.8160   21.1210   46.6310 C   0  0  0  0  0  0  0  0  0  0  0  0
   56.3015   21.8074   47.3404 H   0  0  0  0  0  0  0  0  0  0  0  0
   54.7278   21.1379   46.7909 H   0  0  0  0  0  0  0  0  0  0  0  0
   56.1943   20.1005   46.7909 H   0  0  0  0  0  0  0  0  0  0  0  0
   58.6280   27.0840   45.9170 C   0  0  0  0  0  0  0  0  0  0  0  0
   59.0920   27.6210   47.2160 C   0  0  0  0  0  0  0  0  0  0  0  0
   58.4520   28.7380   47.7770 C   0  0  0  0  0  0  0  0  0  0  0  0
   57.5656   29.1658   47.2857 H   0  0  0  0  0  0  0  0  0  0  0  0
   58.9370   29.3080   48.9570 C   0  0  0  0  0  0  0  0  0  0  0  0
   58.4357   30.1860   49.3904 H   0  0  0  0  0  0  0  0  0  0  0  0
   60.0600   28.7620   49.5870 C   0  0  0  0  0  0  0  0  0  0  0  0
   60.4275   29.1955   50.5288 H   0  0  0  0  0  0  0  0  0  0  0  0
   60.7150   27.6660   49.0200 C   0  0  0  0  0  0  0  0  0  0  0  0
   61.5930   27.2320   49.5207 H   0  0  0  0  0  0  0  0  0  0  0  0
   60.2570   27.1200   47.8180 C   0  0  0  0  0  0  0  0  0  0  0  0
   60.8101   26.2964   47.3428 H   0  0  0  0  0  0  0  0  0  0  0  0
   58.8600   27.8670   44.7550 C   0  0  0  0  0  0  0  0  0  0  0  0
   59.5390   29.1780   44.8180 C   0  0  0  0  0  0  0  0  0  0  0  0
   60.7830   29.2230   44.6200 O   0  0  0  0  0  0  0  0  0  0  0  0
   58.7990   30.4300   45.1160 C   0  0  0  0  0  0  0  0  0  0  0  0
   57.5630   30.7050   44.5120 C   0  0  0  0  0  0  0  0  0  0  0  0
   57.0140   29.8410   43.5720 O   0  0  0  0  0  0  0  0  0  0  0  0
   56.8720   31.8140   44.8640 N   0  0  0  0  0  0  0  0  0  0  0  0
   57.3410   32.6830   45.7930 C   0  0  0  0  0  0  0  0  0  0  0  0
   56.6420   33.6900   46.0890 O   0  0  0  0  0  0  0  0  0  0  0  0
   58.5550   32.4660   46.3960 N   0  0  0  0  0  0  0  0  0  0  0  0
   59.0890   33.4340   47.3760 C   0  0  0  0  0  0  0  0  0  0  0  0
   58.2945   34.1445   47.6478 H   0  0  0  0  0  0  0  0  0  0  0  0
   59.4331   32.8791   48.2612 H   0  0  0  0  0  0  0  0  0  0  0  0
   60.2800   34.2120   46.7970 C   0  0  0  0  0  0  0  0  0  0  0  0
   60.3598   33.9920   45.7222 H   0  0  0  0  0  0  0  0  0  0  0  0
   60.1037   35.2838   46.9704 H   0  0  0  0  0  0  0  0  0  0  0  0
   61.5770   33.8370   47.4690 C   0  0  0  0  0  0  0  0  0  0  0  0
   62.6890   33.4580   46.6990 C   0  0  0  0  0  0  0  0  0  0  0  0
   62.6163   33.4443   45.6015 H   0  0  0  0  0  0  0  0  0  0  0  0
   63.8880   33.0980   47.3220 C   0  0  0  0  0  0  0  0  0  0  0  0
   64.7582   32.8098   46.7139 H   0  0  0  0  0  0  0  0  0  0  0  0
   63.9820   33.1040   48.7170 C   0  0  0  0  0  0  0  0  0  0  0  0
   65.1470   32.7630   49.3190 F   0  0  0  0  0  0  0  0  0  0  0  0
   62.8740   33.4620   49.4900 C   0  0  0  0  0  0  0  0  0  0  0  0
   62.9456   33.4581   50.5877 H   0  0  0  0  0  0  0  0  0  0  0  0
   61.6750   33.8250   48.8700 C   0  0  0  0  0  0  0  0  0  0  0  0
   60.8042   34.1025   49.4821 H   0  0  0  0  0  0  0  0  0  0  0  0
   59.2880   31.3520   46.0620 C   0  0  0  0  0  0  0  0  0  0  0  0
   60.4150   31.1520   46.5960 O   0  0  0  0  0  0  0  0  0  0  0  0
   58.4230   27.4160   43.5080 C   0  0  0  0  0  0  0  0  0  0  0  0
   58.5723   28.0366   42.6121 H   0  0  0  0  0  0  0  0  0  0  0  0
  1  2  1  0
  2  3  1  0
  3  4  1  0
  4  5  2  0
  5  6  1  0
  6  7  1  0
  6  8  1  0
  6  9  1  0
  9 10  2  0
  9 11  1  0
 11 12  1  0
 12 13  2  0
 13 14  1  0
 13 15  1  0
 15 16  1  0
 15 17  2  0
 17 18  1  0
 17 19  1  0
 19 20  1  0
 19 21  2  0
 21 22  1  0
 22 23  1  0
 22 24  1  0
 22 25  1  0
  4 26  1  0
 26 27  1  0
 27 28  2  0
 28 29  1  0
 28 30  1  0
 30 31  1  0
 30 32  2  0
 32 33  1  0
 32 34  1  0
 34 35  1  0
 34 36  2  0
 36 37  1  0
 26 38  2  0
 38 39  1  0
 39 40  2  0
 39 41  1  0
 41 42  2  0
 42 43  1  0
 42 44  1  0
 44 45  1  0
 45 46  2  0
 45 47  1  0
 47 48  1  0
 48 49  1  0
 48 50  1  0
 48 51  1  0
 51 52  1  0
 51 53  1  0
 51 54  1  0
 54 55  2  0
 55 56  1  0
 55 57  1  0
 57 58  1  0
 57 59  2  0
 59 60  1  0
 59 61  1  0
 61 62  1  0
 61 63  2  0
 63 64  1  0
 47 65  1  0
 65 66  2  0
 38 67  1  0
 67 68  1  0
 67  2  2  0
 21 12  1  0
 36 27  1  0
 65 41  1  0
 63 54  1  0
M  CHG  4   3  -1  11  -1  43  -1  44  -1
M  END
>  <UniqueID>  (84) 
78

>  <SMILES>  (84) 
Cc1ccccc1[N-]C(=O)C/N=c1/[n-]ccc(C(=O)c2c([O-])[n-]c(=O)n(CCc3ccc(F)cc3)c2=O)c1-c1ccccc1

>  <Energy>  (84) 
109.43707007498654

>  <Genealogy>  (84) 
Cc1ccccc1[N-]C(=O)CN=c1[n-]ccc(C(=O)c2c([O-])[n-]c(=O)n(CCc3ccc(F)cc3)c2=O)c1-c1ccccc1 (protonated)
Cc1ccccc1[N-]C(=O)C/N=c1/[n-]ccc(C(=O)c2c([O-])[n-]c(=O)n(CCc3ccc(F)cc3)c2=O)c1-c1ccccc1 (cis-trans isomerization)
Cc1ccccc1[N-]C(=O)C/N=c1/[n-]ccc(C(=O)c2c([O-])[n-]c(=O)n(CCc3ccc(F)cc3)c2=O)c1-c1ccccc1 (3D coordinates assigned)
Cc1ccccc1[N-]C(=O)C/N=c1/[n-]ccc(C(=O)c2c([O-])[n-]c(=O)n(CCc3ccc(F)cc3)c2=O)c1-c1ccccc1 (optimized conformer: 109.43707007498654 kcal/mol)

>  <smiles>  (84) 
Cc1ccccc1NC(=O)CN=c1[nH]ccc(C(=O)c2c(O)[nH]c(=O)n(CCc3ccc(F)cc3)c2=O)c1-c1ccccc1

>  <score_type>  (84) 
oracle

>  <origin>  (84) 
adg

>  <m_score__min__energy>  (84) 
-16.989999999999998

>  <m_primary>  (84) 
energy

$$$$
84:0
     RDKit          3D

 45 47  0  0  0  0  0  0  0  0999 V2000
   59.2990   31.9730   45.4270 H   0  0  0  0  0  0  0  0  0  0  0  0
   59.4680   30.9940   45.2300 O   0  0  0  0  0  0  0  0  0  0  0  0
   58.4470   30.0520   45.3180 C   0  0  0  0  0  0  0  0  0  0  0  0
   58.5820   28.7480   45.7630 C   0  0  0  0  0  0  0  0  0  0  0  0
   57.3460   28.1570   45.6210 C   0  0  0  0  0  0  0  0  0  0  0  0
   56.4960   29.1340   45.1430 C   0  0  0  0  0  0  0  0  0  0  0  0
   55.1440   28.9620   44.8740 O   0  0  0  0  0  0  0  0  0  0  0  0
   57.1660   30.2930   44.9610 N   0  0  0  0  0  0  0  0  0  0  0  0
   56.6360   31.5360   44.4000 C   0  0  0  0  0  0  0  0  0  0  0  0
   55.7906   31.8782   45.0150 H   0  0  0  0  0  0  0  0  0  0  0  0
   56.3049   31.3458   43.3684 H   0  0  0  0  0  0  0  0  0  0  0  0
   57.6970   32.6050   44.3790 C   0  0  0  0  0  0  0  0  0  0  0  0
   58.5280   32.6280   43.4310 O   0  0  0  0  0  0  0  0  0  0  0  0
   57.8240   33.5800   45.4240 N   0  0  0  0  0  0  0  0  0  0  0  0
   58.3750   33.4250   46.5930 C   0  0  0  0  0  0  0  0  0  0  0  0
   58.2180   32.2930   47.3110 N   0  0  0  0  0  0  0  0  0  0  0  0
   58.9170   32.3220   48.4780 C   0  0  0  0  0  0  0  0  0  0  0  0
   58.8740   31.1640   49.4260 C   0  0  0  0  0  0  0  0  0  0  0  0
   58.8878   31.5366   50.4609 H   0  0  0  0  0  0  0  0  0  0  0  0
   57.9538   30.5856   49.2568 H   0  0  0  0  0  0  0  0  0  0  0  0
   59.7488   30.5190   49.2568 H   0  0  0  0  0  0  0  0  0  0  0  0
   59.6580   33.4930   48.6890 C   0  0  0  0  0  0  0  0  0  0  0  0
   60.5160   33.8280   49.8400 C   0  0  0  0  0  0  0  0  0  0  0  0
   60.0370   33.7790   51.0050 O   0  0  0  0  0  0  0  0  0  0  0  0
   61.8500   34.1950   49.6430 O   0  0  0  0  0  0  0  0  0  0  0  0
   62.8270   33.3010   49.1200 C   0  0  0  0  0  0  0  0  0  0  0  0
   62.5471   32.2663   49.3672 H   0  0  0  0  0  0  0  0  0  0  0  0
   63.8080   33.5306   49.5614 H   0  0  0  0  0  0  0  0  0  0  0  0
   62.9010   33.4590   47.6100 C   0  0  0  0  0  0  0  0  0  0  0  0
   63.3558   34.4301   47.3648 H   0  0  0  0  0  0  0  0  0  0  0  0
   63.5137   32.6497   47.1862 H   0  0  0  0  0  0  0  0  0  0  0  0
   61.8870   33.4116   47.1862 H   0  0  0  0  0  0  0  0  0  0  0  0
   59.4150   34.5060   47.3650 S   0  0  0  0  0  0  0  0  0  0  0  0
   57.0380   26.7470   46.0210 C   0  0  0  0  0  0  0  0  0  0  0  0
   56.3781   26.2918   45.2678 H   0  0  0  0  0  0  0  0  0  0  0  0
   56.5408   26.7533   47.0022 H   0  0  0  0  0  0  0  0  0  0  0  0
   58.3380   25.9250   46.1220 C   0  0  0  0  0  0  0  0  0  0  0  0
   58.6976   25.7012   45.1068 H   0  0  0  0  0  0  0  0  0  0  0  0
   58.1161   25.0006   46.6753 H   0  0  0  0  0  0  0  0  0  0  0  0
   59.4410   26.6890   46.8860 C   0  0  0  0  0  0  0  0  0  0  0  0
   60.3355   26.0521   46.9509 H   0  0  0  0  0  0  0  0  0  0  0  0
   59.0563   26.9340   47.8870 H   0  0  0  0  0  0  0  0  0  0  0  0
   59.8180   28.0090   46.1810 C   0  0  0  0  0  0  0  0  0  0  0  0
   60.4248   27.7846   45.2914 H   0  0  0  0  0  0  0  0  0  0  0  0
   60.3907   28.6366   46.8797 H   0  0  0  0  0  0  0  0  0  0  0  0
  1  2  1  0
  2  3  1  0
  3  4  2  0
  4  5  1  0
  5  6  2  0
  6  7  1  0
  6  8  1  0
  8  9  1  0
  9 10  1  0
  9 11  1  0
  9 12  1  0
 12 13  2  0
 12 14  1  0
 14 15  2  0
 15 16  1  0
 16 17  1  0
 17 18  1  0
 18 19  1  0
 18 20  1  0
 18 21  1  0
 17 22  2  0
 22 23  1  0
 23 24  2  0
 23 25  1  0
 25 26  1  0
 26 27  1  0
 26 28  1  0
 26 29  1  0
 29 30  1  0
 29 31  1  0
 29 32  1  0
 22 33  1  0
  5 34  1  0
 34 35  1  0
 34 36  1  0
 34 37  1  0
 37 38  1  0
 37 39  1  0
 37 40  1  0
 40 41  1  0
 40 42  1  0
 40 43  1  0
 43 44  1  0
 43 45  1  0
  8  3  1  0
 33 15  1  0
 43  4  1  0
M  CHG  2   7  -1  16  -1
M  END
>  <UniqueID>  (85) 
79

>  <SMILES>  (85) 
CCOC(=O)c1s/c(=N\C(=O)Cn2c([O-])c3c(c2O)CCCC3)[n-]c1C

>  <Energy>  (85) 
102.92489201627698

>  <Genealogy>  (85) 
CCOC(=O)c1sc(=NC(=O)Cn2c([O-])c3c(c2O)CCCC3)[n-]c1C (protonated)
CCOC(=O)c1s/c(=N\C(=O)Cn2c([O-])c3c(c2O)CCCC3)[n-]c1C (cis-trans isomerization)
CCOC(=O)c1s/c(=N\C(=O)Cn2c([O-])c3c(c2O)CCCC3)[n-]c1C (3D coordinates assigned)
CCOC(=O)c1s/c(=N\C(=O)Cn2c([O-])c3c(c2O)CCCC3)[n-]c1C (nonaromatic ring conformer: 102.92489201627698 kcal/mol)

>  <smiles>  (85) 
CCOC(=O)c1sc(=NC(=O)Cn2c(O)c3c(c2O)CCCC3)[nH]c1C

>  <score_type>  (85) 
oracle

>  <origin>  (85) 
adg

>  <m_score__min__energy>  (85) 
-11.69

>  <m_primary>  (85) 
energy

$$$$
85:0
     RDKit          3D

 31 33  0  0  0  0  0  0  0  0999 V2000
   57.1958   33.6892   43.5965 H   0  0  0  0  0  0  0  0  0  0  0  0
   57.5740   33.4660   44.6050 C   0  0  0  0  0  0  0  0  0  0  0  0
   58.1670   34.4780   45.3660 C   0  0  0  0  0  0  0  0  0  0  0  0
   58.2439   35.4966   44.9578 H   0  0  0  0  0  0  0  0  0  0  0  0
   58.6640   34.2000   46.6470 C   0  0  0  0  0  0  0  0  0  0  0  0
   59.2700   35.2360   47.4250 N   0  0  0  0  0  0  0  0  0  0  0  0
   58.9190   36.2180   47.3730 H   0  0  0  0  0  0  0  0  0  0  0  0
   60.0730   35.0280   48.0590 H   0  0  0  0  0  0  0  0  0  0  0  0
   58.5710   32.8980   47.1560 C   0  0  0  0  0  0  0  0  0  0  0  0
   58.9648   32.6713   48.1578 H   0  0  0  0  0  0  0  0  0  0  0  0
   57.9790   31.8860   46.3940 C   0  0  0  0  0  0  0  0  0  0  0  0
   57.9214   30.8636   46.7958 H   0  0  0  0  0  0  0  0  0  0  0  0
   57.4590   32.1630   45.1240 C   0  0  0  0  0  0  0  0  0  0  0  0
   56.8810   31.0890   44.3690 N   0  0  0  0  0  0  0  0  0  0  0  0
   56.4190   29.8310   44.8800 C   0  0  0  0  0  0  0  0  0  0  0  0
   55.2330   29.4630   44.6740 O   0  0  0  0  0  0  0  0  0  0  0  0
   57.2620   28.9990   45.6910 N   0  0  0  0  0  0  0  0  0  0  0  0
   57.1730   27.7160   45.8970 C   0  0  0  0  0  0  0  0  0  0  0  0
   58.4110   26.6900   46.4540 S   0  0  0  0  0  0  0  0  0  0  0  0
   57.4210   25.3340   46.3890 C   0  0  0  0  0  0  0  0  0  0  0  0
   57.7260   24.0160   46.7130 C   0  0  0  0  0  0  0  0  0  0  0  0
   58.7293   23.7392   47.0691 H   0  0  0  0  0  0  0  0  0  0  0  0
   56.7180   23.0490   46.5730 C   0  0  0  0  0  0  0  0  0  0  0  0
   56.9294   21.9987   46.8223 H   0  0  0  0  0  0  0  0  0  0  0  0
   55.4370   23.4160   46.1150 C   0  0  0  0  0  0  0  0  0  0  0  0
   54.6548   22.6500   46.0079 H   0  0  0  0  0  0  0  0  0  0  0  0
   55.1520   24.7550   45.7940 C   0  0  0  0  0  0  0  0  0  0  0  0
   54.1528   25.0455   45.4372 H   0  0  0  0  0  0  0  0  0  0  0  0
   56.1630   25.7100   45.9370 C   0  0  0  0  0  0  0  0  0  0  0  0
   56.0260   27.0320   45.6640 N   0  0  0  0  0  0  0  0  0  0  0  0
   55.1440   27.4710   45.3140 H   0  0  0  0  0  0  0  0  0  0  0  0
  1  2  1  0
  2  3  2  0
  3  4  1  0
  3  5  1  0
  5  6  1  0
  6  7  1  0
  6  8  1  0
  5  9  2  0
  9 10  1  0
  9 11  1  0
 11 12  1  0
 11 13  2  0
 13 14  1  0
 14 15  1  0
 15 16  2  0
 15 17  1  0
 17 18  2  0
 18 19  1  0
 19 20  1  0
 20 21  2  0
 21 22  1  0
 21 23  1  0
 23 24  1  0
 23 25  2  0
 25 26  1  0
 25 27  1  0
 27 28  1  0
 27 29  2  0
 29 30  1  0
 30 31  1  0
 13  2  1  0
 30 18  1  0
 29 20  1  0
M  CHG  1  14  -1
M  END
>  <UniqueID>  (86) 
80

>  <SMILES>  (86) 
Nc1ccc([N-]C(=O)/N=c2/[nH]c3ccccc3s2)cc1

>  <Energy>  (86) 
74.57246426514175

>  <Genealogy>  (86) 
Nc1ccc([N-]C(=O)N=c2[nH]c3ccccc3s2)cc1 (protonated)
Nc1ccc([N-]C(=O)/N=c2/[nH]c3ccccc3s2)cc1 (cis-trans isomerization)
Nc1ccc([N-]C(=O)/N=c2/[nH]c3ccccc3s2)cc1 (3D coordinates assigned)
Nc1ccc([N-]C(=O)/N=c2/[nH]c3ccccc3s2)cc1 (optimized conformer: 74.57246426514175 kcal/mol)

>  <smiles>  (86) 
Nc1ccc(NC(=O)N=c2[nH]c3ccccc3s2)cc1

>  <score_type>  (86) 
oracle

>  <origin>  (86) 
adg

>  <m_score__min__energy>  (86) 
-8.8499999999999996

>  <m_primary>  (86) 
energy

$$$$
86:0
     RDKit          3D

 60 63  0  0  0  0  0  0  0  0999 V2000
   65.6080   30.8370   51.9620 C   0  0  0  0  0  0  0  0  0  0  0  0
   64.2460   30.6390   52.3320 O   0  0  0  0  0  0  0  0  0  0  0  0
   63.2120   30.3460   51.4280 C   0  0  0  0  0  0  0  0  0  0  0  0
   62.5420   29.1090   51.4360 C   0  0  0  0  0  0  0  0  0  0  0  0
   61.5190   28.8510   50.5210 C   0  0  0  0  0  0  0  0  0  0  0  0
   61.1260   29.8280   49.5990 C   0  0  0  0  0  0  0  0  0  0  0  0
   60.1000   29.5170   48.6380 N   0  0  0  0  0  0  0  0  0  0  0  0
   60.2780   29.5910   47.2130 C   0  0  0  0  0  0  0  0  0  0  0  0
   61.0190   30.4900   46.7280 O   0  0  0  0  0  0  0  0  0  0  0  0
   59.5710   28.6530   46.3030 C   0  0  0  0  0  0  0  0  0  0  0  0
   59.7720   28.6960   44.9140 C   0  0  0  0  0  0  0  0  0  0  0  0
   59.0720   27.8260   44.0790 C   0  0  0  0  0  0  0  0  0  0  0  0
   58.1750   26.9130   44.6330 C   0  0  0  0  0  0  0  0  0  0  0  0
   57.9900   26.8570   45.9840 N   0  0  0  0  0  0  0  0  0  0  0  0
   57.0140   25.9210   46.5460 C   0  0  0  0  0  0  0  0  0  0  0  0
   58.6550   27.7160   46.8160 C   0  0  0  0  0  0  0  0  0  0  0  0
   61.7950   31.0660   49.5900 C   0  0  0  0  0  0  0  0  0  0  0  0
   62.8490   31.3210   50.4860 C   0  0  0  0  0  0  0  0  0  0  0  0
   63.5440   32.5800   50.4850 N   0  0  0  0  0  0  0  0  0  0  0  0
   63.0460   33.8340   49.9950 C   0  0  0  0  0  0  0  0  0  0  0  0
   63.3840   34.8910   50.5910 O   0  0  0  0  0  0  0  0  0  0  0  0
   62.1850   33.9230   48.7950 C   0  0  0  0  0  0  0  0  0  0  0  0
   60.8720   34.4080   48.9050 C   0  0  0  0  0  0  0  0  0  0  0  0
   60.0320   34.4310   47.7880 C   0  0  0  0  0  0  0  0  0  0  0  0
   60.4880   33.9680   46.5470 C   0  0  0  0  0  0  0  0  0  0  0  0
   59.6030   33.9870   45.4150 N   0  0  0  0  0  0  0  0  0  0  0  0
   58.7290   32.9030   45.0510 C   0  0  0  0  0  0  0  0  0  0  0  0
   58.2310   32.8300   43.7430 C   0  0  0  0  0  0  0  0  0  0  0  0
   57.3510   31.8080   43.3720 C   0  0  0  0  0  0  0  0  0  0  0  0
   56.9420   30.8450   44.3110 C   0  0  0  0  0  0  0  0  0  0  0  0
   56.0070   29.7680   43.9190 C   0  0  0  0  0  0  0  0  0  0  0  0
   55.9740   29.3470   42.7310 O   0  0  0  0  0  0  0  0  0  0  0  0
   55.1470   29.2060   44.8570 O   0  0  0  0  0  0  0  0  0  0  0  0
   57.4260   30.9290   45.6290 C   0  0  0  0  0  0  0  0  0  0  0  0
   58.3020   31.9540   45.9970 C   0  0  0  0  0  0  0  0  0  0  0  0
   61.8200   33.5420   46.4220 C   0  0  0  0  0  0  0  0  0  0  0  0
   62.6600   33.5170   47.5380 C   0  0  0  0  0  0  0  0  0  0  0  0
   66.2249   30.9267   52.8683 H   0  0  0  0  0  0  0  0  0  0  0  0
   65.9544   29.9798   51.3660 H   0  0  0  0  0  0  0  0  0  0  0  0
   65.6960   31.7574   51.3660 H   0  0  0  0  0  0  0  0  0  0  0  0
   62.8261   28.3391   52.1685 H   0  0  0  0  0  0  0  0  0  0  0  0
   61.0179   27.8718   50.5249 H   0  0  0  0  0  0  0  0  0  0  0  0
   59.1520   29.2630   48.9980 H   0  0  0  0  0  0  0  0  0  0  0  0
   60.4827   29.4171   44.4840 H   0  0  0  0  0  0  0  0  0  0  0  0
   59.2262   27.8595   42.9904 H   0  0  0  0  0  0  0  0  0  0  0  0
   57.6125   26.2331   43.9762 H   0  0  0  0  0  0  0  0  0  0  0  0
   57.0569   25.9621   47.6444 H   0  0  0  0  0  0  0  0  0  0  0  0
   56.0043   26.1971   46.2079 H   0  0  0  0  0  0  0  0  0  0  0  0
   57.2477   24.9007   46.2079 H   0  0  0  0  0  0  0  0  0  0  0  0
   58.4712   27.6736   47.8997 H   0  0  0  0  0  0  0  0  0  0  0  0
   61.4902   31.8434   48.8739 H   0  0  0  0  0  0  0  0  0  0  0  0
   60.5025   34.7717   49.8751 H   0  0  0  0  0  0  0  0  0  0  0  0
   59.0058   34.8153   47.8841 H   0  0  0  0  0  0  0  0  0  0  0  0
   59.5610   34.8620   44.8440 H   0  0  0  0  0  0  0  0  0  0  0  0
   58.5350   33.5833   43.0013 H   0  0  0  0  0  0  0  0  0  0  0  0
   56.9766   31.7575   42.3389 H   0  0  0  0  0  0  0  0  0  0  0  0
   57.1131   30.1834   46.3747 H   0  0  0  0  0  0  0  0  0  0  0  0
   58.6604   32.0190   47.0350 H   0  0  0  0  0  0  0  0  0  0  0  0
   62.2040   33.2264   45.4407 H   0  0  0  0  0  0  0  0  0  0  0  0
   63.7006   33.1769   47.4310 H   0  0  0  0  0  0  0  0  0  0  0  0
  1  2  1  0
  2  3  1  0
  3  4  2  0
  4  5  1  0
  5  6  2  0
  6  7  1  0
  7  8  1  0
  8  9  2  0
  8 10  1  0
 10 11  2  0
 11 12  1  0
 12 13  2  0
 13 14  1  0
 14 15  1  0
 14 16  2  0
  6 17  1  0
 17 18  2  0
 18 19  1  0
 19 20  1  0
 20 21  2  0
 20 22  1  0
 22 23  2  0
 23 24  1  0
 24 25  2  0
 25 26  1  0
 26 27  1  0
 27 28  2  0
 28 29  1  0
 29 30  2  0
 30 31  1  0
 31 32  2  0
 31 33  1  0
 30 34  1  0
 34 35  2  0
 25 36  1  0
 36 37  2  0
 18  3  1  0
 37 22  1  0
 16 10  1  0
 35 27  1  0
  1 38  1  0
  1 39  1  0
  1 40  1  0
  4 41  1  0
  5 42  1  0
  7 43  1  0
 11 44  1  0
 12 45  1  0
 13 46  1  0
 15 47  1  0
 15 48  1  0
 15 49  1  0
 16 50  1  0
 17 51  1  0
 23 52  1  0
 24 53  1  0
 26 54  1  0
 28 55  1  0
 29 56  1  0
 34 57  1  0
 35 58  1  0
 36 59  1  0
 37 60  1  0
M  CHG  3  14   1  19  -1  33  -1
M  END
>  <UniqueID>  (87) 
81

>  <SMILES>  (87) 
COc1ccc(NC(=O)c2ccc[n+](C)c2)cc1[N-]C(=O)c1ccc(Nc2ccc(C(=O)[O-])cc2)cc1

>  <Energy>  (87) 
79.58615875138379

>  <Genealogy>  (87) 
COc1ccc(NC(=O)c2ccc[n+](C)c2)cc1[N-]C(=O)c1ccc(Nc2ccc(C(=O)[O-])cc2)cc1 (protonated)
COc1ccc(NC(=O)c2ccc[n+](C)c2)cc1[N-]C(=O)c1ccc(Nc2ccc(C(=O)[O-])cc2)cc1 (3D coordinates assigned)
COc1ccc(NC(=O)c2ccc[n+](C)c2)cc1[N-]C(=O)c1ccc(Nc2ccc(C(=O)[O-])cc2)cc1 (optimized conformer: 79.58615875138379 kcal/mol)

>  <smiles>  (87) 
COc1ccc(NC(=O)c2ccc[n+](C)c2)cc1NC(=O)c1ccc(Nc2ccc(C(=O)O)cc2)cc1

>  <score_type>  (87) 
oracle

>  <origin>  (87) 
adg

>  <m_score__min__energy>  (87) 
-10.869999999999999

>  <m_primary>  (87) 
energy

$$$$
87:0
     RDKit          3D

 33 35  0  0  0  0  0  0  0  0999 V2000
   56.0022   30.6044   44.5597 H   0  0  0  0  0  0  0  0  0  0  0  0
   56.3500   29.5610   44.5440 C   0  0  0  0  0  0  0  0  0  0  0  0
   55.7251   28.7798   44.0866 H   0  0  0  0  0  0  0  0  0  0  0  0
   57.5370   29.2410   45.0830 C   0  0  0  0  0  0  0  0  0  0  0  0
   58.1270   27.9670   45.1470 C   0  0  0  0  0  0  0  0  0  0  0  0
   57.6310   26.7450   44.8720 C   0  0  0  0  0  0  0  0  0  0  0  0
   57.6312   26.4279   43.8187 H   0  0  0  0  0  0  0  0  0  0  0  0
   57.0890   25.7980   45.8590 C   0  0  0  0  0  0  0  0  0  0  0  0
   57.7400   24.7110   46.3150 N   0  0  0  0  0  0  0  0  0  0  0  0
   56.8100   24.0850   47.0690 C   0  0  0  0  0  0  0  0  0  0  0  0
   57.0480   23.0160   47.6890 O   0  0  0  0  0  0  0  0  0  0  0  0
   55.6010   24.6870   47.0950 N   0  0  0  0  0  0  0  0  0  0  0  0
   55.7930   25.7610   46.3110 C   0  0  0  0  0  0  0  0  0  0  0  0
   54.8010   26.6860   46.0110 O   0  0  0  0  0  0  0  0  0  0  0  0
   59.4210   28.1640   45.6050 C   0  0  0  0  0  0  0  0  0  0  0  0
   60.1924   27.3917   45.7411 H   0  0  0  0  0  0  0  0  0  0  0  0
   59.5560   29.5120   45.8570 C   0  0  0  0  0  0  0  0  0  0  0  0
   60.7900   30.1630   46.4030 C   0  0  0  0  0  0  0  0  0  0  0  0
   60.7577   30.1460   47.5024 H   0  0  0  0  0  0  0  0  0  0  0  0
   61.6782   29.6161   46.0537 H   0  0  0  0  0  0  0  0  0  0  0  0
   60.8401   31.2049   46.0537 H   0  0  0  0  0  0  0  0  0  0  0  0
   58.4130   30.1640   45.5520 N   0  0  0  0  0  0  0  0  0  0  0  0
   58.2210   31.5850   45.6430 C   0  0  0  0  0  0  0  0  0  0  0  0
   58.1960   32.2080   46.9000 C   0  0  0  0  0  0  0  0  0  0  0  0
   58.3144   31.6061   47.8131 H   0  0  0  0  0  0  0  0  0  0  0  0
   58.0210   33.5920   46.9950 C   0  0  0  0  0  0  0  0  0  0  0  0
   57.9981   34.0764   47.9823 H   0  0  0  0  0  0  0  0  0  0  0  0
   57.8750   34.3610   45.8360 C   0  0  0  0  0  0  0  0  0  0  0  0
   57.7358   35.4495   45.9121 H   0  0  0  0  0  0  0  0  0  0  0  0
   57.9060   33.7460   44.5800 C   0  0  0  0  0  0  0  0  0  0  0  0
   57.7927   34.3518   43.6689 H   0  0  0  0  0  0  0  0  0  0  0  0
   58.0810   32.3610   44.4810 C   0  0  0  0  0  0  0  0  0  0  0  0
   58.1270   31.7770   43.2570 F   0  0  0  0  0  0  0  0  0  0  0  0
  1  2  1  0
  2  3  1  0
  2  4  2  0
  4  5  1  0
  5  6  2  0
  6  7  1  0
  6  8  1  0
  8  9  1  0
  9 10  1  0
 10 11  2  0
 10 12  1  0
 12 13  1  0
 13 14  1  0
  5 15  1  0
 15 16  1  0
 15 17  2  0
 17 18  1  0
 18 19  1  0
 18 20  1  0
 18 21  1  0
 17 22  1  0
 22 23  1  0
 23 24  2  0
 24 25  1  0
 24 26  1  0
 26 27  1  0
 26 28  2  0
 28 29  1  0
 28 30  1  0
 30 31  1  0
 30 32  2  0
 32 33  1  0
 22  4  1  0
 32 23  1  0
 13  8  2  0
M  CHG  3   9  -1  12  -1  14  -1
M  END
>  <UniqueID>  (88) 
82

>  <SMILES>  (88) 
C=c1/c(=C\c2[n-]c(=O)[n-]c2[O-])cc(C)n1-c1ccccc1F

>  <Energy>  (88) 
110.88190011297448

>  <Genealogy>  (88) 
C=c1c(=Cc2[n-]c(=O)[n-]c2[O-])cc(C)n1-c1ccccc1F (protonated)
C=c1/c(=C\c2[n-]c(=O)[n-]c2[O-])cc(C)n1-c1ccccc1F (cis-trans isomerization)
C=c1/c(=C\c2[n-]c(=O)[n-]c2[O-])cc(C)n1-c1ccccc1F (3D coordinates assigned)
C=c1/c(=C\c2[n-]c(=O)[n-]c2[O-])cc(C)n1-c1ccccc1F (optimized conformer: 110.88190011297448 kcal/mol)

>  <smiles>  (88) 
C=c1c(=Cc2[nH]c(=O)[nH]c2O)cc(C)n1-c1ccccc1F

>  <score_type>  (88) 
oracle

>  <origin>  (88) 
adg

>  <m_score__min__energy>  (88) 
-15.02

>  <m_primary>  (88) 
energy

$$$$
88:0
     RDKit          3D

 68 71  0  0  0  0  0  0  0  0999 V2000
   57.7590   27.1020   43.3790 N   0  0  0  0  0  0  0  0  0  0  0  0
   57.9630   26.9230   44.7870 C   0  0  0  0  0  0  0  0  0  0  0  0
   58.9130   25.9930   45.2340 C   0  0  0  0  0  0  0  0  0  0  0  0
   59.1180   25.7950   46.6030 C   0  0  0  0  0  0  0  0  0  0  0  0
   58.3790   26.5260   47.5340 C   0  0  0  0  0  0  0  0  0  0  0  0
   57.4330   27.4580   47.1020 C   0  0  0  0  0  0  0  0  0  0  0  0
   57.2080   27.6580   45.7270 C   0  0  0  0  0  0  0  0  0  0  0  0
   56.2690   28.6430   45.2670 N   0  0  0  0  0  0  0  0  0  0  0  0
   56.5480   29.7070   44.3500 C   0  0  0  0  0  0  0  0  0  0  0  0
   56.0210   29.6630   43.2040 O   0  0  0  0  0  0  0  0  0  0  0  0
   57.3810   30.8790   44.7310 C   0  0  0  0  0  0  0  0  0  0  0  0
   57.1360   32.1350   44.1450 C   0  0  0  0  0  0  0  0  0  0  0  0
   57.8740   33.2580   44.5270 C   0  0  0  0  0  0  0  0  0  0  0  0
   58.8810   33.1470   45.4960 C   0  0  0  0  0  0  0  0  0  0  0  0
   59.6690   34.3630   45.9050 C   0  0  0  0  0  0  0  0  0  0  0  0
   60.8580   33.9700   46.6560 N   0  0  0  0  0  0  0  0  0  0  0  0
   60.9070   34.0150   48.0940 C   0  0  0  0  0  0  0  0  0  0  0  0
   59.8450   34.2320   48.7420 O   0  0  0  0  0  0  0  0  0  0  0  0
   62.1810   33.8050   48.8300 C   0  0  0  0  0  0  0  0  0  0  0  0
   62.2920   34.2130   50.1710 C   0  0  0  0  0  0  0  0  0  0  0  0
   63.4940   34.0570   50.8690 C   0  0  0  0  0  0  0  0  0  0  0  0
   64.6150   33.4830   50.2400 C   0  0  0  0  0  0  0  0  0  0  0  0
   65.8600   33.3140   50.8740 O   0  0  0  0  0  0  0  0  0  0  0  0
   66.8200   32.2860   50.6150 C   0  0  0  0  0  0  0  0  0  0  0  0
   66.7660   31.2000   51.6940 C   0  0  0  0  0  0  0  0  0  0  0  0
   65.9090   30.0860   51.3080 N   0  0  0  0  0  0  0  0  0  0  0  0
   64.5570   29.9380   51.7460 C   0  0  0  0  0  0  0  0  0  0  0  0
   64.3040   29.4400   52.8800 O   0  0  0  0  0  0  0  0  0  0  0  0
   63.5190   30.3550   50.9070 O   0  0  0  0  0  0  0  0  0  0  0  0
   62.3570   31.0420   51.3700 C   0  0  0  0  0  0  0  0  0  0  0  0
   61.1660   30.7410   50.4990 C   0  0  0  0  0  0  0  0  0  0  0  0
   61.2290   29.7240   49.5310 C   0  0  0  0  0  0  0  0  0  0  0  0
   60.1280   29.4630   48.7090 C   0  0  0  0  0  0  0  0  0  0  0  0
   58.9560   30.2130   48.8470 C   0  0  0  0  0  0  0  0  0  0  0  0
   58.8820   31.2230   49.8110 C   0  0  0  0  0  0  0  0  0  0  0  0
   59.9820   31.4860   50.6370 C   0  0  0  0  0  0  0  0  0  0  0  0
   64.5030   33.0750   48.9050 C   0  0  0  0  0  0  0  0  0  0  0  0
   63.3050   33.2400   48.2030 C   0  0  0  0  0  0  0  0  0  0  0  0
   59.1310   31.9000   46.0870 C   0  0  0  0  0  0  0  0  0  0  0  0
   58.3830   30.7780   45.7170 C   0  0  0  0  0  0  0  0  0  0  0  0
   56.9950   27.7210   43.0260 H   0  0  0  0  0  0  0  0  0  0  0  0
   58.3710   26.6340   42.6750 H   0  0  0  0  0  0  0  0  0  0  0  0
   59.4999   25.4164   44.5039 H   0  0  0  0  0  0  0  0  0  0  0  0
   59.8628   25.0620   46.9465 H   0  0  0  0  0  0  0  0  0  0  0  0
   58.5419   26.3678   48.6103 H   0  0  0  0  0  0  0  0  0  0  0  0
   56.8606   28.0389   47.8402 H   0  0  0  0  0  0  0  0  0  0  0  0
   56.3544   32.2335   43.3773 H   0  0  0  0  0  0  0  0  0  0  0  0
   57.6639   34.2340   44.0652 H   0  0  0  0  0  0  0  0  0  0  0  0
   59.9752   34.9161   45.0048 H   0  0  0  0  0  0  0  0  0  0  0  0
   59.0380   34.9992   46.5431 H   0  0  0  0  0  0  0  0  0  0  0  0
   61.6720   33.6040   46.1110 H   0  0  0  0  0  0  0  0  0  0  0  0
   61.4236   34.6600   50.6770 H   0  0  0  0  0  0  0  0  0  0  0  0
   63.5639   34.3851   51.9166 H   0  0  0  0  0  0  0  0  0  0  0  0
   66.6055   31.8318   49.6364 H   0  0  0  0  0  0  0  0  0  0  0  0
   67.8242   32.7350   50.6196 H   0  0  0  0  0  0  0  0  0  0  0  0
   67.7840   30.8210   51.8671 H   0  0  0  0  0  0  0  0  0  0  0  0
   66.3471   31.6494   52.6064 H   0  0  0  0  0  0  0  0  0  0  0  0
   62.1383   30.7240   52.4001 H   0  0  0  0  0  0  0  0  0  0  0  0
   62.5527   32.1238   51.3325 H   0  0  0  0  0  0  0  0  0  0  0  0
   62.1485   29.1306   49.4194 H   0  0  0  0  0  0  0  0  0  0  0  0
   60.1841   28.6663   47.9526 H   0  0  0  0  0  0  0  0  0  0  0  0
   58.0923   30.0084   48.1972 H   0  0  0  0  0  0  0  0  0  0  0  0
   57.9591   31.8115   49.9207 H   0  0  0  0  0  0  0  0  0  0  0  0
   59.9192   32.2788   51.3969 H   0  0  0  0  0  0  0  0  0  0  0  0
   65.3685   32.6189   48.4022 H   0  0  0  0  0  0  0  0  0  0  0  0
   63.2416   32.9249   47.1510 H   0  0  0  0  0  0  0  0  0  0  0  0
   59.9207   31.8039   46.8467 H   0  0  0  0  0  0  0  0  0  0  0  0
   58.5782   29.8088   46.1993 H   0  0  0  0  0  0  0  0  0  0  0  0
  1  2  1  0
  2  3  2  0
  3  4  1  0
  4  5  2  0
  5  6  1  0
  6  7  2  0
  7  8  1  0
  8  9  1  0
  9 10  2  0
  9 11  1  0
 11 12  2  0
 12 13  1  0
 13 14  2  0
 14 15  1  0
 15 16  1  0
 16 17  1  0
 17 18  2  0
 17 19  1  0
 19 20  2  0
 20 21  1  0
 21 22  2  0
 22 23  1  0
 23 24  1  0
 24 25  1  0
 25 26  1  0
 26 27  1  0
 27 28  2  0
 27 29  1  0
 29 30  1  0
 30 31  1  0
 31 32  2  0
 32 33  1  0
 33 34  2  0
 34 35  1  0
 35 36  2  0
 22 37  1  0
 37 38  2  0
 14 39  1  0
 39 40  2  0
  7  2  1  0
 40 11  1  0
 38 19  1  0
 36 31  1  0
  1 41  1  0
  1 42  1  0
  3 43  1  0
  4 44  1  0
  5 45  1  0
  6 46  1  0
 12 47  1  0
 13 48  1  0
 15 49  1  0
 15 50  1  0
 16 51  1  0
 20 52  1  0
 21 53  1  0
 24 54  1  0
 24 55  1  0
 25 56  1  0
 25 57  1  0
 30 58  1  0
 30 59  1  0
 32 60  1  0
 33 61  1  0
 34 62  1  0
 35 63  1  0
 36 64  1  0
 37 65  1  0
 38 66  1  0
 39 67  1  0
 40 68  1  0
M  CHG  2   8  -1  26  -1
M  END
>  <UniqueID>  (89) 
83

>  <SMILES>  (89) 
Nc1ccccc1[N-]C(=O)c1ccc(CNC(=O)c2ccc(OCC[N-]C(=O)OCc3ccccc3)cc2)cc1

>  <Energy>  (89) 
78.04865718027126

>  <Genealogy>  (89) 
Nc1ccccc1[N-]C(=O)c1ccc(CNC(=O)c2ccc(OCC[N-]C(=O)OCc3ccccc3)cc2)cc1 (protonated)
Nc1ccccc1[N-]C(=O)c1ccc(CNC(=O)c2ccc(OCC[N-]C(=O)OCc3ccccc3)cc2)cc1 (3D coordinates assigned)
Nc1ccccc1[N-]C(=O)c1ccc(CNC(=O)c2ccc(OCC[N-]C(=O)OCc3ccccc3)cc2)cc1 (optimized conformer: 78.04865718027126 kcal/mol)

>  <smiles>  (89) 
Nc1ccccc1NC(=O)c1ccc(CNC(=O)c2ccc(OCCNC(=O)OCc3ccccc3)cc2)cc1

>  <score_type>  (89) 
oracle

>  <origin>  (89) 
adg

>  <m_score__min__energy>  (89) 
-11.640000000000001

>  <m_primary>  (89) 
energy

$$$$
89:0
     RDKit          3D

 48 50  0  0  0  0  0  0  0  0999 V2000
   58.7560   28.8380   46.8090 O   0  0  0  0  0  0  0  0  0  0  0  0
   57.8300   28.2930   46.1510 C   0  0  0  0  0  0  0  0  0  0  0  0
   57.0200   27.2720   46.7440 N   0  0  0  0  0  0  0  0  0  0  0  0
   56.8110   26.0460   46.3430 C   0  0  0  0  0  0  0  0  0  0  0  0
   57.8920   25.2250   46.2410 N   0  0  0  0  0  0  0  0  0  0  0  0
   57.7970   23.9270   45.8470 C   0  0  0  0  0  0  0  0  0  0  0  0
   56.5530   23.3860   45.5280 C   0  0  0  0  0  0  0  0  0  0  0  0
   55.4210   24.1970   45.6010 C   0  0  0  0  0  0  0  0  0  0  0  0
   55.5360   25.5350   45.9840 C   0  0  0  0  0  0  0  0  0  0  0  0
   54.3980   26.3310   45.9330 O   0  0  0  0  0  0  0  0  0  0  0  0
   57.6670   28.5930   44.7660 N   0  0  0  0  0  0  0  0  0  0  0  0
   56.6320   29.8630   44.2020 S   0  0  0  0  0  0  0  0  0  0  0  0
   55.2950   29.7580   44.8770 O   0  0  0  0  0  0  0  0  0  0  0  0
   56.4370   29.7280   42.7170 O   0  0  0  0  0  0  0  0  0  0  0  0
   57.3690   31.4190   44.5410 C   0  0  0  0  0  0  0  0  0  0  0  0
   57.7160   32.3630   43.5870 C   0  0  0  0  0  0  0  0  0  0  0  0
   58.3870   33.4640   44.1240 C   0  0  0  0  0  0  0  0  0  0  0  0
   58.5820   33.3690   45.5030 C   0  0  0  0  0  0  0  0  0  0  0  0
   59.3070   34.3590   46.3670 C   0  0  0  0  0  0  0  0  0  0  0  0
   60.8270   34.1670   46.3110 C   0  0  0  0  0  0  0  0  0  0  0  0
   61.3660   33.9290   47.6500 N   0  0  0  0  0  0  0  0  0  0  0  0
   61.3720   32.2260   47.9880 S   0  0  0  0  0  0  0  0  0  0  0  0
   61.1590   31.4700   46.7100 O   0  0  0  0  0  0  0  0  0  0  0  0
   62.7050   31.8300   48.5570 O   0  0  0  0  0  0  0  0  0  0  0  0
   60.0830   31.8200   49.1180 C   0  0  0  0  0  0  0  0  0  0  0  0
   59.5950   30.5100   49.1710 C   0  0  0  0  0  0  0  0  0  0  0  0
   58.5580   30.1770   50.0450 C   0  0  0  0  0  0  0  0  0  0  0  0
   57.9890   31.1560   50.8780 C   0  0  0  0  0  0  0  0  0  0  0  0
   56.8960   30.8070   51.8130 C   0  0  0  0  0  0  0  0  0  0  0  0
   56.5800   29.6030   52.0100 O   0  0  0  0  0  0  0  0  0  0  0  0
   56.1980   31.8010   52.4800 O   0  0  0  0  0  0  0  0  0  0  0  0
   58.4800   32.4740   50.8180 C   0  0  0  0  0  0  0  0  0  0  0  0
   59.5210   32.8010   49.9460 C   0  0  0  0  0  0  0  0  0  0  0  0
   57.9220   31.9170   46.0510 S   0  0  0  0  0  0  0  0  0  0  0  0
   58.7014   23.3045   45.7801 H   0  0  0  0  0  0  0  0  0  0  0  0
   56.4652   22.3329   45.2226 H   0  0  0  0  0  0  0  0  0  0  0  0
   54.4327   23.7808   45.3557 H   0  0  0  0  0  0  0  0  0  0  0  0
   57.4864   32.2559   42.5166 H   0  0  0  0  0  0  0  0  0  0  0  0
   58.7272   34.3191   43.5215 H   0  0  0  0  0  0  0  0  0  0  0  0
   59.0647   35.3752   46.0225 H   0  0  0  0  0  0  0  0  0  0  0  0
   58.9834   34.2030   47.4067 H   0  0  0  0  0  0  0  0  0  0  0  0
   61.0589   33.3041   45.6694 H   0  0  0  0  0  0  0  0  0  0  0  0
   61.2847   35.0797   45.9017 H   0  0  0  0  0  0  0  0  0  0  0  0
   62.3630   34.2440   47.6590 H   0  0  0  0  0  0  0  0  0  0  0  0
   60.0308   29.7376   48.5203 H   0  0  0  0  0  0  0  0  0  0  0  0
   58.1844   29.1430   50.0818 H   0  0  0  0  0  0  0  0  0  0  0  0
   58.0413   33.2508   51.4615 H   0  0  0  0  0  0  0  0  0  0  0  0
   59.9011   33.8326   49.9091 H   0  0  0  0  0  0  0  0  0  0  0  0
  1  2  2  0
  2  3  1  0
  3  4  2  3
  4  5  1  0
  5  6  1  0
  6  7  2  0
  7  8  1  0
  8  9  2  0
  9 10  1  0
  2 11  1  0
 11 12  1  0
 12 13  2  0
 12 14  2  0
 12 15  1  0
 15 16  2  0
 16 17  1  0
 17 18  2  0
 18 19  1  0
 19 20  1  0
 20 21  1  0
 21 22  1  0
 22 23  2  0
 22 24  2  0
 22 25  1  0
 25 26  2  0
 26 27  1  0
 27 28  2  0
 28 29  1  0
 29 30  2  0
 29 31  1  0
 28 32  1  0
 32 33  2  0
 18 34  1  0
  9  4  1  0
 34 15  1  0
 33 25  1  0
  6 35  1  0
  7 36  1  0
  8 37  1  0
 16 38  1  0
 17 39  1  0
 19 40  1  0
 19 41  1  0
 20 42  1  0
 20 43  1  0
 21 44  1  0
 26 45  1  0
 27 46  1  0
 32 47  1  0
 33 48  1  0
M  CHG  4   5  -1  10  -1  11  -1  31  -1
M  END
>  <UniqueID>  (90) 
84

>  <SMILES>  (90) 
O=C(N=c1[n-]cccc1[O-])[N-]S(=O)(=O)c1ccc(CCNS(=O)(=O)c2ccc(C(=O)[O-])cc2)s1

>  <Energy>  (90) 
87.06596868403064

>  <Genealogy>  (90) 
O=C(N=c1[n-]cccc1[O-])[N-]S(=O)(=O)c1ccc(CCNS(=O)(=O)c2ccc(C(=O)[O-])cc2)s1 (protonated)
O=C(N=c1[n-]cccc1[O-])[N-]S(=O)(=O)c1ccc(CCNS(=O)(=O)c2ccc(C(=O)[O-])cc2)s1 (3D coordinates assigned)
O=C(N=c1[n-]cccc1[O-])[N-]S(=O)(=O)c1ccc(CCNS(=O)(=O)c2ccc(C(=O)[O-])cc2)s1 (optimized conformer: 87.06596868403064 kcal/mol)

>  <smiles>  (90) 
O=C(N=c1[nH]cccc1O)NS(=O)(=O)c1ccc(CCNS(=O)(=O)c2ccc(C(=O)O)cc2)s1

>  <score_type>  (90) 
oracle

>  <origin>  (90) 
adg

>  <m_score__min__energy>  (90) 
-19.329999999999998

>  <m_primary>  (90) 
energy

$$$$
90:0
     RDKit          3D

 39 41  0  0  0  0  0  0  0  0999 V2000
   57.5480   30.9480   43.1390 O   0  0  0  0  0  0  0  0  0  0  0  0
   57.3880   30.7710   44.3770 C   0  0  0  0  0  0  0  0  0  0  0  0
   56.9950   31.8720   45.2080 N   0  0  0  0  0  0  0  0  0  0  0  0
   57.8650   32.7490   45.9380 C   0  0  0  0  0  0  0  0  0  0  0  0
   58.3680   33.9360   45.3770 C   0  0  0  0  0  0  0  0  0  0  0  0
   59.2330   34.7500   46.1150 C   0  0  0  0  0  0  0  0  0  0  0  0
   59.6120   34.3820   47.4070 C   0  0  0  0  0  0  0  0  0  0  0  0
   59.1360   33.1900   47.9670 C   0  0  0  0  0  0  0  0  0  0  0  0
   59.6410   32.7290   49.5910 S   0  0  0  0  0  0  0  0  0  0  0  0
   60.3070   31.3810   49.5700 O   0  0  0  0  0  0  0  0  0  0  0  0
   58.4280   32.6580   50.4750 O   0  0  0  0  0  0  0  0  0  0  0  0
   60.7450   33.9080   50.2300 N   0  0  0  0  0  0  0  0  0  0  0  0
   62.0880   33.3380   50.3050 C   0  0  0  0  0  0  0  0  0  0  0  0
   62.6240   33.1690   48.9230 C   0  0  0  0  0  0  0  0  0  0  0  0
   63.0470   31.9810   48.3610 C   0  0  0  0  0  0  0  0  0  0  0  0
   63.4830   32.3070   47.0940 C   0  0  0  0  0  0  0  0  0  0  0  0
   63.3010   33.6700   46.9650 C   0  0  0  0  0  0  0  0  0  0  0  0
   62.7910   34.1560   48.0740 O   0  0  0  0  0  0  0  0  0  0  0  0
   58.2700   32.3730   47.2270 C   0  0  0  0  0  0  0  0  0  0  0  0
   57.5530   29.4160   44.9690 C   0  0  0  0  0  0  0  0  0  0  0  0
   58.8420   28.9540   45.3050 C   0  0  0  0  0  0  0  0  0  0  0  0
   59.0240   27.6860   45.8660 C   0  0  0  0  0  0  0  0  0  0  0  0
   60.6370   27.1320   46.2790 Cl  0  0  0  0  0  0  0  0  0  0  0  0
   57.9240   26.8620   46.1000 C   0  0  0  0  0  0  0  0  0  0  0  0
   56.6410   27.3000   45.7730 C   0  0  0  0  0  0  0  0  0  0  0  0
   56.4470   28.5680   45.2110 C   0  0  0  0  0  0  0  0  0  0  0  0
   55.1510   28.9650   44.8990 O   0  0  0  0  0  0  0  0  0  0  0  0
   58.0805   34.2250   44.3553 H   0  0  0  0  0  0  0  0  0  0  0  0
   59.6159   35.6831   45.6760 H   0  0  0  0  0  0  0  0  0  0  0  0
   60.2861   35.0298   47.9866 H   0  0  0  0  0  0  0  0  0  0  0  0
   62.7436   34.0133   50.8744 H   0  0  0  0  0  0  0  0  0  0  0  0
   62.0486   32.3613   50.8094 H   0  0  0  0  0  0  0  0  0  0  0  0
   63.0381   30.9842   48.8260 H   0  0  0  0  0  0  0  0  0  0  0  0
   63.8929   31.6203   46.3387 H   0  0  0  0  0  0  0  0  0  0  0  0
   63.5460   34.2595   46.0692 H   0  0  0  0  0  0  0  0  0  0  0  0
   57.9054   31.4301   47.6605 H   0  0  0  0  0  0  0  0  0  0  0  0
   59.7148   29.5985   45.1237 H   0  0  0  0  0  0  0  0  0  0  0  0
   58.0682   25.8655   46.5429 H   0  0  0  0  0  0  0  0  0  0  0  0
   55.7763   26.6457   45.9576 H   0  0  0  0  0  0  0  0  0  0  0  0
  1  2  2  0
  2  3  1  0
  3  4  1  0
  4  5  2  0
  5  6  1  0
  6  7  2  0
  7  8  1  0
  8  9  1  0
  9 10  2  0
  9 11  2  0
  9 12  1  0
 12 13  1  0
 13 14  1  0
 14 15  2  0
 15 16  1  0
 16 17  2  0
 17 18  1  0
  8 19  2  0
  2 20  1  0
 20 21  2  0
 21 22  1  0
 22 23  1  0
 22 24  2  0
 24 25  1  0
 25 26  2  0
 26 27  1  0
 19  4  1  0
 26 20  1  0
 18 14  1  0
  5 28  1  0
  6 29  1  0
  7 30  1  0
 13 31  1  0
 13 32  1  0
 15 33  1  0
 16 34  1  0
 17 35  1  0
 19 36  1  0
 21 37  1  0
 24 38  1  0
 25 39  1  0
M  CHG  3   3  -1  12  -1  27  -1
M  END
>  <UniqueID>  (91) 
85

>  <SMILES>  (91) 
O=C([N-]c1cccc(S(=O)(=O)[N-]Cc2ccco2)c1)c1cc(Cl)ccc1[O-]

>  <Energy>  (91) 
70.66916454737203

>  <Genealogy>  (91) 
O=C([N-]c1cccc(S(=O)(=O)[N-]Cc2ccco2)c1)c1cc(Cl)ccc1[O-] (protonated)
O=C([N-]c1cccc(S(=O)(=O)[N-]Cc2ccco2)c1)c1cc(Cl)ccc1[O-] (3D coordinates assigned)
O=C([N-]c1cccc(S(=O)(=O)[N-]Cc2ccco2)c1)c1cc(Cl)ccc1[O-] (optimized conformer: 70.66916454737203 kcal/mol)

>  <smiles>  (91) 
O=C(Nc1cccc(S(=O)(=O)NCc2ccco2)c1)c1cc(Cl)ccc1O

>  <score_type>  (91) 
oracle

>  <origin>  (91) 
adg

>  <m_score__min__energy>  (91) 
-14.75

>  <m_primary>  (91) 
energy

$$$$
91:0
     RDKit          3D

 38 40  0  0  0  0  0  0  0  0999 V2000
   58.3311   31.9179   43.7142 H   0  0  0  0  0  0  0  0  0  0  0  0
   58.4910   32.2870   44.7380 C   0  0  0  0  0  0  0  0  0  0  0  0
   58.5510   31.3880   45.8130 C   0  0  0  0  0  0  0  0  0  0  0  0
   58.4480   29.9340   45.6020 C   0  0  0  0  0  0  0  0  0  0  0  0
   59.6910   28.8590   45.9800 S   0  0  0  0  0  0  0  0  0  0  0  0
   58.8630   27.5250   45.3700 C   0  0  0  0  0  0  0  0  0  0  0  0
   59.2990   26.3010   45.3550 N   0  0  0  0  0  0  0  0  0  0  0  0
   58.7190   25.2170   46.1390 C   0  0  0  0  0  0  0  0  0  0  0  0
   59.5119   24.7108   46.7091 H   0  0  0  0  0  0  0  0  0  0  0  0
   57.9724   25.6250   46.8362 H   0  0  0  0  0  0  0  0  0  0  0  0
   58.0600   24.2340   45.2150 C   0  0  0  0  0  0  0  0  0  0  0  0
   58.5480   22.9200   45.1150 C   0  0  0  0  0  0  0  0  0  0  0  0
   59.3986   22.6024   45.7359 H   0  0  0  0  0  0  0  0  0  0  0  0
   57.9560   22.0150   44.2290 C   0  0  0  0  0  0  0  0  0  0  0  0
   58.3348   20.9845   44.1619 H   0  0  0  0  0  0  0  0  0  0  0  0
   56.8830   22.4180   43.4280 C   0  0  0  0  0  0  0  0  0  0  0  0
   56.3120   21.5400   42.5670 F   0  0  0  0  0  0  0  0  0  0  0  0
   56.4030   23.7280   43.5110 C   0  0  0  0  0  0  0  0  0  0  0  0
   55.5608   24.0454   42.8786 H   0  0  0  0  0  0  0  0  0  0  0  0
   56.9920   24.6360   44.3970 C   0  0  0  0  0  0  0  0  0  0  0  0
   56.6172   25.6686   44.4531 H   0  0  0  0  0  0  0  0  0  0  0  0
   57.6510   27.8720   44.8890 N   0  0  0  0  0  0  0  0  0  0  0  0
   56.9750   27.1820   44.4900 H   0  0  0  0  0  0  0  0  0  0  0  0
   57.3940   29.2050   45.0210 C   0  0  0  0  0  0  0  0  0  0  0  0
   56.0740   29.7630   44.6620 C   0  0  0  0  0  0  0  0  0  0  0  0
   55.0860   28.9950   44.5190 O   0  0  0  0  0  0  0  0  0  0  0  0
   55.8890   31.1340   44.5340 O   0  0  0  0  0  0  0  0  0  0  0  0
   58.7920   31.8600   47.0660 N   0  0  0  0  0  0  0  0  0  0  0  0
   58.9410   33.1910   47.3270 C   0  0  0  0  0  0  0  0  0  0  0  0
   59.1610   33.6140   48.5360 N   0  0  0  0  0  0  0  0  0  0  0  0
   60.4160   34.2140   48.9730 C   0  0  0  0  0  0  0  0  0  0  0  0
   60.4512   34.2308   50.0723 H   0  0  0  0  0  0  0  0  0  0  0  0
   61.2592   33.6216   48.5882 H   0  0  0  0  0  0  0  0  0  0  0  0
   60.4844   35.2422   48.5882 H   0  0  0  0  0  0  0  0  0  0  0  0
   58.8580   34.1140   46.2780 C   0  0  0  0  0  0  0  0  0  0  0  0
   58.9666   35.1907   46.4753 H   0  0  0  0  0  0  0  0  0  0  0  0
   58.6360   33.6540   44.9790 C   0  0  0  0  0  0  0  0  0  0  0  0
   58.5753   34.3689   44.1452 H   0  0  0  0  0  0  0  0  0  0  0  0
  1  2  1  0
  2  3  2  0
  3  4  1  0
  4  5  1  0
  5  6  1  0
  6  7  2  0
  7  8  1  0
  8  9  1  0
  8 10  1  0
  8 11  1  0
 11 12  2  0
 12 13  1  0
 12 14  1  0
 14 15  1  0
 14 16  2  0
 16 17  1  0
 16 18  1  0
 18 19  1  0
 18 20  2  0
 20 21  1  0
  6 22  1  0
 22 23  1  0
 22 24  1  0
 24 25  1  0
 25 26  2  0
 25 27  1  0
  3 28  1  0
 28 29  1  0
 29 30  2  3
 30 31  1  0
 31 32  1  0
 31 33  1  0
 31 34  1  0
 29 35  1  0
 35 36  1  0
 35 37  2  0
 37 38  1  0
 37  2  1  0
 24  4  2  0
 20 11  1  0
M  CHG  2  27  -1  28  -1
M  END
>  <UniqueID>  (92) 
86

>  <SMILES>  (92) 
CN=c1cccc(-c2s/c(=N\Cc3ccc(F)cc3)[nH]c2C(=O)[O-])[n-]1

>  <Energy>  (92) 
75.24895210945205

>  <Genealogy>  (92) 
CN=c1cccc(-c2sc(=NCc3ccc(F)cc3)[nH]c2C(=O)[O-])[n-]1 (protonated)
CN=c1cccc(-c2s/c(=N\Cc3ccc(F)cc3)[nH]c2C(=O)[O-])[n-]1 (cis-trans isomerization)
CN=c1cccc(-c2s/c(=N\Cc3ccc(F)cc3)[nH]c2C(=O)[O-])[n-]1 (3D coordinates assigned)
CN=c1cccc(-c2s/c(=N\Cc3ccc(F)cc3)[nH]c2C(=O)[O-])[n-]1 (optimized conformer: 75.24895210945205 kcal/mol)

>  <smiles>  (92) 
CN=c1cccc(-c2sc(=NCc3ccc(F)cc3)[nH]c2C(=O)O)[nH]1

>  <score_type>  (92) 
oracle

>  <origin>  (92) 
adg

>  <m_score__min__energy>  (92) 
-12.119999999999999

>  <m_primary>  (92) 
energy

$$$$
92:0
     RDKit          3D

 32 33  0  0  0  0  0  0  0  0999 V2000
   55.1410   26.3970   46.0920 N   0  0  0  0  0  0  0  0  0  0  0  0
   56.8450   26.1670   45.9270 S   0  0  0  0  0  0  0  0  0  0  0  0
   57.3650   25.3990   47.1110 O   0  0  0  0  0  0  0  0  0  0  0  0
   57.1240   25.3760   44.6800 O   0  0  0  0  0  0  0  0  0  0  0  0
   57.6450   27.7320   45.8320 C   0  0  0  0  0  0  0  0  0  0  0  0
   58.9830   27.8640   46.2300 C   0  0  0  0  0  0  0  0  0  0  0  0
   59.6100   29.1110   46.1760 C   0  0  0  0  0  0  0  0  0  0  0  0
   58.9080   30.2320   45.7240 C   0  0  0  0  0  0  0  0  0  0  0  0
   57.5720   30.1070   45.3080 C   0  0  0  0  0  0  0  0  0  0  0  0
   56.8120   31.2430   44.8720 N   0  0  0  0  0  0  0  0  0  0  0  0
   57.3440   32.5050   44.4500 C   0  0  0  0  0  0  0  0  0  0  0  0
   57.9870   32.5620   43.3690 O   0  0  0  0  0  0  0  0  0  0  0  0
   57.2240   33.7200   45.2760 C   0  0  0  0  0  0  0  0  0  0  0  0
   56.6750   34.7530   44.8040 O   0  0  0  0  0  0  0  0  0  0  0  0
   57.7520   33.7200   46.6090 N   0  0  0  0  0  0  0  0  0  0  0  0
   59.1320   33.5910   46.9820 C   0  0  0  0  0  0  0  0  0  0  0  0
   60.1150   33.9900   46.0660 C   0  0  0  0  0  0  0  0  0  0  0  0
   61.4710   33.8640   46.3840 C   0  0  0  0  0  0  0  0  0  0  0  0
   61.8550   33.3230   47.6140 C   0  0  0  0  0  0  0  0  0  0  0  0
   63.7080   33.1480   48.0450 Br  0  0  0  0  0  0  0  0  0  0  0  0
   60.8820   32.9000   48.5240 C   0  0  0  0  0  0  0  0  0  0  0  0
   59.5250   33.0260   48.2090 C   0  0  0  0  0  0  0  0  0  0  0  0
   56.9400   28.8590   45.3870 C   0  0  0  0  0  0  0  0  0  0  0  0
   54.7860   26.7220   45.1640 H   0  0  0  0  0  0  0  0  0  0  0  0
   59.5397   26.9843   46.5853 H   0  0  0  0  0  0  0  0  0  0  0  0
   60.6594   29.2111   46.4901 H   0  0  0  0  0  0  0  0  0  0  0  0
   59.4026   31.2141   45.6940 H   0  0  0  0  0  0  0  0  0  0  0  0
   59.8182   34.4047   45.0913 H   0  0  0  0  0  0  0  0  0  0  0  0
   62.2364   34.1912   45.6649 H   0  0  0  0  0  0  0  0  0  0  0  0
   61.1839   32.4674   49.4893 H   0  0  0  0  0  0  0  0  0  0  0  0
   58.7624   32.6821   48.9232 H   0  0  0  0  0  0  0  0  0  0  0  0
   55.8831   28.7629   45.0978 H   0  0  0  0  0  0  0  0  0  0  0  0
  1  2  1  0
  2  3  2  0
  2  4  2  0
  2  5  1  0
  5  6  2  0
  6  7  1  0
  7  8  2  0
  8  9  1  0
  9 10  1  0
 10 11  1  0
 11 12  2  0
 11 13  1  0
 13 14  2  0
 13 15  1  0
 15 16  1  0
 16 17  2  0
 17 18  1  0
 18 19  2  0
 19 20  1  0
 19 21  1  0
 21 22  2  0
  9 23  2  0
 23  5  1  0
 22 16  1  0
  1 24  1  0
  6 25  1  0
  7 26  1  0
  8 27  1  0
 17 28  1  0
 18 29  1  0
 21 30  1  0
 22 31  1  0
 23 32  1  0
M  CHG  3   1  -1  10  -1  15  -1
M  END
>  <UniqueID>  (93) 
87

>  <SMILES>  (93) 
[NH-]S(=O)(=O)c1cccc([N-]C(=O)C(=O)[N-]c2ccc(Br)cc2)c1

>  <Energy>  (93) 
40.642675316908466

>  <Genealogy>  (93) 
[NH-]S(=O)(=O)c1cccc([N-]C(=O)C(=O)[N-]c2ccc(Br)cc2)c1 (protonated)
[NH-]S(=O)(=O)c1cccc([N-]C(=O)C(=O)[N-]c2ccc(Br)cc2)c1 (3D coordinates assigned)
[NH-]S(=O)(=O)c1cccc([N-]C(=O)C(=O)[N-]c2ccc(Br)cc2)c1 (optimized conformer: 40.642675316908466 kcal/mol)

>  <smiles>  (93) 
NS(=O)(=O)c1cccc(NC(=O)C(=O)Nc2ccc(Br)cc2)c1

>  <score_type>  (93) 
oracle

>  <origin>  (93) 
adg

>  <m_score__min__energy>  (93) 
-13.49

>  <m_primary>  (93) 
energy

$$$$
