0:0
     RDKit          3D

 34 36  0  0  0  0  0  0  0  0999 V2000
   53.2330   24.1420   45.1890 C   0  0  0  0  0  0  0  0  0  0  0  0
   54.2510   23.1610   45.0200 O   0  0  0  0  0  0  0  0  0  0  0  0
   55.6280   23.4330   45.0230 C   0  0  0  0  0  0  0  0  0  0  0  0
   56.1940   24.4350   45.8370 C   0  0  0  0  0  0  0  0  0  0  0  0
   57.5780   24.6780   45.8100 C   0  0  0  0  0  0  0  0  0  0  0  0
   58.1820   25.7670   46.6710 C   0  0  1  0  0  0  0  0  0  0  0  0
   59.6270   25.5590   46.7320 N   0  0  0  0  0  0  0  0  0  0  0  0
   60.5330   26.6160   47.0420 C   0  0  0  0  0  0  0  0  0  0  0  0
   61.7560   26.3650   47.2020 O   0  0  0  0  0  0  0  0  0  0  0  0
   60.0260   28.0150   47.2010 C   0  0  0  0  0  0  0  0  0  0  0  0
   58.7550   28.2320   46.4150 C   0  0  0  0  0  0  0  0  0  0  0  0
   58.4200   29.5340   46.0090 C   0  0  0  0  0  0  0  0  0  0  0  0
   57.2090   29.7920   45.3630 C   0  0  0  0  0  0  0  0  0  0  0  0
   56.9180   31.0950   44.9620 O   0  0  0  0  0  0  0  0  0  0  0  0
   56.3040   28.7450   45.1400 C   0  0  0  0  0  0  0  0  0  0  0  0
   55.0850   28.9880   44.5160 O   0  0  0  0  0  0  0  0  0  0  0  0
   56.6180   27.4490   45.5540 C   0  0  0  0  0  0  0  0  0  0  0  0
   57.8560   27.1670   46.1660 C   0  0  0  0  0  0  0  0  0  0  0  0
   58.3940   23.9140   44.9600 C   0  0  0  0  0  0  0  0  0  0  0  0
   57.8360   22.9200   44.1540 C   0  0  0  0  0  0  0  0  0  0  0  0
   56.4600   22.6790   44.1850 C   0  0  0  0  0  0  0  0  0  0  0  0
   55.9200   21.6870   43.3750 O   0  0  0  0  0  0  0  0  0  0  0  0
   53.0595   24.3092   46.2623 H   0  0  0  0  0  0  0  0  0  0  0  0
   53.5497   25.0841   44.7176 H   0  0  0  0  0  0  0  0  0  0  0  0
   52.3033   23.7906   44.7176 H   0  0  0  0  0  0  0  0  0  0  0  0
   55.5478   25.0311   46.4981 H   0  0  0  0  0  0  0  0  0  0  0  0
   57.7415   25.7000   47.6767 H   0  0  0  0  0  0  0  0  0  0  0  0
   59.8252   28.2043   48.2658 H   0  0  0  0  0  0  0  0  0  0  0  0
   60.7917   28.7066   46.8197 H   0  0  0  0  0  0  0  0  0  0  0  0
   59.1198   30.3604   46.2021 H   0  0  0  0  0  0  0  0  0  0  0  0
   56.0780   31.5760   45.2620 H   0  0  0  0  0  0  0  0  0  0  0  0
   55.8905   26.6383   45.4007 H   0  0  0  0  0  0  0  0  0  0  0  0
   59.4778   24.0996   44.9291 H   0  0  0  0  0  0  0  0  0  0  0  0
   58.4819   22.3244   43.4921 H   0  0  0  0  0  0  0  0  0  0  0  0
  1  2  1  0
  2  3  1  0
  3  4  2  0
  4  5  1  0
  5  6  1  0
  6  7  1  0
  7  8  1  0
  8  9  2  0
  8 10  1  0
 10 11  1  0
 11 12  2  0
 12 13  1  0
 13 14  1  0
 13 15  2  0
 15 16  1  0
 15 17  1  0
 17 18  2  0
  5 19  2  0
 19 20  1  0
 20 21  2  0
 21 22  1  0
 21  3  1  0
 18  6  1  0
 18 11  1  0
  1 23  1  0
  1 24  1  0
  1 25  1  0
  4 26  1  0
  6 27  1  1
 10 28  1  0
 10 29  1  0
 12 30  1  0
 14 31  1  0
 17 32  1  0
 19 33  1  0
 20 34  1  0
M  CHG  3   7  -1  16  -1  22  -1
M  END
>  <UniqueID>  (1) 
1

>  <SMILES>  (1) 
COc1cc([C@H]2[N-]C(=O)Cc3cc(O)c([O-])cc32)ccc1[O-]

>  <Energy>  (1) 
39.892108410256185

>  <Genealogy>  (1) 
COc1cc(C2[N-]C(=O)Cc3cc(O)c([O-])cc32)ccc1[O-] (protonated)
COc1cc([C@H]2[N-]C(=O)Cc3cc(O)c([O-])cc32)ccc1[O-] (chirality)
COc1cc([C@H]2[N-]C(=O)Cc3cc(O)c([O-])cc32)ccc1[O-] (3D coordinates assigned)
COc1cc([C@H]2[N-]C(=O)Cc3cc(O)c([O-])cc32)ccc1[O-] (nonaromatic ring conformer: 39.892108410256185 kcal/mol)

>  <smiles>  (1) 
COc1cc(C2NC(=O)Cc3cc(O)c(O)cc32)ccc1O

>  <score_type>  (1) 
oracle

>  <origin>  (1) 
adg

>  <m_score__min__energy>  (1) 
-12.23

>  <m_primary>  (1) 
energy

$$$$
1:0
     RDKit          3D

 31 32  0  0  0  0  0  0  0  0999 V2000
   57.4380   26.3940   44.7140 N   0  0  0  0  0  0  0  0  0  0  0  0
   56.9940   26.4370   46.0700 C   0  0  0  0  0  0  0  0  0  0  0  0
   55.8630   25.9710   46.3730 O   0  0  0  0  0  0  0  0  0  0  0  0
   57.8760   27.0080   47.1380 C   0  0  0  0  0  0  0  0  0  0  0  0
   59.4490   27.5990   46.4250 S   0  0  0  0  0  0  0  0  0  0  0  0
   58.7250   29.0440   45.6550 C   0  0  0  0  0  0  0  0  0  0  0  0
   59.0430   30.2840   46.1080 N   0  0  0  0  0  0  0  0  0  0  0  0
   58.5040   31.4040   45.5540 C   0  0  0  0  0  0  0  0  0  0  0  0
   58.8850   32.7350   46.0920 C   0  0  0  0  0  0  0  0  0  0  0  0
   58.9820   32.9680   47.4800 C   0  0  0  0  0  0  0  0  0  0  0  0
   59.3530   34.2280   47.9620 C   0  0  0  0  0  0  0  0  0  0  0  0
   59.6390   35.2650   47.0710 C   0  0  0  0  0  0  0  0  0  0  0  0
   59.5590   35.0440   45.6950 C   0  0  0  0  0  0  0  0  0  0  0  0
   59.1890   33.7870   45.2070 C   0  0  0  0  0  0  0  0  0  0  0  0
   57.6130   31.2670   44.4770 C   0  0  0  0  0  0  0  0  0  0  0  0
   57.2950   29.9820   44.0210 C   0  0  0  0  0  0  0  0  0  0  0  0
   56.3530   29.7970   42.8680 C   0  0  0  0  0  0  0  0  0  0  0  0
   56.4680   30.8660   41.9980 F   0  0  0  0  0  0  0  0  0  0  0  0
   56.6450   28.6300   42.1830 F   0  0  0  0  0  0  0  0  0  0  0  0
   55.0520   29.7270   43.3350 F   0  0  0  0  0  0  0  0  0  0  0  0
   57.8590   28.8990   44.6200 N   0  0  0  0  0  0  0  0  0  0  0  0
   58.3760   26.7680   44.4500 H   0  0  0  0  0  0  0  0  0  0  0  0
   56.8270   25.9860   43.9730 H   0  0  0  0  0  0  0  0  0  0  0  0
   57.3593   27.8502   47.6214 H   0  0  0  0  0  0  0  0  0  0  0  0
   58.0944   26.2215   47.8753 H   0  0  0  0  0  0  0  0  0  0  0  0
   58.7647   32.1542   48.1875 H   0  0  0  0  0  0  0  0  0  0  0  0
   59.4197   34.4025   49.0460 H   0  0  0  0  0  0  0  0  0  0  0  0
   59.9271   36.2553   47.4534 H   0  0  0  0  0  0  0  0  0  0  0  0
   59.7874   35.8600   44.9935 H   0  0  0  0  0  0  0  0  0  0  0  0
   59.1349   33.6184   44.1213 H   0  0  0  0  0  0  0  0  0  0  0  0
   57.1723   32.1546   43.9996 H   0  0  0  0  0  0  0  0  0  0  0  0
  1  2  1  0
  2  3  2  0
  2  4  1  0
  4  5  1  0
  5  6  1  0
  6  7  2  0
  7  8  1  0
  8  9  1  0
  9 10  2  0
 10 11  1  0
 11 12  2  0
 12 13  1  0
 13 14  2  0
  8 15  2  0
 15 16  1  0
 16 17  1  0
 17 18  1  0
 17 19  1  0
 17 20  1  0
 16 21  2  0
 21  6  1  0
 14  9  1  0
  1 22  1  0
  1 23  1  0
  4 24  1  0
  4 25  1  0
 10 26  1  0
 11 27  1  0
 12 28  1  0
 13 29  1  0
 14 30  1  0
 15 31  1  0
M  END
>  <UniqueID>  (2) 
2

>  <SMILES>  (2) 
NC(=O)CSc1nc(-c2ccccc2)cc(C(F)(F)F)n1

>  <Energy>  (2) 
28.93491619436155

>  <Genealogy>  (2) 
NC(=O)CSc1nc(-c2ccccc2)cc(C(F)(F)F)n1 (3D coordinates assigned)
NC(=O)CSc1nc(-c2ccccc2)cc(C(F)(F)F)n1 (optimized conformer: 28.93491619436155 kcal/mol)

>  <smiles>  (2) 
NC(=O)CSc1nc(-c2ccccc2)cc(C(F)(F)F)n1

>  <score_type>  (2) 
oracle

>  <origin>  (2) 
adg

>  <m_score__min__energy>  (2) 
-7.3499999999999996

>  <m_primary>  (2) 
energy

$$$$
2:0
     RDKit          3D

 38 40  0  0  0  0  0  0  0  0999 V2000
   65.9900   32.1570   52.3920 C   0  0  0  0  0  0  0  0  0  0  0  0
   65.3220   32.4780   51.2880 C   0  0  0  0  0  0  0  0  0  0  0  0
   63.5430   32.5910   51.1990 S   0  0  0  0  0  0  0  0  0  0  0  0
   63.7390   33.0500   49.4510 C   0  0  0  0  0  0  0  0  0  0  0  0
   62.6040   33.3190   48.5960 N   0  0  0  0  0  0  0  0  0  0  0  0
   61.2720   33.4980   49.1950 C   0  0  0  0  0  0  0  0  0  0  0  0
   60.3370   34.3900   48.3430 C   0  0  0  0  0  0  0  0  0  0  0  0
   60.7690   34.5480   46.9330 N   0  0  0  0  0  0  0  0  0  0  0  0
   59.6420   34.9450   46.0640 C   0  0  0  0  0  0  0  0  0  0  0  0
   58.9520   33.7320   45.4970 C   0  0  0  0  0  0  0  0  0  0  0  0
   58.4400   32.7370   46.3480 C   0  0  0  0  0  0  0  0  0  0  0  0
   57.7750   31.6290   45.8130 C   0  0  0  0  0  0  0  0  0  0  0  0
   57.6120   31.5090   44.4300 C   0  0  0  0  0  0  0  0  0  0  0  0
   58.1130   32.4980   43.5780 C   0  0  0  0  0  0  0  0  0  0  0  0
   57.9010   32.3500   41.8420 Cl  0  0  0  0  0  0  0  0  0  0  0  0
   58.7790   33.6080   44.1090 C   0  0  0  0  0  0  0  0  0  0  0  0
   61.3970   33.3170   46.4340 C   0  0  0  0  0  0  0  0  0  0  0  0
   62.7360   33.1430   47.1410 C   0  0  0  0  0  0  0  0  0  0  0  0
   64.9610   33.0980   49.0110 N   0  0  0  0  0  0  0  0  0  0  0  0
   65.9190   32.7860   50.0060 C   0  0  0  0  0  0  0  0  0  0  0  0
   67.1580   32.7820   49.7780 O   0  0  0  0  0  0  0  0  0  0  0  0
   67.0887   32.1060   52.3748 H   0  0  0  0  0  0  0  0  0  0  0  0
   65.4439   31.9425   53.3225 H   0  0  0  0  0  0  0  0  0  0  0  0
   60.8039   32.5091   49.3091 H   0  0  0  0  0  0  0  0  0  0  0  0
   61.4130   34.0016   50.1627 H   0  0  0  0  0  0  0  0  0  0  0  0
   59.3326   33.9414   48.3482 H   0  0  0  0  0  0  0  0  0  0  0  0
   60.3572   35.3927   48.7949 H   0  0  0  0  0  0  0  0  0  0  0  0
   58.9196   35.5283   46.6539 H   0  0  0  0  0  0  0  0  0  0  0  0
   60.0333   35.5495   45.2325 H   0  0  0  0  0  0  0  0  0  0  0  0
   58.5627   32.8301   47.4372 H   0  0  0  0  0  0  0  0  0  0  0  0
   57.3795   30.8505   46.4819 H   0  0  0  0  0  0  0  0  0  0  0  0
   57.0894   30.6361   44.0117 H   0  0  0  0  0  0  0  0  0  0  0  0
   59.1686   34.3865   43.4366 H   0  0  0  0  0  0  0  0  0  0  0  0
   60.7482   32.4550   46.6485 H   0  0  0  0  0  0  0  0  0  0  0  0
   61.5481   33.3823   45.3464 H   0  0  0  0  0  0  0  0  0  0  0  0
   63.1197   32.1326   46.9364 H   0  0  0  0  0  0  0  0  0  0  0  0
   63.4287   33.9088   46.7620 H   0  0  0  0  0  0  0  0  0  0  0  0
   65.2340   33.3480   48.0360 H   0  0  0  0  0  0  0  0  0  0  0  0
  1  2  2  0
  2  3  1  0
  3  4  1  0
  4  5  1  0
  5  6  1  0
  6  7  1  0
  7  8  1  0
  8  9  1  0
  9 10  1  0
 10 11  2  0
 11 12  1  0
 12 13  2  0
 13 14  1  0
 14 15  1  0
 14 16  2  0
  8 17  1  0
 17 18  1  0
  4 19  2  0
 19 20  1  0
 20 21  2  0
 20  2  1  0
 18  5  1  0
 16 10  1  0
  1 22  1  0
  1 23  1  0
  6 24  1  0
  6 25  1  0
  7 26  1  0
  7 27  1  0
  9 28  1  0
  9 29  1  0
 11 30  1  0
 12 31  1  0
 13 32  1  0
 16 33  1  0
 17 34  1  0
 17 35  1  0
 18 36  1  0
 18 37  1  0
 19 38  1  0
M  CHG  1  19   1
M  END
>  <UniqueID>  (3) 
3

>  <SMILES>  (3) 
C=C1SC(N2CCN(Cc3cccc(Cl)c3)CC2)=[NH+]C1=O

>  <Energy>  (3) 
64.41398272575469

>  <Genealogy>  (3) 
C=C1SC(N2CCN(Cc3cccc(Cl)c3)CC2)=[NH+]C1=O (protonated)
C=C1SC(N2CCN(Cc3cccc(Cl)c3)CC2)=[NH+]C1=O (3D coordinates assigned)
C=C1SC(N2CCN(Cc3cccc(Cl)c3)CC2)=[NH+]C1=O (nonaromatic ring conformer: 64.41398272575469 kcal/mol)

>  <smiles>  (3) 
C=C1SC(N2CCN(Cc3cccc(Cl)c3)CC2)=NC1=O

>  <score_type>  (3) 
oracle

>  <origin>  (3) 
adg

>  <m_score__min__energy>  (3) 
-6.5300000000000002

>  <m_primary>  (3) 
energy

$$$$
3:0
     RDKit          3D

 42 44  0  0  0  0  0  0  0  0999 V2000
   64.8960   33.0950   47.1220 H   0  0  0  0  0  0  0  0  0  0  0  0
   64.0740   32.9610   46.4920 N   0  0  0  0  0  0  0  0  0  0  0  0
   62.6690   33.4130   47.3910 S   0  0  0  0  0  0  0  0  0  0  0  0
   61.6880   34.0940   46.4790 O   0  0  0  0  0  0  0  0  0  0  0  0
   63.0560   34.3690   48.4840 O   0  0  0  0  0  0  0  0  0  0  0  0
   61.9370   31.9730   48.0900 C   0  0  0  0  0  0  0  0  0  0  0  0
   62.3450   31.5170   49.3500 C   0  0  0  0  0  0  0  0  0  0  0  0
   63.1369   32.0498   49.8969 H   0  0  0  0  0  0  0  0  0  0  0  0
   61.7480   30.3870   49.9130 C   0  0  0  0  0  0  0  0  0  0  0  0
   62.0708   30.0320   50.9028 H   0  0  0  0  0  0  0  0  0  0  0  0
   60.7420   29.7060   49.2230 C   0  0  0  0  0  0  0  0  0  0  0  0
   60.2735   28.8200   49.6763 H   0  0  0  0  0  0  0  0  0  0  0  0
   60.3230   30.1440   47.9530 C   0  0  0  0  0  0  0  0  0  0  0  0
   59.2530   29.4090   47.2340 C   0  0  0  0  0  0  0  0  0  0  0  0
   59.1770   28.0550   47.3510 N   0  0  0  0  0  0  0  0  0  0  0  0
   58.2300   27.3330   46.6990 C   0  0  0  0  0  0  0  0  0  0  0  0
   58.1920   26.0450   46.8560 N   0  0  0  0  0  0  0  0  0  0  0  0
   57.0950   25.3050   47.4840 C   0  0  0  0  0  0  0  0  0  0  0  0
   57.5141   24.5821   48.1993 H   0  0  0  0  0  0  0  0  0  0  0  0
   56.4397   26.0250   47.9960 H   0  0  0  0  0  0  0  0  0  0  0  0
   56.2740   24.5610   46.4570 C   0  0  0  0  0  0  0  0  0  0  0  0
   56.6170   23.2390   46.1160 C   0  0  0  0  0  0  0  0  0  0  0  0
   57.4794   22.7567   46.5994 H   0  0  0  0  0  0  0  0  0  0  0  0
   55.8700   22.5350   45.1680 C   0  0  0  0  0  0  0  0  0  0  0  0
   56.1428   21.5006   44.9118 H   0  0  0  0  0  0  0  0  0  0  0  0
   54.7770   23.1430   44.5450 C   0  0  0  0  0  0  0  0  0  0  0  0
   54.1826   22.5831   43.8080 H   0  0  0  0  0  0  0  0  0  0  0  0
   54.4390   24.4620   44.8580 C   0  0  0  0  0  0  0  0  0  0  0  0
   53.5823   24.9407   44.3612 H   0  0  0  0  0  0  0  0  0  0  0  0
   55.1870   25.1770   45.8020 C   0  0  0  0  0  0  0  0  0  0  0  0
   54.8450   26.4980   46.0700 O   0  0  0  0  0  0  0  0  0  0  0  0
   57.3330   27.9700   45.8980 N   0  0  0  0  0  0  0  0  0  0  0  0
   57.3540   29.3190   45.7400 C   0  0  0  0  0  0  0  0  0  0  0  0
   56.3540   29.9700   44.8660 C   0  0  0  0  0  0  0  0  0  0  0  0
   56.5490   31.1420   44.4450 O   0  0  0  0  0  0  0  0  0  0  0  0
   55.1550   29.2890   44.4930 N   0  0  0  0  0  0  0  0  0  0  0  0
   54.9730   28.3060   44.7910 H   0  0  0  0  0  0  0  0  0  0  0  0
   54.4500   29.7630   43.8850 H   0  0  0  0  0  0  0  0  0  0  0  0
   58.3280   30.0720   46.4120 C   0  0  0  0  0  0  0  0  0  0  0  0
   58.3665   31.1653   46.2967 H   0  0  0  0  0  0  0  0  0  0  0  0
   60.9220   31.2940   47.3990 C   0  0  0  0  0  0  0  0  0  0  0  0
   60.5907   31.6620   46.4167 H   0  0  0  0  0  0  0  0  0  0  0  0
  1  2  1  0
  2  3  1  0
  3  4  2  0
  3  5  2  0
  3  6  1  0
  6  7  2  0
  7  8  1  0
  7  9  1  0
  9 10  1  0
  9 11  2  0
 11 12  1  0
 11 13  1  0
 13 14  1  0
 14 15  1  0
 15 16  1  0
 16 17  2  0
 17 18  1  0
 18 19  1  0
 18 20  1  0
 18 21  1  0
 21 22  2  0
 22 23  1  0
 22 24  1  0
 24 25  1  0
 24 26  2  0
 26 27  1  0
 26 28  1  0
 28 29  1  0
 28 30  2  0
 30 31  1  0
 16 32  1  0
 32 33  2  0
 33 34  1  0
 34 35  2  0
 34 36  1  0
 36 37  1  0
 36 38  1  0
 33 39  1  0
 39 40  1  0
 13 41  2  0
 41 42  1  0
 41  6  1  0
 39 14  2  0
 30 21  1  0
M  CHG  3   2  -1  15  -1  31  -1
M  END
>  <UniqueID>  (4) 
4

>  <SMILES>  (4) 
[NH-]S(=O)(=O)c1cccc(-c2cc(C(N)=O)n/c(=N\Cc3ccccc3[O-])[n-]2)c1

>  <Energy>  (4) 
48.04838043229242

>  <Genealogy>  (4) 
[NH-]S(=O)(=O)c1cccc(-c2cc(C(N)=O)nc(=NCc3ccccc3[O-])[n-]2)c1 (protonated)
[NH-]S(=O)(=O)c1cccc(-c2cc(C(N)=O)n/c(=N\Cc3ccccc3[O-])[n-]2)c1 (cis-trans isomerization)
[NH-]S(=O)(=O)c1cccc(-c2cc(C(N)=O)n/c(=N\Cc3ccccc3[O-])[n-]2)c1 (3D coordinates assigned)
[NH-]S(=O)(=O)c1cccc(-c2cc(C(N)=O)n/c(=N\Cc3ccccc3[O-])[n-]2)c1 (optimized conformer: 48.04838043229242 kcal/mol)

>  <smiles>  (4) 
NC(=O)c1cc(-c2cccc(S(N)(=O)=O)c2)[nH]c(=NCc2ccccc2O)n1

>  <score_type>  (4) 
oracle

>  <origin>  (4) 
adg

>  <m_score__min__energy>  (4) 
-14.890000000000001

>  <m_primary>  (4) 
energy

$$$$
4:0
     RDKit          3D

 34 36  0  0  0  0  0  0  0  0999 V2000
   54.9960   24.6910   45.6600 C   0  0  0  0  0  0  0  0  0  0  0  0
   55.8680   25.6930   45.6640 C   0  0  0  0  0  0  0  0  0  0  0  0
   55.5140   27.0440   45.6270 O   0  0  0  0  0  0  0  0  0  0  0  0
   56.7060   27.7640   45.6470 C   0  0  0  0  0  0  0  0  0  0  0  0
   56.8170   29.1140   45.6240 N   0  0  0  0  0  0  0  0  0  0  0  0
   58.0530   29.7050   45.6460 C   0  0  0  0  0  0  0  0  0  0  0  0
   58.1520   31.1440   45.6260 N   0  0  0  0  0  0  0  0  0  0  0  0
   57.9030   31.9110   44.3970 C   0  0  0  0  0  0  0  0  0  0  0  0
   57.3980   33.3210   44.7410 C   0  0  0  0  0  0  0  0  0  0  0  0
   58.3100   34.0650   45.6550 N   0  0  0  0  0  0  0  0  0  0  0  0
   59.1600   35.0010   44.8970 C   0  0  0  0  0  0  0  0  0  0  0  0
   59.1540   33.1990   46.5200 C   0  0  0  0  0  0  0  0  0  0  0  0
   58.4690   31.8710   46.8620 C   0  0  0  0  0  0  0  0  0  0  0  0
   59.2170   28.8890   45.7020 C   0  0  0  0  0  0  0  0  0  0  0  0
   59.0930   27.4900   45.7250 C   0  0  0  0  0  0  0  0  0  0  0  0
   60.1120   26.7500   45.7760 O   0  0  0  0  0  0  0  0  0  0  0  0
   57.8130   26.9500   45.6920 C   0  0  0  0  0  0  0  0  0  0  0  0
   57.3270   25.5820   45.7070 C   0  0  0  0  0  0  0  0  0  0  0  0
   58.0150   24.5280   45.7490 O   0  0  0  0  0  0  0  0  0  0  0  0
   55.3531   23.6510   45.6908 H   0  0  0  0  0  0  0  0  0  0  0  0
   53.9168   24.9012   45.6259 H   0  0  0  0  0  0  0  0  0  0  0  0
   58.8381   31.9905   43.8232 H   0  0  0  0  0  0  0  0  0  0  0  0
   57.1377   31.3926   43.8007 H   0  0  0  0  0  0  0  0  0  0  0  0
   57.2960   33.8932   43.8071 H   0  0  0  0  0  0  0  0  0  0  0  0
   56.4362   33.2054   45.2622 H   0  0  0  0  0  0  0  0  0  0  0  0
   57.7110   34.6480   46.2860 H   0  0  0  0  0  0  0  0  0  0  0  0
   59.7299   35.6286   45.5980 H   0  0  0  0  0  0  0  0  0  0  0  0
   59.8571   34.4326   44.2637 H   0  0  0  0  0  0  0  0  0  0  0  0
   58.5273   35.6402   44.2637 H   0  0  0  0  0  0  0  0  0  0  0  0
   60.0963   32.9855   45.9942 H   0  0  0  0  0  0  0  0  0  0  0  0
   59.3319   33.7375   47.4626 H   0  0  0  0  0  0  0  0  0  0  0  0
   59.1426   31.2613   47.4821 H   0  0  0  0  0  0  0  0  0  0  0  0
   57.5393   32.0727   47.4143 H   0  0  0  0  0  0  0  0  0  0  0  0
   60.2138   29.3535   45.7273 H   0  0  0  0  0  0  0  0  0  0  0  0
  1  2  2  0
  2  3  1  0
  3  4  1  0
  4  5  1  0
  5  6  1  0
  6  7  1  0
  7  8  1  0
  8  9  1  0
  9 10  1  0
 10 11  1  0
 10 12  1  0
 12 13  1  0
  6 14  2  0
 14 15  1  0
 15 16  2  0
 15 17  1  0
 17 18  1  0
 18 19  2  0
 18  2  1  0
 17  4  2  0
 13  7  1  0
  1 20  1  0
  1 21  1  0
  8 22  1  0
  8 23  1  0
  9 24  1  0
  9 25  1  0
 10 26  1  0
 11 27  1  0
 11 28  1  0
 11 29  1  0
 12 30  1  0
 12 31  1  0
 13 32  1  0
 13 33  1  0
 14 34  1  0
M  CHG  2   5  -1  10   1
M  END
>  <UniqueID>  (5) 
5

>  <SMILES>  (5) 
C=C1Oc2[n-]c(N3CC[NH+](C)CC3)cc(=O)c2C1=O

>  <Energy>  (5) 
76.94650492957473

>  <Genealogy>  (5) 
C=C1Oc2[n-]c(N3CC[NH+](C)CC3)cc(=O)c2C1=O (protonated)
C=C1Oc2[n-]c(N3CC[NH+](C)CC3)cc(=O)c2C1=O (3D coordinates assigned)
C=C1Oc2[n-]c(N3CC[NH+](C)CC3)cc(=O)c2C1=O (nonaromatic ring conformer: 76.94650492957473 kcal/mol)

>  <smiles>  (5) 
C=C1Oc2[nH]c(N3CCN(C)CC3)cc(=O)c2C1=O

>  <score_type>  (5) 
oracle

>  <origin>  (5) 
adg

>  <m_score__min__energy>  (5) 
-6.3399999999999999

>  <m_primary>  (5) 
energy

$$$$
5:0
     RDKit          3D

 36 38  0  0  0  0  0  0  0  0999 V2000
   50.2510   32.6660   52.1930 N   0  0  0  0  0  0  0  0  0  0  0  0
   51.0200   31.9550   51.2260 C   0  0  0  0  0  0  0  0  0  0  0  0
   50.6720   31.9730   50.0150 O   0  0  0  0  0  0  0  0  0  0  0  0
   52.2130   31.2030   51.6390 C   0  0  0  0  0  0  0  0  0  0  0  0
   52.2330   30.0060   52.3290 C   0  0  0  0  0  0  0  0  0  0  0  0
   53.5050   29.6180   52.5300 N   0  0  0  0  0  0  0  0  0  0  0  0
   54.2950   30.5590   51.9760 C   0  0  0  0  0  0  0  0  0  0  0  0
   55.7640   30.5080   51.9820 C   0  0  0  0  0  0  0  0  0  0  0  0
   56.4600   29.4240   52.3810 N   0  0  0  0  0  0  0  0  0  0  0  0
   57.7450   29.7910   52.2380 C   0  0  0  0  0  0  0  0  0  0  0  0
   58.8690   28.9160   52.6100 C   0  0  0  0  0  0  0  0  0  0  0  0
   58.6870   27.8120   53.4970 N   0  0  0  0  0  0  0  0  0  0  0  0
   60.0230   29.1800   52.1800 O   0  0  0  0  0  0  0  0  0  0  0  0
   57.7960   31.0940   51.7690 C   0  0  0  0  0  0  0  0  0  0  0  0
   58.9960   31.9900   51.6600 C   0  0  0  0  0  0  0  0  0  0  0  0
   59.0540   32.6210   50.2950 C   0  0  0  0  0  0  0  0  0  0  0  0
   58.5090   31.9630   49.1790 C   0  0  0  0  0  0  0  0  0  0  0  0
   58.5950   32.5400   47.9090 C   0  0  0  0  0  0  0  0  0  0  0  0
   59.2280   33.7760   47.7420 C   0  0  0  0  0  0  0  0  0  0  0  0
   59.3110   34.3340   46.5090 F   0  0  0  0  0  0  0  0  0  0  0  0
   59.7780   34.4340   48.8460 C   0  0  0  0  0  0  0  0  0  0  0  0
   59.6940   33.8590   50.1180 C   0  0  0  0  0  0  0  0  0  0  0  0
   56.5390   31.5500   51.6180 N   0  0  0  0  0  0  0  0  0  0  0  0
   53.5290   31.5610   51.4110 C   0  0  0  0  0  0  0  0  0  0  0  0
   49.9310   33.6430   52.0090 H   0  0  0  0  0  0  0  0  0  0  0  0
   51.3426   29.4536   52.6636 H   0  0  0  0  0  0  0  0  0  0  0  0
   53.8140   28.7530   53.0250 H   0  0  0  0  0  0  0  0  0  0  0  0
   57.8150   27.7150   54.0620 H   0  0  0  0  0  0  0  0  0  0  0  0
   59.4780   27.1570   53.6860 H   0  0  0  0  0  0  0  0  0  0  0  0
   58.9295   32.7800   52.4225 H   0  0  0  0  0  0  0  0  0  0  0  0
   59.9053   31.3911   51.8164 H   0  0  0  0  0  0  0  0  0  0  0  0
   58.0126   30.9896   49.3057 H   0  0  0  0  0  0  0  0  0  0  0  0
   58.1643   32.0215   47.0397 H   0  0  0  0  0  0  0  0  0  0  0  0
   60.2774   35.4052   48.7140 H   0  0  0  0  0  0  0  0  0  0  0  0
   60.1309   34.3783   50.9837 H   0  0  0  0  0  0  0  0  0  0  0  0
   53.8914   32.4582   50.8879 H   0  0  0  0  0  0  0  0  0  0  0  0
  1  2  1  0
  2  3  2  0
  2  4  1  0
  4  5  2  0
  5  6  1  0
  6  7  1  0
  7  8  1  0
  8  9  2  0
  9 10  1  0
 10 11  1  0
 11 12  1  0
 11 13  2  0
 10 14  2  0
 14 15  1  0
 15 16  1  0
 16 17  2  0
 17 18  1  0
 18 19  2  0
 19 20  1  0
 19 21  1  0
 21 22  2  0
 14 23  1  0
  7 24  2  0
 24  4  1  0
 23  8  1  0
 22 16  1  0
  1 25  1  0
  5 26  1  0
  6 27  1  0
 12 28  1  0
 12 29  1  0
 15 30  1  0
 15 31  1  0
 17 32  1  0
 18 33  1  0
 21 34  1  0
 22 35  1  0
 24 36  1  0
M  CHG  2   1  -1  23  -1
M  END
>  <UniqueID>  (6) 
6

>  <SMILES>  (6) 
[NH-]C(=O)c1c[nH]c(-c2nc(C(N)=O)c(Cc3ccc(F)cc3)[n-]2)c1

>  <Energy>  (6) 
90.17791778227074

>  <Genealogy>  (6) 
[NH-]C(=O)c1c[nH]c(-c2nc(C(N)=O)c(Cc3ccc(F)cc3)[n-]2)c1 (protonated)
[NH-]C(=O)c1c[nH]c(-c2nc(C(N)=O)c(Cc3ccc(F)cc3)[n-]2)c1 (3D coordinates assigned)
[NH-]C(=O)c1c[nH]c(-c2nc(C(N)=O)c(Cc3ccc(F)cc3)[n-]2)c1 (optimized conformer: 90.17791778227074 kcal/mol)

>  <smiles>  (6) 
NC(=O)c1c[nH]c(-c2nc(C(N)=O)c(Cc3ccc(F)cc3)[nH]2)c1

>  <score_type>  (6) 
oracle

>  <origin>  (6) 
adg

>  <m_score__min__energy>  (6) 
-11.460000000000001

>  <m_primary>  (6) 
energy

$$$$
6:0
     RDKit          3D

 62 65  0  0  0  0  0  0  0  0999 V2000
   55.1210   26.5720   45.9850 O   0  0  0  0  0  0  0  0  0  0  0  0
   56.3240   26.7160   46.3360 C   0  0  0  0  0  0  0  0  0  0  0  0
   57.0130   25.6250   46.9690 N   0  0  0  0  0  0  0  0  0  0  0  0
   56.4630   24.2720   47.0080 C   0  0  0  0  0  0  0  0  0  0  0  0
   56.4940   23.6600   45.6330 C   0  0  0  0  0  0  0  0  0  0  0  0
   57.5280   22.7820   45.2640 C   0  0  0  0  0  0  0  0  0  0  0  0
   57.5370   22.2020   43.9920 C   0  0  0  0  0  0  0  0  0  0  0  0
   56.5150   22.4880   43.0820 C   0  0  0  0  0  0  0  0  0  0  0  0
   56.5260   21.9240   41.8500 F   0  0  0  0  0  0  0  0  0  0  0  0
   55.4800   23.3560   43.4440 C   0  0  0  0  0  0  0  0  0  0  0  0
   55.4680   23.9400   44.7150 C   0  0  0  0  0  0  0  0  0  0  0  0
   57.0280   27.9940   46.0800 C   0  0  0  0  0  0  0  0  0  0  0  0
   58.3030   28.1390   46.5340 N   0  0  0  0  0  0  0  0  0  0  0  0
   59.0220   29.2680   46.3050 C   0  0  0  0  0  0  0  0  0  0  0  0
   60.4430   29.3570   46.7750 C   0  0  0  0  0  0  0  0  0  0  0  0
   60.6870   28.4800   48.0110 C   0  0  0  0  0  0  0  0  0  0  0  0
   61.0620   29.3100   49.2510 C   0  0  0  0  0  0  0  0  0  0  0  0
   61.3170   30.7850   48.9210 C   0  0  0  0  0  0  0  0  0  0  0  0
   60.9070   31.6500   50.0550 N   0  0  0  0  0  0  0  0  0  0  0  0
   61.3380   33.0620   49.8950 C   0  0  0  0  0  0  0  0  0  0  0  0
   60.2460   33.9880   49.3200 C   0  0  0  0  0  0  0  0  0  0  0  0
   59.2590   33.2150   48.5570 N   0  0  0  0  0  0  0  0  0  0  0  0
   58.7830   33.6590   47.2730 C   0  0  0  0  0  0  0  0  0  0  0  0
   57.4710   33.3860   46.8500 C   0  0  0  0  0  0  0  0  0  0  0  0
   57.0390   33.8520   45.6070 C   0  0  0  0  0  0  0  0  0  0  0  0
   57.9060   34.5890   44.8010 C   0  0  0  0  0  0  0  0  0  0  0  0
   59.1970   34.8600   45.2570 C   0  0  0  0  0  0  0  0  0  0  0  0
   59.6020   34.3980   46.4700 N   0  0  0  0  0  0  0  0  0  0  0  0
   58.5980   32.0850   49.2170 C   0  0  0  0  0  0  0  0  0  0  0  0
   59.4650   31.5400   50.3660 C   0  0  0  0  0  0  0  0  0  0  0  0
   58.4720   30.2870   45.5940 N   0  0  0  0  0  0  0  0  0  0  0  0
   57.2010   30.2040   45.1240 C   0  0  0  0  0  0  0  0  0  0  0  0
   56.7130   31.1670   44.4770 O   0  0  0  0  0  0  0  0  0  0  0  0
   56.4430   29.0510   45.3550 C   0  0  0  0  0  0  0  0  0  0  0  0
   55.1420   28.9690   44.8690 O   0  0  0  0  0  0  0  0  0  0  0  0
   57.9580   25.7800   47.3860 H   0  0  0  0  0  0  0  0  0  0  0  0
   57.0624   23.6555   47.6940 H   0  0  0  0  0  0  0  0  0  0  0  0
   55.4212   24.3173   47.3580 H   0  0  0  0  0  0  0  0  0  0  0  0
   58.3322   22.5507   45.9780 H   0  0  0  0  0  0  0  0  0  0  0  0
   58.3504   21.5188   43.7064 H   0  0  0  0  0  0  0  0  0  0  0  0
   54.6748   23.5797   42.7287 H   0  0  0  0  0  0  0  0  0  0  0  0
   54.6518   24.6214   44.9969 H   0  0  0  0  0  0  0  0  0  0  0  0
   61.1082   29.0243   45.9646 H   0  0  0  0  0  0  0  0  0  0  0  0
   60.6491   30.4021   47.0494 H   0  0  0  0  0  0  0  0  0  0  0  0
   59.7700   27.9129   48.2290 H   0  0  0  0  0  0  0  0  0  0  0  0
   61.5301   27.8099   47.7870 H   0  0  0  0  0  0  0  0  0  0  0  0
   60.2381   29.2493   49.9773 H   0  0  0  0  0  0  0  0  0  0  0  0
   61.9954   28.8947   49.6587 H   0  0  0  0  0  0  0  0  0  0  0  0
   62.3891   30.9315   48.7232 H   0  0  0  0  0  0  0  0  0  0  0  0
   60.7268   31.0581   48.0339 H   0  0  0  0  0  0  0  0  0  0  0  0
   61.6346   33.4474   50.8816 H   0  0  0  0  0  0  0  0  0  0  0  0
   62.1688   33.0623   49.1741 H   0  0  0  0  0  0  0  0  0  0  0  0
   59.7382   34.5048   50.1477 H   0  0  0  0  0  0  0  0  0  0  0  0
   60.7198   34.7182   48.6474 H   0  0  0  0  0  0  0  0  0  0  0  0
   56.7898   32.8097   47.4933 H   0  0  0  0  0  0  0  0  0  0  0  0
   56.0160   33.6381   45.2638 H   0  0  0  0  0  0  0  0  0  0  0  0
   57.5761   34.9528   43.8167 H   0  0  0  0  0  0  0  0  0  0  0  0
   59.8875   35.4479   44.6345 H   0  0  0  0  0  0  0  0  0  0  0  0
   57.6313   32.4190   49.6218 H   0  0  0  0  0  0  0  0  0  0  0  0
   58.4475   31.2840   48.4782 H   0  0  0  0  0  0  0  0  0  0  0  0
   59.2512   32.1150   51.2791 H   0  0  0  0  0  0  0  0  0  0  0  0
   59.2222   30.4765   50.5077 H   0  0  0  0  0  0  0  0  0  0  0  0
  1  2  2  0
  2  3  1  0
  3  4  1  0
  4  5  1  0
  5  6  2  0
  6  7  1  0
  7  8  2  0
  8  9  1  0
  8 10  1  0
 10 11  2  0
  2 12  1  0
 12 13  1  0
 13 14  1  0
 14 15  1  0
 15 16  1  0
 16 17  1  0
 17 18  1  0
 18 19  1  0
 19 20  1  0
 20 21  1  0
 21 22  1  0
 22 23  1  0
 23 24  2  0
 24 25  1  0
 25 26  2  0
 26 27  1  0
 27 28  2  0
 22 29  1  0
 29 30  1  0
 14 31  2  0
 31 32  1  0
 32 33  2  0
 32 34  1  0
 34 35  1  0
 11  5  1  0
 34 12  2  0
 30 19  1  0
 28 23  1  0
  3 36  1  0
  4 37  1  0
  4 38  1  0
  6 39  1  0
  7 40  1  0
 10 41  1  0
 11 42  1  0
 15 43  1  0
 15 44  1  0
 16 45  1  0
 16 46  1  0
 17 47  1  0
 17 48  1  0
 18 49  1  0
 18 50  1  0
 20 51  1  0
 20 52  1  0
 21 53  1  0
 21 54  1  0
 24 55  1  0
 25 56  1  0
 26 57  1  0
 27 58  1  0
 29 59  1  0
 29 60  1  0
 30 61  1  0
 30 62  1  0
M  CHG  2  13  -1  35  -1
M  END
>  <UniqueID>  (7) 
7

>  <SMILES>  (7) 
O=C(NCc1ccc(F)cc1)c1[n-]c(CCCCN2CCN(c3ccccn3)CC2)nc(=O)c1[O-]

>  <Energy>  (7) 
72.45449707507942

>  <Genealogy>  (7) 
O=C(NCc1ccc(F)cc1)c1[n-]c(CCCCN2CCN(c3ccccn3)CC2)nc(=O)c1[O-] (protonated)
O=C(NCc1ccc(F)cc1)c1[n-]c(CCCCN2CCN(c3ccccn3)CC2)nc(=O)c1[O-] (3D coordinates assigned)
O=C(NCc1ccc(F)cc1)c1[n-]c(CCCCN2CCN(c3ccccn3)CC2)nc(=O)c1[O-] (nonaromatic ring conformer: 72.45449707507942 kcal/mol)

>  <smiles>  (7) 
O=C(NCc1ccc(F)cc1)c1[nH]c(CCCCN2CCN(c3ccccn3)CC2)nc(=O)c1O

>  <score_type>  (7) 
oracle

>  <origin>  (7) 
adg

>  <m_score__min__energy>  (7) 
-14.9

>  <m_primary>  (7) 
energy

$$$$
7:0
     RDKit          3D

 44 46  0  0  0  0  0  0  0  0999 V2000
   58.3060   30.9980   44.1510 C   0  0  0  0  0  0  0  0  0  0  0  0
   58.2450   29.9390   44.9600 C   0  0  0  0  0  0  0  0  0  0  0  0
   56.9550   28.8590   44.9620 S   0  0  0  0  0  0  0  0  0  0  0  0
   57.5920   27.9110   46.2030 C   0  0  0  0  0  0  0  0  0  0  0  0
   57.0290   26.8190   46.7380 C   0  0  0  0  0  0  0  0  0  0  0  0
   56.6710   25.6300   45.9400 C   0  0  0  0  0  0  0  0  0  0  0  0
   55.3250   25.4140   45.5950 C   0  0  0  0  0  0  0  0  0  0  0  0
   54.3420   26.3180   45.9860 O   0  0  0  0  0  0  0  0  0  0  0  0
   54.9630   24.2920   44.8440 C   0  0  0  0  0  0  0  0  0  0  0  0
   55.9310   23.3690   44.4400 C   0  0  0  0  0  0  0  0  0  0  0  0
   55.5530   22.2590   43.6900 O   0  0  0  0  0  0  0  0  0  0  0  0
   57.2700   23.5660   44.7980 C   0  0  0  0  0  0  0  0  0  0  0  0
   57.6460   24.6860   45.5510 C   0  0  0  0  0  0  0  0  0  0  0  0
   59.3330   24.8430   46.0320 Cl  0  0  0  0  0  0  0  0  0  0  0  0
   58.8030   28.4830   46.5960 C   0  0  0  0  0  0  0  0  0  0  0  0
   59.5020   28.0080   47.5340 O   0  0  0  0  0  0  0  0  0  0  0  0
   59.1820   29.5940   45.8910 N   0  0  0  0  0  0  0  0  0  0  0  0
   60.4520   30.3070   46.1190 C   0  0  0  0  0  0  0  0  0  0  0  0
   60.4770   30.9570   47.4810 C   0  0  0  0  0  0  0  0  0  0  0  0
   61.3040   30.5350   48.3350 O   0  0  0  0  0  0  0  0  0  0  0  0
   59.5730   32.0240   47.8320 N   0  0  0  0  0  0  0  0  0  0  0  0
   59.1200   32.1450   49.2210 C   0  0  0  0  0  0  0  0  0  0  0  0
   59.0120   32.8860   46.8240 C   0  0  0  0  0  0  0  0  0  0  0  0
   57.6190   32.9560   46.6510 C   0  0  0  0  0  0  0  0  0  0  0  0
   57.0720   33.7990   45.6780 C   0  0  0  0  0  0  0  0  0  0  0  0
   57.9100   34.5740   44.8720 C   0  0  0  0  0  0  0  0  0  0  0  0
   59.2960   34.5040   45.0330 C   0  0  0  0  0  0  0  0  0  0  0  0
   59.8470   33.6600   46.0010 C   0  0  0  0  0  0  0  0  0  0  0  0
   59.1742   31.6721   44.1920 H   0  0  0  0  0  0  0  0  0  0  0  0
   57.4881   31.1971   43.4429 H   0  0  0  0  0  0  0  0  0  0  0  0
   56.8248   26.8082   47.8188 H   0  0  0  0  0  0  0  0  0  0  0  0
   53.9095   24.1348   44.5694 H   0  0  0  0  0  0  0  0  0  0  0  0
   55.1130   21.4520   44.1210 H   0  0  0  0  0  0  0  0  0  0  0  0
   58.0320   22.8366   44.4860 H   0  0  0  0  0  0  0  0  0  0  0  0
   61.2834   29.5902   46.0483 H   0  0  0  0  0  0  0  0  0  0  0  0
   60.5514   31.0933   45.3563 H   0  0  0  0  0  0  0  0  0  0  0  0
   59.9560   31.9217   49.9001 H   0  0  0  0  0  0  0  0  0  0  0  0
   58.7638   33.1698   49.4026 H   0  0  0  0  0  0  0  0  0  0  0  0
   58.3003   31.4343   49.4026 H   0  0  0  0  0  0  0  0  0  0  0  0
   56.9568   32.3459   47.2828 H   0  0  0  0  0  0  0  0  0  0  0  0
   55.9811   33.8519   45.5472 H   0  0  0  0  0  0  0  0  0  0  0  0
   57.4781   35.2397   44.1102 H   0  0  0  0  0  0  0  0  0  0  0  0
   59.9544   35.1140   44.3970 H   0  0  0  0  0  0  0  0  0  0  0  0
   60.9391   33.6015   46.1190 H   0  0  0  0  0  0  0  0  0  0  0  0
  1  2  2  0
  2  3  1  0
  3  4  1  0
  4  5  2  3
  5  6  1  0
  6  7  2  0
  7  8  1  0
  7  9  1  0
  9 10  2  0
 10 11  1  0
 10 12  1  0
 12 13  2  0
 13 14  1  0
  4 15  1  0
 15 16  2  0
 15 17  1  0
 17 18  1  0
 18 19  1  0
 19 20  2  0
 19 21  1  0
 21 22  1  0
 21 23  1  0
 23 24  2  0
 24 25  1  0
 25 26  2  0
 26 27  1  0
 27 28  2  0
 17  2  1  0
 28 23  1  0
 13  6  1  0
  1 29  1  0
  1 30  1  0
  5 31  1  0
  9 32  1  0
 11 33  1  0
 12 34  1  0
 18 35  1  0
 18 36  1  0
 22 37  1  0
 22 38  1  0
 22 39  1  0
 24 40  1  0
 25 41  1  0
 26 42  1  0
 27 43  1  0
 28 44  1  0
M  CHG  1   8  -1
M  END
>  <UniqueID>  (8) 
8

>  <SMILES>  (8) 
C=c1sc(=Cc2c([O-])cc(O)cc2Cl)c(=O)n1CC(=O)N(C)c1ccccc1

>  <Energy>  (8) 
89.80629843809555

>  <Genealogy>  (8) 
C=c1sc(=Cc2c([O-])cc(O)cc2Cl)c(=O)n1CC(=O)N(C)c1ccccc1 (protonated)
C=c1sc(=Cc2c([O-])cc(O)cc2Cl)c(=O)n1CC(=O)N(C)c1ccccc1 (3D coordinates assigned)
C=c1sc(=Cc2c([O-])cc(O)cc2Cl)c(=O)n1CC(=O)N(C)c1ccccc1 (optimized conformer: 89.80629843809555 kcal/mol)

>  <smiles>  (8) 
C=c1sc(=Cc2c(O)cc(O)cc2Cl)c(=O)n1CC(=O)N(C)c1ccccc1

>  <score_type>  (8) 
oracle

>  <origin>  (8) 
adg

>  <m_score__min__energy>  (8) 
-12.83

>  <m_primary>  (8) 
energy

$$$$
8:0
     RDKit          3D

 55 58  0  0  0  0  0  0  0  0999 V2000
   59.2810   26.7980   47.2310 O   0  0  0  0  0  0  0  0  0  0  0  0
   59.5270   27.9070   46.6850 C   0  0  0  0  0  0  0  0  0  0  0  0
   59.2240   28.1090   45.2360 C   0  0  0  0  0  0  0  0  0  0  0  0
   57.8350   28.6510   45.0760 C   0  0  0  0  0  0  0  0  0  0  0  0
   57.5910   29.9340   44.7490 N   0  0  0  0  0  0  0  0  0  0  0  0
   56.2460   30.0110   44.7580 C   0  0  0  0  0  0  0  0  0  0  0  0
   55.6240   31.0720   44.4910 O   0  0  0  0  0  0  0  0  0  0  0  0
   55.6200   28.8610   45.0790 N   0  0  0  0  0  0  0  0  0  0  0  0
   56.6290   27.9960   45.2900 C   0  0  0  0  0  0  0  0  0  0  0  0
   56.4100   26.5850   45.6750 C   0  0  0  0  0  0  0  0  0  0  0  0
   55.2610   26.1880   46.0050 O   0  0  0  0  0  0  0  0  0  0  0  0
   57.5130   25.6650   45.6810 N   0  0  0  0  0  0  0  0  0  0  0  0
   57.3910   24.2960   46.1740 C   0  0  0  0  0  0  0  0  0  0  0  0
   57.2370   23.3270   45.0320 C   0  0  0  0  0  0  0  0  0  0  0  0
   56.4450   23.6580   43.9180 C   0  0  0  0  0  0  0  0  0  0  0  0
   56.2530   22.7300   42.8900 C   0  0  0  0  0  0  0  0  0  0  0  0
   56.8570   21.4710   42.9600 C   0  0  0  0  0  0  0  0  0  0  0  0
   57.6500   21.1360   44.0610 C   0  0  0  0  0  0  0  0  0  0  0  0
   57.8330   22.0560   45.0980 C   0  0  0  0  0  0  0  0  0  0  0  0
   60.1120   28.9720   47.4410 N   0  0  0  0  0  0  0  0  0  0  0  0
   59.9910   29.1190   48.8610 C   0  0  0  0  0  0  0  0  0  0  0  0
   60.4700   28.0920   49.6840 C   0  0  0  0  0  0  0  0  0  0  0  0
   60.3910   28.2030   51.0730 C   0  0  0  0  0  0  0  0  0  0  0  0
   59.8510   29.3510   51.6520 C   0  0  0  0  0  0  0  0  0  0  0  0
   59.4000   30.3980   50.8430 C   0  0  0  0  0  0  0  0  0  0  0  0
   59.4730   30.2990   49.4390 C   0  0  0  0  0  0  0  0  0  0  0  0
   59.0800   31.3540   48.5960 O   0  0  0  0  0  0  0  0  0  0  0  0
   59.9460   32.1150   47.7540 C   0  0  0  0  0  0  0  0  0  0  0  0
   59.1550   32.9150   46.7530 C   0  0  0  0  0  0  0  0  0  0  0  0
   57.7780   32.6880   46.5990 C   0  0  0  0  0  0  0  0  0  0  0  0
   57.0420   33.4240   45.6660 C   0  0  0  0  0  0  0  0  0  0  0  0
   57.6770   34.3790   44.8690 C   0  0  0  0  0  0  0  0  0  0  0  0
   59.0500   34.5990   45.0020 C   0  0  0  0  0  0  0  0  0  0  0  0
   59.7900   33.8680   45.9380 C   0  0  0  0  0  0  0  0  0  0  0  0
   59.9450   28.8213   44.8084 H   0  0  0  0  0  0  0  0  0  0  0  0
   59.2991   27.1446   44.7123 H   0  0  0  0  0  0  0  0  0  0  0  0
   58.4600   25.9970   45.3870 H   0  0  0  0  0  0  0  0  0  0  0  0
   58.2938   24.0374   46.7468 H   0  0  0  0  0  0  0  0  0  0  0  0
   56.4988   24.2305   46.8141 H   0  0  0  0  0  0  0  0  0  0  0  0
   55.9749   24.6505   43.8552 H   0  0  0  0  0  0  0  0  0  0  0  0
   55.6258   22.9908   42.0248 H   0  0  0  0  0  0  0  0  0  0  0  0
   56.7080   20.7438   42.1482 H   0  0  0  0  0  0  0  0  0  0  0  0
   58.1306   20.1478   44.1118 H   0  0  0  0  0  0  0  0  0  0  0  0
   58.4464   21.7836   45.9695 H   0  0  0  0  0  0  0  0  0  0  0  0
   60.9116   27.1914   49.2324 H   0  0  0  0  0  0  0  0  0  0  0  0
   60.7549   27.3845   51.7114 H   0  0  0  0  0  0  0  0  0  0  0  0
   59.7799   29.4327   52.7466 H   0  0  0  0  0  0  0  0  0  0  0  0
   58.9851   31.3057   51.3055 H   0  0  0  0  0  0  0  0  0  0  0  0
   60.5403   32.8015   48.3749 H   0  0  0  0  0  0  0  0  0  0  0  0
   60.6044   31.4225   47.2092 H   0  0  0  0  0  0  0  0  0  0  0  0
   57.2761   31.9276   47.2153 H   0  0  0  0  0  0  0  0  0  0  0  0
   55.9610   33.2507   45.5594 H   0  0  0  0  0  0  0  0  0  0  0  0
   57.0958   34.9581   44.1363 H   0  0  0  0  0  0  0  0  0  0  0  0
   59.5501   35.3478   44.3702 H   0  0  0  0  0  0  0  0  0  0  0  0
   60.8721   34.0397   46.0363 H   0  0  0  0  0  0  0  0  0  0  0  0
  1  2  2  0
  2  3  1  0
  3  4  1  0
  4  5  1  0
  5  6  1  0
  6  7  2  0
  6  8  1  0
  8  9  1  0
  9 10  1  0
 10 11  2  0
 10 12  1  0
 12 13  1  0
 13 14  1  0
 14 15  2  0
 15 16  1  0
 16 17  2  0
 17 18  1  0
 18 19  2  0
  2 20  1  0
 20 21  1  0
 21 22  2  0
 22 23  1  0
 23 24  2  0
 24 25  1  0
 25 26  2  0
 26 27  1  0
 27 28  1  0
 28 29  1  0
 29 30  2  0
 30 31  1  0
 31 32  2  0
 32 33  1  0
 33 34  2  0
  9  4  2  0
 19 14  1  0
 26 21  1  0
 34 29  1  0
  3 35  1  0
  3 36  1  0
 12 37  1  0
 13 38  1  0
 13 39  1  0
 15 40  1  0
 16 41  1  0
 17 42  1  0
 18 43  1  0
 19 44  1  0
 22 45  1  0
 23 46  1  0
 24 47  1  0
 25 48  1  0
 28 49  1  0
 28 50  1  0
 30 51  1  0
 31 52  1  0
 32 53  1  0
 33 54  1  0
 34 55  1  0
M  CHG  3   5  -1   8  -1  20  -1
M  END
>  <UniqueID>  (9) 
9

>  <SMILES>  (9) 
O=C(Cc1[n-]c(=O)[n-]c1C(=O)NCc1ccccc1)[N-]c1ccccc1OCc1ccccc1

>  <Energy>  (9) 
81.74395276774897

>  <Genealogy>  (9) 
O=C(Cc1[n-]c(=O)[n-]c1C(=O)NCc1ccccc1)[N-]c1ccccc1OCc1ccccc1 (protonated)
O=C(Cc1[n-]c(=O)[n-]c1C(=O)NCc1ccccc1)[N-]c1ccccc1OCc1ccccc1 (3D coordinates assigned)
O=C(Cc1[n-]c(=O)[n-]c1C(=O)NCc1ccccc1)[N-]c1ccccc1OCc1ccccc1 (optimized conformer: 81.74395276774897 kcal/mol)

>  <smiles>  (9) 
O=C(Cc1[nH]c(=O)[nH]c1C(=O)NCc1ccccc1)Nc1ccccc1OCc1ccccc1

>  <score_type>  (9) 
oracle

>  <origin>  (9) 
adg

>  <m_score__min__energy>  (9) 
-14.09

>  <m_primary>  (9) 
energy

$$$$
9:0
     RDKit          3D

 48 51  0  0  0  0  0  0  0  0999 V2000
   57.2790   31.5680   42.9585 H   0  0  0  0  0  0  0  0  0  0  0  0
   57.1480   30.4810   43.0650 C   0  0  0  0  0  0  0  0  0  0  0  0
   56.8142   29.8805   42.2060 H   0  0  0  0  0  0  0  0  0  0  0  0
   57.3940   29.8910   44.2360 C   0  0  0  0  0  0  0  0  0  0  0  0
   57.2220   28.2370   44.4940 S   0  0  0  0  0  0  0  0  0  0  0  0
   57.7520   28.3020   46.0950 C   0  0  0  0  0  0  0  0  0  0  0  0
   57.9110   27.2640   46.9320 C   0  0  0  0  0  0  0  0  0  0  0  0
   58.5996   27.3862   47.7810 H   0  0  0  0  0  0  0  0  0  0  0  0
   57.2200   25.9720   46.7830 C   0  0  0  0  0  0  0  0  0  0  0  0
   57.7720   24.7980   47.1380 N   0  0  0  0  0  0  0  0  0  0  0  0
   56.7860   23.9040   46.9060 C   0  0  0  0  0  0  0  0  0  0  0  0
   56.9290   22.6710   47.1080 O   0  0  0  0  0  0  0  0  0  0  0  0
   55.6340   24.4370   46.4460 N   0  0  0  0  0  0  0  0  0  0  0  0
   55.9200   25.7480   46.3840 C   0  0  0  0  0  0  0  0  0  0  0  0
   54.9950   26.7180   46.0180 O   0  0  0  0  0  0  0  0  0  0  0  0
   58.0630   29.6330   46.3810 C   0  0  0  0  0  0  0  0  0  0  0  0
   58.4900   30.0050   47.5100 O   0  0  0  0  0  0  0  0  0  0  0  0
   57.8570   30.5150   45.3570 N   0  0  0  0  0  0  0  0  0  0  0  0
   58.0970   31.9310   45.4780 C   0  0  0  0  0  0  0  0  0  0  0  0
   57.5020   32.8290   44.5810 C   0  0  0  0  0  0  0  0  0  0  0  0
   56.8516   32.4516   43.7782 H   0  0  0  0  0  0  0  0  0  0  0  0
   57.7320   34.2010   44.7030 C   0  0  0  0  0  0  0  0  0  0  0  0
   57.2714   34.9007   43.9900 H   0  0  0  0  0  0  0  0  0  0  0  0
   58.5460   34.6860   45.7290 C   0  0  0  0  0  0  0  0  0  0  0  0
   58.7323   35.7668   45.8130 H   0  0  0  0  0  0  0  0  0  0  0  0
   59.1290   33.8040   46.6550 C   0  0  0  0  0  0  0  0  0  0  0  0
   59.9970   34.3120   47.7430 C   0  0  0  0  0  0  0  0  0  0  0  0
   59.6400   35.3320   48.3920 O   0  0  0  0  0  0  0  0  0  0  0  0
   61.2290   33.6520   48.0910 N   0  0  0  0  0  0  0  0  0  0  0  0
   62.2020   33.2850   47.0570 C   0  0  0  0  0  0  0  0  0  0  0  0
   61.6965   33.2550   46.0805 H   0  0  0  0  0  0  0  0  0  0  0  0
   63.0071   34.0345   47.0486 H   0  0  0  0  0  0  0  0  0  0  0  0
   62.8170   31.9030   47.3500 C   0  0  0  0  0  0  0  0  0  0  0  0
   62.1888   31.1373   46.8714 H   0  0  0  0  0  0  0  0  0  0  0  0
   63.8424   31.9223   46.9522 H   0  0  0  0  0  0  0  0  0  0  0  0
   62.9260   31.5790   48.7980 N   0  0  0  0  0  0  0  0  0  0  0  0
   61.9100   30.5950   49.2180 C   0  0  0  0  0  0  0  0  0  0  0  0
   61.8696   30.5558   50.3166 H   0  0  0  0  0  0  0  0  0  0  0  0
   60.9266   30.8929   48.8253 H   0  0  0  0  0  0  0  0  0  0  0  0
   62.1763   29.6026   48.8253 H   0  0  0  0  0  0  0  0  0  0  0  0
   62.9240   32.7750   49.6660 C   0  0  0  0  0  0  0  0  0  0  0  0
   63.0054   32.4538   50.7149 H   0  0  0  0  0  0  0  0  0  0  0  0
   63.7770   33.4073   49.3787 H   0  0  0  0  0  0  0  0  0  0  0  0
   61.6390   33.6010   49.4970 C   0  0  0  0  0  0  0  0  0  0  0  0
   60.8348   33.1407   50.0898 H   0  0  0  0  0  0  0  0  0  0  0  0
   61.8336   34.6269   49.8429 H   0  0  0  0  0  0  0  0  0  0  0  0
   58.9070   32.4220   46.5140 C   0  0  0  0  0  0  0  0  0  0  0  0
   59.3722   31.7201   47.2217 H   0  0  0  0  0  0  0  0  0  0  0  0
  1  2  1  0
  2  3  1  0
  2  4  2  0
  4  5  1  0
  5  6  1  0
  6  7  2  0
  7  8  1  0
  7  9  1  0
  9 10  1  0
 10 11  1  0
 11 12  2  0
 11 13  1  0
 13 14  1  0
 14 15  1  0
  6 16  1  0
 16 17  2  0
 16 18  1  0
 18 19  1  0
 19 20  2  0
 20 21  1  0
 20 22  1  0
 22 23  1  0
 22 24  2  0
 24 25  1  0
 24 26  1  0
 26 27  1  0
 27 28  2  0
 27 29  1  0
 29 30  1  0
 30 31  1  0
 30 32  1  0
 30 33  1  0
 33 34  1  0
 33 35  1  0
 33 36  1  0
 36 37  1  0
 37 38  1  0
 37 39  1  0
 37 40  1  0
 36 41  1  0
 41 42  1  0
 41 43  1  0
 41 44  1  0
 44 45  1  0
 44 46  1  0
 26 47  2  0
 47 48  1  0
 18  4  1  0
 47 19  1  0
 14  9  2  0
 44 29  1  0
M  CHG  3  10  -1  13  -1  15  -1
M  END
>  <UniqueID>  (10) 
10

>  <SMILES>  (10) 
C=c1s/c(=C\c2[n-]c(=O)[n-]c2[O-])c(=O)n1-c1cccc(C(=O)N2CCN(C)CC2)c1

>  <Energy>  (10) 
137.49348002701893

>  <Genealogy>  (10) 
C=c1sc(=Cc2[n-]c(=O)[n-]c2[O-])c(=O)n1-c1cccc(C(=O)N2CCN(C)CC2)c1 (protonated)
C=c1s/c(=C\c2[n-]c(=O)[n-]c2[O-])c(=O)n1-c1cccc(C(=O)N2CCN(C)CC2)c1 (cis-trans isomerization)
C=c1s/c(=C\c2[n-]c(=O)[n-]c2[O-])c(=O)n1-c1cccc(C(=O)N2CCN(C)CC2)c1 (3D coordinates assigned)
C=c1s/c(=C\c2[n-]c(=O)[n-]c2[O-])c(=O)n1-c1cccc(C(=O)N2CCN(C)CC2)c1 (nonaromatic ring conformer: 137.49348002701893 kcal/mol)

>  <smiles>  (10) 
C=c1sc(=Cc2[nH]c(=O)[nH]c2O)c(=O)n1-c1cccc(C(=O)N2CCN(C)CC2)c1

>  <score_type>  (10) 
oracle

>  <origin>  (10) 
adg

>  <m_score__min__energy>  (10) 
-17.300000000000001

>  <m_primary>  (10) 
energy

$$$$
10:0
     RDKit          3D

 41 43  0  0  0  0  0  0  0  0999 V2000
   55.9420   22.1480   41.5450 H   0  0  0  0  0  0  0  0  0  0  0  0
   55.8990   21.8960   42.5590 N   0  0  0  0  0  0  0  0  0  0  0  0
   56.6430   22.4730   43.4490 C   0  0  0  0  0  0  0  0  0  0  0  0
   56.1990   23.6060   44.0580 N   0  0  0  0  0  0  0  0  0  0  0  0
   56.9330   24.2450   45.0090 C   0  0  0  0  0  0  0  0  0  0  0  0
   56.5382   25.1557   45.4831 H   0  0  0  0  0  0  0  0  0  0  0  0
   58.1860   23.7520   45.3880 C   0  0  0  0  0  0  0  0  0  0  0  0
   58.9040   24.4100   46.4410 N   0  0  0  0  0  0  0  0  0  0  0  0
   59.4800   25.7230   46.3870 C   0  0  0  0  0  0  0  0  0  0  0  0
   60.6330   25.9230   46.8550 O   0  0  0  0  0  0  0  0  0  0  0  0
   58.7420   26.8290   45.7300 C   0  0  0  0  0  0  0  0  0  0  0  0
   58.0180   27.7660   46.4930 C   0  0  0  0  0  0  0  0  0  0  0  0
   58.0216   27.6965   47.5908 H   0  0  0  0  0  0  0  0  0  0  0  0
   57.2940   28.7850   45.8630 C   0  0  0  0  0  0  0  0  0  0  0  0
   56.7309   29.5114   46.4673 H   0  0  0  0  0  0  0  0  0  0  0  0
   57.2840   28.8830   44.4640 C   0  0  0  0  0  0  0  0  0  0  0  0
   56.3530   30.1330   43.6440 S   0  0  0  0  0  0  0  0  0  0  0  0
   55.8980   29.6270   42.3040 O   0  0  0  0  0  0  0  0  0  0  0  0
   55.1420   30.4590   44.4710 O   0  0  0  0  0  0  0  0  0  0  0  0
   57.2850   31.5870   43.4520 N   0  0  0  0  0  0  0  0  0  0  0  0
   57.7280   32.3260   44.4260 C   0  0  0  0  0  0  0  0  0  0  0  0
   57.4460   32.0200   45.7240 N   0  0  0  0  0  0  0  0  0  0  0  0
   57.9110   32.7730   46.7590 C   0  0  0  0  0  0  0  0  0  0  0  0
   57.6798   32.4848   47.7951 H   0  0  0  0  0  0  0  0  0  0  0  0
   58.6840   33.9150   46.5060 C   0  0  0  0  0  0  0  0  0  0  0  0
   59.2320   34.7390   47.6330 C   0  0  0  0  0  0  0  0  0  0  0  0
   58.9344   34.2915   48.5928 H   0  0  0  0  0  0  0  0  0  0  0  0
   60.3296   34.7675   47.5664 H   0  0  0  0  0  0  0  0  0  0  0  0
   58.8339   35.7623   47.5664 H   0  0  0  0  0  0  0  0  0  0  0  0
   58.9860   34.2440   45.1780 C   0  0  0  0  0  0  0  0  0  0  0  0
   59.6040   35.1268   44.9575 H   0  0  0  0  0  0  0  0  0  0  0  0
   58.5030   33.4520   44.1340 C   0  0  0  0  0  0  0  0  0  0  0  0
   58.7308   33.7124   43.0898 H   0  0  0  0  0  0  0  0  0  0  0  0
   58.0040   27.9550   43.7030 C   0  0  0  0  0  0  0  0  0  0  0  0
   58.0011   28.0297   42.6055 H   0  0  0  0  0  0  0  0  0  0  0  0
   58.7260   26.9350   44.3260 C   0  0  0  0  0  0  0  0  0  0  0  0
   59.2855   26.2101   43.7165 H   0  0  0  0  0  0  0  0  0  0  0  0
   58.6600   22.5780   44.7790 C   0  0  0  0  0  0  0  0  0  0  0  0
   59.6371   22.1634   45.0677 H   0  0  0  0  0  0  0  0  0  0  0  0
   57.8880   21.9380   43.8060 C   0  0  0  0  0  0  0  0  0  0  0  0
   58.2551   21.0202   43.3234 H   0  0  0  0  0  0  0  0  0  0  0  0
  1  2  1  0
  2  3  2  0
  3  4  1  0
  4  5  1  0
  5  6  1  0
  5  7  2  0
  7  8  1  0
  8  9  1  0
  9 10  2  0
  9 11  1  0
 11 12  2  0
 12 13  1  0
 12 14  1  0
 14 15  1  0
 14 16  2  0
 16 17  1  0
 17 18  2  0
 17 19  2  0
 17 20  1  0
 20 21  2  3
 21 22  1  0
 22 23  1  0
 23 24  1  0
 23 25  2  0
 25 26  1  0
 26 27  1  0
 26 28  1  0
 26 29  1  0
 25 30  1  0
 30 31  1  0
 30 32  2  0
 32 33  1  0
 16 34  1  0
 34 35  1  0
 34 36  2  0
 36 37  1  0
  7 38  1  0
 38 39  1  0
 38 40  2  0
 40 41  1  0
 40  3  1  0
 36 11  1  0
 32 21  1  0
M  CHG  3   4  -1   8  -1  22  -1
M  END
>  <UniqueID>  (11) 
11

>  <SMILES>  (11) 
[H]/N=c1\ccc([N-]C(=O)c2ccc(S(=O)(=O)N=c3ccc(C)c[n-]3)cc2)c[n-]1

>  <Energy>  (11) 
53.523310395751025

>  <Genealogy>  (11) 
Cc1ccc(=NS(=O)(=O)c2ccc(C(=O)[N-]c3ccc(=N)[n-]c3)cc2)[n-]c1 (protonated)
[H]/N=c1\ccc([N-]C(=O)c2ccc(S(=O)(=O)N=c3ccc(C)c[n-]3)cc2)c[n-]1 (cis-trans isomerization)
[H]/N=c1\ccc([N-]C(=O)c2ccc(S(=O)(=O)N=c3ccc(C)c[n-]3)cc2)c[n-]1 (3D coordinates assigned)
[H]/N=c1\ccc([N-]C(=O)c2ccc(S(=O)(=O)N=c3ccc(C)c[n-]3)cc2)c[n-]1 (optimized conformer: 53.523310395751025 kcal/mol)

>  <smiles>  (11) 
Cc1ccc(=NS(=O)(=O)c2ccc(C(=O)Nc3ccc(=N)[nH]c3)cc2)[nH]c1

>  <score_type>  (11) 
oracle

>  <origin>  (11) 
adg

>  <m_score__min__energy>  (11) 
-12.76

>  <m_primary>  (11) 
energy

$$$$
11:0
     RDKit          3D

 56 60  0  0  0  0  0  0  0  0999 V2000
   58.5110   29.8140   47.1530 C   0  0  0  0  0  0  0  0  0  0  0  0
   58.1620   30.5060   46.0560 C   0  0  0  0  0  0  0  0  0  0  0  0
   57.3070   30.0850   45.0250 C   0  0  0  0  0  0  0  0  0  0  0  0
   56.7850   28.8750   44.7470 C   0  0  0  0  0  0  0  0  0  0  0  0
   57.1670   27.6080   45.3870 C   0  0  0  0  0  0  0  0  0  0  0  0
   58.4400   27.2490   45.6460 N   0  0  0  0  0  0  0  0  0  0  0  0
   58.3430   26.0940   46.3350 C   0  0  0  0  0  0  0  0  0  0  0  0
   59.3450   25.4390   46.7300 O   0  0  0  0  0  0  0  0  0  0  0  0
   57.0670   25.7220   46.5620 N   0  0  0  0  0  0  0  0  0  0  0  0
   56.5890   24.5100   47.2190 C   0  0  0  0  0  0  0  0  0  0  0  0
   56.3260   26.6770   45.9710 C   0  0  0  0  0  0  0  0  0  0  0  0
   54.9360   26.7150   45.9830 O   0  0  0  0  0  0  0  0  0  0  0  0
   57.0520   31.2060   44.2520 C   0  0  0  0  0  0  0  0  0  0  0  0
   57.8030   32.2360   44.7790 C   0  0  0  0  0  0  0  0  0  0  0  0
   57.8320   33.6310   44.2320 C   0  0  0  0  0  0  0  0  0  0  0  0
   58.4750   31.8150   45.8740 N   0  0  0  0  0  0  0  0  0  0  0  0
   59.3280   32.6290   46.6980 C   0  0  0  0  0  0  0  0  0  0  0  0
   58.7800   33.6350   47.5050 C   0  0  0  0  0  0  0  0  0  0  0  0
   59.6100   34.4230   48.3040 C   0  0  0  0  0  0  0  0  0  0  0  0
   60.9920   34.2190   48.2960 C   0  0  0  0  0  0  0  0  0  0  0  0
   61.5590   33.2280   47.4790 C   0  0  0  0  0  0  0  0  0  0  0  0
   63.0230   33.0190   47.4720 C   0  0  0  0  0  0  0  0  0  0  0  0
   63.6790   33.2910   46.4300 O   0  0  0  0  0  0  0  0  0  0  0  0
   63.7020   32.4750   48.6180 N   0  0  0  0  0  0  0  0  0  0  0  0
   64.8960   33.0860   49.2170 C   0  0  0  0  0  0  0  0  0  0  0  0
   65.0180   32.4960   50.6430 C   0  0  0  0  0  0  0  0  0  0  0  0
   63.8480   31.5850   50.7400 C   0  0  0  0  0  0  0  0  0  0  0  0
   63.4710   30.7850   51.8210 C   0  0  0  0  0  0  0  0  0  0  0  0
   62.3300   29.9780   51.6910 C   0  0  0  0  0  0  0  0  0  0  0  0
   61.5980   29.9770   50.4900 C   0  0  0  0  0  0  0  0  0  0  0  0
   61.9980   30.7890   49.4150 C   0  0  0  0  0  0  0  0  0  0  0  0
   63.1270   31.5990   49.5760 C   0  0  0  0  0  0  0  0  0  0  0  0
   60.7160   32.4230   46.6930 C   0  0  0  0  0  0  0  0  0  0  0  0
   59.1941   30.2603   47.8906 H   0  0  0  0  0  0  0  0  0  0  0  0
   58.1137   28.8009   47.3138 H   0  0  0  0  0  0  0  0  0  0  0  0
   56.0044   28.8310   43.9732 H   0  0  0  0  0  0  0  0  0  0  0  0
   59.3130   27.7530   45.3720 H   0  0  0  0  0  0  0  0  0  0  0  0
   56.6402   24.6398   48.3101 H   0  0  0  0  0  0  0  0  0  0  0  0
   55.5477   24.3178   46.9211 H   0  0  0  0  0  0  0  0  0  0  0  0
   57.2187   23.6587   46.9211 H   0  0  0  0  0  0  0  0  0  0  0  0
   56.3791   31.2637   43.3837 H   0  0  0  0  0  0  0  0  0  0  0  0
   57.8470   34.3507   45.0637 H   0  0  0  0  0  0  0  0  0  0  0  0
   58.7331   33.7644   43.6154 H   0  0  0  0  0  0  0  0  0  0  0  0
   56.9372   33.8017   43.6154 H   0  0  0  0  0  0  0  0  0  0  0  0
   57.6931   33.8041   47.5088 H   0  0  0  0  0  0  0  0  0  0  0  0
   59.1748   35.2066   48.9416 H   0  0  0  0  0  0  0  0  0  0  0  0
   61.6398   34.8385   48.9336 H   0  0  0  0  0  0  0  0  0  0  0  0
   65.7888   32.8375   48.6245 H   0  0  0  0  0  0  0  0  0  0  0  0
   64.8128   34.1825   49.2441 H   0  0  0  0  0  0  0  0  0  0  0  0
   65.9602   31.9405   50.7599 H   0  0  0  0  0  0  0  0  0  0  0  0
   65.0281   33.2671   51.4274 H   0  0  0  0  0  0  0  0  0  0  0  0
   64.0551   30.7873   52.7531 H   0  0  0  0  0  0  0  0  0  0  0  0
   62.0074   29.3447   52.5306 H   0  0  0  0  0  0  0  0  0  0  0  0
   60.7083   29.3377   50.3917 H   0  0  0  0  0  0  0  0  0  0  0  0
   61.4364   30.7876   48.4691 H   0  0  0  0  0  0  0  0  0  0  0  0
   61.1475   31.6260   46.0697 H   0  0  0  0  0  0  0  0  0  0  0  0
  1  2  2  0
  2  3  1  0
  3  4  2  3
  4  5  1  0
  5  6  1  0
  6  7  1  0
  7  8  2  0
  7  9  1  0
  9 10  1  0
  9 11  1  0
 11 12  1  0
  3 13  1  0
 13 14  2  0
 14 15  1  0
 14 16  1  0
 16 17  1  0
 17 18  2  0
 18 19  1  0
 19 20  2  0
 20 21  1  0
 21 22  1  0
 22 23  2  0
 22 24  1  0
 24 25  1  0
 25 26  1  0
 26 27  1  0
 27 28  2  0
 28 29  1  0
 29 30  2  0
 30 31  1  0
 31 32  2  0
 21 33  2  0
 16  2  1  0
 33 17  1  0
 11  5  2  0
 32 24  1  0
 32 27  1  0
  1 34  1  0
  1 35  1  0
  4 36  1  0
  6 37  1  0
 10 38  1  0
 10 39  1  0
 10 40  1  0
 13 41  1  0
 15 42  1  0
 15 43  1  0
 15 44  1  0
 18 45  1  0
 19 46  1  0
 20 47  1  0
 25 48  1  0
 25 49  1  0
 26 50  1  0
 26 51  1  0
 28 52  1  0
 29 53  1  0
 30 54  1  0
 31 55  1  0
 33 56  1  0
M  CHG  1  12  -1
M  END
>  <UniqueID>  (12) 
12

>  <SMILES>  (12) 
C=c1c(=Cc2[nH]c(=O)n(C)c2[O-])cc(C)n1-c1cccc(C(=O)N2CCc3ccccc32)c1

>  <Energy>  (12) 
160.63539775201272

>  <Genealogy>  (12) 
C=c1c(=Cc2[nH]c(=O)n(C)c2[O-])cc(C)n1-c1cccc(C(=O)N2CCc3ccccc32)c1 (protonated)
C=c1c(=Cc2[nH]c(=O)n(C)c2[O-])cc(C)n1-c1cccc(C(=O)N2CCc3ccccc32)c1 (3D coordinates assigned)
C=c1c(=Cc2[nH]c(=O)n(C)c2[O-])cc(C)n1-c1cccc(C(=O)N2CCc3ccccc32)c1 (nonaromatic ring conformer: 160.63539775201272 kcal/mol)

>  <smiles>  (12) 
C=c1c(=Cc2[nH]c(=O)n(C)c2O)cc(C)n1-c1cccc(C(=O)N2CCc3ccccc32)c1

>  <score_type>  (12) 
oracle

>  <origin>  (12) 
adg

>  <m_score__min__energy>  (12) 
-14.18

>  <m_primary>  (12) 
energy

$$$$
12:0
     RDKit          3D

 26 26  0  0  0  0  0  0  0  0999 V2000
   55.9947   30.1504   42.3390 H   0  0  0  0  0  0  0  0  0  0  0  0
   56.5860   30.3350   43.2480 C   0  0  0  0  0  0  0  0  0  0  0  0
   56.2850   29.5010   44.4280 C   0  0  0  0  0  0  0  0  0  0  0  0
   55.1060   29.3780   44.8560 O   0  0  0  0  0  0  0  0  0  0  0  0
   57.3530   28.7810   45.0520 N   0  0  0  0  0  0  0  0  0  0  0  0
   57.6580   27.3840   44.7670 C   0  0  0  0  0  0  0  0  0  0  0  0
   58.7237   27.1972   44.9656 H   0  0  0  0  0  0  0  0  0  0  0  0
   57.4298   27.1756   43.7113 H   0  0  0  0  0  0  0  0  0  0  0  0
   56.8280   26.4840   45.6330 C   0  0  0  0  0  0  0  0  0  0  0  0
   57.2660   25.3460   45.9500 O   0  0  0  0  0  0  0  0  0  0  0  0
   55.5350   26.8940   46.0780 N   0  0  0  0  0  0  0  0  0  0  0  0
   55.1510   27.8300   45.8180 H   0  0  0  0  0  0  0  0  0  0  0  0
   54.9570   26.2580   46.6700 H   0  0  0  0  0  0  0  0  0  0  0  0
   57.5180   31.2990   43.1870 C   0  0  0  0  0  0  0  0  0  0  0  0
   57.9154   31.5546   42.1937 H   0  0  0  0  0  0  0  0  0  0  0  0
   58.0540   32.0450   44.3440 C   0  0  0  0  0  0  0  0  0  0  0  0
   57.7380   33.4010   44.5490 C   0  0  0  0  0  0  0  0  0  0  0  0
   57.1110   33.9330   43.8183 H   0  0  0  0  0  0  0  0  0  0  0  0
   58.2160   34.0750   45.6750 C   0  0  0  0  0  0  0  0  0  0  0  0
   57.9797   35.1395   45.8202 H   0  0  0  0  0  0  0  0  0  0  0  0
   58.9950   33.3970   46.6180 C   0  0  0  0  0  0  0  0  0  0  0  0
   59.6470   34.3180   48.1600 Br  0  0  0  0  0  0  0  0  0  0  0  0
   59.2870   32.0410   46.4380 C   0  0  0  0  0  0  0  0  0  0  0  0
   59.8924   31.5056   47.1842 H   0  0  0  0  0  0  0  0  0  0  0  0
   58.8100   31.3650   45.3100 C   0  0  0  0  0  0  0  0  0  0  0  0
   59.0289   30.2949   45.1800 H   0  0  0  0  0  0  0  0  0  0  0  0
  1  2  1  0
  2  3  1  0
  3  4  2  0
  3  5  1  0
  5  6  1  0
  6  7  1  0
  6  8  1  0
  6  9  1  0
  9 10  2  0
  9 11  1  0
 11 12  1  0
 11 13  1  0
  2 14  2  0
 14 15  1  0
 14 16  1  0
 16 17  2  0
 17 18  1  0
 17 19  1  0
 19 20  1  0
 19 21  2  0
 21 22  1  0
 21 23  1  0
 23 24  1  0
 23 25  2  0
 25 26  1  0
 25 16  1  0
M  CHG  1   5  -1
M  END
>  <UniqueID>  (13) 
13

>  <SMILES>  (13) 
NC(=O)C[N-]C(=O)/C=C\c1ccc(Br)cc1

>  <Energy>  (13) 
27.0233530680216

>  <Genealogy>  (13) 
NC(=O)C[N-]C(=O)C=Cc1ccc(Br)cc1 (protonated)
NC(=O)C[N-]C(=O)/C=C\c1ccc(Br)cc1 (cis-trans isomerization)
NC(=O)C[N-]C(=O)/C=C\c1ccc(Br)cc1 (3D coordinates assigned)
NC(=O)C[N-]C(=O)/C=C\c1ccc(Br)cc1 (optimized conformer: 27.0233530680216 kcal/mol)

>  <smiles>  (13) 
NC(=O)CNC(=O)C=Cc1ccc(Br)cc1

>  <score_type>  (13) 
oracle

>  <origin>  (13) 
adg

>  <m_score__min__energy>  (13) 
-8.6099999999999994

>  <m_primary>  (13) 
energy

$$$$
13:0
     RDKit          3D

 63 66  0  0  0  0  0  0  0  0999 V2000
   57.2980   32.5840   45.2450 C   0  0  0  0  0  0  0  0  0  0  0  0
   57.0450   31.4980   44.2040 C   0  0  0  0  0  0  0  0  0  0  0  0
   56.5440   30.3160   44.8250 O   0  0  0  0  0  0  0  0  0  0  0  0
   57.0170   29.0320   44.5340 C   0  0  0  0  0  0  0  0  0  0  0  0
   57.0350   28.6180   43.3430 O   0  0  0  0  0  0  0  0  0  0  0  0
   57.5560   28.1750   45.6120 C   0  0  0  0  0  0  0  0  0  0  0  0
   56.8330   27.1040   46.1330 C   0  0  0  0  0  0  0  0  0  0  0  0
   55.5380   26.6990   45.6680 N   0  0  0  0  0  0  0  0  0  0  0  0
   55.0270   25.3600   45.6030 C   0  0  0  0  0  0  0  0  0  0  0  0
   53.8190   25.1320   45.8740 O   0  0  0  0  0  0  0  0  0  0  0  0
   55.9270   24.2550   45.1790 C   0  0  0  0  0  0  0  0  0  0  0  0
   56.1800   24.0930   43.8030 C   0  0  0  0  0  0  0  0  0  0  0  0
   56.9800   23.0500   43.3390 C   0  0  0  0  0  0  0  0  0  0  0  0
   57.5490   22.1520   44.2410 C   0  0  0  0  0  0  0  0  0  0  0  0
   57.3260   22.3000   45.6090 C   0  0  0  0  0  0  0  0  0  0  0  0
   56.5310   23.3530   46.0980 C   0  0  0  0  0  0  0  0  0  0  0  0
   56.3600   23.4880   47.5880 C   0  0  0  0  0  0  0  0  0  0  0  0
   57.7130   26.3840   47.3650 S   0  0  0  0  0  0  0  0  0  0  0  0
   59.0490   27.4060   47.2680 C   0  0  0  0  0  0  0  0  0  0  0  0
   60.1910   27.4170   48.2160 C   0  0  0  0  0  0  0  0  0  0  0  0
   61.1150   26.5730   48.0430 O   0  0  0  0  0  0  0  0  0  0  0  0
   60.2620   28.3160   49.3480 N   0  0  0  0  0  0  0  0  0  0  0  0
   61.1100   27.9530   50.4960 C   0  0  0  0  0  0  0  0  0  0  0  0
   60.4290   28.3390   51.8170 C   0  0  0  0  0  0  0  0  0  0  0  0
   59.8400   29.6840   51.7520 N   0  0  0  0  0  0  0  0  0  0  0  0
   59.0610   30.1720   52.8620 C   0  0  0  0  0  0  0  0  0  0  0  0
   57.7770   30.7000   52.6490 C   0  0  0  0  0  0  0  0  0  0  0  0
   57.0340   31.1680   53.7350 C   0  0  0  0  0  0  0  0  0  0  0  0
   57.5670   31.0970   55.0220 C   0  0  0  0  0  0  0  0  0  0  0  0
   58.8430   30.5600   55.2040 C   0  0  0  0  0  0  0  0  0  0  0  0
   59.5570   30.1110   54.1340 N   0  0  0  0  0  0  0  0  0  0  0  0
   59.9920   30.4850   50.5320 C   0  0  0  0  0  0  0  0  0  0  0  0
   59.6150   29.6390   49.3130 C   0  0  0  0  0  0  0  0  0  0  0  0
   58.8130   28.3480   46.2510 C   0  0  0  0  0  0  0  0  0  0  0  0
   59.7580   29.4920   45.9860 C   0  0  0  0  0  0  0  0  0  0  0  0
   57.1982   32.1558   46.2533 H   0  0  0  0  0  0  0  0  0  0  0  0
   58.3138   32.9859   45.1162 H   0  0  0  0  0  0  0  0  0  0  0  0
   56.5644   33.3934   45.1162 H   0  0  0  0  0  0  0  0  0  0  0  0
   56.3085   31.8624   43.4727 H   0  0  0  0  0  0  0  0  0  0  0  0
   57.9940   31.2601   43.7011 H   0  0  0  0  0  0  0  0  0  0  0  0
   55.7399   24.7997   43.0841 H   0  0  0  0  0  0  0  0  0  0  0  0
   57.1625   22.9354   42.2603 H   0  0  0  0  0  0  0  0  0  0  0  0
   58.1747   21.3257   43.8727 H   0  0  0  0  0  0  0  0  0  0  0  0
   57.7764   21.5858   46.3140 H   0  0  0  0  0  0  0  0  0  0  0  0
   57.1238   22.8850   48.1009 H   0  0  0  0  0  0  0  0  0  0  0  0
   56.4722   24.5437   47.8758 H   0  0  0  0  0  0  0  0  0  0  0  0
   55.3591   23.1339   47.8758 H   0  0  0  0  0  0  0  0  0  0  0  0
   61.2875   26.8675   50.4849 H   0  0  0  0  0  0  0  0  0  0  0  0
   62.0632   28.4963   50.4175 H   0  0  0  0  0  0  0  0  0  0  0  0
   59.6331   27.6113   52.0337 H   0  0  0  0  0  0  0  0  0  0  0  0
   61.1917   28.3365   52.6096 H   0  0  0  0  0  0  0  0  0  0  0  0
   57.3590   30.7446   51.6325 H   0  0  0  0  0  0  0  0  0  0  0  0
   56.0313   31.5914   53.5758 H   0  0  0  0  0  0  0  0  0  0  0  0
   56.9884   31.4601   55.8842 H   0  0  0  0  0  0  0  0  0  0  0  0
   59.2732   30.4993   56.2146 H   0  0  0  0  0  0  0  0  0  0  0  0
   60.5150   29.7310   54.3050 H   0  0  0  0  0  0  0  0  0  0  0  0
   59.3324   31.3636   50.5862 H   0  0  0  0  0  0  0  0  0  0  0  0
   61.0372   30.8150   50.4390 H   0  0  0  0  0  0  0  0  0  0  0  0
   58.5237   29.5020   49.2976 H   0  0  0  0  0  0  0  0  0  0  0  0
   59.9585   30.1654   48.4103 H   0  0  0  0  0  0  0  0  0  0  0  0
   60.1040   29.9109   46.9425 H   0  0  0  0  0  0  0  0  0  0  0  0
   60.6223   29.1280   45.4111 H   0  0  0  0  0  0  0  0  0  0  0  0
   59.2374   30.2720   45.4111 H   0  0  0  0  0  0  0  0  0  0  0  0
  1  2  1  0
  2  3  1  0
  3  4  1  0
  4  5  2  0
  4  6  1  0
  6  7  2  0
  7  8  1  0
  8  9  1  0
  9 10  2  0
  9 11  1  0
 11 12  2  0
 12 13  1  0
 13 14  2  0
 14 15  1  0
 15 16  2  0
 16 17  1  0
  7 18  1  0
 18 19  1  0
 19 20  1  0
 20 21  2  0
 20 22  1  0
 22 23  1  0
 23 24  1  0
 24 25  1  0
 25 26  1  0
 26 27  2  0
 27 28  1  0
 28 29  2  0
 29 30  1  0
 30 31  2  0
 25 32  1  0
 32 33  1  0
 19 34  2  0
 34 35  1  0
 34  6  1  0
 16 11  1  0
 33 22  1  0
 31 26  1  0
  1 36  1  0
  1 37  1  0
  1 38  1  0
  2 39  1  0
  2 40  1  0
 12 41  1  0
 13 42  1  0
 14 43  1  0
 15 44  1  0
 17 45  1  0
 17 46  1  0
 17 47  1  0
 23 48  1  0
 23 49  1  0
 24 50  1  0
 24 51  1  0
 27 52  1  0
 28 53  1  0
 29 54  1  0
 30 55  1  0
 31 56  1  0
 32 57  1  0
 32 58  1  0
 33 59  1  0
 33 60  1  0
 35 61  1  0
 35 62  1  0
 35 63  1  0
M  CHG  2   8  -1  31   1
M  END
>  <UniqueID>  (14) 
14

>  <SMILES>  (14) 
CCOC(=O)c1c([N-]C(=O)c2ccccc2C)sc(C(=O)N2CCN(c3cccc[nH+]3)CC2)c1C

>  <Energy>  (14) 
110.25374030081734

>  <Genealogy>  (14) 
CCOC(=O)c1c([N-]C(=O)c2ccccc2C)sc(C(=O)N2CCN(c3cccc[nH+]3)CC2)c1C (protonated)
CCOC(=O)c1c([N-]C(=O)c2ccccc2C)sc(C(=O)N2CCN(c3cccc[nH+]3)CC2)c1C (3D coordinates assigned)
CCOC(=O)c1c([N-]C(=O)c2ccccc2C)sc(C(=O)N2CCN(c3cccc[nH+]3)CC2)c1C (nonaromatic ring conformer: 110.25374030081734 kcal/mol)

>  <smiles>  (14) 
CCOC(=O)c1c(NC(=O)c2ccccc2C)sc(C(=O)N2CCN(c3ccccn3)CC2)c1C

>  <score_type>  (14) 
oracle

>  <origin>  (14) 
adg

>  <m_score__min__energy>  (14) 
-9.1899999999999995

>  <m_primary>  (14) 
energy

$$$$
14:0
     RDKit          3D

 41 43  0  0  0  0  0  0  0  0999 V2000
   57.4770   29.4100   45.1960 C   0  0  0  0  0  0  0  0  0  0  0  0
   57.1660   28.0360   45.7160 C   0  0  0  0  0  0  0  0  0  0  0  0
   55.8870   27.5860   45.6240 N   0  0  0  0  0  0  0  0  0  0  0  0
   55.5300   26.3600   46.0800 C   0  0  0  0  0  0  0  0  0  0  0  0
   54.3370   25.9730   45.9780 O   0  0  0  0  0  0  0  0  0  0  0  0
   56.4580   25.5510   46.6470 N   0  0  0  0  0  0  0  0  0  0  0  0
   57.7520   25.9420   46.7680 C   0  0  0  0  0  0  0  0  0  0  0  0
   58.5780   25.1590   47.3090 O   0  0  0  0  0  0  0  0  0  0  0  0
   58.1560   27.2090   46.2990 C   0  0  0  0  0  0  0  0  0  0  0  0
   59.5930   27.6740   46.4580 C   0  0  0  0  0  0  0  0  0  0  0  0
   59.9720   27.8300   47.9120 C   0  0  0  0  0  0  0  0  0  0  0  0
   60.4750   26.7380   48.6350 C   0  0  0  0  0  0  0  0  0  0  0  0
   60.7880   26.8730   49.9900 C   0  0  0  0  0  0  0  0  0  0  0  0
   60.5940   28.0950   50.6370 C   0  0  0  0  0  0  0  0  0  0  0  0
   60.0870   29.1950   49.9360 C   0  0  0  0  0  0  0  0  0  0  0  0
   59.9020   30.4340   50.6350 N   0  0  0  0  0  0  0  0  0  0  0  0
   58.4370   31.3620   50.6240 S   0  0  0  0  0  0  0  0  0  0  0  0
   57.2780   30.4560   50.9290 O   0  0  0  0  0  0  0  0  0  0  0  0
   58.5320   32.4310   51.6760 O   0  0  0  0  0  0  0  0  0  0  0  0
   58.2210   32.0710   49.0570 N   0  0  0  0  0  0  0  0  0  0  0  0
   59.2680   32.6360   48.2570 C   0  0  0  0  0  0  0  0  0  0  0  0
   59.0340   33.6910   47.3580 C   0  0  0  0  0  0  0  0  0  0  0  0
   60.0870   34.2200   46.6070 C   0  0  0  0  0  0  0  0  0  0  0  0
   61.3780   33.7030   46.7440 C   0  0  0  0  0  0  0  0  0  0  0  0
   62.3930   34.2270   46.0120 F   0  0  0  0  0  0  0  0  0  0  0  0
   61.6170   32.6470   47.6310 C   0  0  0  0  0  0  0  0  0  0  0  0
   63.2330   31.9860   47.8120 Cl  0  0  0  0  0  0  0  0  0  0  0  0
   60.5610   32.1130   48.3810 C   0  0  0  0  0  0  0  0  0  0  0  0
   59.7700   29.0540   48.5720 C   0  0  0  0  0  0  0  0  0  0  0  0
   57.6322   30.0958   46.0420 H   0  0  0  0  0  0  0  0  0  0  0  0
   58.3893   29.3721   44.5826 H   0  0  0  0  0  0  0  0  0  0  0  0
   56.6373   29.7686   44.5826 H   0  0  0  0  0  0  0  0  0  0  0  0
   60.2607   26.9338   45.9930 H   0  0  0  0  0  0  0  0  0  0  0  0
   59.6919   28.6552   45.9706 H   0  0  0  0  0  0  0  0  0  0  0  0
   60.6237   25.7708   48.1327 H   0  0  0  0  0  0  0  0  0  0  0  0
   61.1884   26.0141   50.5486 H   0  0  0  0  0  0  0  0  0  0  0  0
   60.8412   28.1937   51.7043 H   0  0  0  0  0  0  0  0  0  0  0  0
   58.0195   34.1011   47.2454 H   0  0  0  0  0  0  0  0  0  0  0  0
   59.8990   35.0462   45.9056 H   0  0  0  0  0  0  0  0  0  0  0  0
   60.7488   31.2776   49.0716 H   0  0  0  0  0  0  0  0  0  0  0  0
   59.3600   29.9106   48.0170 H   0  0  0  0  0  0  0  0  0  0  0  0
  1  2  1  0
  2  3  1  0
  3  4  1  0
  4  5  2  0
  4  6  1  0
  6  7  1  0
  7  8  2  0
  7  9  1  0
  9 10  1  0
 10 11  1  0
 11 12  2  0
 12 13  1  0
 13 14  2  0
 14 15  1  0
 15 16  1  0
 16 17  1  0
 17 18  2  0
 17 19  2  0
 17 20  1  0
 20 21  1  0
 21 22  2  0
 22 23  1  0
 23 24  2  0
 24 25  1  0
 24 26  1  0
 26 27  1  0
 26 28  2  0
 15 29  2  0
  9  2  2  0
 29 11  1  0
 28 21  1  0
  1 30  1  0
  1 31  1  0
  1 32  1  0
 10 33  1  0
 10 34  1  0
 12 35  1  0
 13 36  1  0
 14 37  1  0
 22 38  1  0
 23 39  1  0
 28 40  1  0
 29 41  1  0
M  CHG  4   3  -1   6  -1  16  -1  20  -1
M  END
>  <UniqueID>  (15) 
15

>  <SMILES>  (15) 
Cc1[n-]c(=O)[n-]c(=O)c1Cc1cccc([N-]S(=O)(=O)[N-]c2ccc(F)c(Cl)c2)c1

>  <Energy>  (15) 
50.01162272224123

>  <Genealogy>  (15) 
Cc1[n-]c(=O)[n-]c(=O)c1Cc1cccc([N-]S(=O)(=O)[N-]c2ccc(F)c(Cl)c2)c1 (protonated)
Cc1[n-]c(=O)[n-]c(=O)c1Cc1cccc([N-]S(=O)(=O)[N-]c2ccc(F)c(Cl)c2)c1 (3D coordinates assigned)
Cc1[n-]c(=O)[n-]c(=O)c1Cc1cccc([N-]S(=O)(=O)[N-]c2ccc(F)c(Cl)c2)c1 (optimized conformer: 50.01162272224123 kcal/mol)

>  <smiles>  (15) 
Cc1[nH]c(=O)[nH]c(=O)c1Cc1cccc(NS(=O)(=O)Nc2ccc(F)c(Cl)c2)c1

>  <score_type>  (15) 
oracle

>  <origin>  (15) 
adg

>  <m_score__min__energy>  (15) 
-15.83

>  <m_primary>  (15) 
energy

$$$$
15:0
     RDKit          3D

 47 50  0  0  0  0  0  0  0  0999 V2000
   54.3210   26.7310   46.7980 H   0  0  0  0  0  0  0  0  0  0  0  0
   54.7980   26.3070   46.0130 O   0  0  0  0  0  0  0  0  0  0  0  0
   55.0970   24.9470   45.9850 C   0  0  0  0  0  0  0  0  0  0  0  0
   54.1820   23.9980   45.7340 N   0  0  0  0  0  0  0  0  0  0  0  0
   54.9130   22.8630   45.7490 C   0  0  0  0  0  0  0  0  0  0  0  0
   54.4090   21.7290   45.5450 O   0  0  0  0  0  0  0  0  0  0  0  0
   56.2300   23.0400   45.9930 N   0  0  0  0  0  0  0  0  0  0  0  0
   56.3390   24.3680   46.1680 C   0  0  0  0  0  0  0  0  0  0  0  0
   57.6220   25.0510   46.3920 C   0  0  0  0  0  0  0  0  0  0  0  0
   58.3619   24.5378   47.0238 H   0  0  0  0  0  0  0  0  0  0  0  0
   57.9680   26.2520   45.8890 C   0  0  0  0  0  0  0  0  0  0  0  0
   57.1990   26.9250   44.9610 C   0  0  0  0  0  0  0  0  0  0  0  0
   56.2744   26.5610   44.4892 H   0  0  0  0  0  0  0  0  0  0  0  0
   57.8110   28.1410   44.7380 C   0  0  0  0  0  0  0  0  0  0  0  0
   57.3180   29.1460   43.7250 C   0  0  0  0  0  0  0  0  0  0  0  0
   58.0480   29.9662   43.6582 H   0  0  0  0  0  0  0  0  0  0  0  0
   57.2066   28.6232   42.7636 H   0  0  0  0  0  0  0  0  0  0  0  0
   55.9530   29.7330   44.0950 C   0  0  0  0  0  0  0  0  0  0  0  0
   56.0741   30.7995   44.3355 H   0  0  0  0  0  0  0  0  0  0  0  0
   55.2740   29.6038   43.2392 H   0  0  0  0  0  0  0  0  0  0  0  0
   55.4020   29.0730   45.2040 O   0  0  0  0  0  0  0  0  0  0  0  0
   55.1500   28.1640   44.8950 H   0  0  0  0  0  0  0  0  0  0  0  0
   58.9220   28.2630   45.5080 N   0  0  0  0  0  0  0  0  0  0  0  0
   59.8030   29.4480   45.5520 C   0  0  0  0  0  0  0  0  0  0  0  0
   60.7936   29.1334   45.9121 H   0  0  0  0  0  0  0  0  0  0  0  0
   59.8443   29.8613   44.5334 H   0  0  0  0  0  0  0  0  0  0  0  0
   59.2840   30.5510   46.4660 C   0  0  0  0  0  0  0  0  0  0  0  0
   59.4600   30.3850   47.8530 C   0  0  0  0  0  0  0  0  0  0  0  0
   59.9809   29.4919   48.2286 H   0  0  0  0  0  0  0  0  0  0  0  0
   58.9860   31.3320   48.7580 C   0  0  0  0  0  0  0  0  0  0  0  0
   59.1267   31.1760   49.8378 H   0  0  0  0  0  0  0  0  0  0  0  0
   58.3350   32.4750   48.3020 C   0  0  0  0  0  0  0  0  0  0  0  0
   57.9502   33.2107   49.0235 H   0  0  0  0  0  0  0  0  0  0  0  0
   58.1680   32.6920   46.9290 C   0  0  0  0  0  0  0  0  0  0  0  0
   57.5230   33.8550   46.4820 C   0  0  0  0  0  0  0  0  0  0  0  0
   57.1390   34.5824   47.2123 H   0  0  0  0  0  0  0  0  0  0  0  0
   57.3660   34.0940   45.1170 C   0  0  0  0  0  0  0  0  0  0  0  0
   56.8522   35.0040   44.7735 H   0  0  0  0  0  0  0  0  0  0  0  0
   57.8600   33.1800   44.1880 C   0  0  0  0  0  0  0  0  0  0  0  0
   57.7424   33.3757   43.1120 H   0  0  0  0  0  0  0  0  0  0  0  0
   58.5030   32.0180   44.6160 C   0  0  0  0  0  0  0  0  0  0  0  0
   58.8944   31.3090   43.8716 H   0  0  0  0  0  0  0  0  0  0  0  0
   58.6580   31.7400   45.9900 C   0  0  0  0  0  0  0  0  0  0  0  0
   59.0800   27.0690   46.1450 C   0  0  0  0  0  0  0  0  0  0  0  0
   60.2130   26.6910   46.7580 C   0  0  0  0  0  0  0  0  0  0  0  0
   61.0259   27.4168   46.9077 H   0  0  0  0  0  0  0  0  0  0  0  0
   60.3285   25.6554   47.1106 H   0  0  0  0  0  0  0  0  0  0  0  0
  1  2  1  0
  2  3  1  0
  3  4  1  0
  4  5  1  0
  5  6  2  0
  5  7  1  0
  7  8  1  0
  8  9  1  0
  9 10  1  0
  9 11  2  0
 11 12  1  0
 12 13  1  0
 12 14  2  0
 14 15  1  0
 15 16  1  0
 15 17  1  0
 15 18  1  0
 18 19  1  0
 18 20  1  0
 18 21  1  0
 21 22  1  0
 14 23  1  0
 23 24  1  0
 24 25  1  0
 24 26  1  0
 24 27  1  0
 27 28  2  0
 28 29  1  0
 28 30  1  0
 30 31  1  0
 30 32  2  0
 32 33  1  0
 32 34  1  0
 34 35  2  0
 35 36  1  0
 35 37  1  0
 37 38  1  0
 37 39  2  0
 39 40  1  0
 39 41  1  0
 41 42  1  0
 41 43  2  0
 23 44  1  0
 44 45  2  0
 45 46  1  0
 45 47  1  0
  8  3  2  0
 44 11  1  0
 43 27  1  0
 43 34  1  0
M  CHG  2   4  -1   7  -1
M  END
>  <UniqueID>  (16) 
16

>  <SMILES>  (16) 
C=c1/c(=C\c2[n-]c(=O)[n-]c2O)cc(CCO)n1Cc1cccc2ccccc12

>  <Energy>  (16) 
125.45895051474643

>  <Genealogy>  (16) 
C=c1c(=Cc2[n-]c(=O)[n-]c2O)cc(CCO)n1Cc1cccc2ccccc12 (protonated)
C=c1/c(=C\c2[n-]c(=O)[n-]c2O)cc(CCO)n1Cc1cccc2ccccc12 (cis-trans isomerization)
C=c1/c(=C\c2[n-]c(=O)[n-]c2O)cc(CCO)n1Cc1cccc2ccccc12 (3D coordinates assigned)
C=c1/c(=C\c2[n-]c(=O)[n-]c2O)cc(CCO)n1Cc1cccc2ccccc12 (optimized conformer: 125.45895051474643 kcal/mol)

>  <smiles>  (16) 
C=c1c(=Cc2[nH]c(=O)[nH]c2O)cc(CCO)n1Cc1cccc2ccccc12

>  <score_type>  (16) 
oracle

>  <origin>  (16) 
adg

>  <m_score__min__energy>  (16) 
-14.32

>  <m_primary>  (16) 
energy

$$$$
16:0
     RDKit          3D

 46 49  0  0  0  0  0  0  0  0999 V2000
   57.3052   32.2306   42.7886 H   0  0  0  0  0  0  0  0  0  0  0  0
   57.3220   32.1320   43.8840 C   0  0  0  0  0  0  0  0  0  0  0  0
   57.2850   33.2230   44.5970 N   0  0  0  0  0  0  0  0  0  0  0  0
   58.1960   33.6080   45.6390 C   0  0  0  0  0  0  0  0  0  0  0  0
   59.2170   34.5180   45.3440 C   0  0  0  0  0  0  0  0  0  0  0  0
   59.3149   34.9199   44.3247 H   0  0  0  0  0  0  0  0  0  0  0  0
   60.1140   34.9190   46.3400 C   0  0  0  0  0  0  0  0  0  0  0  0
   60.9205   35.6271   46.0987 H   0  0  0  0  0  0  0  0  0  0  0  0
   59.9880   34.4200   47.6480 C   0  0  0  0  0  0  0  0  0  0  0  0
   60.8660   34.8030   48.6730 O   0  0  0  0  0  0  0  0  0  0  0  0
   62.1040   34.2040   48.9460 C   0  0  0  0  0  0  0  0  0  0  0  0
   62.8640   33.5720   47.9430 C   0  0  0  0  0  0  0  0  0  0  0  0
   62.4945   33.5505   46.9071 H   0  0  0  0  0  0  0  0  0  0  0  0
   64.0860   32.9720   48.2590 C   0  0  0  0  0  0  0  0  0  0  0  0
   64.6816   32.4898   47.4699 H   0  0  0  0  0  0  0  0  0  0  0  0
   64.5520   32.9840   49.5760 C   0  0  0  0  0  0  0  0  0  0  0  0
   65.5154   32.5138   49.8226 H   0  0  0  0  0  0  0  0  0  0  0  0
   63.7950   33.5930   50.5800 C   0  0  0  0  0  0  0  0  0  0  0  0
   64.1609   33.5994   51.6173 H   0  0  0  0  0  0  0  0  0  0  0  0
   62.5710   34.1950   50.2660 C   0  0  0  0  0  0  0  0  0  0  0  0
   61.9724   34.6638   51.0609 H   0  0  0  0  0  0  0  0  0  0  0  0
   58.9300   33.5590   47.9550 C   0  0  0  0  0  0  0  0  0  0  0  0
   58.8016   33.1967   48.9857 H   0  0  0  0  0  0  0  0  0  0  0  0
   58.0350   33.1560   46.9610 C   0  0  0  0  0  0  0  0  0  0  0  0
   57.2020   32.4832   47.2130 H   0  0  0  0  0  0  0  0  0  0  0  0
   57.3850   30.7730   44.4560 C   0  0  0  0  0  0  0  0  0  0  0  0
   56.4570   29.7390   44.3880 C   0  0  0  0  0  0  0  0  0  0  0  0
   55.1390   29.7470   43.6810 C   0  0  0  0  0  0  0  0  0  0  0  0
   54.3257   29.7519   44.4216 H   0  0  0  0  0  0  0  0  0  0  0  0
   55.0664   30.6456   43.0507 H   0  0  0  0  0  0  0  0  0  0  0  0
   55.0555   28.8493   43.0507 H   0  0  0  0  0  0  0  0  0  0  0  0
   56.9090   28.6760   45.0880 N   0  0  0  0  0  0  0  0  0  0  0  0
   58.0720   29.0080   45.6300 N   0  0  0  0  0  0  0  0  0  0  0  0
   58.8610   28.1070   46.4250 C   0  0  0  0  0  0  0  0  0  0  0  0
   59.3240   28.5200   47.6840 C   0  0  0  0  0  0  0  0  0  0  0  0
   59.0780   29.5264   48.0538 H   0  0  0  0  0  0  0  0  0  0  0  0
   60.0960   27.6600   48.4710 C   0  0  0  0  0  0  0  0  0  0  0  0
   60.4479   27.9882   49.4602 H   0  0  0  0  0  0  0  0  0  0  0  0
   60.4210   26.3850   48.0030 C   0  0  0  0  0  0  0  0  0  0  0  0
   61.0214   25.7063   48.6266 H   0  0  0  0  0  0  0  0  0  0  0  0
   59.9830   25.9720   46.7420 C   0  0  0  0  0  0  0  0  0  0  0  0
   60.2476   24.9708   46.3710 H   0  0  0  0  0  0  0  0  0  0  0  0
   59.2090   26.8270   45.9490 C   0  0  0  0  0  0  0  0  0  0  0  0
   58.8500   26.4240   44.7050 F   0  0  0  0  0  0  0  0  0  0  0  0
   58.3780   30.2700   45.2640 C   0  0  0  0  0  0  0  0  0  0  0  0
   59.4430   30.8700   45.5740 O   0  0  0  0  0  0  0  0  0  0  0  0
  1  2  1  0
  2  3  2  0
  3  4  1  0
  4  5  2  0
  5  6  1  0
  5  7  1  0
  7  8  1  0
  7  9  2  0
  9 10  1  0
 10 11  1  0
 11 12  2  0
 12 13  1  0
 12 14  1  0
 14 15  1  0
 14 16  2  0
 16 17  1  0
 16 18  1  0
 18 19  1  0
 18 20  2  0
 20 21  1  0
  9 22  1  0
 22 23  1  0
 22 24  2  0
 24 25  1  0
  2 26  1  0
 26 27  2  0
 27 28  1  0
 28 29  1  0
 28 30  1  0
 28 31  1  0
 27 32  1  0
 32 33  1  0
 33 34  1  0
 34 35  2  0
 35 36  1  0
 35 37  1  0
 37 38  1  0
 37 39  2  0
 39 40  1  0
 39 41  1  0
 41 42  1  0
 41 43  2  0
 43 44  1  0
 33 45  1  0
 45 46  2  0
 24  4  1  0
 45 26  1  0
 20 11  1  0
 43 34  1  0
M  CHG  1  32  -1
M  END
>  <UniqueID>  (17) 
17

>  <SMILES>  (17) 
Cc1[n-]n(-c2ccccc2F)c(=O)c1/C=N\c1ccc(Oc2ccccc2)cc1

>  <Energy>  (17) 
105.17381621044454

>  <Genealogy>  (17) 
Cc1[n-]n(-c2ccccc2F)c(=O)c1C=Nc1ccc(Oc2ccccc2)cc1 (protonated)
Cc1[n-]n(-c2ccccc2F)c(=O)c1/C=N\c1ccc(Oc2ccccc2)cc1 (cis-trans isomerization)
Cc1[n-]n(-c2ccccc2F)c(=O)c1/C=N\c1ccc(Oc2ccccc2)cc1 (3D coordinates assigned)
Cc1[n-]n(-c2ccccc2F)c(=O)c1/C=N\c1ccc(Oc2ccccc2)cc1 (optimized conformer: 105.17381621044454 kcal/mol)

>  <smiles>  (17) 
Cc1[nH]n(-c2ccccc2F)c(=O)c1C=Nc1ccc(Oc2ccccc2)cc1

>  <score_type>  (17) 
oracle

>  <origin>  (17) 
adg

>  <m_score__min__energy>  (17) 
-9.7599999999999998

>  <m_primary>  (17) 
energy

$$$$
17:0
     RDKit          3D

 42 44  0  0  0  0  0  0  0  0999 V2000
   54.7590   29.6920   43.4770 O   0  0  0  0  0  0  0  0  0  0  0  0
   55.9060   29.7290   43.9950 C   0  0  0  0  0  0  0  0  0  0  0  0
   57.0310   30.3830   43.2350 C   0  0  0  0  0  0  0  0  0  0  0  0
   57.5090   31.6350   43.9240 C   0  0  0  0  0  0  0  0  0  0  0  0
   58.3970   32.5100   43.2750 C   0  0  0  0  0  0  0  0  0  0  0  0
   58.8120   33.6870   43.9050 C   0  0  0  0  0  0  0  0  0  0  0  0
   58.3550   33.9940   45.1890 C   0  0  0  0  0  0  0  0  0  0  0  0
   57.4800   33.1220   45.8500 C   0  0  0  0  0  0  0  0  0  0  0  0
   57.0180   33.4150   47.1310 O   0  0  0  0  0  0  0  0  0  0  0  0
   57.0620   31.9450   45.2190 C   0  0  0  0  0  0  0  0  0  0  0  0
   56.1050   29.1090   45.2730 N   0  0  0  0  0  0  0  0  0  0  0  0
   56.8840   27.9270   45.4960 C   0  0  0  0  0  0  0  0  0  0  0  0
   56.2350   26.7360   45.8520 C   0  0  0  0  0  0  0  0  0  0  0  0
   54.8520   26.7070   45.9910 O   0  0  0  0  0  0  0  0  0  0  0  0
   56.9720   25.5650   46.0470 C   0  0  0  0  0  0  0  0  0  0  0  0
   58.3580   25.5780   45.8890 C   0  0  0  0  0  0  0  0  0  0  0  0
   59.0180   26.7660   45.5610 C   0  0  0  0  0  0  0  0  0  0  0  0
   58.2900   27.9580   45.3920 C   0  0  0  0  0  0  0  0  0  0  0  0
   58.9400   29.2000   45.0780 N   0  0  0  0  0  0  0  0  0  0  0  0
   60.1270   29.7350   45.6780 C   0  0  0  0  0  0  0  0  0  0  0  0
   61.2620   29.3200   45.3170 O   0  0  0  0  0  0  0  0  0  0  0  0
   60.0170   30.7360   46.7650 C   0  0  0  0  0  0  0  0  0  0  0  0
   60.8460   31.8740   46.7770 C   0  0  0  0  0  0  0  0  0  0  0  0
   60.7390   32.8180   47.8020 C   0  0  0  0  0  0  0  0  0  0  0  0
   59.8050   32.6400   48.8270 C   0  0  0  0  0  0  0  0  0  0  0  0
   59.6730   33.8260   50.1110 Cl  0  0  0  0  0  0  0  0  0  0  0  0
   58.9770   31.5140   48.8250 C   0  0  0  0  0  0  0  0  0  0  0  0
   59.0800   30.5670   47.8030 C   0  0  0  0  0  0  0  0  0  0  0  0
   57.8694   29.6750   43.1583 H   0  0  0  0  0  0  0  0  0  0  0  0
   56.6587   30.6590   42.2374 H   0  0  0  0  0  0  0  0  0  0  0  0
   58.7668   32.2678   42.2677 H   0  0  0  0  0  0  0  0  0  0  0  0
   59.4998   34.3728   43.3886 H   0  0  0  0  0  0  0  0  0  0  0  0
   58.6825   34.9214   45.6816 H   0  0  0  0  0  0  0  0  0  0  0  0
   56.1320   33.8850   47.2790 H   0  0  0  0  0  0  0  0  0  0  0  0
   56.3790   31.2582   45.7404 H   0  0  0  0  0  0  0  0  0  0  0  0
   56.4591   24.6325   46.3252 H   0  0  0  0  0  0  0  0  0  0  0  0
   58.9336   24.6502   46.0230 H   0  0  0  0  0  0  0  0  0  0  0  0
   60.1107   26.7688   45.4346 H   0  0  0  0  0  0  0  0  0  0  0  0
   61.5831   32.0211   45.9739 H   0  0  0  0  0  0  0  0  0  0  0  0
   61.3915   33.7036   47.8023 H   0  0  0  0  0  0  0  0  0  0  0  0
   58.2417   31.3729   49.6309 H   0  0  0  0  0  0  0  0  0  0  0  0
   58.4249   29.6834   47.8090 H   0  0  0  0  0  0  0  0  0  0  0  0
  1  2  2  0
  2  3  1  0
  3  4  1  0
  4  5  2  0
  5  6  1  0
  6  7  2  0
  7  8  1  0
  8  9  1  0
  8 10  2  0
  2 11  1  0
 11 12  1  0
 12 13  2  0
 13 14  1  0
 13 15  1  0
 15 16  2  0
 16 17  1  0
 17 18  2  0
 18 19  1  0
 19 20  1  0
 20 21  2  0
 20 22  1  0
 22 23  2  0
 23 24  1  0
 24 25  2  0
 25 26  1  0
 25 27  1  0
 27 28  2  0
 10  4  1  0
 18 12  1  0
 28 22  1  0
  3 29  1  0
  3 30  1  0
  5 31  1  0
  6 32  1  0
  7 33  1  0
  9 34  1  0
 10 35  1  0
 15 36  1  0
 16 37  1  0
 17 38  1  0
 23 39  1  0
 24 40  1  0
 27 41  1  0
 28 42  1  0
M  CHG  3  11  -1  14  -1  19  -1
M  END
>  <UniqueID>  (18) 
18

>  <SMILES>  (18) 
O=C(Cc1cccc(O)c1)[N-]c1c([O-])cccc1[N-]C(=O)c1ccc(Cl)cc1

>  <Energy>  (18) 
52.335171526050345

>  <Genealogy>  (18) 
O=C(Cc1cccc(O)c1)[N-]c1c([O-])cccc1[N-]C(=O)c1ccc(Cl)cc1 (protonated)
O=C(Cc1cccc(O)c1)[N-]c1c([O-])cccc1[N-]C(=O)c1ccc(Cl)cc1 (3D coordinates assigned)
O=C(Cc1cccc(O)c1)[N-]c1c([O-])cccc1[N-]C(=O)c1ccc(Cl)cc1 (optimized conformer: 52.335171526050345 kcal/mol)

>  <smiles>  (18) 
O=C(Cc1cccc(O)c1)Nc1c(O)cccc1NC(=O)c1ccc(Cl)cc1

>  <score_type>  (18) 
oracle

>  <origin>  (18) 
adg

>  <m_score__min__energy>  (18) 
-14.99

>  <m_primary>  (18) 
energy

$$$$
18:0
     RDKit          3D

 58 61  0  0  0  0  0  0  0  0999 V2000
   59.0680   34.5460   46.5690 C   0  0  0  0  0  0  0  0  0  0  0  0
   58.1710   33.5590   46.5620 C   0  0  0  0  0  0  0  0  0  0  0  0
   57.9590   32.6440   45.4110 C   0  0  0  0  0  0  0  0  0  0  0  0
   57.9460   33.1850   44.1180 C   0  0  0  0  0  0  0  0  0  0  0  0
   57.7670   32.3610   43.0070 C   0  0  0  0  0  0  0  0  0  0  0  0
   57.6060   30.9860   43.1660 C   0  0  0  0  0  0  0  0  0  0  0  0
   57.6380   30.3900   44.4510 C   0  0  0  0  0  0  0  0  0  0  0  0
   57.4940   28.9430   44.6190 N   0  0  0  0  0  0  0  0  0  0  0  0
   57.7770   28.0620   43.4610 C   0  0  0  0  0  0  0  0  0  0  0  0
   57.7830   26.5470   43.7510 C   0  0  0  0  0  0  0  0  0  0  0  0
   57.9610   26.2170   45.1670 N   0  0  0  0  0  0  0  0  0  0  0  0
   59.3460   26.0990   45.6870 C   0  0  0  0  0  0  0  0  0  0  0  0
   59.8990   27.3680   46.2970 C   0  0  0  0  0  0  0  0  0  0  0  0
   60.3930   28.3910   45.4740 C   0  0  0  0  0  0  0  0  0  0  0  0
   60.7870   29.6130   46.0230 C   0  0  0  0  0  0  0  0  0  0  0  0
   60.7310   29.8260   47.4120 C   0  0  0  0  0  0  0  0  0  0  0  0
   61.0460   31.1770   47.9660 C   0  0  0  0  0  0  0  0  0  0  0  0
   60.1000   31.9980   48.1360 O   0  0  0  0  0  0  0  0  0  0  0  0
   62.3910   31.5200   48.4030 N   0  0  0  0  0  0  0  0  0  0  0  0
   63.3500   31.6050   47.2880 C   0  0  0  0  0  0  0  0  0  0  0  0
   63.4020   33.0600   46.8280 C   0  0  0  0  0  0  0  0  0  0  0  0
   62.7020   33.8580   47.9150 C   0  0  0  0  0  0  0  0  0  0  0  0
   62.4030   32.8530   49.0200 C   0  0  0  0  0  0  0  0  0  0  0  0
   60.3270   28.7590   48.2400 C   0  0  0  0  0  0  0  0  0  0  0  0
   59.9380   27.5390   47.6870 C   0  0  0  0  0  0  0  0  0  0  0  0
   56.9750   26.8920   46.0170 C   0  0  0  0  0  0  0  0  0  0  0  0
   57.0700   28.4150   45.9330 C   0  0  0  0  0  0  0  0  0  0  0  0
   57.8210   31.2500   45.5690 C   0  0  0  0  0  0  0  0  0  0  0  0
   59.1730   35.1875   47.4564 H   0  0  0  0  0  0  0  0  0  0  0  0
   59.7028   34.7186   45.6874 H   0  0  0  0  0  0  0  0  0  0  0  0
   57.5526   33.4141   47.4601 H   0  0  0  0  0  0  0  0  0  0  0  0
   58.0780   34.2681   43.9784 H   0  0  0  0  0  0  0  0  0  0  0  0
   57.7528   32.7996   41.9983 H   0  0  0  0  0  0  0  0  0  0  0  0
   57.4516   30.3531   42.2796 H   0  0  0  0  0  0  0  0  0  0  0  0
   57.0110   28.2553   42.6956 H   0  0  0  0  0  0  0  0  0  0  0  0
   58.8012   28.3078   43.1440 H   0  0  0  0  0  0  0  0  0  0  0  0
   56.8242   26.1257   43.4145 H   0  0  0  0  0  0  0  0  0  0  0  0
   58.6422   26.1210   43.2122 H   0  0  0  0  0  0  0  0  0  0  0  0
   59.3576   25.3143   46.4578 H   0  0  0  0  0  0  0  0  0  0  0  0
   59.9848   25.8639   44.8229 H   0  0  0  0  0  0  0  0  0  0  0  0
   60.4705   28.2294   44.3887 H   0  0  0  0  0  0  0  0  0  0  0  0
   61.1446   30.4168   45.3627 H   0  0  0  0  0  0  0  0  0  0  0  0
   62.7370   30.8000   49.0780 H   0  0  0  0  0  0  0  0  0  0  0  0
   64.3462   31.2834   47.6258 H   0  0  0  0  0  0  0  0  0  0  0  0
   63.0368   30.9511   46.4607 H   0  0  0  0  0  0  0  0  0  0  0  0
   64.4453   33.3914   46.7200 H   0  0  0  0  0  0  0  0  0  0  0  0
   62.9185   33.1947   45.8492 H   0  0  0  0  0  0  0  0  0  0  0  0
   63.3577   34.6582   48.2887 H   0  0  0  0  0  0  0  0  0  0  0  0
   61.7878   34.3440   47.5435 H   0  0  0  0  0  0  0  0  0  0  0  0
   63.1818   32.9025   49.7953 H   0  0  0  0  0  0  0  0  0  0  0  0
   61.4356   33.0719   49.4957 H   0  0  0  0  0  0  0  0  0  0  0  0
   60.3185   28.8897   49.3322 H   0  0  0  0  0  0  0  0  0  0  0  0
   59.6596   26.7045   48.3474 H   0  0  0  0  0  0  0  0  0  0  0  0
   55.9676   26.5840   45.7005 H   0  0  0  0  0  0  0  0  0  0  0  0
   57.1797   26.6027   47.0583 H   0  0  0  0  0  0  0  0  0  0  0  0
   56.0788   28.8320   46.1646 H   0  0  0  0  0  0  0  0  0  0  0  0
   57.8483   28.7145   46.6503 H   0  0  0  0  0  0  0  0  0  0  0  0
   57.8556   30.8176   46.5798 H   0  0  0  0  0  0  0  0  0  0  0  0
  1  2  2  0
  2  3  1  0
  3  4  2  0
  4  5  1  0
  5  6  2  0
  6  7  1  0
  7  8  1  0
  8  9  1  0
  9 10  1  0
 10 11  1  0
 11 12  1  0
 12 13  1  0
 13 14  2  0
 14 15  1  0
 15 16  2  0
 16 17  1  0
 17 18  2  0
 17 19  1  0
 19 20  1  0
 20 21  1  0
 21 22  1  0
 22 23  1  0
 16 24  1  0
 24 25  2  0
 11 26  1  0
 26 27  1  0
  7 28  2  0
 28  3  1  0
 27  8  1  0
 25 13  1  0
 23 19  1  0
  1 29  1  0
  1 30  1  0
  2 31  1  0
  4 32  1  0
  5 33  1  0
  6 34  1  0
  9 35  1  0
  9 36  1  0
 10 37  1  0
 10 38  1  0
 12 39  1  0
 12 40  1  0
 14 41  1  0
 15 42  1  0
 19 43  1  0
 20 44  1  0
 20 45  1  0
 21 46  1  0
 21 47  1  0
 22 48  1  0
 22 49  1  0
 23 50  1  0
 23 51  1  0
 24 52  1  0
 25 53  1  0
 26 54  1  0
 26 55  1  0
 27 56  1  0
 27 57  1  0
 28 58  1  0
M  CHG  1  19   1
M  END
>  <UniqueID>  (19) 
19

>  <SMILES>  (19) 
C=Cc1cccc(N2CCN(Cc3ccc(C(=O)[NH+]4CCCC4)cc3)CC2)c1

>  <Energy>  (19) 
83.78485774289497

>  <Genealogy>  (19) 
C=Cc1cccc(N2CCN(Cc3ccc(C(=O)[NH+]4CCCC4)cc3)CC2)c1 (protonated)
C=Cc1cccc(N2CCN(Cc3ccc(C(=O)[NH+]4CCCC4)cc3)CC2)c1 (3D coordinates assigned)
C=Cc1cccc(N2CCN(Cc3ccc(C(=O)[NH+]4CCCC4)cc3)CC2)c1 (nonaromatic ring conformer: 83.78485774289497 kcal/mol)

>  <smiles>  (19) 
C=Cc1cccc(N2CCN(Cc3ccc(C(=O)N4CCCC4)cc3)CC2)c1

>  <score_type>  (19) 
oracle

>  <origin>  (19) 
adg

>  <m_score__min__energy>  (19) 
-7.4500000000000002

>  <m_primary>  (19) 
energy

$$$$
19:0
     RDKit          3D

 44 46  0  0  0  0  0  0  0  0999 V2000
   56.5350   23.1900   44.1650 C   0  0  0  0  0  0  0  0  0  0  0  0
   55.5260   24.0640   44.1430 C   0  0  0  0  0  0  0  0  0  0  0  0
   54.6030   24.2270   45.3190 C   0  0  0  0  0  0  0  0  0  0  0  0
   54.8350   25.5070   45.9940 N   0  0  0  0  0  0  0  0  0  0  0  0
   55.9500   26.1820   46.0400 C   0  0  0  0  0  0  0  0  0  0  0  0
   57.1570   25.6200   46.5020 C   0  0  0  0  0  0  0  0  0  0  0  0
   58.3130   26.4020   46.5280 C   0  0  0  0  0  0  0  0  0  0  0  0
   58.2720   27.7380   46.1080 C   0  0  0  0  0  0  0  0  0  0  0  0
   59.4900   28.5770   46.1150 C   0  0  0  0  0  0  0  0  0  0  0  0
   60.4470   28.2790   45.3490 O   0  0  0  0  0  0  0  0  0  0  0  0
   59.6020   29.7290   46.9710 N   0  0  0  0  0  0  0  0  0  0  0  0
   58.4980   30.7010   47.0270 C   0  0  0  0  0  0  0  0  0  0  0  0
   58.9240   31.9950   47.7280 C   0  0  0  0  0  0  0  0  0  0  0  0
   60.2460   32.4200   47.2370 N   0  0  0  0  0  0  0  0  0  0  0  0
   60.5150   33.7850   46.8500 C   0  0  0  0  0  0  0  0  0  0  0  0
   61.7070   34.1880   46.7670 O   0  0  0  0  0  0  0  0  0  0  0  0
   59.4060   34.7580   46.5610 C   0  0  0  0  0  0  0  0  0  0  0  0
   58.3040   34.2080   45.6660 C   0  0  0  0  0  0  0  0  0  0  0  0
   59.3040   35.2050   45.1080 C   0  0  0  0  0  0  0  0  0  0  0  0
   61.3470   31.4420   47.1920 C   0  0  0  0  0  0  0  0  0  0  0  0
   60.8820   30.0440   47.6150 C   0  0  0  0  0  0  0  0  0  0  0  0
   57.0560   28.2540   45.6370 C   0  0  0  0  0  0  0  0  0  0  0  0
   55.9420   27.4750   45.6210 N   0  0  0  0  0  0  0  0  0  0  0  0
   57.1956   23.0905   43.2911 H   0  0  0  0  0  0  0  0  0  0  0  0
   56.7057   22.5694   45.0570 H   0  0  0  0  0  0  0  0  0  0  0  0
   55.3663   24.6785   43.2447 H   0  0  0  0  0  0  0  0  0  0  0  0
   53.5615   24.1893   44.9670 H   0  0  0  0  0  0  0  0  0  0  0  0
   54.7976   23.4133   46.0332 H   0  0  0  0  0  0  0  0  0  0  0  0
   57.1879   24.5735   46.8394 H   0  0  0  0  0  0  0  0  0  0  0  0
   59.2603   25.9674   46.8798 H   0  0  0  0  0  0  0  0  0  0  0  0
   58.1786   30.9385   46.0016 H   0  0  0  0  0  0  0  0  0  0  0  0
   57.6729   30.2534   47.6005 H   0  0  0  0  0  0  0  0  0  0  0  0
   58.1863   32.7834   47.5179 H   0  0  0  0  0  0  0  0  0  0  0  0
   58.9805   31.8176   48.8121 H   0  0  0  0  0  0  0  0  0  0  0  0
   59.4442   35.2728   47.5324 H   0  0  0  0  0  0  0  0  0  0  0  0
   58.3340   33.1581   45.3393 H   0  0  0  0  0  0  0  0  0  0  0  0
   57.2067   34.1587   45.7256 H   0  0  0  0  0  0  0  0  0  0  0  0
   60.0583   34.8770   44.3776 H   0  0  0  0  0  0  0  0  0  0  0  0
   59.2308   36.1762   44.5967 H   0  0  0  0  0  0  0  0  0  0  0  0
   61.7375   31.3920   46.1649 H   0  0  0  0  0  0  0  0  0  0  0  0
   62.1265   31.7711   47.8949 H   0  0  0  0  0  0  0  0  0  0  0  0
   61.6353   29.3017   47.3124 H   0  0  0  0  0  0  0  0  0  0  0  0
   60.7544   30.0192   48.7073 H   0  0  0  0  0  0  0  0  0  0  0  0
   57.0034   29.2929   45.2792 H   0  0  0  0  0  0  0  0  0  0  0  0
  1  2  2  0
  2  3  1  0
  3  4  1  0
  4  5  2  3
  5  6  1  0
  6  7  2  0
  7  8  1  0
  8  9  1  0
  9 10  2  0
  9 11  1  0
 11 12  1  0
 12 13  1  0
 13 14  1  0
 14 15  1  0
 15 16  2  0
 15 17  1  0
 17 18  1  0
 18 19  1  0
 14 20  1  0
 20 21  1  0
  8 22  2  0
 22 23  1  0
 23  5  1  0
 21 11  1  0
 19 17  1  0
  1 24  1  0
  1 25  1  0
  2 26  1  0
  3 27  1  0
  3 28  1  0
  6 29  1  0
  7 30  1  0
 12 31  1  0
 12 32  1  0
 13 33  1  0
 13 34  1  0
 17 35  1  0
 18 36  1  0
 18 37  1  0
 19 38  1  0
 19 39  1  0
 20 40  1  0
 20 41  1  0
 21 42  1  0
 21 43  1  0
 22 44  1  0
M  CHG  1  23  -1
M  END
>  <UniqueID>  (20) 
20

>  <SMILES>  (20) 
C=CCN=c1ccc(C(=O)N2CCN(C(=O)C3CC3)CC2)c[n-]1

>  <Energy>  (20) 
313.2337135711595

>  <Genealogy>  (20) 
C=CCN=c1ccc(C(=O)N2CCN(C(=O)C3CC3)CC2)c[n-]1 (protonated)
C=CCN=c1ccc(C(=O)N2CCN(C(=O)C3CC3)CC2)c[n-]1 (3D coordinates assigned)
C=CCN=c1ccc(C(=O)N2CCN(C(=O)C3CC3)CC2)c[n-]1 (nonaromatic ring conformer: 313.2337135711595 kcal/mol)

>  <smiles>  (20) 
C=CCN=c1ccc(C(=O)N2CCN(C(=O)C3CC3)CC2)c[nH]1

>  <score_type>  (20) 
oracle

>  <origin>  (20) 
adg

>  <m_score__min__energy>  (20) 
-9.1899999999999995

>  <m_primary>  (20) 
energy

$$$$
20:0
     RDKit          3D

 58 61  0  0  0  0  0  0  0  0999 V2000
   55.5470   29.9890   44.5310 O   0  0  0  0  0  0  0  0  0  0  0  0
   56.5960   30.6830   44.4420 C   0  0  0  0  0  0  0  0  0  0  0  0
   57.8160   30.0680   43.8160 C   0  0  0  0  0  0  0  0  0  0  0  0
   58.9750   30.2240   44.7010 N   0  0  0  0  0  0  0  0  0  0  0  0
   58.9450   28.9990   45.9370 S   0  0  0  0  0  0  0  0  0  0  0  0
   57.5250   28.5760   46.1790 O   0  0  0  0  0  0  0  0  0  0  0  0
   59.7300   27.8050   45.4680 O   0  0  0  0  0  0  0  0  0  0  0  0
   59.6220   29.6130   47.4460 C   0  0  0  0  0  0  0  0  0  0  0  0
   60.9420   30.0820   47.4970 C   0  0  0  0  0  0  0  0  0  0  0  0
   61.4550   30.5990   48.6880 C   0  0  0  0  0  0  0  0  0  0  0  0
   60.6520   30.6650   49.8290 C   0  0  0  0  0  0  0  0  0  0  0  0
   59.3210   30.2170   49.7870 C   0  0  0  0  0  0  0  0  0  0  0  0
   58.4650   30.2920   50.9910 C   0  0  0  0  0  0  0  0  0  0  0  0
   57.6810   29.3410   51.2540 O   0  0  0  0  0  0  0  0  0  0  0  0
   58.5040   31.4380   51.8620 N   0  0  0  0  0  0  0  0  0  0  0  0
   58.3220   32.7770   51.2810 C   0  0  0  0  0  0  0  0  0  0  0  0
   58.3340   33.8490   52.3690 C   0  0  0  0  0  0  0  0  0  0  0  0
   59.3950   33.5390   53.3290 N   0  0  0  0  0  0  0  0  0  0  0  0
   59.0620   32.3440   54.1260 C   0  0  0  0  0  0  0  0  0  0  0  0
   58.3550   31.2360   53.3100 C   0  0  0  0  0  0  0  0  0  0  0  0
   58.8190   29.6740   48.5930 C   0  0  0  0  0  0  0  0  0  0  0  0
   56.5900   32.0090   44.9970 N   0  0  0  0  0  0  0  0  0  0  0  0
   57.6010   32.6690   45.4800 C   0  0  0  0  0  0  0  0  0  0  0  0
   58.5490   33.2740   44.7280 N   0  0  0  0  0  0  0  0  0  0  0  0
   59.4610   33.9200   45.5020 C   0  0  0  0  0  0  0  0  0  0  0  0
   59.2380   33.8230   46.8720 C   0  0  0  0  0  0  0  0  0  0  0  0
   60.0520   34.4780   47.9420 C   0  0  0  0  0  0  0  0  0  0  0  0
   61.4740   33.9730   47.9080 C   0  0  0  0  0  0  0  0  0  0  0  0
   62.1150   33.8480   46.6630 C   0  0  0  0  0  0  0  0  0  0  0  0
   63.4350   33.4060   46.5860 C   0  0  0  0  0  0  0  0  0  0  0  0
   64.1390   33.0970   47.7490 C   0  0  0  0  0  0  0  0  0  0  0  0
   63.5270   33.2290   49.0000 C   0  0  0  0  0  0  0  0  0  0  0  0
   64.4600   32.8340   50.4400 Cl  0  0  0  0  0  0  0  0  0  0  0  0
   62.1920   33.6700   49.0900 C   0  0  0  0  0  0  0  0  0  0  0  0
   61.4440   33.8420   50.6800 Cl  0  0  0  0  0  0  0  0  0  0  0  0
   57.8380   32.9230   47.1220 S   0  0  0  0  0  0  0  0  0  0  0  0
   57.6339   28.9973   43.6417 H   0  0  0  0  0  0  0  0  0  0  0  0
   58.0231   30.5749   42.8620 H   0  0  0  0  0  0  0  0  0  0  0  0
   58.9040   31.1420   45.1950 H   0  0  0  0  0  0  0  0  0  0  0  0
   61.5742   30.0426   46.5977 H   0  0  0  0  0  0  0  0  0  0  0  0
   62.4949   30.9555   48.7280 H   0  0  0  0  0  0  0  0  0  0  0  0
   61.0638   31.0698   50.7652 H   0  0  0  0  0  0  0  0  0  0  0  0
   59.1382   32.9755   50.5707 H   0  0  0  0  0  0  0  0  0  0  0  0
   57.3498   32.8082   50.7673 H   0  0  0  0  0  0  0  0  0  0  0  0
   58.5225   34.8332   51.9154 H   0  0  0  0  0  0  0  0  0  0  0  0
   57.3614   33.8696   52.8824 H   0  0  0  0  0  0  0  0  0  0  0  0
   59.4940   34.3510   53.9820 H   0  0  0  0  0  0  0  0  0  0  0  0
   59.9936   31.9309   54.5401 H   0  0  0  0  0  0  0  0  0  0  0  0
   58.3621   32.6638   54.9120 H   0  0  0  0  0  0  0  0  0  0  0  0
   58.7917   30.2631   53.5796 H   0  0  0  0  0  0  0  0  0  0  0  0
   57.2818   31.2706   53.5490 H   0  0  0  0  0  0  0  0  0  0  0  0
   57.7875   29.2936   48.5578 H   0  0  0  0  0  0  0  0  0  0  0  0
   60.3098   34.4765   45.0779 H   0  0  0  0  0  0  0  0  0  0  0  0
   60.0505   35.5664   47.7829 H   0  0  0  0  0  0  0  0  0  0  0  0
   59.6123   34.2374   48.9211 H   0  0  0  0  0  0  0  0  0  0  0  0
   61.5702   34.1012   45.7415 H   0  0  0  0  0  0  0  0  0  0  0  0
   63.9221   33.3008   45.6054 H   0  0  0  0  0  0  0  0  0  0  0  0
   65.1800   32.7479   47.6827 H   0  0  0  0  0  0  0  0  0  0  0  0
  1  2  2  0
  2  3  1  0
  3  4  1  0
  4  5  1  0
  5  6  2  0
  5  7  2  0
  5  8  1  0
  8  9  2  0
  9 10  1  0
 10 11  2  0
 11 12  1  0
 12 13  1  0
 13 14  2  0
 13 15  1  0
 15 16  1  0
 16 17  1  0
 17 18  1  0
 18 19  1  0
 19 20  1  0
 12 21  2  0
  2 22  1  0
 22 23  2  3
 23 24  1  0
 24 25  1  0
 25 26  2  0
 26 27  1  0
 27 28  1  0
 28 29  2  0
 29 30  1  0
 30 31  2  0
 31 32  1  0
 32 33  1  0
 32 34  2  0
 34 35  1  0
 26 36  1  0
 21  8  1  0
 36 23  1  0
 20 15  1  0
 34 28  1  0
  3 37  1  0
  3 38  1  0
  4 39  1  0
  9 40  1  0
 10 41  1  0
 11 42  1  0
 16 43  1  0
 16 44  1  0
 17 45  1  0
 17 46  1  0
 18 47  1  0
 19 48  1  0
 19 49  1  0
 20 50  1  0
 20 51  1  0
 21 52  1  0
 25 53  1  0
 27 54  1  0
 27 55  1  0
 29 56  1  0
 30 57  1  0
 31 58  1  0
M  CHG  1  24  -1
M  END
>  <UniqueID>  (21) 
21

>  <SMILES>  (21) 
O=C(CNS(=O)(=O)c1cccc(C(=O)N2CCNCC2)c1)N=c1[n-]cc(Cc2cccc(Cl)c2Cl)s1

>  <Energy>  (21) 
102.16926262477844

>  <Genealogy>  (21) 
O=C(CNS(=O)(=O)c1cccc(C(=O)N2CCNCC2)c1)N=c1[n-]cc(Cc2cccc(Cl)c2Cl)s1 (protonated)
O=C(CNS(=O)(=O)c1cccc(C(=O)N2CCNCC2)c1)N=c1[n-]cc(Cc2cccc(Cl)c2Cl)s1 (3D coordinates assigned)
O=C(CNS(=O)(=O)c1cccc(C(=O)N2CCNCC2)c1)N=c1[n-]cc(Cc2cccc(Cl)c2Cl)s1 (nonaromatic ring conformer: 102.16926262477844 kcal/mol)

>  <smiles>  (21) 
O=C(CNS(=O)(=O)c1cccc(C(=O)N2CCNCC2)c1)N=c1[nH]cc(Cc2cccc(Cl)c2Cl)s1

>  <score_type>  (21) 
oracle

>  <origin>  (21) 
adg

>  <m_score__min__energy>  (21) 
-12.52

>  <m_primary>  (21) 
energy

$$$$
21:0
     RDKit          3D

 34 35  0  0  0  0  0  0  0  0999 V2000
   56.2910   27.6930   44.3770 H   0  0  0  0  0  0  0  0  0  0  0  0
   57.2650   27.4890   44.5690 O   0  0  0  0  0  0  0  0  0  0  0  0
   58.0640   28.3220   45.3550 C   0  0  0  0  0  0  0  0  0  0  0  0
   57.7130   29.6760   45.5330 C   0  0  0  0  0  0  0  0  0  0  0  0
   56.5800   30.1750   44.8690 O   0  0  0  0  0  0  0  0  0  0  0  0
   56.4150   30.1940   43.4550 C   0  0  0  0  0  0  0  0  0  0  0  0
   55.3493   30.3167   43.2118 H   0  0  0  0  0  0  0  0  0  0  0  0
   56.9869   31.0322   43.0303 H   0  0  0  0  0  0  0  0  0  0  0  0
   56.7814   29.2477   43.0303 H   0  0  0  0  0  0  0  0  0  0  0  0
   58.4960   30.4880   46.3750 C   0  0  0  0  0  0  0  0  0  0  0  0
   58.2326   31.5470   46.5132 H   0  0  0  0  0  0  0  0  0  0  0  0
   59.6040   29.9570   47.0350 C   0  0  0  0  0  0  0  0  0  0  0  0
   60.2027   30.5956   47.7011 H   0  0  0  0  0  0  0  0  0  0  0  0
   59.9560   28.6200   46.8540 C   0  0  0  0  0  0  0  0  0  0  0  0
   60.8248   28.2072   47.3877 H   0  0  0  0  0  0  0  0  0  0  0  0
   59.2110   27.7980   45.9970 C   0  0  0  0  0  0  0  0  0  0  0  0
   59.6340   26.3890   45.8400 C   0  0  0  0  0  0  0  0  0  0  0  0
   60.7100   26.1638   45.8021 H   0  0  0  0  0  0  0  0  0  0  0  0
   58.7630   25.3750   45.7420 C   0  0  0  0  0  0  0  0  0  0  0  0
   58.9233   24.6192   44.9590 H   0  0  0  0  0  0  0  0  0  0  0  0
   57.5970   25.2260   46.6380 C   0  0  0  0  0  0  0  0  0  0  0  0
   57.7010   25.6230   47.8290 O   0  0  0  0  0  0  0  0  0  0  0  0
   56.3120   24.6390   46.1870 C   0  0  0  0  0  0  0  0  0  0  0  0
   56.1460   23.2440   46.0500 C   0  0  0  0  0  0  0  0  0  0  0  0
   57.2640   22.2820   46.3270 C   0  0  0  0  0  0  0  0  0  0  0  0
   57.3921   22.1718   47.4139 H   0  0  0  0  0  0  0  0  0  0  0  0
   57.0239   21.3037   45.8850 H   0  0  0  0  0  0  0  0  0  0  0  0
   58.1955   22.6653   45.8850 H   0  0  0  0  0  0  0  0  0  0  0  0
   54.9430   22.7480   45.6530 N   0  0  0  0  0  0  0  0  0  0  0  0
   53.8950   23.5660   45.3810 C   0  0  0  0  0  0  0  0  0  0  0  0
   52.7970   23.0780   45.0120 O   0  0  0  0  0  0  0  0  0  0  0  0
   54.0300   24.9090   45.5100 N   0  0  0  0  0  0  0  0  0  0  0  0
   55.2050   25.4630   45.9070 C   0  0  0  0  0  0  0  0  0  0  0  0
   55.2840   26.7140   46.0320 O   0  0  0  0  0  0  0  0  0  0  0  0
  1  2  1  0
  2  3  1  0
  3  4  2  0
  4  5  1  0
  5  6  1  0
  6  7  1  0
  6  8  1  0
  6  9  1  0
  4 10  1  0
 10 11  1  0
 10 12  2  0
 12 13  1  0
 12 14  1  0
 14 15  1  0
 14 16  2  0
 16 17  1  0
 17 18  1  0
 17 19  2  0
 19 20  1  0
 19 21  1  0
 21 22  2  0
 21 23  1  0
 23 24  2  0
 24 25  1  0
 25 26  1  0
 25 27  1  0
 25 28  1  0
 24 29  1  0
 29 30  1  0
 30 31  2  0
 30 32  1  0
 32 33  1  0
 33 34  2  0
 16  3  1  0
 33 23  1  0
M  CHG  2  29  -1  32  -1
M  END
>  <UniqueID>  (22) 
22

>  <SMILES>  (22) 
COc1cccc(/C=C/C(=O)c2c(C)[n-]c(=O)[n-]c2=O)c1O

>  <Energy>  (22) 
46.964991631031985

>  <Genealogy>  (22) 
COc1cccc(C=CC(=O)c2c(C)[n-]c(=O)[n-]c2=O)c1O (protonated)
COc1cccc(/C=C/C(=O)c2c(C)[n-]c(=O)[n-]c2=O)c1O (cis-trans isomerization)
COc1cccc(/C=C/C(=O)c2c(C)[n-]c(=O)[n-]c2=O)c1O (3D coordinates assigned)
COc1cccc(/C=C/C(=O)c2c(C)[n-]c(=O)[n-]c2=O)c1O (optimized conformer: 46.964991631031985 kcal/mol)

>  <smiles>  (22) 
COc1cccc(C=CC(=O)c2c(C)[nH]c(=O)[nH]c2=O)c1O

>  <score_type>  (22) 
oracle

>  <origin>  (22) 
adg

>  <m_score__min__energy>  (22) 
-11.119999999999999

>  <m_primary>  (22) 
energy

$$$$
22:0
     RDKit          3D

 56 58  0  0  0  0  0  0  0  0999 V2000
   59.7920   28.4350   47.6920 C   0  0  0  0  0  0  0  0  0  0  0  0
   59.4720   27.1440   46.9430 C   0  0  0  0  0  0  0  0  0  0  0  0
   57.9830   26.7870   47.0670 C   0  0  0  0  0  0  0  0  0  0  0  0
   57.2300   26.9630   45.7310 C   0  0  2  0  0  0  0  0  0  0  0  0
   56.7740   28.3450   45.5140 N   0  0  0  0  0  0  0  0  0  0  0  0
   57.5960   29.4410   45.0810 C   0  0  0  0  0  0  0  0  0  0  0  0
   58.8030   29.2540   44.7700 O   0  0  0  0  0  0  0  0  0  0  0  0
   57.0070   30.7420   44.9540 N   0  0  0  0  0  0  0  0  0  0  0  0
   57.6720   32.0080   45.0730 C   0  0  0  0  0  0  0  0  0  0  0  0
   58.1510   32.7120   43.9540 C   0  0  0  0  0  0  0  0  0  0  0  0
   58.8170   33.9290   44.1230 C   0  0  0  0  0  0  0  0  0  0  0  0
   59.0190   34.4510   45.4020 C   0  0  0  0  0  0  0  0  0  0  0  0
   58.5490   33.7540   46.5300 C   0  0  0  0  0  0  0  0  0  0  0  0
   58.7710   34.2330   47.8640 N   0  0  0  0  0  0  0  0  0  0  0  0
   59.8460   33.8580   48.7380 C   0  0  0  0  0  0  0  0  0  0  0  0
   59.7410   34.0400   49.9810 O   0  0  0  0  0  0  0  0  0  0  0  0
   61.0590   33.2100   48.1870 C   0  0  0  0  0  0  0  0  0  0  0  0
   61.0450   31.8500   47.8220 C   0  0  0  0  0  0  0  0  0  0  0  0
   62.1910   31.2450   47.2980 C   0  0  0  0  0  0  0  0  0  0  0  0
   63.3640   31.9860   47.1330 C   0  0  0  0  0  0  0  0  0  0  0  0
   63.3920   33.3350   47.4920 C   0  0  0  0  0  0  0  0  0  0  0  0
   62.2480   33.9470   48.0150 C   0  0  0  0  0  0  0  0  0  0  0  0
   57.9060   32.5240   46.3550 C   0  0  0  0  0  0  0  0  0  0  0  0
   56.0800   25.9830   45.6250 C   0  0  0  0  0  0  0  0  0  0  0  0
   54.9270   26.3400   45.9900 O   0  0  0  0  0  0  0  0  0  0  0  0
   56.2800   24.6280   45.1750 N   0  0  0  0  0  0  0  0  0  0  0  0
   57.5330   24.0980   44.6590 C   0  0  0  0  0  0  0  0  0  0  0  0
   57.2270   22.6740   44.2120 C   0  0  0  0  0  0  0  0  0  0  0  0
   55.8870   22.3100   44.8470 C   0  0  0  0  0  0  0  0  0  0  0  0
   55.2220   23.6330   45.2010 C   0  0  0  0  0  0  0  0  0  0  0  0
   59.7464   28.2512   48.7756 H   0  0  0  0  0  0  0  0  0  0  0  0
   60.8018   28.7760   47.4201 H   0  0  0  0  0  0  0  0  0  0  0  0
   59.0583   29.2082   47.4201 H   0  0  0  0  0  0  0  0  0  0  0  0
   59.7230   27.2738   45.8799 H   0  0  0  0  0  0  0  0  0  0  0  0
   60.0646   26.3286   47.3834 H   0  0  0  0  0  0  0  0  0  0  0  0
   57.8953   25.7386   47.3881 H   0  0  0  0  0  0  0  0  0  0  0  0
   57.5315   27.4690   47.8025 H   0  0  0  0  0  0  0  0  0  0  0  0
   57.9496   26.7424   44.9289 H   0  0  0  0  0  0  0  0  0  0  0  0
   55.7660   28.5510   45.6990 H   0  0  0  0  0  0  0  0  0  0  0  0
   58.0012   32.3040   42.9435 H   0  0  0  0  0  0  0  0  0  0  0  0
   59.1840   34.4785   43.2436 H   0  0  0  0  0  0  0  0  0  0  0  0
   59.5462   35.4082   45.5279 H   0  0  0  0  0  0  0  0  0  0  0  0
   60.1258   31.2596   47.9501 H   0  0  0  0  0  0  0  0  0  0  0  0
   62.1693   30.1823   47.0147 H   0  0  0  0  0  0  0  0  0  0  0  0
   64.2644   31.5071   46.7207 H   0  0  0  0  0  0  0  0  0  0  0  0
   64.3159   33.9180   47.3633 H   0  0  0  0  0  0  0  0  0  0  0  0
   62.2766   35.0107   48.2939 H   0  0  0  0  0  0  0  0  0  0  0  0
   57.5791   31.9532   47.2367 H   0  0  0  0  0  0  0  0  0  0  0  0
   57.8822   24.7004   43.8074 H   0  0  0  0  0  0  0  0  0  0  0  0
   58.3273   24.1223   45.4196 H   0  0  0  0  0  0  0  0  0  0  0  0
   57.1557   22.6250   43.1154 H   0  0  0  0  0  0  0  0  0  0  0  0
   58.0203   21.9768   44.5197 H   0  0  0  0  0  0  0  0  0  0  0  0
   55.2657   21.7477   44.1344 H   0  0  0  0  0  0  0  0  0  0  0  0
   56.0194   21.6735   45.7343 H   0  0  0  0  0  0  0  0  0  0  0  0
   54.4451   23.8807   44.4627 H   0  0  0  0  0  0  0  0  0  0  0  0
   54.7321   23.5890   46.1849 H   0  0  0  0  0  0  0  0  0  0  0  0
  1  2  1  0
  2  3  1  0
  3  4  1  0
  4  5  1  0
  5  6  1  0
  6  7  2  0
  6  8  1  0
  8  9  1  0
  9 10  2  0
 10 11  1  0
 11 12  2  0
 12 13  1  0
 13 14  1  0
 14 15  1  0
 15 16  2  0
 15 17  1  0
 17 18  2  0
 18 19  1  0
 19 20  2  0
 20 21  1  0
 21 22  2  0
 13 23  2  0
  4 24  1  0
 24 25  2  0
 24 26  1  0
 26 27  1  0
 27 28  1  0
 28 29  1  0
 29 30  1  0
 23  9  1  0
 30 26  1  0
 22 17  1  0
  1 31  1  0
  1 32  1  0
  1 33  1  0
  2 34  1  0
  2 35  1  0
  3 36  1  0
  3 37  1  0
  4 38  1  6
  5 39  1  0
 10 40  1  0
 11 41  1  0
 12 42  1  0
 18 43  1  0
 19 44  1  0
 20 45  1  0
 21 46  1  0
 22 47  1  0
 23 48  1  0
 27 49  1  0
 27 50  1  0
 28 51  1  0
 28 52  1  0
 29 53  1  0
 29 54  1  0
 30 55  1  0
 30 56  1  0
M  CHG  2   8  -1  14  -1
M  END
>  <UniqueID>  (23) 
23

>  <SMILES>  (23) 
CCC[C@H](NC(=O)[N-]c1cccc([N-]C(=O)c2ccccc2)c1)C(=O)N1CCCC1

>  <Energy>  (23) 
58.18796937529503

>  <Genealogy>  (23) 
CCCC(NC(=O)[N-]c1cccc([N-]C(=O)c2ccccc2)c1)C(=O)N1CCCC1 (protonated)
CCC[C@H](NC(=O)[N-]c1cccc([N-]C(=O)c2ccccc2)c1)C(=O)N1CCCC1 (chirality)
CCC[C@H](NC(=O)[N-]c1cccc([N-]C(=O)c2ccccc2)c1)C(=O)N1CCCC1 (3D coordinates assigned)
CCC[C@H](NC(=O)[N-]c1cccc([N-]C(=O)c2ccccc2)c1)C(=O)N1CCCC1 (nonaromatic ring conformer: 58.18796937529503 kcal/mol)

>  <smiles>  (23) 
CCCC(NC(=O)Nc1cccc(NC(=O)c2ccccc2)c1)C(=O)N1CCCC1

>  <score_type>  (23) 
oracle

>  <origin>  (23) 
adg

>  <m_score__min__energy>  (23) 
-12.4

>  <m_primary>  (23) 
energy

$$$$
23:0
     RDKit          3D

 52 54  0  0  0  0  0  0  0  0999 V2000
   55.7949   30.9812   50.9742 H   0  0  0  0  0  0  0  0  0  0  0  0
   54.8140   30.9860   51.4720 C   0  0  0  0  0  0  0  0  0  0  0  0
   53.9347   31.3925   50.9508 H   0  0  0  0  0  0  0  0  0  0  0  0
   54.6900   30.4960   52.7150 C   0  0  0  0  0  0  0  0  0  0  0  0
   53.5090   30.4400   53.4630 C   0  0  0  0  0  0  0  0  0  0  0  0
   52.3100   30.9620   53.1370 C   0  0  0  0  0  0  0  0  0  0  0  0
   51.6293   31.2417   53.9545 H   0  0  0  0  0  0  0  0  0  0  0  0
   51.8550   31.1810   51.7530 C   0  0  0  0  0  0  0  0  0  0  0  0
   52.0190   30.2780   50.7700 N   0  0  0  0  0  0  0  0  0  0  0  0
   51.3910   30.8420   49.7160 C   0  0  0  0  0  0  0  0  0  0  0  0
   51.3390   30.2940   48.5850 O   0  0  0  0  0  0  0  0  0  0  0  0
   50.8160   32.0360   49.9730 N   0  0  0  0  0  0  0  0  0  0  0  0
   51.1070   32.2320   51.2690 C   0  0  0  0  0  0  0  0  0  0  0  0
   50.6560   33.3230   52.0000 O   0  0  0  0  0  0  0  0  0  0  0  0
   53.8240   29.7740   54.6390 C   0  0  0  0  0  0  0  0  0  0  0  0
   53.1388   29.5474   55.4691 H   0  0  0  0  0  0  0  0  0  0  0  0
   55.1640   29.4510   54.5650 C   0  0  0  0  0  0  0  0  0  0  0  0
   55.9210   28.7280   55.6370 C   0  0  0  0  0  0  0  0  0  0  0  0
   55.5697   29.0636   56.6239 H   0  0  0  0  0  0  0  0  0  0  0  0
   55.7542   27.6453   55.5371 H   0  0  0  0  0  0  0  0  0  0  0  0
   56.9949   28.9443   55.5371 H   0  0  0  0  0  0  0  0  0  0  0  0
   55.6970   29.9000   53.4060 N   0  0  0  0  0  0  0  0  0  0  0  0
   57.0810   29.7700   53.0240 C   0  0  0  0  0  0  0  0  0  0  0  0
   57.4800   28.6780   52.5320 O   0  0  0  0  0  0  0  0  0  0  0  0
   58.0350   30.8150   53.3420 N   0  0  0  0  0  0  0  0  0  0  0  0
   58.2160   30.7860   54.3730 H   0  0  0  0  0  0  0  0  0  0  0  0
   57.4760   32.1570   53.0300 C   0  0  0  0  0  0  0  0  0  0  0  0
   56.8904   32.0940   52.1010 H   0  0  0  0  0  0  0  0  0  0  0  0
   56.8401   32.4721   53.8704 H   0  0  0  0  0  0  0  0  0  0  0  0
   58.5910   33.1980   52.8490 C   0  0  0  0  0  0  0  0  0  0  0  0
   58.1314   34.1728   52.6287 H   0  0  0  0  0  0  0  0  0  0  0  0
   59.1751   33.2281   53.7806 H   0  0  0  0  0  0  0  0  0  0  0  0
   59.5220   32.8480   51.7420 N   0  0  0  0  0  0  0  0  0  0  0  0
   59.2870   33.6630   50.5300 C   0  0  0  0  0  0  0  0  0  0  0  0
   58.2107   33.8691   50.4340 H   0  0  0  0  0  0  0  0  0  0  0  0
   59.8442   34.6072   50.6194 H   0  0  0  0  0  0  0  0  0  0  0  0
   59.7730   32.9110   49.2810 C   0  0  0  0  0  0  0  0  0  0  0  0
   60.7577   33.3087   48.9942 H   0  0  0  0  0  0  0  0  0  0  0  0
   59.8189   31.8427   49.5391 H   0  0  0  0  0  0  0  0  0  0  0  0
   58.8190   33.0520   48.0800 C   0  0  0  0  0  0  0  0  0  0  0  0
   58.7107   32.0649   47.6069 H   0  0  0  0  0  0  0  0  0  0  0  0
   57.8682   33.4406   48.4736 H   0  0  0  0  0  0  0  0  0  0  0  0
   59.2970   34.0470   47.0150 C   0  0  0  0  0  0  0  0  0  0  0  0
   58.4750   34.0050   45.9020 F   0  0  0  0  0  0  0  0  0  0  0  0
   59.2630   35.3260   47.5420 F   0  0  0  0  0  0  0  0  0  0  0  0
   60.5970   33.7680   46.6350 F   0  0  0  0  0  0  0  0  0  0  0  0
   59.5240   31.4040   51.4110 C   0  0  0  0  0  0  0  0  0  0  0  0
   58.7031   31.1951   50.7092 H   0  0  0  0  0  0  0  0  0  0  0  0
   60.4937   31.1506   50.9578 H   0  0  0  0  0  0  0  0  0  0  0  0
   59.3360   30.5480   52.6720 C   0  0  0  0  0  0  0  0  0  0  0  0
   59.3775   29.4859   52.3889 H   0  0  0  0  0  0  0  0  0  0  0  0
   60.1392   30.8051   53.3782 H   0  0  0  0  0  0  0  0  0  0  0  0
  1  2  1  0
  2  3  1  0
  2  4  2  0
  4  5  1  0
  5  6  2  0
  6  7  1  0
  6  8  1  0
  8  9  1  0
  9 10  1  0
 10 11  2  0
 10 12  1  0
 12 13  1  0
 13 14  1  0
  5 15  1  0
 15 16  1  0
 15 17  2  0
 17 18  1  0
 18 19  1  0
 18 20  1  0
 18 21  1  0
 17 22  1  0
 22 23  1  0
 23 24  2  0
 23 25  1  0
 25 26  1  0
 25 27  1  0
 27 28  1  0
 27 29  1  0
 27 30  1  0
 30 31  1  0
 30 32  1  0
 30 33  1  0
 33 34  1  0
 34 35  1  0
 34 36  1  0
 34 37  1  0
 37 38  1  0
 37 39  1  0
 37 40  1  0
 40 41  1  0
 40 42  1  0
 40 43  1  0
 43 44  1  0
 43 45  1  0
 43 46  1  0
 33 47  1  0
 47 48  1  0
 47 49  1  0
 47 50  1  0
 50 51  1  0
 50 52  1  0
 22  4  1  0
 50 25  1  0
 13  8  2  0
M  CHG  4   9  -1  12  -1  14  -1  25   1
M  END
>  <UniqueID>  (24) 
24

>  <SMILES>  (24) 
C=c1/c(=C/c2[n-]c(=O)[n-]c2[O-])cc(C)n1C(=O)[NH+]1CCN(CCCC(F)(F)F)CC1

>  <Energy>  (24) 
134.2438355431049

>  <Genealogy>  (24) 
C=c1c(=Cc2[n-]c(=O)[n-]c2[O-])cc(C)n1C(=O)[NH+]1CCN(CCCC(F)(F)F)CC1 (protonated)
C=c1/c(=C/c2[n-]c(=O)[n-]c2[O-])cc(C)n1C(=O)[NH+]1CCN(CCCC(F)(F)F)CC1 (cis-trans isomerization)
C=c1/c(=C/c2[n-]c(=O)[n-]c2[O-])cc(C)n1C(=O)[NH+]1CCN(CCCC(F)(F)F)CC1 (3D coordinates assigned)
C=c1/c(=C/c2[n-]c(=O)[n-]c2[O-])cc(C)n1C(=O)[NH+]1CCN(CCCC(F)(F)F)CC1 (nonaromatic ring conformer: 134.2438355431049 kcal/mol)

>  <smiles>  (24) 
C=c1c(=Cc2[nH]c(=O)[nH]c2O)cc(C)n1C(=O)N1CCN(CCCC(F)(F)F)CC1

>  <score_type>  (24) 
oracle

>  <origin>  (24) 
adg

>  <m_score__min__energy>  (24) 
-14.57

>  <m_primary>  (24) 
energy

$$$$
24:0
     RDKit          3D

 58 61  0  0  0  0  0  0  0  0999 V2000
   59.2780   27.7990   45.4660 O   0  0  0  0  0  0  0  0  0  0  0  0
   58.3670   27.3130   46.1870 C   0  0  0  0  0  0  0  0  0  0  0  0
   58.3980   27.5400   47.6740 C   0  0  0  0  0  0  0  0  0  0  0  0
   59.7700   27.6930   48.1640 N   0  0  0  0  0  0  0  0  0  0  0  0
   60.4570   28.9580   48.2030 C   0  0  0  0  0  0  0  0  0  0  0  0
   60.9500   29.5700   47.0330 C   0  0  0  0  0  0  0  0  0  0  0  0
   61.6130   30.7990   47.1050 C   0  0  0  0  0  0  0  0  0  0  0  0
   61.7920   31.4350   48.3390 C   0  0  0  0  0  0  0  0  0  0  0  0
   62.6730   32.9580   48.4170 S   0  0  0  0  0  0  0  0  0  0  0  0
   63.7250   33.0060   47.3440 O   0  0  0  0  0  0  0  0  0  0  0  0
   63.3520   33.0600   49.7540 O   0  0  0  0  0  0  0  0  0  0  0  0
   61.5870   34.3030   48.2270 N   0  0  0  0  0  0  0  0  0  0  0  0
   60.3570   33.8960   47.5380 C   0  0  2  0  0  0  0  0  0  0  0  0
   60.6470   33.5770   46.0780 C   0  0  0  0  0  0  0  0  0  0  0  0
   59.7030   34.4570   45.2690 C   0  0  0  0  0  0  0  0  0  0  0  0
   58.6870   35.0030   46.1830 N   0  0  0  0  0  0  0  0  0  0  0  0
   57.4770   34.1510   46.2220 C   0  0  0  0  0  0  0  0  0  0  0  0
   57.7130   32.8630   45.4770 C   0  0  0  0  0  0  0  0  0  0  0  0
   57.5290   32.8120   44.0860 C   0  0  0  0  0  0  0  0  0  0  0  0
   57.7540   31.6220   43.3870 C   0  0  0  0  0  0  0  0  0  0  0  0
   58.1630   30.4750   44.0730 C   0  0  0  0  0  0  0  0  0  0  0  0
   58.3480   30.5170   45.4570 C   0  0  0  0  0  0  0  0  0  0  0  0
   58.1240   31.7060   46.1590 C   0  0  0  0  0  0  0  0  0  0  0  0
   59.3470   35.0400   47.4930 C   0  0  0  0  0  0  0  0  0  0  0  0
   61.3070   30.8290   49.5060 C   0  0  0  0  0  0  0  0  0  0  0  0
   60.6430   29.6010   49.4360 C   0  0  0  0  0  0  0  0  0  0  0  0
   57.2170   26.7320   45.5600 N   0  0  0  0  0  0  0  0  0  0  0  0
   56.7020   25.5470   45.7470 C   0  0  0  0  0  0  0  0  0  0  0  0
   57.5580   24.4910   45.8240 N   0  0  0  0  0  0  0  0  0  0  0  0
   57.1310   23.2120   46.0050 C   0  0  0  0  0  0  0  0  0  0  0  0
   55.7690   22.9420   46.1220 C   0  0  0  0  0  0  0  0  0  0  0  0
   54.8600   23.9970   46.0720 C   0  0  0  0  0  0  0  0  0  0  0  0
   55.3120   25.3090   45.9010 C   0  0  0  0  0  0  0  0  0  0  0  0
   54.3800   26.3390   45.9350 O   0  0  0  0  0  0  0  0  0  0  0  0
   57.8306   28.4528   47.9084 H   0  0  0  0  0  0  0  0  0  0  0  0
   57.9506   26.6642   48.1668 H   0  0  0  0  0  0  0  0  0  0  0  0
   60.2740   26.8510   48.5280 H   0  0  0  0  0  0  0  0  0  0  0  0
   60.8125   29.0785   46.0586 H   0  0  0  0  0  0  0  0  0  0  0  0
   61.9960   31.2686   46.1869 H   0  0  0  0  0  0  0  0  0  0  0  0
   59.9669   33.0278   48.0894 H   0  0  0  0  0  0  0  0  0  0  0  0
   61.6937   33.8120   45.8346 H   0  0  0  0  0  0  0  0  0  0  0  0
   60.4964   32.5099   45.8577 H   0  0  0  0  0  0  0  0  0  0  0  0
   60.2668   35.2796   44.8047 H   0  0  0  0  0  0  0  0  0  0  0  0
   59.2219   33.8680   44.4742 H   0  0  0  0  0  0  0  0  0  0  0  0
   57.2286   33.9230   47.2691 H   0  0  0  0  0  0  0  0  0  0  0  0
   56.6466   34.6911   45.7437 H   0  0  0  0  0  0  0  0  0  0  0  0
   57.2062   33.7127   43.5433 H   0  0  0  0  0  0  0  0  0  0  0  0
   57.6091   31.5886   42.2971 H   0  0  0  0  0  0  0  0  0  0  0  0
   58.3393   29.5389   43.5229 H   0  0  0  0  0  0  0  0  0  0  0  0
   58.6703   29.6137   45.9956 H   0  0  0  0  0  0  0  0  0  0  0  0
   58.2702   31.7350   47.2489 H   0  0  0  0  0  0  0  0  0  0  0  0
   59.8645   36.0017   47.6244 H   0  0  0  0  0  0  0  0  0  0  0  0
   58.6071   34.9318   48.2997 H   0  0  0  0  0  0  0  0  0  0  0  0
   61.4493   31.3210   50.4795 H   0  0  0  0  0  0  0  0  0  0  0  0
   60.2626   29.1342   50.3566 H   0  0  0  0  0  0  0  0  0  0  0  0
   57.8610   22.3909   46.0590 H   0  0  0  0  0  0  0  0  0  0  0  0
   55.4156   21.9085   46.2523 H   0  0  0  0  0  0  0  0  0  0  0  0
   53.7826   23.7968   46.1674 H   0  0  0  0  0  0  0  0  0  0  0  0
  1  2  2  0
  2  3  1  0
  3  4  1  0
  4  5  1  0
  5  6  2  0
  6  7  1  0
  7  8  2  0
  8  9  1  0
  9 10  2  0
  9 11  2  0
  9 12  1  0
 12 13  1  0
 13 14  1  0
 14 15  1  0
 15 16  1  0
 16 17  1  0
 17 18  1  0
 18 19  2  0
 19 20  1  0
 20 21  2  0
 21 22  1  0
 22 23  2  0
 16 24  1  0
  8 25  1  0
 25 26  2  0
  2 27  1  0
 27 28  2  3
 28 29  1  0
 29 30  1  0
 30 31  2  0
 31 32  1  0
 32 33  2  0
 33 34  1  0
 26  5  1  0
 33 28  1  0
 24 13  1  0
 23 18  1  0
  3 35  1  0
  3 36  1  0
  4 37  1  0
  6 38  1  0
  7 39  1  0
 13 40  1  1
 14 41  1  0
 14 42  1  0
 15 43  1  0
 15 44  1  0
 17 45  1  0
 17 46  1  0
 19 47  1  0
 20 48  1  0
 21 49  1  0
 22 50  1  0
 23 51  1  0
 24 52  1  0
 24 53  1  0
 25 54  1  0
 26 55  1  0
 30 56  1  0
 31 57  1  0
 32 58  1  0
M  CHG  3  12  -1  29  -1  34  -1
M  END
>  <UniqueID>  (25) 
25

>  <SMILES>  (25) 
O=C(CNc1ccc(S(=O)(=O)[N-][C@@H]2CCN(Cc3ccccc3)C2)cc1)N=c1[n-]cccc1[O-]

>  <Energy>  (25) 
76.5865636313781

>  <Genealogy>  (25) 
O=C(CNc1ccc(S(=O)(=O)[N-]C2CCN(Cc3ccccc3)C2)cc1)N=c1[n-]cccc1[O-] (protonated)
O=C(CNc1ccc(S(=O)(=O)[N-][C@@H]2CCN(Cc3ccccc3)C2)cc1)N=c1[n-]cccc1[O-] (chirality)
O=C(CNc1ccc(S(=O)(=O)[N-][C@@H]2CCN(Cc3ccccc3)C2)cc1)N=c1[n-]cccc1[O-] (3D coordinates assigned)
O=C(CNc1ccc(S(=O)(=O)[N-][C@@H]2CCN(Cc3ccccc3)C2)cc1)N=c1[n-]cccc1[O-] (nonaromatic ring conformer: 76.5865636313781 kcal/mol)

>  <smiles>  (25) 
O=C(CNc1ccc(S(=O)(=O)NC2CCN(Cc3ccccc3)C2)cc1)N=c1[nH]cccc1O

>  <score_type>  (25) 
oracle

>  <origin>  (25) 
adg

>  <m_score__min__energy>  (25) 
-15.720000000000001

>  <m_primary>  (25) 
energy

$$$$
25:0
     RDKit          3D

 47 49  0  0  0  0  0  0  0  0999 V2000
   58.5500   34.8210   53.0610 C   0  0  0  0  0  0  0  0  0  0  0  0
   58.4550   33.5010   52.3580 C   0  0  0  0  0  0  0  0  0  0  0  0
   57.3140   32.6960   52.5070 C   0  0  0  0  0  0  0  0  0  0  0  0
   57.2170   31.4700   51.8310 C   0  0  0  0  0  0  0  0  0  0  0  0
   55.9860   30.6260   51.9710 C   0  0  0  0  0  0  0  0  0  0  0  0
   58.2500   31.0710   50.9690 C   0  0  0  0  0  0  0  0  0  0  0  0
   59.3820   31.8770   50.8060 C   0  0  0  0  0  0  0  0  0  0  0  0
   60.7020   31.3580   49.7100 S   0  0  0  0  0  0  0  0  0  0  0  0
   59.8870   32.0420   48.2750 C   0  0  0  0  0  0  0  0  0  0  0  0
   60.0860   33.3390   47.9360 N   0  0  0  0  0  0  0  0  0  0  0  0
   59.4610   33.8890   46.8640 C   0  0  0  0  0  0  0  0  0  0  0  0
   59.6740   35.0990   46.5840 O   0  0  0  0  0  0  0  0  0  0  0  0
   58.5820   33.1130   46.0840 C   0  0  0  0  0  0  0  0  0  0  0  0
   57.8370   33.7440   44.9320 C   0  0  0  0  0  0  0  0  0  0  0  0
   58.4300   31.7470   46.4280 C   0  0  0  0  0  0  0  0  0  0  0  0
   57.5860   30.8130   45.6580 C   0  0  0  0  0  0  0  0  0  0  0  0
   56.8130   31.2750   44.7750 O   0  0  0  0  0  0  0  0  0  0  0  0
   57.5850   29.4090   45.9470 N   0  0  0  0  0  0  0  0  0  0  0  0
   56.8920   28.4540   45.0850 C   0  0  0  0  0  0  0  0  0  0  0  0
   57.1470   27.0430   45.5460 C   0  0  0  0  0  0  0  0  0  0  0  0
   58.4630   26.5490   45.5910 C   0  0  0  0  0  0  0  0  0  0  0  0
   58.7150   25.2540   46.0510 C   0  0  0  0  0  0  0  0  0  0  0  0
   57.6600   24.4460   46.4820 C   0  0  0  0  0  0  0  0  0  0  0  0
   56.3520   24.9340   46.4600 C   0  0  0  0  0  0  0  0  0  0  0  0
   56.0910   26.2290   46.0010 C   0  0  0  0  0  0  0  0  0  0  0  0
   54.7830   26.7030   46.0020 O   0  0  0  0  0  0  0  0  0  0  0  0
   59.0710   31.2620   47.5240 N   0  0  0  0  0  0  0  0  0  0  0  0
   59.4810   33.0920   51.4930 C   0  0  0  0  0  0  0  0  0  0  0  0
   58.5383   34.6587   54.1489 H   0  0  0  0  0  0  0  0  0  0  0  0
   59.4865   35.3221   52.7751 H   0  0  0  0  0  0  0  0  0  0  0  0
   57.6949   35.4511   52.7751 H   0  0  0  0  0  0  0  0  0  0  0  0
   56.4915   33.0284   53.1574 H   0  0  0  0  0  0  0  0  0  0  0  0
   55.7648   30.4743   53.0378 H   0  0  0  0  0  0  0  0  0  0  0  0
   55.1371   31.1329   51.4890 H   0  0  0  0  0  0  0  0  0  0  0  0
   56.1528   29.6514   51.4890 H   0  0  0  0  0  0  0  0  0  0  0  0
   58.1695   30.1214   50.4196 H   0  0  0  0  0  0  0  0  0  0  0  0
   57.0524   34.4086   45.3228 H   0  0  0  0  0  0  0  0  0  0  0  0
   58.5384   34.3269   44.3170 H   0  0  0  0  0  0  0  0  0  0  0  0
   57.3775   32.9562   44.3170 H   0  0  0  0  0  0  0  0  0  0  0  0
   58.0670   29.0730   46.8120 H   0  0  0  0  0  0  0  0  0  0  0  0
   55.8111   28.6554   45.1178 H   0  0  0  0  0  0  0  0  0  0  0  0
   57.2684   28.5652   44.0574 H   0  0  0  0  0  0  0  0  0  0  0  0
   59.2980   27.1853   45.2624 H   0  0  0  0  0  0  0  0  0  0  0  0
   59.7456   24.8701   46.0738 H   0  0  0  0  0  0  0  0  0  0  0  0
   57.8599   23.4249   46.8389 H   0  0  0  0  0  0  0  0  0  0  0  0
   55.5238   24.2976   46.8050 H   0  0  0  0  0  0  0  0  0  0  0  0
   60.3669   33.7291   51.3543 H   0  0  0  0  0  0  0  0  0  0  0  0
  1  2  1  0
  2  3  2  0
  3  4  1  0
  4  5  1  0
  4  6  2  0
  6  7  1  0
  7  8  1  0
  8  9  1  0
  9 10  2  0
 10 11  1  0
 11 12  2  0
 11 13  1  0
 13 14  1  0
 13 15  2  0
 15 16  1  0
 16 17  2  0
 16 18  1  0
 18 19  1  0
 19 20  1  0
 20 21  2  0
 21 22  1  0
 22 23  2  0
 23 24  1  0
 24 25  2  0
 25 26  1  0
 15 27  1  0
  7 28  2  0
 28  2  1  0
 27  9  1  0
 25 20  1  0
  1 29  1  0
  1 30  1  0
  1 31  1  0
  3 32  1  0
  5 33  1  0
  5 34  1  0
  5 35  1  0
  6 36  1  0
 14 37  1  0
 14 38  1  0
 14 39  1  0
 18 40  1  0
 19 41  1  0
 19 42  1  0
 21 43  1  0
 22 44  1  0
 23 45  1  0
 24 46  1  0
 28 47  1  0
M  CHG  2  26  -1  27  -1
M  END
>  <UniqueID>  (26) 
26

>  <SMILES>  (26) 
Cc1cc(C)cc(Sc2nc(=O)c(C)c(C(=O)NCc3ccccc3[O-])[n-]2)c1

>  <Energy>  (26) 
48.55318429577501

>  <Genealogy>  (26) 
Cc1cc(C)cc(Sc2nc(=O)c(C)c(C(=O)NCc3ccccc3[O-])[n-]2)c1 (protonated)
Cc1cc(C)cc(Sc2nc(=O)c(C)c(C(=O)NCc3ccccc3[O-])[n-]2)c1 (3D coordinates assigned)
Cc1cc(C)cc(Sc2nc(=O)c(C)c(C(=O)NCc3ccccc3[O-])[n-]2)c1 (optimized conformer: 48.55318429577501 kcal/mol)

>  <smiles>  (26) 
Cc1cc(C)cc(Sc2nc(=O)c(C)c(C(=O)NCc3ccccc3O)[nH]2)c1

>  <score_type>  (26) 
oracle

>  <origin>  (26) 
adg

>  <m_score__min__energy>  (26) 
-13.66

>  <m_primary>  (26) 
energy

$$$$
26:0
     RDKit          3D

 20 21  0  0  0  0  0  0  0  0999 V2000
   58.1348   23.0645   45.1604 H   0  0  0  0  0  0  0  0  0  0  0  0
   57.2790   23.7360   45.3240 C   0  0  0  0  0  0  0  0  0  0  0  0
   57.4860   25.0080   45.7570 N   0  0  0  0  0  0  0  0  0  0  0  0
   56.4550   25.8780   45.9660 C   0  0  0  0  0  0  0  0  0  0  0  0
   56.6750   27.0860   46.3980 N   0  0  0  0  0  0  0  0  0  0  0  0
   57.7550   27.9370   45.9870 C   0  0  0  0  0  0  0  0  0  0  0  0
   58.9380   27.5460   46.1710 O   0  0  0  0  0  0  0  0  0  0  0  0
   57.5150   29.2860   45.4320 C   0  0  0  0  0  0  0  0  0  0  0  0
   58.6820   30.4910   45.2360 S   0  0  0  0  0  0  0  0  0  0  0  0
   57.5940   31.5510   44.5180 C   0  0  0  0  0  0  0  0  0  0  0  0
   57.8880   32.7090   44.1230 O   0  0  0  0  0  0  0  0  0  0  0  0
   56.3580   31.0260   44.4010 N   0  0  0  0  0  0  0  0  0  0  0  0
   56.3140   29.7630   44.9040 C   0  0  0  0  0  0  0  0  0  0  0  0
   55.1410   29.0170   44.8890 O   0  0  0  0  0  0  0  0  0  0  0  0
   55.1370   25.4490   45.7480 C   0  0  0  0  0  0  0  0  0  0  0  0
   54.0640   26.3070   45.9670 O   0  0  0  0  0  0  0  0  0  0  0  0
   54.9050   24.1440   45.3030 C   0  0  0  0  0  0  0  0  0  0  0  0
   53.8765   23.7977   45.1236 H   0  0  0  0  0  0  0  0  0  0  0  0
   55.9800   23.2820   45.0870 C   0  0  0  0  0  0  0  0  0  0  0  0
   55.8062   22.2549   44.7335 H   0  0  0  0  0  0  0  0  0  0  0  0
  1  2  1  0
  2  3  1  0
  3  4  1  0
  4  5  2  0
  5  6  1  0
  6  7  2  0
  6  8  1  0
  8  9  1  0
  9 10  1  0
 10 11  2  0
 10 12  1  0
 12 13  1  0
 13 14  1  0
  4 15  1  0
 15 16  1  0
 15 17  2  0
 17 18  1  0
 17 19  1  0
 19 20  1  0
 19  2  2  0
 13  8  2  0
M  CHG  4   3  -1  12  -1  14  -1  16  -1
M  END
>  <UniqueID>  (27) 
27

>  <SMILES>  (27) 
O=C(/N=c1\[n-]cccc1[O-])c1sc(=O)[n-]c1[O-]

>  <Energy>  (27) 
60.283652066776924

>  <Genealogy>  (27) 
O=C(N=c1[n-]cccc1[O-])c1sc(=O)[n-]c1[O-] (protonated)
O=C(/N=c1\[n-]cccc1[O-])c1sc(=O)[n-]c1[O-] (cis-trans isomerization)
O=C(/N=c1\[n-]cccc1[O-])c1sc(=O)[n-]c1[O-] (3D coordinates assigned)
O=C(/N=c1\[n-]cccc1[O-])c1sc(=O)[n-]c1[O-] (optimized conformer: 60.283652066776924 kcal/mol)

>  <smiles>  (27) 
O=C(N=c1[nH]cccc1O)c1sc(=O)[nH]c1O

>  <score_type>  (27) 
oracle

>  <origin>  (27) 
adg

>  <m_score__min__energy>  (27) 
-16.16

>  <m_primary>  (27) 
energy

$$$$
27:0
     RDKit          3D

 61 64  0  0  0  0  0  0  0  0999 V2000
   57.7720   25.7480   43.3460 C   0  0  0  0  0  0  0  0  0  0  0  0
   57.8640   27.2510   43.0610 C   0  0  0  0  0  0  0  0  0  0  0  0
   57.9530   28.0640   44.3010 N   0  0  1  0  0  0  0  0  0  0  0  0
   59.3440   28.5230   44.5330 C   0  0  0  0  0  0  0  0  0  0  0  0
   59.6720   28.6090   46.0060 C   0  0  0  0  0  0  0  0  0  0  0  0
   60.7400   29.1730   46.3590 O   0  0  0  0  0  0  0  0  0  0  0  0
   58.8010   28.0900   47.0200 N   0  0  0  0  0  0  0  0  0  0  0  0
   58.7810   26.7070   47.4810 C   0  0  0  0  0  0  0  0  0  0  0  0
   57.5750   26.0220   46.9330 C   0  0  0  0  0  0  0  0  0  0  0  0
   57.3170   24.6680   47.0000 C   0  0  0  0  0  0  0  0  0  0  0  0
   56.0900   24.4950   46.3950 C   0  0  0  0  0  0  0  0  0  0  0  0
   55.6760   25.7530   46.0010 C   0  0  0  0  0  0  0  0  0  0  0  0
   56.5810   26.6420   46.3390 O   0  0  0  0  0  0  0  0  0  0  0  0
   57.0760   29.2220   44.2010 C   0  0  0  0  0  0  0  0  0  0  0  0
   55.8300   29.0370   44.1020 O   0  0  0  0  0  0  0  0  0  0  0  0
   57.5840   30.6310   44.2410 C   0  0  0  0  0  0  0  0  0  0  0  0
   57.6730   31.3680   43.0400 C   0  0  0  0  0  0  0  0  0  0  0  0
   58.0970   32.6990   43.0480 C   0  0  0  0  0  0  0  0  0  0  0  0
   58.4370   33.3210   44.2490 C   0  0  0  0  0  0  0  0  0  0  0  0
   58.3640   32.6080   45.4520 C   0  0  0  0  0  0  0  0  0  0  0  0
   58.7740   33.3780   46.9820 S   0  0  0  0  0  0  0  0  0  0  0  0
   59.2800   34.7780   46.7640 O   0  0  0  0  0  0  0  0  0  0  0  0
   57.5290   33.4710   47.8220 O   0  0  0  0  0  0  0  0  0  0  0  0
   59.9750   32.4270   47.8170 N   0  0  0  0  0  0  0  0  0  0  0  0
   59.4690   31.4430   48.7870 C   0  0  0  0  0  0  0  0  0  0  0  0
   60.5790   30.5320   49.3220 C   0  0  0  0  0  0  0  0  0  0  0  0
   61.7500   31.3670   49.8340 C   0  0  0  0  0  0  0  0  0  0  0  0
   62.2710   32.2540   48.7370 C   0  0  0  0  0  0  0  0  0  0  0  0
   63.6290   32.6160   48.7170 C   0  0  0  0  0  0  0  0  0  0  0  0
   64.1260   33.4230   47.6930 C   0  0  0  0  0  0  0  0  0  0  0  0
   63.2760   33.8650   46.6790 C   0  0  0  0  0  0  0  0  0  0  0  0
   61.9190   33.5280   46.7000 C   0  0  0  0  0  0  0  0  0  0  0  0
   61.3880   32.7530   47.7510 C   0  0  0  0  0  0  0  0  0  0  0  0
   57.9370   31.2750   45.4460 C   0  0  0  0  0  0  0  0  0  0  0  0
   57.7618   25.5809   44.4332 H   0  0  0  0  0  0  0  0  0  0  0  0
   56.8476   25.3470   42.9047 H   0  0  0  0  0  0  0  0  0  0  0  0
   58.6406   25.2373   42.9047 H   0  0  0  0  0  0  0  0  0  0  0  0
   58.7599   27.4396   42.4512 H   0  0  0  0  0  0  0  0  0  0  0  0
   56.9446   27.5467   42.5344 H   0  0  0  0  0  0  0  0  0  0  0  0
   57.6900   27.4720   45.1200 H   0  0  0  0  0  0  0  0  0  0  0  0
   60.0365   27.8142   44.0555 H   0  0  0  0  0  0  0  0  0  0  0  0
   59.4466   29.5298   44.1020 H   0  0  0  0  0  0  0  0  0  0  0  0
   59.6873   26.1903   47.1322 H   0  0  0  0  0  0  0  0  0  0  0  0
   58.7492   26.6855   48.5803 H   0  0  0  0  0  0  0  0  0  0  0  0
   57.9560   23.8900   47.4431 H   0  0  0  0  0  0  0  0  0  0  0  0
   55.5499   23.5471   46.2545 H   0  0  0  0  0  0  0  0  0  0  0  0
   54.7316   25.9758   45.4828 H   0  0  0  0  0  0  0  0  0  0  0  0
   57.4053   30.8885   42.0869 H   0  0  0  0  0  0  0  0  0  0  0  0
   58.1630   33.2587   42.1033 H   0  0  0  0  0  0  0  0  0  0  0  0
   58.7625   34.3717   44.2513 H   0  0  0  0  0  0  0  0  0  0  0  0
   59.0142   31.9806   49.6321 H   0  0  0  0  0  0  0  0  0  0  0  0
   58.7322   30.8095   48.2714 H   0  0  0  0  0  0  0  0  0  0  0  0
   60.1814   29.9212   50.1459 H   0  0  0  0  0  0  0  0  0  0  0  0
   60.9322   29.8826   48.5074 H   0  0  0  0  0  0  0  0  0  0  0  0
   61.4124   31.9895   50.6757 H   0  0  0  0  0  0  0  0  0  0  0  0
   62.5545   30.6939   50.1653 H   0  0  0  0  0  0  0  0  0  0  0  0
   64.3024   32.2618   49.5115 H   0  0  0  0  0  0  0  0  0  0  0  0
   65.1877   33.7106   47.6853 H   0  0  0  0  0  0  0  0  0  0  0  0
   63.6748   34.4811   45.8596 H   0  0  0  0  0  0  0  0  0  0  0  0
   61.2598   33.8708   45.8889 H   0  0  0  0  0  0  0  0  0  0  0  0
   57.8757   30.7213   46.3945 H   0  0  0  0  0  0  0  0  0  0  0  0
  1  2  1  0
  2  3  1  0
  3  4  1  0
  4  5  1  0
  5  6  2  0
  5  7  1  0
  7  8  1  0
  8  9  1  0
  9 10  2  0
 10 11  1  0
 11 12  2  0
 12 13  1  0
  3 14  1  0
 14 15  2  0
 14 16  1  0
 16 17  2  0
 17 18  1  0
 18 19  2  0
 19 20  1  0
 20 21  1  0
 21 22  2  0
 21 23  2  0
 21 24  1  0
 24 25  1  0
 25 26  1  0
 26 27  1  0
 27 28  1  0
 28 29  2  0
 29 30  1  0
 30 31  2  0
 31 32  1  0
 32 33  2  0
 20 34  2  0
 13  9  1  0
 34 16  1  0
 33 24  1  0
 33 28  1  0
  1 35  1  0
  1 36  1  0
  1 37  1  0
  2 38  1  0
  2 39  1  0
  3 40  1  1
  4 41  1  0
  4 42  1  0
  8 43  1  0
  8 44  1  0
 10 45  1  0
 11 46  1  0
 12 47  1  0
 17 48  1  0
 18 49  1  0
 19 50  1  0
 25 51  1  0
 25 52  1  0
 26 53  1  0
 26 54  1  0
 27 55  1  0
 27 56  1  0
 29 57  1  0
 30 58  1  0
 31 59  1  0
 32 60  1  0
 34 61  1  0
M  CHG  2   3   1   7  -1
M  END
>  <UniqueID>  (28) 
28

>  <SMILES>  (28) 
CC[N@@H+](CC(=O)[N-]Cc1ccco1)C(=O)c1cccc(S(=O)(=O)N2CCCc3ccccc32)c1

>  <Energy>  (28) 
96.11066222961063

>  <Genealogy>  (28) 
CC[NH+](CC(=O)[N-]Cc1ccco1)C(=O)c1cccc(S(=O)(=O)N2CCCc3ccccc32)c1 (protonated)
CC[N@@H+](CC(=O)[N-]Cc1ccco1)C(=O)c1cccc(S(=O)(=O)N2CCCc3ccccc32)c1 (chirality)
CC[N@@H+](CC(=O)[N-]Cc1ccco1)C(=O)c1cccc(S(=O)(=O)N2CCCc3ccccc32)c1 (3D coordinates assigned)
CC[N@@H+](CC(=O)[N-]Cc1ccco1)C(=O)c1cccc(S(=O)(=O)N2CCCc3ccccc32)c1 (nonaromatic ring conformer: 96.11066222961063 kcal/mol)

>  <smiles>  (28) 
CCN(CC(=O)NCc1ccco1)C(=O)c1cccc(S(=O)(=O)N2CCCc3ccccc32)c1

>  <score_type>  (28) 
oracle

>  <origin>  (28) 
adg

>  <m_score__min__energy>  (28) 
-10.539999999999999

>  <m_primary>  (28) 
energy

$$$$
28:0
     RDKit          3D

 67 70  0  0  0  0  0  0  0  0999 V2000
   54.5354   31.0241   55.3733 H   0  0  0  0  0  0  0  0  0  0  0  0
   55.1250   30.4330   54.6570 C   0  0  0  0  0  0  0  0  0  0  0  0
   54.4670   29.6530   53.6490 N   0  0  0  0  0  0  0  0  0  0  0  0
   56.4570   30.4360   54.7190 C   0  0  0  0  0  0  0  0  0  0  0  0
   56.9338   30.3298   55.7046 H   0  0  0  0  0  0  0  0  0  0  0  0
   53.1830   29.6030   53.4350 C   0  0  0  0  0  0  0  0  0  0  0  0
   52.5805   28.9336   54.0666 H   0  0  0  0  0  0  0  0  0  0  0  0
   52.4850   30.3900   52.3960 C   0  0  0  0  0  0  0  0  0  0  0  0
   52.5290   29.9590   51.0620 C   0  0  0  0  0  0  0  0  0  0  0  0
   53.0450   29.0219   50.8062 H   0  0  0  0  0  0  0  0  0  0  0  0
   57.6620   30.7270   51.1220 C   0  0  0  0  0  0  0  0  0  0  0  0
   57.2460   30.7399   50.1038 H   0  0  0  0  0  0  0  0  0  0  0  0
   59.0440   30.8580   51.3120 C   0  0  0  0  0  0  0  0  0  0  0  0
   60.1230   31.0200   49.9230 S   0  0  0  0  0  0  0  0  0  0  0  0
   61.2680   30.0570   50.0670 O   0  0  0  0  0  0  0  0  0  0  0  0
   59.3720   30.6530   48.6730 O   0  0  0  0  0  0  0  0  0  0  0  0
   60.7220   32.6590   49.7610 N   0  0  0  0  0  0  0  0  0  0  0  0
   59.6290   33.6020   49.4410 C   0  0  0  0  0  0  0  0  0  0  0  0
   59.9619   34.6277   49.6582 H   0  0  0  0  0  0  0  0  0  0  0  0
   58.7517   33.3476   50.0539 H   0  0  0  0  0  0  0  0  0  0  0  0
   59.2490   33.5030   47.9870 C   0  0  0  0  0  0  0  0  0  0  0  0
   59.9950   34.1690   47.0010 C   0  0  0  0  0  0  0  0  0  0  0  0
   60.8606   34.7827   47.2911 H   0  0  0  0  0  0  0  0  0  0  0  0
   59.6430   34.0560   45.6520 C   0  0  0  0  0  0  0  0  0  0  0  0
   60.2387   34.5707   44.8837 H   0  0  0  0  0  0  0  0  0  0  0  0
   58.5340   33.2890   45.2790 C   0  0  0  0  0  0  0  0  0  0  0  0
   58.0920   33.1300   43.5470 S   0  0  0  0  0  0  0  0  0  0  0  0
   57.5260   31.4100   43.7210 C   0  0  0  0  0  0  0  0  0  0  0  0
   57.4429   31.1575   44.7884 H   0  0  0  0  0  0  0  0  0  0  0  0
   56.5433   31.2969   43.2399 H   0  0  0  0  0  0  0  0  0  0  0  0
   58.2495   30.7354   43.2399 H   0  0  0  0  0  0  0  0  0  0  0  0
   57.7780   32.6340   46.2580 C   0  0  0  0  0  0  0  0  0  0  0  0
   56.9075   32.0281   45.9661 H   0  0  0  0  0  0  0  0  0  0  0  0
   58.1280   32.7490   47.6060 C   0  0  0  0  0  0  0  0  0  0  0  0
   57.5213   32.2456   48.3732 H   0  0  0  0  0  0  0  0  0  0  0  0
   61.7910   32.7130   48.7410 C   0  0  0  0  0  0  0  0  0  0  0  0
   62.1626   31.6955   48.5494 H   0  0  0  0  0  0  0  0  0  0  0  0
   61.3827   33.1435   47.8147 H   0  0  0  0  0  0  0  0  0  0  0  0
   62.9470   33.5900   49.2340 C   0  0  0  0  0  0  0  0  0  0  0  0
   63.3696   34.1410   48.3809 H   0  0  0  0  0  0  0  0  0  0  0  0
   62.5592   34.2886   49.9900 H   0  0  0  0  0  0  0  0  0  0  0  0
   64.0300   32.7520   49.8650 C   0  0  0  0  0  0  0  0  0  0  0  0
   65.3810   33.1110   49.7300 C   0  0  0  0  0  0  0  0  0  0  0  0
   65.6563   33.9902   49.1290 H   0  0  0  0  0  0  0  0  0  0  0  0
   66.3780   32.3560   50.3560 C   0  0  0  0  0  0  0  0  0  0  0  0
   67.4348   32.6396   50.2427 H   0  0  0  0  0  0  0  0  0  0  0  0
   66.0330   31.2420   51.1250 C   0  0  0  0  0  0  0  0  0  0  0  0
   66.8183   30.6464   51.6134 H   0  0  0  0  0  0  0  0  0  0  0  0
   64.6900   30.8840   51.2740 C   0  0  0  0  0  0  0  0  0  0  0  0
   64.4189   30.0083   51.8820 H   0  0  0  0  0  0  0  0  0  0  0  0
   63.6910   31.6380   50.6510 C   0  0  0  0  0  0  0  0  0  0  0  0
   62.6348   31.3577   50.7768 H   0  0  0  0  0  0  0  0  0  0  0  0
   59.5600   30.8740   52.6130 C   0  0  0  0  0  0  0  0  0  0  0  0
   60.6423   30.9911   52.7706 H   0  0  0  0  0  0  0  0  0  0  0  0
   51.8680   31.6150   52.7030 C   0  0  0  0  0  0  0  0  0  0  0  0
   51.8609   31.9794   53.7409 H   0  0  0  0  0  0  0  0  0  0  0  0
   57.3270   30.5750   53.5290 C   0  0  0  0  0  0  0  0  0  0  0  0
   56.8090   30.5800   52.2200 C   0  0  0  0  0  0  0  0  0  0  0  0
   55.7265   30.4676   52.0601 H   0  0  0  0  0  0  0  0  0  0  0  0
   51.9200   30.7150   50.0560 C   0  0  0  0  0  0  0  0  0  0  0  0
   51.9407   30.3603   49.0149 H   0  0  0  0  0  0  0  0  0  0  0  0
   51.2850   31.9200   50.3690 C   0  0  0  0  0  0  0  0  0  0  0  0
   50.6850   32.6670   49.3640 O   0  0  0  0  0  0  0  0  0  0  0  0
   51.2630   32.3730   51.6950 C   0  0  0  0  0  0  0  0  0  0  0  0
   50.6460   33.5780   52.0100 O   0  0  0  0  0  0  0  0  0  0  0  0
   58.7080   30.7420   53.7130 C   0  0  0  0  0  0  0  0  0  0  0  0
   59.1234   30.7692   54.7312 H   0  0  0  0  0  0  0  0  0  0  0  0
  1  2  1  0
  2  3  2  0
  3  4  1  0
  4  5  1  0
  4  6  2  0
  6  7  1  0
  6  8  1  0
  8  9  2  0
  9 10  1  0
  9 11  1  0
 11 12  1  0
 11 13  2  0
 13 14  1  0
 14 15  2  0
 14 16  2  0
 14 17  1  0
 17 18  1  0
 18 19  1  0
 18 20  1  0
 18 21  1  0
 21 22  2  0
 22 23  1  0
 22 24  1  0
 24 25  1  0
 24 26  2  0
 26 27  1  0
 27 28  1  0
 28 29  1  0
 28 30  1  0
 28 31  1  0
 26 32  1  0
 32 33  1  0
 32 34  2  0
 34 35  1  0
 17 36  1  0
 36 37  1  0
 36 38  1  0
 36 39  1  0
 39 40  1  0
 39 41  1  0
 39 42  1  0
 42 43  2  0
 43 44  1  0
 43 45  1  0
 45 46  1  0
 45 47  2  0
 47 48  1  0
 47 49  1  0
 49 50  1  0
 49 51  2  0
 51 52  1  0
 13 53  1  0
 53 54  1  0
 53 55  2  0
 55 56  1  0
  2 57  1  0
 57 58  2  0
 58 59  1  0
 58 60  1  0
 60 61  1  0
 60 62  2  0
 62 63  1  0
 62 64  1  0
 64 65  1  0
 64 66  2  0
 66 67  1  0
 55  8  1  0
 66 57  1  0
 34 21  1  0
 51 42  1  0
M  CHG  2  63  -1  65  -1
M  END
>  <UniqueID>  (29) 
29

>  <SMILES>  (29) 
CSc1ccc(CN(CCc2ccccc2)S(=O)(=O)c2ccc(/C=C/N=Cc3ccc([O-])c([O-])c3)cc2)cc1

>  <Energy>  (29) 
73.00061545310675

>  <Genealogy>  (29) 
CSc1ccc(CN(CCc2ccccc2)S(=O)(=O)c2ccc(C=CN=Cc3ccc([O-])c([O-])c3)cc2)cc1 (protonated)
CSc1ccc(CN(CCc2ccccc2)S(=O)(=O)c2ccc(/C=C/N=Cc3ccc([O-])c([O-])c3)cc2)cc1 (cis-trans isomerization)
CSc1ccc(CN(CCc2ccccc2)S(=O)(=O)c2ccc(/C=C/N=Cc3ccc([O-])c([O-])c3)cc2)cc1 (3D coordinates assigned)
CSc1ccc(CN(CCc2ccccc2)S(=O)(=O)c2ccc(/C=C/N=Cc3ccc([O-])c([O-])c3)cc2)cc1 (optimized conformer: 73.00061545310675 kcal/mol)

>  <smiles>  (29) 
CSc1ccc(CN(CCc2ccccc2)S(=O)(=O)c2ccc(C=CN=Cc3ccc(O)c(O)c3)cc2)cc1

>  <score_type>  (29) 
oracle

>  <origin>  (29) 
adg

>  <m_score__min__energy>  (29) 
-18.859999999999999

>  <m_primary>  (29) 
energy

$$$$
29:0
     RDKit          3D

 51 54  0  0  0  0  0  0  0  0999 V2000
   58.0850   27.6030   43.3450 C   0  0  0  0  0  0  0  0  0  0  0  0
   57.4050   27.7380   44.6440 N   0  0  0  0  0  0  0  0  0  0  0  0
   56.7190   28.9780   44.9180 C   0  0  0  0  0  0  0  0  0  0  0  0
   55.4580   29.0110   44.8990 O   0  0  0  0  0  0  0  0  0  0  0  0
   57.4560   30.2200   45.2280 C   0  0  0  0  0  0  0  0  0  0  0  0
   57.1450   31.4090   44.5500 C   0  0  0  0  0  0  0  0  0  0  0  0
   57.8550   32.5810   44.8190 C   0  0  0  0  0  0  0  0  0  0  0  0
   58.8840   32.5830   45.7680 C   0  0  0  0  0  0  0  0  0  0  0  0
   59.5920   33.8040   46.0180 N   0  0  0  0  0  0  0  0  0  0  0  0
   60.1760   34.2060   47.2650 C   0  0  0  0  0  0  0  0  0  0  0  0
   59.5030   34.9350   48.0430 O   0  0  0  0  0  0  0  0  0  0  0  0
   61.5600   33.8510   47.6360 C   0  0  0  0  0  0  0  0  0  0  0  0
   62.5520   33.4490   46.7470 C   0  0  0  0  0  0  0  0  0  0  0  0
   63.7620   33.1260   47.3740 C   0  0  0  0  0  0  0  0  0  0  0  0
   63.7270   33.2550   48.7560 C   0  0  0  0  0  0  0  0  0  0  0  0
   62.1870   33.7700   49.1960 S   0  0  0  0  0  0  0  0  0  0  0  0
   59.1560   31.4110   46.4920 C   0  0  0  0  0  0  0  0  0  0  0  0
   58.4520   30.2350   46.2170 C   0  0  0  0  0  0  0  0  0  0  0  0
   57.5630   26.7200   45.7100 C   0  0  2  0  0  0  0  0  0  0  0  0
   58.4750   25.5560   45.2470 C   0  0  0  0  0  0  0  0  0  0  0  0
   57.7670   24.4940   44.4510 C   0  0  0  0  0  0  0  0  0  0  0  0
   57.1490   24.6510   43.2130 C   0  0  0  0  0  0  0  0  0  0  0  0
   56.6280   23.4750   42.7910 N   0  0  0  0  0  0  0  0  0  0  0  0
   56.9090   22.5790   43.7520 C   0  0  0  0  0  0  0  0  0  0  0  0
   56.5790   21.2240   43.7640 C   0  0  0  0  0  0  0  0  0  0  0  0
   56.9840   20.4580   44.8740 C   0  0  0  0  0  0  0  0  0  0  0  0
   57.7000   21.0570   45.9330 C   0  0  0  0  0  0  0  0  0  0  0  0
   58.0120   22.4280   45.8970 C   0  0  0  0  0  0  0  0  0  0  0  0
   57.6010   23.1610   44.7840 C   0  0  0  0  0  0  0  0  0  0  0  0
   56.2290   26.2770   46.2680 C   0  0  0  0  0  0  0  0  0  0  0  0
   55.1480   26.7160   45.7950 O   0  0  0  0  0  0  0  0  0  0  0  0
   56.1860   25.2950   47.2490 O   0  0  0  0  0  0  0  0  0  0  0  0
   59.1518   27.3912   43.5098 H   0  0  0  0  0  0  0  0  0  0  0  0
   57.6307   26.7775   42.7774 H   0  0  0  0  0  0  0  0  0  0  0  0
   57.9805   28.5394   42.7774 H   0  0  0  0  0  0  0  0  0  0  0  0
   56.3377   31.4177   43.8028 H   0  0  0  0  0  0  0  0  0  0  0  0
   57.6043   33.5078   44.2822 H   0  0  0  0  0  0  0  0  0  0  0  0
   62.4008   33.3906   45.6590 H   0  0  0  0  0  0  0  0  0  0  0  0
   64.6566   32.8005   46.8229 H   0  0  0  0  0  0  0  0  0  0  0  0
   64.5616   33.0551   49.4441 H   0  0  0  0  0  0  0  0  0  0  0  0
   59.9255   31.4183   47.2780 H   0  0  0  0  0  0  0  0  0  0  0  0
   58.6797   29.3169   46.7784 H   0  0  0  0  0  0  0  0  0  0  0  0
   58.0857   27.1870   46.5578 H   0  0  0  0  0  0  0  0  0  0  0  0
   59.2789   25.9750   44.6240 H   0  0  0  0  0  0  0  0  0  0  0  0
   58.8508   25.0684   46.1586 H   0  0  0  0  0  0  0  0  0  0  0  0
   57.0922   25.5979   42.6561 H   0  0  0  0  0  0  0  0  0  0  0  0
   56.1130   23.3040   41.8990 H   0  0  0  0  0  0  0  0  0  0  0  0
   56.0204   20.7683   42.9332 H   0  0  0  0  0  0  0  0  0  0  0  0
   56.7409   19.3860   44.9162 H   0  0  0  0  0  0  0  0  0  0  0  0
   58.0161   20.4473   46.7923 H   0  0  0  0  0  0  0  0  0  0  0  0
   58.5625   22.9067   46.7203 H   0  0  0  0  0  0  0  0  0  0  0  0
  1  2  1  0
  2  3  1  0
  3  4  2  0
  3  5  1  0
  5  6  2  0
  6  7  1  0
  7  8  2  0
  8  9  1  0
  9 10  1  0
 10 11  2  0
 10 12  1  0
 12 13  2  0
 13 14  1  0
 14 15  2  0
 15 16  1  0
  8 17  1  0
 17 18  2  0
  2 19  1  0
 19 20  1  0
 20 21  1  0
 21 22  2  0
 22 23  1  0
 23 24  1  0
 24 25  2  0
 25 26  1  0
 26 27  2  0
 27 28  1  0
 28 29  2  0
 19 30  1  0
 30 31  2  0
 30 32  1  0
 18  5  1  0
 29 21  1  0
 16 12  1  0
 29 24  1  0
  1 33  1  0
  1 34  1  0
  1 35  1  0
  6 36  1  0
  7 37  1  0
 13 38  1  0
 14 39  1  0
 15 40  1  0
 17 41  1  0
 18 42  1  0
 19 43  1  1
 20 44  1  0
 20 45  1  0
 22 46  1  0
 23 47  1  0
 25 48  1  0
 26 49  1  0
 27 50  1  0
 28 51  1  0
M  CHG  2   9  -1  32  -1
M  END
>  <UniqueID>  (30) 
30

>  <SMILES>  (30) 
CN(C(=O)c1ccc([N-]C(=O)c2cccs2)cc1)[C@H](Cc1c[nH]c2ccccc12)C(=O)[O-]

>  <Energy>  (30) 
124.03277628504273

>  <Genealogy>  (30) 
CN(C(=O)c1ccc([N-]C(=O)c2cccs2)cc1)C(Cc1c[nH]c2ccccc12)C(=O)[O-] (protonated)
CN(C(=O)c1ccc([N-]C(=O)c2cccs2)cc1)[C@H](Cc1c[nH]c2ccccc12)C(=O)[O-] (chirality)
CN(C(=O)c1ccc([N-]C(=O)c2cccs2)cc1)[C@H](Cc1c[nH]c2ccccc12)C(=O)[O-] (3D coordinates assigned)
CN(C(=O)c1ccc([N-]C(=O)c2cccs2)cc1)[C@H](Cc1c[nH]c2ccccc12)C(=O)[O-] (optimized conformer: 124.03277628504273 kcal/mol)

>  <smiles>  (30) 
CN(C(=O)c1ccc(NC(=O)c2cccs2)cc1)C(Cc1c[nH]c2ccccc12)C(=O)O

>  <score_type>  (30) 
oracle

>  <origin>  (30) 
adg

>  <m_score__min__energy>  (30) 
-13.56

>  <m_primary>  (30) 
energy

$$$$
30:0
     RDKit          3D

 40 42  0  0  0  0  0  0  0  0999 V2000
   57.0450   31.1030   42.9720 C   0  0  0  0  0  0  0  0  0  0  0  0
   56.6550   29.8650   43.7850 C   0  0  0  0  0  0  0  0  0  0  0  0
   57.5420   28.7180   43.5210 N   0  0  0  0  0  0  0  0  0  0  0  0
   58.3710   28.4140   44.6640 C   0  0  0  0  0  0  0  0  0  0  0  0
   58.8830   27.1180   44.8450 C   0  0  0  0  0  0  0  0  0  0  0  0
   59.6610   26.8150   45.9660 C   0  0  0  0  0  0  0  0  0  0  0  0
   59.9360   27.8020   46.9160 C   0  0  0  0  0  0  0  0  0  0  0  0
   59.4390   29.1010   46.7450 C   0  0  0  0  0  0  0  0  0  0  0  0
   59.7510   30.3420   47.9560 S   0  0  0  0  0  0  0  0  0  0  0  0
   60.8850   29.9010   48.8380 O   0  0  0  0  0  0  0  0  0  0  0  0
   58.5220   30.5400   48.7990 O   0  0  0  0  0  0  0  0  0  0  0  0
   60.1640   31.8330   47.1750 N   0  0  0  0  0  0  0  0  0  0  0  0
   61.4910   32.4420   47.1890 C   0  0  0  0  0  0  0  0  0  0  0  0
   61.3610   33.7560   46.3770 C   0  0  0  0  0  0  0  0  0  0  0  0
   59.9210   33.7810   45.9910 C   0  0  0  0  0  0  0  0  0  0  0  0
   59.2430   34.7560   45.2560 C   0  0  0  0  0  0  0  0  0  0  0  0
   57.8720   34.5740   45.0090 C   0  0  0  0  0  0  0  0  0  0  0  0
   57.2080   33.4320   45.4970 C   0  0  0  0  0  0  0  0  0  0  0  0
   57.9130   32.4650   46.2330 C   0  0  0  0  0  0  0  0  0  0  0  0
   59.2760   32.6710   46.4620 C   0  0  0  0  0  0  0  0  0  0  0  0
   58.6540   29.4020   45.6240 C   0  0  0  0  0  0  0  0  0  0  0  0
   57.3038   31.9245   43.6563 H   0  0  0  0  0  0  0  0  0  0  0  0
   57.9123   30.8670   42.3379 H   0  0  0  0  0  0  0  0  0  0  0  0
   56.1990   31.4067   42.3379 H   0  0  0  0  0  0  0  0  0  0  0  0
   56.7081   30.1139   44.8552 H   0  0  0  0  0  0  0  0  0  0  0  0
   55.6357   29.5763   43.4888 H   0  0  0  0  0  0  0  0  0  0  0  0
   56.9520   27.8830   43.3000 H   0  0  0  0  0  0  0  0  0  0  0  0
   58.1300   28.9100   42.6760 H   0  0  0  0  0  0  0  0  0  0  0  0
   58.6702   26.3372   44.1000 H   0  0  0  0  0  0  0  0  0  0  0  0
   60.0574   25.7978   46.1005 H   0  0  0  0  0  0  0  0  0  0  0  0
   60.5439   27.5588   47.7999 H   0  0  0  0  0  0  0  0  0  0  0  0
   61.8021   32.6589   48.2216 H   0  0  0  0  0  0  0  0  0  0  0  0
   62.2486   31.7720   46.7565 H   0  0  0  0  0  0  0  0  0  0  0  0
   61.6181   34.6284   46.9957 H   0  0  0  0  0  0  0  0  0  0  0  0
   62.0389   33.7956   45.5116 H   0  0  0  0  0  0  0  0  0  0  0  0
   59.7699   35.6452   44.8795 H   0  0  0  0  0  0  0  0  0  0  0  0
   57.3148   35.3267   44.4320 H   0  0  0  0  0  0  0  0  0  0  0  0
   56.1340   33.2967   45.3013 H   0  0  0  0  0  0  0  0  0  0  0  0
   57.4052   31.5689   46.6190 H   0  0  0  0  0  0  0  0  0  0  0  0
   58.2559   30.4192   45.4938 H   0  0  0  0  0  0  0  0  0  0  0  0
  1  2  1  0
  2  3  1  0
  3  4  1  0
  4  5  2  0
  5  6  1  0
  6  7  2  0
  7  8  1  0
  8  9  1  0
  9 10  2  0
  9 11  2  0
  9 12  1  0
 12 13  1  0
 13 14  1  0
 14 15  1  0
 15 16  2  0
 16 17  1  0
 17 18  2  0
 18 19  1  0
 19 20  2  0
  8 21  2  0
 21  4  1  0
 20 12  1  0
 20 15  1  0
  1 22  1  0
  1 23  1  0
  1 24  1  0
  2 25  1  0
  2 26  1  0
  3 27  1  0
  3 28  1  0
  5 29  1  0
  6 30  1  0
  7 31  1  0
 13 32  1  0
 13 33  1  0
 14 34  1  0
 14 35  1  0
 16 36  1  0
 17 37  1  0
 18 38  1  0
 19 39  1  0
 21 40  1  0
M  CHG  1   3   1
M  END
>  <UniqueID>  (31) 
31

>  <SMILES>  (31) 
CC[NH2+]c1cccc(S(=O)(=O)N2CCc3ccccc32)c1

>  <Energy>  (31) 
55.90814635092621

>  <Genealogy>  (31) 
CC[NH2+]c1cccc(S(=O)(=O)N2CCc3ccccc32)c1 (protonated)
CC[NH2+]c1cccc(S(=O)(=O)N2CCc3ccccc32)c1 (3D coordinates assigned)
CC[NH2+]c1cccc(S(=O)(=O)N2CCc3ccccc32)c1 (nonaromatic ring conformer: 55.90814635092621 kcal/mol)

>  <smiles>  (31) 
CCNc1cccc(S(=O)(=O)N2CCc3ccccc32)c1

>  <score_type>  (31) 
oracle

>  <origin>  (31) 
adg

>  <m_score__min__energy>  (31) 
-7.0499999999999998

>  <m_primary>  (31) 
energy

$$$$
31:0
     RDKit          3D

 35 36  0  0  0  0  0  0  0  0999 V2000
   55.3470   22.9850   44.8500 N   0  0  0  0  0  0  0  0  0  0  0  0
   56.2880   22.5310   43.8810 C   0  0  0  0  0  0  0  0  0  0  0  0
   55.8960   21.8400   42.9030 O   0  0  0  0  0  0  0  0  0  0  0  0
   57.6700   22.8590   44.0280 N   0  0  0  0  0  0  0  0  0  0  0  0
   58.2950   23.6370   45.4430 S   0  0  0  0  0  0  0  0  0  0  0  0
   59.7510   23.2980   45.5930 O   0  0  0  0  0  0  0  0  0  0  0  0
   57.5460   23.1350   46.6460 O   0  0  0  0  0  0  0  0  0  0  0  0
   58.1240   25.3830   45.2950 C   0  0  0  0  0  0  0  0  0  0  0  0
   57.9220   25.9720   44.0380 C   0  0  0  0  0  0  0  0  0  0  0  0
   57.7850   27.3600   43.9260 C   0  0  0  0  0  0  0  0  0  0  0  0
   57.8450   28.1650   45.0700 C   0  0  0  0  0  0  0  0  0  0  0  0
   57.7070   29.5940   44.9550 C   0  0  0  0  0  0  0  0  0  0  0  0
   57.5940   30.7890   44.8540 C   0  0  0  0  0  0  0  0  0  0  0  0
   57.4610   32.2200   44.7330 C   0  0  0  0  0  0  0  0  0  0  0  0
   58.1430   33.1090   45.4820 C   0  0  0  0  0  0  0  0  0  0  0  0
   58.4460   34.4650   44.8750 C   0  0  0  0  0  0  0  0  0  0  0  0
   59.5580   35.2220   45.5590 C   0  0  0  0  0  0  0  0  0  0  0  0
   59.9850   34.9450   46.7940 C   0  0  0  0  0  0  0  0  0  0  0  0
   59.4660   33.7960   47.5430 C   0  0  0  0  0  0  0  0  0  0  0  0
   59.8300   33.6100   48.7360 O   0  0  0  0  0  0  0  0  0  0  0  0
   58.5430   32.8590   46.8940 C   0  0  0  0  0  0  0  0  0  0  0  0
   58.1050   31.8710   47.5450 O   0  0  0  0  0  0  0  0  0  0  0  0
   58.0400   27.5790   46.3260 C   0  0  0  0  0  0  0  0  0  0  0  0
   58.1760   26.1930   46.4380 C   0  0  0  0  0  0  0  0  0  0  0  0
   55.6630   23.5570   45.6630 H   0  0  0  0  0  0  0  0  0  0  0  0
   54.3330   22.7500   44.7540 H   0  0  0  0  0  0  0  0  0  0  0  0
   57.8712   25.3412   43.1383 H   0  0  0  0  0  0  0  0  0  0  0  0
   57.6300   27.8191   42.9385 H   0  0  0  0  0  0  0  0  0  0  0  0
   56.7585   32.6105   43.9820 H   0  0  0  0  0  0  0  0  0  0  0  0
   58.7291   34.3150   43.8227 H   0  0  0  0  0  0  0  0  0  0  0  0
   57.5358   35.0713   44.9931 H   0  0  0  0  0  0  0  0  0  0  0  0
   60.0420   36.0446   45.0122 H   0  0  0  0  0  0  0  0  0  0  0  0
   60.7424   35.5929   47.2593 H   0  0  0  0  0  0  0  0  0  0  0  0
   58.0862   28.2102   47.2257 H   0  0  0  0  0  0  0  0  0  0  0  0
   58.3245   25.7354   47.4272 H   0  0  0  0  0  0  0  0  0  0  0  0
  1  2  1  0
  2  3  2  0
  2  4  1  0
  4  5  1  0
  5  6  2  0
  5  7  2  0
  5  8  1  0
  8  9  2  0
  9 10  1  0
 10 11  2  0
 11 12  1  0
 12 13  3  0
 13 14  1  0
 14 15  2  3
 15 16  1  0
 16 17  1  0
 17 18  2  0
 18 19  1  0
 19 20  2  0
 19 21  1  0
 21 22  2  0
 11 23  1  0
 23 24  2  0
 24  8  1  0
 21 15  1  0
  1 25  1  0
  1 26  1  0
  9 27  1  0
 10 28  1  0
 14 29  1  0
 16 30  1  0
 16 31  1  0
 17 32  1  0
 18 33  1  0
 23 34  1  0
 24 35  1  0
M  CHG  1   4  -1
M  END
>  <UniqueID>  (32) 
32

>  <SMILES>  (32) 
NC(=O)[N-]S(=O)(=O)c1ccc(C#CC=C2CC=CC(=O)C2=O)cc1

>  <Energy>  (32) 
34.383075393706925

>  <Genealogy>  (32) 
NC(=O)[N-]S(=O)(=O)c1ccc(C#CC=C2CC=CC(=O)C2=O)cc1 (protonated)
NC(=O)[N-]S(=O)(=O)c1ccc(C#CC=C2CC=CC(=O)C2=O)cc1 (3D coordinates assigned)
NC(=O)[N-]S(=O)(=O)c1ccc(C#CC=C2CC=CC(=O)C2=O)cc1 (nonaromatic ring conformer: 34.383075393706925 kcal/mol)

>  <smiles>  (32) 
NC(=O)NS(=O)(=O)c1ccc(C#CC=C2CC=CC(=O)C2=O)cc1

>  <score_type>  (32) 
oracle

>  <origin>  (32) 
adg

>  <m_score__min__energy>  (32) 
-9.7100000000000009

>  <m_primary>  (32) 
energy

$$$$
32:0
     RDKit          3D

 61 64  0  0  0  0  0  0  0  0999 V2000
   55.8160   29.3210   53.3560 C   0  0  0  0  0  0  0  0  0  0  0  0
   56.5380   30.3980   52.6020 C   0  0  0  0  0  0  0  0  0  0  0  0
   55.9620   31.5090   52.4420 O   0  0  0  0  0  0  0  0  0  0  0  0
   57.8550   30.1770   52.0490 N   0  0  0  0  0  0  0  0  0  0  0  0
   58.4590   31.1630   51.1400 C   0  0  0  0  0  0  0  0  0  0  0  0
   59.0080   30.4550   49.8960 C   0  0  0  0  0  0  0  0  0  0  0  0
   59.7320   29.2170   50.2400 N   0  0  0  0  0  0  0  0  0  0  0  0
   60.1060   28.2790   49.2030 C   0  0  0  0  0  0  0  0  0  0  0  0
   60.8010   27.2630   49.4820 O   0  0  0  0  0  0  0  0  0  0  0  0
   59.6210   28.4340   47.8200 C   0  0  0  0  0  0  0  0  0  0  0  0
   58.4280   27.8110   47.4330 C   0  0  0  0  0  0  0  0  0  0  0  0
   57.8790   28.0650   46.1740 C   0  0  0  0  0  0  0  0  0  0  0  0
   58.5290   28.9310   45.2820 C   0  0  0  0  0  0  0  0  0  0  0  0
   57.9380   29.2610   44.0210 N   0  0  0  0  0  0  0  0  0  0  0  0
   56.8950   30.6370   43.8650 S   0  0  0  0  0  0  0  0  0  0  0  0
   56.6670   30.9100   42.4040 O   0  0  0  0  0  0  0  0  0  0  0  0
   55.5620   30.3680   44.5060 O   0  0  0  0  0  0  0  0  0  0  0  0
   57.6520   32.0320   44.6320 C   0  0  0  0  0  0  0  0  0  0  0  0
   58.0940   33.1140   43.8560 C   0  0  0  0  0  0  0  0  0  0  0  0
   58.6790   34.2250   44.4680 C   0  0  0  0  0  0  0  0  0  0  0  0
   58.8310   34.2600   45.8560 C   0  0  0  0  0  0  0  0  0  0  0  0
   58.4160   33.1740   46.6440 C   0  0  0  0  0  0  0  0  0  0  0  0
   58.5450   33.2420   48.1420 C   0  0  0  0  0  0  0  0  0  0  0  0
   59.8810   32.8130   48.5460 N   0  0  0  0  0  0  0  0  0  0  0  0
   60.7180   33.4910   49.4930 C   0  0  0  0  0  0  0  0  0  0  0  0
   60.1750   34.2030   50.3790 O   0  0  0  0  0  0  0  0  0  0  0  0
   62.1880   33.4070   49.4420 C   0  0  0  0  0  0  0  0  0  0  0  0
   62.9350   33.0060   48.3500 C   0  0  0  0  0  0  0  0  0  0  0  0
   64.2490   33.0530   48.7610 C   0  0  0  0  0  0  0  0  0  0  0  0
   64.2240   33.4690   50.0760 C   0  0  0  0  0  0  0  0  0  0  0  0
   62.9840   33.6720   50.4530 O   0  0  0  0  0  0  0  0  0  0  0  0
   57.8200   32.0620   46.0250 C   0  0  0  0  0  0  0  0  0  0  0  0
   59.7630   29.4900   45.6400 C   0  0  0  0  0  0  0  0  0  0  0  0
   60.3040   29.2480   46.9050 C   0  0  0  0  0  0  0  0  0  0  0  0
   59.9560   28.8980   51.6590 C   0  0  0  0  0  0  0  0  0  0  0  0
   58.6260   28.9780   52.4230 C   0  0  0  0  0  0  0  0  0  0  0  0
   55.9298   29.4908   54.4368 H   0  0  0  0  0  0  0  0  0  0  0  0
   54.7483   29.3413   53.0921 H   0  0  0  0  0  0  0  0  0  0  0  0
   56.2404   28.3411   53.0921 H   0  0  0  0  0  0  0  0  0  0  0  0
   57.6962   31.8952   50.8366 H   0  0  0  0  0  0  0  0  0  0  0  0
   59.2819   31.6777   51.6576 H   0  0  0  0  0  0  0  0  0  0  0  0
   58.1686   30.2026   49.2314 H   0  0  0  0  0  0  0  0  0  0  0  0
   59.7157   31.1365   49.4014 H   0  0  0  0  0  0  0  0  0  0  0  0
   57.9217   27.1195   48.1226 H   0  0  0  0  0  0  0  0  0  0  0  0
   56.9339   27.5844   45.8810 H   0  0  0  0  0  0  0  0  0  0  0  0
   58.4080   28.9280   43.1490 H   0  0  0  0  0  0  0  0  0  0  0  0
   57.9795   33.0874   42.7623 H   0  0  0  0  0  0  0  0  0  0  0  0
   59.0203   35.0731   43.8563 H   0  0  0  0  0  0  0  0  0  0  0  0
   59.2784   35.1435   46.3348 H   0  0  0  0  0  0  0  0  0  0  0  0
   58.3777   34.2767   48.4758 H   0  0  0  0  0  0  0  0  0  0  0  0
   57.7974   32.5778   48.6003 H   0  0  0  0  0  0  0  0  0  0  0  0
   62.5586   32.7109   47.3594 H   0  0  0  0  0  0  0  0  0  0  0  0
   65.1384   32.8083   48.1617 H   0  0  0  0  0  0  0  0  0  0  0  0
   65.1101   33.6093   50.7125 H   0  0  0  0  0  0  0  0  0  0  0  0
   57.4835   31.2109   46.6353 H   0  0  0  0  0  0  0  0  0  0  0  0
   60.3075   30.1215   44.9226 H   0  0  0  0  0  0  0  0  0  0  0  0
   61.2685   29.6973   47.1841 H   0  0  0  0  0  0  0  0  0  0  0  0
   60.3666   27.8811   51.7449 H   0  0  0  0  0  0  0  0  0  0  0  0
   60.6665   29.6203   52.0873 H   0  0  0  0  0  0  0  0  0  0  0  0
   58.0283   28.0836   52.1932 H   0  0  0  0  0  0  0  0  0  0  0  0
   58.8506   29.0358   53.4983 H   0  0  0  0  0  0  0  0  0  0  0  0
  1  2  1  0
  2  3  2  0
  2  4  1  0
  4  5  1  0
  5  6  1  0
  6  7  1  0
  7  8  1  0
  8  9  2  0
  8 10  1  0
 10 11  2  0
 11 12  1  0
 12 13  2  0
 13 14  1  0
 14 15  1  0
 15 16  2  0
 15 17  2  0
 15 18  1  0
 18 19  2  0
 19 20  1  0
 20 21  2  0
 21 22  1  0
 22 23  1  0
 23 24  1  0
 24 25  1  0
 25 26  2  0
 25 27  1  0
 27 28  2  0
 28 29  1  0
 29 30  2  0
 30 31  1  0
 22 32  2  0
 13 33  1  0
 33 34  2  0
  7 35  1  0
 35 36  1  0
 36  4  1  0
 34 10  1  0
 32 18  1  0
 31 27  1  0
  1 37  1  0
  1 38  1  0
  1 39  1  0
  5 40  1  0
  5 41  1  0
  6 42  1  0
  6 43  1  0
 11 44  1  0
 12 45  1  0
 14 46  1  0
 19 47  1  0
 20 48  1  0
 21 49  1  0
 23 50  1  0
 23 51  1  0
 28 52  1  0
 29 53  1  0
 30 54  1  0
 32 55  1  0
 33 56  1  0
 34 57  1  0
 35 58  1  0
 35 59  1  0
 36 60  1  0
 36 61  1  0
M  CHG  1  24  -1
M  END
>  <UniqueID>  (33) 
33

>  <SMILES>  (33) 
CC(=O)N1CCN(C(=O)c2ccc(NS(=O)(=O)c3cccc(C[N-]C(=O)c4ccco4)c3)cc2)CC1

>  <Energy>  (33) 
95.54874847062304

>  <Genealogy>  (33) 
CC(=O)N1CCN(C(=O)c2ccc(NS(=O)(=O)c3cccc(C[N-]C(=O)c4ccco4)c3)cc2)CC1 (protonated)
CC(=O)N1CCN(C(=O)c2ccc(NS(=O)(=O)c3cccc(C[N-]C(=O)c4ccco4)c3)cc2)CC1 (3D coordinates assigned)
CC(=O)N1CCN(C(=O)c2ccc(NS(=O)(=O)c3cccc(C[N-]C(=O)c4ccco4)c3)cc2)CC1 (nonaromatic ring conformer: 95.54874847062304 kcal/mol)

>  <smiles>  (33) 
CC(=O)N1CCN(C(=O)c2ccc(NS(=O)(=O)c3cccc(CNC(=O)c4ccco4)c3)cc2)CC1

>  <score_type>  (33) 
oracle

>  <origin>  (33) 
adg

>  <m_score__min__energy>  (33) 
-12.359999999999999

>  <m_primary>  (33) 
energy

$$$$
33:0
     RDKit          3D

 52 55  0  0  0  0  0  0  0  0999 V2000
   60.0930   25.7050   46.3360 C   0  0  0  0  0  0  0  0  0  0  0  0
   60.2870   26.8600   47.2600 C   0  0  0  0  0  0  0  0  0  0  0  0
   60.3030   28.1920   46.8960 C   0  0  0  0  0  0  0  0  0  0  0  0
   60.4400   28.8720   48.0920 C   0  0  0  0  0  0  0  0  0  0  0  0
   60.5020   30.3430   48.2510 C   0  0  0  0  0  0  0  0  0  0  0  0
   61.5750   30.8810   48.6300 O   0  0  0  0  0  0  0  0  0  0  0  0
   59.3540   31.1770   48.0420 N   0  0  0  0  0  0  0  0  0  0  0  0
   58.7310   31.4570   46.7800 C   0  0  0  0  0  0  0  0  0  0  0  0
   57.8330   30.5150   46.2650 C   0  0  0  0  0  0  0  0  0  0  0  0
   57.2210   30.7090   45.0180 C   0  0  0  0  0  0  0  0  0  0  0  0
   56.3040   29.6800   44.4800 C   0  0  0  0  0  0  0  0  0  0  0  0
   55.8760   29.7980   43.3010 O   0  0  0  0  0  0  0  0  0  0  0  0
   55.9060   28.5350   45.2430 N   0  0  0  0  0  0  0  0  0  0  0  0
   56.8310   27.6150   45.8930 C   0  0  0  0  0  0  0  0  0  0  0  0
   56.3460   26.1780   45.9310 C   0  0  0  0  0  0  0  0  0  0  0  0
   57.4050   26.5960   44.9250 C   0  0  0  0  0  0  0  0  0  0  0  0
   57.5340   31.8550   44.2750 C   0  0  0  0  0  0  0  0  0  0  0  0
   58.4000   32.8190   44.7940 C   0  0  0  0  0  0  0  0  0  0  0  0
   58.9930   32.6460   46.0550 C   0  0  0  0  0  0  0  0  0  0  0  0
   59.8060   33.6980   46.6080 N   0  0  0  0  0  0  0  0  0  0  0  0
   59.3380   34.4980   47.7480 C   0  0  0  0  0  0  0  0  0  0  0  0
   60.1810   34.1930   48.9920 C   0  0  0  0  0  0  0  0  0  0  0  0
   61.6440   34.2100   48.6430 C   0  0  0  0  0  0  0  0  0  0  0  0
   62.4490   34.7410   49.3920 O   0  0  0  0  0  0  0  0  0  0  0  0
   62.1170   33.4870   47.4110 C   0  0  0  0  0  0  0  0  0  0  0  0
   61.2160   33.8290   46.2220 C   0  0  0  0  0  0  0  0  0  0  0  0
   60.4800   27.9660   49.0960 N   0  0  0  0  0  0  0  0  0  0  0  0
   60.6130   28.2350   50.5240 C   0  0  0  0  0  0  0  0  0  0  0  0
   60.3790   26.7430   48.5990 N   0  0  0  0  0  0  0  0  0  0  0  0
   59.9389   24.7876   46.9231 H   0  0  0  0  0  0  0  0  0  0  0  0
   59.2128   25.8866   45.7018 H   0  0  0  0  0  0  0  0  0  0  0  0
   60.9843   25.5891   45.7018 H   0  0  0  0  0  0  0  0  0  0  0  0
   60.2245   28.6159   45.8840 H   0  0  0  0  0  0  0  0  0  0  0  0
   57.6040   29.6097   46.8464 H   0  0  0  0  0  0  0  0  0  0  0  0
   57.2379   28.3120   46.6404 H   0  0  0  0  0  0  0  0  0  0  0  0
   56.6165   25.5284   46.7765 H   0  0  0  0  0  0  0  0  0  0  0  0
   55.3639   25.6866   45.8677 H   0  0  0  0  0  0  0  0  0  0  0  0
   58.4424   26.2494   45.0421 H   0  0  0  0  0  0  0  0  0  0  0  0
   57.5077   26.5330   43.8316 H   0  0  0  0  0  0  0  0  0  0  0  0
   57.0946   31.9959   43.2765 H   0  0  0  0  0  0  0  0  0  0  0  0
   58.6203   33.7240   44.2088 H   0  0  0  0  0  0  0  0  0  0  0  0
   59.4264   35.5666   47.5024 H   0  0  0  0  0  0  0  0  0  0  0  0
   58.2878   34.2456   47.9560 H   0  0  0  0  0  0  0  0  0  0  0  0
   59.9819   34.9533   49.7616 H   0  0  0  0  0  0  0  0  0  0  0  0
   59.9135   33.1960   49.3721 H   0  0  0  0  0  0  0  0  0  0  0  0
   63.1495   33.7913   47.1844 H   0  0  0  0  0  0  0  0  0  0  0  0
   62.0776   32.4028   47.5924 H   0  0  0  0  0  0  0  0  0  0  0  0
   61.4117   34.8631   45.9020 H   0  0  0  0  0  0  0  0  0  0  0  0
   61.4303   33.1362   45.3949 H   0  0  0  0  0  0  0  0  0  0  0  0
   60.1966   27.3928   51.0961 H   0  0  0  0  0  0  0  0  0  0  0  0
   61.6764   28.3594   50.7762 H   0  0  0  0  0  0  0  0  0  0  0  0
   60.0662   29.1556   50.7762 H   0  0  0  0  0  0  0  0  0  0  0  0
  1  2  1  0
  2  3  1  0
  3  4  2  0
  4  5  1  0
  5  6  2  0
  5  7  1  0
  7  8  1  0
  8  9  2  0
  9 10  1  0
 10 11  1  0
 11 12  2  0
 11 13  1  0
 13 14  1  0
 14 15  1  0
 15 16  1  0
 10 17  2  0
 17 18  1  0
 18 19  2  0
 19 20  1  0
 20 21  1  0
 21 22  1  0
 22 23  1  0
 23 24  2  0
 23 25  1  0
 25 26  1  0
  4 27  1  0
 27 28  1  0
 27 29  1  0
 29  2  2  0
 19  8  1  0
 26 20  1  0
 16 14  1  0
  1 30  1  0
  1 31  1  0
  1 32  1  0
  3 33  1  0
  9 34  1  0
 14 35  1  0
 15 36  1  0
 15 37  1  0
 16 38  1  0
 16 39  1  0
 17 40  1  0
 18 41  1  0
 21 42  1  0
 21 43  1  0
 22 44  1  0
 22 45  1  0
 25 46  1  0
 25 47  1  0
 26 48  1  0
 26 49  1  0
 28 50  1  0
 28 51  1  0
 28 52  1  0
M  CHG  2   7  -1  13  -1
M  END
>  <UniqueID>  (34) 
34

>  <SMILES>  (34) 
Cc1cc(C(=O)[N-]c2cc(C(=O)[N-]C3CC3)ccc2N2CCC(=O)CC2)n(C)n1

>  <Energy>  (34) 
357.85555236500244

>  <Genealogy>  (34) 
Cc1cc(C(=O)[N-]c2cc(C(=O)[N-]C3CC3)ccc2N2CCC(=O)CC2)n(C)n1 (protonated)
Cc1cc(C(=O)[N-]c2cc(C(=O)[N-]C3CC3)ccc2N2CCC(=O)CC2)n(C)n1 (3D coordinates assigned)
Cc1cc(C(=O)[N-]c2cc(C(=O)[N-]C3CC3)ccc2N2CCC(=O)CC2)n(C)n1 (nonaromatic ring conformer: 357.85555236500244 kcal/mol)

>  <smiles>  (34) 
Cc1cc(C(=O)Nc2cc(C(=O)NC3CC3)ccc2N2CCC(=O)CC2)n(C)n1

>  <score_type>  (34) 
oracle

>  <origin>  (34) 
adg

>  <m_score__min__energy>  (34) 
-11.539999999999999

>  <m_primary>  (34) 
energy

$$$$
34:0
     RDKit          3D

 45 47  0  0  0  0  0  0  0  0999 V2000
   57.0530   34.4660   44.9030 C   0  0  0  0  0  0  0  0  0  0  0  0
   57.6990   33.3100   45.6070 C   0  0  0  0  0  0  0  0  0  0  0  0
   57.9170   33.3580   46.9920 C   0  0  0  0  0  0  0  0  0  0  0  0
   58.4910   32.2680   47.6610 C   0  0  0  0  0  0  0  0  0  0  0  0
   58.6870   32.3120   49.1470 C   0  0  0  0  0  0  0  0  0  0  0  0
   58.8130   31.1080   46.9410 C   0  0  0  0  0  0  0  0  0  0  0  0
   58.5990   31.0460   45.5550 C   0  0  0  0  0  0  0  0  0  0  0  0
   58.9440   29.7930   44.7890 C   0  0  0  0  0  0  0  0  0  0  0  0
   58.0770   28.6580   45.1980 N   0  0  0  0  0  0  0  0  0  0  0  0
   58.6160   27.4580   45.6340 C   0  0  0  0  0  0  0  0  0  0  0  0
   60.1220   27.2640   45.7140 C   0  0  0  0  0  0  0  0  0  0  0  0
   57.7530   26.4290   46.1070 C   0  0  0  0  0  0  0  0  0  0  0  0
   58.2710   25.1090   46.6600 C   0  0  0  0  0  0  0  0  0  0  0  0
   57.8350   23.9380   45.8200 C   0  0  0  0  0  0  0  0  0  0  0  0
   57.4530   24.1080   44.4790 C   0  0  0  0  0  0  0  0  0  0  0  0
   57.0360   23.0000   43.7400 C   0  0  0  0  0  0  0  0  0  0  0  0
   56.9890   21.7410   44.3390 C   0  0  0  0  0  0  0  0  0  0  0  0
   57.3600   21.6090   45.6780 C   0  0  0  0  0  0  0  0  0  0  0  0
   57.7660   22.6990   46.3830 N   0  0  0  0  0  0  0  0  0  0  0  0
   56.3680   26.6560   46.0520 C   0  0  0  0  0  0  0  0  0  0  0  0
   55.5500   25.7790   46.4400 O   0  0  0  0  0  0  0  0  0  0  0  0
   55.8930   27.8290   45.5860 N   0  0  0  0  0  0  0  0  0  0  0  0
   56.7110   28.8200   45.1700 C   0  0  0  0  0  0  0  0  0  0  0  0
   56.1910   29.8960   44.7680 O   0  0  0  0  0  0  0  0  0  0  0  0
   58.0250   32.1450   44.8970 C   0  0  0  0  0  0  0  0  0  0  0  0
   56.6576   35.1736   45.6466 H   0  0  0  0  0  0  0  0  0  0  0  0
   57.7978   34.9743   44.2730 H   0  0  0  0  0  0  0  0  0  0  0  0
   56.2298   34.0980   44.2730 H   0  0  0  0  0  0  0  0  0  0  0  0
   57.6352   34.2583   47.5577 H   0  0  0  0  0  0  0  0  0  0  0  0
   57.7321   32.0976   49.6493 H   0  0  0  0  0  0  0  0  0  0  0  0
   59.4330   31.5590   49.4409 H   0  0  0  0  0  0  0  0  0  0  0  0
   59.0396   33.3116   49.4409 H   0  0  0  0  0  0  0  0  0  0  0  0
   59.2367   30.2397   47.4668 H   0  0  0  0  0  0  0  0  0  0  0  0
   58.8065   29.9803   43.7138 H   0  0  0  0  0  0  0  0  0  0  0  0
   59.9895   29.5287   45.0058 H   0  0  0  0  0  0  0  0  0  0  0  0
   60.4310   27.2242   46.7689 H   0  0  0  0  0  0  0  0  0  0  0  0
   60.3975   26.3229   45.2155 H   0  0  0  0  0  0  0  0  0  0  0  0
   60.6270   28.1045   45.2155 H   0  0  0  0  0  0  0  0  0  0  0  0
   59.3703   25.1402   46.6832 H   0  0  0  0  0  0  0  0  0  0  0  0
   57.8564   24.9767   47.6702 H   0  0  0  0  0  0  0  0  0  0  0  0
   57.4823   25.1052   44.0156 H   0  0  0  0  0  0  0  0  0  0  0  0
   56.7446   23.1193   42.6860 H   0  0  0  0  0  0  0  0  0  0  0  0
   56.6633   20.8625   43.7627 H   0  0  0  0  0  0  0  0  0  0  0  0
   57.3240   20.6226   46.1635 H   0  0  0  0  0  0  0  0  0  0  0  0
   57.8292   32.0922   43.8158 H   0  0  0  0  0  0  0  0  0  0  0  0
  1  2  1  0
  2  3  2  0
  3  4  1  0
  4  5  1  0
  4  6  2  0
  6  7  1  0
  7  8  1  0
  8  9  1  0
  9 10  1  0
 10 11  1  0
 10 12  2  0
 12 13  1  0
 13 14  1  0
 14 15  2  0
 15 16  1  0
 16 17  2  0
 17 18  1  0
 18 19  2  0
 12 20  1  0
 20 21  2  0
 20 22  1  0
 22 23  1  0
 23 24  2  0
  7 25  2  0
 25  2  1  0
 23  9  1  0
 19 14  1  0
  1 26  1  0
  1 27  1  0
  1 28  1  0
  3 29  1  0
  5 30  1  0
  5 31  1  0
  5 32  1  0
  6 33  1  0
  8 34  1  0
  8 35  1  0
 11 36  1  0
 11 37  1  0
 11 38  1  0
 13 39  1  0
 13 40  1  0
 15 41  1  0
 16 42  1  0
 17 43  1  0
 18 44  1  0
 25 45  1  0
M  CHG  1  22  -1
M  END
>  <UniqueID>  (35) 
35

>  <SMILES>  (35) 
Cc1cc(C)cc(Cn2c(C)c(Cc3ccccn3)c(=O)[n-]c2=O)c1

>  <Energy>  (35) 
55.91890477151105

>  <Genealogy>  (35) 
Cc1cc(C)cc(Cn2c(C)c(Cc3ccccn3)c(=O)[n-]c2=O)c1 (protonated)
Cc1cc(C)cc(Cn2c(C)c(Cc3ccccn3)c(=O)[n-]c2=O)c1 (3D coordinates assigned)
Cc1cc(C)cc(Cn2c(C)c(Cc3ccccn3)c(=O)[n-]c2=O)c1 (optimized conformer: 55.91890477151105 kcal/mol)

>  <smiles>  (35) 
Cc1cc(C)cc(Cn2c(C)c(Cc3ccccn3)c(=O)[nH]c2=O)c1

>  <score_type>  (35) 
oracle

>  <origin>  (35) 
adg

>  <m_score__min__energy>  (35) 
-10.35

>  <m_primary>  (35) 
energy

$$$$
35:0
     RDKit          3D

 53 56  0  0  0  0  0  0  0  0999 V2000
   58.8942   34.2371   45.0594 H   0  0  0  0  0  0  0  0  0  0  0  0
   58.0440   33.6180   44.7370 C   0  0  0  0  0  0  0  0  0  0  0  0
   57.2458   34.0578   44.1210 H   0  0  0  0  0  0  0  0  0  0  0  0
   57.9810   32.3340   45.0930 C   0  0  0  0  0  0  0  0  0  0  0  0
   56.9560   31.5330   44.7210 N   0  0  0  0  0  0  0  0  0  0  0  0
   57.2640   30.3270   45.2440 C   0  0  0  0  0  0  0  0  0  0  0  0
   56.4970   29.2310   45.1550 C   0  0  0  0  0  0  0  0  0  0  0  0
   55.4469   29.3583   44.8534 H   0  0  0  0  0  0  0  0  0  0  0  0
   56.9760   27.8650   45.4370 C   0  0  0  0  0  0  0  0  0  0  0  0
   58.2700   27.5020   45.2990 N   0  0  0  0  0  0  0  0  0  0  0  0
   58.2760   26.1910   45.6220 C   0  0  0  0  0  0  0  0  0  0  0  0
   59.3260   25.4940   45.6290 O   0  0  0  0  0  0  0  0  0  0  0  0
   57.0570   25.7040   45.9290 N   0  0  0  0  0  0  0  0  0  0  0  0
   56.7120   24.3530   46.3710 C   0  0  0  0  0  0  0  0  0  0  0  0
   57.3271   24.0867   47.2432 H   0  0  0  0  0  0  0  0  0  0  0  0
   55.6466   24.3227   46.6432 H   0  0  0  0  0  0  0  0  0  0  0  0
   56.9670   23.3700   45.2630 C   0  0  0  0  0  0  0  0  0  0  0  0
   58.0500   22.4780   45.3440 C   0  0  0  0  0  0  0  0  0  0  0  0
   58.7298   22.5188   46.2078 H   0  0  0  0  0  0  0  0  0  0  0  0
   58.2670   21.5380   44.3300 C   0  0  0  0  0  0  0  0  0  0  0  0
   59.1212   20.8478   44.3936 H   0  0  0  0  0  0  0  0  0  0  0  0
   57.3990   21.4760   43.2370 C   0  0  0  0  0  0  0  0  0  0  0  0
   57.5734   20.7401   42.4382 H   0  0  0  0  0  0  0  0  0  0  0  0
   56.3090   22.3480   43.1570 C   0  0  0  0  0  0  0  0  0  0  0  0
   55.4630   22.2790   42.0990 F   0  0  0  0  0  0  0  0  0  0  0  0
   56.0900   23.2900   44.1670 C   0  0  0  0  0  0  0  0  0  0  0  0
   55.2284   23.9709   44.1038 H   0  0  0  0  0  0  0  0  0  0  0  0
   56.2350   26.7580   45.8110 C   0  0  0  0  0  0  0  0  0  0  0  0
   54.8580   26.7000   45.9930 O   0  0  0  0  0  0  0  0  0  0  0  0
   58.4580   30.4280   45.9230 C   0  0  0  0  0  0  0  0  0  0  0  0
   59.0450   29.4960   46.5370 O   0  0  0  0  0  0  0  0  0  0  0  0
   58.9150   31.6910   45.8410 N   0  0  0  0  0  0  0  0  0  0  0  0
   60.1380   32.2270   46.4520 C   0  0  0  0  0  0  0  0  0  0  0  0
   60.9932   31.6057   46.1475 H   0  0  0  0  0  0  0  0  0  0  0  0
   60.2714   33.2645   46.1117 H   0  0  0  0  0  0  0  0  0  0  0  0
   60.0410   32.2270   47.9610 C   0  0  0  0  0  0  0  0  0  0  0  0
   58.7810   32.3560   48.5730 C   0  0  0  0  0  0  0  0  0  0  0  0
   57.8789   32.4482   47.9503 H   0  0  0  0  0  0  0  0  0  0  0  0
   58.6660   32.3680   49.9650 C   0  0  0  0  0  0  0  0  0  0  0  0
   57.6753   32.4628   50.4336 H   0  0  0  0  0  0  0  0  0  0  0  0
   59.8050   32.2600   50.7610 C   0  0  0  0  0  0  0  0  0  0  0  0
   59.7113   32.2669   51.8570 H   0  0  0  0  0  0  0  0  0  0  0  0
   61.0650   32.1430   50.1700 C   0  0  0  0  0  0  0  0  0  0  0  0
   61.9604   32.0620   50.8039 H   0  0  0  0  0  0  0  0  0  0  0  0
   61.1970   32.1280   48.7670 C   0  0  0  0  0  0  0  0  0  0  0  0
   62.4510   32.0140   48.1460 O   0  0  0  0  0  0  0  0  0  0  0  0
   63.4090   33.0660   48.0520 C   0  0  0  0  0  0  0  0  0  0  0  0
   63.2306   33.7970   48.8544 H   0  0  0  0  0  0  0  0  0  0  0  0
   64.4220   32.6495   48.1538 H   0  0  0  0  0  0  0  0  0  0  0  0
   63.2770   33.7530   46.7020 C   0  0  0  0  0  0  0  0  0  0  0  0
   63.0714   34.8229   46.8536 H   0  0  0  0  0  0  0  0  0  0  0  0
   64.2141   33.6360   46.1379 H   0  0  0  0  0  0  0  0  0  0  0  0
   62.4500   33.2971   46.1379 H   0  0  0  0  0  0  0  0  0  0  0  0
  1  2  1  0
  2  3  1  0
  2  4  2  0
  4  5  1  0
  5  6  1  0
  6  7  2  0
  7  8  1  0
  7  9  1  0
  9 10  1  0
 10 11  1  0
 11 12  2  0
 11 13  1  0
 13 14  1  0
 14 15  1  0
 14 16  1  0
 14 17  1  0
 17 18  2  0
 18 19  1  0
 18 20  1  0
 20 21  1  0
 20 22  2  0
 22 23  1  0
 22 24  1  0
 24 25  1  0
 24 26  2  0
 26 27  1  0
 13 28  1  0
 28 29  1  0
  6 30  1  0
 30 31  2  0
 30 32  1  0
 32 33  1  0
 33 34  1  0
 33 35  1  0
 33 36  1  0
 36 37  2  0
 37 38  1  0
 37 39  1  0
 39 40  1  0
 39 41  2  0
 41 42  1  0
 41 43  1  0
 43 44  1  0
 43 45  2  0
 45 46  1  0
 46 47  1  0
 47 48  1  0
 47 49  1  0
 47 50  1  0
 50 51  1  0
 50 52  1  0
 50 53  1  0
 32  4  1  0
 45 36  1  0
 28  9  2  0
 26 17  1  0
M  CHG  3   5  -1  10  -1  29  -1
M  END
>  <UniqueID>  (36) 
36

>  <SMILES>  (36) 
C=c1[n-]/c(=C\c2[n-]c(=O)n(Cc3cccc(F)c3)c2[O-])c(=O)n1Cc1ccccc1OCC

>  <Energy>  (36) 
120.34369945241173

>  <Genealogy>  (36) 
C=c1[n-]c(=Cc2[n-]c(=O)n(Cc3cccc(F)c3)c2[O-])c(=O)n1Cc1ccccc1OCC (protonated)
C=c1[n-]/c(=C\c2[n-]c(=O)n(Cc3cccc(F)c3)c2[O-])c(=O)n1Cc1ccccc1OCC (cis-trans isomerization)
C=c1[n-]/c(=C\c2[n-]c(=O)n(Cc3cccc(F)c3)c2[O-])c(=O)n1Cc1ccccc1OCC (3D coordinates assigned)
C=c1[n-]/c(=C\c2[n-]c(=O)n(Cc3cccc(F)c3)c2[O-])c(=O)n1Cc1ccccc1OCC (optimized conformer: 120.34369945241173 kcal/mol)

>  <smiles>  (36) 
C=c1[nH]c(=Cc2[nH]c(=O)n(Cc3cccc(F)c3)c2O)c(=O)n1Cc1ccccc1OCC

>  <score_type>  (36) 
oracle

>  <origin>  (36) 
adg

>  <m_score__min__energy>  (36) 
-14.41

>  <m_primary>  (36) 
energy

$$$$
36:0
     RDKit          3D

 39 40  0  0  0  0  0  0  0  0999 V2000
   56.2913   33.3673   45.7476 H   0  0  0  0  0  0  0  0  0  0  0  0
   57.2990   33.1410   45.3690 C   0  0  0  0  0  0  0  0  0  0  0  0
   58.3170   33.9310   45.7760 C   0  0  0  0  0  0  0  0  0  0  0  0
   58.5280   34.1240   47.2560 C   0  0  0  0  0  0  0  0  0  0  0  0
   57.8280   33.4837   47.8127 H   0  0  0  0  0  0  0  0  0  0  0  0
   59.5612   33.8519   47.5176 H   0  0  0  0  0  0  0  0  0  0  0  0
   58.3488   35.1773   47.5176 H   0  0  0  0  0  0  0  0  0  0  0  0
   59.2350   34.6210   44.7970 C   0  0  0  0  0  0  0  0  0  0  0  0
   59.9959   35.1929   45.3484 H   0  0  0  0  0  0  0  0  0  0  0  0
   59.7288   33.8686   44.1645 H   0  0  0  0  0  0  0  0  0  0  0  0
   58.6495   35.3045   44.1645 H   0  0  0  0  0  0  0  0  0  0  0  0
   57.4510   31.9690   44.4300 C   0  0  0  0  0  0  0  0  0  0  0  0
   58.1264   32.2534   43.6097 H   0  0  0  0  0  0  0  0  0  0  0  0
   56.4555   31.7047   44.0438 H   0  0  0  0  0  0  0  0  0  0  0  0
   58.0190   30.7650   45.1370 C   0  0  0  0  0  0  0  0  0  0  0  0
   59.0650   30.9090   46.0500 C   0  0  0  0  0  0  0  0  0  0  0  0
   59.4950   31.9058   46.2276 H   0  0  0  0  0  0  0  0  0  0  0  0
   59.5760   29.8040   46.7440 C   0  0  0  0  0  0  0  0  0  0  0  0
   60.6600   30.0570   47.7670 C   0  0  0  0  0  0  0  0  0  0  0  0
   60.2395   29.9589   48.7787 H   0  0  0  0  0  0  0  0  0  0  0  0
   61.4687   29.3235   47.6333 H   0  0  0  0  0  0  0  0  0  0  0  0
   61.0605   31.0727   47.6333 H   0  0  0  0  0  0  0  0  0  0  0  0
   59.0150   28.5120   46.5270 C   0  0  0  0  0  0  0  0  0  0  0  0
   59.2640   27.5230   47.4130 C   0  0  0  0  0  0  0  0  0  0  0  0
   58.8358   26.5222   47.2548 H   0  0  0  0  0  0  0  0  0  0  0  0
   59.8949   27.7185   48.2926 H   0  0  0  0  0  0  0  0  0  0  0  0
   58.0860   28.3370   45.4470 C   0  0  0  0  0  0  0  0  0  0  0  0
   57.6910   27.1390   44.9410 C   0  0  0  0  0  0  0  0  0  0  0  0
   57.7860   27.0015   43.8538 H   0  0  0  0  0  0  0  0  0  0  0  0
   57.1460   26.0040   45.7140 C   0  0  0  0  0  0  0  0  0  0  0  0
   55.8620   25.8460   46.1980 C   0  0  0  0  0  0  0  0  0  0  0  0
   54.7990   26.7160   45.9940 O   0  0  0  0  0  0  0  0  0  0  0  0
   55.7750   24.7300   46.9480 N   0  0  0  0  0  0  0  0  0  0  0  0
   57.0360   24.2460   46.9120 C   0  0  0  0  0  0  0  0  0  0  0  0
   57.3810   23.1920   47.5090 O   0  0  0  0  0  0  0  0  0  0  0  0
   57.8920   24.9960   46.1910 N   0  0  0  0  0  0  0  0  0  0  0  0
   58.9130   24.8310   46.0400 H   0  0  0  0  0  0  0  0  0  0  0  0
   57.5450   29.4850   44.8340 C   0  0  0  0  0  0  0  0  0  0  0  0
   56.7323   29.3715   44.1014 H   0  0  0  0  0  0  0  0  0  0  0  0
  1  2  1  0
  2  3  2  3
  3  4  1  0
  4  5  1  0
  4  6  1  0
  4  7  1  0
  3  8  1  0
  8  9  1  0
  8 10  1  0
  8 11  1  0
  2 12  1  0
 12 13  1  0
 12 14  1  0
 12 15  1  0
 15 16  1  0
 16 17  1  0
 16 18  2  0
 18 19  1  0
 19 20  1  0
 19 21  1  0
 19 22  1  0
 18 23  1  0
 23 24  2  0
 24 25  1  0
 24 26  1  0
 23 27  1  0
 27 28  2  0
 28 29  1  0
 28 30  1  0
 30 31  2  0
 31 32  1  0
 31 33  1  0
 33 34  1  0
 34 35  2  0
 34 36  1  0
 36 37  1  0
 27 38  1  0
 38 39  1  0
 38 15  2  0
 36 30  1  0
M  CHG  2  32  -1  33  -1
M  END
>  <UniqueID>  (37) 
37

>  <SMILES>  (37) 
C=c1c(C)cc(CC=C(C)C)c/c1=C/c1[nH]c(=O)[n-]c1[O-]

>  <Energy>  (37) 
88.9097515651982

>  <Genealogy>  (37) 
C=c1c(C)cc(CC=C(C)C)cc1=Cc1[nH]c(=O)[n-]c1[O-] (protonated)
C=c1c(C)cc(CC=C(C)C)c/c1=C/c1[nH]c(=O)[n-]c1[O-] (cis-trans isomerization)
C=c1c(C)cc(CC=C(C)C)c/c1=C/c1[nH]c(=O)[n-]c1[O-] (3D coordinates assigned)
C=c1c(C)cc(CC=C(C)C)c/c1=C/c1[nH]c(=O)[n-]c1[O-] (optimized conformer: 88.9097515651982 kcal/mol)

>  <smiles>  (37) 
C=c1c(C)cc(CC=C(C)C)cc1=Cc1[nH]c(=O)[nH]c1O

>  <score_type>  (37) 
oracle

>  <origin>  (37) 
adg

>  <m_score__min__energy>  (37) 
-13.56

>  <m_primary>  (37) 
energy

$$$$
37:0
     RDKit          3D

 43 45  0  0  0  0  0  0  0  0999 V2000
   58.9190   23.1640   45.2510 C   0  0  0  0  0  0  0  0  0  0  0  0
   57.4850   23.6280   45.1210 C   0  0  0  0  0  0  0  0  0  0  0  0
   56.5590   22.8960   44.3350 C   0  0  0  0  0  0  0  0  0  0  0  0
   57.0180   21.2870   43.3870 Br  0  0  0  0  0  0  0  0  0  0  0  0
   55.2350   23.3260   44.2250 C   0  0  0  0  0  0  0  0  0  0  0  0
   54.8050   24.4700   44.8880 C   0  0  0  0  0  0  0  0  0  0  0  0
   55.6930   25.2020   45.6800 C   0  0  0  0  0  0  0  0  0  0  0  0
   55.2410   26.3430   46.3450 O   0  0  0  0  0  0  0  0  0  0  0  0
   57.0370   24.7930   45.8090 C   0  0  0  0  0  0  0  0  0  0  0  0
   57.9570   25.6290   46.6830 C   0  0  0  0  0  0  0  0  0  0  0  0
   58.0890   26.9960   46.1400 N   0  0  0  0  0  0  0  0  0  0  0  0
   59.2940   27.6600   46.6940 C   0  0  0  0  0  0  0  0  0  0  0  0
   59.7430   28.8820   45.8670 C   0  0  0  0  0  0  0  0  0  0  0  0
   58.6440   29.3790   45.0300 N   0  0  0  0  0  0  0  0  0  0  0  0
   58.3080   30.7790   45.0000 C   0  0  0  0  0  0  0  0  0  0  0  0
   58.2110   31.5160   46.1950 C   0  0  0  0  0  0  0  0  0  0  0  0
   57.8970   32.8780   46.1610 C   0  0  0  0  0  0  0  0  0  0  0  0
   57.6830   33.5180   44.9380 C   0  0  0  0  0  0  0  0  0  0  0  0
   57.7870   32.7980   43.7460 C   0  0  0  0  0  0  0  0  0  0  0  0
   58.1000   31.4360   43.7740 C   0  0  0  0  0  0  0  0  0  0  0  0
   57.9340   28.4300   44.1610 C   0  0  0  0  0  0  0  0  0  0  0  0
   58.1100   26.9940   44.6650 C   0  0  0  0  0  0  0  0  0  0  0  0
   59.1818   23.0790   46.3158 H   0  0  0  0  0  0  0  0  0  0  0  0
   59.0325   22.1833   44.7659 H   0  0  0  0  0  0  0  0  0  0  0  0
   59.5855   23.8923   44.7659 H   0  0  0  0  0  0  0  0  0  0  0  0
   54.5258   22.7545   43.6082 H   0  0  0  0  0  0  0  0  0  0  0  0
   53.7605   24.8003   44.7884 H   0  0  0  0  0  0  0  0  0  0  0  0
   55.8830   27.0170   46.7450 H   0  0  0  0  0  0  0  0  0  0  0  0
   57.5399   25.6825   47.6995 H   0  0  0  0  0  0  0  0  0  0  0  0
   58.9509   25.1581   46.7038 H   0  0  0  0  0  0  0  0  0  0  0  0
   59.0710   27.9929   47.7184 H   0  0  0  0  0  0  0  0  0  0  0  0
   60.1139   26.9271   46.6696 H   0  0  0  0  0  0  0  0  0  0  0  0
   60.0651   29.6812   46.5507 H   0  0  0  0  0  0  0  0  0  0  0  0
   60.5739   28.5785   45.2132 H   0  0  0  0  0  0  0  0  0  0  0  0
   58.3831   31.0180   47.1606 H   0  0  0  0  0  0  0  0  0  0  0  0
   57.8183   33.4467   47.0993 H   0  0  0  0  0  0  0  0  0  0  0  0
   57.4326   34.5889   44.9138 H   0  0  0  0  0  0  0  0  0  0  0  0
   57.6223   33.3037   42.7831 H   0  0  0  0  0  0  0  0  0  0  0  0
   58.1841   30.8748   42.8317 H   0  0  0  0  0  0  0  0  0  0  0  0
   56.8629   28.6805   44.1527 H   0  0  0  0  0  0  0  0  0  0  0  0
   58.3518   28.5010   43.1459 H   0  0  0  0  0  0  0  0  0  0  0  0
   57.2898   26.3669   44.2855 H   0  0  0  0  0  0  0  0  0  0  0  0
   59.0687   26.5900   44.3078 H   0  0  0  0  0  0  0  0  0  0  0  0
  1  2  1  0
  2  3  2  0
  3  4  1  0
  3  5  1  0
  5  6  2  0
  6  7  1  0
  7  8  1  0
  7  9  2  0
  9 10  1  0
 10 11  1  0
 11 12  1  0
 12 13  1  0
 13 14  1  0
 14 15  1  0
 15 16  2  0
 16 17  1  0
 17 18  2  0
 18 19  1  0
 19 20  2  0
 14 21  1  0
 21 22  1  0
  9  2  1  0
 22 11  1  0
 20 15  1  0
  1 23  1  0
  1 24  1  0
  1 25  1  0
  5 26  1  0
  6 27  1  0
  8 28  1  0
 10 29  1  0
 10 30  1  0
 12 31  1  0
 12 32  1  0
 13 33  1  0
 13 34  1  0
 16 35  1  0
 17 36  1  0
 18 37  1  0
 19 38  1  0
 20 39  1  0
 21 40  1  0
 21 41  1  0
 22 42  1  0
 22 43  1  0
M  END
>  <UniqueID>  (38) 
38

>  <SMILES>  (38) 
Cc1c(Br)ccc(O)c1CN1CCN(c2ccccc2)CC1

>  <Energy>  (38) 
58.77693416761366

>  <Genealogy>  (38) 
Cc1c(Br)ccc(O)c1CN1CCN(c2ccccc2)CC1 (3D coordinates assigned)
Cc1c(Br)ccc(O)c1CN1CCN(c2ccccc2)CC1 (nonaromatic ring conformer: 58.77693416761366 kcal/mol)

>  <smiles>  (38) 
Cc1c(Br)ccc(O)c1CN1CCN(c2ccccc2)CC1

>  <score_type>  (38) 
oracle

>  <origin>  (38) 
adg

>  <m_score__min__energy>  (38) 
-8.6799999999999997

>  <m_primary>  (38) 
energy

$$$$
38:0
     RDKit          3D

 53 56  0  0  0  0  0  0  0  0999 V2000
   55.0530   28.5030   53.1390 C   0  0  0  0  0  0  0  0  0  0  0  0
   55.4710   29.7110   52.7290 C   0  0  0  0  0  0  0  0  0  0  0  0
   54.6880   30.8360   52.4220 C   0  0  0  0  0  0  0  0  0  0  0  0
   53.3540   30.9610   52.2970 C   0  0  0  0  0  0  0  0  0  0  0  0
   52.5960   30.9110   51.0390 C   0  0  0  0  0  0  0  0  0  0  0  0
   52.5700   29.8330   50.2250 N   0  0  0  0  0  0  0  0  0  0  0  0
   51.6750   30.1740   49.2700 C   0  0  0  0  0  0  0  0  0  0  0  0
   51.3990   29.4260   48.2950 O   0  0  0  0  0  0  0  0  0  0  0  0
   51.1100   31.3850   49.4640 N   0  0  0  0  0  0  0  0  0  0  0  0
   50.1660   32.0830   48.5970 C   0  0  0  0  0  0  0  0  0  0  0  0
   51.6920   31.8500   50.5790 C   0  0  0  0  0  0  0  0  0  0  0  0
   51.4040   33.0750   51.1690 O   0  0  0  0  0  0  0  0  0  0  0  0
   55.5010   31.8960   52.2280 N   0  0  0  0  0  0  0  0  0  0  0  0
   56.7430   31.4000   52.3730 C   0  0  0  0  0  0  0  0  0  0  0  0
   57.7750   32.1100   52.2460 O   0  0  0  0  0  0  0  0  0  0  0  0
   56.7730   30.0830   52.6640 N   0  0  0  0  0  0  0  0  0  0  0  0
   57.9790   29.2990   52.9690 C   0  0  0  0  0  0  0  0  0  0  0  0
   59.1280   29.7290   52.0950 C   0  0  0  0  0  0  0  0  0  0  0  0
   60.2920   30.2780   52.6580 C   0  0  0  0  0  0  0  0  0  0  0  0
   61.3440   30.6970   51.8380 C   0  0  0  0  0  0  0  0  0  0  0  0
   61.2520   30.5740   50.4420 C   0  0  0  0  0  0  0  0  0  0  0  0
   62.3320   31.0160   49.5950 N   0  0  0  0  0  0  0  0  0  0  0  0
   63.6780   31.2370   50.1330 C   0  0  0  0  0  0  0  0  0  0  0  0
   64.1700   32.6560   49.7900 C   0  0  0  0  0  0  0  0  0  0  0  0
   63.6150   33.1990   48.5240 N   0  0  0  0  0  0  0  0  0  0  0  0
   62.5370   34.1720   48.7700 C   0  0  0  0  0  0  0  0  0  0  0  0
   63.2000   32.1450   47.5730 C   0  0  0  0  0  0  0  0  0  0  0  0
   62.1030   31.2420   48.1630 C   0  0  0  0  0  0  0  0  0  0  0  0
   60.0820   30.0370   49.8790 C   0  0  0  0  0  0  0  0  0  0  0  0
   59.0310   29.6160   50.6990 C   0  0  0  0  0  0  0  0  0  0  0  0
   55.7852   27.7082   53.3445 H   0  0  0  0  0  0  0  0  0  0  0  0
   53.9783   28.3080   53.2695 H   0  0  0  0  0  0  0  0  0  0  0  0
   52.7780   31.1147   53.2214 H   0  0  0  0  0  0  0  0  0  0  0  0
   49.4335   32.6246   49.2134 H   0  0  0  0  0  0  0  0  0  0  0  0
   50.7105   32.7974   47.9620 H   0  0  0  0  0  0  0  0  0  0  0  0
   49.6425   31.3530   47.9620 H   0  0  0  0  0  0  0  0  0  0  0  0
   58.2512   29.4507   54.0240 H   0  0  0  0  0  0  0  0  0  0  0  0
   57.7679   28.2364   52.7786 H   0  0  0  0  0  0  0  0  0  0  0  0
   60.3763   30.3788   53.7501 H   0  0  0  0  0  0  0  0  0  0  0  0
   62.2505   31.1262   52.2896 H   0  0  0  0  0  0  0  0  0  0  0  0
   63.6552   31.1161   51.2261 H   0  0  0  0  0  0  0  0  0  0  0  0
   64.3650   30.5042   49.6846 H   0  0  0  0  0  0  0  0  0  0  0  0
   63.8822   33.3295   50.6107 H   0  0  0  0  0  0  0  0  0  0  0  0
   65.2600   32.5911   49.6573 H   0  0  0  0  0  0  0  0  0  0  0  0
   62.3972   34.2982   49.8538 H   0  0  0  0  0  0  0  0  0  0  0  0
   62.8061   35.1390   48.3200 H   0  0  0  0  0  0  0  0  0  0  0  0
   61.6026   33.8055   48.3200 H   0  0  0  0  0  0  0  0  0  0  0  0
   62.8155   32.6215   46.6591 H   0  0  0  0  0  0  0  0  0  0  0  0
   64.0770   31.5183   47.3535 H   0  0  0  0  0  0  0  0  0  0  0  0
   61.1246   31.7256   48.0256 H   0  0  0  0  0  0  0  0  0  0  0  0
   62.1257   30.2725   47.6438 H   0  0  0  0  0  0  0  0  0  0  0  0
   59.9925   29.9473   48.7863 H   0  0  0  0  0  0  0  0  0  0  0  0
   58.1215   29.1932   50.2472 H   0  0  0  0  0  0  0  0  0  0  0  0
  1  2  2  0
  2  3  1  0
  3  4  2  3
  4  5  1  0
  5  6  1  0
  6  7  1  0
  7  8  2  0
  7  9  1  0
  9 10  1  0
  9 11  1  0
 11 12  1  0
  3 13  1  0
 13 14  1  0
 14 15  2  0
 14 16  1  0
 16 17  1  0
 17 18  1  0
 18 19  2  0
 19 20  1  0
 20 21  2  0
 21 22  1  0
 22 23  1  0
 23 24  1  0
 24 25  1  0
 25 26  1  0
 25 27  1  0
 27 28  1  0
 21 29  1  0
 29 30  2  0
 16  2  1  0
 30 18  1  0
 11  5  2  0
 28 22  1  0
  1 31  1  0
  1 32  1  0
  4 33  1  0
 10 34  1  0
 10 35  1  0
 10 36  1  0
 17 37  1  0
 17 38  1  0
 19 39  1  0
 20 40  1  0
 23 41  1  0
 23 42  1  0
 24 43  1  0
 24 44  1  0
 26 45  1  0
 26 46  1  0
 26 47  1  0
 27 48  1  0
 27 49  1  0
 28 50  1  0
 28 51  1  0
 29 52  1  0
 30 53  1  0
M  CHG  3   6  -1  12  -1  13  -1
M  END
>  <UniqueID>  (39) 
39

>  <SMILES>  (39) 
C=c1c(=Cc2[n-]c(=O)n(C)c2[O-])[n-]c(=O)n1Cc1ccc(N2CCN(C)CC2)cc1

>  <Energy>  (39) 
143.31990299323817

>  <Genealogy>  (39) 
C=c1c(=Cc2[n-]c(=O)n(C)c2[O-])[n-]c(=O)n1Cc1ccc(N2CCN(C)CC2)cc1 (protonated)
C=c1c(=Cc2[n-]c(=O)n(C)c2[O-])[n-]c(=O)n1Cc1ccc(N2CCN(C)CC2)cc1 (3D coordinates assigned)
C=c1c(=Cc2[n-]c(=O)n(C)c2[O-])[n-]c(=O)n1Cc1ccc(N2CCN(C)CC2)cc1 (nonaromatic ring conformer: 143.31990299323817 kcal/mol)

>  <smiles>  (39) 
C=c1c(=Cc2[nH]c(=O)n(C)c2O)[nH]c(=O)n1Cc1ccc(N2CCN(C)CC2)cc1

>  <score_type>  (39) 
oracle

>  <origin>  (39) 
adg

>  <m_score__min__energy>  (39) 
-15.880000000000001

>  <m_primary>  (39) 
energy

$$$$
39:0
     RDKit          3D

 54 56  0  0  0  0  0  0  0  0999 V2000
   58.2250   32.0930   51.2140 C   0  0  0  0  0  0  0  0  0  0  0  0
   58.7790   31.2960   50.2970 C   0  0  0  0  0  0  0  0  0  0  0  0
   58.5090   29.6380   50.2310 S   0  0  0  0  0  0  0  0  0  0  0  0
   59.4690   29.4060   48.8630 C   0  0  0  0  0  0  0  0  0  0  0  0
   59.7330   28.2390   48.2510 C   0  0  0  0  0  0  0  0  0  0  0  0
   59.2710   27.8910   46.8920 C   0  0  0  0  0  0  0  0  0  0  0  0
   59.7100   28.6570   45.8030 C   0  0  0  0  0  0  0  0  0  0  0  0
   59.2780   28.3580   44.5090 C   0  0  0  0  0  0  0  0  0  0  0  0
   58.3860   27.3040   44.2890 C   0  0  0  0  0  0  0  0  0  0  0  0
   58.0030   26.9990   42.9860 O   0  0  0  0  0  0  0  0  0  0  0  0
   57.8980   26.5540   45.3760 C   0  0  0  0  0  0  0  0  0  0  0  0
   56.9380   25.4450   45.1750 C   0  0  0  0  0  0  0  0  0  0  0  0
   57.3790   24.2450   44.5900 C   0  0  0  0  0  0  0  0  0  0  0  0
   56.4920   23.1760   44.3920 C   0  0  0  0  0  0  0  0  0  0  0  0
   56.9800   21.9320   43.7700 C   0  0  0  0  0  0  0  0  0  0  0  0
   56.2650   21.2860   42.9570 O   0  0  0  0  0  0  0  0  0  0  0  0
   55.1520   23.3120   44.7880 C   0  0  0  0  0  0  0  0  0  0  0  0
   54.7090   24.4960   45.3810 C   0  0  0  0  0  0  0  0  0  0  0  0
   55.5950   25.5590   45.5840 C   0  0  0  0  0  0  0  0  0  0  0  0
   55.1380   26.7130   46.2110 O   0  0  0  0  0  0  0  0  0  0  0  0
   58.3430   26.8560   46.6740 C   0  0  0  0  0  0  0  0  0  0  0  0
   59.9890   30.6510   48.5000 C   0  0  0  0  0  0  0  0  0  0  0  0
   60.7520   30.8040   47.5050 O   0  0  0  0  0  0  0  0  0  0  0  0
   59.6120   31.6990   49.2950 N   0  0  0  0  0  0  0  0  0  0  0  0
   60.0320   33.0900   49.0570 C   0  0  0  0  0  0  0  0  0  0  0  0
   59.3800   33.6340   47.8140 C   0  0  0  0  0  0  0  0  0  0  0  0
   58.1210   33.7090   47.7720 O   0  0  0  0  0  0  0  0  0  0  0  0
   60.1560   34.0500   46.6690 N   0  0  0  0  0  0  0  0  0  0  0  0
   59.5930   35.0320   45.7310 C   0  0  0  0  0  0  0  0  0  0  0  0
   58.5030   34.3960   44.8730 C   0  0  0  0  0  0  0  0  0  0  0  0
   61.4720   33.4570   46.3810 C   0  0  0  0  0  0  0  0  0  0  0  0
   62.5050   33.9040   47.4110 C   0  0  0  0  0  0  0  0  0  0  0  0
   58.4395   33.1719   51.2068 H   0  0  0  0  0  0  0  0  0  0  0  0
   57.5542   31.6707   51.9767 H   0  0  0  0  0  0  0  0  0  0  0  0
   60.3316   27.4952   48.7973 H   0  0  0  0  0  0  0  0  0  0  0  0
   60.3988   29.4985   45.9687 H   0  0  0  0  0  0  0  0  0  0  0  0
   59.6411   28.9544   43.6590 H   0  0  0  0  0  0  0  0  0  0  0  0
   58.4307   24.1431   44.2842 H   0  0  0  0  0  0  0  0  0  0  0  0
   57.9851   21.5610   44.0194 H   0  0  0  0  0  0  0  0  0  0  0  0
   54.4477   22.4819   44.6304 H   0  0  0  0  0  0  0  0  0  0  0  0
   53.6578   24.5932   45.6901 H   0  0  0  0  0  0  0  0  0  0  0  0
   57.9621   26.2774   47.5285 H   0  0  0  0  0  0  0  0  0  0  0  0
   59.7403   33.7084   49.9187 H   0  0  0  0  0  0  0  0  0  0  0  0
   61.1238   33.1135   48.9246 H   0  0  0  0  0  0  0  0  0  0  0  0
   59.1621   35.8689   46.3001 H   0  0  0  0  0  0  0  0  0  0  0  0
   60.3966   35.3920   45.0717 H   0  0  0  0  0  0  0  0  0  0  0  0
   57.7375   33.9493   45.5245 H   0  0  0  0  0  0  0  0  0  0  0  0
   58.0403   35.1659   44.2380 H   0  0  0  0  0  0  0  0  0  0  0  0
   58.9456   33.6144   44.2380 H   0  0  0  0  0  0  0  0  0  0  0  0
   61.3871   32.3606   46.4078 H   0  0  0  0  0  0  0  0  0  0  0  0
   61.7992   33.7916   45.3855 H   0  0  0  0  0  0  0  0  0  0  0  0
   62.1107   33.7334   48.4236 H   0  0  0  0  0  0  0  0  0  0  0  0
   63.4312   33.3262   47.2760 H   0  0  0  0  0  0  0  0  0  0  0  0
   62.7179   34.9747   47.2760 H   0  0  0  0  0  0  0  0  0  0  0  0
  1  2  2  0
  2  3  1  0
  3  4  1  0
  4  5  2  3
  5  6  1  0
  6  7  2  0
  7  8  1  0
  8  9  2  0
  9 10  1  0
  9 11  1  0
 11 12  1  0
 12 13  2  0
 13 14  1  0
 14 15  1  0
 15 16  2  0
 14 17  2  0
 17 18  1  0
 18 19  2  0
 19 20  1  0
 11 21  2  0
  4 22  1  0
 22 23  2  0
 22 24  1  0
 24 25  1  0
 25 26  1  0
 26 27  2  0
 26 28  1  0
 28 29  1  0
 29 30  1  0
 28 31  1  0
 31 32  1  0
 24  2  1  0
 21  6  1  0
 19 12  1  0
  1 33  1  0
  1 34  1  0
  5 35  1  0
  7 36  1  0
  8 37  1  0
 13 38  1  0
 15 39  1  0
 17 40  1  0
 18 41  1  0
 21 42  1  0
 25 43  1  0
 25 44  1  0
 29 45  1  0
 29 46  1  0
 30 47  1  0
 30 48  1  0
 30 49  1  0
 31 50  1  0
 31 51  1  0
 32 52  1  0
 32 53  1  0
 32 54  1  0
M  CHG  2  10  -1  20  -1
M  END
>  <UniqueID>  (40) 
40

>  <SMILES>  (40) 
C=c1sc(=Cc2ccc([O-])c(-c3cc(C=O)ccc3[O-])c2)c(=O)n1CC(=O)N(CC)CC

>  <Energy>  (40) 
95.18028056109056

>  <Genealogy>  (40) 
C=c1sc(=Cc2ccc([O-])c(-c3cc(C=O)ccc3[O-])c2)c(=O)n1CC(=O)N(CC)CC (protonated)
C=c1sc(=Cc2ccc([O-])c(-c3cc(C=O)ccc3[O-])c2)c(=O)n1CC(=O)N(CC)CC (3D coordinates assigned)
C=c1sc(=Cc2ccc([O-])c(-c3cc(C=O)ccc3[O-])c2)c(=O)n1CC(=O)N(CC)CC (optimized conformer: 95.18028056109056 kcal/mol)

>  <smiles>  (40) 
C=c1sc(=Cc2ccc(O)c(-c3cc(C=O)ccc3O)c2)c(=O)n1CC(=O)N(CC)CC

>  <score_type>  (40) 
oracle

>  <origin>  (40) 
adg

>  <m_score__min__energy>  (40) 
-14.69

>  <m_primary>  (40) 
energy

$$$$
40:0
     RDKit          3D

 31 33  0  0  0  0  0  0  0  0999 V2000
   60.8480   30.1360   46.6970 C   0  0  0  0  0  0  0  0  0  0  0  0
   59.6430   29.8460   46.2020 C   0  0  0  0  0  0  0  0  0  0  0  0
   59.2520   28.5730   45.9600 N   0  0  0  0  0  0  0  0  0  0  0  0
   58.0180   28.6890   45.4260 C   0  0  0  0  0  0  0  0  0  0  0  0
   57.2960   27.6260   45.0340 C   0  0  0  0  0  0  0  0  0  0  0  0
   57.1680   26.3770   45.8130 C   0  0  0  0  0  0  0  0  0  0  0  0
   55.9080   25.9490   46.2550 C   0  0  0  0  0  0  0  0  0  0  0  0
   54.7720   26.7110   46.0030 O   0  0  0  0  0  0  0  0  0  0  0  0
   55.7900   24.7830   46.9430 N   0  0  0  0  0  0  0  0  0  0  0  0
   56.8750   24.0100   47.2020 C   0  0  0  0  0  0  0  0  0  0  0  0
   56.7430   22.9370   47.8450 O   0  0  0  0  0  0  0  0  0  0  0  0
   58.1020   24.3900   46.7620 N   0  0  0  0  0  0  0  0  0  0  0  0
   58.2720   25.5460   46.0700 C   0  0  0  0  0  0  0  0  0  0  0  0
   59.4210   25.8540   45.6530 O   0  0  0  0  0  0  0  0  0  0  0  0
   57.6960   30.0320   45.3440 C   0  0  0  0  0  0  0  0  0  0  0  0
   56.6350   30.5250   44.8730 O   0  0  0  0  0  0  0  0  0  0  0  0
   58.7100   30.7640   45.8410 N   0  0  0  0  0  0  0  0  0  0  0  0
   58.7570   32.1980   45.9560 C   0  0  0  0  0  0  0  0  0  0  0  0
   58.5100   33.0090   44.8370 C   0  0  0  0  0  0  0  0  0  0  0  0
   58.5750   34.4020   44.9480 C   0  0  0  0  0  0  0  0  0  0  0  0
   58.8930   34.9920   46.1740 C   0  0  0  0  0  0  0  0  0  0  0  0
   59.1520   34.1900   47.2900 C   0  0  0  0  0  0  0  0  0  0  0  0
   59.0880   32.7970   47.1820 C   0  0  0  0  0  0  0  0  0  0  0  0
   61.1298   31.1834   46.8804 H   0  0  0  0  0  0  0  0  0  0  0  0
   61.5594   29.3277   46.9216 H   0  0  0  0  0  0  0  0  0  0  0  0
   56.7665   27.6895   44.0719 H   0  0  0  0  0  0  0  0  0  0  0  0
   58.2644   32.5473   43.8692 H   0  0  0  0  0  0  0  0  0  0  0  0
   58.3756   35.0333   44.0695 H   0  0  0  0  0  0  0  0  0  0  0  0
   58.9396   36.0875   46.2614 H   0  0  0  0  0  0  0  0  0  0  0  0
   59.4063   34.6552   48.2538 H   0  0  0  0  0  0  0  0  0  0  0  0
   59.2976   32.1688   48.0603 H   0  0  0  0  0  0  0  0  0  0  0  0
  1  2  2  0
  2  3  1  0
  3  4  1  0
  4  5  2  3
  5  6  1  0
  6  7  2  0
  7  8  1  0
  7  9  1  0
  9 10  1  0
 10 11  2  0
 10 12  1  0
 12 13  1  0
 13 14  2  0
  4 15  1  0
 15 16  2  0
 15 17  1  0
 17 18  1  0
 18 19  2  0
 19 20  1  0
 20 21  2  0
 21 22  1  0
 22 23  2  0
 17  2  1  0
 23 18  1  0
 13  6  1  0
  1 24  1  0
  1 25  1  0
  5 26  1  0
 19 27  1  0
 20 28  1  0
 21 29  1  0
 22 30  1  0
 23 31  1  0
M  CHG  4   3  -1   8  -1   9  -1  12  -1
M  END
>  <UniqueID>  (41) 
41

>  <SMILES>  (41) 
C=c1[n-]c(=Cc2c([O-])[n-]c(=O)[n-]c2=O)c(=O)n1-c1ccccc1

>  <Energy>  (41) 
84.02443191643283

>  <Genealogy>  (41) 
C=c1[n-]c(=Cc2c([O-])[n-]c(=O)[n-]c2=O)c(=O)n1-c1ccccc1 (protonated)
C=c1[n-]c(=Cc2c([O-])[n-]c(=O)[n-]c2=O)c(=O)n1-c1ccccc1 (3D coordinates assigned)
C=c1[n-]c(=Cc2c([O-])[n-]c(=O)[n-]c2=O)c(=O)n1-c1ccccc1 (optimized conformer: 84.02443191643283 kcal/mol)

>  <smiles>  (41) 
C=c1[nH]c(=Cc2c(O)[nH]c(=O)[nH]c2=O)c(=O)n1-c1ccccc1

>  <score_type>  (41) 
oracle

>  <origin>  (41) 
adg

>  <m_score__min__energy>  (41) 
-16.59

>  <m_primary>  (41) 
energy

$$$$
41:0
     RDKit          3D

 34 36  0  0  0  0  0  0  0  0999 V2000
   55.4250   30.2320   44.1030 C   0  0  0  0  0  0  0  0  0  0  0  0
   56.3030   29.5530   44.8450 C   0  0  0  0  0  0  0  0  0  0  0  0
   56.1750   28.2250   45.0770 N   0  0  0  0  0  0  0  0  0  0  0  0
   57.2030   27.9260   45.9020 C   0  0  0  0  0  0  0  0  0  0  0  0
   57.4760   26.7000   46.3720 C   0  0  0  0  0  0  0  0  0  0  0  0
   56.9720   25.4560   45.7440 C   0  0  0  0  0  0  0  0  0  0  0  0
   57.8760   24.4850   45.2720 C   0  0  0  0  0  0  0  0  0  0  0  0
   57.4130   23.3320   44.6340 C   0  0  0  0  0  0  0  0  0  0  0  0
   56.0440   23.1390   44.4470 C   0  0  0  0  0  0  0  0  0  0  0  0
   55.5860   21.9920   43.8100 O   0  0  0  0  0  0  0  0  0  0  0  0
   55.1350   24.0980   44.8980 C   0  0  0  0  0  0  0  0  0  0  0  0
   55.5850   25.2550   45.5470 C   0  0  0  0  0  0  0  0  0  0  0  0
   54.6300   26.1710   45.9970 O   0  0  0  0  0  0  0  0  0  0  0  0
   57.9290   29.0710   46.1430 C   0  0  0  0  0  0  0  0  0  0  0  0
   58.9690   29.1560   46.8520 O   0  0  0  0  0  0  0  0  0  0  0  0
   57.3720   30.1020   45.4810 N   0  0  0  0  0  0  0  0  0  0  0  0
   57.8470   31.4590   45.4520 C   0  0  0  0  0  0  0  0  0  0  0  0
   57.9810   32.1340   44.2280 C   0  0  0  0  0  0  0  0  0  0  0  0
   58.4250   33.4590   44.1980 C   0  0  0  0  0  0  0  0  0  0  0  0
   58.7330   34.1220   45.3900 C   0  0  0  0  0  0  0  0  0  0  0  0
   58.5920   33.4610   46.6140 C   0  0  0  0  0  0  0  0  0  0  0  0
   58.1480   32.1350   46.6470 C   0  0  0  0  0  0  0  0  0  0  0  0
   55.5630   31.3106   43.9371 H   0  0  0  0  0  0  0  0  0  0  0  0
   54.5636   29.7128   43.6576 H   0  0  0  0  0  0  0  0  0  0  0  0
   58.1062   26.6134   47.2694 H   0  0  0  0  0  0  0  0  0  0  0  0
   58.9572   24.6360   45.4070 H   0  0  0  0  0  0  0  0  0  0  0  0
   58.1283   22.5756   44.2787 H   0  0  0  0  0  0  0  0  0  0  0  0
   54.0570   23.9438   44.7425 H   0  0  0  0  0  0  0  0  0  0  0  0
   54.7660   27.1730   45.9620 H   0  0  0  0  0  0  0  0  0  0  0  0
   57.7354   31.6176   43.2883 H   0  0  0  0  0  0  0  0  0  0  0  0
   58.5323   33.9808   43.2356 H   0  0  0  0  0  0  0  0  0  0  0  0
   59.0862   35.1635   45.3648 H   0  0  0  0  0  0  0  0  0  0  0  0
   58.8304   33.9842   47.5518 H   0  0  0  0  0  0  0  0  0  0  0  0
   58.0340   31.6193   47.6119 H   0  0  0  0  0  0  0  0  0  0  0  0
  1  2  2  0
  2  3  1  0
  3  4  1  0
  4  5  2  3
  5  6  1  0
  6  7  2  0
  7  8  1  0
  8  9  2  0
  9 10  1  0
  9 11  1  0
 11 12  2  0
 12 13  1  0
  4 14  1  0
 14 15  2  0
 14 16  1  0
 16 17  1  0
 17 18  2  0
 18 19  1  0
 19 20  2  0
 20 21  1  0
 21 22  2  0
 16  2  1  0
 22 17  1  0
 12  6  1  0
  1 23  1  0
  1 24  1  0
  5 25  1  0
  7 26  1  0
  8 27  1  0
 11 28  1  0
 13 29  1  0
 18 30  1  0
 19 31  1  0
 20 32  1  0
 21 33  1  0
 22 34  1  0
M  CHG  2   3  -1  10  -1
M  END
>  <UniqueID>  (42) 
42

>  <SMILES>  (42) 
C=c1[n-]c(=Cc2ccc([O-])cc2O)c(=O)n1-c1ccccc1

>  <Energy>  (42) 
82.55494396039332

>  <Genealogy>  (42) 
C=c1[n-]c(=Cc2ccc([O-])cc2O)c(=O)n1-c1ccccc1 (protonated)
C=c1[n-]c(=Cc2ccc([O-])cc2O)c(=O)n1-c1ccccc1 (3D coordinates assigned)
C=c1[n-]c(=Cc2ccc([O-])cc2O)c(=O)n1-c1ccccc1 (optimized conformer: 82.55494396039332 kcal/mol)

>  <smiles>  (42) 
C=c1[nH]c(=Cc2ccc(O)cc2O)c(=O)n1-c1ccccc1

>  <score_type>  (42) 
oracle

>  <origin>  (42) 
adg

>  <m_score__min__energy>  (42) 
-12.26

>  <m_primary>  (42) 
energy

$$$$
42:0
     RDKit          3D

 39 41  0  0  0  0  0  0  0  0999 V2000
   58.1697   24.0279   47.6504 H   0  0  0  0  0  0  0  0  0  0  0  0
   57.7150   24.9040   47.1650 C   0  0  0  0  0  0  0  0  0  0  0  0
   56.4040   24.8810   46.8150 N   0  0  0  0  0  0  0  0  0  0  0  0
   55.7760   25.9370   46.2250 C   0  0  0  0  0  0  0  0  0  0  0  0
   54.5170   25.7850   45.9200 N   0  0  0  0  0  0  0  0  0  0  0  0
   53.8730   24.6920   45.2490 C   0  0  0  0  0  0  0  0  0  0  0  0
   52.6150   24.6200   45.2600 O   0  0  0  0  0  0  0  0  0  0  0  0
   54.6260   23.6990   44.5420 N   0  0  0  0  0  0  0  0  0  0  0  0
   55.4440   22.6760   45.1370 C   0  0  0  0  0  0  0  0  0  0  0  0
   56.7060   22.4040   44.5820 C   0  0  0  0  0  0  0  0  0  0  0  0
   57.0367   22.9486   43.6853 H   0  0  0  0  0  0  0  0  0  0  0  0
   57.5450   21.4460   45.1610 C   0  0  0  0  0  0  0  0  0  0  0  0
   58.5271   21.2333   44.7135 H   0  0  0  0  0  0  0  0  0  0  0  0
   57.1360   20.7580   46.3090 C   0  0  0  0  0  0  0  0  0  0  0  0
   58.1970   19.5590   47.0400 Cl  0  0  0  0  0  0  0  0  0  0  0  0
   55.8840   21.0350   46.8770 C   0  0  0  0  0  0  0  0  0  0  0  0
   55.5620   20.4967   47.7806 H   0  0  0  0  0  0  0  0  0  0  0  0
   55.0420   21.9930   46.3000 C   0  0  0  0  0  0  0  0  0  0  0  0
   54.0653   22.2121   46.7560 H   0  0  0  0  0  0  0  0  0  0  0  0
   56.5280   27.1110   45.9340 C   0  0  0  0  0  0  0  0  0  0  0  0
   55.9350   28.2260   45.2470 N   0  0  0  0  0  0  0  0  0  0  0  0
   56.7390   29.3330   44.1870 S   0  0  0  0  0  0  0  0  0  0  0  0
   57.7020   28.5670   43.3270 O   0  0  0  0  0  0  0  0  0  0  0  0
   55.7410   30.0100   43.2910 O   0  0  0  0  0  0  0  0  0  0  0  0
   57.6440   30.5020   45.1430 C   0  0  0  0  0  0  0  0  0  0  0  0
   58.1840   30.1110   46.3780 C   0  0  0  0  0  0  0  0  0  0  0  0
   58.0639   29.0741   46.7250 H   0  0  0  0  0  0  0  0  0  0  0  0
   58.8750   31.0360   47.1700 C   0  0  0  0  0  0  0  0  0  0  0  0
   59.3001   30.7228   48.1350 H   0  0  0  0  0  0  0  0  0  0  0  0
   59.0260   32.3570   46.7370 C   0  0  0  0  0  0  0  0  0  0  0  0
   59.5674   33.0827   47.3616 H   0  0  0  0  0  0  0  0  0  0  0  0
   58.4870   32.7550   45.5070 C   0  0  0  0  0  0  0  0  0  0  0  0
   58.6710   34.5690   44.9310 Br  0  0  0  0  0  0  0  0  0  0  0  0
   57.8020   31.8280   44.7070 C   0  0  0  0  0  0  0  0  0  0  0  0
   57.3880   32.1401   43.7368 H   0  0  0  0  0  0  0  0  0  0  0  0
   57.8940   27.1360   46.2900 C   0  0  0  0  0  0  0  0  0  0  0  0
   58.4970   28.0309   46.0764 H   0  0  0  0  0  0  0  0  0  0  0  0
   58.4850   26.0360   46.9100 C   0  0  0  0  0  0  0  0  0  0  0  0
   59.5473   26.0619   47.1945 H   0  0  0  0  0  0  0  0  0  0  0  0
  1  2  1  0
  2  3  1  0
  3  4  1  0
  4  5  2  0
  5  6  1  0
  6  7  2  0
  6  8  1  0
  8  9  1  0
  9 10  2  0
 10 11  1  0
 10 12  1  0
 12 13  1  0
 12 14  2  0
 14 15  1  0
 14 16  1  0
 16 17  1  0
 16 18  2  0
 18 19  1  0
  4 20  1  0
 20 21  1  0
 21 22  1  0
 22 23  2  0
 22 24  2  0
 22 25  1  0
 25 26  2  0
 26 27  1  0
 26 28  1  0
 28 29  1  0
 28 30  2  0
 30 31  1  0
 30 32  1  0
 32 33  1  0
 32 34  2  0
 34 35  1  0
 20 36  2  0
 36 37  1  0
 36 38  1  0
 38 39  1  0
 38  2  2  0
 18  9  1  0
 34 25  1  0
M  CHG  3   3  -1   8  -1  21  -1
M  END
>  <UniqueID>  (43) 
43

>  <SMILES>  (43) 
O=C(/N=c1/[n-]cccc1[N-]S(=O)(=O)c1cccc(Br)c1)[N-]c1ccc(Cl)cc1

>  <Energy>  (43) 
61.84239681451612

>  <Genealogy>  (43) 
O=C(N=c1[n-]cccc1[N-]S(=O)(=O)c1cccc(Br)c1)[N-]c1ccc(Cl)cc1 (protonated)
O=C(/N=c1/[n-]cccc1[N-]S(=O)(=O)c1cccc(Br)c1)[N-]c1ccc(Cl)cc1 (cis-trans isomerization)
O=C(/N=c1/[n-]cccc1[N-]S(=O)(=O)c1cccc(Br)c1)[N-]c1ccc(Cl)cc1 (3D coordinates assigned)
O=C(/N=c1/[n-]cccc1[N-]S(=O)(=O)c1cccc(Br)c1)[N-]c1ccc(Cl)cc1 (optimized conformer: 61.84239681451612 kcal/mol)

>  <smiles>  (43) 
O=C(N=c1[nH]cccc1NS(=O)(=O)c1cccc(Br)c1)Nc1ccc(Cl)cc1

>  <score_type>  (43) 
oracle

>  <origin>  (43) 
adg

>  <m_score__min__energy>  (43) 
-13.57

>  <m_primary>  (43) 
energy

$$$$
43:0
     RDKit          3D

 57 59  0  0  0  0  0  0  0  0999 V2000
   59.7370   27.9650   45.6310 C   0  0  0  0  0  0  0  0  0  0  0  0
   58.7610   29.0770   45.3800 C   0  0  0  0  0  0  0  0  0  0  0  0
   57.6440   28.8680   44.5620 C   0  0  0  0  0  0  0  0  0  0  0  0
   56.7560   29.9220   44.3250 C   0  0  0  0  0  0  0  0  0  0  0  0
   55.5460   29.7150   43.4720 C   0  0  0  0  0  0  0  0  0  0  0  0
   56.9960   31.1440   44.8730 N   0  0  0  0  0  0  0  0  0  0  0  0
   58.0890   31.3930   45.6450 C   0  0  0  0  0  0  0  0  0  0  0  0
   58.2720   32.7010   46.2180 N   0  0  0  0  0  0  0  0  0  0  0  0
   58.5810   32.8340   47.6450 C   0  0  0  0  0  0  0  0  0  0  0  0
   59.2810   34.1730   47.9370 C   0  0  0  0  0  0  0  0  0  0  0  0
   60.0110   34.7080   46.7680 N   0  0  0  0  0  0  0  0  0  0  0  0
   61.3960   34.2140   46.5890 C   0  0  0  0  0  0  0  0  0  0  0  0
   61.5630   32.6990   46.8130 C   0  0  0  0  0  0  0  0  0  0  0  0
   62.5480   32.4340   47.9300 C   0  0  0  0  0  0  0  0  0  0  0  0
   63.6880   33.2480   48.0380 C   0  0  0  0  0  0  0  0  0  0  0  0
   64.6060   33.0550   49.0730 C   0  0  0  0  0  0  0  0  0  0  0  0
   64.3930   32.0500   50.0170 C   0  0  0  0  0  0  0  0  0  0  0  0
   63.2580   31.2410   49.9350 C   0  0  0  0  0  0  0  0  0  0  0  0
   62.3240   31.4290   48.9040 C   0  0  0  0  0  0  0  0  0  0  0  0
   61.1300   30.5590   48.8590 C   0  0  0  0  0  0  0  0  0  0  0  0
   61.1140   29.6040   48.0350 O   0  0  0  0  0  0  0  0  0  0  0  0
   59.9920   30.7920   49.7140 N   0  0  0  0  0  0  0  0  0  0  0  0
   60.0320   31.8280   50.7520 C   0  0  0  0  0  0  0  0  0  0  0  0
   58.7760   29.9990   49.5100 C   0  0  0  0  0  0  0  0  0  0  0  0
   59.2160   34.8670   45.5280 C   0  0  0  0  0  0  0  0  0  0  0  0
   58.0040   33.9250   45.4600 C   0  0  0  0  0  0  0  0  0  0  0  0
   58.9910   30.3510   45.9160 C   0  0  0  0  0  0  0  0  0  0  0  0
   59.8610   27.8237   46.7148 H   0  0  0  0  0  0  0  0  0  0  0  0
   59.3577   27.0357   45.1811 H   0  0  0  0  0  0  0  0  0  0  0  0
   60.7077   28.2206   45.1811 H   0  0  0  0  0  0  0  0  0  0  0  0
   57.4662   27.8815   44.1089 H   0  0  0  0  0  0  0  0  0  0  0  0
   54.6659   29.5644   44.1144 H   0  0  0  0  0  0  0  0  0  0  0  0
   55.3894   30.5994   42.8369 H   0  0  0  0  0  0  0  0  0  0  0  0
   55.6923   28.8288   42.8369 H   0  0  0  0  0  0  0  0  0  0  0  0
   57.6455   32.7843   48.2215 H   0  0  0  0  0  0  0  0  0  0  0  0
   59.2568   32.0157   47.9342 H   0  0  0  0  0  0  0  0  0  0  0  0
   58.5208   34.9072   48.2420 H   0  0  0  0  0  0  0  0  0  0  0  0
   60.0189   33.9929   48.7326 H   0  0  0  0  0  0  0  0  0  0  0  0
   61.7151   34.4476   45.5625 H   0  0  0  0  0  0  0  0  0  0  0  0
   62.0100   34.7147   47.3521 H   0  0  0  0  0  0  0  0  0  0  0  0
   60.5887   32.2628   47.0784 H   0  0  0  0  0  0  0  0  0  0  0  0
   61.9435   32.2423   45.8874 H   0  0  0  0  0  0  0  0  0  0  0  0
   63.8594   34.0455   47.3000 H   0  0  0  0  0  0  0  0  0  0  0  0
   65.4973   33.6957   49.1438 H   0  0  0  0  0  0  0  0  0  0  0  0
   65.1205   31.8947   50.8273 H   0  0  0  0  0  0  0  0  0  0  0  0
   63.0946   30.4513   50.6831 H   0  0  0  0  0  0  0  0  0  0  0  0
   60.0137   31.3537   51.7443 H   0  0  0  0  0  0  0  0  0  0  0  0
   60.9536   32.4189   50.6450 H   0  0  0  0  0  0  0  0  0  0  0  0
   59.1587   32.4882   50.6450 H   0  0  0  0  0  0  0  0  0  0  0  0
   58.3510   29.7218   50.4860 H   0  0  0  0  0  0  0  0  0  0  0  0
   58.0417   30.5924   48.9455 H   0  0  0  0  0  0  0  0  0  0  0  0
   59.0229   29.0878   48.9455 H   0  0  0  0  0  0  0  0  0  0  0  0
   58.8554   35.9048   45.4748 H   0  0  0  0  0  0  0  0  0  0  0  0
   59.8740   34.6139   44.6836 H   0  0  0  0  0  0  0  0  0  0  0  0
   57.1256   34.4316   45.8865 H   0  0  0  0  0  0  0  0  0  0  0  0
   57.8123   33.6619   44.4093 H   0  0  0  0  0  0  0  0  0  0  0  0
   59.8738   30.5343   46.5461 H   0  0  0  0  0  0  0  0  0  0  0  0
  1  2  1  0
  2  3  2  0
  3  4  1  0
  4  5  1  0
  4  6  2  0
  6  7  1  0
  7  8  1  0
  8  9  1  0
  9 10  1  0
 10 11  1  0
 11 12  1  0
 12 13  1  0
 13 14  1  0
 14 15  2  0
 15 16  1  0
 16 17  2  0
 17 18  1  0
 18 19  2  0
 19 20  1  0
 20 21  2  0
 20 22  1  0
 22 23  1  0
 22 24  1  0
 11 25  1  0
 25 26  1  0
  7 27  2  0
 27  2  1  0
 26  8  1  0
 19 14  1  0
  1 28  1  0
  1 29  1  0
  1 30  1  0
  3 31  1  0
  5 32  1  0
  5 33  1  0
  5 34  1  0
  9 35  1  0
  9 36  1  0
 10 37  1  0
 10 38  1  0
 12 39  1  0
 12 40  1  0
 13 41  1  0
 13 42  1  0
 15 43  1  0
 16 44  1  0
 17 45  1  0
 18 46  1  0
 23 47  1  0
 23 48  1  0
 23 49  1  0
 24 50  1  0
 24 51  1  0
 24 52  1  0
 25 53  1  0
 25 54  1  0
 26 55  1  0
 26 56  1  0
 27 57  1  0
M  END
>  <UniqueID>  (44) 
44

>  <SMILES>  (44) 
Cc1cc(C)nc(N2CCN(CCc3ccccc3C(=O)N(C)C)CC2)c1

>  <Energy>  (44) 
73.54061864457017

>  <Genealogy>  (44) 
Cc1cc(C)nc(N2CCN(CCc3ccccc3C(=O)N(C)C)CC2)c1 (3D coordinates assigned)
Cc1cc(C)nc(N2CCN(CCc3ccccc3C(=O)N(C)C)CC2)c1 (nonaromatic ring conformer: 73.54061864457017 kcal/mol)

>  <smiles>  (44) 
Cc1cc(C)nc(N2CCN(CCc3ccccc3C(=O)N(C)C)CC2)c1

>  <score_type>  (44) 
oracle

>  <origin>  (44) 
adg

>  <m_score__min__energy>  (44) 
-8.3499999999999996

>  <m_primary>  (44) 
energy

$$$$
44:0
     RDKit          3D

 43 45  0  0  0  0  0  0  0  0999 V2000
   60.6280   30.6900   51.0510 C   0  0  0  0  0  0  0  0  0  0  0  0
   60.6510   29.2970   50.5170 C   0  0  0  0  0  0  0  0  0  0  0  0
   60.6900   28.9470   49.1820 C   0  0  0  0  0  0  0  0  0  0  0  0
   60.7610   27.6080   49.1140 N   0  0  0  0  0  0  0  0  0  0  0  0
   60.7450   26.7920   47.9010 C   0  0  0  0  0  0  0  0  0  0  0  0
   59.3950   26.8760   47.2460 C   0  0  0  0  0  0  0  0  0  0  0  0
   58.6320   25.7170   47.0440 C   0  0  0  0  0  0  0  0  0  0  0  0
   57.3540   25.8050   46.4840 C   0  0  0  0  0  0  0  0  0  0  0  0
   56.8260   27.0460   46.1140 C   0  0  0  0  0  0  0  0  0  0  0  0
   55.5200   27.0990   45.6260 O   0  0  0  0  0  0  0  0  0  0  0  0
   57.6060   28.2110   46.2750 C   0  0  0  0  0  0  0  0  0  0  0  0
   57.1450   29.4900   45.8340 N   0  0  0  0  0  0  0  0  0  0  0  0
   56.6150   29.7680   44.2060 S   0  0  0  0  0  0  0  0  0  0  0  0
   55.1150   29.8640   44.1880 O   0  0  0  0  0  0  0  0  0  0  0  0
   57.0360   28.6310   43.3190 O   0  0  0  0  0  0  0  0  0  0  0  0
   57.3140   31.2900   43.5820 C   0  0  0  0  0  0  0  0  0  0  0  0
   57.8370   32.1400   44.7090 C   0  0  0  0  0  0  0  0  0  0  0  0
   57.2590   33.3920   44.9850 C   0  0  0  0  0  0  0  0  0  0  0  0
   57.7260   34.1620   46.0540 C   0  0  0  0  0  0  0  0  0  0  0  0
   58.7680   33.6890   46.8570 C   0  0  0  0  0  0  0  0  0  0  0  0
   59.3490   32.4480   46.5880 C   0  0  0  0  0  0  0  0  0  0  0  0
   58.8910   31.6770   45.5150 C   0  0  0  0  0  0  0  0  0  0  0  0
   58.8630   28.1220   46.8850 C   0  0  0  0  0  0  0  0  0  0  0  0
   60.7580   27.1870   50.3960 C   0  0  0  0  0  0  0  0  0  0  0  0
   60.8000   25.9730   50.7300 O   0  0  0  0  0  0  0  0  0  0  0  0
   60.7040   28.1930   51.2930 N   0  0  0  0  0  0  0  0  0  0  0  0
   60.6285   30.6612   52.1506 H   0  0  0  0  0  0  0  0  0  0  0  0
   61.5173   31.2327   50.6980 H   0  0  0  0  0  0  0  0  0  0  0  0
   59.7213   31.2031   50.6980 H   0  0  0  0  0  0  0  0  0  0  0  0
   60.6670   29.6401   48.3282 H   0  0  0  0  0  0  0  0  0  0  0  0
   61.5122   27.1598   47.2038 H   0  0  0  0  0  0  0  0  0  0  0  0
   60.9546   25.7451   48.1659 H   0  0  0  0  0  0  0  0  0  0  0  0
   59.0402   24.7355   47.3270 H   0  0  0  0  0  0  0  0  0  0  0  0
   56.7596   24.8917   46.3334 H   0  0  0  0  0  0  0  0  0  0  0  0
   55.1480   27.9160   45.1570 H   0  0  0  0  0  0  0  0  0  0  0  0
   58.1404   31.0526   42.8959 H   0  0  0  0  0  0  0  0  0  0  0  0
   56.5270   31.8491   43.0547 H   0  0  0  0  0  0  0  0  0  0  0  0
   56.4367   33.7665   44.3576 H   0  0  0  0  0  0  0  0  0  0  0  0
   57.2727   35.1421   46.2638 H   0  0  0  0  0  0  0  0  0  0  0  0
   59.1303   34.2945   47.7009 H   0  0  0  0  0  0  0  0  0  0  0  0
   60.1682   32.0763   47.2211 H   0  0  0  0  0  0  0  0  0  0  0  0
   59.3576   30.7041   45.3010 H   0  0  0  0  0  0  0  0  0  0  0  0
   59.4387   29.0382   47.0829 H   0  0  0  0  0  0  0  0  0  0  0  0
  1  2  1  0
  2  3  2  0
  3  4  1  0
  4  5  1  0
  5  6  1  0
  6  7  2  0
  7  8  1  0
  8  9  2  0
  9 10  1  0
  9 11  1  0
 11 12  1  0
 12 13  1  0
 13 14  2  0
 13 15  2  0
 13 16  1  0
 16 17  1  0
 17 18  2  0
 18 19  1  0
 19 20  2  0
 20 21  1  0
 21 22  2  0
 11 23  2  0
  4 24  1  0
 24 25  2  0
 24 26  1  0
 26  2  1  0
 23  6  1  0
 22 17  1  0
  1 27  1  0
  1 28  1  0
  1 29  1  0
  3 30  1  0
  5 31  1  0
  5 32  1  0
  7 33  1  0
  8 34  1  0
 10 35  1  0
 16 36  1  0
 16 37  1  0
 18 38  1  0
 19 39  1  0
 20 40  1  0
 21 41  1  0
 22 42  1  0
 23 43  1  0
M  CHG  2  12  -1  26  -1
M  END
>  <UniqueID>  (45) 
45

>  <SMILES>  (45) 
Cc1cn(Cc2ccc(O)c([N-]S(=O)(=O)Cc3ccccc3)c2)c(=O)[n-]1

>  <Energy>  (45) 
74.86334468472013

>  <Genealogy>  (45) 
Cc1cn(Cc2ccc(O)c([N-]S(=O)(=O)Cc3ccccc3)c2)c(=O)[n-]1 (protonated)
Cc1cn(Cc2ccc(O)c([N-]S(=O)(=O)Cc3ccccc3)c2)c(=O)[n-]1 (3D coordinates assigned)
Cc1cn(Cc2ccc(O)c([N-]S(=O)(=O)Cc3ccccc3)c2)c(=O)[n-]1 (optimized conformer: 74.86334468472013 kcal/mol)

>  <smiles>  (45) 
Cc1cn(Cc2ccc(O)c(NS(=O)(=O)Cc3ccccc3)c2)c(=O)[nH]1

>  <score_type>  (45) 
oracle

>  <origin>  (45) 
adg

>  <m_score__min__energy>  (45) 
-12.140000000000001

>  <m_primary>  (45) 
energy

$$$$
45:0
     RDKit          3D

 68 72  0  0  0  0  0  0  0  0999 V2000
   60.7187   29.9683   45.8082 H   0  0  0  0  0  0  0  0  0  0  0  0
   59.7820   29.5270   45.4370 C   0  0  0  0  0  0  0  0  0  0  0  0
   59.7418   28.4585   45.1788 H   0  0  0  0  0  0  0  0  0  0  0  0
   58.6870   30.2930   45.2990 C   0  0  0  0  0  0  0  0  0  0  0  0
   57.4410   29.8520   44.8390 C   0  0  0  0  0  0  0  0  0  0  0  0
   56.9360   28.6090   44.7270 C   0  0  0  0  0  0  0  0  0  0  0  0
   56.2615   28.4089   43.8814 H   0  0  0  0  0  0  0  0  0  0  0  0
   57.2180   27.4960   45.6510 C   0  0  0  0  0  0  0  0  0  0  0  0
   58.4000   27.2980   46.2640 N   0  0  0  0  0  0  0  0  0  0  0  0
   58.1240   26.3570   47.1920 C   0  0  0  0  0  0  0  0  0  0  0  0
   58.9940   25.9120   47.9870 O   0  0  0  0  0  0  0  0  0  0  0  0
   56.8340   25.9710   47.2360 N   0  0  0  0  0  0  0  0  0  0  0  0
   56.2740   26.7100   46.2630 C   0  0  0  0  0  0  0  0  0  0  0  0
   54.9200   26.6820   45.9530 O   0  0  0  0  0  0  0  0  0  0  0  0
   56.7140   30.9860   44.5430 C   0  0  0  0  0  0  0  0  0  0  0  0
   55.7081   31.0219   44.0993 H   0  0  0  0  0  0  0  0  0  0  0  0
   57.4880   32.0650   44.9090 C   0  0  0  0  0  0  0  0  0  0  0  0
   57.0060   33.4790   44.8330 C   0  0  0  0  0  0  0  0  0  0  0  0
   56.8709   33.8755   45.8501 H   0  0  0  0  0  0  0  0  0  0  0  0
   57.7465   34.0905   44.2965 H   0  0  0  0  0  0  0  0  0  0  0  0
   56.0462   33.5109   44.2965 H   0  0  0  0  0  0  0  0  0  0  0  0
   58.6850   31.6530   45.4000 N   0  0  0  0  0  0  0  0  0  0  0  0
   59.7250   32.5140   45.9990 C   0  0  0  0  0  0  0  0  0  0  0  0
   60.7087   32.2112   45.6109 H   0  0  0  0  0  0  0  0  0  0  0  0
   59.5076   33.5589   45.7328 H   0  0  0  0  0  0  0  0  0  0  0  0
   59.7320   32.3950   47.5150 C   0  0  0  0  0  0  0  0  0  0  0  0
   60.0560   31.1500   48.0870 C   0  0  0  0  0  0  0  0  0  0  0  0
   60.2984   30.3055   47.4251 H   0  0  0  0  0  0  0  0  0  0  0  0
   60.0790   30.9540   49.4780 C   0  0  0  0  0  0  0  0  0  0  0  0
   60.5400   29.6300   50.0050 C   0  0  0  0  0  0  0  0  0  0  0  0
   59.7230   28.6710   49.9840 O   0  0  0  0  0  0  0  0  0  0  0  0
   61.8710   29.3820   50.5250 N   0  0  0  0  0  0  0  0  0  0  0  0
   62.4360   28.9990   49.7280 H   0  0  0  0  0  0  0  0  0  0  0  0
   61.8690   28.3070   51.5440 C   0  0  0  0  0  0  0  0  0  0  0  0
   61.3027   28.6445   52.4246 H   0  0  0  0  0  0  0  0  0  0  0  0
   61.4015   27.4097   51.1124 H   0  0  0  0  0  0  0  0  0  0  0  0
   63.3070   27.9620   51.9690 C   0  0  0  0  0  0  0  0  0  0  0  0
   63.2811   27.4380   52.9358 H   0  0  0  0  0  0  0  0  0  0  0  0
   63.7578   27.3210   51.1970 H   0  0  0  0  0  0  0  0  0  0  0  0
   64.1210   29.1810   52.1030 N   0  0  0  0  0  0  0  0  0  0  0  0
   65.5480   29.1290   51.9150 C   0  0  0  0  0  0  0  0  0  0  0  0
   66.1210   30.0450   51.2620 O   0  0  0  0  0  0  0  0  0  0  0  0
   66.3640   28.0130   52.4430 C   0  0  0  0  0  0  0  0  0  0  0  0
   66.8320   27.0110   51.5720 C   0  0  0  0  0  0  0  0  0  0  0  0
   66.5622   27.0449   50.5061 H   0  0  0  0  0  0  0  0  0  0  0  0
   67.6370   25.9730   52.0510 C   0  0  0  0  0  0  0  0  0  0  0  0
   67.9940   25.1918   51.3637 H   0  0  0  0  0  0  0  0  0  0  0  0
   67.9880   25.9280   53.4030 C   0  0  0  0  0  0  0  0  0  0  0  0
   68.6132   25.1063   53.7823 H   0  0  0  0  0  0  0  0  0  0  0  0
   67.5440   26.9280   54.2730 C   0  0  0  0  0  0  0  0  0  0  0  0
   67.8302   26.8979   55.3347 H   0  0  0  0  0  0  0  0  0  0  0  0
   66.7360   27.9680   53.7970 C   0  0  0  0  0  0  0  0  0  0  0  0
   66.3911   28.7530   54.4861 H   0  0  0  0  0  0  0  0  0  0  0  0
   63.4320   30.4710   52.1780 C   0  0  0  0  0  0  0  0  0  0  0  0
   62.8109   30.5027   53.0854 H   0  0  0  0  0  0  0  0  0  0  0  0
   64.1747   31.2816   52.2133 H   0  0  0  0  0  0  0  0  0  0  0  0
   62.5400   30.6480   50.9410 C   0  0  0  0  0  0  0  0  0  0  0  0
   61.7662   31.3956   51.1698 H   0  0  0  0  0  0  0  0  0  0  0  0
   63.1856   30.9698   50.1105 H   0  0  0  0  0  0  0  0  0  0  0  0
   59.7390   32.0330   50.3090 C   0  0  0  0  0  0  0  0  0  0  0  0
   59.7036   31.8906   51.3992 H   0  0  0  0  0  0  0  0  0  0  0  0
   59.4460   33.2820   49.7670 C   0  0  0  0  0  0  0  0  0  0  0  0
   59.1935   34.1174   50.4366 H   0  0  0  0  0  0  0  0  0  0  0  0
   59.4680   33.4910   48.3790 C   0  0  0  0  0  0  0  0  0  0  0  0
   59.2880   34.8970   47.8700 C   0  0  0  0  0  0  0  0  0  0  0  0
   59.1997   35.5870   48.7221 H   0  0  0  0  0  0  0  0  0  0  0  0
   60.1573   35.1795   47.2580 H   0  0  0  0  0  0  0  0  0  0  0  0
   58.3756   34.9514   47.2580 H   0  0  0  0  0  0  0  0  0  0  0  0
  1  2  1  0
  2  3  1  0
  2  4  2  0
  4  5  1  0
  5  6  2  0
  6  7  1  0
  6  8  1  0
  8  9  1  0
  9 10  1  0
 10 11  2  0
 10 12  1  0
 12 13  1  0
 13 14  1  0
  5 15  1  0
 15 16  1  0
 15 17  2  0
 17 18  1  0
 18 19  1  0
 18 20  1  0
 18 21  1  0
 17 22  1  0
 22 23  1  0
 23 24  1  0
 23 25  1  0
 23 26  1  0
 26 27  2  0
 27 28  1  0
 27 29  1  0
 29 30  1  0
 30 31  2  0
 30 32  1  0
 32 33  1  0
 32 34  1  0
 34 35  1  0
 34 36  1  0
 34 37  1  0
 37 38  1  0
 37 39  1  0
 37 40  1  0
 40 41  1  0
 41 42  2  0
 41 43  1  0
 43 44  2  0
 44 45  1  0
 44 46  1  0
 46 47  1  0
 46 48  2  0
 48 49  1  0
 48 50  1  0
 50 51  1  0
 50 52  2  0
 52 53  1  0
 40 54  1  0
 54 55  1  0
 54 56  1  0
 54 57  1  0
 57 58  1  0
 57 59  1  0
 29 60  2  0
 60 61  1  0
 60 62  1  0
 62 63  1  0
 62 64  2  0
 64 65  1  0
 65 66  1  0
 65 67  1  0
 65 68  1  0
 22  4  1  0
 64 26  1  0
 13  8  2  0
 57 32  1  0
 52 43  1  0
M  CHG  4   9  -1  12  -1  14  -1  32   1
M  END
>  <UniqueID>  (46) 
46

>  <SMILES>  (46) 
C=c1/c(=C\c2[n-]c(=O)[n-]c2[O-])cc(C)n1Cc1cc(C(=O)[NH+]2CCN(C(=O)c3ccccc3)CC2)ccc1C

>  <Energy>  (46) 
166.61391161344193

>  <Genealogy>  (46) 
C=c1c(=Cc2[n-]c(=O)[n-]c2[O-])cc(C)n1Cc1cc(C(=O)[NH+]2CCN(C(=O)c3ccccc3)CC2)ccc1C (protonated)
C=c1/c(=C\c2[n-]c(=O)[n-]c2[O-])cc(C)n1Cc1cc(C(=O)[NH+]2CCN(C(=O)c3ccccc3)CC2)ccc1C (cis-trans isomerization)
C=c1/c(=C\c2[n-]c(=O)[n-]c2[O-])cc(C)n1Cc1cc(C(=O)[NH+]2CCN(C(=O)c3ccccc3)CC2)ccc1C (3D coordinates assigned)
C=c1/c(=C\c2[n-]c(=O)[n-]c2[O-])cc(C)n1Cc1cc(C(=O)[NH+]2CCN(C(=O)c3ccccc3)CC2)ccc1C (nonaromatic ring conformer: 166.61391161344193 kcal/mol)

>  <smiles>  (46) 
C=c1c(=Cc2[nH]c(=O)[nH]c2O)cc(C)n1Cc1cc(C(=O)N2CCN(C(=O)c3ccccc3)CC2)ccc1C

>  <score_type>  (46) 
oracle

>  <origin>  (46) 
adg

>  <m_score__min__energy>  (46) 
-18.09

>  <m_primary>  (46) 
energy

$$$$
46:0
     RDKit          3D

 43 45  0  0  0  0  0  0  0  0999 V2000
   52.3950   30.2750   48.4980 H   0  0  0  0  0  0  0  0  0  0  0  0
   51.7420   30.1130   49.2550 O   0  0  0  0  0  0  0  0  0  0  0  0
   51.7120   30.9370   50.3770 C   0  0  0  0  0  0  0  0  0  0  0  0
   50.8580   31.9630   50.5190 N   0  0  0  0  0  0  0  0  0  0  0  0
   51.2030   32.4720   51.7210 C   0  0  0  0  0  0  0  0  0  0  0  0
   50.6250   33.4720   52.2230 O   0  0  0  0  0  0  0  0  0  0  0  0
   52.2200   31.8340   52.3370 N   0  0  0  0  0  0  0  0  0  0  0  0
   52.5250   30.8380   51.4850 C   0  0  0  0  0  0  0  0  0  0  0  0
   53.6700   29.9270   51.6450 C   0  0  0  0  0  0  0  0  0  0  0  0
   53.5699   28.9142   51.2275 H   0  0  0  0  0  0  0  0  0  0  0  0
   54.8310   30.2290   52.2600 C   0  0  0  0  0  0  0  0  0  0  0  0
   55.7050   31.1870   51.7770 C   0  0  0  0  0  0  0  0  0  0  0  0
   55.5956   31.7646   50.8472 H   0  0  0  0  0  0  0  0  0  0  0  0
   56.7390   31.2790   52.6840 C   0  0  0  0  0  0  0  0  0  0  0  0
   57.8710   32.2110   52.5490 C   0  0  0  0  0  0  0  0  0  0  0  0
   58.2520   32.8570   53.5610 O   0  0  0  0  0  0  0  0  0  0  0  0
   58.5170   32.4190   51.2820 N   0  0  0  0  0  0  0  0  0  0  0  0
   58.3310   31.5520   50.1300 C   0  0  0  0  0  0  0  0  0  0  0  0
   58.8817   30.6095   50.2657 H   0  0  0  0  0  0  0  0  0  0  0  0
   57.2730   31.2879   49.9854 H   0  0  0  0  0  0  0  0  0  0  0  0
   58.8870   32.3270   48.9410 C   0  0  0  0  0  0  0  0  0  0  0  0
   59.4740   31.6629   48.2896 H   0  0  0  0  0  0  0  0  0  0  0  0
   58.0852   32.7557   48.3218 H   0  0  0  0  0  0  0  0  0  0  0  0
   59.7860   33.4180   49.5470 C   0  0  1  0  0  0  0  0  0  0  0  0
   60.8390   33.1006   49.5250 H   0  0  0  0  0  0  0  0  0  0  0  0
   59.7650   34.6810   48.7880 N   0  0  0  0  0  0  0  0  0  0  0  0
   59.2110   35.4020   49.3080 H   0  0  0  0  0  0  0  0  0  0  0  0
   59.1610   34.4990   47.4660 C   0  0  0  0  0  0  0  0  0  0  0  0
   58.1136   34.1834   47.5817 H   0  0  0  0  0  0  0  0  0  0  0  0
   59.1988   35.4484   46.9118 H   0  0  0  0  0  0  0  0  0  0  0  0
   59.7170   33.7285   46.9118 H   0  0  0  0  0  0  0  0  0  0  0  0
   59.2590   33.6270   50.9670 C   0  0  0  0  0  0  0  0  0  0  0  0
   60.0929   33.7617   51.6716 H   0  0  0  0  0  0  0  0  0  0  0  0
   58.6299   34.5262   51.0428 H   0  0  0  0  0  0  0  0  0  0  0  0
   56.5490   30.4150   53.7080 N   0  0  0  0  0  0  0  0  0  0  0  0
   57.4010   30.2610   54.8930 C   0  0  0  0  0  0  0  0  0  0  0  0
   56.7898   30.3715   55.8009 H   0  0  0  0  0  0  0  0  0  0  0  0
   57.8661   29.2642   54.8832 H   0  0  0  0  0  0  0  0  0  0  0  0
   58.1856   31.0319   54.8832 H   0  0  0  0  0  0  0  0  0  0  0  0
   55.4070   29.7320   53.4410 C   0  0  0  0  0  0  0  0  0  0  0  0
   55.0070   28.6660   54.1520 C   0  0  0  0  0  0  0  0  0  0  0  0
   55.5484   28.3797   55.0658 H   0  0  0  0  0  0  0  0  0  0  0  0
   54.1378   28.0787   53.8209 H   0  0  0  0  0  0  0  0  0  0  0  0
  1  2  1  0
  2  3  1  0
  3  4  1  0
  4  5  1  0
  5  6  2  0
  5  7  1  0
  7  8  1  0
  8  9  1  0
  9 10  1  0
  9 11  2  0
 11 12  1  0
 12 13  1  0
 12 14  2  0
 14 15  1  0
 15 16  2  0
 15 17  1  0
 17 18  1  0
 18 19  1  0
 18 20  1  0
 18 21  1  0
 21 22  1  0
 21 23  1  0
 21 24  1  0
 24 25  1  1
 24 26  1  0
 26 27  1  0
 26 28  1  0
 28 29  1  0
 28 30  1  0
 28 31  1  0
 24 32  1  0
 32 33  1  0
 32 34  1  0
 14 35  1  0
 35 36  1  0
 36 37  1  0
 36 38  1  0
 36 39  1  0
 35 40  1  0
 40 41  2  0
 41 42  1  0
 41 43  1  0
  8  3  2  0
 40 11  1  0
 32 17  1  0
M  CHG  2   4  -1   7  -1
M  END
>  <UniqueID>  (47) 
47

>  <SMILES>  (47) 
C=c1/c(=C\c2[n-]c(=O)[n-]c2O)cc(C(=O)N2CC[C@@H](NC)C2)n1C

>  <Energy>  (47) 
117.70248118569397

>  <Genealogy>  (47) 
C=c1c(=Cc2[n-]c(=O)[n-]c2O)cc(C(=O)N2CCC(NC)C2)n1C (protonated)
C=c1c(=Cc2[n-]c(=O)[n-]c2O)cc(C(=O)N2CC[C@@H](NC)C2)n1C (chirality)
C=c1/c(=C\c2[n-]c(=O)[n-]c2O)cc(C(=O)N2CC[C@@H](NC)C2)n1C (cis-trans isomerization)
C=c1/c(=C\c2[n-]c(=O)[n-]c2O)cc(C(=O)N2CC[C@@H](NC)C2)n1C (3D coordinates assigned)
C=c1/c(=C\c2[n-]c(=O)[n-]c2O)cc(C(=O)N2CC[C@@H](NC)C2)n1C (nonaromatic ring conformer: 117.70248118569397 kcal/mol)

>  <smiles>  (47) 
C=c1c(=Cc2[nH]c(=O)[nH]c2O)cc(C(=O)N2CCC(NC)C2)n1C

>  <score_type>  (47) 
oracle

>  <origin>  (47) 
adg

>  <m_score__min__energy>  (47) 
-12.27

>  <m_primary>  (47) 
energy

$$$$
47:0
     RDKit          3D

 46 49  0  0  0  0  0  0  0  0999 V2000
   62.1220   31.3780   52.0080 N   0  0  0  0  0  0  0  0  0  0  0  0
   61.0770   32.7320   52.2540 S   0  0  0  0  0  0  0  0  0  0  0  0
   61.4740   33.8540   51.3360 O   0  0  0  0  0  0  0  0  0  0  0  0
   61.2270   33.1900   53.6790 O   0  0  0  0  0  0  0  0  0  0  0  0
   59.3960   32.2630   51.9440 C   0  0  0  0  0  0  0  0  0  0  0  0
   58.4770   32.2960   53.0020 C   0  0  0  0  0  0  0  0  0  0  0  0
   57.1620   31.8630   52.8180 C   0  0  0  0  0  0  0  0  0  0  0  0
   56.7450   31.3700   51.5790 C   0  0  0  0  0  0  0  0  0  0  0  0
   55.3820   30.9450   51.4330 N   0  0  0  0  0  0  0  0  0  0  0  0
   54.4950   30.5500   52.4860 C   0  0  0  0  0  0  0  0  0  0  0  0
   54.8560   29.7090   53.3550 O   0  0  0  0  0  0  0  0  0  0  0  0
   53.1660   31.2210   52.6180 C   0  0  0  0  0  0  0  0  0  0  0  0
   52.4270   31.1520   51.3200 C   0  0  0  0  0  0  0  0  0  0  0  0
   52.5830   29.9210   50.1780 S   0  0  0  0  0  0  0  0  0  0  0  0
   51.3980   30.5800   49.1860 C   0  0  0  0  0  0  0  0  0  0  0  0
   51.0340   30.0810   48.0900 O   0  0  0  0  0  0  0  0  0  0  0  0
   50.8630   31.7110   49.6930 N   0  0  0  0  0  0  0  0  0  0  0  0
   51.4320   32.0260   50.8860 C   0  0  0  0  0  0  0  0  0  0  0  0
   51.0350   33.1410   51.6120 O   0  0  0  0  0  0  0  0  0  0  0  0
   57.6460   31.3660   50.5020 C   0  0  0  0  0  0  0  0  0  0  0  0
   58.9650   31.8160   50.6720 C   0  0  0  0  0  0  0  0  0  0  0  0
   59.8570   31.8330   49.5000 C   0  0  0  0  0  0  0  0  0  0  0  0
   60.7250   30.9290   49.3730 O   0  0  0  0  0  0  0  0  0  0  0  0
   59.6990   32.8330   48.4830 N   0  0  0  0  0  0  0  0  0  0  0  0
   60.0670   34.2400   48.6560 C   0  0  0  0  0  0  0  0  0  0  0  0
   59.5480   34.9760   47.3970 C   0  0  0  0  0  0  0  0  0  0  0  0
   58.8870   33.8960   46.6130 C   0  0  0  0  0  0  0  0  0  0  0  0
   58.2600   34.0000   45.3700 C   0  0  0  0  0  0  0  0  0  0  0  0
   57.7350   32.8360   44.7860 C   0  0  0  0  0  0  0  0  0  0  0  0
   57.8550   31.5970   45.4440 C   0  0  0  0  0  0  0  0  0  0  0  0
   58.4940   31.5170   46.6920 C   0  0  0  0  0  0  0  0  0  0  0  0
   58.9910   32.6950   47.2610 C   0  0  0  0  0  0  0  0  0  0  0  0
   61.6570   30.7540   51.3100 H   0  0  0  0  0  0  0  0  0  0  0  0
   58.7949   32.6669   53.9876 H   0  0  0  0  0  0  0  0  0  0  0  0
   56.4494   31.9105   53.6546 H   0  0  0  0  0  0  0  0  0  0  0  0
   52.5787   30.7156   53.3988 H   0  0  0  0  0  0  0  0  0  0  0  0
   53.3195   32.2756   52.8904 H   0  0  0  0  0  0  0  0  0  0  0  0
   57.3154   31.0070   49.5162 H   0  0  0  0  0  0  0  0  0  0  0  0
   59.5939   34.6501   49.5604 H   0  0  0  0  0  0  0  0  0  0  0  0
   61.1542   34.3602   48.7728 H   0  0  0  0  0  0  0  0  0  0  0  0
   58.8279   35.7617   47.6693 H   0  0  0  0  0  0  0  0  0  0  0  0
   60.3467   35.4851   46.8376 H   0  0  0  0  0  0  0  0  0  0  0  0
   58.1791   34.9713   44.8600 H   0  0  0  0  0  0  0  0  0  0  0  0
   57.2283   32.8923   43.8113 H   0  0  0  0  0  0  0  0  0  0  0  0
   57.4465   30.6879   44.9786 H   0  0  0  0  0  0  0  0  0  0  0  0
   58.6012   30.5523   47.2095 H   0  0  0  0  0  0  0  0  0  0  0  0
  1  2  1  0
  2  3  2  0
  2  4  2  0
  2  5  1  0
  5  6  2  0
  6  7  1  0
  7  8  2  0
  8  9  1  0
  9 10  1  0
 10 11  2  0
 10 12  1  0
 12 13  1  0
 13 14  1  0
 14 15  1  0
 15 16  2  0
 15 17  1  0
 17 18  1  0
 18 19  1  0
  8 20  1  0
 20 21  2  0
 21 22  1  0
 22 23  2  0
 22 24  1  0
 24 25  1  0
 25 26  1  0
 26 27  1  0
 27 28  2  0
 28 29  1  0
 29 30  2  0
 30 31  1  0
 31 32  2  0
 21  5  1  0
 32 24  1  0
 18 13  2  0
 32 27  1  0
  1 33  1  0
  6 34  1  0
  7 35  1  0
 12 36  1  0
 12 37  1  0
 20 38  1  0
 25 39  1  0
 25 40  1  0
 26 41  1  0
 26 42  1  0
 28 43  1  0
 29 44  1  0
 30 45  1  0
 31 46  1  0
M  CHG  4   1  -1   9  -1  17  -1  19  -1
M  END
>  <UniqueID>  (48) 
48

>  <SMILES>  (48) 
[NH-]S(=O)(=O)c1ccc([N-]C(=O)Cc2sc(=O)[n-]c2[O-])cc1C(=O)N1CCc2ccccc21

>  <Energy>  (48) 
105.12675109381024

>  <Genealogy>  (48) 
[NH-]S(=O)(=O)c1ccc([N-]C(=O)Cc2sc(=O)[n-]c2[O-])cc1C(=O)N1CCc2ccccc21 (protonated)
[NH-]S(=O)(=O)c1ccc([N-]C(=O)Cc2sc(=O)[n-]c2[O-])cc1C(=O)N1CCc2ccccc21 (3D coordinates assigned)
[NH-]S(=O)(=O)c1ccc([N-]C(=O)Cc2sc(=O)[n-]c2[O-])cc1C(=O)N1CCc2ccccc21 (nonaromatic ring conformer: 105.12675109381024 kcal/mol)

>  <smiles>  (48) 
NS(=O)(=O)c1ccc(NC(=O)Cc2sc(=O)[nH]c2O)cc1C(=O)N1CCc2ccccc21

>  <score_type>  (48) 
oracle

>  <origin>  (48) 
adg

>  <m_score__min__energy>  (48) 
-17.920000000000002

>  <m_primary>  (48) 
energy

$$$$
48:0
     RDKit          3D

 59 63  0  0  0  0  0  0  0  0999 V2000
   57.9540   29.4550   53.9050 C   0  0  0  0  0  0  0  0  0  0  0  0
   58.3350   30.0460   52.5840 C   0  0  0  0  0  0  0  0  0  0  0  0
   58.7740   29.2890   51.5460 N   0  0  0  0  0  0  0  0  0  0  0  0
   58.9750   30.1950   50.5700 C   0  0  0  0  0  0  0  0  0  0  0  0
   59.4050   29.9610   49.2590 C   0  0  0  0  0  0  0  0  0  0  0  0
   59.6900   28.5760   48.7450 C   0  0  0  0  0  0  0  0  0  0  0  0
   59.1920   28.4410   47.3320 C   0  0  0  0  0  0  0  0  0  0  0  0
   57.9370   27.8660   47.0770 C   0  0  0  0  0  0  0  0  0  0  0  0
   57.4430   27.7970   45.7710 C   0  0  0  0  0  0  0  0  0  0  0  0
   58.1950   28.3120   44.7050 C   0  0  0  0  0  0  0  0  0  0  0  0
   57.6870   28.2490   43.3690 N   0  0  0  0  0  0  0  0  0  0  0  0
   59.4440   28.8960   44.9570 C   0  0  0  0  0  0  0  0  0  0  0  0
   59.9390   28.9620   46.2620 C   0  0  0  0  0  0  0  0  0  0  0  0
   59.4870   31.0750   48.3980 C   0  0  0  0  0  0  0  0  0  0  0  0
   59.1250   32.3720   48.8390 C   0  0  0  0  0  0  0  0  0  0  0  0
   59.1490   33.5070   47.8930 C   0  0  0  0  0  0  0  0  0  0  0  0
   59.5710   34.6320   48.2760 O   0  0  0  0  0  0  0  0  0  0  0  0
   58.7060   33.3430   46.5360 N   0  0  0  0  0  0  0  0  0  0  0  0
   57.3890   32.7660   46.2450 C   0  0  0  0  0  0  0  0  0  0  0  0
   57.4710   31.9560   44.9550 C   0  0  0  0  0  0  0  0  0  0  0  0
   57.8690   32.8160   43.8180 N   0  0  0  0  0  0  0  0  0  0  0  0
   58.1320   32.1700   42.5080 C   0  0  0  0  0  0  0  0  0  0  0  0
   57.0440   31.2060   42.0500 C   0  0  0  0  0  0  0  0  0  0  0  0
   57.2580   32.5160   41.3020 C   0  0  0  0  0  0  0  0  0  0  0  0
   58.8320   33.9060   44.1230 C   0  0  0  0  0  0  0  0  0  0  0  0
   59.6080   33.6950   45.4340 C   0  0  0  0  0  0  0  0  0  0  0  0
   58.7230   32.5670   50.1800 C   0  0  0  0  0  0  0  0  0  0  0  0
   58.6640   31.4490   51.0130 C   0  0  0  0  0  0  0  0  0  0  0  0
   58.2730   31.3720   52.2960 N   0  0  0  0  0  0  0  0  0  0  0  0
   57.7570   32.4530   53.1360 C   0  0  0  0  0  0  0  0  0  0  0  0
   58.3567   30.0796   54.7160 H   0  0  0  0  0  0  0  0  0  0  0  0
   56.8578   29.4121   53.9850 H   0  0  0  0  0  0  0  0  0  0  0  0
   58.3675   28.4388   53.9850 H   0  0  0  0  0  0  0  0  0  0  0  0
   60.7747   28.3945   48.7682 H   0  0  0  0  0  0  0  0  0  0  0  0
   59.1759   27.8409   49.3816 H   0  0  0  0  0  0  0  0  0  0  0  0
   57.3388   27.4674   47.9096 H   0  0  0  0  0  0  0  0  0  0  0  0
   56.4621   27.3377   45.5790 H   0  0  0  0  0  0  0  0  0  0  0  0
   58.0390   28.8990   42.6320 H   0  0  0  0  0  0  0  0  0  0  0  0
   56.9540   27.5510   43.1090 H   0  0  0  0  0  0  0  0  0  0  0  0
   60.0365   29.3037   44.1247 H   0  0  0  0  0  0  0  0  0  0  0  0
   60.9187   29.4243   46.4527 H   0  0  0  0  0  0  0  0  0  0  0  0
   59.8384   30.9344   47.3652 H   0  0  0  0  0  0  0  0  0  0  0  0
   57.0837   32.1094   47.0731 H   0  0  0  0  0  0  0  0  0  0  0  0
   56.6495   33.5720   46.1292 H   0  0  0  0  0  0  0  0  0  0  0  0
   58.2148   31.1551   45.0789 H   0  0  0  0  0  0  0  0  0  0  0  0
   56.4796   31.5289   44.7436 H   0  0  0  0  0  0  0  0  0  0  0  0
   59.2210   32.1484   42.6618 H   0  0  0  0  0  0  0  0  0  0  0  0
   57.3190   30.2519   41.5767 H   0  0  0  0  0  0  0  0  0  0  0  0
   56.1840   30.7194   42.5333 H   0  0  0  0  0  0  0  0  0  0  0  0
   57.6887   32.5077   40.2898 H   0  0  0  0  0  0  0  0  0  0  0  0
   56.6184   33.3662   41.0225 H   0  0  0  0  0  0  0  0  0  0  0  0
   59.5559   33.9712   43.2974 H   0  0  0  0  0  0  0  0  0  0  0  0
   58.2462   34.8296   44.2407 H   0  0  0  0  0  0  0  0  0  0  0  0
   60.3357   32.8823   45.2929 H   0  0  0  0  0  0  0  0  0  0  0  0
   60.1192   34.6347   45.6902 H   0  0  0  0  0  0  0  0  0  0  0  0
   58.4648   33.5683   50.5551 H   0  0  0  0  0  0  0  0  0  0  0  0
   57.8842   32.1865   54.1956 H   0  0  0  0  0  0  0  0  0  0  0  0
   58.3100   33.3795   52.9220 H   0  0  0  0  0  0  0  0  0  0  0  0
   56.6889   32.6057   52.9220 H   0  0  0  0  0  0  0  0  0  0  0  0
  1  2  1  0
  2  3  2  0
  3  4  1  0
  4  5  2  0
  5  6  1  0
  6  7  1  0
  7  8  2  0
  8  9  1  0
  9 10  2  0
 10 11  1  0
 10 12  1  0
 12 13  2  0
  5 14  1  0
 14 15  2  0
 15 16  1  0
 16 17  2  0
 16 18  1  0
 18 19  1  0
 19 20  1  0
 20 21  1  0
 21 22  1  0
 22 23  1  0
 23 24  1  0
 21 25  1  0
 25 26  1  0
 15 27  1  0
 27 28  2  0
 28 29  1  0
 29 30  1  0
 29  2  1  0
 28  4  1  0
 13  7  1  0
 26 18  1  0
 24 22  1  0
  1 31  1  0
  1 32  1  0
  1 33  1  0
  6 34  1  0
  6 35  1  0
  8 36  1  0
  9 37  1  0
 11 38  1  0
 11 39  1  0
 12 40  1  0
 13 41  1  0
 14 42  1  0
 19 43  1  0
 19 44  1  0
 20 45  1  0
 20 46  1  0
 22 47  1  0
 23 48  1  0
 23 49  1  0
 24 50  1  0
 24 51  1  0
 25 52  1  0
 25 53  1  0
 26 54  1  0
 26 55  1  0
 27 56  1  0
 30 57  1  0
 30 58  1  0
 30 59  1  0
M  END
>  <UniqueID>  (49) 
49

>  <SMILES>  (49) 
Cc1nc2c(Cc3ccc(N)cc3)cc(C(=O)N3CCN(C4CC4)CC3)cc2n1C

>  <Energy>  (49) 
380.27366814788184

>  <Genealogy>  (49) 
Cc1nc2c(Cc3ccc(N)cc3)cc(C(=O)N3CCN(C4CC4)CC3)cc2n1C (3D coordinates assigned)
Cc1nc2c(Cc3ccc(N)cc3)cc(C(=O)N3CCN(C4CC4)CC3)cc2n1C (nonaromatic ring conformer: 380.27366814788184 kcal/mol)

>  <smiles>  (49) 
Cc1nc2c(Cc3ccc(N)cc3)cc(C(=O)N3CCN(C4CC4)CC3)cc2n1C

>  <score_type>  (49) 
oracle

>  <origin>  (49) 
adg

>  <m_score__min__energy>  (49) 
-8.4800000000000004

>  <m_primary>  (49) 
energy

$$$$
49:0
     RDKit          3D

 56 59  0  0  0  0  0  0  0  0999 V2000
   51.2700   32.3200   51.3130 N   0  0  0  0  0  0  0  0  0  0  0  0
   51.6990   30.6630   51.5510 S   0  0  0  0  0  0  0  0  0  0  0  0
   51.7880   29.9700   50.2200 O   0  0  0  0  0  0  0  0  0  0  0  0
   50.6390   29.9880   52.3760 O   0  0  0  0  0  0  0  0  0  0  0  0
   53.2520   30.5710   52.3740 C   0  0  0  0  0  0  0  0  0  0  0  0
   53.3720   29.8720   53.5830 C   0  0  0  0  0  0  0  0  0  0  0  0
   54.6050   29.8080   54.2350 C   0  0  0  0  0  0  0  0  0  0  0  0
   55.7230   30.4440   53.6890 C   0  0  0  0  0  0  0  0  0  0  0  0
   55.6190   31.1580   52.4820 C   0  0  0  0  0  0  0  0  0  0  0  0
   56.8050   31.8410   51.9070 C   0  0  0  0  0  0  0  0  0  0  0  0
   57.2350   33.0740   52.4040 C   0  0  0  0  0  0  0  0  0  0  0  0
   58.3600   33.6940   51.8610 C   0  0  0  0  0  0  0  0  0  0  0  0
   59.0980   33.1000   50.8610 N   0  0  0  0  0  0  0  0  0  0  0  0
   60.3420   33.7230   50.3060 C   0  0  2  0  0  0  0  0  0  0  0  0
   60.1490   34.3950   48.9040 C   0  0  0  0  0  0  0  0  0  0  0  0
   60.0990   33.5120   47.6260 C   0  0  0  0  0  0  0  0  0  0  0  0
   58.6890   33.2520   47.0960 C   0  0  0  0  0  0  0  0  0  0  0  0
   58.3490   34.4410   46.2110 C   0  0  0  0  0  0  0  0  0  0  0  0
   59.6820   35.0200   45.7430 C   0  0  0  0  0  0  0  0  0  0  0  0
   60.7780   34.2340   46.4580 C   0  0  0  0  0  0  0  0  0  0  0  0
   61.6130   32.8600   50.3710 C   0  0  0  0  0  0  0  0  0  0  0  0
   61.6380   31.6310   51.0640 C   0  0  0  0  0  0  0  0  0  0  0  0
   62.7860   30.8370   51.0790 C   0  0  0  0  0  0  0  0  0  0  0  0
   63.9310   31.2490   50.4000 C   0  0  0  0  0  0  0  0  0  0  0  0
   63.9340   32.4620   49.7050 C   0  0  0  0  0  0  0  0  0  0  0  0
   65.0770   32.8820   49.0250 O   0  0  0  0  0  0  0  0  0  0  0  0
   62.7850   33.2630   49.6870 C   0  0  0  0  0  0  0  0  0  0  0  0
   62.8230   34.4330   48.9970 F   0  0  0  0  0  0  0  0  0  0  0  0
   58.6210   31.9300   50.3030 C   0  0  0  0  0  0  0  0  0  0  0  0
   59.1650   31.4290   49.2810 O   0  0  0  0  0  0  0  0  0  0  0  0
   57.5020   31.2800   50.8350 C   0  0  0  0  0  0  0  0  0  0  0  0
   54.3720   31.2150   51.8310 C   0  0  0  0  0  0  0  0  0  0  0  0
   50.3080   32.3300   50.9040 H   0  0  0  0  0  0  0  0  0  0  0  0
   52.4937   29.3732   54.0187 H   0  0  0  0  0  0  0  0  0  0  0  0
   54.6966   29.2551   55.1815 H   0  0  0  0  0  0  0  0  0  0  0  0
   56.6916   30.3857   54.2071 H   0  0  0  0  0  0  0  0  0  0  0  0
   56.6850   33.5567   53.2253 H   0  0  0  0  0  0  0  0  0  0  0  0
   58.6652   34.6805   52.2401 H   0  0  0  0  0  0  0  0  0  0  0  0
   60.5307   34.5368   51.0216 H   0  0  0  0  0  0  0  0  0  0  0  0
   59.2006   34.9508   48.9447 H   0  0  0  0  0  0  0  0  0  0  0  0
   61.0698   34.9823   48.7731 H   0  0  0  0  0  0  0  0  0  0  0  0
   60.5816   32.5733   47.9358 H   0  0  0  0  0  0  0  0  0  0  0  0
   58.6661   32.3209   46.5108 H   0  0  0  0  0  0  0  0  0  0  0  0
   57.9644   33.1393   47.9159 H   0  0  0  0  0  0  0  0  0  0  0  0
   57.7510   34.1146   45.3474 H   0  0  0  0  0  0  0  0  0  0  0  0
   57.7567   35.1901   46.7569 H   0  0  0  0  0  0  0  0  0  0  0  0
   59.7831   34.9059   44.6536 H   0  0  0  0  0  0  0  0  0  0  0  0
   59.7499   36.0932   45.9747 H   0  0  0  0  0  0  0  0  0  0  0  0
   61.2324   33.5042   45.7718 H   0  0  0  0  0  0  0  0  0  0  0  0
   61.5801   34.8986   46.8115 H   0  0  0  0  0  0  0  0  0  0  0  0
   60.7390   31.2935   51.6006 H   0  0  0  0  0  0  0  0  0  0  0  0
   62.7868   29.8839   51.6281 H   0  0  0  0  0  0  0  0  0  0  0  0
   64.8330   30.6195   50.4109 H   0  0  0  0  0  0  0  0  0  0  0  0
   65.1800   32.7420   48.0260 H   0  0  0  0  0  0  0  0  0  0  0  0
   57.1699   30.3227   50.4068 H   0  0  0  0  0  0  0  0  0  0  0  0
   54.2758   31.7707   50.8866 H   0  0  0  0  0  0  0  0  0  0  0  0
  1  2  1  0
  2  3  2  0
  2  4  2  0
  2  5  1  0
  5  6  2  0
  6  7  1  0
  7  8  2  0
  8  9  1  0
  9 10  1  0
 10 11  1  0
 11 12  2  0
 12 13  1  0
 13 14  1  0
 14 15  1  0
 15 16  1  0
 16 17  1  0
 17 18  1  0
 18 19  1  0
 19 20  1  0
 14 21  1  0
 21 22  2  0
 22 23  1  0
 23 24  2  0
 24 25  1  0
 25 26  1  0
 25 27  2  0
 27 28  1  0
 13 29  1  0
 29 30  2  0
 29 31  1  0
  9 32  2  0
 32  5  1  0
 31 10  2  0
 20 16  1  0
 27 21  1  0
  1 33  1  0
  6 34  1  0
  7 35  1  0
  8 36  1  0
 11 37  1  0
 12 38  1  0
 14 39  1  1
 15 40  1  0
 15 41  1  0
 16 42  1  0
 17 43  1  0
 17 44  1  0
 18 45  1  0
 18 46  1  0
 19 47  1  0
 19 48  1  0
 20 49  1  0
 20 50  1  0
 22 51  1  0
 23 52  1  0
 24 53  1  0
 26 54  1  0
 31 55  1  0
 32 56  1  0
M  CHG  1   1  -1
M  END
>  <UniqueID>  (50) 
50

>  <SMILES>  (50) 
[NH-]S(=O)(=O)c1cccc(-c2ccn([C@H](CC3CCCC3)c3cccc(O)c3F)c(=O)c2)c1

>  <Energy>  (50) 
83.33096124085034

>  <Genealogy>  (50) 
[NH-]S(=O)(=O)c1cccc(-c2ccn(C(CC3CCCC3)c3cccc(O)c3F)c(=O)c2)c1 (protonated)
[NH-]S(=O)(=O)c1cccc(-c2ccn([C@H](CC3CCCC3)c3cccc(O)c3F)c(=O)c2)c1 (chirality)
[NH-]S(=O)(=O)c1cccc(-c2ccn([C@H](CC3CCCC3)c3cccc(O)c3F)c(=O)c2)c1 (3D coordinates assigned)
[NH-]S(=O)(=O)c1cccc(-c2ccn([C@H](CC3CCCC3)c3cccc(O)c3F)c(=O)c2)c1 (nonaromatic ring conformer: 83.33096124085034 kcal/mol)

>  <smiles>  (50) 
NS(=O)(=O)c1cccc(-c2ccn(C(CC3CCCC3)c3cccc(O)c3F)c(=O)c2)c1

>  <score_type>  (50) 
oracle

>  <origin>  (50) 
adg

>  <m_score__min__energy>  (50) 
-12.76

>  <m_primary>  (50) 
energy

$$$$
50:0
     RDKit          3D

 26 26  0  0  1  0  0  0  0  0999 V2000
   56.4160   29.8760   42.4720 N   0  0  0  0  0  0  0  0  0  0  0  0
   56.4430   29.9740   44.1990 S   0  0  0  0  0  0  0  0  0  0  0  0
   56.5110   31.3860   44.6890 O   0  0  0  0  0  0  0  0  0  0  0  0
   55.1570   29.3860   44.7010 O   0  0  0  0  0  0  0  0  0  0  0  0
   57.8320   29.1140   44.8240 C   0  0  0  0  0  0  0  0  0  0  0  0
   58.9790   29.8450   45.0440 C   0  0  0  0  0  0  0  0  0  0  0  0
   60.0660   29.1560   45.5340 C   0  0  0  0  0  0  0  0  0  0  0  0
   59.9760   27.7810   45.7870 C   0  0  0  0  0  0  0  0  0  0  0  0
   58.8560   27.0450   45.5820 C   0  0  0  0  0  0  0  0  0  0  0  0
   57.7040   25.2190   46.7800 C   0  0  0  0  0  0  0  0  0  0  0  0
   56.2790   25.1730   46.7020 C   0  0  0  0  0  0  0  0  0  0  0  0
   58.5640   25.6870   45.9260 C   0  0  0  0  0  0  0  0  0  0  0  0
   55.3920   24.2440   47.1800 O   0  0  0  0  0  0  0  0  0  0  0  0
   55.7060   26.1750   46.0760 N   0  0  0  0  0  0  0  0  0  0  0  0
   54.3810   26.3360   45.9040 O   0  0  0  0  0  0  0  0  0  0  0  0
   57.7520   27.7690   45.0760 C   0  0  0  0  0  0  0  0  0  0  0  0
   55.6470   29.2060   42.2420 H   0  0  0  0  0  0  0  0  0  0  0  0
   57.3360   29.4280   42.1940 H   0  0  0  0  0  0  0  0  0  0  0  0
   59.0242   30.9247   44.8386 H   0  0  0  0  0  0  0  0  0  0  0  0
   61.0093   29.6877   45.7277 H   0  0  0  0  0  0  0  0  0  0  0  0
   60.8679   27.2675   46.1754 H   0  0  0  0  0  0  0  0  0  0  0  0
   59.1535   24.9291   45.3893 H   0  0  0  0  0  0  0  0  0  0  0  0
   58.1374   24.7960   47.6982 H   0  0  0  0  0  0  0  0  0  0  0  0
   54.3860   24.4410   47.3070 H   0  0  0  0  0  0  0  0  0  0  0  0
   53.6840   25.7410   46.3700 H   0  0  0  0  0  0  0  0  0  0  0  0
   56.8072   27.2408   44.8801 H   0  0  0  0  0  0  0  0  0  0  0  0
  1  2  1  0
  2  3  2  0
  2  4  2  0
  2  5  1  0
  5  6  2  0
  6  7  1  0
  7  8  2  0
  8  9  1  0
  9 10  1  0
 10 11  2  0
 11 12  1  0
 12 13  1  0
 12 14  2  0
 14 15  1  0
  9 16  2  0
 16  5  1  0
  1 17  1  0
  1 18  1  0
  6 19  1  0
  7 20  1  0
  8 21  1  0
 10 22  1  0
 11 23  1  0
 13 24  1  0
 15 25  1  0
 16 26  1  0
M  END
>  <smiles>  (51) 
NS(=O)(=O)c1cccc(C=CC(O)=NO)c1

>  <score_type>  (51) 
oracle

>  <origin>  (51) 
adg

>  <m_score__min__energy>  (51) 
-8.6899999999999995

>  <m_primary>  (51) 
energy

$$$$
51:0
     RDKit          3D

 45 48  0  0  0  0  0  0  0  0999 V2000
   54.6970   29.3540   43.5440 O   0  0  0  0  0  0  0  0  0  0  0  0
   55.7050   29.4350   44.2930 C   0  0  0  0  0  0  0  0  0  0  0  0
   55.9210   28.3990   45.2620 N   0  0  0  0  0  0  0  0  0  0  0  0
   57.0380   27.4630   45.2660 C   0  0  0  0  0  0  0  0  0  0  0  0
   58.3100   28.2090   45.5510 C   0  0  0  0  0  0  0  0  0  0  0  0
   59.3640   28.1940   44.6210 C   0  0  0  0  0  0  0  0  0  0  0  0
   60.5340   28.9170   44.8740 C   0  0  0  0  0  0  0  0  0  0  0  0
   60.6560   29.6670   46.0480 C   0  0  0  0  0  0  0  0  0  0  0  0
   59.6060   29.6980   46.9690 C   0  0  0  0  0  0  0  0  0  0  0  0
   58.4330   28.9770   46.7210 C   0  0  0  0  0  0  0  0  0  0  0  0
   56.6180   30.5880   44.1440 C   0  0  0  0  0  0  0  0  0  0  0  0
   57.0550   31.1140   42.9430 C   0  0  0  0  0  0  0  0  0  0  0  0
   57.8810   32.1690   43.2690 C   0  0  0  0  0  0  0  0  0  0  0  0
   57.8960   32.2200   44.6520 C   0  0  0  0  0  0  0  0  0  0  0  0
   58.6350   33.1780   45.4910 C   0  0  0  0  0  0  0  0  0  0  0  0
   59.1480   34.3880   45.0180 C   0  0  0  0  0  0  0  0  0  0  0  0
   59.9110   35.1670   46.3020 S   0  0  0  0  0  0  0  0  0  0  0  0
   59.5630   33.9380   47.4020 C   0  0  0  0  0  0  0  0  0  0  0  0
   59.8810   33.9070   48.6640 N   0  0  0  0  0  0  0  0  0  0  0  0
   60.7390   32.9630   49.3290 C   0  0  0  0  0  0  0  0  0  0  0  0
   60.3430   32.3280   50.3430 O   0  0  0  0  0  0  0  0  0  0  0  0
   62.1680   32.8190   48.8740 C   0  0  0  0  0  0  0  0  0  0  0  0
   62.8010   34.1200   48.3770 C   0  0  0  0  0  0  0  0  0  0  0  0
   62.9750   33.5080   46.9940 C   0  0  0  0  0  0  0  0  0  0  0  0
   62.3270   32.2190   47.4760 C   0  0  0  0  0  0  0  0  0  0  0  0
   58.8710   32.9410   46.8120 N   0  0  0  0  0  0  0  0  0  0  0  0
   57.1360   31.2680   45.1400 O   0  0  0  0  0  0  0  0  0  0  0  0
   56.8766   26.7016   46.0433 H   0  0  0  0  0  0  0  0  0  0  0  0
   57.1108   26.9722   44.2843 H   0  0  0  0  0  0  0  0  0  0  0  0
   59.2683   27.6123   43.6923 H   0  0  0  0  0  0  0  0  0  0  0  0
   61.3601   28.8957   44.1480 H   0  0  0  0  0  0  0  0  0  0  0  0
   61.5785   30.2324   46.2462 H   0  0  0  0  0  0  0  0  0  0  0  0
   59.7017   30.2904   47.8909 H   0  0  0  0  0  0  0  0  0  0  0  0
   57.6047   29.0115   47.4440 H   0  0  0  0  0  0  0  0  0  0  0  0
   56.7966   30.7628   41.9331 H   0  0  0  0  0  0  0  0  0  0  0  0
   58.4168   32.8324   42.5741 H   0  0  0  0  0  0  0  0  0  0  0  0
   59.0678   34.7658   43.9880 H   0  0  0  0  0  0  0  0  0  0  0  0
   62.5729   32.2986   49.7545 H   0  0  0  0  0  0  0  0  0  0  0  0
   62.1243   34.9869   48.4024 H   0  0  0  0  0  0  0  0  0  0  0  0
   63.6617   34.5570   48.9044 H   0  0  0  0  0  0  0  0  0  0  0  0
   62.4123   34.0235   46.2018 H   0  0  0  0  0  0  0  0  0  0  0  0
   63.9664   33.4861   46.5179 H   0  0  0  0  0  0  0  0  0  0  0  0
   61.3750   31.9820   46.9785 H   0  0  0  0  0  0  0  0  0  0  0  0
   62.8386   31.2548   47.3397 H   0  0  0  0  0  0  0  0  0  0  0  0
   58.5500   32.0830   47.3150 H   0  0  0  0  0  0  0  0  0  0  0  0
  1  2  2  0
  2  3  1  0
  3  4  1  0
  4  5  1  0
  5  6  2  0
  6  7  1  0
  7  8  2  0
  8  9  1  0
  9 10  2  0
  2 11  1  0
 11 12  2  0
 12 13  1  0
 13 14  2  0
 14 15  1  0
 15 16  2  0
 16 17  1  0
 17 18  1  0
 18 19  2  3
 19 20  1  0
 20 21  2  0
 20 22  1  0
 22 23  1  0
 23 24  1  0
 24 25  1  0
 18 26  1  0
 14 27  1  0
 10  5  1  0
 27 11  1  0
 26 15  1  0
 25 22  1  0
  4 28  1  0
  4 29  1  0
  6 30  1  0
  7 31  1  0
  8 32  1  0
  9 33  1  0
 10 34  1  0
 12 35  1  0
 13 36  1  0
 16 37  1  0
 22 38  1  0
 23 39  1  0
 23 40  1  0
 24 41  1  0
 24 42  1  0
 25 43  1  0
 25 44  1  0
 26 45  1  0
M  CHG  1   3  -1
M  END
>  <UniqueID>  (52) 
51

>  <SMILES>  (52) 
O=C([N-]Cc1ccccc1)c1ccc(-c2csc(=NC(=O)C3CCC3)[nH]2)o1

>  <Energy>  (52) 
164.48734882902363

>  <Genealogy>  (52) 
O=C([N-]Cc1ccccc1)c1ccc(-c2csc(=NC(=O)C3CCC3)[nH]2)o1 (protonated)
O=C([N-]Cc1ccccc1)c1ccc(-c2csc(=NC(=O)C3CCC3)[nH]2)o1 (3D coordinates assigned)
O=C([N-]Cc1ccccc1)c1ccc(-c2csc(=NC(=O)C3CCC3)[nH]2)o1 (nonaromatic ring conformer: 164.48734882902363 kcal/mol)

>  <smiles>  (52) 
O=C(NCc1ccccc1)c1ccc(-c2csc(=NC(=O)C3CCC3)[nH]2)o1

>  <score_type>  (52) 
oracle

>  <origin>  (52) 
adg

>  <m_score__min__energy>  (52) 
-11.050000000000001

>  <m_primary>  (52) 
energy

$$$$
52:0
     RDKit          3D

 54 57  0  0  1  0  0  0  0  0999 V2000
   56.5820   29.5750   44.6980 C   0  0  0  0  0  0  0  0  0  0  0  0
   57.0120   28.3300   45.4110 C   0  0  0  0  0  0  0  0  0  0  0  0
   58.3010   28.1590   45.8720 C   0  0  0  0  0  0  0  0  0  0  0  0
   56.4130   26.1940   46.2420 C   0  0  0  0  0  0  0  0  0  0  0  0
   55.4990   25.3320   46.3730 N   0  0  0  0  0  0  0  0  0  0  0  0
   60.2720   27.5350   48.1090 C   0  0  0  0  0  0  0  0  0  0  0  0
   60.4000   28.9780   47.8360 C   0  0  0  0  0  0  0  0  0  0  0  0
   61.0740   29.7270   46.3530 S   0  0  0  0  0  0  0  0  0  0  0  0
   60.8080   31.4010   46.9430 C   0  0  0  0  0  0  0  0  0  0  0  0
   60.2270   31.2780   48.2230 C   0  0  0  0  0  0  0  0  0  0  0  0
   59.8940   32.3710   48.9620 O   0  0  0  0  0  0  0  0  0  0  0  0
   59.3160   33.5700   48.7920 C   0  0  0  0  0  0  0  0  0  0  0  0
   58.8110   33.8710   47.4360 C   0  0  0  0  0  0  0  0  0  0  0  0
   59.6250   34.6560   46.6270 C   0  0  0  0  0  0  0  0  0  0  0  0
   59.2650   34.9750   45.3390 C   0  0  0  0  0  0  0  0  0  0  0  0
   58.0650   34.5110   44.8170 C   0  0  0  0  0  0  0  0  0  0  0  0
   57.2720   33.7380   45.6230 C   0  0  0  0  0  0  0  0  0  0  0  0
   57.6430   33.4310   46.8960 C   0  0  0  0  0  0  0  0  0  0  0  0
   60.0370   30.0040   48.6380 C   0  0  0  0  0  0  0  0  0  0  0  0
   59.4110   29.7170   50.0070 C   0  0  0  0  0  0  0  0  0  0  0  0
   57.6740   26.0500   46.6820 N   0  0  0  0  0  0  0  0  0  0  0  0
   58.6150   26.9650   46.5280 C   0  0  0  0  0  0  0  0  0  0  0  0
   59.8230   26.8450   46.9420 N   0  0  0  0  0  0  0  0  0  0  0  0
   55.8080   23.9340   46.5840 C   0  0  0  0  0  0  0  0  0  0  0  0
   56.2210   23.2930   45.3180 C   0  0  0  0  0  0  0  0  0  0  0  0
   55.8010   23.5260   44.0700 C   0  0  0  0  0  0  0  0  0  0  0  0
   56.3010   22.8210   43.0400 C   0  0  0  0  0  0  0  0  0  0  0  0
   57.2550   21.8650   43.3390 C   0  0  0  0  0  0  0  0  0  0  0  0
   57.4510   21.9720   45.1820 S   0  0  0  0  0  0  0  0  0  0  0  0
   56.1110   27.3500   45.6080 N   0  0  0  0  0  0  0  0  0  0  0  0
   56.3156   30.3464   45.4355 H   0  0  0  0  0  0  0  0  0  0  0  0
   57.4063   29.9397   44.0674 H   0  0  0  0  0  0  0  0  0  0  0  0
   55.7084   29.3533   44.0674 H   0  0  0  0  0  0  0  0  0  0  0  0
   59.0611   28.9409   45.7274 H   0  0  0  0  0  0  0  0  0  0  0  0
   59.5463   27.3829   48.9216 H   0  0  0  0  0  0  0  0  0  0  0  0
   61.2556   27.1387   48.4013 H   0  0  0  0  0  0  0  0  0  0  0  0
   61.0492   32.3346   46.4136 H   0  0  0  0  0  0  0  0  0  0  0  0
   58.4658   33.6330   49.4871 H   0  0  0  0  0  0  0  0  0  0  0  0
   60.1120   34.3064   48.9769 H   0  0  0  0  0  0  0  0  0  0  0  0
   60.5790   35.0304   47.0267 H   0  0  0  0  0  0  0  0  0  0  0  0
   59.9283   35.5984   44.7215 H   0  0  0  0  0  0  0  0  0  0  0  0
   57.7608   34.7564   43.7888 H   0  0  0  0  0  0  0  0  0  0  0  0
   56.3161   33.3577   45.2336 H   0  0  0  0  0  0  0  0  0  0  0  0
   56.9760   32.8063   47.5083 H   0  0  0  0  0  0  0  0  0  0  0  0
   60.1034   30.0344   50.8006 H   0  0  0  0  0  0  0  0  0  0  0  0
   58.4658   30.2717   50.1015 H   0  0  0  0  0  0  0  0  0  0  0  0
   59.2144   28.6388   50.1015 H   0  0  0  0  0  0  0  0  0  0  0  0
   57.8990   25.1610   47.1660 H   0  0  0  0  0  0  0  0  0  0  0  0
   56.6265   23.8514   47.3143 H   0  0  0  0  0  0  0  0  0  0  0  0
   54.9078   23.4259   46.9602 H   0  0  0  0  0  0  0  0  0  0  0  0
   55.0413   24.2997   43.8848 H   0  0  0  0  0  0  0  0  0  0  0  0
   55.9667   22.9964   42.0068 H   0  0  0  0  0  0  0  0  0  0  0  0
   57.7788   21.1936   42.6426 H   0  0  0  0  0  0  0  0  0  0  0  0
   55.1430   27.5120   45.2460 H   0  0  0  0  0  0  0  0  0  0  0  0
  1  2  1  0
  2  3  2  0
  3  4  1  0
  4  5  2  0
  5  6  1  0
  6  7  1  0
  7  8  1  0
  8  9  1  0
  9 10  2  0
 10 11  1  0
 11 12  1  0
 12 13  1  0
 13 14  2  0
 14 15  1  0
 15 16  2  0
 16 17  1  0
 17 18  2  0
 10 19  1  0
 19 20  1  0
  4 21  1  0
 21 22  1  0
 22 23  2  0
 23 24  1  0
 24 25  1  0
 25 26  2  0
 26 27  1  0
 27 28  2  0
 28 29  1  0
 22 30  1  0
 30  2  1  0
 19  7  2  0
 29 25  1  0
 18 13  1  0
  1 31  1  0
  1 32  1  0
  1 33  1  0
  3 34  1  0
  6 35  1  0
  6 36  1  0
  9 37  1  0
 12 38  1  0
 12 39  1  0
 14 40  1  0
 15 41  1  0
 16 42  1  0
 17 43  1  0
 18 44  1  0
 20 45  1  0
 20 46  1  0
 20 47  1  0
 21 48  1  0
 24 49  1  0
 24 50  1  0
 26 51  1  0
 27 52  1  0
 28 53  1  0
 30 54  1  0
M  END
>  <smiles>  (53) 
Cc1cc(=NCc2scc(OCc3ccccc3)c2C)[nH]c(=NCc2cccs2)[nH]1

>  <score_type>  (53) 
oracle

>  <origin>  (53) 
adg

>  <m_score__min__energy>  (53) 
-9.5899999999999999

>  <m_primary>  (53) 
energy

$$$$
53:0
     RDKit          3D

 25 26  0  0  0  0  0  0  0  0999 V2000
   59.6457   33.2792   46.1342 H   0  0  0  0  0  0  0  0  0  0  0  0
   58.6680   33.0150   45.7050 C   0  0  0  0  0  0  0  0  0  0  0  0
   58.0053   33.8038   45.3194 H   0  0  0  0  0  0  0  0  0  0  0  0
   58.2850   31.7350   45.6520 C   0  0  0  0  0  0  0  0  0  0  0  0
   57.0060   31.4460   45.0850 N   0  0  0  0  0  0  0  0  0  0  0  0
   56.5510   30.1130   44.8650 C   0  0  0  0  0  0  0  0  0  0  0  0
   55.3670   29.9320   44.4770 O   0  0  0  0  0  0  0  0  0  0  0  0
   57.4670   28.9740   45.1410 C   0  0  0  0  0  0  0  0  0  0  0  0
   57.1850   27.6950   44.8160 C   0  0  0  0  0  0  0  0  0  0  0  0
   56.9301   27.4844   43.7669 H   0  0  0  0  0  0  0  0  0  0  0  0
   57.1910   26.5540   45.7560 C   0  0  0  0  0  0  0  0  0  0  0  0
   55.9960   26.1160   46.3430 C   0  0  0  0  0  0  0  0  0  0  0  0
   54.7850   26.7130   46.0130 O   0  0  0  0  0  0  0  0  0  0  0  0
   56.0140   25.0930   47.2360 N   0  0  0  0  0  0  0  0  0  0  0  0
   57.1780   24.4890   47.5890 C   0  0  0  0  0  0  0  0  0  0  0  0
   57.1690   23.5410   48.4150 O   0  0  0  0  0  0  0  0  0  0  0  0
   58.3520   24.9140   47.0550 N   0  0  0  0  0  0  0  0  0  0  0  0
   58.3880   25.9330   46.1580 C   0  0  0  0  0  0  0  0  0  0  0  0
   59.4980   26.3170   45.7030 O   0  0  0  0  0  0  0  0  0  0  0  0
   58.7030   29.2550   45.8200 N   0  0  0  0  0  0  0  0  0  0  0  0
   59.3210   28.4560   46.0950 H   0  0  0  0  0  0  0  0  0  0  0  0
   59.1280   30.5960   46.1230 C   0  0  0  0  0  0  0  0  0  0  0  0
   60.2460   30.7650   46.8450 C   0  0  0  0  0  0  0  0  0  0  0  0
   60.5938   31.7792   47.0911 H   0  0  0  0  0  0  0  0  0  0  0  0
   60.8149   29.8894   47.1909 H   0  0  0  0  0  0  0  0  0  0  0  0
  1  2  1  0
  2  3  1  0
  2  4  2  0
  4  5  1  0
  5  6  1  0
  6  7  2  0
  6  8  1  0
  8  9  2  0
  9 10  1  0
  9 11  1  0
 11 12  2  0
 12 13  1  0
 12 14  1  0
 14 15  1  0
 15 16  2  0
 15 17  1  0
 17 18  1  0
 18 19  2  0
  8 20  1  0
 20 21  1  0
 20 22  1  0
 22 23  2  0
 23 24  1  0
 23 25  1  0
 22  4  1  0
 18 11  1  0
M  CHG  4   5  -1  13  -1  14  -1  17  -1
M  END
>  <UniqueID>  (54) 
52

>  <SMILES>  (54) 
C=C1[N-]C(=O)/C(=C\c2c([O-])[n-]c(=O)[n-]c2=O)NC1=C

>  <Energy>  (54) 
38.34263630986455

>  <Genealogy>  (54) 
C=C1[N-]C(=O)C(=Cc2c([O-])[n-]c(=O)[n-]c2=O)NC1=C (protonated)
C=C1[N-]C(=O)/C(=C\c2c([O-])[n-]c(=O)[n-]c2=O)NC1=C (cis-trans isomerization)
C=C1[N-]C(=O)/C(=C\c2c([O-])[n-]c(=O)[n-]c2=O)NC1=C (3D coordinates assigned)
C=C1[N-]C(=O)/C(=C\c2c([O-])[n-]c(=O)[n-]c2=O)NC1=C (nonaromatic ring conformer: 38.34263630986455 kcal/mol)

>  <smiles>  (54) 
C=C1NC(=O)C(=Cc2c(O)[nH]c(=O)[nH]c2=O)NC1=C

>  <score_type>  (54) 
oracle

>  <origin>  (54) 
adg

>  <m_score__min__energy>  (54) 
-15.49

>  <m_primary>  (54) 
energy

$$$$
54:0
     RDKit          3D

 39 41  0  0  0  0  0  0  0  0999 V2000
   57.3780   33.2140   52.3780 C   0  0  0  0  0  0  0  0  0  0  0  0
   56.9250   31.9560   52.4130 C   0  0  0  0  0  0  0  0  0  0  0  0
   55.6100   31.6550   52.4090 N   0  0  0  0  0  0  0  0  0  0  0  0
   55.5160   30.3140   52.4480 C   0  0  0  0  0  0  0  0  0  0  0  0
   54.2170   29.5660   52.3760 C   0  0  0  0  0  0  0  0  0  0  0  0
   53.3490   30.0460   51.2060 C   0  0  0  0  0  0  0  0  0  0  0  0
   51.8500   29.9730   51.5250 C   0  0  0  0  0  0  0  0  0  0  0  0
   51.4150   31.1880   52.3040 C   0  0  0  0  0  0  0  0  0  0  0  0
   51.3550   31.1410   53.7040 C   0  0  0  0  0  0  0  0  0  0  0  0
   50.9240   32.2550   54.4260 C   0  0  0  0  0  0  0  0  0  0  0  0
   50.5440   33.4110   53.7380 C   0  0  0  0  0  0  0  0  0  0  0  0
   50.1530   34.4250   54.3720 O   0  0  0  0  0  0  0  0  0  0  0  0
   50.5930   33.4390   52.3800 N   0  0  0  0  0  0  0  0  0  0  0  0
   51.0090   32.3680   51.6520 C   0  0  0  0  0  0  0  0  0  0  0  0
   51.0250   32.4540   50.2650 O   0  0  0  0  0  0  0  0  0  0  0  0
   56.7710   29.7370   52.4700 C   0  0  0  0  0  0  0  0  0  0  0  0
   57.6840   30.7840   52.4580 C   0  0  0  0  0  0  0  0  0  0  0  0
   59.0250   30.6810   52.4290 C   0  0  0  0  0  0  0  0  0  0  0  0
   59.8200   30.6260   51.1880 C   0  0  0  0  0  0  0  0  0  0  0  0
   61.1340   30.9090   51.1420 N   0  0  0  0  0  0  0  0  0  0  0  0
   61.4650   30.6580   49.8580 C   0  0  0  0  0  0  0  0  0  0  0  0
   62.6310   30.8210   49.4140 O   0  0  0  0  0  0  0  0  0  0  0  0
   60.4520   30.2080   49.0880 N   0  0  0  0  0  0  0  0  0  0  0  0
   59.4190   30.1810   49.9470 C   0  0  0  0  0  0  0  0  0  0  0  0
   58.1490   29.7170   49.6160 O   0  0  0  0  0  0  0  0  0  0  0  0
   58.4605   33.4091   52.3830 H   0  0  0  0  0  0  0  0  0  0  0  0
   56.6680   34.0535   52.3443 H   0  0  0  0  0  0  0  0  0  0  0  0
   54.8130   32.3300   52.3650 H   0  0  0  0  0  0  0  0  0  0  0  0
   54.4295   28.4946   52.2459 H   0  0  0  0  0  0  0  0  0  0  0  0
   53.6646   29.7483   53.3096 H   0  0  0  0  0  0  0  0  0  0  0  0
   53.6113   31.0891   50.9756 H   0  0  0  0  0  0  0  0  0  0  0  0
   53.5434   29.3843   50.3491 H   0  0  0  0  0  0  0  0  0  0  0  0
   51.2819   29.9239   50.5843 H   0  0  0  0  0  0  0  0  0  0  0  0
   51.6591   29.0752   52.1313 H   0  0  0  0  0  0  0  0  0  0  0  0
   51.6485   30.2234   54.2349 H   0  0  0  0  0  0  0  0  0  0  0  0
   50.8838   32.2236   55.5248 H   0  0  0  0  0  0  0  0  0  0  0  0
   57.0017   28.6617   52.4926 H   0  0  0  0  0  0  0  0  0  0  0  0
   59.5608   30.6350   53.3886 H   0  0  0  0  0  0  0  0  0  0  0  0
   57.4090   29.7050   50.3050 H   0  0  0  0  0  0  0  0  0  0  0  0
  1  2  2  0
  2  3  1  0
  3  4  1  0
  4  5  1  0
  5  6  1  0
  6  7  1  0
  7  8  1  0
  8  9  1  0
  9 10  2  0
 10 11  1  0
 11 12  2  0
 11 13  1  0
 13 14  1  0
 14 15  1  0
  4 16  2  0
 16 17  1  0
 17 18  2  3
 18 19  1  0
 19 20  1  0
 20 21  1  0
 21 22  2  0
 21 23  1  0
 23 24  1  0
 24 25  1  0
 17  2  1  0
 24 19  2  0
 14  8  2  0
  1 26  1  0
  1 27  1  0
  3 28  1  0
  5 29  1  0
  5 30  1  0
  6 31  1  0
  6 32  1  0
  7 33  1  0
  7 34  1  0
  9 35  1  0
 10 36  1  0
 16 37  1  0
 18 38  1  0
 25 39  1  0
M  CHG  4  13  -1  15  -1  20  -1  23  -1
M  END
>  <UniqueID>  (55) 
53

>  <SMILES>  (55) 
C=c1[nH]c(CCCc2ccc(=O)[n-]c2[O-])cc1=Cc1[n-]c(=O)[n-]c1O

>  <Energy>  (55) 
99.04723324899282

>  <Genealogy>  (55) 
C=c1[nH]c(CCCc2ccc(=O)[n-]c2[O-])cc1=Cc1[n-]c(=O)[n-]c1O (protonated)
C=c1[nH]c(CCCc2ccc(=O)[n-]c2[O-])cc1=Cc1[n-]c(=O)[n-]c1O (3D coordinates assigned)
C=c1[nH]c(CCCc2ccc(=O)[n-]c2[O-])cc1=Cc1[n-]c(=O)[n-]c1O (optimized conformer: 99.04723324899282 kcal/mol)

>  <smiles>  (55) 
C=c1[nH]c(CCCc2ccc(=O)[nH]c2O)cc1=Cc1[nH]c(=O)[nH]c1O

>  <score_type>  (55) 
oracle

>  <origin>  (55) 
adg

>  <m_score__min__energy>  (55) 
-16.829999999999998

>  <m_primary>  (55) 
energy

$$$$
55:0
     RDKit          3D

 61 64  0  0  0  0  0  0  0  0999 V2000
   58.1950   33.3440   52.3600 C   0  0  0  0  0  0  0  0  0  0  0  0
   58.4320   32.5120   51.1880 N   0  0  0  0  0  0  0  0  0  0  0  0
   58.1470   31.1990   51.0870 C   0  0  0  0  0  0  0  0  0  0  0  0
   58.5720   30.7200   49.8650 C   0  0  0  0  0  0  0  0  0  0  0  0
   59.1450   31.7950   49.2080 C   0  0  0  0  0  0  0  0  0  0  0  0
   59.7670   31.7830   47.8340 C   0  0  0  0  0  0  0  0  0  0  0  0
   59.3860   32.9470   47.0040 N   0  0  0  0  0  0  0  0  0  0  0  0
   59.3680   32.6480   45.5530 C   0  0  0  0  0  0  0  0  0  0  0  0
   58.2630   31.6740   45.2540 C   0  0  0  0  0  0  0  0  0  0  0  0
   57.0310   32.1240   44.7520 C   0  0  0  0  0  0  0  0  0  0  0  0
   56.0120   31.2110   44.4780 C   0  0  0  0  0  0  0  0  0  0  0  0
   56.2010   29.8470   44.7250 C   0  0  0  0  0  0  0  0  0  0  0  0
   55.1570   28.9630   44.4720 O   0  0  0  0  0  0  0  0  0  0  0  0
   57.4290   29.3810   45.2350 C   0  0  0  0  0  0  0  0  0  0  0  0
   57.6260   27.9380   45.5160 C   0  0  0  0  0  0  0  0  0  0  0  0
   58.3150   27.2520   44.7100 O   0  0  0  0  0  0  0  0  0  0  0  0
   57.0480   27.2730   46.6530 N   0  0  0  0  0  0  0  0  0  0  0  0
   56.3700   25.9790   46.6890 C   0  0  0  0  0  0  0  0  0  0  0  0
   57.3550   24.8170   46.8310 C   0  0  0  0  0  0  0  0  0  0  0  0
   57.0220   23.7410   45.8390 C   0  0  0  0  0  0  0  0  0  0  0  0
   56.6210   24.0680   44.5320 C   0  0  0  0  0  0  0  0  0  0  0  0
   56.4020   23.0620   43.5850 C   0  0  0  0  0  0  0  0  0  0  0  0
   56.5910   21.7200   43.9290 C   0  0  0  0  0  0  0  0  0  0  0  0
   56.3830   20.7260   42.9680 O   0  0  0  0  0  0  0  0  0  0  0  0
   56.9890   21.3870   45.2320 C   0  0  0  0  0  0  0  0  0  0  0  0
   57.2050   22.3920   46.1830 C   0  0  0  0  0  0  0  0  0  0  0  0
   58.4700   30.2990   45.4490 C   0  0  0  0  0  0  0  0  0  0  0  0
   60.1540   34.1660   47.3320 C   0  0  0  0  0  0  0  0  0  0  0  0
   61.5650   33.7990   47.6680 C   0  0  0  0  0  0  0  0  0  0  0  0
   62.5590   33.4550   46.7600 C   0  0  0  0  0  0  0  0  0  0  0  0
   63.8080   33.2610   47.3600 C   0  0  0  0  0  0  0  0  0  0  0  0
   63.8030   33.4560   48.7370 C   0  0  0  0  0  0  0  0  0  0  0  0
   62.2430   33.8770   49.2050 S   0  0  0  0  0  0  0  0  0  0  0  0
   59.0560   32.8830   50.0540 C   0  0  0  0  0  0  0  0  0  0  0  0
   58.3639   32.7509   53.2709 H   0  0  0  0  0  0  0  0  0  0  0  0
   58.8848   34.2007   52.3471 H   0  0  0  0  0  0  0  0  0  0  0  0
   57.1573   33.7086   52.3471 H   0  0  0  0  0  0  0  0  0  0  0  0
   57.6497   30.5986   51.8630 H   0  0  0  0  0  0  0  0  0  0  0  0
   58.4750   29.6910   49.4886 H   0  0  0  0  0  0  0  0  0  0  0  0
   60.8612   31.7791   47.9471 H   0  0  0  0  0  0  0  0  0  0  0  0
   59.3978   30.8837   47.3193 H   0  0  0  0  0  0  0  0  0  0  0  0
   59.1994   33.5775   44.9895 H   0  0  0  0  0  0  0  0  0  0  0  0
   60.3325   32.2090   45.2579 H   0  0  0  0  0  0  0  0  0  0  0  0
   56.8691   33.1975   44.5746 H   0  0  0  0  0  0  0  0  0  0  0  0
   55.0557   31.5654   44.0659 H   0  0  0  0  0  0  0  0  0  0  0  0
   55.6786   25.9645   47.5444 H   0  0  0  0  0  0  0  0  0  0  0  0
   55.8313   25.8522   45.7383 H   0  0  0  0  0  0  0  0  0  0  0  0
   58.3767   25.1802   46.6459 H   0  0  0  0  0  0  0  0  0  0  0  0
   57.2853   24.4055   47.8487 H   0  0  0  0  0  0  0  0  0  0  0  0
   56.4784   25.1222   44.2520 H   0  0  0  0  0  0  0  0  0  0  0  0
   56.0803   23.3274   42.5671 H   0  0  0  0  0  0  0  0  0  0  0  0
   56.8580   19.8390   43.0230 H   0  0  0  0  0  0  0  0  0  0  0  0
   57.1321   20.3319   45.5081 H   0  0  0  0  0  0  0  0  0  0  0  0
   57.5190   22.1238   47.2026 H   0  0  0  0  0  0  0  0  0  0  0  0
   59.4572   29.9373   45.7725 H   0  0  0  0  0  0  0  0  0  0  0  0
   60.1491   34.8449   46.4665 H   0  0  0  0  0  0  0  0  0  0  0  0
   59.6922   34.6654   48.1965 H   0  0  0  0  0  0  0  0  0  0  0  0
   62.3820   33.3463   45.6798 H   0  0  0  0  0  0  0  0  0  0  0  0
   64.7095   32.9805   46.7955 H   0  0  0  0  0  0  0  0  0  0  0  0
   64.6704   33.3527   49.4055 H   0  0  0  0  0  0  0  0  0  0  0  0
   59.4348   33.8925   49.8360 H   0  0  0  0  0  0  0  0  0  0  0  0
  1  2  1  0
  2  3  1  0
  3  4  2  0
  4  5  1  0
  5  6  1  0
  6  7  1  0
  7  8  1  0
  8  9  1  0
  9 10  2  0
 10 11  1  0
 11 12  2  0
 12 13  1  0
 12 14  1  0
 14 15  1  0
 15 16  2  0
 15 17  1  0
 17 18  1  0
 18 19  1  0
 19 20  1  0
 20 21  2  0
 21 22  1  0
 22 23  2  0
 23 24  1  0
 23 25  1  0
 25 26  2  0
 14 27  2  0
  7 28  1  0
 28 29  1  0
 29 30  2  0
 30 31  1  0
 31 32  2  0
 32 33  1  0
  5 34  2  0
 34  2  1  0
 27  9  1  0
 33 29  1  0
 26 20  1  0
  1 35  1  0
  1 36  1  0
  1 37  1  0
  3 38  1  0
  4 39  1  0
  6 40  1  0
  6 41  1  0
  8 42  1  0
  8 43  1  0
 10 44  1  0
 11 45  1  0
 18 46  1  0
 18 47  1  0
 19 48  1  0
 19 49  1  0
 21 50  1  0
 22 51  1  0
 24 52  1  0
 25 53  1  0
 26 54  1  0
 27 55  1  0
 28 56  1  0
 28 57  1  0
 30 58  1  0
 31 59  1  0
 32 60  1  0
 34 61  1  0
M  CHG  2  13  -1  17  -1
M  END
>  <UniqueID>  (56) 
54

>  <SMILES>  (56) 
Cn1ccc(CN(Cc2ccc([O-])c(C(=O)[N-]CCc3ccc(O)cc3)c2)Cc2cccs2)c1

>  <Energy>  (56) 
117.30579899149282

>  <Genealogy>  (56) 
Cn1ccc(CN(Cc2ccc([O-])c(C(=O)[N-]CCc3ccc(O)cc3)c2)Cc2cccs2)c1 (protonated)
Cn1ccc(CN(Cc2ccc([O-])c(C(=O)[N-]CCc3ccc(O)cc3)c2)Cc2cccs2)c1 (3D coordinates assigned)
Cn1ccc(CN(Cc2ccc([O-])c(C(=O)[N-]CCc3ccc(O)cc3)c2)Cc2cccs2)c1 (optimized conformer: 117.30579899149282 kcal/mol)

>  <smiles>  (56) 
Cn1ccc(CN(Cc2ccc(O)c(C(=O)NCCc3ccc(O)cc3)c2)Cc2cccs2)c1

>  <score_type>  (56) 
oracle

>  <origin>  (56) 
adg

>  <m_score__min__energy>  (56) 
-14.130000000000001

>  <m_primary>  (56) 
energy

$$$$
56:0
     RDKit          3D

 57 60  0  0  0  0  0  0  0  0999 V2000
   51.3310   32.3700   50.9400 N   0  0  0  0  0  0  0  0  0  0  0  0
   52.1280   31.1940   50.8120 C   0  0  0  0  0  0  0  0  0  0  0  0
   51.9220   30.4170   49.8410 O   0  0  0  0  0  0  0  0  0  0  0  0
   53.1800   30.8840   51.8090 C   0  0  0  0  0  0  0  0  0  0  0  0
   52.8390   30.3750   53.0770 C   0  0  0  0  0  0  0  0  0  0  0  0
   53.8320   30.0850   54.0150 C   0  0  0  0  0  0  0  0  0  0  0  0
   55.1770   30.2870   53.7020 C   0  0  0  0  0  0  0  0  0  0  0  0
   55.5420   30.7870   52.4400 C   0  0  0  0  0  0  0  0  0  0  0  0
   56.9270   31.0230   52.1270 N   0  0  0  0  0  0  0  0  0  0  0  0
   57.5920   32.2530   52.5740 C   0  0  0  0  0  0  0  0  0  0  0  0
   58.2390   32.9350   51.3700 C   0  0  0  0  0  0  0  0  0  0  0  0
   59.2860   32.0180   50.6870 C   0  0  0  0  0  0  0  0  0  0  0  0
   59.3900   32.3410   49.2380 N   0  0  0  0  0  0  0  0  0  0  0  0
   58.0960   32.7050   48.6360 C   0  0  0  0  0  0  0  0  0  0  0  0
   58.2080   32.8210   47.0990 C   0  0  0  0  0  0  0  0  0  0  0  0
   59.5920   32.6660   46.5980 N   0  0  0  0  0  0  0  0  0  0  0  0
   60.0230   31.2520   46.5020 C   0  0  0  0  0  0  0  0  0  0  0  0
   58.8470   30.3690   46.1790 C   0  0  0  0  0  0  0  0  0  0  0  0
   58.6240   29.1830   46.9010 C   0  0  0  0  0  0  0  0  0  0  0  0
   57.5310   28.3660   46.5940 C   0  0  0  0  0  0  0  0  0  0  0  0
   56.6530   28.7270   45.5660 C   0  0  0  0  0  0  0  0  0  0  0  0
   55.5620   27.9200   45.2670 O   0  0  0  0  0  0  0  0  0  0  0  0
   56.8750   29.9010   44.8360 C   0  0  0  0  0  0  0  0  0  0  0  0
   57.9720   30.7150   45.1350 C   0  0  0  0  0  0  0  0  0  0  0  0
   60.5400   33.5130   47.3540 C   0  0  0  0  0  0  0  0  0  0  0  0
   60.4250   33.3370   48.8870 C   0  0  0  0  0  0  0  0  0  0  0  0
   59.0940   30.5010   51.0000 C   0  0  0  0  0  0  0  0  0  0  0  0
   57.6280   30.0910   51.2320 C   0  0  0  0  0  0  0  0  0  0  0  0
   54.5400   31.0830   51.5010 C   0  0  0  0  0  0  0  0  0  0  0  0
   50.2880   32.3210   50.8770 H   0  0  0  0  0  0  0  0  0  0  0  0
   51.7823   30.2045   53.3305 H   0  0  0  0  0  0  0  0  0  0  0  0
   53.5528   29.6956   55.0051 H   0  0  0  0  0  0  0  0  0  0  0  0
   55.9539   30.0542   54.4452 H   0  0  0  0  0  0  0  0  0  0  0  0
   56.8515   32.9288   53.0267 H   0  0  0  0  0  0  0  0  0  0  0  0
   58.3620   32.0086   53.3205 H   0  0  0  0  0  0  0  0  0  0  0  0
   57.4560   33.1878   50.6399 H   0  0  0  0  0  0  0  0  0  0  0  0
   58.7542   33.8401   51.7240 H   0  0  0  0  0  0  0  0  0  0  0  0
   60.2664   32.2379   51.1346 H   0  0  0  0  0  0  0  0  0  0  0  0
   57.3544   31.9315   48.8844 H   0  0  0  0  0  0  0  0  0  0  0  0
   57.7872   33.6814   49.0376 H   0  0  0  0  0  0  0  0  0  0  0  0
   57.5825   32.0390   46.6436 H   0  0  0  0  0  0  0  0  0  0  0  0
   57.8741   33.8324   46.8241 H   0  0  0  0  0  0  0  0  0  0  0  0
   60.7782   31.1558   45.7080 H   0  0  0  0  0  0  0  0  0  0  0  0
   60.4498   30.9413   47.4670 H   0  0  0  0  0  0  0  0  0  0  0  0
   59.3118   28.8967   47.7103 H   0  0  0  0  0  0  0  0  0  0  0  0
   57.3615   27.4389   47.1612 H   0  0  0  0  0  0  0  0  0  0  0  0
   56.1858   30.1833   44.0265 H   0  0  0  0  0  0  0  0  0  0  0  0
   58.1508   31.6297   44.5508 H   0  0  0  0  0  0  0  0  0  0  0  0
   61.5636   33.2513   47.0478 H   0  0  0  0  0  0  0  0  0  0  0  0
   60.2959   34.5610   47.1259 H   0  0  0  0  0  0  0  0  0  0  0  0
   61.3947   33.0006   49.2827 H   0  0  0  0  0  0  0  0  0  0  0  0
   60.1392   34.3039   49.3267 H   0  0  0  0  0  0  0  0  0  0  0  0
   59.4857   29.9204   50.1518 H   0  0  0  0  0  0  0  0  0  0  0  0
   59.6337   30.2981   51.9368 H   0  0  0  0  0  0  0  0  0  0  0  0
   57.1078   30.0712   50.2630 H   0  0  0  0  0  0  0  0  0  0  0  0
   57.6254   29.0990   51.7074 H   0  0  0  0  0  0  0  0  0  0  0  0
   54.8211   31.4752   50.5125 H   0  0  0  0  0  0  0  0  0  0  0  0
  1  2  1  0
  2  3  2  0
  2  4  1  0
  4  5  2  0
  5  6  1  0
  6  7  2  0
  7  8  1  0
  8  9  1  0
  9 10  1  0
 10 11  1  0
 11 12  1  0
 12 13  1  0
 13 14  1  0
 14 15  1  0
 15 16  1  0
 16 17  1  0
 17 18  1  0
 18 19  2  0
 19 20  1  0
 20 21  2  0
 21 22  1  0
 21 23  1  0
 23 24  2  0
 16 25  1  0
 25 26  1  0
 12 27  1  0
 27 28  1  0
  8 29  2  0
 29  4  1  0
 28  9  1  0
 26 13  1  0
 24 18  1  0
  1 30  1  0
  5 31  1  0
  6 32  1  0
  7 33  1  0
 10 34  1  0
 10 35  1  0
 11 36  1  0
 11 37  1  0
 12 38  1  0
 14 39  1  0
 14 40  1  0
 15 41  1  0
 15 42  1  0
 17 43  1  0
 17 44  1  0
 19 45  1  0
 20 46  1  0
 23 47  1  0
 24 48  1  0
 25 49  1  0
 25 50  1  0
 26 51  1  0
 26 52  1  0
 27 53  1  0
 27 54  1  0
 28 55  1  0
 28 56  1  0
 29 57  1  0
M  CHG  2   1  -1  22  -1
M  END
>  <UniqueID>  (57) 
55

>  <SMILES>  (57) 
[NH-]C(=O)c1cccc(N2CCC(N3CCN(Cc4ccc([O-])cc4)CC3)CC2)c1

>  <Energy>  (57) 
84.70087919009318

>  <Genealogy>  (57) 
[NH-]C(=O)c1cccc(N2CCC(N3CCN(Cc4ccc([O-])cc4)CC3)CC2)c1 (protonated)
[NH-]C(=O)c1cccc(N2CCC(N3CCN(Cc4ccc([O-])cc4)CC3)CC2)c1 (3D coordinates assigned)
[NH-]C(=O)c1cccc(N2CCC(N3CCN(Cc4ccc([O-])cc4)CC3)CC2)c1 (nonaromatic ring conformer: 84.70087919009318 kcal/mol)

>  <smiles>  (57) 
NC(=O)c1cccc(N2CCC(N3CCN(Cc4ccc(O)cc4)CC3)CC2)c1

>  <score_type>  (57) 
oracle

>  <origin>  (57) 
adg

>  <m_score__min__energy>  (57) 
-16.23

>  <m_primary>  (57) 
energy

$$$$
57:0
     RDKit          3D

 55 59  0  0  0  0  0  0  0  0999 V2000
   57.8990   25.2610   47.7100 H   0  0  0  0  0  0  0  0  0  0  0  0
   57.1250   25.4130   47.0740 O   0  0  0  0  0  0  0  0  0  0  0  0
   57.0620   26.5680   46.3050 C   0  0  0  0  0  0  0  0  0  0  0  0
   55.8940   27.1120   45.8820 N   0  0  0  0  0  0  0  0  0  0  0  0
   56.2770   28.2320   45.2430 C   0  0  0  0  0  0  0  0  0  0  0  0
   55.4440   29.1340   44.6650 N   0  0  0  0  0  0  0  0  0  0  0  0
   55.9730   30.2460   44.0710 C   0  0  0  0  0  0  0  0  0  0  0  0
   55.3058   30.9799   43.5953 H   0  0  0  0  0  0  0  0  0  0  0  0
   57.3730   30.4610   44.0630 C   0  0  0  0  0  0  0  0  0  0  0  0
   57.7910   31.3603   43.5871 H   0  0  0  0  0  0  0  0  0  0  0  0
   58.2260   29.5200   44.6660 C   0  0  0  0  0  0  0  0  0  0  0  0
   59.3170   29.6599   44.6731 H   0  0  0  0  0  0  0  0  0  0  0  0
   57.6350   28.4020   45.2550 C   0  0  0  0  0  0  0  0  0  0  0  0
   58.1670   27.3190   45.9140 C   0  0  0  0  0  0  0  0  0  0  0  0
   59.5720   27.1380   46.3210 C   0  0  0  0  0  0  0  0  0  0  0  0
   60.2834   26.7794   45.5625 H   0  0  0  0  0  0  0  0  0  0  0  0
   60.0420   27.3810   47.5540 C   0  0  0  0  0  0  0  0  0  0  0  0
   60.2200   26.4030   48.4670 N   0  0  0  0  0  0  0  0  0  0  0  0
   60.6850   27.0380   49.5690 C   0  0  0  0  0  0  0  0  0  0  0  0
   60.9670   26.3860   50.7010 C   0  0  0  0  0  0  0  0  0  0  0  0
   61.3430   26.9383   51.5748 H   0  0  0  0  0  0  0  0  0  0  0  0
   60.8231   25.2970   50.7589 H   0  0  0  0  0  0  0  0  0  0  0  0
   60.7920   28.3770   49.4000 N   0  0  0  0  0  0  0  0  0  0  0  0
   61.3180   29.3690   50.3000 C   0  0  0  0  0  0  0  0  0  0  0  0
   62.2720   29.0700   51.0680 O   0  0  0  0  0  0  0  0  0  0  0  0
   60.7900   30.7060   50.3060 N   0  0  0  0  0  0  0  0  0  0  0  0
   61.7350   31.8180   50.4890 C   0  0  0  0  0  0  0  0  0  0  0  0
   62.0921   31.8084   51.5294 H   0  0  0  0  0  0  0  0  0  0  0  0
   62.5585   31.6743   49.7740 H   0  0  0  0  0  0  0  0  0  0  0  0
   61.1060   33.1840   50.2000 C   0  0  0  0  0  0  0  0  0  0  0  0
   60.7096   33.6093   51.1338 H   0  0  0  0  0  0  0  0  0  0  0  0
   61.8701   33.8569   49.7837 H   0  0  0  0  0  0  0  0  0  0  0  0
   60.0130   33.0290   49.2310 N   0  0  0  0  0  0  0  0  0  0  0  0
   59.5990   34.3120   48.6210 C   0  0  0  0  0  0  0  0  0  0  0  0
   58.8721   34.7949   49.2907 H   0  0  0  0  0  0  0  0  0  0  0  0
   60.5124   34.9098   48.4860 H   0  0  0  0  0  0  0  0  0  0  0  0
   58.9640   34.1670   47.2540 C   0  0  0  0  0  0  0  0  0  0  0  0
   57.7560   33.4600   47.1000 C   0  0  0  0  0  0  0  0  0  0  0  0
   57.2727   33.0046   47.9770 H   0  0  0  0  0  0  0  0  0  0  0  0
   57.1680   33.3340   45.8380 C   0  0  0  0  0  0  0  0  0  0  0  0
   56.2200   32.7876   45.7254 H   0  0  0  0  0  0  0  0  0  0  0  0
   57.7840   33.9020   44.7190 C   0  0  0  0  0  0  0  0  0  0  0  0
   57.3189   33.8048   43.7269 H   0  0  0  0  0  0  0  0  0  0  0  0
   58.9900   34.5930   44.8600 C   0  0  0  0  0  0  0  0  0  0  0  0
   59.4766   35.0339   43.9775 H   0  0  0  0  0  0  0  0  0  0  0  0
   59.5790   34.7250   46.1200 C   0  0  0  0  0  0  0  0  0  0  0  0
   60.5294   35.2687   46.2251 H   0  0  0  0  0  0  0  0  0  0  0  0
   58.8960   32.3070   49.8600 C   0  0  0  0  0  0  0  0  0  0  0  0
   58.5644   32.8621   50.7499 H   0  0  0  0  0  0  0  0  0  0  0  0
   58.0770   32.2241   49.1304 H   0  0  0  0  0  0  0  0  0  0  0  0
   59.3230   30.8900   50.2810 C   0  0  0  0  0  0  0  0  0  0  0  0
   58.9287   30.6910   51.2884 H   0  0  0  0  0  0  0  0  0  0  0  0
   58.9191   30.1916   49.5333 H   0  0  0  0  0  0  0  0  0  0  0  0
   60.3900   28.5880   48.1320 C   0  0  0  0  0  0  0  0  0  0  0  0
   60.3310   29.7240   47.5900 O   0  0  0  0  0  0  0  0  0  0  0  0
  1  2  1  0
  2  3  1  0
  3  4  1  0
  4  5  1  0
  5  6  2  0
  6  7  1  0
  7  8  1  0
  7  9  2  0
  9 10  1  0
  9 11  1  0
 11 12  1  0
 11 13  2  0
 13 14  1  0
 14 15  1  0
 15 16  1  0
 15 17  2  0
 17 18  1  0
 18 19  1  0
 19 20  2  0
 20 21  1  0
 20 22  1  0
 19 23  1  0
 23 24  1  0
 24 25  2  0
 24 26  1  0
 26 27  1  0
 27 28  1  0
 27 29  1  0
 27 30  1  0
 30 31  1  0
 30 32  1  0
 30 33  1  0
 33 34  1  0
 34 35  1  0
 34 36  1  0
 34 37  1  0
 37 38  2  0
 38 39  1  0
 38 40  1  0
 40 41  1  0
 40 42  2  0
 42 43  1  0
 42 44  1  0
 44 45  1  0
 44 46  2  0
 46 47  1  0
 33 48  1  0
 48 49  1  0
 48 50  1  0
 48 51  1  0
 51 52  1  0
 51 53  1  0
 23 54  1  0
 54 55  2  0
 14  3  2  0
 54 17  1  0
 13  5  1  0
 51 26  1  0
 46 37  1  0
M  CHG  2   4  -1  18  -1
M  END
>  <UniqueID>  (58) 
56

>  <SMILES>  (58) 
C=c1[n-]/c(=C/c2c(O)[n-]c3ncccc23)c(=O)n1C(=O)N1CCN(Cc2ccccc2)CC1

>  <Energy>  (58) 
148.9336720810685

>  <Genealogy>  (58) 
C=c1[n-]c(=Cc2c(O)[n-]c3ncccc23)c(=O)n1C(=O)N1CCN(Cc2ccccc2)CC1 (protonated)
C=c1[n-]/c(=C/c2c(O)[n-]c3ncccc23)c(=O)n1C(=O)N1CCN(Cc2ccccc2)CC1 (cis-trans isomerization)
C=c1[n-]/c(=C/c2c(O)[n-]c3ncccc23)c(=O)n1C(=O)N1CCN(Cc2ccccc2)CC1 (3D coordinates assigned)
C=c1[n-]/c(=C/c2c(O)[n-]c3ncccc23)c(=O)n1C(=O)N1CCN(Cc2ccccc2)CC1 (nonaromatic ring conformer: 148.9336720810685 kcal/mol)

>  <smiles>  (58) 
C=c1[nH]c(=Cc2c(O)[nH]c3ncccc23)c(=O)n1C(=O)N1CCN(Cc2ccccc2)CC1

>  <score_type>  (58) 
oracle

>  <origin>  (58) 
adg

>  <m_score__min__energy>  (58) 
-13.34

>  <m_primary>  (58) 
energy

$$$$
58:0
     RDKit          3D

 54 58  0  0  0  0  0  0  0  0999 V2000
   66.4980   30.4410   51.6350 C   0  0  0  0  0  0  0  0  0  0  0  0
   67.0720   31.8270   51.4790 C   0  0  0  0  0  0  0  0  0  0  0  0
   68.4080   32.0350   51.8680 C   0  0  0  0  0  0  0  0  0  0  0  0
   68.9930   33.2970   51.7680 C   0  0  0  0  0  0  0  0  0  0  0  0
   68.2550   34.3730   51.2840 C   0  0  0  0  0  0  0  0  0  0  0  0
   66.9240   34.1940   50.9080 C   0  0  0  0  0  0  0  0  0  0  0  0
   66.3020   32.9340   51.0150 C   0  0  0  0  0  0  0  0  0  0  0  0
   64.8570   32.8220   50.5580 C   0  0  1  0  0  0  0  0  0  0  0  0
   63.9610   33.8200   51.3130 C   0  0  0  0  0  0  0  0  0  0  0  0
   62.5150   33.7190   50.8100 C   0  0  0  0  0  0  0  0  0  0  0  0
   62.4450   33.7890   49.3060 C   0  0  0  0  0  0  0  0  0  0  0  0
   61.2560   34.1760   48.6700 C   0  0  0  0  0  0  0  0  0  0  0  0
   61.1820   34.2190   47.2670 C   0  0  0  0  0  0  0  0  0  0  0  0
   60.0110   34.6020   46.5990 O   0  0  0  0  0  0  0  0  0  0  0  0
   59.1560   33.7310   45.9140 C   0  0  0  0  0  0  0  0  0  0  0  0
   58.1420   34.1750   45.1410 N   0  0  0  0  0  0  0  0  0  0  0  0
   57.4230   33.1500   44.6080 C   0  0  0  0  0  0  0  0  0  0  0  0
   57.8600   31.8770   44.9650 C   0  0  0  0  0  0  0  0  0  0  0  0
   57.2560   30.6060   44.5290 C   0  0  0  0  0  0  0  0  0  0  0  0
   56.0470   30.3700   44.8020 O   0  0  0  0  0  0  0  0  0  0  0  0
   58.0250   29.6380   43.7990 N   0  0  0  0  0  0  0  0  0  0  0  0
   57.4350   28.3740   43.3610 C   0  0  0  0  0  0  0  0  0  0  0  0
   57.7040   27.2930   44.3590 C   0  0  0  0  0  0  0  0  0  0  0  0
   57.7740   25.9330   44.0860 C   0  0  0  0  0  0  0  0  0  0  0  0
   58.1280   25.1660   45.2020 C   0  0  0  0  0  0  0  0  0  0  0  0
   58.3520   25.9180   46.3480 C   0  0  0  0  0  0  0  0  0  0  0  0
   58.1130   27.5400   45.9710 S   0  0  0  0  0  0  0  0  0  0  0  0
   59.1890   32.0460   45.9850 S   0  0  0  0  0  0  0  0  0  0  0  0
   62.2900   33.8230   46.5070 C   0  0  0  0  0  0  0  0  0  0  0  0
   63.4700   33.4200   47.1350 C   0  0  0  0  0  0  0  0  0  0  0  0
   63.5520   33.3960   48.5300 C   0  0  0  0  0  0  0  0  0  0  0  0
   64.7450   33.0000   49.1450 O   0  0  0  0  0  0  0  0  0  0  0  0
   66.3995   30.2032   52.7045 H   0  0  0  0  0  0  0  0  0  0  0  0
   65.5081   30.3982   51.1572 H   0  0  0  0  0  0  0  0  0  0  0  0
   67.1677   29.7108   51.1572 H   0  0  0  0  0  0  0  0  0  0  0  0
   68.9984   31.1918   52.2558 H   0  0  0  0  0  0  0  0  0  0  0  0
   70.0400   33.4422   52.0724 H   0  0  0  0  0  0  0  0  0  0  0  0
   68.7218   35.3653   51.1979 H   0  0  0  0  0  0  0  0  0  0  0  0
   66.3507   35.0497   50.5219 H   0  0  0  0  0  0  0  0  0  0  0  0
   64.5087   31.8060   50.7954 H   0  0  0  0  0  0  0  0  0  0  0  0
   63.9884   33.5913   52.3886 H   0  0  0  0  0  0  0  0  0  0  0  0
   64.3321   34.8404   51.1366 H   0  0  0  0  0  0  0  0  0  0  0  0
   62.0871   32.7620   51.1432 H   0  0  0  0  0  0  0  0  0  0  0  0
   61.9476   34.5671   51.2209 H   0  0  0  0  0  0  0  0  0  0  0  0
   60.3767   34.4473   49.2726 H   0  0  0  0  0  0  0  0  0  0  0  0
   56.5611   33.3147   43.9447 H   0  0  0  0  0  0  0  0  0  0  0  0
   59.0250   29.8430   43.5760 H   0  0  0  0  0  0  0  0  0  0  0  0
   56.3480   28.5016   43.2506 H   0  0  0  0  0  0  0  0  0  0  0  0
   57.8845   28.0877   42.3987 H   0  0  0  0  0  0  0  0  0  0  0  0
   57.5719   25.5026   43.0941 H   0  0  0  0  0  0  0  0  0  0  0  0
   58.2202   24.0702   45.1740 H   0  0  0  0  0  0  0  0  0  0  0  0
   58.6369   25.5210   47.3335 H   0  0  0  0  0  0  0  0  0  0  0  0
   62.2300   33.8296   45.4087 H   0  0  0  0  0  0  0  0  0  0  0  0
   64.3382   33.1203   46.5297 H   0  0  0  0  0  0  0  0  0  0  0  0
  1  2  1  0
  2  3  2  0
  3  4  1  0
  4  5  2  0
  5  6  1  0
  6  7  2  0
  7  8  1  0
  8  9  1  0
  9 10  1  0
 10 11  1  0
 11 12  2  0
 12 13  1  0
 13 14  1  0
 14 15  1  0
 15 16  2  0
 16 17  1  0
 17 18  2  0
 18 19  1  0
 19 20  2  0
 19 21  1  0
 21 22  1  0
 22 23  1  0
 23 24  2  0
 24 25  1  0
 25 26  2  0
 26 27  1  0
 18 28  1  0
 13 29  2  0
 29 30  1  0
 30 31  2  0
 31 32  1  0
  7  2  1  0
 32  8  1  0
 31 11  1  0
 28 15  1  0
 27 23  1  0
  1 33  1  0
  1 34  1  0
  1 35  1  0
  3 36  1  0
  4 37  1  0
  5 38  1  0
  6 39  1  0
  8 40  1  6
  9 41  1  0
  9 42  1  0
 10 43  1  0
 10 44  1  0
 12 45  1  0
 17 46  1  0
 21 47  1  0
 22 48  1  0
 22 49  1  0
 24 50  1  0
 25 51  1  0
 26 52  1  0
 29 53  1  0
 30 54  1  0
M  END
>  <UniqueID>  (59) 
57

>  <SMILES>  (59) 
Cc1ccccc1[C@H]1CCc2cc(Oc3ncc(C(=O)NCc4cccs4)s3)ccc2O1

>  <Energy>  (59) 
119.85490984698986

>  <Genealogy>  (59) 
Cc1ccccc1[C@H]1CCc2cc(Oc3ncc(C(=O)NCc4cccs4)s3)ccc2O1 (chirality)
Cc1ccccc1[C@H]1CCc2cc(Oc3ncc(C(=O)NCc4cccs4)s3)ccc2O1 (3D coordinates assigned)
Cc1ccccc1[C@H]1CCc2cc(Oc3ncc(C(=O)NCc4cccs4)s3)ccc2O1 (nonaromatic ring conformer: 119.85490984698986 kcal/mol)

>  <smiles>  (59) 
Cc1ccccc1C1CCc2cc(Oc3ncc(C(=O)NCc4cccs4)s3)ccc2O1

>  <score_type>  (59) 
oracle

>  <origin>  (59) 
adg

>  <m_score__min__energy>  (59) 
-9.1099999999999994

>  <m_primary>  (59) 
energy

$$$$
59:0
     RDKit          3D

 42 44  0  0  0  0  0  0  0  0999 V2000
   55.7524   28.9134   43.5506 H   0  0  0  0  0  0  0  0  0  0  0  0
   56.1510   29.7640   44.1230 C   0  0  0  0  0  0  0  0  0  0  0  0
   55.7258   30.7688   43.9829 H   0  0  0  0  0  0  0  0  0  0  0  0
   57.1500   29.5770   44.9870 C   0  0  0  0  0  0  0  0  0  0  0  0
   57.6500   30.5710   45.6870 O   0  0  0  0  0  0  0  0  0  0  0  0
   58.5300   30.0980   46.5400 C   0  0  0  0  0  0  0  0  0  0  0  0
   59.2710   30.9450   47.4880 C   0  0  0  0  0  0  0  0  0  0  0  0
   58.7890   31.1330   48.6380 O   0  0  0  0  0  0  0  0  0  0  0  0
   60.5170   31.5590   47.1240 N   0  0  0  0  0  0  0  0  0  0  0  0
   60.8320   31.5440   46.1280 H   0  0  0  0  0  0  0  0  0  0  0  0
   61.3530   32.2690   48.0900 C   0  0  0  0  0  0  0  0  0  0  0  0
   61.6209   31.5818   48.9061 H   0  0  0  0  0  0  0  0  0  0  0  0
   62.2553   32.6274   47.5728 H   0  0  0  0  0  0  0  0  0  0  0  0
   60.6160   33.4800   48.6770 C   0  0  0  0  0  0  0  0  0  0  0  0
   59.6244   33.1574   49.0272 H   0  0  0  0  0  0  0  0  0  0  0  0
   61.2195   33.8772   49.5064 H   0  0  0  0  0  0  0  0  0  0  0  0
   60.4370   34.5970   47.6420 C   0  0  0  0  0  0  0  0  0  0  0  0
   60.1611   35.5283   48.1584 H   0  0  0  0  0  0  0  0  0  0  0  0
   61.3828   34.7319   47.0967 H   0  0  0  0  0  0  0  0  0  0  0  0
   59.3550   34.2360   46.6590 C   0  0  0  0  0  0  0  0  0  0  0  0
   59.6260   34.2240   45.2800 C   0  0  0  0  0  0  0  0  0  0  0  0
   60.6250   34.5048   44.9150 H   0  0  0  0  0  0  0  0  0  0  0  0
   58.6290   33.8560   44.3700 C   0  0  0  0  0  0  0  0  0  0  0  0
   58.8429   33.8548   43.2910 H   0  0  0  0  0  0  0  0  0  0  0  0
   57.3620   33.4900   44.8310 C   0  0  0  0  0  0  0  0  0  0  0  0
   56.5778   33.2047   44.1143 H   0  0  0  0  0  0  0  0  0  0  0  0
   57.0900   33.4860   46.2010 C   0  0  0  0  0  0  0  0  0  0  0  0
   56.0929   33.1936   46.5621 H   0  0  0  0  0  0  0  0  0  0  0  0
   58.0830   33.8530   47.1140 C   0  0  0  0  0  0  0  0  0  0  0  0
   57.8671   33.8417   48.1926 H   0  0  0  0  0  0  0  0  0  0  0  0
   58.6240   28.7240   46.4050 C   0  0  0  0  0  0  0  0  0  0  0  0
   59.2524   28.0429   46.9977 H   0  0  0  0  0  0  0  0  0  0  0  0
   57.7680   28.3800   45.3740 C   0  0  0  0  0  0  0  0  0  0  0  0
   57.6400   27.1220   44.9100 C   0  0  0  0  0  0  0  0  0  0  0  0
   57.9322   26.9394   43.8654 H   0  0  0  0  0  0  0  0  0  0  0  0
   57.1430   25.9710   45.6800 C   0  0  0  0  0  0  0  0  0  0  0  0
   57.9130   24.9690   46.1440 N   0  0  0  0  0  0  0  0  0  0  0  0
   57.0610   24.2460   46.9010 C   0  0  0  0  0  0  0  0  0  0  0  0
   57.4110   23.1980   47.5040 O   0  0  0  0  0  0  0  0  0  0  0  0
   55.8060   24.7410   46.9720 N   0  0  0  0  0  0  0  0  0  0  0  0
   55.8810   25.8400   46.2060 C   0  0  0  0  0  0  0  0  0  0  0  0
   54.8200   26.7110   45.9970 O   0  0  0  0  0  0  0  0  0  0  0  0
  1  2  1  0
  2  3  1  0
  2  4  2  0
  4  5  1  0
  5  6  1  0
  6  7  1  0
  7  8  2  0
  7  9  1  0
  9 10  1  0
  9 11  1  0
 11 12  1  0
 11 13  1  0
 11 14  1  0
 14 15  1  0
 14 16  1  0
 14 17  1  0
 17 18  1  0
 17 19  1  0
 17 20  1  0
 20 21  2  0
 21 22  1  0
 21 23  1  0
 23 24  1  0
 23 25  2  0
 25 26  1  0
 25 27  1  0
 27 28  1  0
 27 29  2  0
 29 30  1  0
  6 31  2  0
 31 32  1  0
 31 33  1  0
 33 34  2  0
 34 35  1  0
 34 36  1  0
 36 37  1  0
 37 38  1  0
 38 39  2  0
 38 40  1  0
 40 41  1  0
 41 42  1  0
 33  4  1  0
 41 36  2  0
 29 20  1  0
M  CHG  3  37  -1  40  -1  42  -1
M  END
>  <UniqueID>  (60) 
58

>  <SMILES>  (60) 
C=c1oc(C(=O)NCCCc2ccccc2)c/c1=C/c1[n-]c(=O)[n-]c1[O-]

>  <Energy>  (60) 
104.34159535806647

>  <Genealogy>  (60) 
C=c1oc(C(=O)NCCCc2ccccc2)cc1=Cc1[n-]c(=O)[n-]c1[O-] (protonated)
C=c1oc(C(=O)NCCCc2ccccc2)c/c1=C/c1[n-]c(=O)[n-]c1[O-] (cis-trans isomerization)
C=c1oc(C(=O)NCCCc2ccccc2)c/c1=C/c1[n-]c(=O)[n-]c1[O-] (3D coordinates assigned)
C=c1oc(C(=O)NCCCc2ccccc2)c/c1=C/c1[n-]c(=O)[n-]c1[O-] (optimized conformer: 104.34159535806647 kcal/mol)

>  <smiles>  (60) 
C=c1oc(C(=O)NCCCc2ccccc2)cc1=Cc1[nH]c(=O)[nH]c1O

>  <score_type>  (60) 
oracle

>  <origin>  (60) 
adg

>  <m_score__min__energy>  (60) 
-18.260000000000002

>  <m_primary>  (60) 
energy

$$$$
60:0
     RDKit          3D

 62 65  0  0  0  0  0  0  0  0999 V2000
   57.2540   25.5170   45.3220 C   0  0  0  0  0  0  0  0  0  0  0  0
   58.0130   26.8340   45.1790 C   0  0  0  0  0  0  0  0  0  0  0  0
   58.1650   27.1910   43.6970 C   0  0  0  0  0  0  0  0  0  0  0  0
   57.2830   27.8540   45.8670 O   0  0  0  0  0  0  0  0  0  0  0  0
   57.3890   29.2500   45.6980 C   0  0  0  0  0  0  0  0  0  0  0  0
   58.4090   29.8980   46.4060 C   0  0  0  0  0  0  0  0  0  0  0  0
   58.5800   31.2910   46.3230 C   0  0  0  0  0  0  0  0  0  0  0  0
   59.6470   31.9970   47.0810 C   0  0  0  0  0  0  0  0  0  0  0  0
   60.9940   31.9560   46.6810 C   0  0  0  0  0  0  0  0  0  0  0  0
   61.9610   32.6130   47.4420 C   0  0  0  0  0  0  0  0  0  0  0  0
   61.5940   33.3140   48.6010 C   0  0  0  0  0  0  0  0  0  0  0  0
   62.6110   33.9840   49.4440 C   0  0  0  0  0  0  0  0  0  0  0  0
   62.6230   35.2430   49.5200 O   0  0  0  0  0  0  0  0  0  0  0  0
   63.5720   33.2260   50.1990 N   0  0  0  0  0  0  0  0  0  0  0  0
   63.7480   33.5120   51.6290 C   0  0  0  0  0  0  0  0  0  0  0  0
   65.1720   33.1860   52.1000 C   0  0  0  0  0  0  0  0  0  0  0  0
   65.5990   31.8520   51.6530 N   0  0  0  0  0  0  0  0  0  0  0  0
   66.7460   31.2410   52.2720 C   0  0  0  0  0  0  0  0  0  0  0  0
   67.6120   31.9620   52.8390 O   0  0  0  0  0  0  0  0  0  0  0  0
   66.9340   29.8180   52.2300 N   0  0  0  0  0  0  0  0  0  0  0  0
   68.2640   29.2780   51.9390 C   0  0  0  0  0  0  0  0  0  0  0  0
   68.2000   27.7540   51.8210 C   0  0  0  0  0  0  0  0  0  0  0  0
   67.0180   27.3880   51.1420 O   0  0  0  0  0  0  0  0  0  0  0  0
   65.8850   27.5820   51.9740 C   0  0  0  0  0  0  0  0  0  0  0  0
   65.8940   28.9230   52.7450 C   0  0  0  0  0  0  0  0  0  0  0  0
   64.9740   31.2230   50.4810 C   0  0  0  0  0  0  0  0  0  0  0  0
   64.4630   32.2860   49.5090 C   0  0  0  0  0  0  0  0  0  0  0  0
   60.2420   33.3210   48.9740 C   0  0  0  0  0  0  0  0  0  0  0  0
   59.3170   32.6730   48.2170 N   0  0  0  0  0  0  0  0  0  0  0  0
   57.7210   32.0120   45.4830 C   0  0  0  0  0  0  0  0  0  0  0  0
   56.7480   31.3740   44.7850 N   0  0  0  0  0  0  0  0  0  0  0  0
   56.5560   30.0290   44.8600 C   0  0  0  0  0  0  0  0  0  0  0  0
   55.6280   29.4890   44.1390 N   0  0  0  0  0  0  0  0  0  0  0  0
   57.1202   25.2849   46.3889 H   0  0  0  0  0  0  0  0  0  0  0  0
   56.2693   25.6071   44.8401 H   0  0  0  0  0  0  0  0  0  0  0  0
   57.8256   24.7102   44.8401 H   0  0  0  0  0  0  0  0  0  0  0  0
   59.0190   26.7416   45.6141 H   0  0  0  0  0  0  0  0  0  0  0  0
   58.5944   28.1995   43.6050 H   0  0  0  0  0  0  0  0  0  0  0  0
   58.8312   26.4631   43.2109 H   0  0  0  0  0  0  0  0  0  0  0  0
   57.1785   27.1667   43.2109 H   0  0  0  0  0  0  0  0  0  0  0  0
   59.0881   29.3068   47.0379 H   0  0  0  0  0  0  0  0  0  0  0  0
   61.2841   31.4084   45.7722 H   0  0  0  0  0  0  0  0  0  0  0  0
   63.0160   32.5815   47.1322 H   0  0  0  0  0  0  0  0  0  0  0  0
   63.5489   34.5792   51.8066 H   0  0  0  0  0  0  0  0  0  0  0  0
   63.0461   32.8816   52.1946 H   0  0  0  0  0  0  0  0  0  0  0  0
   65.8637   33.9375   51.6915 H   0  0  0  0  0  0  0  0  0  0  0  0
   65.1815   33.1992   53.1999 H   0  0  0  0  0  0  0  0  0  0  0  0
   68.6288   29.7010   50.9914 H   0  0  0  0  0  0  0  0  0  0  0  0
   68.9480   29.5467   52.7575 H   0  0  0  0  0  0  0  0  0  0  0  0
   69.0736   27.3919   51.2592 H   0  0  0  0  0  0  0  0  0  0  0  0
   68.2015   27.3062   52.8257 H   0  0  0  0  0  0  0  0  0  0  0  0
   64.9837   27.5510   51.3441 H   0  0  0  0  0  0  0  0  0  0  0  0
   65.9022   26.7810   52.7277 H   0  0  0  0  0  0  0  0  0  0  0  0
   64.9135   29.4089   52.6330 H   0  0  0  0  0  0  0  0  0  0  0  0
   66.1029   28.7164   53.8050 H   0  0  0  0  0  0  0  0  0  0  0  0
   65.7166   30.5927   49.9698 H   0  0  0  0  0  0  0  0  0  0  0  0
   64.1236   30.6118   50.8176 H   0  0  0  0  0  0  0  0  0  0  0  0
   65.3189   32.8374   49.0926 H   0  0  0  0  0  0  0  0  0  0  0  0
   63.9027   31.7910   48.7021 H   0  0  0  0  0  0  0  0  0  0  0  0
   59.9283   33.8536   49.8839 H   0  0  0  0  0  0  0  0  0  0  0  0
   57.8362   33.1019   45.3889 H   0  0  0  0  0  0  0  0  0  0  0  0
   55.4290   28.4640   44.1790 H   0  0  0  0  0  0  0  0  0  0  0  0
  1  2  1  0
  2  3  1  0
  2  4  1  0
  4  5  1  0
  5  6  2  0
  6  7  1  0
  7  8  1  0
  8  9  2  0
  9 10  1  0
 10 11  2  0
 11 12  1  0
 12 13  2  0
 12 14  1  0
 14 15  1  0
 15 16  1  0
 16 17  1  0
 17 18  1  0
 18 19  2  0
 18 20  1  0
 20 21  1  0
 21 22  1  0
 22 23  1  0
 23 24  1  0
 24 25  1  0
 17 26  1  0
 26 27  1  0
 11 28  1  0
 28 29  2  0
  7 30  2  0
 30 31  1  0
 31 32  1  0
 32 33  2  3
 32  5  1  0
 29  8  1  0
 27 14  1  0
 25 20  1  0
  1 34  1  0
  1 35  1  0
  1 36  1  0
  2 37  1  0
  3 38  1  0
  3 39  1  0
  3 40  1  0
  6 41  1  0
  9 42  1  0
 10 43  1  0
 15 44  1  0
 15 45  1  0
 16 46  1  0
 16 47  1  0
 21 48  1  0
 21 49  1  0
 22 50  1  0
 22 51  1  0
 24 52  1  0
 24 53  1  0
 25 54  1  0
 25 55  1  0
 26 56  1  0
 26 57  1  0
 27 58  1  0
 27 59  1  0
 28 60  1  0
 30 61  1  0
 33 62  1  0
M  CHG  1  31  -1
M  END
>  <UniqueID>  (61) 
59

>  <SMILES>  (61) 
CC(C)Oc1cc(-c2ccc(C(=O)N3CCN(C(=O)N4CCOCC4)CC3)cn2)c[n-]c1=N

>  <Energy>  (61) 
85.32577425844839

>  <Genealogy>  (61) 
CC(C)Oc1cc(-c2ccc(C(=O)N3CCN(C(=O)N4CCOCC4)CC3)cn2)c[n-]c1=N (protonated)
CC(C)Oc1cc(-c2ccc(C(=O)N3CCN(C(=O)N4CCOCC4)CC3)cn2)c[n-]c1=N (3D coordinates assigned)
CC(C)Oc1cc(-c2ccc(C(=O)N3CCN(C(=O)N4CCOCC4)CC3)cn2)c[n-]c1=N (nonaromatic ring conformer: 85.32577425844839 kcal/mol)

>  <smiles>  (61) 
CC(C)Oc1cc(-c2ccc(C(=O)N3CCN(C(=O)N4CCOCC4)CC3)cn2)c[nH]c1=N

>  <score_type>  (61) 
oracle

>  <origin>  (61) 
adg

>  <m_score__min__energy>  (61) 
-9.2899999999999991

>  <m_primary>  (61) 
energy

$$$$
61:0
     RDKit          3D

 36 38  0  0  0  0  0  0  0  0999 V2000
   57.7900   32.7770   45.1050 C   0  0  0  0  0  0  0  0  0  0  0  0
   57.9290   31.5380   45.8620 N   0  0  0  0  0  0  0  0  0  0  0  0
   57.7520   30.2300   45.2870 C   0  0  0  0  0  0  0  0  0  0  0  0
   57.8720   30.0090   43.9020 C   0  0  0  0  0  0  0  0  0  0  0  0
   57.6980   28.7280   43.3760 C   0  0  0  0  0  0  0  0  0  0  0  0
   57.4030   27.6540   44.2170 C   0  0  0  0  0  0  0  0  0  0  0  0
   57.2720   27.8530   45.6020 C   0  0  0  0  0  0  0  0  0  0  0  0
   56.9740   26.6930   46.5280 C   0  0  1  0  0  0  0  0  0  0  0  0
   55.5520   26.3630   46.4810 N   0  0  0  0  0  0  0  0  0  0  0  0
   55.0300   25.3010   45.6910 C   0  0  0  0  0  0  0  0  0  0  0  0
   53.7820   25.1660   45.5790 O   0  0  0  0  0  0  0  0  0  0  0  0
   55.9560   24.3680   45.0350 C   0  0  0  0  0  0  0  0  0  0  0  0
   55.4810   23.3600   44.1780 C   0  0  0  0  0  0  0  0  0  0  0  0
   56.3720   22.4720   43.5740 C   0  0  0  0  0  0  0  0  0  0  0  0
   55.8970   21.4790   42.7270 O   0  0  0  0  0  0  0  0  0  0  0  0
   57.7400   22.5820   43.8220 C   0  0  0  0  0  0  0  0  0  0  0  0
   58.2230   23.5790   44.6740 C   0  0  0  0  0  0  0  0  0  0  0  0
   57.3380   24.4900   45.2900 C   0  0  0  0  0  0  0  0  0  0  0  0
   57.8210   25.5340   46.1780 N   0  0  0  0  0  0  0  0  0  0  0  0
   59.2100   25.5260   46.6550 C   0  0  0  0  0  0  0  0  0  0  0  0
   57.4550   29.1450   46.1280 C   0  0  0  0  0  0  0  0  0  0  0  0
   57.6951   33.6233   45.8012 H   0  0  0  0  0  0  0  0  0  0  0  0
   58.6776   32.9212   44.4715 H   0  0  0  0  0  0  0  0  0  0  0  0
   56.8925   32.7209   44.4715 H   0  0  0  0  0  0  0  0  0  0  0  0
   58.1710   31.6160   46.8770 H   0  0  0  0  0  0  0  0  0  0  0  0
   58.1039   30.8495   43.2314 H   0  0  0  0  0  0  0  0  0  0  0  0
   57.7939   28.5640   42.2925 H   0  0  0  0  0  0  0  0  0  0  0  0
   57.2724   26.6471   43.7938 H   0  0  0  0  0  0  0  0  0  0  0  0
   57.2131   26.9798   47.5627 H   0  0  0  0  0  0  0  0  0  0  0  0
   54.4022   23.2708   43.9827 H   0  0  0  0  0  0  0  0  0  0  0  0
   58.4414   21.8815   43.3453 H   0  0  0  0  0  0  0  0  0  0  0  0
   59.3034   23.6546   44.8665 H   0  0  0  0  0  0  0  0  0  0  0  0
   59.2199   25.5259   47.7550 H   0  0  0  0  0  0  0  0  0  0  0  0
   59.7200   24.6249   46.2837 H   0  0  0  0  0  0  0  0  0  0  0  0
   59.7304   26.4212   46.2837 H   0  0  0  0  0  0  0  0  0  0  0  0
   57.3643   29.3075   47.2121 H   0  0  0  0  0  0  0  0  0  0  0  0
  1  2  1  0
  2  3  1  0
  3  4  2  0
  4  5  1  0
  5  6  2  0
  6  7  1  0
  7  8  1  0
  8  9  1  0
  9 10  1  0
 10 11  2  0
 10 12  1  0
 12 13  2  0
 13 14  1  0
 14 15  1  0
 14 16  2  0
 16 17  1  0
 17 18  2  0
 18 19  1  0
 19 20  1  0
  7 21  2  0
 21  3  1  0
 19  8  1  0
 18 12  1  0
  1 22  1  0
  1 23  1  0
  1 24  1  0
  2 25  1  0
  4 26  1  0
  5 27  1  0
  6 28  1  0
  8 29  1  1
 13 30  1  0
 16 31  1  0
 17 32  1  0
 20 33  1  0
 20 34  1  0
 20 35  1  0
 21 36  1  0
M  CHG  2   9  -1  15  -1
M  END
>  <UniqueID>  (62) 
60

>  <SMILES>  (62) 
CNc1cccc([C@H]2[N-]C(=O)c3cc([O-])ccc3N2C)c1

>  <Energy>  (62) 
40.06455979124264

>  <Genealogy>  (62) 
CNc1cccc(C2[N-]C(=O)c3cc([O-])ccc3N2C)c1 (protonated)
CNc1cccc([C@H]2[N-]C(=O)c3cc([O-])ccc3N2C)c1 (chirality)
CNc1cccc([C@H]2[N-]C(=O)c3cc([O-])ccc3N2C)c1 (3D coordinates assigned)
CNc1cccc([C@H]2[N-]C(=O)c3cc([O-])ccc3N2C)c1 (nonaromatic ring conformer: 40.06455979124264 kcal/mol)

>  <smiles>  (62) 
CNc1cccc(C2NC(=O)c3cc(O)ccc3N2C)c1

>  <score_type>  (62) 
oracle

>  <origin>  (62) 
adg

>  <m_score__min__energy>  (62) 
-10.199999999999999

>  <m_primary>  (62) 
energy

$$$$
62:0
     RDKit          3D

 57 60  0  0  0  0  0  0  0  0999 V2000
   59.9760   25.9410   46.3800 C   0  0  0  0  0  0  0  0  0  0  0  0
   58.5880   26.3830   46.5870 N   0  0  0  0  0  0  0  0  0  0  0  0
   57.9100   26.6470   45.2910 C   0  0  0  0  0  0  0  0  0  0  0  0
   57.0370   27.9080   45.3010 C   0  0  0  0  0  0  0  0  0  0  0  0
   57.8420   29.0470   45.7610 N   0  0  0  0  0  0  0  0  0  0  0  0
   57.7820   30.3280   45.1000 C   0  0  0  0  0  0  0  0  0  0  0  0
   57.6090   30.3960   43.7520 N   0  0  0  0  0  0  0  0  0  0  0  0
   57.5380   31.5900   43.1100 C   0  0  0  0  0  0  0  0  0  0  0  0
   57.3780   31.6230   41.8620 O   0  0  0  0  0  0  0  0  0  0  0  0
   57.6400   32.7770   43.8350 C   0  0  0  0  0  0  0  0  0  0  0  0
   57.8080   32.6990   45.2210 C   0  0  0  0  0  0  0  0  0  0  0  0
   57.9450   33.9400   46.0500 C   0  0  0  0  0  0  0  0  0  0  0  0
   59.2660   33.9440   46.7690 C   0  0  0  0  0  0  0  0  0  0  0  0
   60.4530   33.6660   46.0750 C   0  0  0  0  0  0  0  0  0  0  0  0
   61.6780   33.6490   46.7480 C   0  0  0  0  0  0  0  0  0  0  0  0
   61.7340   33.8950   48.1310 C   0  0  0  0  0  0  0  0  0  0  0  0
   63.0250   33.8940   48.8610 C   0  0  0  0  0  0  0  0  0  0  0  0
   64.0860   33.6280   48.2330 O   0  0  0  0  0  0  0  0  0  0  0  0
   63.0890   34.2110   50.2620 N   0  0  0  0  0  0  0  0  0  0  0  0
   64.3460   34.1970   51.0060 C   0  0  0  0  0  0  0  0  0  0  0  0
   64.8710   32.7920   51.1180 C   0  0  0  0  0  0  0  0  0  0  0  0
   66.2120   32.5170   50.8080 C   0  0  0  0  0  0  0  0  0  0  0  0
   66.6970   31.2070   50.8790 C   0  0  0  0  0  0  0  0  0  0  0  0
   65.8460   30.1650   51.2640 C   0  0  0  0  0  0  0  0  0  0  0  0
   64.5100   30.4320   51.5750 C   0  0  0  0  0  0  0  0  0  0  0  0
   64.0220   31.7390   51.5000 C   0  0  0  0  0  0  0  0  0  0  0  0
   60.5410   34.1680   48.8230 C   0  0  0  0  0  0  0  0  0  0  0  0
   59.3170   34.1810   48.1490 C   0  0  0  0  0  0  0  0  0  0  0  0
   57.8850   31.4800   45.8170 N   0  0  0  0  0  0  0  0  0  0  0  0
   58.7200   28.8680   46.9240 C   0  0  0  0  0  0  0  0  0  0  0  0
   58.5150   27.4890   47.5700 C   0  0  0  0  0  0  0  0  0  0  0  0
   60.4609   25.7866   47.3552 H   0  0  0  0  0  0  0  0  0  0  0  0
   59.9799   24.9972   45.8150 H   0  0  0  0  0  0  0  0  0  0  0  0
   60.5249   26.7088   45.8150 H   0  0  0  0  0  0  0  0  0  0  0  0
   58.6792   26.7626   44.5132 H   0  0  0  0  0  0  0  0  0  0  0  0
   57.2431   25.7942   45.0960 H   0  0  0  0  0  0  0  0  0  0  0  0
   56.6651   28.1064   44.2850 H   0  0  0  0  0  0  0  0  0  0  0  0
   56.1823   27.7613   45.9777 H   0  0  0  0  0  0  0  0  0  0  0  0
   57.5895   33.7520   43.3283 H   0  0  0  0  0  0  0  0  0  0  0  0
   57.8854   34.8221   45.3955 H   0  0  0  0  0  0  0  0  0  0  0  0
   57.1335   33.9660   46.7922 H   0  0  0  0  0  0  0  0  0  0  0  0
   60.4196   33.4602   44.9949 H   0  0  0  0  0  0  0  0  0  0  0  0
   62.6042   33.4418   46.1919 H   0  0  0  0  0  0  0  0  0  0  0  0
   62.2320   34.5280   50.7660 H   0  0  0  0  0  0  0  0  0  0  0  0
   65.0853   34.8198   50.4810 H   0  0  0  0  0  0  0  0  0  0  0  0
   64.1681   34.5940   52.0163 H   0  0  0  0  0  0  0  0  0  0  0  0
   66.8839   33.3347   50.5081 H   0  0  0  0  0  0  0  0  0  0  0  0
   67.7479   30.9957   50.6321 H   0  0  0  0  0  0  0  0  0  0  0  0
   66.2288   29.1354   51.3219 H   0  0  0  0  0  0  0  0  0  0  0  0
   63.8421   29.6126   51.8791 H   0  0  0  0  0  0  0  0  0  0  0  0
   62.9687   31.9448   51.7410 H   0  0  0  0  0  0  0  0  0  0  0  0
   60.5714   34.3729   49.9033 H   0  0  0  0  0  0  0  0  0  0  0  0
   58.3885   34.3784   48.7048 H   0  0  0  0  0  0  0  0  0  0  0  0
   59.7672   28.9601   46.6002 H   0  0  0  0  0  0  0  0  0  0  0  0
   58.4738   29.6403   47.6676 H   0  0  0  0  0  0  0  0  0  0  0  0
   59.2951   27.3366   48.3304 H   0  0  0  0  0  0  0  0  0  0  0  0
   57.5083   27.4750   48.0132 H   0  0  0  0  0  0  0  0  0  0  0  0
  1  2  1  0
  2  3  1  0
  3  4  1  0
  4  5  1  0
  5  6  1  0
  6  7  2  0
  7  8  1  0
  8  9  2  0
  8 10  1  0
 10 11  2  0
 11 12  1  0
 12 13  1  0
 13 14  2  0
 14 15  1  0
 15 16  2  0
 16 17  1  0
 17 18  2  0
 17 19  1  0
 19 20  1  0
 20 21  1  0
 21 22  2  0
 22 23  1  0
 23 24  2  0
 24 25  1  0
 25 26  2  0
 16 27  1  0
 27 28  2  0
 11 29  1  0
  5 30  1  0
 30 31  1  0
 31  2  1  0
 29  6  1  0
 28 13  1  0
 26 21  1  0
  1 32  1  0
  1 33  1  0
  1 34  1  0
  3 35  1  0
  3 36  1  0
  4 37  1  0
  4 38  1  0
 10 39  1  0
 12 40  1  0
 12 41  1  0
 14 42  1  0
 15 43  1  0
 19 44  1  0
 20 45  1  0
 20 46  1  0
 22 47  1  0
 23 48  1  0
 24 49  1  0
 25 50  1  0
 26 51  1  0
 27 52  1  0
 28 53  1  0
 30 54  1  0
 30 55  1  0
 31 56  1  0
 31 57  1  0
M  CHG  1  29  -1
M  END
>  <UniqueID>  (63) 
61

>  <SMILES>  (63) 
CN1CCN(c2nc(=O)cc(Cc3ccc(C(=O)NCc4ccccc4)cc3)[n-]2)CC1

>  <Energy>  (63) 
66.79696938642209

>  <Genealogy>  (63) 
CN1CCN(c2nc(=O)cc(Cc3ccc(C(=O)NCc4ccccc4)cc3)[n-]2)CC1 (protonated)
CN1CCN(c2nc(=O)cc(Cc3ccc(C(=O)NCc4ccccc4)cc3)[n-]2)CC1 (3D coordinates assigned)
CN1CCN(c2nc(=O)cc(Cc3ccc(C(=O)NCc4ccccc4)cc3)[n-]2)CC1 (nonaromatic ring conformer: 66.79696938642209 kcal/mol)

>  <smiles>  (63) 
CN1CCN(c2nc(=O)cc(Cc3ccc(C(=O)NCc4ccccc4)cc3)[nH]2)CC1

>  <score_type>  (63) 
oracle

>  <origin>  (63) 
adg

>  <m_score__min__energy>  (63) 
-10.68

>  <m_primary>  (63) 
energy

$$$$
63:0
     RDKit          3D

 62 65  0  0  0  0  0  0  0  0999 V2000
   60.4290   29.1170   45.9700 C   0  0  0  0  0  0  0  0  0  0  0  0
   58.9590   28.8800   46.3210 C   0  0  1  0  0  0  0  0  0  0  0  0
   58.6400   29.4970   47.6120 N   0  0  0  0  0  0  0  0  0  0  0  0
   58.7760   30.9080   47.8460 C   0  0  0  0  0  0  0  0  0  0  0  0
   58.7760   31.7090   46.8700 O   0  0  0  0  0  0  0  0  0  0  0  0
   58.9000   31.4400   49.2220 C   0  0  0  0  0  0  0  0  0  0  0  0
   59.6160   32.6220   49.4740 C   0  0  0  0  0  0  0  0  0  0  0  0
   59.6930   33.1390   50.7700 C   0  0  0  0  0  0  0  0  0  0  0  0
   59.0590   32.4820   51.8260 C   0  0  0  0  0  0  0  0  0  0  0  0
   58.3510   31.2940   51.5970 C   0  0  0  0  0  0  0  0  0  0  0  0
   57.6520   30.5990   52.7380 C   0  0  0  0  0  0  0  0  0  0  0  0
   56.3910   29.9720   52.2840 N   0  0  0  0  0  0  0  0  0  0  0  0
   56.2230   28.6130   52.8620 C   0  0  0  0  0  0  0  0  0  0  0  0
   54.7470   28.2220   52.9820 C   0  0  0  0  0  0  0  0  0  0  0  0
   54.0300   29.1290   53.9090 N   0  0  0  0  0  0  0  0  0  0  0  0
   52.5660   29.0450   53.7200 C   0  0  0  0  0  0  0  0  0  0  0  0
   52.1240   29.9240   52.5780 C   0  0  0  0  0  0  0  0  0  0  0  0
   52.4760   29.5900   51.2580 C   0  0  0  0  0  0  0  0  0  0  0  0
   52.0910   30.4140   50.1960 C   0  0  0  0  0  0  0  0  0  0  0  0
   51.3630   31.5820   50.4450 C   0  0  0  0  0  0  0  0  0  0  0  0
   51.0170   31.9270   51.7550 C   0  0  0  0  0  0  0  0  0  0  0  0
   50.2990   33.0910   51.9990 O   0  0  0  0  0  0  0  0  0  0  0  0
   51.3970   31.1020   52.8200 C   0  0  0  0  0  0  0  0  0  0  0  0
   54.5150   30.5320   53.8510 C   0  0  0  0  0  0  0  0  0  0  0  0
   55.2250   30.8570   52.5260 C   0  0  0  0  0  0  0  0  0  0  0  0
   58.2650   30.7830   50.2910 C   0  0  0  0  0  0  0  0  0  0  0  0
   58.0480   29.4330   45.2460 C   0  0  0  0  0  0  0  0  0  0  0  0
   56.7140   28.9940   45.1360 C   0  0  0  0  0  0  0  0  0  0  0  0
   55.8730   29.5280   44.1560 C   0  0  0  0  0  0  0  0  0  0  0  0
   56.3530   30.4940   43.2710 C   0  0  0  0  0  0  0  0  0  0  0  0
   57.6780   30.9300   43.3640 C   0  0  0  0  0  0  0  0  0  0  0  0
   58.5230   30.4040   44.3460 C   0  0  0  0  0  0  0  0  0  0  0  0
   61.0162   29.2117   46.8953 H   0  0  0  0  0  0  0  0  0  0  0  0
   60.8068   28.2682   45.3812 H   0  0  0  0  0  0  0  0  0  0  0  0
   60.5209   30.0416   45.3812 H   0  0  0  0  0  0  0  0  0  0  0  0
   58.7958   27.7943   46.3890 H   0  0  0  0  0  0  0  0  0  0  0  0
   58.4100   28.8730   48.4170 H   0  0  0  0  0  0  0  0  0  0  0  0
   60.1190   33.1436   48.6464 H   0  0  0  0  0  0  0  0  0  0  0  0
   60.2545   34.0659   50.9585 H   0  0  0  0  0  0  0  0  0  0  0  0
   59.1152   32.8985   52.8426 H   0  0  0  0  0  0  0  0  0  0  0  0
   58.3144   29.8209   53.1453 H   0  0  0  0  0  0  0  0  0  0  0  0
   57.4142   31.3454   53.5102 H   0  0  0  0  0  0  0  0  0  0  0  0
   56.7321   27.8851   52.2131 H   0  0  0  0  0  0  0  0  0  0  0  0
   56.6582   28.6160   53.8723 H   0  0  0  0  0  0  0  0  0  0  0  0
   54.2780   28.2791   51.9886 H   0  0  0  0  0  0  0  0  0  0  0  0
   54.6874   27.1977   53.3785 H   0  0  0  0  0  0  0  0  0  0  0  0
   52.2895   28.0030   53.5014 H   0  0  0  0  0  0  0  0  0  0  0  0
   52.0707   29.3866   54.6409 H   0  0  0  0  0  0  0  0  0  0  0  0
   53.0565   28.6768   51.0602 H   0  0  0  0  0  0  0  0  0  0  0  0
   52.3607   30.1436   49.1644 H   0  0  0  0  0  0  0  0  0  0  0  0
   51.0622   32.2303   49.6088 H   0  0  0  0  0  0  0  0  0  0  0  0
   51.1256   31.3767   53.8500 H   0  0  0  0  0  0  0  0  0  0  0  0
   53.6543   31.2075   53.9646 H   0  0  0  0  0  0  0  0  0  0  0  0
   55.2454   30.6663   54.6625 H   0  0  0  0  0  0  0  0  0  0  0  0
   54.5087   30.7331   51.7004 H   0  0  0  0  0  0  0  0  0  0  0  0
   55.5927   31.8921   52.5846 H   0  0  0  0  0  0  0  0  0  0  0  0
   57.6958   29.8607   50.1030 H   0  0  0  0  0  0  0  0  0  0  0  0
   56.3322   28.2266   45.8254 H   0  0  0  0  0  0  0  0  0  0  0  0
   54.8301   29.1860   44.0821 H   0  0  0  0  0  0  0  0  0  0  0  0
   55.6890   30.9124   42.5003 H   0  0  0  0  0  0  0  0  0  0  0  0
   58.0566   31.6885   42.6631 H   0  0  0  0  0  0  0  0  0  0  0  0
   59.5645   30.7513   44.4151 H   0  0  0  0  0  0  0  0  0  0  0  0
  1  2  1  0
  2  3  1  0
  3  4  1  0
  4  5  2  0
  4  6  1  0
  6  7  2  0
  7  8  1  0
  8  9  2  0
  9 10  1  0
 10 11  1  0
 11 12  1  0
 12 13  1  0
 13 14  1  0
 14 15  1  0
 15 16  1  0
 16 17  1  0
 17 18  2  0
 18 19  1  0
 19 20  2  0
 20 21  1  0
 21 22  1  0
 21 23  2  0
 15 24  1  0
 24 25  1  0
 10 26  2  0
  2 27  1  0
 27 28  2  0
 28 29  1  0
 29 30  2  0
 30 31  1  0
 31 32  2  0
 26  6  1  0
 32 27  1  0
 25 12  1  0
 23 17  1  0
  1 33  1  0
  1 34  1  0
  1 35  1  0
  2 36  1  1
  3 37  1  0
  7 38  1  0
  8 39  1  0
  9 40  1  0
 11 41  1  0
 11 42  1  0
 13 43  1  0
 13 44  1  0
 14 45  1  0
 14 46  1  0
 16 47  1  0
 16 48  1  0
 18 49  1  0
 19 50  1  0
 20 51  1  0
 23 52  1  0
 24 53  1  0
 24 54  1  0
 25 55  1  0
 25 56  1  0
 26 57  1  0
 28 58  1  0
 29 59  1  0
 30 60  1  0
 31 61  1  0
 32 62  1  0
M  CHG  1  22  -1
M  END
>  <UniqueID>  (64) 
62

>  <SMILES>  (64) 
C[C@@H](NC(=O)c1cccc(CN2CCN(Cc3cccc([O-])c3)CC2)c1)c1ccccc1

>  <Energy>  (64) 
78.60864399469328

>  <Genealogy>  (64) 
CC(NC(=O)c1cccc(CN2CCN(Cc3cccc([O-])c3)CC2)c1)c1ccccc1 (protonated)
C[C@@H](NC(=O)c1cccc(CN2CCN(Cc3cccc([O-])c3)CC2)c1)c1ccccc1 (chirality)
C[C@@H](NC(=O)c1cccc(CN2CCN(Cc3cccc([O-])c3)CC2)c1)c1ccccc1 (3D coordinates assigned)
C[C@@H](NC(=O)c1cccc(CN2CCN(Cc3cccc([O-])c3)CC2)c1)c1ccccc1 (nonaromatic ring conformer: 78.60864399469328 kcal/mol)

>  <smiles>  (64) 
CC(NC(=O)c1cccc(CN2CCN(Cc3cccc(O)c3)CC2)c1)c1ccccc1

>  <score_type>  (64) 
oracle

>  <origin>  (64) 
adg

>  <m_score__min__energy>  (64) 
-13.119999999999999

>  <m_primary>  (64) 
energy

$$$$
64:0
     RDKit          3D

 59 62  0  0  0  0  0  0  0  0999 V2000
   55.1450   26.0870   46.2810 N   0  0  0  0  0  0  0  0  0  0  0  0
   56.8180   26.1490   45.8560 S   0  0  0  0  0  0  0  0  0  0  0  0
   57.6400   25.7200   47.0370 O   0  0  0  0  0  0  0  0  0  0  0  0
   57.0830   25.2110   44.7130 O   0  0  0  0  0  0  0  0  0  0  0  0
   57.2440   27.7930   45.3870 C   0  0  0  0  0  0  0  0  0  0  0  0
   58.5480   28.2740   45.5730 C   0  0  0  0  0  0  0  0  0  0  0  0
   58.8670   29.5930   45.2280 C   0  0  0  0  0  0  0  0  0  0  0  0
   57.8850   30.4480   44.6900 C   0  0  0  0  0  0  0  0  0  0  0  0
   58.2160   31.8860   44.3760 C   0  0  0  0  0  0  0  0  0  0  0  0
   58.5470   32.6360   45.6350 C   0  0  0  0  0  0  0  0  0  0  0  0
   57.7390   32.6210   46.6060 O   0  0  0  0  0  0  0  0  0  0  0  0
   59.7470   33.4260   45.7110 N   0  0  0  0  0  0  0  0  0  0  0  0
   59.6420   34.8030   45.2480 C   0  0  0  0  0  0  0  0  0  0  0  0
   59.6470   35.8660   46.7310 S   0  0  0  0  0  0  0  0  0  0  0  0
   60.2380   34.4940   47.7840 C   0  0  0  0  0  0  0  0  0  0  0  0
   60.6750   33.3740   46.8480 C   0  0  1  0  0  0  0  0  0  0  0  0
   60.8300   32.0150   47.5220 C   0  0  0  0  0  0  0  0  0  0  0  0
   61.5400   31.1090   47.0030 O   0  0  0  0  0  0  0  0  0  0  0  0
   60.1960   31.7510   48.7890 N   0  0  0  0  0  0  0  0  0  0  0  0
   58.7680   32.0550   48.9740 C   0  0  0  0  0  0  0  0  0  0  0  0
   58.1560   31.2310   50.1150 C   0  0  0  0  0  0  0  0  0  0  0  0
   58.9940   31.3120   51.3210 N   0  0  0  0  0  0  0  0  0  0  0  0
   58.3950   31.3640   52.6340 C   0  0  0  0  0  0  0  0  0  0  0  0
   58.9860   31.9840   53.5640 O   0  0  0  0  0  0  0  0  0  0  0  0
   57.1130   30.6850   52.9310 C   0  0  0  0  0  0  0  0  0  0  0  0
   55.9010   31.1930   52.4290 C   0  0  0  0  0  0  0  0  0  0  0  0
   54.6960   30.5300   52.6920 C   0  0  0  0  0  0  0  0  0  0  0  0
   54.6920   29.3530   53.4440 C   0  0  0  0  0  0  0  0  0  0  0  0
   55.8920   28.8320   53.9330 C   0  0  0  0  0  0  0  0  0  0  0  0
   57.1000   29.4910   53.6770 C   0  0  0  0  0  0  0  0  0  0  0  0
   60.4590   31.3350   51.2080 C   0  0  0  0  0  0  0  0  0  0  0  0
   60.9190   30.9600   49.7930 C   0  0  0  0  0  0  0  0  0  0  0  0
   56.5800   29.9630   44.5060 C   0  0  0  0  0  0  0  0  0  0  0  0
   56.2620   28.6420   44.8510 C   0  0  0  0  0  0  0  0  0  0  0  0
   54.8240   27.0710   46.4210 H   0  0  0  0  0  0  0  0  0  0  0  0
   59.3221   27.6136   45.9909 H   0  0  0  0  0  0  0  0  0  0  0  0
   59.8915   29.9642   45.3781 H   0  0  0  0  0  0  0  0  0  0  0  0
   59.0809   31.9186   43.6971 H   0  0  0  0  0  0  0  0  0  0  0  0
   57.3430   32.3566   43.9003 H   0  0  0  0  0  0  0  0  0  0  0  0
   60.4976   35.0509   44.6026 H   0  0  0  0  0  0  0  0  0  0  0  0
   58.7231   34.9512   44.6618 H   0  0  0  0  0  0  0  0  0  0  0  0
   61.0879   34.8273   48.3977 H   0  0  0  0  0  0  0  0  0  0  0  0
   59.4453   34.1510   48.4652 H   0  0  0  0  0  0  0  0  0  0  0  0
   61.7048   33.5262   46.4925 H   0  0  0  0  0  0  0  0  0  0  0  0
   58.6584   33.1243   49.2078 H   0  0  0  0  0  0  0  0  0  0  0  0
   58.2394   31.7989   48.0440 H   0  0  0  0  0  0  0  0  0  0  0  0
   57.1535   31.6210   50.3448 H   0  0  0  0  0  0  0  0  0  0  0  0
   58.0925   30.1796   49.7979 H   0  0  0  0  0  0  0  0  0  0  0  0
   55.8999   32.1142   51.8278 H   0  0  0  0  0  0  0  0  0  0  0  0
   53.7501   30.9372   52.3054 H   0  0  0  0  0  0  0  0  0  0  0  0
   53.7433   28.8362   53.6512 H   0  0  0  0  0  0  0  0  0  0  0  0
   55.8878   27.9020   54.5204 H   0  0  0  0  0  0  0  0  0  0  0  0
   58.0431   29.0743   54.0602 H   0  0  0  0  0  0  0  0  0  0  0  0
   60.8201   32.3466   51.4451 H   0  0  0  0  0  0  0  0  0  0  0  0
   60.8714   30.5974   51.9122 H   0  0  0  0  0  0  0  0  0  0  0  0
   61.9974   31.1556   49.6995 H   0  0  0  0  0  0  0  0  0  0  0  0
   60.7100   29.8935   49.6226 H   0  0  0  0  0  0  0  0  0  0  0  0
   55.8042   30.6223   44.0895 H   0  0  0  0  0  0  0  0  0  0  0  0
   55.2382   28.2686   44.7012 H   0  0  0  0  0  0  0  0  0  0  0  0
  1  2  1  0
  2  3  2  0
  2  4  2  0
  2  5  1  0
  5  6  2  0
  6  7  1  0
  7  8  2  0
  8  9  1  0
  9 10  1  0
 10 11  2  0
 10 12  1  0
 12 13  1  0
 13 14  1  0
 14 15  1  0
 15 16  1  0
 16 17  1  0
 17 18  2  0
 17 19  1  0
 19 20  1  0
 20 21  1  0
 21 22  1  0
 22 23  1  0
 23 24  2  0
 23 25  1  0
 25 26  2  0
 26 27  1  0
 27 28  2  0
 28 29  1  0
 29 30  2  0
 22 31  1  0
 31 32  1  0
  8 33  1  0
 33 34  2  0
 34  5  1  0
 16 12  1  0
 32 19  1  0
 30 25  1  0
  1 35  1  0
  6 36  1  0
  7 37  1  0
  9 38  1  0
  9 39  1  0
 13 40  1  0
 13 41  1  0
 15 42  1  0
 15 43  1  0
 16 44  1  6
 20 45  1  0
 20 46  1  0
 21 47  1  0
 21 48  1  0
 26 49  1  0
 27 50  1  0
 28 51  1  0
 29 52  1  0
 30 53  1  0
 31 54  1  0
 31 55  1  0
 32 56  1  0
 32 57  1  0
 33 58  1  0
 34 59  1  0
M  CHG  1   1  -1
M  END
>  <UniqueID>  (65) 
63

>  <SMILES>  (65) 
[NH-]S(=O)(=O)c1ccc(CC(=O)N2CSC[C@H]2C(=O)N2CCN(C(=O)c3ccccc3)CC2)cc1

>  <Energy>  (65) 
81.18136373028848

>  <Genealogy>  (65) 
[NH-]S(=O)(=O)c1ccc(CC(=O)N2CSCC2C(=O)N2CCN(C(=O)c3ccccc3)CC2)cc1 (protonated)
[NH-]S(=O)(=O)c1ccc(CC(=O)N2CSC[C@H]2C(=O)N2CCN(C(=O)c3ccccc3)CC2)cc1 (chirality)
[NH-]S(=O)(=O)c1ccc(CC(=O)N2CSC[C@H]2C(=O)N2CCN(C(=O)c3ccccc3)CC2)cc1 (3D coordinates assigned)
[NH-]S(=O)(=O)c1ccc(CC(=O)N2CSC[C@H]2C(=O)N2CCN(C(=O)c3ccccc3)CC2)cc1 (nonaromatic ring conformer: 81.18136373028848 kcal/mol)

>  <smiles>  (65) 
NS(=O)(=O)c1ccc(CC(=O)N2CSCC2C(=O)N2CCN(C(=O)c3ccccc3)CC2)cc1

>  <score_type>  (65) 
oracle

>  <origin>  (65) 
adg

>  <m_score__min__energy>  (65) 
-12.359999999999999

>  <m_primary>  (65) 
energy

$$$$
65:0
     RDKit          3D

 62 65  0  0  0  0  0  0  0  0999 V2000
   63.2890   33.8640   46.1980 C   0  0  0  0  0  0  0  0  0  0  0  0
   63.2020   33.1760   47.5230 C   0  0  0  0  0  0  0  0  0  0  0  0
   64.2770   32.7580   48.2170 N   0  0  0  0  0  0  0  0  0  0  0  0
   63.8650   32.2420   49.3640 N   0  0  0  0  0  0  0  0  0  0  0  0
   64.7520   31.7650   50.4160 C   0  0  0  0  0  0  0  0  0  0  0  0
   62.5240   32.3370   49.4420 C   0  0  0  0  0  0  0  0  0  0  0  0
   62.0560   32.9160   48.2710 C   0  0  0  0  0  0  0  0  0  0  0  0
   60.6390   33.2050   47.9390 C   0  0  0  0  0  0  0  0  0  0  0  0
   60.3090   34.4110   47.4420 C   0  0  0  0  0  0  0  0  0  0  0  0
   58.8840   34.8240   47.1770 C   0  0  0  0  0  0  0  0  0  0  0  0
   57.9570   33.6850   47.0560 N   0  0  0  0  0  0  0  0  0  0  0  0
   58.0070   32.9750   45.4550 S   0  0  0  0  0  0  0  0  0  0  0  0
   56.9890   33.6270   44.5610 O   0  0  0  0  0  0  0  0  0  0  0  0
   59.3760   33.1670   44.8620 O   0  0  0  0  0  0  0  0  0  0  0  0
   57.6490   31.2710   45.5680 N   0  0  0  0  0  0  0  0  0  0  0  0
   56.8110   30.8740   44.4330 C   0  0  0  0  0  0  0  0  0  0  0  0
   56.2990   29.4580   44.6580 C   0  0  0  0  0  0  0  0  0  0  0  0
   57.3310   28.5400   45.1750 N   0  0  0  0  0  0  0  0  0  0  0  0
   56.8860   27.2110   45.5360 C   0  0  0  0  0  0  0  0  0  0  0  0
   55.7180   27.0550   45.9830 O   0  0  0  0  0  0  0  0  0  0  0  0
   57.7050   26.0430   45.3850 N   0  0  0  0  0  0  0  0  0  0  0  0
   57.5040   24.7400   46.0030 C   0  0  0  0  0  0  0  0  0  0  0  0
   57.2870   23.7170   44.9270 C   0  0  0  0  0  0  0  0  0  0  0  0
   56.2940   23.9130   43.9520 C   0  0  0  0  0  0  0  0  0  0  0  0
   56.0650   22.9400   42.9740 C   0  0  0  0  0  0  0  0  0  0  0  0
   56.8160   21.7610   42.9680 C   0  0  0  0  0  0  0  0  0  0  0  0
   57.7950   21.5510   43.9440 C   0  0  0  0  0  0  0  0  0  0  0  0
   58.0280   22.5230   44.9240 C   0  0  0  0  0  0  0  0  0  0  0  0
   58.6660   28.9940   45.6180 C   0  0  0  0  0  0  0  0  0  0  0  0
   58.9020   30.5130   45.5070 C   0  0  0  0  0  0  0  0  0  0  0  0
   58.1670   32.6970   48.1270 C   0  0  0  0  0  0  0  0  0  0  0  0
   59.5920   32.1310   48.1240 C   0  0  0  0  0  0  0  0  0  0  0  0
   63.4256   34.9443   46.3541 H   0  0  0  0  0  0  0  0  0  0  0  0
   64.1437   33.4642   45.6327 H   0  0  0  0  0  0  0  0  0  0  0  0
   62.3616   33.6896   45.6327 H   0  0  0  0  0  0  0  0  0  0  0  0
   65.2760   32.8520   47.9300 H   0  0  0  0  0  0  0  0  0  0  0  0
   64.3155   31.9997   51.3980 H   0  0  0  0  0  0  0  0  0  0  0  0
   64.8798   30.6765   50.3223 H   0  0  0  0  0  0  0  0  0  0  0  0
   65.7306   32.2585   50.3223 H   0  0  0  0  0  0  0  0  0  0  0  0
   61.9044   32.0108   50.2904 H   0  0  0  0  0  0  0  0  0  0  0  0
   61.1142   35.1266   47.2194 H   0  0  0  0  0  0  0  0  0  0  0  0
   58.5459   35.4620   48.0069 H   0  0  0  0  0  0  0  0  0  0  0  0
   58.8737   35.3546   46.2135 H   0  0  0  0  0  0  0  0  0  0  0  0
   55.9585   31.5638   44.3464 H   0  0  0  0  0  0  0  0  0  0  0  0
   57.4034   30.9093   43.5068 H   0  0  0  0  0  0  0  0  0  0  0  0
   55.4718   29.4967   45.3820 H   0  0  0  0  0  0  0  0  0  0  0  0
   55.9767   29.0689   43.6809 H   0  0  0  0  0  0  0  0  0  0  0  0
   58.3921   24.4711   46.5938 H   0  0  0  0  0  0  0  0  0  0  0  0
   56.6265   24.7744   46.6654 H   0  0  0  0  0  0  0  0  0  0  0  0
   55.6946   24.8353   43.9582 H   0  0  0  0  0  0  0  0  0  0  0  0
   55.2925   23.1027   42.2080 H   0  0  0  0  0  0  0  0  0  0  0  0
   56.6368   20.9986   42.1956 H   0  0  0  0  0  0  0  0  0  0  0  0
   58.3826   20.6211   43.9417 H   0  0  0  0  0  0  0  0  0  0  0  0
   58.7940   22.3515   45.6946 H   0  0  0  0  0  0  0  0  0  0  0  0
   58.7939   28.7039   46.6713 H   0  0  0  0  0  0  0  0  0  0  0  0
   59.3941   28.5176   44.9450 H   0  0  0  0  0  0  0  0  0  0  0  0
   59.5508   30.8327   46.3357 H   0  0  0  0  0  0  0  0  0  0  0  0
   59.3719   30.7127   44.5327 H   0  0  0  0  0  0  0  0  0  0  0  0
   57.9806   33.1814   49.0969 H   0  0  0  0  0  0  0  0  0  0  0  0
   57.4723   31.8615   47.9556 H   0  0  0  0  0  0  0  0  0  0  0  0
   59.7724   31.6235   49.0831 H   0  0  0  0  0  0  0  0  0  0  0  0
   59.6738   31.4339   47.2770 H   0  0  0  0  0  0  0  0  0  0  0  0
  1  2  1  0
  2  3  2  0
  3  4  1  0
  4  5  1  0
  4  6  1  0
  6  7  2  0
  7  8  1  0
  8  9  2  0
  9 10  1  0
 10 11  1  0
 11 12  1  0
 12 13  2  0
 12 14  2  0
 12 15  1  0
 15 16  1  0
 16 17  1  0
 17 18  1  0
 18 19  1  0
 19 20  2  0
 19 21  1  0
 21 22  1  0
 22 23  1  0
 23 24  2  0
 24 25  1  0
 25 26  2  0
 26 27  1  0
 27 28  2  0
 18 29  1  0
 29 30  1  0
 11 31  1  0
 31 32  1  0
  7  2  1  0
 32  8  1  0
 30 15  1  0
 28 23  1  0
  1 33  1  0
  1 34  1  0
  1 35  1  0
  3 36  1  0
  5 37  1  0
  5 38  1  0
  5 39  1  0
  6 40  1  0
  9 41  1  0
 10 42  1  0
 10 43  1  0
 16 44  1  0
 16 45  1  0
 17 46  1  0
 17 47  1  0
 22 48  1  0
 22 49  1  0
 24 50  1  0
 25 51  1  0
 26 52  1  0
 27 53  1  0
 28 54  1  0
 29 55  1  0
 29 56  1  0
 30 57  1  0
 30 58  1  0
 31 59  1  0
 31 60  1  0
 32 61  1  0
 32 62  1  0
M  CHG  2   3   1  21  -1
M  END
>  <UniqueID>  (66) 
64

>  <SMILES>  (66) 
Cc1[nH+]n(C)cc1C1=CCN(S(=O)(=O)N2CCN(C(=O)[N-]Cc3ccccc3)CC2)CC1

>  <Energy>  (66) 
103.05642253491612

>  <Genealogy>  (66) 
Cc1[nH+]n(C)cc1C1=CCN(S(=O)(=O)N2CCN(C(=O)[N-]Cc3ccccc3)CC2)CC1 (protonated)
Cc1[nH+]n(C)cc1C1=CCN(S(=O)(=O)N2CCN(C(=O)[N-]Cc3ccccc3)CC2)CC1 (3D coordinates assigned)
Cc1[nH+]n(C)cc1C1=CCN(S(=O)(=O)N2CCN(C(=O)[N-]Cc3ccccc3)CC2)CC1 (nonaromatic ring conformer: 103.05642253491612 kcal/mol)

>  <smiles>  (66) 
Cc1nn(C)cc1C1=CCN(S(=O)(=O)N2CCN(C(=O)NCc3ccccc3)CC2)CC1

>  <score_type>  (66) 
oracle

>  <origin>  (66) 
adg

>  <m_score__min__energy>  (66) 
-11.619999999999999

>  <m_primary>  (66) 
energy

$$$$
66:0
     RDKit          3D

 76 80  0  0  0  0  0  0  0  0999 V2000
   55.8960   26.3580   46.3930 C   0  0  0  0  0  0  0  0  0  0  0  0
   57.3330   25.9100   46.6980 C   0  0  2  0  0  0  0  0  0  0  0  0
   58.1950   27.0920   47.1810 C   0  0  0  0  0  0  0  0  0  0  0  0
   59.5820   26.6570   47.5030 N   0  0  0  0  0  0  0  0  0  0  0  0
   60.4770   27.7730   47.9550 C   0  0  0  0  0  0  0  0  0  0  0  0
   60.6580   27.6990   49.5080 C   0  0  0  0  0  0  0  0  0  0  0  0
   60.3780   29.0160   50.2450 C   0  0  0  0  0  0  0  0  0  0  0  0
   59.1010   29.5880   49.7870 N   0  0  0  0  0  0  0  0  0  0  0  0
   58.2430   30.2800   50.7110 C   0  0  0  0  0  0  0  0  0  0  0  0
   57.8250   31.4330   50.4170 O   0  0  0  0  0  0  0  0  0  0  0  0
   57.8290   29.6640   51.9970 C   0  0  0  0  0  0  0  0  0  0  0  0
   58.7740   29.0300   52.8270 C   0  0  0  0  0  0  0  0  0  0  0  0
   58.3750   28.4490   54.0340 C   0  0  0  0  0  0  0  0  0  0  0  0
   57.0310   28.4690   54.4120 C   0  0  0  0  0  0  0  0  0  0  0  0
   56.0820   29.0770   53.5870 C   0  0  0  0  0  0  0  0  0  0  0  0
   54.3930   29.0960   54.0590 Cl  0  0  0  0  0  0  0  0  0  0  0  0
   56.4760   29.6660   52.3810 C   0  0  0  0  0  0  0  0  0  0  0  0
   58.8270   29.6890   48.3460 C   0  0  0  0  0  0  0  0  0  0  0  0
   60.0240   29.2000   47.5230 C   0  0  0  0  0  0  0  0  0  0  0  0
   60.1960   25.9850   46.3250 C   0  0  0  0  0  0  0  0  0  0  0  0
   59.3520   24.8000   45.8470 C   0  0  0  0  0  0  0  0  0  0  0  0
   58.0010   25.2720   45.5550 N   0  0  0  0  0  0  0  0  0  0  0  0
   57.7060   25.6630   44.2020 C   0  0  0  0  0  0  0  0  0  0  0  0
   56.7510   25.1120   43.5880 O   0  0  0  0  0  0  0  0  0  0  0  0
   58.5220   26.7240   43.5170 C   0  0  0  0  0  0  0  0  0  0  0  0
   58.3150   28.0620   44.1800 C   0  0  0  0  0  0  0  0  0  0  0  0
   59.4200   28.8860   44.4510 C   0  0  0  0  0  0  0  0  0  0  0  0
   59.2310   30.1800   44.9430 C   0  0  0  0  0  0  0  0  0  0  0  0
   57.9320   30.6730   45.1590 C   0  0  0  0  0  0  0  0  0  0  0  0
   57.7110   32.0130   45.6150 N   0  0  0  0  0  0  0  0  0  0  0  0
   58.4820   32.6840   46.6230 C   0  0  0  0  0  0  0  0  0  0  0  0
   57.9880   33.6960   47.1890 O   0  0  0  0  0  0  0  0  0  0  0  0
   59.8050   32.2320   46.9640 N   0  0  0  0  0  0  0  0  0  0  0  0
   60.6650   32.8860   47.9130 C   0  0  0  0  0  0  0  0  0  0  0  0
   61.9690   33.2860   47.5700 C   0  0  0  0  0  0  0  0  0  0  0  0
   62.7980   33.8820   48.5270 C   0  0  0  0  0  0  0  0  0  0  0  0
   62.3380   34.0770   49.8330 C   0  0  0  0  0  0  0  0  0  0  0  0
   63.3870   34.8290   51.0260 Cl  0  0  0  0  0  0  0  0  0  0  0  0
   61.0470   33.6620   50.1860 C   0  0  0  0  0  0  0  0  0  0  0  0
   60.5940   33.8350   51.4540 F   0  0  0  0  0  0  0  0  0  0  0  0
   60.2210   33.0600   49.2320 C   0  0  0  0  0  0  0  0  0  0  0  0
   56.8330   29.8340   44.9360 C   0  0  0  0  0  0  0  0  0  0  0  0
   57.0200   28.5420   44.4320 C   0  0  0  0  0  0  0  0  0  0  0  0
   55.3563   26.5263   47.3366 H   0  0  0  0  0  0  0  0  0  0  0  0
   55.9185   27.2918   45.8120 H   0  0  0  0  0  0  0  0  0  0  0  0
   55.3839   25.5769   45.8120 H   0  0  0  0  0  0  0  0  0  0  0  0
   57.2387   25.1583   47.4955 H   0  0  0  0  0  0  0  0  0  0  0  0
   58.2338   27.8540   46.3886 H   0  0  0  0  0  0  0  0  0  0  0  0
   57.7398   27.5018   48.0947 H   0  0  0  0  0  0  0  0  0  0  0  0
   61.4368   27.6180   47.4405 H   0  0  0  0  0  0  0  0  0  0  0  0
   59.9703   26.9342   49.8980 H   0  0  0  0  0  0  0  0  0  0  0  0
   61.7161   27.4584   49.6885 H   0  0  0  0  0  0  0  0  0  0  0  0
   60.3238   28.8237   51.3267 H   0  0  0  0  0  0  0  0  0  0  0  0
   61.1892   29.7280   50.0327 H   0  0  0  0  0  0  0  0  0  0  0  0
   59.8307   28.9919   52.5239 H   0  0  0  0  0  0  0  0  0  0  0  0
   59.1217   27.9748   54.6878 H   0  0  0  0  0  0  0  0  0  0  0  0
   56.7195   28.0058   55.3598 H   0  0  0  0  0  0  0  0  0  0  0  0
   55.7233   30.1335   51.7292 H   0  0  0  0  0  0  0  0  0  0  0  0
   57.9482   29.0737   48.1031 H   0  0  0  0  0  0  0  0  0  0  0  0
   58.6394   30.7442   48.0983 H   0  0  0  0  0  0  0  0  0  0  0  0
   59.7405   29.1774   46.4604 H   0  0  0  0  0  0  0  0  0  0  0  0
   60.8622   29.8917   47.6931 H   0  0  0  0  0  0  0  0  0  0  0  0
   60.2852   26.7131   45.5053 H   0  0  0  0  0  0  0  0  0  0  0  0
   61.1843   25.6048   46.6229 H   0  0  0  0  0  0  0  0  0  0  0  0
   59.7984   24.3710   44.9377 H   0  0  0  0  0  0  0  0  0  0  0  0
   59.3170   24.0266   46.6284 H   0  0  0  0  0  0  0  0  0  0  0  0
   59.5868   26.4536   43.5728 H   0  0  0  0  0  0  0  0  0  0  0  0
   58.2023   26.7949   42.4669 H   0  0  0  0  0  0  0  0  0  0  0  0
   60.4389   28.5107   44.2750 H   0  0  0  0  0  0  0  0  0  0  0  0
   60.1017   30.8155   45.1622 H   0  0  0  0  0  0  0  0  0  0  0  0
   60.1660   31.3490   46.5380 H   0  0  0  0  0  0  0  0  0  0  0  0
   62.3386   33.1298   46.5458 H   0  0  0  0  0  0  0  0  0  0  0  0
   63.8148   34.1981   48.2510 H   0  0  0  0  0  0  0  0  0  0  0  0
   59.2148   32.7201   49.5182 H   0  0  0  0  0  0  0  0  0  0  0  0
   55.8171   30.1926   45.1583 H   0  0  0  0  0  0  0  0  0  0  0  0
   56.1492   27.9002   44.2326 H   0  0  0  0  0  0  0  0  0  0  0  0
  1  2  1  0
  2  3  1  0
  3  4  1  0
  4  5  1  0
  5  6  1  0
  6  7  1  0
  7  8  1  0
  8  9  1  0
  9 10  2  0
  9 11  1  0
 11 12  2  0
 12 13  1  0
 13 14  2  0
 14 15  1  0
 15 16  1  0
 15 17  2  0
  8 18  1  0
 18 19  1  0
  4 20  1  0
 20 21  1  0
 21 22  1  0
 22 23  1  0
 23 24  2  0
 23 25  1  0
 25 26  1  0
 26 27  2  0
 27 28  1  0
 28 29  2  0
 29 30  1  0
 30 31  1  0
 31 32  2  0
 31 33  1  0
 33 34  1  0
 34 35  2  0
 35 36  1  0
 36 37  2  0
 37 38  1  0
 37 39  1  0
 39 40  1  0
 39 41  2  0
 29 42  1  0
 42 43  2  0
 22  2  1  0
 43 26  1  0
 19  5  1  0
 41 34  1  0
 17 11  1  0
  1 44  1  0
  1 45  1  0
  1 46  1  0
  2 47  1  1
  3 48  1  0
  3 49  1  0
  5 50  1  0
  6 51  1  0
  6 52  1  0
  7 53  1  0
  7 54  1  0
 12 55  1  0
 13 56  1  0
 14 57  1  0
 17 58  1  0
 18 59  1  0
 18 60  1  0
 19 61  1  0
 19 62  1  0
 20 63  1  0
 20 64  1  0
 21 65  1  0
 21 66  1  0
 25 67  1  0
 25 68  1  0
 27 69  1  0
 28 70  1  0
 33 71  1  0
 35 72  1  0
 36 73  1  0
 41 74  1  0
 42 75  1  0
 43 76  1  0
M  CHG  1  30  -1
M  END
>  <UniqueID>  (67) 
65

>  <SMILES>  (67) 
C[C@@H]1CN(C2CCN(C(=O)c3cccc(Cl)c3)CC2)CCN1C(=O)Cc1ccc([N-]C(=O)Nc2ccc(Cl)c(F)c2)cc1

>  <Energy>  (67) 
111.80911898289872

>  <Genealogy>  (67) 
CC1CN(C2CCN(C(=O)c3cccc(Cl)c3)CC2)CCN1C(=O)Cc1ccc([N-]C(=O)Nc2ccc(Cl)c(F)c2)cc1 (protonated)
C[C@@H]1CN(C2CCN(C(=O)c3cccc(Cl)c3)CC2)CCN1C(=O)Cc1ccc([N-]C(=O)Nc2ccc(Cl)c(F)c2)cc1 (chirality)
C[C@@H]1CN(C2CCN(C(=O)c3cccc(Cl)c3)CC2)CCN1C(=O)Cc1ccc([N-]C(=O)Nc2ccc(Cl)c(F)c2)cc1 (3D coordinates assigned)
C[C@@H]1CN(C2CCN(C(=O)c3cccc(Cl)c3)CC2)CCN1C(=O)Cc1ccc([N-]C(=O)Nc2ccc(Cl)c(F)c2)cc1 (nonaromatic ring conformer: 111.80911898289872 kcal/mol)

>  <smiles>  (67) 
CC1CN(C2CCN(C(=O)c3cccc(Cl)c3)CC2)CCN1C(=O)Cc1ccc(NC(=O)Nc2ccc(Cl)c(F)c2)cc1

>  <score_type>  (67) 
oracle

>  <origin>  (67) 
adg

>  <m_score__min__energy>  (67) 
-13.01

>  <m_primary>  (67) 
energy

$$$$
67:0
     RDKit          3D

 55 58  0  0  0  0  0  0  0  0999 V2000
   57.1740   31.8590   43.4290 C   0  0  0  0  0  0  0  0  0  0  0  0
   57.5240   30.6880   43.9480 C   0  0  0  0  0  0  0  0  0  0  0  0
   58.8730   30.2090   43.9930 N   0  0  0  0  0  0  0  0  0  0  0  0
   58.7240   28.9380   44.6540 C   0  0  0  0  0  0  0  0  0  0  0  0
   59.9090   28.0570   44.9050 C   0  0  0  0  0  0  0  0  0  0  0  0
   57.4650   28.6370   45.0070 C   0  0  0  0  0  0  0  0  0  0  0  0
   57.0040   27.4370   45.7570 C   0  0  0  0  0  0  0  0  0  0  0  0
   55.8020   27.0690   45.6680 O   0  0  0  0  0  0  0  0  0  0  0  0
   57.9100   26.6270   46.5140 N   0  0  0  0  0  0  0  0  0  0  0  0
   58.7990   27.0900   47.5390 C   0  0  0  0  0  0  0  0  0  0  0  0
   59.9440   26.3360   47.8280 C   0  0  0  0  0  0  0  0  0  0  0  0
   60.8320   26.7510   48.8230 C   0  0  0  0  0  0  0  0  0  0  0  0
   60.5820   27.9260   49.5360 C   0  0  0  0  0  0  0  0  0  0  0  0
   59.4230   28.6880   49.2830 C   0  0  0  0  0  0  0  0  0  0  0  0
   59.1310   29.8750   50.1360 C   0  0  0  0  0  0  0  0  0  0  0  0
   58.3200   29.7350   51.0950 O   0  0  0  0  0  0  0  0  0  0  0  0
   59.6590   31.1880   49.8680 N   0  0  0  0  0  0  0  0  0  0  0  0
   61.0350   31.4030   49.3920 C   0  0  0  0  0  0  0  0  0  0  0  0
   61.0430   32.4190   48.2290 C   0  0  0  0  0  0  0  0  0  0  0  0
   59.9860   33.4400   48.3880 N   0  0  0  0  0  0  0  0  0  0  0  0
   59.3280   33.9790   47.2150 C   0  0  0  0  0  0  0  0  0  0  0  0
   60.0190   34.8550   46.3540 C   0  0  0  0  0  0  0  0  0  0  0  0
   59.4120   35.3300   45.1860 C   0  0  0  0  0  0  0  0  0  0  0  0
   58.1070   34.9500   44.8690 C   0  0  0  0  0  0  0  0  0  0  0  0
   57.4050   34.0890   45.7150 C   0  0  0  0  0  0  0  0  0  0  0  0
   58.0080   33.6020   46.8800 C   0  0  0  0  0  0  0  0  0  0  0  0
   59.4680   33.6630   49.7440 C   0  0  0  0  0  0  0  0  0  0  0  0
   58.8500   32.3590   50.2610 C   0  0  0  0  0  0  0  0  0  0  0  0
   58.5200   28.2420   48.2960 C   0  0  0  0  0  0  0  0  0  0  0  0
   56.6350   29.7470   44.5880 C   0  0  0  0  0  0  0  0  0  0  0  0
   55.4050   29.9090   44.8090 O   0  0  0  0  0  0  0  0  0  0  0  0
   56.1177   32.1660   43.4268 H   0  0  0  0  0  0  0  0  0  0  0  0
   57.9404   32.5221   43.0013 H   0  0  0  0  0  0  0  0  0  0  0  0
   59.2570   30.0900   43.0260 H   0  0  0  0  0  0  0  0  0  0  0  0
   59.4610   30.8500   44.5750 H   0  0  0  0  0  0  0  0  0  0  0  0
   60.0596   27.9450   45.9889 H   0  0  0  0  0  0  0  0  0  0  0  0
   59.7330   27.0687   44.4552 H   0  0  0  0  0  0  0  0  0  0  0  0
   60.8047   28.5103   44.4552 H   0  0  0  0  0  0  0  0  0  0  0  0
   60.1449   25.4111   47.2675 H   0  0  0  0  0  0  0  0  0  0  0  0
   61.7280   26.1528   49.0451 H   0  0  0  0  0  0  0  0  0  0  0  0
   61.2966   28.2601   50.3026 H   0  0  0  0  0  0  0  0  0  0  0  0
   61.6490   31.7911   50.2181 H   0  0  0  0  0  0  0  0  0  0  0  0
   61.4460   30.4466   49.0366 H   0  0  0  0  0  0  0  0  0  0  0  0
   62.0216   32.9204   48.2004 H   0  0  0  0  0  0  0  0  0  0  0  0
   60.8532   31.8715   47.2940 H   0  0  0  0  0  0  0  0  0  0  0  0
   61.0439   35.1679   46.6021 H   0  0  0  0  0  0  0  0  0  0  0  0
   59.9649   36.0047   44.5159 H   0  0  0  0  0  0  0  0  0  0  0  0
   57.6313   35.3289   43.9524 H   0  0  0  0  0  0  0  0  0  0  0  0
   56.3755   33.7929   45.4650 H   0  0  0  0  0  0  0  0  0  0  0  0
   57.4505   32.9209   47.5397 H   0  0  0  0  0  0  0  0  0  0  0  0
   60.2900   33.9703   50.4072 H   0  0  0  0  0  0  0  0  0  0  0  0
   58.7049   34.4550   49.7255 H   0  0  0  0  0  0  0  0  0  0  0  0
   58.7907   32.4013   51.3586 H   0  0  0  0  0  0  0  0  0  0  0  0
   57.8478   32.2517   49.8205 H   0  0  0  0  0  0  0  0  0  0  0  0
   57.5892   28.8000   48.1166 H   0  0  0  0  0  0  0  0  0  0  0  0
  1  2  2  0
  2  3  1  0
  3  4  1  0
  4  5  1  0
  4  6  2  0
  6  7  1  0
  7  8  2  0
  7  9  1  0
  9 10  1  0
 10 11  2  0
 11 12  1  0
 12 13  2  0
 13 14  1  0
 14 15  1  0
 15 16  2  0
 15 17  1  0
 17 18  1  0
 18 19  1  0
 19 20  1  0
 20 21  1  0
 21 22  2  0
 22 23  1  0
 23 24  2  0
 24 25  1  0
 25 26  2  0
 20 27  1  0
 27 28  1  0
 14 29  2  0
  6 30  1  0
 30 31  2  0
 30  2  1  0
 29 10  1  0
 28 17  1  0
 26 21  1  0
  1 32  1  0
  1 33  1  0
  3 34  1  0
  3 35  1  0
  5 36  1  0
  5 37  1  0
  5 38  1  0
 11 39  1  0
 12 40  1  0
 13 41  1  0
 18 42  1  0
 18 43  1  0
 19 44  1  0
 19 45  1  0
 22 46  1  0
 23 47  1  0
 24 48  1  0
 25 49  1  0
 26 50  1  0
 27 51  1  0
 27 52  1  0
 28 53  1  0
 28 54  1  0
 29 55  1  0
M  CHG  2   3   1   9  -1
M  END
>  <UniqueID>  (68) 
66

>  <SMILES>  (68) 
C=C1[NH2+]C(C)=C(C(=O)[N-]c2cccc(C(=O)N3CCN(c4ccccc4)CC3)c2)C1=O

>  <Energy>  (68) 
89.32498743139965

>  <Genealogy>  (68) 
C=C1[NH2+]C(C)=C(C(=O)[N-]c2cccc(C(=O)N3CCN(c4ccccc4)CC3)c2)C1=O (protonated)
C=C1[NH2+]C(C)=C(C(=O)[N-]c2cccc(C(=O)N3CCN(c4ccccc4)CC3)c2)C1=O (3D coordinates assigned)
C=C1[NH2+]C(C)=C(C(=O)[N-]c2cccc(C(=O)N3CCN(c4ccccc4)CC3)c2)C1=O (nonaromatic ring conformer: 89.32498743139965 kcal/mol)

>  <smiles>  (68) 
C=C1NC(C)=C(C(=O)Nc2cccc(C(=O)N3CCN(c4ccccc4)CC3)c2)C1=O

>  <score_type>  (68) 
oracle

>  <origin>  (68) 
adg

>  <m_score__min__energy>  (68) 
-10.140000000000001

>  <m_primary>  (68) 
energy

$$$$
68:0
     RDKit          3D

 67 71  0  0  0  0  0  0  0  0999 V2000
   58.5470   27.4200   45.0850 O   0  0  0  0  0  0  0  0  0  0  0  0
   57.4210   27.9370   44.8570 C   0  0  0  0  0  0  0  0  0  0  0  0
   57.3410   29.0380   43.9430 N   0  0  0  0  0  0  0  0  0  0  0  0
   56.5580   30.2540   44.1460 C   0  0  0  0  0  0  0  0  0  0  0  0
   57.3800   31.2980   44.8530 C   0  0  0  0  0  0  0  0  0  0  0  0
   58.1500   30.9450   45.9720 C   0  0  0  0  0  0  0  0  0  0  0  0
   58.9240   31.9060   46.6280 C   0  0  0  0  0  0  0  0  0  0  0  0
   58.9430   33.2310   46.1710 C   0  0  0  0  0  0  0  0  0  0  0  0
   59.9330   34.4430   46.9880 S   0  0  0  0  0  0  0  0  0  0  0  0
   60.3590   35.4890   45.9960 O   0  0  0  0  0  0  0  0  0  0  0  0
   59.1070   35.1170   48.0470 O   0  0  0  0  0  0  0  0  0  0  0  0
   61.3530   33.7390   47.7190 N   0  0  0  0  0  0  0  0  0  0  0  0
   61.7390   34.4960   48.9210 C   0  0  0  0  0  0  0  0  0  0  0  0
   63.1270   34.0650   49.4550 C   0  0  0  0  0  0  0  0  0  0  0  0
   63.6520   32.8360   48.8130 N   0  0  0  0  0  0  0  0  0  0  0  0
   63.3350   31.5350   49.4640 C   0  0  0  0  0  0  0  0  0  0  0  0
   63.8580   31.5080   50.9130 C   0  0  0  0  0  0  0  0  0  0  0  0
   63.2130   30.3680   51.7240 C   0  0  0  0  0  0  0  0  0  0  0  0
   62.7260   29.3480   50.8730 O   0  0  0  0  0  0  0  0  0  0  0  0
   61.5930   29.8140   50.1570 C   0  0  0  0  0  0  0  0  0  0  0  0
   61.8420   31.1500   49.4190 C   0  0  0  0  0  0  0  0  0  0  0  0
   63.5950   32.8380   47.3290 C   0  0  0  0  0  0  0  0  0  0  0  0
   62.4660   33.7120   46.7660 C   0  0  0  0  0  0  0  0  0  0  0  0
   58.1730   33.5860   45.0560 C   0  0  0  0  0  0  0  0  0  0  0  0
   57.3890   32.6290   44.4060 C   0  0  0  0  0  0  0  0  0  0  0  0
   56.2540   27.4400   45.5320 N   0  0  0  0  0  0  0  0  0  0  0  0
   56.2960   26.2740   46.4090 C   0  0  0  0  0  0  0  0  0  0  0  0
   56.1560   25.0120   45.6040 C   0  0  0  0  0  0  0  0  0  0  0  0
   54.8630   24.5260   45.2780 C   0  0  0  0  0  0  0  0  0  0  0  0
   54.7110   23.3570   44.5130 C   0  0  0  0  0  0  0  0  0  0  0  0
   55.8650   22.7010   44.0950 C   0  0  0  0  0  0  0  0  0  0  0  0
   57.1050   23.1560   44.4080 C   0  0  0  0  0  0  0  0  0  0  0  0
   57.2990   24.3070   45.1650 C   0  0  0  0  0  0  0  0  0  0  0  0
   58.0540   22.3160   43.8610 O   0  0  0  0  0  0  0  0  0  0  0  0
   57.3690   21.2750   43.1500 C   0  0  0  0  0  0  0  0  0  0  0  0
   55.9730   21.5570   43.3310 O   0  0  0  0  0  0  0  0  0  0  0  0
   56.2377   30.6457   43.1693 H   0  0  0  0  0  0  0  0  0  0  0  0
   55.6805   30.0132   44.7641 H   0  0  0  0  0  0  0  0  0  0  0  0
   58.1442   29.9065   46.3346 H   0  0  0  0  0  0  0  0  0  0  0  0
   59.5210   31.6214   47.5069 H   0  0  0  0  0  0  0  0  0  0  0  0
   61.7710   35.5669   48.6716 H   0  0  0  0  0  0  0  0  0  0  0  0
   60.9945   34.2929   49.7049 H   0  0  0  0  0  0  0  0  0  0  0  0
   63.8391   34.8837   49.2743 H   0  0  0  0  0  0  0  0  0  0  0  0
   63.0075   33.8448   50.5261 H   0  0  0  0  0  0  0  0  0  0  0  0
   63.8575   30.7723   48.8680 H   0  0  0  0  0  0  0  0  0  0  0  0
   64.9483   31.3630   50.8970 H   0  0  0  0  0  0  0  0  0  0  0  0
   63.5974   32.4632   51.3922 H   0  0  0  0  0  0  0  0  0  0  0  0
   63.9653   29.9403   52.4030 H   0  0  0  0  0  0  0  0  0  0  0  0
   62.3671   30.7805   52.2935 H   0  0  0  0  0  0  0  0  0  0  0  0
   61.3117   29.0524   49.4148 H   0  0  0  0  0  0  0  0  0  0  0  0
   60.7941   29.9920   50.8919 H   0  0  0  0  0  0  0  0  0  0  0  0
   61.5287   31.0454   48.3698 H   0  0  0  0  0  0  0  0  0  0  0  0
   61.2607   31.9398   49.9172 H   0  0  0  0  0  0  0  0  0  0  0  0
   64.5537   33.2149   46.9433 H   0  0  0  0  0  0  0  0  0  0  0  0
   63.3971   31.8043   47.0092 H   0  0  0  0  0  0  0  0  0  0  0  0
   62.8379   34.7348   46.6064 H   0  0  0  0  0  0  0  0  0  0  0  0
   62.1208   33.2959   45.8081 H   0  0  0  0  0  0  0  0  0  0  0  0
   58.1855   34.6233   44.6902 H   0  0  0  0  0  0  0  0  0  0  0  0
   56.7761   32.9198   43.5401 H   0  0  0  0  0  0  0  0  0  0  0  0
   55.3440   27.9350   45.4330 H   0  0  0  0  0  0  0  0  0  0  0  0
   57.2560   26.2577   46.9457 H   0  0  0  0  0  0  0  0  0  0  0  0
   55.4647   26.3353   47.1268 H   0  0  0  0  0  0  0  0  0  0  0  0
   53.9723   25.0690   45.6271 H   0  0  0  0  0  0  0  0  0  0  0  0
   53.7133   22.9733   44.2533 H   0  0  0  0  0  0  0  0  0  0  0  0
   58.3115   24.6575   45.4142 H   0  0  0  0  0  0  0  0  0  0  0  0
   57.6327   21.2980   42.0823 H   0  0  0  0  0  0  0  0  0  0  0  0
   57.6396   20.2751   43.5201 H   0  0  0  0  0  0  0  0  0  0  0  0
  1  2  2  0
  2  3  1  0
  3  4  1  0
  4  5  1  0
  5  6  2  0
  6  7  1  0
  7  8  2  0
  8  9  1  0
  9 10  2  0
  9 11  2  0
  9 12  1  0
 12 13  1  0
 13 14  1  0
 14 15  1  0
 15 16  1  0
 16 17  1  0
 17 18  1  0
 18 19  1  0
 19 20  1  0
 20 21  1  0
 15 22  1  0
 22 23  1  0
  8 24  1  0
 24 25  2  0
  2 26  1  0
 26 27  1  0
 27 28  1  0
 28 29  2  0
 29 30  1  0
 30 31  2  0
 31 32  1  0
 32 33  2  0
 32 34  1  0
 34 35  1  0
 35 36  1  0
 25  5  1  0
 33 28  1  0
 23 12  1  0
 36 31  1  0
 21 16  1  0
  4 37  1  0
  4 38  1  0
  6 39  1  0
  7 40  1  0
 13 41  1  0
 13 42  1  0
 14 43  1  0
 14 44  1  0
 16 45  1  0
 17 46  1  0
 17 47  1  0
 18 48  1  0
 18 49  1  0
 20 50  1  0
 20 51  1  0
 21 52  1  0
 21 53  1  0
 22 54  1  0
 22 55  1  0
 23 56  1  0
 23 57  1  0
 24 58  1  0
 25 59  1  0
 26 60  1  0
 27 61  1  0
 27 62  1  0
 29 63  1  0
 30 64  1  0
 33 65  1  0
 35 66  1  0
 35 67  1  0
M  CHG  1   3  -1
M  END
>  <UniqueID>  (69) 
67

>  <SMILES>  (69) 
O=C([N-]Cc1ccc(S(=O)(=O)N2CCN(C3CCOCC3)CC2)cc1)NCc1ccc2c(c1)OCO2

>  <Energy>  (69) 
117.4021848988013

>  <Genealogy>  (69) 
O=C([N-]Cc1ccc(S(=O)(=O)N2CCN(C3CCOCC3)CC2)cc1)NCc1ccc2c(c1)OCO2 (protonated)
O=C([N-]Cc1ccc(S(=O)(=O)N2CCN(C3CCOCC3)CC2)cc1)NCc1ccc2c(c1)OCO2 (3D coordinates assigned)
O=C([N-]Cc1ccc(S(=O)(=O)N2CCN(C3CCOCC3)CC2)cc1)NCc1ccc2c(c1)OCO2 (nonaromatic ring conformer: 117.4021848988013 kcal/mol)

>  <smiles>  (69) 
O=C(NCc1ccc(S(=O)(=O)N2CCN(C3CCOCC3)CC2)cc1)NCc1ccc2c(c1)OCO2

>  <score_type>  (69) 
oracle

>  <origin>  (69) 
adg

>  <m_score__min__energy>  (69) 
-11.699999999999999

>  <m_primary>  (69) 
energy

$$$$
69:0
     RDKit          3D

 53 55  0  0  1  0  0  0  0  0999 V2000
   64.2270   34.9670   52.2910 C   0  0  0  0  0  0  0  0  0  0  0  0
   63.8560   34.3740   51.1530 O   0  0  0  0  0  0  0  0  0  0  0  0
   64.5210   33.3820   50.5430 C   0  0  0  0  0  0  0  0  0  0  0  0
   63.9210   32.7090   49.3590 C   0  0  0  0  0  0  0  0  0  0  0  0
   62.6060   33.2290   49.0490 N   0  0  0  0  0  0  0  0  0  0  0  0
   61.9280   32.6380   47.9620 C   0  0  0  0  0  0  0  0  0  0  0  0
   62.5740   31.6970   47.3760 O   0  0  0  0  0  0  0  0  0  0  0  0
   60.6250   32.9680   47.4540 C   0  0  0  0  0  0  0  0  0  0  0  0
   60.1480   32.2510   46.3480 C   0  0  0  0  0  0  0  0  0  0  0  0
   58.9110   32.4940   45.7960 C   0  0  0  0  0  0  0  0  0  0  0  0
   58.4460   31.7520   44.6750 N   0  0  0  0  0  0  0  0  0  0  0  0
   57.6010   30.7960   44.7290 C   0  0  0  0  0  0  0  0  0  0  0  0
   56.4690   30.8470   43.9250 C   0  0  0  0  0  0  0  0  0  0  0  0
   55.6000   29.7830   44.0360 C   0  0  0  0  0  0  0  0  0  0  0  0
   55.8130   28.7510   44.8630 N   0  0  0  0  0  0  0  0  0  0  0  0
   56.9090   28.7510   45.6090 C   0  0  0  0  0  0  0  0  0  0  0  0
   57.1570   27.8000   46.4040 N   0  0  0  0  0  0  0  0  0  0  0  0
   57.9930   26.6510   46.1590 C   0  0  0  0  0  0  0  0  0  0  0  0
   57.2180   25.5430   45.5300 C   0  0  0  0  0  0  0  0  0  0  0  0
   57.8370   24.5270   44.8070 C   0  0  0  0  0  0  0  0  0  0  0  0
   57.1390   23.4970   44.2200 C   0  0  0  0  0  0  0  0  0  0  0  0
   55.7660   23.4330   44.3310 C   0  0  0  0  0  0  0  0  0  0  0  0
   55.1290   24.4240   45.0410 C   0  0  0  0  0  0  0  0  0  0  0  0
   55.8400   25.4510   45.6240 C   0  0  0  0  0  0  0  0  0  0  0  0
   55.1170   26.4020   46.3180 O   0  0  0  0  0  0  0  0  0  0  0  0
   57.8070   29.7680   45.5480 N   0  0  0  0  0  0  0  0  0  0  0  0
   58.0680   33.4610   46.2970 C   0  0  0  0  0  0  0  0  0  0  0  0
   58.5180   34.1770   47.3850 C   0  0  0  0  0  0  0  0  0  0  0  0
   59.7760   33.9250   47.9430 C   0  0  0  0  0  0  0  0  0  0  0  0
   60.1280   34.6930   49.0220 O   0  0  0  0  0  0  0  0  0  0  0  0
   63.8602   34.3808   53.1464 H   0  0  0  0  0  0  0  0  0  0  0  0
   65.3245   35.0279   52.3318 H   0  0  0  0  0  0  0  0  0  0  0  0
   63.8017   35.9806   52.3318 H   0  0  0  0  0  0  0  0  0  0  0  0
   65.4861   33.7980   50.2180 H   0  0  0  0  0  0  0  0  0  0  0  0
   64.5470   32.5870   51.3028 H   0  0  0  0  0  0  0  0  0  0  0  0
   64.5783   32.8647   48.4909 H   0  0  0  0  0  0  0  0  0  0  0  0
   63.8173   31.6390   49.5923 H   0  0  0  0  0  0  0  0  0  0  0  0
   62.1440   34.0080   49.5430 H   0  0  0  0  0  0  0  0  0  0  0  0
   60.7831   31.4686   45.9069 H   0  0  0  0  0  0  0  0  0  0  0  0
   56.2777   31.6866   43.2406 H   0  0  0  0  0  0  0  0  0  0  0  0
   54.6904   29.7812   43.4175 H   0  0  0  0  0  0  0  0  0  0  0  0
   55.1440   27.9620   44.9300 H   0  0  0  0  0  0  0  0  0  0  0  0
   58.8136   26.9414   45.4865 H   0  0  0  0  0  0  0  0  0  0  0  0
   58.3876   26.2961   47.1225 H   0  0  0  0  0  0  0  0  0  0  0  0
   58.9316   24.5487   44.7005 H   0  0  0  0  0  0  0  0  0  0  0  0
   57.6792   22.7202   43.6590 H   0  0  0  0  0  0  0  0  0  0  0  0
   55.1974   22.6143   43.8658 H   0  0  0  0  0  0  0  0  0  0  0  0
   54.0343   24.3965   45.1453 H   0  0  0  0  0  0  0  0  0  0  0  0
   55.4510   26.7490   47.2060 H   0  0  0  0  0  0  0  0  0  0  0  0
   58.6800   29.7750   46.1390 H   0  0  0  0  0  0  0  0  0  0  0  0
   57.0816   33.6528   45.8496 H   0  0  0  0  0  0  0  0  0  0  0  0
   57.8785   34.9584   47.8213 H   0  0  0  0  0  0  0  0  0  0  0  0
   59.6560   35.4840   49.3880 H   0  0  0  0  0  0  0  0  0  0  0  0
  1  2  1  0
  2  3  1  0
  3  4  1  0
  4  5  1  0
  5  6  1  0
  6  7  2  0
  6  8  1  0
  8  9  2  0
  9 10  1  0
 10 11  1  0
 11 12  2  0
 12 13  1  0
 13 14  2  0
 14 15  1  0
 15 16  1  0
 16 17  2  0
 17 18  1  0
 18 19  1  0
 19 20  2  0
 20 21  1  0
 21 22  2  0
 22 23  1  0
 23 24  2  0
 24 25  1  0
 16 26  1  0
 10 27  2  0
 27 28  1  0
 28 29  2  0
 29 30  1  0
 29  8  1  0
 26 12  1  0
 24 19  1  0
  1 31  1  0
  1 32  1  0
  1 33  1  0
  3 34  1  0
  3 35  1  0
  4 36  1  0
  4 37  1  0
  5 38  1  0
  9 39  1  0
 13 40  1  0
 14 41  1  0
 15 42  1  0
 18 43  1  0
 18 44  1  0
 20 45  1  0
 21 46  1  0
 22 47  1  0
 23 48  1  0
 25 49  1  0
 26 50  1  0
 27 51  1  0
 28 52  1  0
 30 53  1  0
M  END
>  <smiles>  (70) 
COCCNC(=O)c1cc(N=c2cc[nH]c(=NCc3ccccc3O)[nH]2)ccc1O

>  <score_type>  (70) 
oracle

>  <origin>  (70) 
adg

>  <m_score__min__energy>  (70) 
-8.7300000000000004

>  <m_primary>  (70) 
energy

$$$$
70:0
     RDKit          3D

 42 44  0  0  0  0  0  0  0  0999 V2000
   58.9060   31.3670   49.4690 C   0  0  0  0  0  0  0  0  0  0  0  0
   58.4620   30.8920   48.2020 O   0  0  0  0  0  0  0  0  0  0  0  0
   58.7840   29.6360   47.6600 C   0  0  0  0  0  0  0  0  0  0  0  0
   59.4140   28.6420   48.4320 C   0  0  0  0  0  0  0  0  0  0  0  0
   59.7460   27.4090   47.8710 C   0  0  0  0  0  0  0  0  0  0  0  0
   59.4420   27.1270   46.5330 C   0  0  0  0  0  0  0  0  0  0  0  0
   59.8290   25.8040   45.9820 C   0  0  0  0  0  0  0  0  0  0  0  0
   59.1160   24.6820   46.1710 C   0  0  0  0  0  0  0  0  0  0  0  0
   57.7190   24.5070   45.7020 C   0  0  0  0  0  0  0  0  0  0  0  0
   57.3040   23.3850   44.9540 C   0  0  0  0  0  0  0  0  0  0  0  0
   55.9700   23.2630   44.5460 C   0  0  0  0  0  0  0  0  0  0  0  0
   55.5700   22.1560   43.8080 O   0  0  0  0  0  0  0  0  0  0  0  0
   55.0390   24.2470   44.8840 C   0  0  0  0  0  0  0  0  0  0  0  0
   55.4370   25.3530   45.6400 C   0  0  0  0  0  0  0  0  0  0  0  0
   54.5080   26.3290   45.9820 O   0  0  0  0  0  0  0  0  0  0  0  0
   56.7670   25.4810   46.0510 C   0  0  0  0  0  0  0  0  0  0  0  0
   58.8220   28.1200   45.7530 C   0  0  0  0  0  0  0  0  0  0  0  0
   58.4890   29.3730   46.3040 C   0  0  0  0  0  0  0  0  0  0  0  0
   57.8320   30.3970   45.4500 C   0  0  0  0  0  0  0  0  0  0  0  0
   56.6010   30.3080   45.2030 O   0  0  0  0  0  0  0  0  0  0  0  0
   58.5850   31.4380   44.8050 N   0  0  0  0  0  0  0  0  0  0  0  0
   58.9590   32.5790   45.3160 C   0  0  0  0  0  0  0  0  0  0  0  0
   59.7990   32.6730   46.4450 C   0  0  0  0  0  0  0  0  0  0  0  0
   60.1560   33.9320   46.9350 C   0  0  0  0  0  0  0  0  0  0  0  0
   59.6850   35.0580   46.3370 N   0  0  0  0  0  0  0  0  0  0  0  0
   58.8600   34.9980   45.2590 C   0  0  0  0  0  0  0  0  0  0  0  0
   58.4780   33.7610   44.7350 C   0  0  0  0  0  0  0  0  0  0  0  0
   58.3902   30.8152   50.2687 H   0  0  0  0  0  0  0  0  0  0  0  0
   59.9915   31.2130   49.5585 H   0  0  0  0  0  0  0  0  0  0  0  0
   58.6792   32.4396   49.5585 H   0  0  0  0  0  0  0  0  0  0  0  0
   59.6469   28.8396   49.4887 H   0  0  0  0  0  0  0  0  0  0  0  0
   60.2519   26.6500   48.4857 H   0  0  0  0  0  0  0  0  0  0  0  0
   60.7511   25.7392   45.3857 H   0  0  0  0  0  0  0  0  0  0  0  0
   59.5939   23.8462   46.7030 H   0  0  0  0  0  0  0  0  0  0  0  0
   58.0312   22.6030   44.6903 H   0  0  0  0  0  0  0  0  0  0  0  0
   53.9935   24.1519   44.5557 H   0  0  0  0  0  0  0  0  0  0  0  0
   57.0711   26.3506   46.6522 H   0  0  0  0  0  0  0  0  0  0  0  0
   58.5937   27.9150   44.6967 H   0  0  0  0  0  0  0  0  0  0  0  0
   60.1705   31.7617   46.9364 H   0  0  0  0  0  0  0  0  0  0  0  0
   60.8206   34.0121   47.8079 H   0  0  0  0  0  0  0  0  0  0  0  0
   58.4919   35.9263   44.7977 H   0  0  0  0  0  0  0  0  0  0  0  0
   57.8016   33.7142   43.8688 H   0  0  0  0  0  0  0  0  0  0  0  0
  1  2  1  0
  2  3  1  0
  3  4  2  0
  4  5  1  0
  5  6  2  0
  6  7  1  0
  7  8  2  3
  8  9  1  0
  9 10  2  0
 10 11  1  0
 11 12  1  0
 11 13  2  0
 13 14  1  0
 14 15  1  0
 14 16  2  0
  6 17  1  0
 17 18  2  0
 18 19  1  0
 19 20  2  0
 19 21  1  0
 21 22  2  3
 22 23  1  0
 23 24  2  0
 24 25  1  0
 25 26  1  0
 26 27  2  0
 18  3  1  0
 27 22  1  0
 16  9  1  0
  1 28  1  0
  1 29  1  0
  1 30  1  0
  4 31  1  0
  5 32  1  0
  7 33  1  0
  8 34  1  0
 10 35  1  0
 13 36  1  0
 16 37  1  0
 17 38  1  0
 23 39  1  0
 24 40  1  0
 26 41  1  0
 27 42  1  0
M  CHG  3  12  -1  15  -1  25  -1
M  END
>  <UniqueID>  (71) 
68

>  <SMILES>  (71) 
COc1ccc(C=Cc2cc([O-])cc([O-])c2)cc1C(=O)N=c1cc[n-]cc1

>  <Energy>  (71) 
62.266452276807605

>  <Genealogy>  (71) 
COc1ccc(C=Cc2cc([O-])cc([O-])c2)cc1C(=O)N=c1cc[n-]cc1 (protonated)
COc1ccc(C=Cc2cc([O-])cc([O-])c2)cc1C(=O)N=c1cc[n-]cc1 (3D coordinates assigned)
COc1ccc(C=Cc2cc([O-])cc([O-])c2)cc1C(=O)N=c1cc[n-]cc1 (optimized conformer: 62.266452276807605 kcal/mol)

>  <smiles>  (71) 
COc1ccc(C=Cc2cc(O)cc(O)c2)cc1C(=O)N=c1cc[nH]cc1

>  <score_type>  (71) 
oracle

>  <origin>  (71) 
adg

>  <m_score__min__energy>  (71) 
-14.130000000000001

>  <m_primary>  (71) 
energy

$$$$
71:0
     RDKit          3D

 59 63  0  0  0  0  0  0  0  0999 V2000
   55.8890   30.6840   44.7050 O   0  0  0  0  0  0  0  0  0  0  0  0
   57.1290   30.8850   44.6100 C   0  0  0  0  0  0  0  0  0  0  0  0
   57.5830   32.1820   44.2000 N   0  0  0  0  0  0  0  0  0  0  0  0
   58.3160   33.1210   45.0000 C   0  0  0  0  0  0  0  0  0  0  0  0
   58.5450   34.4060   44.4970 C   0  0  0  0  0  0  0  0  0  0  0  0
   59.2610   35.3400   45.2490 C   0  0  0  0  0  0  0  0  0  0  0  0
   59.7770   34.9880   46.4990 C   0  0  0  0  0  0  0  0  0  0  0  0
   59.5970   33.6880   47.0000 C   0  0  0  0  0  0  0  0  0  0  0  0
   60.1420   33.3020   48.3220 C   0  0  0  0  0  0  0  0  0  0  0  0
   59.3790   32.7380   49.1540 O   0  0  0  0  0  0  0  0  0  0  0  0
   61.5130   33.5610   48.6850 N   0  0  0  0  0  0  0  0  0  0  0  0
   62.5900   33.4730   47.6860 C   0  0  0  0  0  0  0  0  0  0  0  0
   63.7750   32.6770   48.2480 C   0  0  0  0  0  0  0  0  0  0  0  0
   64.1050   33.0960   49.6180 N   0  0  0  0  0  0  0  0  0  0  0  0
   65.1240   32.3900   50.3460 C   0  0  0  0  0  0  0  0  0  0  0  0
   66.4780   32.6850   50.1210 C   0  0  0  0  0  0  0  0  0  0  0  0
   67.4750   32.0070   50.8280 C   0  0  0  0  0  0  0  0  0  0  0  0
   67.1260   31.0280   51.7610 C   0  0  0  0  0  0  0  0  0  0  0  0
   65.7810   30.7240   51.9880 C   0  0  0  0  0  0  0  0  0  0  0  0
   64.7790   31.4020   51.2850 C   0  0  0  0  0  0  0  0  0  0  0  0
   63.4810   31.0720   51.4960 F   0  0  0  0  0  0  0  0  0  0  0  0
   63.3200   34.1430   50.2820 C   0  0  0  0  0  0  0  0  0  0  0  0
   61.8270   33.8670   50.0900 C   0  0  0  0  0  0  0  0  0  0  0  0
   58.8630   32.7580   46.2430 C   0  0  0  0  0  0  0  0  0  0  0  0
   58.0870   29.7580   44.9230 C   0  0  2  0  0  0  0  0  0  0  0  0
   57.6030   28.3860   44.4100 C   0  0  0  0  0  0  0  0  0  0  0  0
   57.5430   27.5780   45.6680 C   0  0  0  0  0  0  0  0  0  0  0  0
   57.1420   26.1460   45.7460 C   0  0  0  0  0  0  0  0  0  0  0  0
   58.1260   25.1410   45.6610 C   0  0  0  0  0  0  0  0  0  0  0  0
   57.7750   23.7900   45.7310 C   0  0  0  0  0  0  0  0  0  0  0  0
   56.4380   23.4210   45.8860 C   0  0  0  0  0  0  0  0  0  0  0  0
   55.4490   24.4010   45.9690 C   0  0  0  0  0  0  0  0  0  0  0  0
   55.7890   25.7570   45.9000 C   0  0  0  0  0  0  0  0  0  0  0  0
   54.7710   26.7020   45.9820 O   0  0  0  0  0  0  0  0  0  0  0  0
   57.8760   28.2730   46.7000 N   0  0  0  0  0  0  0  0  0  0  0  0
   58.1900   29.5510   46.3230 O   0  0  0  0  0  0  0  0  0  0  0  0
   58.1593   34.6821   43.5045 H   0  0  0  0  0  0  0  0  0  0  0  0
   59.4191   36.3553   44.8563 H   0  0  0  0  0  0  0  0  0  0  0  0
   60.3268   35.7325   47.0936 H   0  0  0  0  0  0  0  0  0  0  0  0
   62.2091   32.9692   46.7854 H   0  0  0  0  0  0  0  0  0  0  0  0
   62.9287   34.4890   47.4351 H   0  0  0  0  0  0  0  0  0  0  0  0
   63.5166   31.6078   48.2538 H   0  0  0  0  0  0  0  0  0  0  0  0
   64.6507   32.8651   47.6094 H   0  0  0  0  0  0  0  0  0  0  0  0
   66.7556   33.4536   49.3846 H   0  0  0  0  0  0  0  0  0  0  0  0
   68.5342   32.2444   50.6497 H   0  0  0  0  0  0  0  0  0  0  0  0
   67.9110   30.4955   52.3180 H   0  0  0  0  0  0  0  0  0  0  0  0
   65.5094   29.9500   52.7209 H   0  0  0  0  0  0  0  0  0  0  0  0
   63.5554   34.1507   51.3565 H   0  0  0  0  0  0  0  0  0  0  0  0
   63.5697   35.1200   49.8426 H   0  0  0  0  0  0  0  0  0  0  0  0
   61.5383   33.0098   50.7160 H   0  0  0  0  0  0  0  0  0  0  0  0
   61.2684   34.7689   50.3807 H   0  0  0  0  0  0  0  0  0  0  0  0
   58.7155   31.7377   46.6267 H   0  0  0  0  0  0  0  0  0  0  0  0
   59.0265   30.0693   44.4429 H   0  0  0  0  0  0  0  0  0  0  0  0
   56.6120   28.4638   43.9389 H   0  0  0  0  0  0  0  0  0  0  0  0
   58.2535   27.9503   43.6374 H   0  0  0  0  0  0  0  0  0  0  0  0
   59.1821   25.4229   45.5382 H   0  0  0  0  0  0  0  0  0  0  0  0
   58.5539   23.0162   45.6638 H   0  0  0  0  0  0  0  0  0  0  0  0
   56.1641   22.3571   45.9427 H   0  0  0  0  0  0  0  0  0  0  0  0
   54.3960   24.1066   46.0894 H   0  0  0  0  0  0  0  0  0  0  0  0
  1  2  2  0
  2  3  1  0
  3  4  1  0
  4  5  2  0
  5  6  1  0
  6  7  2  0
  7  8  1  0
  8  9  1  0
  9 10  2  0
  9 11  1  0
 11 12  1  0
 12 13  1  0
 13 14  1  0
 14 15  1  0
 15 16  2  0
 16 17  1  0
 17 18  2  0
 18 19  1  0
 19 20  2  0
 20 21  1  0
 14 22  1  0
 22 23  1  0
  8 24  2  0
  2 25  1  0
 25 26  1  0
 26 27  1  0
 27 28  1  0
 28 29  2  0
 29 30  1  0
 30 31  2  0
 31 32  1  0
 32 33  2  0
 33 34  1  0
 27 35  2  0
 35 36  1  0
 24  4  1  0
 36 25  1  0
 23 11  1  0
 33 28  1  0
 20 15  1  0
  5 37  1  0
  6 38  1  0
  7 39  1  0
 12 40  1  0
 12 41  1  0
 13 42  1  0
 13 43  1  0
 16 44  1  0
 17 45  1  0
 18 46  1  0
 19 47  1  0
 22 48  1  0
 22 49  1  0
 23 50  1  0
 23 51  1  0
 24 52  1  0
 25 53  1  6
 26 54  1  0
 26 55  1  0
 29 56  1  0
 30 57  1  0
 31 58  1  0
 32 59  1  0
M  CHG  2   3  -1  34  -1
M  END
>  <UniqueID>  (72) 
69

>  <SMILES>  (72) 
O=C([N-]c1cccc(C(=O)N2CCN(c3ccccc3F)CC2)c1)[C@@H]1CC(c2ccccc2[O-])=NO1

>  <Energy>  (72) 
95.96165451594425

>  <Genealogy>  (72) 
O=C([N-]c1cccc(C(=O)N2CCN(c3ccccc3F)CC2)c1)C1CC(c2ccccc2[O-])=NO1 (protonated)
O=C([N-]c1cccc(C(=O)N2CCN(c3ccccc3F)CC2)c1)[C@@H]1CC(c2ccccc2[O-])=NO1 (chirality)
O=C([N-]c1cccc(C(=O)N2CCN(c3ccccc3F)CC2)c1)[C@@H]1CC(c2ccccc2[O-])=NO1 (3D coordinates assigned)
O=C([N-]c1cccc(C(=O)N2CCN(c3ccccc3F)CC2)c1)[C@@H]1CC(c2ccccc2[O-])=NO1 (nonaromatic ring conformer: 95.96165451594425 kcal/mol)

>  <smiles>  (72) 
O=C(Nc1cccc(C(=O)N2CCN(c3ccccc3F)CC2)c1)C1CC(c2ccccc2O)=NO1

>  <score_type>  (72) 
oracle

>  <origin>  (72) 
adg

>  <m_score__min__energy>  (72) 
-15.93

>  <m_primary>  (72) 
energy

$$$$
72:0
     RDKit          3D

 39 41  0  0  0  0  0  0  0  0999 V2000
   60.9050   26.1420   46.1260 O   0  0  0  0  0  0  0  0  0  0  0  0
   60.1180   26.7510   46.8970 C   0  0  0  0  0  0  0  0  0  0  0  0
   60.6640   27.4730   48.0090 N   0  0  0  0  0  0  0  0  0  0  0  0
   60.2940   28.7960   48.4280 C   0  0  0  0  0  0  0  0  0  0  0  0
   59.0790   29.0520   49.0860 C   0  0  0  0  0  0  0  0  0  0  0  0
   58.7510   30.3520   49.4760 C   0  0  0  0  0  0  0  0  0  0  0  0
   59.6220   31.4110   49.2020 C   0  0  0  0  0  0  0  0  0  0  0  0
   59.2650   32.6990   49.5820 O   0  0  0  0  0  0  0  0  0  0  0  0
   60.8340   31.1710   48.5290 C   0  0  0  0  0  0  0  0  0  0  0  0
   61.7460   32.2450   48.2420 N   0  0  0  0  0  0  0  0  0  0  0  0
   61.8840   32.7220   46.8620 C   0  0  0  0  0  0  0  0  0  0  0  0
   62.9300   33.8390   46.7770 C   0  0  0  0  0  0  0  0  0  0  0  0
   64.1310   33.4660   47.5340 N   0  0  0  0  0  0  0  0  0  0  0  0
   63.8730   33.2960   48.9790 C   0  0  0  0  0  0  0  0  0  0  0  0
   62.4060   32.9720   49.3330 C   0  0  0  0  0  0  0  0  0  0  0  0
   61.1530   29.8610   48.1350 C   0  0  0  0  0  0  0  0  0  0  0  0
   58.6620   26.6830   46.6400 C   0  0  0  0  0  0  0  0  0  0  0  0
   57.9240   25.6270   47.2010 C   0  0  0  0  0  0  0  0  0  0  0  0
   56.5530   25.5120   46.9580 C   0  0  0  0  0  0  0  0  0  0  0  0
   55.9020   26.4570   46.1630 C   0  0  0  0  0  0  0  0  0  0  0  0
   54.5380   26.3400   45.9200 O   0  0  0  0  0  0  0  0  0  0  0  0
   56.6180   27.5250   45.6190 C   0  0  0  0  0  0  0  0  0  0  0  0
   57.9930   27.6510   45.8560 C   0  0  0  0  0  0  0  0  0  0  0  0
   58.8150   29.0740   45.2220 Cl  0  0  0  0  0  0  0  0  0  0  0  0
   58.3839   28.2254   49.2946 H   0  0  0  0  0  0  0  0  0  0  0  0
   57.8036   30.5438   50.0009 H   0  0  0  0  0  0  0  0  0  0  0  0
   62.1965   31.8851   46.2202 H   0  0  0  0  0  0  0  0  0  0  0  0
   60.9146   33.1190   46.5264 H   0  0  0  0  0  0  0  0  0  0  0  0
   63.2008   34.0041   45.7237 H   0  0  0  0  0  0  0  0  0  0  0  0
   62.5075   34.7603   47.2044 H   0  0  0  0  0  0  0  0  0  0  0  0
   64.5000   32.5660   47.1470 H   0  0  0  0  0  0  0  0  0  0  0  0
   64.5048   32.4740   49.3465 H   0  0  0  0  0  0  0  0  0  0  0  0
   64.1038   34.2610   49.4539 H   0  0  0  0  0  0  0  0  0  0  0  0
   62.3844   32.3527   50.2418 H   0  0  0  0  0  0  0  0  0  0  0  0
   61.8694   33.9183   49.4963 H   0  0  0  0  0  0  0  0  0  0  0  0
   62.0891   29.6701   47.5897 H   0  0  0  0  0  0  0  0  0  0  0  0
   58.4297   24.8851   47.8365 H   0  0  0  0  0  0  0  0  0  0  0  0
   55.9860   24.6760   47.3935 H   0  0  0  0  0  0  0  0  0  0  0  0
   56.0993   28.2722   45.0004 H   0  0  0  0  0  0  0  0  0  0  0  0
  1  2  2  0
  2  3  1  0
  3  4  1  0
  4  5  2  0
  5  6  1  0
  6  7  2  0
  7  8  1  0
  7  9  1  0
  9 10  1  0
 10 11  1  0
 11 12  1  0
 12 13  1  0
 13 14  1  0
 14 15  1  0
  9 16  2  0
  2 17  1  0
 17 18  2  0
 18 19  1  0
 19 20  2  0
 20 21  1  0
 20 22  1  0
 22 23  2  0
 23 24  1  0
 16  4  1  0
 23 17  1  0
 15 10  1  0
  5 25  1  0
  6 26  1  0
 11 27  1  0
 11 28  1  0
 12 29  1  0
 12 30  1  0
 13 31  1  0
 14 32  1  0
 14 33  1  0
 15 34  1  0
 15 35  1  0
 16 36  1  0
 18 37  1  0
 19 38  1  0
 22 39  1  0
M  CHG  3   3  -1   8  -1  21  -1
M  END
>  <UniqueID>  (73) 
70

>  <SMILES>  (73) 
O=C([N-]c1ccc([O-])c(N2CCNCC2)c1)c1ccc([O-])cc1Cl

>  <Energy>  (73) 
59.50565002736559

>  <Genealogy>  (73) 
O=C([N-]c1ccc([O-])c(N2CCNCC2)c1)c1ccc([O-])cc1Cl (protonated)
O=C([N-]c1ccc([O-])c(N2CCNCC2)c1)c1ccc([O-])cc1Cl (3D coordinates assigned)
O=C([N-]c1ccc([O-])c(N2CCNCC2)c1)c1ccc([O-])cc1Cl (nonaromatic ring conformer: 59.50565002736559 kcal/mol)

>  <smiles>  (73) 
O=C(Nc1ccc(O)c(N2CCNCC2)c1)c1ccc(O)cc1Cl

>  <score_type>  (73) 
oracle

>  <origin>  (73) 
adg

>  <m_score__min__energy>  (73) 
-12.970000000000001

>  <m_primary>  (73) 
energy

$$$$
73:0
     RDKit          3D

 47 49  0  0  0  0  0  0  0  0999 V2000
   59.6950   33.8140   48.7320 C   0  0  0  0  0  0  0  0  0  0  0  0
   59.2730   34.0570   47.3580 N   0  0  0  0  0  0  0  0  0  0  0  0
   59.8650   34.8940   46.4830 C   0  0  0  0  0  0  0  0  0  0  0  0
   59.2590   34.7780   45.2480 C   0  0  0  0  0  0  0  0  0  0  0  0
   58.2520   33.8420   45.3890 C   0  0  0  0  0  0  0  0  0  0  0  0
   57.4560   33.2940   44.2730 C   0  0  0  0  0  0  0  0  0  0  0  0
   57.6280   32.0880   43.6990 C   0  0  0  0  0  0  0  0  0  0  0  0
   57.7330   32.0380   42.2600 C   0  0  0  0  0  0  0  0  0  0  0  0
   57.8170   32.0000   41.1060 N   0  0  0  0  0  0  0  0  0  0  0  0
   57.6020   30.8040   44.4410 C   0  0  0  0  0  0  0  0  0  0  0  0
   56.6540   30.5650   45.2390 O   0  0  0  0  0  0  0  0  0  0  0  0
   58.5920   29.7940   44.1710 N   0  0  0  0  0  0  0  0  0  0  0  0
   58.5840   28.4780   44.7480 C   0  0  0  0  0  0  0  0  0  0  0  0
   59.7690   27.9620   45.2890 C   0  0  0  0  0  0  0  0  0  0  0  0
   59.7900   26.6910   45.8670 C   0  0  0  0  0  0  0  0  0  0  0  0
   58.6210   25.9310   45.9300 C   0  0  0  0  0  0  0  0  0  0  0  0
   57.4130   26.4430   45.4300 C   0  0  0  0  0  0  0  0  0  0  0  0
   56.1720   25.6380   45.5100 C   0  0  0  0  0  0  0  0  0  0  0  0
   55.1660   26.1020   46.1130 O   0  0  0  0  0  0  0  0  0  0  0  0
   56.1010   24.3230   44.9320 N   0  0  0  0  0  0  0  0  0  0  0  0
   55.3390   23.2730   45.6100 C   0  0  0  0  0  0  0  0  0  0  0  0
   55.9200   21.9050   45.2370 C   0  0  0  0  0  0  0  0  0  0  0  0
   56.0080   21.7560   43.8310 O   0  0  0  0  0  0  0  0  0  0  0  0
   56.9180   22.7020   43.2990 C   0  0  0  0  0  0  0  0  0  0  0  0
   56.4040   24.1270   43.5120 C   0  0  0  0  0  0  0  0  0  0  0  0
   57.4020   27.7190   44.8350 C   0  0  0  0  0  0  0  0  0  0  0  0
   58.2980   33.3990   46.7020 C   0  0  0  0  0  0  0  0  0  0  0  0
   58.9540   34.2407   49.4240 H   0  0  0  0  0  0  0  0  0  0  0  0
   59.7765   32.7307   48.9044 H   0  0  0  0  0  0  0  0  0  0  0  0
   60.6729   34.2873   48.9044 H   0  0  0  0  0  0  0  0  0  0  0  0
   60.7031   35.5669   46.7172 H   0  0  0  0  0  0  0  0  0  0  0  0
   59.5256   35.3239   44.3310 H   0  0  0  0  0  0  0  0  0  0  0  0
   56.6500   33.9277   43.8745 H   0  0  0  0  0  0  0  0  0  0  0  0
   59.2880   29.9750   43.4120 H   0  0  0  0  0  0  0  0  0  0  0  0
   60.6899   28.5628   45.2582 H   0  0  0  0  0  0  0  0  0  0  0  0
   60.7294   26.2881   46.2733 H   0  0  0  0  0  0  0  0  0  0  0  0
   58.6462   24.9249   46.3740 H   0  0  0  0  0  0  0  0  0  0  0  0
   55.4049   23.4158   46.6987 H   0  0  0  0  0  0  0  0  0  0  0  0
   54.2851   23.3231   45.2990 H   0  0  0  0  0  0  0  0  0  0  0  0
   56.9259   21.8108   45.6722 H   0  0  0  0  0  0  0  0  0  0  0  0
   55.2543   21.1228   45.6309 H   0  0  0  0  0  0  0  0  0  0  0  0
   57.8900   22.5900   43.8016 H   0  0  0  0  0  0  0  0  0  0  0  0
   57.0234   22.5222   42.2189 H   0  0  0  0  0  0  0  0  0  0  0  0
   57.1741   24.8467   43.1975 H   0  0  0  0  0  0  0  0  0  0  0  0
   55.4937   24.2845   42.9149 H   0  0  0  0  0  0  0  0  0  0  0  0
   56.4617   28.1261   44.4348 H   0  0  0  0  0  0  0  0  0  0  0  0
   57.6420   32.6316   47.1388 H   0  0  0  0  0  0  0  0  0  0  0  0
  1  2  1  0
  2  3  1  0
  3  4  2  0
  4  5  1  0
  5  6  1  0
  6  7  2  3
  7  8  1  0
  8  9  3  0
  7 10  1  0
 10 11  2  0
 10 12  1  0
 12 13  1  0
 13 14  2  0
 14 15  1  0
 15 16  2  0
 16 17  1  0
 17 18  1  0
 18 19  2  0
 18 20  1  0
 20 21  1  0
 21 22  1  0
 22 23  1  0
 23 24  1  0
 24 25  1  0
 17 26  2  0
  5 27  2  0
 27  2  1  0
 26 13  1  0
 25 20  1  0
  1 28  1  0
  1 29  1  0
  1 30  1  0
  3 31  1  0
  4 32  1  0
  6 33  1  0
 12 34  1  0
 14 35  1  0
 15 36  1  0
 16 37  1  0
 21 38  1  0
 21 39  1  0
 22 40  1  0
 22 41  1  0
 24 42  1  0
 24 43  1  0
 25 44  1  0
 25 45  1  0
 26 46  1  0
 27 47  1  0
M  END
>  <UniqueID>  (74) 
71

>  <SMILES>  (74) 
Cn1ccc(C=C(C#N)C(=O)Nc2cccc(C(=O)N3CCOCC3)c2)c1

>  <Energy>  (74) 
87.21775823014144

>  <Genealogy>  (74) 
Cn1ccc(C=C(C#N)C(=O)Nc2cccc(C(=O)N3CCOCC3)c2)c1 (3D coordinates assigned)
Cn1ccc(C=C(C#N)C(=O)Nc2cccc(C(=O)N3CCOCC3)c2)c1 (nonaromatic ring conformer: 87.21775823014144 kcal/mol)

>  <smiles>  (74) 
Cn1ccc(C=C(C#N)C(=O)Nc2cccc(C(=O)N3CCOCC3)c2)c1

>  <score_type>  (74) 
oracle

>  <origin>  (74) 
adg

>  <m_score__min__energy>  (74) 
-10

>  <m_primary>  (74) 
energy

$$$$
74:0
     RDKit          3D

 56 59  0  0  0  0  0  0  0  0999 V2000
   59.0020   29.1870   48.5190 C   0  0  0  0  0  0  0  0  0  0  0  0
   58.8380   27.8830   47.7440 C   0  0  0  0  0  0  0  0  0  0  0  0
   57.8250   28.0100   46.7430 O   0  0  0  0  0  0  0  0  0  0  0  0
   57.8050   27.3710   45.4890 C   0  0  0  0  0  0  0  0  0  0  0  0
   58.0650   28.1460   44.3530 C   0  0  0  0  0  0  0  0  0  0  0  0
   58.3580   29.5480   44.4740 N   0  0  0  0  0  0  0  0  0  0  0  0
   59.5020   29.9860   45.2840 C   0  0  0  0  0  0  0  0  0  0  0  0
   59.3750   31.4690   45.6390 C   0  0  0  0  0  0  0  0  0  0  0  0
   57.9640   31.7690   45.9230 N   0  0  0  0  0  0  0  0  0  0  0  0
   57.8110   33.3390   46.6710 S   0  0  0  0  0  0  0  0  0  0  0  0
   57.9230   34.4070   45.6180 O   0  0  0  0  0  0  0  0  0  0  0  0
   56.4540   33.4550   47.3100 O   0  0  0  0  0  0  0  0  0  0  0  0
   59.0520   33.5940   47.9000 C   0  0  0  0  0  0  0  0  0  0  0  0
   60.1730   34.3910   47.6220 C   0  0  0  0  0  0  0  0  0  0  0  0
   61.1570   34.5840   48.5960 C   0  0  0  0  0  0  0  0  0  0  0  0
   61.0270   33.9820   49.8510 C   0  0  0  0  0  0  0  0  0  0  0  0
   59.9120   33.1900   50.1330 C   0  0  0  0  0  0  0  0  0  0  0  0
   58.9250   32.9960   49.1630 C   0  0  0  0  0  0  0  0  0  0  0  0
   57.1340   31.6960   44.7010 C   0  0  0  0  0  0  0  0  0  0  0  0
   57.5550   30.5470   43.7590 C   0  0  0  0  0  0  0  0  0  0  0  0
   58.1140   27.5270   43.1050 C   0  0  0  0  0  0  0  0  0  0  0  0
   57.8730   26.1970   42.9990 N   0  0  0  0  0  0  0  0  0  0  0  0
   57.5780   25.4440   44.0670 N   0  0  0  0  0  0  0  0  0  0  0  0
   57.3100   24.0410   43.8710 C   0  0  0  0  0  0  0  0  0  0  0  0
   58.0630   23.0660   44.5470 C   0  0  0  0  0  0  0  0  0  0  0  0
   57.7860   21.7090   44.3640 C   0  0  0  0  0  0  0  0  0  0  0  0
   56.7540   21.3130   43.5090 C   0  0  0  0  0  0  0  0  0  0  0  0
   55.9940   22.2760   42.8390 C   0  0  0  0  0  0  0  0  0  0  0  0
   56.2670   23.6360   43.0210 C   0  0  0  0  0  0  0  0  0  0  0  0
   57.5410   25.9960   45.3220 C   0  0  0  0  0  0  0  0  0  0  0  0
   57.2690   25.2750   46.3190 O   0  0  0  0  0  0  0  0  0  0  0  0
   58.9757   28.9777   49.5986 H   0  0  0  0  0  0  0  0  0  0  0  0
   59.9654   29.6496   48.2586 H   0  0  0  0  0  0  0  0  0  0  0  0
   58.1832   29.8738   48.2586 H   0  0  0  0  0  0  0  0  0  0  0  0
   59.7927   27.6286   47.2604 H   0  0  0  0  0  0  0  0  0  0  0  0
   58.5411   27.0906   48.4469 H   0  0  0  0  0  0  0  0  0  0  0  0
   59.5364   29.3942   46.2106 H   0  0  0  0  0  0  0  0  0  0  0  0
   60.4245   29.8384   44.7034 H   0  0  0  0  0  0  0  0  0  0  0  0
   59.9859   31.6903   46.5266 H   0  0  0  0  0  0  0  0  0  0  0  0
   59.7265   32.0859   44.7988 H   0  0  0  0  0  0  0  0  0  0  0  0
   60.2777   34.8652   46.6350 H   0  0  0  0  0  0  0  0  0  0  0  0
   62.0341   35.2099   48.3748 H   0  0  0  0  0  0  0  0  0  0  0  0
   61.8028   34.1322   50.6162 H   0  0  0  0  0  0  0  0  0  0  0  0
   59.8104   32.7176   51.1212 H   0  0  0  0  0  0  0  0  0  0  0  0
   58.0470   32.3734   49.3899 H   0  0  0  0  0  0  0  0  0  0  0  0
   56.0858   31.5417   44.9969 H   0  0  0  0  0  0  0  0  0  0  0  0
   57.2686   32.6399   44.1525 H   0  0  0  0  0  0  0  0  0  0  0  0
   56.6529   30.0626   43.3570 H   0  0  0  0  0  0  0  0  0  0  0  0
   58.1627   30.9669   42.9439 H   0  0  0  0  0  0  0  0  0  0  0  0
   58.3480   28.1172   42.2067 H   0  0  0  0  0  0  0  0  0  0  0  0
   57.9010   25.7680   42.0440 H   0  0  0  0  0  0  0  0  0  0  0  0
   58.8744   23.3727   45.2235 H   0  0  0  0  0  0  0  0  0  0  0  0
   58.3813   20.9508   44.8939 H   0  0  0  0  0  0  0  0  0  0  0  0
   56.5398   20.2439   43.3633 H   0  0  0  0  0  0  0  0  0  0  0  0
   55.1802   21.9641   42.1678 H   0  0  0  0  0  0  0  0  0  0  0  0
   55.6629   24.3911   42.4967 H   0  0  0  0  0  0  0  0  0  0  0  0
  1  2  1  0
  2  3  1  0
  3  4  1  0
  4  5  2  0
  5  6  1  0
  6  7  1  0
  7  8  1  0
  8  9  1  0
  9 10  1  0
 10 11  2  0
 10 12  2  0
 10 13  1  0
 13 14  2  0
 14 15  1  0
 15 16  2  0
 16 17  1  0
 17 18  2  0
  9 19  1  0
 19 20  1  0
  5 21  1  0
 21 22  2  0
 22 23  1  0
 23 24  1  0
 24 25  2  0
 25 26  1  0
 26 27  2  0
 27 28  1  0
 28 29  2  0
 23 30  1  0
 30 31  2  0
 30  4  1  0
 20  6  1  0
 29 24  1  0
 18 13  1  0
  1 32  1  0
  1 33  1  0
  1 34  1  0
  2 35  1  0
  2 36  1  0
  7 37  1  0
  7 38  1  0
  8 39  1  0
  8 40  1  0
 14 41  1  0
 15 42  1  0
 16 43  1  0
 17 44  1  0
 18 45  1  0
 19 46  1  0
 19 47  1  0
 20 48  1  0
 20 49  1  0
 21 50  1  0
 22 51  1  0
 25 52  1  0
 26 53  1  0
 27 54  1  0
 28 55  1  0
 29 56  1  0
M  CHG  1  22   1
M  END
>  <UniqueID>  (75) 
72

>  <SMILES>  (75) 
CCOc1c(N2CCN(S(=O)(=O)c3ccccc3)CC2)c[nH+]n(-c2ccccc2)c1=O

>  <Energy>  (75) 
77.16087793402855

>  <Genealogy>  (75) 
CCOc1c(N2CCN(S(=O)(=O)c3ccccc3)CC2)c[nH+]n(-c2ccccc2)c1=O (protonated)
CCOc1c(N2CCN(S(=O)(=O)c3ccccc3)CC2)c[nH+]n(-c2ccccc2)c1=O (3D coordinates assigned)
CCOc1c(N2CCN(S(=O)(=O)c3ccccc3)CC2)c[nH+]n(-c2ccccc2)c1=O (nonaromatic ring conformer: 77.16087793402855 kcal/mol)

>  <smiles>  (75) 
CCOc1c(N2CCN(S(=O)(=O)c3ccccc3)CC2)cnn(-c2ccccc2)c1=O

>  <score_type>  (75) 
oracle

>  <origin>  (75) 
adg

>  <m_score__min__energy>  (75) 
-8.0299999999999994

>  <m_primary>  (75) 
energy

$$$$
75:0
     RDKit          3D

 79 83  0  0  0  0  0  0  0  0999 V2000
   58.4000   29.2580   52.9170 C   0  0  0  0  0  0  0  0  0  0  0  0
   58.7080   29.5320   51.5200 N   0  0  0  0  0  0  0  0  0  0  0  0
   59.8700   29.2540   50.8990 C   0  0  0  0  0  0  0  0  0  0  0  0
   59.7730   29.7120   49.6030 C   0  0  0  0  0  0  0  0  0  0  0  0
   60.8260   29.6430   48.5380 C   0  0  0  0  0  0  0  0  0  0  0  0
   61.6780   30.9270   48.4820 C   0  0  0  0  0  0  0  0  0  0  0  0
   61.5370   31.5890   47.1020 C   0  0  0  0  0  0  0  0  0  0  0  0
   62.3330   32.9010   47.0410 C   0  0  0  0  0  0  0  0  0  0  0  0
   61.9330   33.8450   48.1040 N   0  0  0  0  0  0  0  0  0  0  0  0
   60.6220   34.4950   47.8620 C   0  0  0  0  0  0  0  0  0  0  0  0
   60.3800   34.6550   46.3540 C   0  0  0  0  0  0  0  0  0  0  0  0
   58.8810   34.6790   45.9470 C   0  0  1  0  0  0  0  0  0  0  0  0
   58.6050   33.9460   44.6150 C   0  0  0  0  0  0  0  0  0  0  0  0
   58.8190   32.4240   44.7110 C   0  0  0  0  0  0  0  0  0  0  0  0
   58.4200   31.8250   46.0870 C   0  0  2  0  0  0  0  0  0  0  0  0
   57.8950   30.4610   45.9390 N   0  0  0  0  0  0  0  0  0  0  0  0
   58.7290   29.3620   45.5330 C   0  0  0  0  0  0  0  0  0  0  0  0
   59.9150   29.5810   45.1690 O   0  0  0  0  0  0  0  0  0  0  0  0
   58.2080   27.9730   45.5120 C   0  0  0  0  0  0  0  0  0  0  0  0
   58.2410   27.2290   44.3200 C   0  0  0  0  0  0  0  0  0  0  0  0
   57.7500   25.9210   44.2830 C   0  0  0  0  0  0  0  0  0  0  0  0
   57.2220   25.3230   45.4410 C   0  0  0  0  0  0  0  0  0  0  0  0
   56.6940   23.9340   45.4010 C   0  0  0  0  0  0  0  0  0  0  0  0
   55.4980   23.6060   46.0610 C   0  0  0  0  0  0  0  0  0  0  0  0
   54.9980   22.3010   46.0200 C   0  0  0  0  0  0  0  0  0  0  0  0
   55.6830   21.2950   45.3190 C   0  0  0  0  0  0  0  0  0  0  0  0
   55.1530   19.9110   45.2720 C   0  0  0  0  0  0  0  0  0  0  0  0
   53.7620   19.6610   45.4720 N   0  0  0  0  0  0  0  0  0  0  0  0
   55.9270   18.9390   45.0530 O   0  0  0  0  0  0  0  0  0  0  0  0
   56.8800   21.6230   44.6580 C   0  0  0  0  0  0  0  0  0  0  0  0
   57.3800   22.9280   44.6990 C   0  0  0  0  0  0  0  0  0  0  0  0
   57.2040   26.0600   46.6380 C   0  0  0  0  0  0  0  0  0  0  0  0
   57.6950   27.3700   46.6740 C   0  0  0  0  0  0  0  0  0  0  0  0
   57.3950   32.7200   46.8020 C   0  0  0  0  0  0  0  0  0  0  0  0
   57.9740   34.1200   47.0850 C   0  0  0  0  0  0  0  0  0  0  0  0
   62.0550   33.2450   49.4510 C   0  0  0  0  0  0  0  0  0  0  0  0
   61.2710   31.9260   49.5820 C   0  0  0  0  0  0  0  0  0  0  0  0
   58.5200   30.2890   49.5080 C   0  0  0  0  0  0  0  0  0  0  0  0
   57.8900   30.1700   50.6940 N   0  0  0  0  0  0  0  0  0  0  0  0
   59.0656   29.8502   53.5622 H   0  0  0  0  0  0  0  0  0  0  0  0
   57.3539   29.5295   53.1219 H   0  0  0  0  0  0  0  0  0  0  0  0
   58.5478   28.1874   53.1219 H   0  0  0  0  0  0  0  0  0  0  0  0
   60.7404   28.7515   51.3460 H   0  0  0  0  0  0  0  0  0  0  0  0
   61.4860   28.7880   48.7464 H   0  0  0  0  0  0  0  0  0  0  0  0
   60.3202   29.5290   47.5679 H   0  0  0  0  0  0  0  0  0  0  0  0
   62.7268   30.6425   48.6523 H   0  0  0  0  0  0  0  0  0  0  0  0
   61.9163   30.9012   46.3319 H   0  0  0  0  0  0  0  0  0  0  0  0
   60.4746   31.8134   46.9262 H   0  0  0  0  0  0  0  0  0  0  0  0
   63.4029   32.6720   47.1545 H   0  0  0  0  0  0  0  0  0  0  0  0
   62.1267   33.3769   46.0710 H   0  0  0  0  0  0  0  0  0  0  0  0
   59.8233   33.8743   48.2944 H   0  0  0  0  0  0  0  0  0  0  0  0
   60.6217   35.4890   48.3331 H   0  0  0  0  0  0  0  0  0  0  0  0
   60.8405   35.5998   46.0294 H   0  0  0  0  0  0  0  0  0  0  0  0
   60.8247   33.7741   45.8680 H   0  0  0  0  0  0  0  0  0  0  0  0
   58.6260   35.7367   45.7849 H   0  0  0  0  0  0  0  0  0  0  0  0
   59.2823   34.3476   43.8469 H   0  0  0  0  0  0  0  0  0  0  0  0
   57.5485   34.1145   44.3591 H   0  0  0  0  0  0  0  0  0  0  0  0
   59.8836   32.2108   44.5346 H   0  0  0  0  0  0  0  0  0  0  0  0
   58.1681   31.9588   43.9560 H   0  0  0  0  0  0  0  0  0  0  0  0
   59.3288   31.7782   46.7050 H   0  0  0  0  0  0  0  0  0  0  0  0
   56.8670   30.2970   46.0230 H   0  0  0  0  0  0  0  0  0  0  0  0
   58.6573   27.6806   43.4074 H   0  0  0  0  0  0  0  0  0  0  0  0
   57.7768   25.3547   43.3403 H   0  0  0  0  0  0  0  0  0  0  0  0
   54.9502   24.3826   46.6148 H   0  0  0  0  0  0  0  0  0  0  0  0
   54.0599   22.0600   46.5414 H   0  0  0  0  0  0  0  0  0  0  0  0
   53.0530   20.4100   45.3080 H   0  0  0  0  0  0  0  0  0  0  0  0
   57.4276   20.8463   44.1040 H   0  0  0  0  0  0  0  0  0  0  0  0
   58.3180   23.1694   44.1776 H   0  0  0  0  0  0  0  0  0  0  0  0
   56.8007   25.6033   47.5538 H   0  0  0  0  0  0  0  0  0  0  0  0
   57.6795   27.9326   47.6191 H   0  0  0  0  0  0  0  0  0  0  0  0
   57.1124   32.2498   47.7554 H   0  0  0  0  0  0  0  0  0  0  0  0
   56.5176   32.8331   46.1483 H   0  0  0  0  0  0  0  0  0  0  0  0
   58.5714   34.0662   48.0071 H   0  0  0  0  0  0  0  0  0  0  0  0
   57.1173   34.8046   47.1712 H   0  0  0  0  0  0  0  0  0  0  0  0
   63.1176   33.0454   49.6534 H   0  0  0  0  0  0  0  0  0  0  0  0
   61.6327   33.9582   50.1742 H   0  0  0  0  0  0  0  0  0  0  0  0
   61.4787   31.4809   50.5662 H   0  0  0  0  0  0  0  0  0  0  0  0
   60.1983   32.1452   49.4753 H   0  0  0  0  0  0  0  0  0  0  0  0
   58.1041   30.7680   48.6093 H   0  0  0  0  0  0  0  0  0  0  0  0
  1  2  1  0
  2  3  1  0
  3  4  2  0
  4  5  1  0
  5  6  1  0
  6  7  1  0
  7  8  1  0
  8  9  1  0
  9 10  1  0
 10 11  1  0
 11 12  1  0
 12 13  1  0
 13 14  1  0
 14 15  1  0
 15 16  1  0
 16 17  1  0
 17 18  2  0
 17 19  1  0
 19 20  2  0
 20 21  1  0
 21 22  2  0
 22 23  1  0
 23 24  2  0
 24 25  1  0
 25 26  2  0
 26 27  1  0
 27 28  1  0
 27 29  2  0
 26 30  1  0
 30 31  2  0
 22 32  1  0
 32 33  2  0
 15 34  1  0
 34 35  1  0
  9 36  1  0
 36 37  1  0
  4 38  1  0
 38 39  2  0
 39  2  1  0
 37  6  1  0
 35 12  1  0
 33 19  1  0
 31 23  1  0
  1 40  1  0
  1 41  1  0
  1 42  1  0
  3 43  1  0
  5 44  1  0
  5 45  1  0
  6 46  1  0
  7 47  1  0
  7 48  1  0
  8 49  1  0
  8 50  1  0
 10 51  1  0
 10 52  1  0
 11 53  1  0
 11 54  1  0
 12 55  1  6
 13 56  1  0
 13 57  1  0
 14 58  1  0
 14 59  1  0
 15 60  1  1
 16 61  1  0
 20 62  1  0
 21 63  1  0
 24 64  1  0
 25 65  1  0
 28 66  1  0
 30 67  1  0
 31 68  1  0
 32 69  1  0
 33 70  1  0
 34 71  1  0
 34 72  1  0
 35 73  1  0
 35 74  1  0
 36 75  1  0
 36 76  1  0
 37 77  1  0
 37 78  1  0
 38 79  1  0
M  CHG  1  28  -1
M  END
>  <UniqueID>  (76) 
73

>  <SMILES>  (76) 
Cn1cc(CC2CCN(CCC3CCC(NC(=O)c4ccc(-c5ccc(C([NH-])=O)cc5)cc4)CC3)CC2)cn1

>  <Energy>  (76) 
120.6565326060713

>  <Genealogy>  (76) 
Cn1cc(CC2CCN(CCC3CCC(NC(=O)c4ccc(-c5ccc(C([NH-])=O)cc5)cc4)CC3)CC2)cn1 (protonated)
Cn1cc(CC2CCN(CCC3CCC(NC(=O)c4ccc(-c5ccc(C([NH-])=O)cc5)cc4)CC3)CC2)cn1 (3D coordinates assigned)
Cn1cc(CC2CCN(CCC3CCC(NC(=O)c4ccc(-c5ccc(C([NH-])=O)cc5)cc4)CC3)CC2)cn1 (nonaromatic ring conformer: 120.6565326060713 kcal/mol)

>  <smiles>  (76) 
Cn1cc(CC2CCN(CCC3CCC(NC(=O)c4ccc(-c5ccc(C(N)=O)cc5)cc4)CC3)CC2)cn1

>  <score_type>  (76) 
oracle

>  <origin>  (76) 
adg

>  <m_score__min__energy>  (76) 
-11.98

>  <m_primary>  (76) 
energy

$$$$
76:0
     RDKit          3D

 51 52  0  0  0  0  0  0  0  0999 V2000
   57.4130   32.0320   51.6040 C   0  0  0  0  0  0  0  0  0  0  0  0
   58.1400   33.2420   52.1710 C   0  0  0  0  0  0  0  0  0  0  0  0
   59.1180   33.6880   51.2390 O   0  0  0  0  0  0  0  0  0  0  0  0
   59.6490   32.8630   50.2420 C   0  0  0  0  0  0  0  0  0  0  0  0
   60.2640   31.8050   50.5520 O   0  0  0  0  0  0  0  0  0  0  0  0
   59.4790   33.2470   48.8290 C   0  0  0  0  0  0  0  0  0  0  0  0
   59.6880   34.5030   48.3860 N   0  0  0  0  0  0  0  0  0  0  0  0
   59.4830   34.4980   47.0550 C   0  0  0  0  0  0  0  0  0  0  0  0
   59.6350   35.7120   46.1930 C   0  0  0  0  0  0  0  0  0  0  0  0
   59.1380   33.2240   46.6290 C   0  0  0  0  0  0  0  0  0  0  0  0
   58.8210   32.8040   45.2140 C   0  0  0  0  0  0  0  0  0  0  0  0
   57.3810   32.2970   45.0700 C   0  0  0  0  0  0  0  0  0  0  0  0
   57.3510   30.8400   44.7130 C   0  0  0  0  0  0  0  0  0  0  0  0
   56.3200   30.1600   44.9640 O   0  0  0  0  0  0  0  0  0  0  0  0
   58.5050   30.2160   44.1370 N   0  0  0  0  0  0  0  0  0  0  0  0
   58.6690   28.7630   44.1510 C   0  0  0  0  0  0  0  0  0  0  0  0
   59.0510   28.2510   45.5420 C   0  0  0  0  0  0  0  0  0  0  0  0
   58.1180   27.1680   46.0280 C   0  0  0  0  0  0  0  0  0  0  0  0
   58.6200   26.0720   46.7520 C   0  0  0  0  0  0  0  0  0  0  0  0
   57.7510   25.0820   47.2210 C   0  0  0  0  0  0  0  0  0  0  0  0
   56.3790   25.1780   46.9700 C   0  0  0  0  0  0  0  0  0  0  0  0
   55.8760   26.2490   46.2290 C   0  0  0  0  0  0  0  0  0  0  0  0
   54.5160   26.3320   45.9670 O   0  0  0  0  0  0  0  0  0  0  0  0
   56.7420   27.2410   45.7580 C   0  0  0  0  0  0  0  0  0  0  0  0
   59.1290   32.4220   47.7670 C   0  0  0  0  0  0  0  0  0  0  0  0
   58.8070   30.9570   47.8380 C   0  0  0  0  0  0  0  0  0  0  0  0
   57.0387   31.4090   52.4297 H   0  0  0  0  0  0  0  0  0  0  0  0
   56.5674   32.3686   50.9862 H   0  0  0  0  0  0  0  0  0  0  0  0
   58.1072   31.4435   50.9862 H   0  0  0  0  0  0  0  0  0  0  0  0
   57.4169   34.0495   52.3582 H   0  0  0  0  0  0  0  0  0  0  0  0
   58.6327   32.9645   53.1145 H   0  0  0  0  0  0  0  0  0  0  0  0
   59.9630   35.3270   48.9630 H   0  0  0  0  0  0  0  0  0  0  0  0
   59.7464   36.6021   46.8296 H   0  0  0  0  0  0  0  0  0  0  0  0
   60.5263   35.6015   45.5579 H   0  0  0  0  0  0  0  0  0  0  0  0
   58.7439   35.8247   45.5579 H   0  0  0  0  0  0  0  0  0  0  0  0
   58.9607   33.6683   44.5481 H   0  0  0  0  0  0  0  0  0  0  0  0
   59.4981   31.9794   44.9464 H   0  0  0  0  0  0  0  0  0  0  0  0
   56.8521   32.4436   46.0233 H   0  0  0  0  0  0  0  0  0  0  0  0
   56.8919   32.8630   44.2635 H   0  0  0  0  0  0  0  0  0  0  0  0
   59.2550   30.8290   43.7420 H   0  0  0  0  0  0  0  0  0  0  0  0
   57.7218   28.2942   43.8460 H   0  0  0  0  0  0  0  0  0  0  0  0
   59.4794   28.5021   43.4545 H   0  0  0  0  0  0  0  0  0  0  0  0
   60.0730   27.8462   45.5020 H   0  0  0  0  0  0  0  0  0  0  0  0
   58.9817   29.0957   46.2432 H   0  0  0  0  0  0  0  0  0  0  0  0
   59.6992   25.9933   46.9499 H   0  0  0  0  0  0  0  0  0  0  0  0
   58.1473   24.2268   47.7880 H   0  0  0  0  0  0  0  0  0  0  0  0
   55.6948   24.4085   47.3569 H   0  0  0  0  0  0  0  0  0  0  0  0
   56.3431   28.0828   45.1730 H   0  0  0  0  0  0  0  0  0  0  0  0
   58.7389   30.6472   48.8913 H   0  0  0  0  0  0  0  0  0  0  0  0
   57.8459   30.7681   47.3374 H   0  0  0  0  0  0  0  0  0  0  0  0
   59.6003   30.3825   47.3374 H   0  0  0  0  0  0  0  0  0  0  0  0
  1  2  1  0
  2  3  1  0
  3  4  1  0
  4  5  2  0
  4  6  1  0
  6  7  1  0
  7  8  1  0
  8  9  1  0
  8 10  2  0
 10 11  1  0
 11 12  1  0
 12 13  1  0
 13 14  2  0
 13 15  1  0
 15 16  1  0
 16 17  1  0
 17 18  1  0
 18 19  2  0
 19 20  1  0
 20 21  2  0
 21 22  1  0
 22 23  1  0
 22 24  2  0
 10 25  1  0
 25 26  1  0
 25  6  2  0
 24 18  1  0
  1 27  1  0
  1 28  1  0
  1 29  1  0
  2 30  1  0
  2 31  1  0
  7 32  1  0
  9 33  1  0
  9 34  1  0
  9 35  1  0
 11 36  1  0
 11 37  1  0
 12 38  1  0
 12 39  1  0
 15 40  1  0
 16 41  1  0
 16 42  1  0
 17 43  1  0
 17 44  1  0
 19 45  1  0
 20 46  1  0
 21 47  1  0
 24 48  1  0
 26 49  1  0
 26 50  1  0
 26 51  1  0
M  CHG  1  23  -1
M  END
>  <UniqueID>  (77) 
74

>  <SMILES>  (77) 
CCOC(=O)c1[nH]c(C)c(CCC(=O)NCCc2cccc([O-])c2)c1C

>  <Energy>  (77) 
55.639881342610124

>  <Genealogy>  (77) 
CCOC(=O)c1[nH]c(C)c(CCC(=O)NCCc2cccc([O-])c2)c1C (protonated)
CCOC(=O)c1[nH]c(C)c(CCC(=O)NCCc2cccc([O-])c2)c1C (3D coordinates assigned)
CCOC(=O)c1[nH]c(C)c(CCC(=O)NCCc2cccc([O-])c2)c1C (optimized conformer: 55.639881342610124 kcal/mol)

>  <smiles>  (77) 
CCOC(=O)c1[nH]c(C)c(CCC(=O)NCCc2cccc(O)c2)c1C

>  <score_type>  (77) 
oracle

>  <origin>  (77) 
adg

>  <m_score__min__energy>  (77) 
-11.550000000000001

>  <m_primary>  (77) 
energy

$$$$
77:0
     RDKit          3D

 49 51  0  0  0  0  0  0  0  0999 V2000
   56.7440   23.8380   43.4450 C   0  0  0  0  0  0  0  0  0  0  0  0
   57.6530   24.4010   44.5330 C   0  0  0  0  0  0  0  0  0  0  0  0
   57.5220   25.8650   44.6070 N   0  0  0  0  0  0  0  0  0  0  0  0
   58.1070   26.6300   43.6360 C   0  0  0  0  0  0  0  0  0  0  0  0
   57.9860   28.0200   43.6500 C   0  0  0  0  0  0  0  0  0  0  0  0
   57.2380   28.6420   44.6580 C   0  0  0  0  0  0  0  0  0  0  0  0
   57.1110   30.1140   44.6900 C   0  0  0  0  0  0  0  0  0  0  0  0
   55.9760   30.6340   44.5080 O   0  0  0  0  0  0  0  0  0  0  0  0
   58.2490   30.9610   44.9400 N   0  0  0  0  0  0  0  0  0  0  0  0
   59.0770   30.7630   46.1390 C   0  0  0  0  0  0  0  0  0  0  0  0
   59.8780   31.9020   46.4010 O   0  0  0  0  0  0  0  0  0  0  0  0
   59.0600   33.0600   46.4810 C   0  0  1  0  0  0  0  0  0  0  0  0
   59.8770   34.2290   47.0720 C   0  0  0  0  0  0  0  0  0  0  0  0
   61.2950   33.8500   47.4290 C   0  0  0  0  0  0  0  0  0  0  0  0
   61.6350   33.5400   48.7580 C   0  0  0  0  0  0  0  0  0  0  0  0
   62.9460   33.1820   49.0860 C   0  0  0  0  0  0  0  0  0  0  0  0
   63.9290   33.1340   48.0940 C   0  0  0  0  0  0  0  0  0  0  0  0
   63.6030   33.4490   46.7720 C   0  0  0  0  0  0  0  0  0  0  0  0
   62.2930   33.8080   46.4390 C   0  0  0  0  0  0  0  0  0  0  0  0
   58.4380   33.4100   45.0900 C   0  0  2  0  0  0  0  0  0  0  0  0
   57.0080   33.9450   45.2480 C   0  0  0  0  0  0  0  0  0  0  0  0
   58.4620   32.1810   44.1600 C   0  0  0  0  0  0  0  0  0  0  0  0
   56.6480   27.8480   45.6490 C   0  0  0  0  0  0  0  0  0  0  0  0
   56.7900   26.4570   45.6060 C   0  0  0  0  0  0  0  0  0  0  0  0
   56.2360   25.7600   46.5000 O   0  0  0  0  0  0  0  0  0  0  0  0
   55.8967   23.3132   43.9104 H   0  0  0  0  0  0  0  0  0  0  0  0
   56.3670   24.6610   42.8200 H   0  0  0  0  0  0  0  0  0  0  0  0
   57.3128   23.1339   42.8200 H   0  0  0  0  0  0  0  0  0  0  0  0
   57.3720   23.9629   45.5021 H   0  0  0  0  0  0  0  0  0  0  0  0
   58.6960   24.1487   44.2912 H   0  0  0  0  0  0  0  0  0  0  0  0
   58.6804   26.1431   42.8334 H   0  0  0  0  0  0  0  0  0  0  0  0
   58.4759   28.6249   42.8728 H   0  0  0  0  0  0  0  0  0  0  0  0
   58.4205   30.5795   47.0023 H   0  0  0  0  0  0  0  0  0  0  0  0
   59.7401   29.9024   45.9668 H   0  0  0  0  0  0  0  0  0  0  0  0
   58.2135   32.8618   47.1550 H   0  0  0  0  0  0  0  0  0  0  0  0
   59.9093   35.0414   46.3311 H   0  0  0  0  0  0  0  0  0  0  0  0
   59.3785   34.5352   48.0035 H   0  0  0  0  0  0  0  0  0  0  0  0
   60.8657   33.5794   49.5432 H   0  0  0  0  0  0  0  0  0  0  0  0
   63.2042   32.9376   50.1270 H   0  0  0  0  0  0  0  0  0  0  0  0
   64.9591   32.8484   48.3536 H   0  0  0  0  0  0  0  0  0  0  0  0
   64.3780   33.4145   45.9922 H   0  0  0  0  0  0  0  0  0  0  0  0
   62.0420   34.0587   45.3978 H   0  0  0  0  0  0  0  0  0  0  0  0
   59.0482   34.2021   44.6316 H   0  0  0  0  0  0  0  0  0  0  0  0
   56.7664   34.0354   46.3173 H   0  0  0  0  0  0  0  0  0  0  0  0
   56.9311   34.9327   44.7700 H   0  0  0  0  0  0  0  0  0  0  0  0
   56.3017   33.2503   44.7700 H   0  0  0  0  0  0  0  0  0  0  0  0
   57.6647   32.2770   43.4083 H   0  0  0  0  0  0  0  0  0  0  0  0
   59.4402   32.1246   43.6600 H   0  0  0  0  0  0  0  0  0  0  0  0
   56.0732   28.3177   46.4608 H   0  0  0  0  0  0  0  0  0  0  0  0
  1  2  1  0
  2  3  1  0
  3  4  1  0
  4  5  2  0
  5  6  1  0
  6  7  1  0
  7  8  2  0
  7  9  1  0
  9 10  1  0
 10 11  1  0
 11 12  1  0
 12 13  1  0
 13 14  1  0
 14 15  2  0
 15 16  1  0
 16 17  2  0
 17 18  1  0
 18 19  2  0
 12 20  1  0
 20 21  1  0
 20 22  1  0
  6 23  2  0
 23 24  1  0
 24 25  2  0
 24  3  1  0
 22  9  1  0
 19 14  1  0
  1 26  1  0
  1 27  1  0
  1 28  1  0
  2 29  1  0
  2 30  1  0
  4 31  1  0
  5 32  1  0
 10 33  1  0
 10 34  1  0
 12 35  1  1
 13 36  1  0
 13 37  1  0
 15 38  1  0
 16 39  1  0
 17 40  1  0
 18 41  1  0
 19 42  1  0
 20 43  1  6
 21 44  1  0
 21 45  1  0
 21 46  1  0
 22 47  1  0
 22 48  1  0
 23 49  1  0
M  END
>  <UniqueID>  (78) 
75

>  <SMILES>  (78) 
CCn1ccc(C(=O)N2CO[C@@H](Cc3ccccc3)[C@H](C)C2)cc1=O

>  <Energy>  (78) 
58.588252600073176

>  <Genealogy>  (78) 
CCn1ccc(C(=O)N2CO[C@@H](Cc3ccccc3)[C@H](C)C2)cc1=O (chirality)
CCn1ccc(C(=O)N2CO[C@@H](Cc3ccccc3)[C@H](C)C2)cc1=O (3D coordinates assigned)
CCn1ccc(C(=O)N2CO[C@@H](Cc3ccccc3)[C@H](C)C2)cc1=O (nonaromatic ring conformer: 58.588252600073176 kcal/mol)

>  <smiles>  (78) 
CCn1ccc(C(=O)N2COC(Cc3ccccc3)C(C)C2)cc1=O

>  <score_type>  (78) 
oracle

>  <origin>  (78) 
adg

>  <m_score__min__energy>  (78) 
-8.6300000000000008

>  <m_primary>  (78) 
energy

$$$$
78:0
     RDKit          3D

 56 59  0  0  0  0  0  0  0  0999 V2000
   57.0210   33.9620   45.0270 O   0  0  0  0  0  0  0  0  0  0  0  0
   57.7920   33.3110   45.7840 C   0  0  0  0  0  0  0  0  0  0  0  0
   58.1600   33.8790   47.1170 C   0  0  0  0  0  0  0  0  0  0  0  0
   59.1280   32.9640   47.8180 C   0  0  0  0  0  0  0  0  0  0  0  0
   60.5070   33.0610   47.5700 C   0  0  0  0  0  0  0  0  0  0  0  0
   61.4010   32.2220   48.2440 C   0  0  0  0  0  0  0  0  0  0  0  0
   60.9330   31.2960   49.1790 C   0  0  0  0  0  0  0  0  0  0  0  0
   59.5510   31.2010   49.4530 C   0  0  0  0  0  0  0  0  0  0  0  0
   59.0210   30.3150   50.4100 O   0  0  0  0  0  0  0  0  0  0  0  0
   59.0530   30.5020   51.8310 C   0  0  0  0  0  0  0  0  0  0  0  0
   58.2050   31.7350   52.1880 C   0  0  0  0  0  0  0  0  0  0  0  0
   56.7050   31.4850   51.9080 C   0  0  0  0  0  0  0  0  0  0  0  0
   56.3710   30.1140   51.7590 O   0  0  0  0  0  0  0  0  0  0  0  0
   56.9800   29.3410   52.7810 C   0  0  0  0  0  0  0  0  0  0  0  0
   58.5060   29.2500   52.5600 C   0  0  0  0  0  0  0  0  0  0  0  0
   58.6570   32.0300   48.7600 C   0  0  0  0  0  0  0  0  0  0  0  0
   58.2570   32.0080   45.4110 N   0  0  0  0  0  0  0  0  0  0  0  0
   57.6250   31.1210   44.4750 C   0  0  0  0  0  0  0  0  0  0  0  0
   57.3920   31.5780   43.1710 C   0  0  0  0  0  0  0  0  0  0  0  0
   56.7720   30.7470   42.2400 C   0  0  0  0  0  0  0  0  0  0  0  0
   56.3810   29.4610   42.6240 C   0  0  0  0  0  0  0  0  0  0  0  0
   56.5850   29.0310   43.9010 N   0  0  0  0  0  0  0  0  0  0  0  0
   57.1710   29.8330   44.8420 C   0  0  0  0  0  0  0  0  0  0  0  0
   57.2640   29.4150   46.1790 O   0  0  0  0  0  0  0  0  0  0  0  0
   58.1410   28.4190   46.6170 C   0  0  0  0  0  0  0  0  0  0  0  0
   59.4500   28.7760   46.9660 C   0  0  0  0  0  0  0  0  0  0  0  0
   60.3640   27.8030   47.3820 C   0  0  0  0  0  0  0  0  0  0  0  0
   59.9640   26.4680   47.4620 C   0  0  0  0  0  0  0  0  0  0  0  0
   58.6610   26.1010   47.1280 C   0  0  0  0  0  0  0  0  0  0  0  0
   57.7300   27.0680   46.7070 C   0  0  0  0  0  0  0  0  0  0  0  0
   56.3530   26.6500   46.3420 C   0  0  0  0  0  0  0  0  0  0  0  0
   55.9100   25.5310   46.7130 O   0  0  0  0  0  0  0  0  0  0  0  0
   55.5250   27.4790   45.5950 O   0  0  0  0  0  0  0  0  0  0  0  0
   58.6275   34.8647   46.9763 H   0  0  0  0  0  0  0  0  0  0  0  0
   57.2517   33.9804   47.7291 H   0  0  0  0  0  0  0  0  0  0  0  0
   60.8845   33.7973   46.8452 H   0  0  0  0  0  0  0  0  0  0  0  0
   62.4789   32.2921   48.0363 H   0  0  0  0  0  0  0  0  0  0  0  0
   61.6427   30.6391   49.7032 H   0  0  0  0  0  0  0  0  0  0  0  0
   60.0929   30.6562   52.1546 H   0  0  0  0  0  0  0  0  0  0  0  0
   58.3370   31.9638   53.2558 H   0  0  0  0  0  0  0  0  0  0  0  0
   58.5387   32.5782   51.5654 H   0  0  0  0  0  0  0  0  0  0  0  0
   56.1227   31.8947   52.7465 H   0  0  0  0  0  0  0  0  0  0  0  0
   56.4710   31.9774   50.9526 H   0  0  0  0  0  0  0  0  0  0  0  0
   56.7836   29.8118   53.7555 H   0  0  0  0  0  0  0  0  0  0  0  0
   56.5576   28.3256   52.7560 H   0  0  0  0  0  0  0  0  0  0  0  0
   59.0033   29.1603   53.5371 H   0  0  0  0  0  0  0  0  0  0  0  0
   58.7105   28.3701   51.9323 H   0  0  0  0  0  0  0  0  0  0  0  0
   57.5773   31.9496   48.9544 H   0  0  0  0  0  0  0  0  0  0  0  0
   57.6989   32.5940   42.8819 H   0  0  0  0  0  0  0  0  0  0  0  0
   56.5921   31.0993   41.2136 H   0  0  0  0  0  0  0  0  0  0  0  0
   55.9059   28.7922   41.8912 H   0  0  0  0  0  0  0  0  0  0  0  0
   56.2430   28.0730   44.1550 H   0  0  0  0  0  0  0  0  0  0  0  0
   59.7611   29.8297   46.9124 H   0  0  0  0  0  0  0  0  0  0  0  0
   61.3933   28.0882   47.6450 H   0  0  0  0  0  0  0  0  0  0  0  0
   60.6809   25.7011   47.7905 H   0  0  0  0  0  0  0  0  0  0  0  0
   58.3582   25.0456   47.1943 H   0  0  0  0  0  0  0  0  0  0  0  0
  1  2  2  0
  2  3  1  0
  3  4  1  0
  4  5  2  0
  5  6  1  0
  6  7  2  0
  7  8  1  0
  8  9  1  0
  9 10  1  0
 10 11  1  0
 11 12  1  0
 12 13  1  0
 13 14  1  0
 14 15  1  0
  8 16  2  0
  2 17  1  0
 17 18  1  0
 18 19  2  0
 19 20  1  0
 20 21  2  0
 21 22  1  0
 22 23  2  0
 23 24  1  0
 24 25  1  0
 25 26  2  0
 26 27  1  0
 27 28  2  0
 28 29  1  0
 29 30  2  0
 30 31  1  0
 31 32  2  0
 31 33  1  0
 16  4  1  0
 23 18  1  0
 30 25  1  0
 15 10  1  0
  3 34  1  0
  3 35  1  0
  5 36  1  0
  6 37  1  0
  7 38  1  0
 10 39  1  0
 11 40  1  0
 11 41  1  0
 12 42  1  0
 12 43  1  0
 14 44  1  0
 14 45  1  0
 15 46  1  0
 15 47  1  0
 16 48  1  0
 19 49  1  0
 20 50  1  0
 21 51  1  0
 22 52  1  0
 26 53  1  0
 27 54  1  0
 28 55  1  0
 29 56  1  0
M  CHG  3  17  -1  22   1  33  -1
M  END
>  <UniqueID>  (79) 
76

>  <SMILES>  (79) 
O=C(Cc1cccc(OC2CCOCC2)c1)[N-]c1ccc[nH+]c1Oc1ccccc1C(=O)[O-]

>  <Energy>  (79) 
80.66102922369413

>  <Genealogy>  (79) 
O=C(Cc1cccc(OC2CCOCC2)c1)[N-]c1ccc[nH+]c1Oc1ccccc1C(=O)[O-] (protonated)
O=C(Cc1cccc(OC2CCOCC2)c1)[N-]c1ccc[nH+]c1Oc1ccccc1C(=O)[O-] (3D coordinates assigned)
O=C(Cc1cccc(OC2CCOCC2)c1)[N-]c1ccc[nH+]c1Oc1ccccc1C(=O)[O-] (nonaromatic ring conformer: 80.66102922369413 kcal/mol)

>  <smiles>  (79) 
O=C(Cc1cccc(OC2CCOCC2)c1)Nc1cccnc1Oc1ccccc1C(=O)O

>  <score_type>  (79) 
oracle

>  <origin>  (79) 
adg

>  <m_score__min__energy>  (79) 
-11.539999999999999

>  <m_primary>  (79) 
energy

$$$$
79:0
     RDKit          3D

 39 41  0  0  0  0  0  0  0  0999 V2000
   57.4370   32.2230   45.7020 C   0  0  0  0  0  0  0  0  0  0  0  0
   57.7880   30.9380   45.6600 C   0  0  0  0  0  0  0  0  0  0  0  0
   56.9830   29.9880   45.1300 N   0  0  0  0  0  0  0  0  0  0  0  0
   57.6730   28.8370   45.2820 C   0  0  0  0  0  0  0  0  0  0  0  0
   57.2530   27.6320   44.8730 C   0  0  0  0  0  0  0  0  0  0  0  0
   57.2020   26.4440   45.7570 C   0  0  0  0  0  0  0  0  0  0  0  0
   55.9710   26.0160   46.2790 C   0  0  0  0  0  0  0  0  0  0  0  0
   54.8000   26.7110   45.9950 O   0  0  0  0  0  0  0  0  0  0  0  0
   55.9150   24.9190   47.0780 N   0  0  0  0  0  0  0  0  0  0  0  0
   57.0340   24.2120   47.3760 C   0  0  0  0  0  0  0  0  0  0  0  0
   56.9580   23.2030   48.1250 O   0  0  0  0  0  0  0  0  0  0  0  0
   58.2330   24.5880   46.8650 N   0  0  0  0  0  0  0  0  0  0  0  0
   58.3430   25.6750   46.0580 C   0  0  0  0  0  0  0  0  0  0  0  0
   59.4670   25.9640   45.5680 O   0  0  0  0  0  0  0  0  0  0  0  0
   58.8780   29.1170   45.8890 C   0  0  0  0  0  0  0  0  0  0  0  0
   59.7740   28.2800   46.1850 O   0  0  0  0  0  0  0  0  0  0  0  0
   58.9620   30.4380   46.1290 N   0  0  0  0  0  0  0  0  0  0  0  0
   60.0520   31.1380   46.8170 C   0  0  0  0  0  0  0  0  0  0  0  0
   59.5840   31.6590   48.1490 C   0  0  0  0  0  0  0  0  0  0  0  0
   58.8890   30.8250   49.0400 C   0  0  0  0  0  0  0  0  0  0  0  0
   58.4710   31.3110   50.2820 C   0  0  0  0  0  0  0  0  0  0  0  0
   58.7450   32.6340   50.6500 C   0  0  0  0  0  0  0  0  0  0  0  0
   58.2040   33.2510   52.2080 S   0  0  0  0  0  0  0  0  0  0  0  0
   58.5210   34.9470   52.3050 N   0  0  0  0  0  0  0  0  0  0  0  0
   58.9290   32.5410   53.3160 O   0  0  0  0  0  0  0  0  0  0  0  0
   56.7290   33.0070   52.3670 O   0  0  0  0  0  0  0  0  0  0  0  0
   59.4280   33.4720   49.7610 C   0  0  0  0  0  0  0  0  0  0  0  0
   59.8470   32.9880   48.5180 C   0  0  0  0  0  0  0  0  0  0  0  0
   58.1195   32.9655   46.1412 H   0  0  0  0  0  0  0  0  0  0  0  0
   56.4648   32.5411   45.2974 H   0  0  0  0  0  0  0  0  0  0  0  0
   56.9296   27.5191   43.8277 H   0  0  0  0  0  0  0  0  0  0  0  0
   60.8881   30.4407   46.9742 H   0  0  0  0  0  0  0  0  0  0  0  0
   60.3781   31.9862   46.1972 H   0  0  0  0  0  0  0  0  0  0  0  0
   58.6725   29.7838   48.7589 H   0  0  0  0  0  0  0  0  0  0  0  0
   57.9248   30.6519   50.9729 H   0  0  0  0  0  0  0  0  0  0  0  0
   57.6020   35.4210   52.4490 H   0  0  0  0  0  0  0  0  0  0  0  0
   58.8700   35.2450   51.3660 H   0  0  0  0  0  0  0  0  0  0  0  0
   59.6359   34.5152   50.0413 H   0  0  0  0  0  0  0  0  0  0  0  0
   60.3855   33.6518   47.8256 H   0  0  0  0  0  0  0  0  0  0  0  0
  1  2  2  0
  2  3  1  0
  3  4  1  0
  4  5  2  3
  5  6  1  0
  6  7  2  0
  7  8  1  0
  7  9  1  0
  9 10  1  0
 10 11  2  0
 10 12  1  0
 12 13  1  0
 13 14  2  0
  4 15  1  0
 15 16  2  0
 15 17  1  0
 17 18  1  0
 18 19  1  0
 19 20  2  0
 20 21  1  0
 21 22  2  0
 22 23  1  0
 23 24  1  0
 23 25  2  0
 23 26  2  0
 22 27  1  0
 27 28  2  0
 17  2  1  0
 28 19  1  0
 13  6  1  0
  1 29  1  0
  1 30  1  0
  5 31  1  0
 18 32  1  0
 18 33  1  0
 20 34  1  0
 21 35  1  0
 24 36  1  0
 24 37  1  0
 27 38  1  0
 28 39  1  0
M  CHG  4   3  -1   8  -1   9  -1  12  -1
M  END
>  <UniqueID>  (80) 
77

>  <SMILES>  (80) 
C=c1[n-]c(=Cc2c([O-])[n-]c(=O)[n-]c2=O)c(=O)n1Cc1ccc(S(N)(=O)=O)cc1

>  <Energy>  (80) 
80.55857871246562

>  <Genealogy>  (80) 
C=c1[n-]c(=Cc2c([O-])[n-]c(=O)[n-]c2=O)c(=O)n1Cc1ccc(S(N)(=O)=O)cc1 (protonated)
C=c1[n-]c(=Cc2c([O-])[n-]c(=O)[n-]c2=O)c(=O)n1Cc1ccc(S(N)(=O)=O)cc1 (3D coordinates assigned)
C=c1[n-]c(=Cc2c([O-])[n-]c(=O)[n-]c2=O)c(=O)n1Cc1ccc(S(N)(=O)=O)cc1 (optimized conformer: 80.55857871246562 kcal/mol)

>  <smiles>  (80) 
C=c1[nH]c(=Cc2c(O)[nH]c(=O)[nH]c2=O)c(=O)n1Cc1ccc(S(N)(=O)=O)cc1

>  <score_type>  (80) 
oracle

>  <origin>  (80) 
adg

>  <m_score__min__energy>  (80) 
-16.41

>  <m_primary>  (80) 
energy

$$$$
80:0
     RDKit          3D

 46 48  0  0  0  0  0  0  0  0999 V2000
   57.2050   25.6330   44.5240 N   0  0  0  0  0  0  0  0  0  0  0  0
   56.7570   26.8640   45.6510 S   0  0  0  0  0  0  0  0  0  0  0  0
   57.5670   26.7090   46.9080 O   0  0  0  0  0  0  0  0  0  0  0  0
   55.3010   26.7240   45.9960 O   0  0  0  0  0  0  0  0  0  0  0  0
   57.0450   28.4490   44.9390 C   0  0  0  0  0  0  0  0  0  0  0  0
   55.9740   29.3160   44.6780 C   0  0  0  0  0  0  0  0  0  0  0  0
   56.2100   30.5790   44.1280 C   0  0  0  0  0  0  0  0  0  0  0  0
   57.5210   30.9920   43.8370 C   0  0  0  0  0  0  0  0  0  0  0  0
   57.7690   32.3640   43.2730 C   0  0  0  0  0  0  0  0  0  0  0  0
   58.3400   33.2340   44.2950 N   0  0  0  0  0  0  0  0  0  0  0  0
   57.8880   33.2660   45.6550 C   0  0  0  0  0  0  0  0  0  0  0  0
   56.7430   33.7200   45.9230 O   0  0  0  0  0  0  0  0  0  0  0  0
   58.7410   32.7770   46.7080 N   0  0  0  0  0  0  0  0  0  0  0  0
   58.3230   32.8590   48.1170 C   0  0  0  0  0  0  0  0  0  0  0  0
   59.5050   33.2770   49.0010 C   0  0  0  0  0  0  0  0  0  0  0  0
   60.7380   32.5520   48.6550 N   0  0  0  0  0  0  0  0  0  0  0  0
   61.9380   32.8210   49.4130 C   0  0  0  0  0  0  0  0  0  0  0  0
   61.8580   33.4300   50.5160 O   0  0  0  0  0  0  0  0  0  0  0  0
   63.2930   32.3790   48.9330 C   0  0  0  0  0  0  0  0  0  0  0  0
   64.3900   33.4290   49.0410 C   0  0  0  0  0  0  0  0  0  0  0  0
   63.7860   33.1030   47.6890 C   0  0  0  0  0  0  0  0  0  0  0  0
   60.7020   31.5360   47.5920 C   0  0  0  0  0  0  0  0  0  0  0  0
   60.0020   32.1060   46.3560 C   0  0  0  0  0  0  0  0  0  0  0  0
   58.5910   30.1270   44.1120 C   0  0  0  0  0  0  0  0  0  0  0  0
   58.3530   28.8630   44.6610 C   0  0  0  0  0  0  0  0  0  0  0  0
   56.5390   24.8380   44.6580 H   0  0  0  0  0  0  0  0  0  0  0  0
   57.0290   26.0140   43.5690 H   0  0  0  0  0  0  0  0  0  0  0  0
   54.9452   29.0011   44.9068 H   0  0  0  0  0  0  0  0  0  0  0  0
   55.3653   31.2529   43.9220 H   0  0  0  0  0  0  0  0  0  0  0  0
   58.4692   32.2882   42.4280 H   0  0  0  0  0  0  0  0  0  0  0  0
   56.8136   32.7898   42.9326 H   0  0  0  0  0  0  0  0  0  0  0  0
   57.5174   33.6018   48.2136 H   0  0  0  0  0  0  0  0  0  0  0  0
   57.9660   31.8705   48.4418 H   0  0  0  0  0  0  0  0  0  0  0  0
   59.6798   34.3555   48.8730 H   0  0  0  0  0  0  0  0  0  0  0  0
   59.2508   33.0351   50.0435 H   0  0  0  0  0  0  0  0  0  0  0  0
   63.1896   31.3280   49.2409 H   0  0  0  0  0  0  0  0  0  0  0  0
   64.1791   34.3974   49.5183 H   0  0  0  0  0  0  0  0  0  0  0  0
   65.4100   33.4480   49.4525 H   0  0  0  0  0  0  0  0  0  0  0  0
   63.1373   33.8352   47.1859 H   0  0  0  0  0  0  0  0  0  0  0  0
   64.1872   32.7879   46.7144 H   0  0  0  0  0  0  0  0  0  0  0  0
   61.7299   31.2459   47.3287 H   0  0  0  0  0  0  0  0  0  0  0  0
   60.1491   30.6548   47.9494 H   0  0  0  0  0  0  0  0  0  0  0  0
   60.6699   32.8332   45.8712 H   0  0  0  0  0  0  0  0  0  0  0  0
   59.7698   31.2720   45.6773 H   0  0  0  0  0  0  0  0  0  0  0  0
   59.6216   30.4445   43.8948 H   0  0  0  0  0  0  0  0  0  0  0  0
   59.1973   28.1912   44.8753 H   0  0  0  0  0  0  0  0  0  0  0  0
  1  2  1  0
  2  3  2  0
  2  4  2  0
  2  5  1  0
  5  6  2  0
  6  7  1  0
  7  8  2  0
  8  9  1  0
  9 10  1  0
 10 11  1  0
 11 12  2  0
 11 13  1  0
 13 14  1  0
 14 15  1  0
 15 16  1  0
 16 17  1  0
 17 18  2  0
 17 19  1  0
 19 20  1  0
 20 21  1  0
 16 22  1  0
 22 23  1  0
  8 24  1  0
 24 25  2  0
 25  5  1  0
 23 13  1  0
 21 19  1  0
  1 26  1  0
  1 27  1  0
  6 28  1  0
  7 29  1  0
  9 30  1  0
  9 31  1  0
 14 32  1  0
 14 33  1  0
 15 34  1  0
 15 35  1  0
 19 36  1  0
 20 37  1  0
 20 38  1  0
 21 39  1  0
 21 40  1  0
 22 41  1  0
 22 42  1  0
 23 43  1  0
 23 44  1  0
 24 45  1  0
 25 46  1  0
M  CHG  1  10  -1
M  END
>  <UniqueID>  (81) 
78

>  <SMILES>  (81) 
NS(=O)(=O)c1ccc(C[N-]C(=O)N2CCN(C(=O)C3CC3)CC2)cc1

>  <Energy>  (81) 
305.3259837810553

>  <Genealogy>  (81) 
NS(=O)(=O)c1ccc(C[N-]C(=O)N2CCN(C(=O)C3CC3)CC2)cc1 (protonated)
NS(=O)(=O)c1ccc(C[N-]C(=O)N2CCN(C(=O)C3CC3)CC2)cc1 (3D coordinates assigned)
NS(=O)(=O)c1ccc(C[N-]C(=O)N2CCN(C(=O)C3CC3)CC2)cc1 (nonaromatic ring conformer: 305.3259837810553 kcal/mol)

>  <smiles>  (81) 
NS(=O)(=O)c1ccc(CNC(=O)N2CCN(C(=O)C3CC3)CC2)cc1

>  <score_type>  (81) 
oracle

>  <origin>  (81) 
adg

>  <m_score__min__energy>  (81) 
-9.7400000000000002

>  <m_primary>  (81) 
energy

$$$$
81:0
     RDKit          3D

 43 45  0  0  0  0  0  0  0  0999 V2000
   57.3190   23.9340   44.6190 C   0  0  0  0  0  0  0  0  0  0  0  0
   57.2510   25.3950   44.5790 N   0  0  0  0  0  0  0  0  0  0  0  0
   57.7920   26.1460   43.4420 C   0  0  0  0  0  0  0  0  0  0  0  0
   58.4360   27.4540   43.9210 C   0  0  0  0  0  0  0  0  0  0  0  0
   57.5040   28.2420   44.8220 C   0  0  0  0  0  0  0  0  0  0  0  0
   57.6060   29.7250   44.8710 C   0  0  0  0  0  0  0  0  0  0  0  0
   57.2810   30.5070   43.7470 C   0  0  0  0  0  0  0  0  0  0  0  0
   57.3850   31.9000   43.7950 C   0  0  0  0  0  0  0  0  0  0  0  0
   57.8290   32.5390   44.9640 C   0  0  0  0  0  0  0  0  0  0  0  0
   57.9070   33.9780   45.0240 N   0  0  0  0  0  0  0  0  0  0  0  0
   59.3080   34.4110   44.9220 C   0  0  0  0  0  0  0  0  0  0  0  0
   59.9850   34.3250   46.2660 C   0  0  0  0  0  0  0  0  0  0  0  0
   61.2990   33.8380   46.3670 C   0  0  0  0  0  0  0  0  0  0  0  0
   61.9130   33.7260   47.6180 C   0  0  0  0  0  0  0  0  0  0  0  0
   61.2170   34.0870   48.7750 C   0  0  0  0  0  0  0  0  0  0  0  0
   59.9050   34.5580   48.6840 C   0  0  0  0  0  0  0  0  0  0  0  0
   59.2870   34.6720   47.4340 C   0  0  0  0  0  0  0  0  0  0  0  0
   58.1470   31.7620   46.0900 C   0  0  0  0  0  0  0  0  0  0  0  0
   58.0440   30.3700   46.0420 C   0  0  0  0  0  0  0  0  0  0  0  0
   56.6750   27.5890   45.6580 C   0  0  0  0  0  0  0  0  0  0  0  0
   56.5810   26.1220   45.6230 C   0  0  0  0  0  0  0  0  0  0  0  0
   55.9180   25.5160   46.5070 O   0  0  0  0  0  0  0  0  0  0  0  0
   57.3347   23.5962   45.6657 H   0  0  0  0  0  0  0  0  0  0  0  0
   56.4395   23.5119   44.1107 H   0  0  0  0  0  0  0  0  0  0  0  0
   58.2339   23.5955   44.1107 H   0  0  0  0  0  0  0  0  0  0  0  0
   58.5507   25.5343   42.9319 H   0  0  0  0  0  0  0  0  0  0  0  0
   56.9710   26.3855   42.7502 H   0  0  0  0  0  0  0  0  0  0  0  0
   59.3539   27.2160   44.4786 H   0  0  0  0  0  0  0  0  0  0  0  0
   58.6597   28.0695   43.0372 H   0  0  0  0  0  0  0  0  0  0  0  0
   56.9420   30.0174   42.8221 H   0  0  0  0  0  0  0  0  0  0  0  0
   57.1175   32.4991   42.9121 H   0  0  0  0  0  0  0  0  0  0  0  0
   57.3500   34.3940   44.2420 H   0  0  0  0  0  0  0  0  0  0  0  0
   57.4980   34.3160   45.9270 H   0  0  0  0  0  0  0  0  0  0  0  0
   59.8366   33.7623   44.2080 H   0  0  0  0  0  0  0  0  0  0  0  0
   59.3340   35.4549   44.5761 H   0  0  0  0  0  0  0  0  0  0  0  0
   61.8462   33.5440   45.4592 H   0  0  0  0  0  0  0  0  0  0  0  0
   62.9453   33.3533   47.6918 H   0  0  0  0  0  0  0  0  0  0  0  0
   61.7027   34.0002   49.7581 H   0  0  0  0  0  0  0  0  0  0  0  0
   59.3575   34.8394   49.5956 H   0  0  0  0  0  0  0  0  0  0  0  0
   58.2508   35.0347   47.3659 H   0  0  0  0  0  0  0  0  0  0  0  0
   58.4796   32.2533   47.0163 H   0  0  0  0  0  0  0  0  0  0  0  0
   58.3076   29.7729   46.9274 H   0  0  0  0  0  0  0  0  0  0  0  0
   56.0628   28.1578   46.3733 H   0  0  0  0  0  0  0  0  0  0  0  0
  1  2  1  0
  2  3  1  0
  3  4  1  0
  4  5  1  0
  5  6  1  0
  6  7  2  0
  7  8  1  0
  8  9  2  0
  9 10  1  0
 10 11  1  0
 11 12  1  0
 12 13  2  0
 13 14  1  0
 14 15  2  0
 15 16  1  0
 16 17  2  0
  9 18  1  0
 18 19  2  0
  5 20  2  0
 20 21  1  0
 21 22  2  0
 21  2  1  0
 19  6  1  0
 17 12  1  0
  1 23  1  0
  1 24  1  0
  1 25  1  0
  3 26  1  0
  3 27  1  0
  4 28  1  0
  4 29  1  0
  7 30  1  0
  8 31  1  0
 10 32  1  0
 10 33  1  0
 11 34  1  0
 11 35  1  0
 13 36  1  0
 14 37  1  0
 15 38  1  0
 16 39  1  0
 17 40  1  0
 18 41  1  0
 19 42  1  0
 20 43  1  0
M  CHG  1  10   1
M  END
>  <UniqueID>  (82) 
79

>  <SMILES>  (82) 
CN1CCC(c2ccc([NH2+]Cc3ccccc3)cc2)=CC1=O

>  <Energy>  (82) 
46.57896710353865

>  <Genealogy>  (82) 
CN1CCC(c2ccc([NH2+]Cc3ccccc3)cc2)=CC1=O (protonated)
CN1CCC(c2ccc([NH2+]Cc3ccccc3)cc2)=CC1=O (3D coordinates assigned)
CN1CCC(c2ccc([NH2+]Cc3ccccc3)cc2)=CC1=O (nonaromatic ring conformer: 46.57896710353865 kcal/mol)

>  <smiles>  (82) 
CN1CCC(c2ccc(NCc3ccccc3)cc2)=CC1=O

>  <score_type>  (82) 
oracle

>  <origin>  (82) 
adg

>  <m_score__min__energy>  (82) 
-6.25

>  <m_primary>  (82) 
energy

$$$$
82:0
     RDKit          3D

 52 55  0  0  0  0  0  0  0  0999 V2000
   59.3000   35.3200   46.7780 C   0  0  0  0  0  0  0  0  0  0  0  0
   58.8930   34.2170   45.8490 C   0  0  0  0  0  0  0  0  0  0  0  0
   59.0550   34.2490   44.4770 C   0  0  0  0  0  0  0  0  0  0  0  0
   58.5310   33.0690   43.9940 C   0  0  0  0  0  0  0  0  0  0  0  0
   58.0710   32.3580   45.0890 C   0  0  0  0  0  0  0  0  0  0  0  0
   57.4300   31.0270   45.0050 C   0  0  0  0  0  0  0  0  0  0  0  0
   56.2070   30.9410   44.7180 O   0  0  0  0  0  0  0  0  0  0  0  0
   58.1660   29.8290   45.3090 N   0  0  0  0  0  0  0  0  0  0  0  0
   59.5090   29.6120   44.7670 C   0  0  0  0  0  0  0  0  0  0  0  0
   60.4340   28.9950   45.8330 C   0  0  0  0  0  0  0  0  0  0  0  0
   59.7480   28.0590   46.7710 N   0  0  0  0  0  0  0  0  0  0  0  0
   59.6210   28.6360   48.0980 C   0  0  0  0  0  0  0  0  0  0  0  0
   58.5200   28.9280   48.5470 O   0  0  0  0  0  0  0  0  0  0  0  0
   60.8530   28.9700   48.9030 C   0  0  0  0  0  0  0  0  0  0  0  0
   60.6160   29.6920   50.2210 C   0  0  0  0  0  0  0  0  0  0  0  0
   60.9550   28.2130   50.2200 C   0  0  0  0  0  0  0  0  0  0  0  0
   58.4450   27.5620   46.2700 C   0  0  0  0  0  0  0  0  0  0  0  0
   57.4680   28.7020   45.9340 C   0  0  0  0  0  0  0  0  0  0  0  0
   58.3090   33.0570   46.2290 N   0  0  0  0  0  0  0  0  0  0  0  0
   57.8780   32.7130   47.5900 C   0  0  0  0  0  0  0  0  0  0  0  0
   58.9370   31.8510   48.2790 C   0  0  0  0  0  0  0  0  0  0  0  0
   60.3030   32.4260   48.0730 C   0  0  0  0  0  0  0  0  0  0  0  0
   61.2280   32.0100   47.1230 C   0  0  0  0  0  0  0  0  0  0  0  0
   62.4470   32.6910   47.2100 C   0  0  0  0  0  0  0  0  0  0  0  0
   62.4880   33.6340   48.2310 C   0  0  0  0  0  0  0  0  0  0  0  0
   61.0080   33.6170   49.0280 S   0  0  0  0  0  0  0  0  0  0  0  0
   59.1770   34.9867   47.8190 H   0  0  0  0  0  0  0  0  0  0  0  0
   60.3535   35.5806   46.5985 H   0  0  0  0  0  0  0  0  0  0  0  0
   58.6683   36.2024   46.5985 H   0  0  0  0  0  0  0  0  0  0  0  0
   59.5120   35.0569   43.8867 H   0  0  0  0  0  0  0  0  0  0  0  0
   58.4869   32.7532   42.9412 H   0  0  0  0  0  0  0  0  0  0  0  0
   59.4450   28.9301   43.9062 H   0  0  0  0  0  0  0  0  0  0  0  0
   59.9255   30.5815   44.4562 H   0  0  0  0  0  0  0  0  0  0  0  0
   61.2335   28.4425   45.3178 H   0  0  0  0  0  0  0  0  0  0  0  0
   60.8152   29.8286   46.4411 H   0  0  0  0  0  0  0  0  0  0  0  0
   60.3620   27.2140   46.8590 H   0  0  0  0  0  0  0  0  0  0  0  0
   61.5076   29.1464   48.0367 H   0  0  0  0  0  0  0  0  0  0  0  0
   61.3511   30.4241   50.5866 H   0  0  0  0  0  0  0  0  0  0  0  0
   59.8007   30.3020   50.6371 H   0  0  0  0  0  0  0  0  0  0  0  0
   61.9357   27.8735   50.5845 H   0  0  0  0  0  0  0  0  0  0  0  0
   60.4872   27.3079   50.6347 H   0  0  0  0  0  0  0  0  0  0  0  0
   58.6202   26.9683   45.3607 H   0  0  0  0  0  0  0  0  0  0  0  0
   57.9897   26.9565   47.0676 H   0  0  0  0  0  0  0  0  0  0  0  0
   56.7014   28.3254   45.2408 H   0  0  0  0  0  0  0  0  0  0  0  0
   57.0059   29.0526   46.8687 H   0  0  0  0  0  0  0  0  0  0  0  0
   57.7295   33.6369   48.1682 H   0  0  0  0  0  0  0  0  0  0  0  0
   56.9359   32.1477   47.5354 H   0  0  0  0  0  0  0  0  0  0  0  0
   58.7221   31.8080   49.3570 H   0  0  0  0  0  0  0  0  0  0  0  0
   58.9090   30.8412   47.8436 H   0  0  0  0  0  0  0  0  0  0  0  0
   61.0229   31.2260   46.3792 H   0  0  0  0  0  0  0  0  0  0  0  0
   63.2934   32.4985   46.5343 H   0  0  0  0  0  0  0  0  0  0  0  0
   63.3433   34.2810   48.4756 H   0  0  0  0  0  0  0  0  0  0  0  0
  1  2  1  0
  2  3  2  0
  3  4  1  0
  4  5  2  0
  5  6  1  0
  6  7  2  0
  6  8  1  0
  8  9  1  0
  9 10  1  0
 10 11  1  0
 11 12  1  0
 12 13  2  0
 12 14  1  0
 14 15  1  0
 15 16  1  0
 11 17  1  0
 17 18  1  0
  5 19  1  0
 19 20  1  0
 20 21  1  0
 21 22  1  0
 22 23  2  0
 23 24  1  0
 24 25  2  0
 25 26  1  0
 19  2  1  0
 26 22  1  0
 18  8  1  0
 16 14  1  0
  1 27  1  0
  1 28  1  0
  1 29  1  0
  3 30  1  0
  4 31  1  0
  9 32  1  0
  9 33  1  0
 10 34  1  0
 10 35  1  0
 11 36  1  0
 14 37  1  0
 15 38  1  0
 15 39  1  0
 16 40  1  0
 16 41  1  0
 17 42  1  0
 17 43  1  0
 18 44  1  0
 18 45  1  0
 20 46  1  0
 20 47  1  0
 21 48  1  0
 21 49  1  0
 23 50  1  0
 24 51  1  0
 25 52  1  0
M  CHG  1  11   1
M  END
>  <UniqueID>  (83) 
80

>  <SMILES>  (83) 
Cc1ccc(C(=O)N2CC[NH+](C(=O)C3CC3)CC2)n1CCc1cccs1

>  <Energy>  (83) 
376.90744636060833

>  <Genealogy>  (83) 
Cc1ccc(C(=O)N2CC[NH+](C(=O)C3CC3)CC2)n1CCc1cccs1 (protonated)
Cc1ccc(C(=O)N2CC[NH+](C(=O)C3CC3)CC2)n1CCc1cccs1 (3D coordinates assigned)
Cc1ccc(C(=O)N2CC[NH+](C(=O)C3CC3)CC2)n1CCc1cccs1 (nonaromatic ring conformer: 376.90744636060833 kcal/mol)

>  <smiles>  (83) 
Cc1ccc(C(=O)N2CCN(C(=O)C3CC3)CC2)n1CCc1cccs1

>  <score_type>  (83) 
oracle

>  <origin>  (83) 
adg

>  <m_score__min__energy>  (83) 
-6.54

>  <m_primary>  (83) 
energy

$$$$
83:0
     RDKit          3D

 64 68  0  0  0  0  0  0  0  0999 V2000
   58.1405   30.6346   47.7683 H   0  0  0  0  0  0  0  0  0  0  0  0
   58.1520   29.6470   47.2840 C   0  0  0  0  0  0  0  0  0  0  0  0
   58.3372   28.7430   47.8827 H   0  0  0  0  0  0  0  0  0  0  0  0
   57.9400   29.5450   45.9620 C   0  0  0  0  0  0  0  0  0  0  0  0
   57.9260   28.3570   45.2130 C   0  0  0  0  0  0  0  0  0  0  0  0
   58.3400   27.1120   45.5190 C   0  0  0  0  0  0  0  0  0  0  0  0
   59.3484   26.8224   45.1885 H   0  0  0  0  0  0  0  0  0  0  0  0
   57.5590   26.1050   46.2580 C   0  0  0  0  0  0  0  0  0  0  0  0
   58.0600   24.9590   46.7550 N   0  0  0  0  0  0  0  0  0  0  0  0
   56.9650   24.3060   47.2000 C   0  0  0  0  0  0  0  0  0  0  0  0
   57.0270   23.1810   47.7580 O   0  0  0  0  0  0  0  0  0  0  0  0
   55.7980   24.9500   46.9900 N   0  0  0  0  0  0  0  0  0  0  0  0
   56.1920   26.0790   46.3800 C   0  0  0  0  0  0  0  0  0  0  0  0
   55.3180   27.0660   45.9380 O   0  0  0  0  0  0  0  0  0  0  0  0
   57.4070   28.6860   43.9740 C   0  0  0  0  0  0  0  0  0  0  0  0
   57.1918   27.9918   43.1483 H   0  0  0  0  0  0  0  0  0  0  0  0
   57.2110   30.0510   43.9720 C   0  0  0  0  0  0  0  0  0  0  0  0
   56.6460   30.8170   42.8130 C   0  0  0  0  0  0  0  0  0  0  0  0
   56.0321   31.6493   43.1878 H   0  0  0  0  0  0  0  0  0  0  0  0
   57.4685   31.2149   42.2005 H   0  0  0  0  0  0  0  0  0  0  0  0
   56.0229   30.1487   42.2005 H   0  0  0  0  0  0  0  0  0  0  0  0
   57.5390   30.5820   45.1750 N   0  0  0  0  0  0  0  0  0  0  0  0
   57.4340   32.0070   45.5280 C   0  0  0  0  0  0  0  0  0  0  0  0
   57.3435   32.6000   44.6060 H   0  0  0  0  0  0  0  0  0  0  0  0
   56.5476   32.1454   46.1646 H   0  0  0  0  0  0  0  0  0  0  0  0
   58.6480   32.4660   46.2910 C   0  0  0  0  0  0  0  0  0  0  0  0
   59.8840   31.8230   46.1180 C   0  0  0  0  0  0  0  0  0  0  0  0
   59.9639   30.9679   45.4307 H   0  0  0  0  0  0  0  0  0  0  0  0
   61.0140   32.2630   46.8140 C   0  0  0  0  0  0  0  0  0  0  0  0
   61.9789   31.7560   46.6659 H   0  0  0  0  0  0  0  0  0  0  0  0
   60.9250   33.3470   47.7000 C   0  0  0  0  0  0  0  0  0  0  0  0
   62.0940   33.8170   48.4000 N   0  0  0  0  0  0  0  0  0  0  0  0
   61.9860   34.2640   49.7950 C   0  0  0  0  0  0  0  0  0  0  0  0
   61.6062   35.2962   49.8155 H   0  0  0  0  0  0  0  0  0  0  0  0
   61.2965   33.5941   50.3296 H   0  0  0  0  0  0  0  0  0  0  0  0
   63.3540   34.2170   50.4840 C   0  0  0  0  0  0  0  0  0  0  0  0
   63.9280   35.1197   50.2279 H   0  0  0  0  0  0  0  0  0  0  0  0
   63.2213   34.1736   51.5751 H   0  0  0  0  0  0  0  0  0  0  0  0
   64.0810   33.0180   50.0190 N   0  0  0  0  0  0  0  0  0  0  0  0
   65.2230   32.5990   50.8720 C   0  0  0  0  0  0  0  0  0  0  0  0
   64.9205   32.8407   51.9016 H   0  0  0  0  0  0  0  0  0  0  0  0
   66.4990   33.3830   50.5010 C   0  0  0  0  0  0  0  0  0  0  0  0
   66.5529   33.4830   49.4069 H   0  0  0  0  0  0  0  0  0  0  0  0
   66.4507   34.3721   50.9799 H   0  0  0  0  0  0  0  0  0  0  0  0
   67.7640   32.6610   51.0020 C   0  0  0  0  0  0  0  0  0  0  0  0
   68.1446   32.0051   50.2052 H   0  0  0  0  0  0  0  0  0  0  0  0
   68.5187   33.4153   51.2692 H   0  0  0  0  0  0  0  0  0  0  0  0
   67.4760   31.8820   52.1460 O   0  0  0  0  0  0  0  0  0  0  0  0
   66.6970   30.7470   51.7920 C   0  0  0  0  0  0  0  0  0  0  0  0
   67.3485   30.0243   51.2790 H   0  0  0  0  0  0  0  0  0  0  0  0
   66.2751   30.3420   52.7236 H   0  0  0  0  0  0  0  0  0  0  0  0
   65.5060   31.0790   50.8610 C   0  0  0  0  0  0  0  0  0  0  0  0
   65.7478   30.7624   49.8357 H   0  0  0  0  0  0  0  0  0  0  0  0
   64.6127   30.5464   51.2194 H   0  0  0  0  0  0  0  0  0  0  0  0
   64.4620   33.1220   48.5890 C   0  0  0  0  0  0  0  0  0  0  0  0
   65.4138   33.6687   48.5177 H   0  0  0  0  0  0  0  0  0  0  0  0
   64.5486   32.0991   48.1939 H   0  0  0  0  0  0  0  0  0  0  0  0
   63.4060   33.8590   47.7420 C   0  0  0  0  0  0  0  0  0  0  0  0
   63.7128   34.9076   47.6142 H   0  0  0  0  0  0  0  0  0  0  0  0
   63.3277   33.3632   46.7632 H   0  0  0  0  0  0  0  0  0  0  0  0
   59.6910   33.9930   47.8690 C   0  0  0  0  0  0  0  0  0  0  0  0
   59.6112   34.8475   48.5571 H   0  0  0  0  0  0  0  0  0  0  0  0
   58.5630   33.5580   47.1690 C   0  0  0  0  0  0  0  0  0  0  0  0
   57.6017   34.0747   47.3068 H   0  0  0  0  0  0  0  0  0  0  0  0
  1  2  1  0
  2  3  1  0
  2  4  2  0
  4  5  1  0
  5  6  2  0
  6  7  1  0
  6  8  1  0
  8  9  1  0
  9 10  1  0
 10 11  2  0
 10 12  1  0
 12 13  1  0
 13 14  1  0
  5 15  1  0
 15 16  1  0
 15 17  2  0
 17 18  1  0
 18 19  1  0
 18 20  1  0
 18 21  1  0
 17 22  1  0
 22 23  1  0
 23 24  1  0
 23 25  1  0
 23 26  1  0
 26 27  2  0
 27 28  1  0
 27 29  1  0
 29 30  1  0
 29 31  2  0
 31 32  1  0
 32 33  1  0
 33 34  1  0
 33 35  1  0
 33 36  1  0
 36 37  1  0
 36 38  1  0
 36 39  1  0
 39 40  1  0
 40 41  1  0
 40 42  1  0
 42 43  1  0
 42 44  1  0
 42 45  1  0
 45 46  1  0
 45 47  1  0
 45 48  1  0
 48 49  1  0
 49 50  1  0
 49 51  1  0
 49 52  1  0
 52 53  1  0
 52 54  1  0
 39 55  1  0
 55 56  1  0
 55 57  1  0
 55 58  1  0
 58 59  1  0
 58 60  1  0
 31 61  1  0
 61 62  1  0
 61 63  2  0
 63 64  1  0
 22  4  1  0
 63 26  1  0
 13  8  2  0
 58 32  1  0
 52 40  1  0
M  CHG  3   9  -1  12  -1  14  -1
M  END
>  <UniqueID>  (84) 
81

>  <SMILES>  (84) 
C=c1/c(=C\c2[n-]c(=O)[n-]c2[O-])cc(C)n1Cc1ccc(N2CCN(C3CCOCC3)CC2)cc1

>  <Energy>  (84) 
157.55964171078813

>  <Genealogy>  (84) 
C=c1c(=Cc2[n-]c(=O)[n-]c2[O-])cc(C)n1Cc1ccc(N2CCN(C3CCOCC3)CC2)cc1 (protonated)
C=c1/c(=C\c2[n-]c(=O)[n-]c2[O-])cc(C)n1Cc1ccc(N2CCN(C3CCOCC3)CC2)cc1 (cis-trans isomerization)
C=c1/c(=C\c2[n-]c(=O)[n-]c2[O-])cc(C)n1Cc1ccc(N2CCN(C3CCOCC3)CC2)cc1 (3D coordinates assigned)
C=c1/c(=C\c2[n-]c(=O)[n-]c2[O-])cc(C)n1Cc1ccc(N2CCN(C3CCOCC3)CC2)cc1 (nonaromatic ring conformer: 157.55964171078813 kcal/mol)

>  <smiles>  (84) 
C=c1c(=Cc2[nH]c(=O)[nH]c2O)cc(C)n1Cc1ccc(N2CCN(C3CCOCC3)CC2)cc1

>  <score_type>  (84) 
oracle

>  <origin>  (84) 
adg

>  <m_score__min__energy>  (84) 
-17.120000000000001

>  <m_primary>  (84) 
energy

$$$$
84:0
     RDKit          3D

 68 72  0  0  0  0  0  0  0  0999 V2000
   59.1450   35.2040   44.9180 O   0  0  0  0  0  0  0  0  0  0  0  0
   59.2330   34.3210   45.8120 C   0  0  0  0  0  0  0  0  0  0  0  0
   58.1780   33.2630   45.9430 C   0  0  0  0  0  0  0  0  0  0  0  0
   57.4180   33.3150   47.2590 C   0  0  0  0  0  0  0  0  0  0  0  0
   58.4100   32.1940   47.0020 C   0  0  0  0  0  0  0  0  0  0  0  0
   60.3000   34.3790   46.7620 N   0  0  0  0  0  0  0  0  0  0  0  0
   60.0660   34.9650   48.0800 C   0  0  0  0  0  0  0  0  0  0  0  0
   60.5730   33.9950   49.1420 C   0  0  0  0  0  0  0  0  0  0  0  0
   62.0240   33.7240   48.9910 N   0  0  0  0  0  0  0  0  0  0  0  0
   62.3910   32.4800   49.6500 C   0  0  0  0  0  0  0  0  0  0  0  0
   63.3460   32.4880   50.4760 O   0  0  0  0  0  0  0  0  0  0  0  0
   61.7270   31.1820   49.3660 C   0  0  0  0  0  0  0  0  0  0  0  0
   61.5690   30.2560   50.4110 C   0  0  0  0  0  0  0  0  0  0  0  0
   61.0520   28.9820   50.1570 C   0  0  0  0  0  0  0  0  0  0  0  0
   60.6810   28.6180   48.8570 C   0  0  0  0  0  0  0  0  0  0  0  0
   60.2460   26.9470   48.4900 S   0  0  0  0  0  0  0  0  0  0  0  0
   61.2060   26.3920   47.4750 O   0  0  0  0  0  0  0  0  0  0  0  0
   60.3540   26.1190   49.7390 O   0  0  0  0  0  0  0  0  0  0  0  0
   58.6150   26.8520   47.8600 N   0  0  0  0  0  0  0  0  0  0  0  0
   58.3130   28.0370   47.0270 C   0  0  0  0  0  0  0  0  0  0  0  0
   57.1610   27.7610   46.0530 C   0  0  0  0  0  0  0  0  0  0  0  0
   57.4690   26.6480   45.1180 N   0  0  0  0  0  0  0  0  0  0  0  0
   57.8710   27.1360   43.7820 C   0  0  0  0  0  0  0  0  0  0  0  0
   57.7630   28.6400   43.7220 C   0  0  0  0  0  0  0  0  0  0  0  0
   56.5660   29.2050   43.2480 C   0  0  0  0  0  0  0  0  0  0  0  0
   56.4150   30.5930   43.1800 C   0  0  0  0  0  0  0  0  0  0  0  0
   57.4520   31.4320   43.5830 C   0  0  0  0  0  0  0  0  0  0  0  0
   58.6480   30.8860   44.0570 C   0  0  0  0  0  0  0  0  0  0  0  0
   58.8150   29.4970   44.1290 C   0  0  0  0  0  0  0  0  0  0  0  0
   60.3540   28.8820   44.7260 Cl  0  0  0  0  0  0  0  0  0  0  0  0
   58.4720   25.6920   45.6440 C   0  0  0  0  0  0  0  0  0  0  0  0
   58.3760   25.5620   47.1720 C   0  0  0  0  0  0  0  0  0  0  0  0
   60.7510   29.5690   47.8280 C   0  0  0  0  0  0  0  0  0  0  0  0
   61.2660   30.8430   48.0820 C   0  0  0  0  0  0  0  0  0  0  0  0
   62.5790   33.8550   47.6090 C   0  0  0  0  0  0  0  0  0  0  0  0
   61.5520   33.6810   46.4750 C   0  0  0  0  0  0  0  0  0  0  0  0
   57.9198   33.2358   44.8741 H   0  0  0  0  0  0  0  0  0  0  0  0
   57.6506   34.0963   47.9976 H   0  0  0  0  0  0  0  0  0  0  0  0
   56.3560   33.3633   47.5417 H   0  0  0  0  0  0  0  0  0  0  0  0
   59.3610   32.1638   47.5540 H   0  0  0  0  0  0  0  0  0  0  0  0
   58.3641   31.0951   47.0211 H   0  0  0  0  0  0  0  0  0  0  0  0
   60.6063   35.9196   48.1621 H   0  0  0  0  0  0  0  0  0  0  0  0
   58.9911   35.1499   48.2231 H   0  0  0  0  0  0  0  0  0  0  0  0
   60.3933   34.4296   50.1364 H   0  0  0  0  0  0  0  0  0  0  0  0
   60.0328   33.0442   49.0233 H   0  0  0  0  0  0  0  0  0  0  0  0
   62.5050   34.4770   49.5420 H   0  0  0  0  0  0  0  0  0  0  0  0
   61.8540   30.5354   51.4360 H   0  0  0  0  0  0  0  0  0  0  0  0
   60.9363   28.2631   50.9815 H   0  0  0  0  0  0  0  0  0  0  0  0
   58.0329   28.8736   47.6839 H   0  0  0  0  0  0  0  0  0  0  0  0
   59.2098   28.2834   46.4396 H   0  0  0  0  0  0  0  0  0  0  0  0
   56.2632   27.4988   46.6319 H   0  0  0  0  0  0  0  0  0  0  0  0
   57.0009   28.6697   45.4542 H   0  0  0  0  0  0  0  0  0  0  0  0
   58.9113   26.8383   43.5844 H   0  0  0  0  0  0  0  0  0  0  0  0
   57.2045   26.6979   43.0245 H   0  0  0  0  0  0  0  0  0  0  0  0
   55.7422   28.5499   42.9283 H   0  0  0  0  0  0  0  0  0  0  0  0
   55.4744   31.0244   42.8071 H   0  0  0  0  0  0  0  0  0  0  0  0
   57.3293   32.5238   43.5281 H   0  0  0  0  0  0  0  0  0  0  0  0
   59.4638   31.5515   44.3757 H   0  0  0  0  0  0  0  0  0  0  0  0
   58.2988   24.7054   45.1894 H   0  0  0  0  0  0  0  0  0  0  0  0
   59.4743   26.0681   45.3911 H   0  0  0  0  0  0  0  0  0  0  0  0
   57.3703   25.2018   47.4343 H   0  0  0  0  0  0  0  0  0  0  0  0
   59.1528   24.8556   47.5000 H   0  0  0  0  0  0  0  0  0  0  0  0
   60.3994   29.3110   46.8181 H   0  0  0  0  0  0  0  0  0  0  0  0
   61.3110   31.5856   47.2717 H   0  0  0  0  0  0  0  0  0  0  0  0
   63.0254   34.8559   47.5142 H   0  0  0  0  0  0  0  0  0  0  0  0
   63.3069   33.0386   47.4919 H   0  0  0  0  0  0  0  0  0  0  0  0
   61.9783   34.0834   45.5442 H   0  0  0  0  0  0  0  0  0  0  0  0
   61.3298   32.6081   46.3778 H   0  0  0  0  0  0  0  0  0  0  0  0
  1  2  2  0
  2  3  1  0
  3  4  1  0
  4  5  1  0
  2  6  1  0
  6  7  1  0
  7  8  1  0
  8  9  1  0
  9 10  1  0
 10 11  2  0
 10 12  1  0
 12 13  2  0
 13 14  1  0
 14 15  2  0
 15 16  1  0
 16 17  2  0
 16 18  2  0
 16 19  1  0
 19 20  1  0
 20 21  1  0
 21 22  1  0
 22 23  1  0
 23 24  1  0
 24 25  2  0
 25 26  1  0
 26 27  2  0
 27 28  1  0
 28 29  2  0
 29 30  1  0
 22 31  1  0
 31 32  1  0
 15 33  1  0
 33 34  2  0
  9 35  1  0
 35 36  1  0
  5  3  1  0
 36  6  1  0
 34 12  1  0
 32 19  1  0
 29 24  1  0
  3 37  1  0
  4 38  1  0
  4 39  1  0
  5 40  1  0
  5 41  1  0
  7 42  1  0
  7 43  1  0
  8 44  1  0
  8 45  1  0
  9 46  1  0
 13 47  1  0
 14 48  1  0
 20 49  1  0
 20 50  1  0
 21 51  1  0
 21 52  1  0
 23 53  1  0
 23 54  1  0
 25 55  1  0
 26 56  1  0
 27 57  1  0
 28 58  1  0
 31 59  1  0
 31 60  1  0
 32 61  1  0
 32 62  1  0
 33 63  1  0
 34 64  1  0
 35 65  1  0
 35 66  1  0
 36 67  1  0
 36 68  1  0
M  CHG  1   9   1
M  END
>  <UniqueID>  (85) 
82

>  <SMILES>  (85) 
O=C(C1CC1)N1CC[NH+](C(=O)c2ccc(S(=O)(=O)N3CCN(Cc4ccccc4Cl)CC3)cc2)CC1

>  <Energy>  (85) 
365.18560457708827

>  <Genealogy>  (85) 
O=C(C1CC1)N1CC[NH+](C(=O)c2ccc(S(=O)(=O)N3CCN(Cc4ccccc4Cl)CC3)cc2)CC1 (protonated)
O=C(C1CC1)N1CC[NH+](C(=O)c2ccc(S(=O)(=O)N3CCN(Cc4ccccc4Cl)CC3)cc2)CC1 (3D coordinates assigned)
O=C(C1CC1)N1CC[NH+](C(=O)c2ccc(S(=O)(=O)N3CCN(Cc4ccccc4Cl)CC3)cc2)CC1 (nonaromatic ring conformer: 365.18560457708827 kcal/mol)

>  <smiles>  (85) 
O=C(c1ccc(S(=O)(=O)N2CCN(Cc3ccccc3Cl)CC2)cc1)N1CCN(C(=O)C2CC2)CC1

>  <score_type>  (85) 
oracle

>  <origin>  (85) 
adg

>  <m_score__min__energy>  (85) 
-8.6999999999999993

>  <m_primary>  (85) 
energy

$$$$
85:0
     RDKit          3D

 43 45  0  0  0  0  0  0  0  0999 V2000
   53.6860   26.6710   46.3780 H   0  0  0  0  0  0  0  0  0  0  0  0
   54.2190   25.9760   45.8100 N   0  0  0  0  0  0  0  0  0  0  0  0
   55.6270   25.8130   45.9790 C   0  0  0  0  0  0  0  0  0  0  0  0
   56.2600   26.6700   46.6510 O   0  0  0  0  0  0  0  0  0  0  0  0
   56.3270   24.6450   45.3750 C   0  0  0  0  0  0  0  0  0  0  0  0
   55.6620   23.8730   44.4000 C   0  0  0  0  0  0  0  0  0  0  0  0
   54.6390   24.1427   44.0987 H   0  0  0  0  0  0  0  0  0  0  0  0
   56.2860   22.7700   43.8120 C   0  0  0  0  0  0  0  0  0  0  0  0
   55.7527   22.1785   43.0532 H   0  0  0  0  0  0  0  0  0  0  0  0
   57.5800   22.4170   44.1830 C   0  0  0  0  0  0  0  0  0  0  0  0
   58.0728   21.5559   43.7080 H   0  0  0  0  0  0  0  0  0  0  0  0
   58.2520   23.1550   45.1570 C   0  0  0  0  0  0  0  0  0  0  0  0
   59.2722   22.8679   45.4516 H   0  0  0  0  0  0  0  0  0  0  0  0
   57.6370   24.2620   45.7650 C   0  0  0  0  0  0  0  0  0  0  0  0
   58.3610   25.0050   46.7550 N   0  0  0  0  0  0  0  0  0  0  0  0
   59.2920   26.0550   46.4580 C   0  0  0  0  0  0  0  0  0  0  0  0
   59.6600   26.2270   45.2650 O   0  0  0  0  0  0  0  0  0  0  0  0
   59.7960   26.9810   47.5250 C   0  0  0  0  0  0  0  0  0  0  0  0
   59.1767   26.8734   48.4277 H   0  0  0  0  0  0  0  0  0  0  0  0
   60.8395   26.7313   47.7675 H   0  0  0  0  0  0  0  0  0  0  0  0
   59.7210   28.3570   47.0430 N   0  0  0  0  0  0  0  0  0  0  0  0
   58.7200   29.1570   47.2570 C   0  0  0  0  0  0  0  0  0  0  0  0
   58.8120   30.1610   48.3270 C   0  0  0  0  0  0  0  0  0  0  0  0
   58.8460   31.8290   48.1030 S   0  0  0  0  0  0  0  0  0  0  0  0
   58.9120   32.2330   49.7340 C   0  0  0  0  0  0  0  0  0  0  0  0
   58.9502   33.2530   50.1441 H   0  0  0  0  0  0  0  0  0  0  0  0
   58.9100   31.0570   50.4750 C   0  0  0  0  0  0  0  0  0  0  0  0
   58.9524   31.0381   51.5740 H   0  0  0  0  0  0  0  0  0  0  0  0
   58.8490   29.8990   49.6910 C   0  0  0  0  0  0  0  0  0  0  0  0
   58.8320   28.8831   50.1126 H   0  0  0  0  0  0  0  0  0  0  0  0
   57.5470   29.1000   46.4340 N   0  0  0  0  0  0  0  0  0  0  0  0
   56.7390   28.5420   46.7940 H   0  0  0  0  0  0  0  0  0  0  0  0
   57.4360   29.8090   45.1850 C   0  0  0  0  0  0  0  0  0  0  0  0
   58.5100   30.5710   44.6830 C   0  0  0  0  0  0  0  0  0  0  0  0
   59.4487   30.6325   45.2531 H   0  0  0  0  0  0  0  0  0  0  0  0
   58.3920   31.2490   43.4670 C   0  0  0  0  0  0  0  0  0  0  0  0
   59.2376   31.8376   43.0816 H   0  0  0  0  0  0  0  0  0  0  0  0
   57.2020   31.1800   42.7410 C   0  0  0  0  0  0  0  0  0  0  0  0
   57.1098   31.7135   41.7835 H   0  0  0  0  0  0  0  0  0  0  0  0
   56.1280   30.4330   43.2310 C   0  0  0  0  0  0  0  0  0  0  0  0
   55.1905   30.3815   42.6580 H   0  0  0  0  0  0  0  0  0  0  0  0
   56.2390   29.7500   44.4470 C   0  0  0  0  0  0  0  0  0  0  0  0
   55.1570   29.0100   44.9100 O   0  0  0  0  0  0  0  0  0  0  0  0
  1  2  1  0
  2  3  1  0
  3  4  2  0
  3  5  1  0
  5  6  2  0
  6  7  1  0
  6  8  1  0
  8  9  1  0
  8 10  2  0
 10 11  1  0
 10 12  1  0
 12 13  1  0
 12 14  2  0
 14 15  1  0
 15 16  1  0
 16 17  2  0
 16 18  1  0
 18 19  1  0
 18 20  1  0
 18 21  1  0
 21 22  2  0
 22 23  1  0
 23 24  1  0
 24 25  1  0
 25 26  1  0
 25 27  2  0
 27 28  1  0
 27 29  1  0
 29 30  1  0
 22 31  1  0
 31 32  1  0
 31 33  1  0
 33 34  2  0
 34 35  1  0
 34 36  1  0
 36 37  1  0
 36 38  2  0
 38 39  1  0
 38 40  1  0
 40 41  1  0
 40 42  2  0
 42 43  1  0
 14  5  1  0
 29 23  2  0
 42 33  1  0
M  CHG  3   2  -1  15  -1  43  -1
M  END
>  <UniqueID>  (86) 
83

>  <SMILES>  (86) 
[NH-]C(=O)c1ccccc1[N-]C(=O)C/N=C(\Nc1ccccc1[O-])c1cccs1

>  <Energy>  (86) 
80.73440573445185

>  <Genealogy>  (86) 
[NH-]C(=O)c1ccccc1[N-]C(=O)CN=C(Nc1ccccc1[O-])c1cccs1 (protonated)
[NH-]C(=O)c1ccccc1[N-]C(=O)C/N=C(\Nc1ccccc1[O-])c1cccs1 (cis-trans isomerization)
[NH-]C(=O)c1ccccc1[N-]C(=O)C/N=C(\Nc1ccccc1[O-])c1cccs1 (3D coordinates assigned)
[NH-]C(=O)c1ccccc1[N-]C(=O)C/N=C(\Nc1ccccc1[O-])c1cccs1 (optimized conformer: 80.73440573445185 kcal/mol)

>  <smiles>  (86) 
NC(=O)c1ccccc1NC(=O)CN=C(Nc1ccccc1O)c1cccs1

>  <score_type>  (86) 
oracle

>  <origin>  (86) 
adg

>  <m_score__min__energy>  (86) 
-15.41

>  <m_primary>  (86) 
energy

$$$$
86:0
     RDKit          3D

 34 36  0  0  0  0  0  0  0  0999 V2000
   58.5740   27.4777   42.2740 H   0  0  0  0  0  0  0  0  0  0  0  0
   58.1450   26.6350   42.8360 C   0  0  0  0  0  0  0  0  0  0  0  0
   57.7545   25.7579   42.2992 H   0  0  0  0  0  0  0  0  0  0  0  0
   58.0980   26.6770   44.1760 C   0  0  0  0  0  0  0  0  0  0  0  0
   57.5840   25.6860   45.0270 C   0  0  0  0  0  0  0  0  0  0  0  0
   56.8270   24.6020   44.7680 C   0  0  0  0  0  0  0  0  0  0  0  0
   57.3176   23.7527   44.2700 H   0  0  0  0  0  0  0  0  0  0  0  0
   55.3990   24.4580   45.0950 C   0  0  0  0  0  0  0  0  0  0  0  0
   54.6400   23.3940   44.7730 N   0  0  0  0  0  0  0  0  0  0  0  0
   53.3990   23.7720   45.1470 C   0  0  0  0  0  0  0  0  0  0  0  0
   52.3950   23.0240   45.0170 O   0  0  0  0  0  0  0  0  0  0  0  0
   53.3150   25.0180   45.6600 N   0  0  0  0  0  0  0  0  0  0  0  0
   54.5890   25.4420   45.6060 C   0  0  0  0  0  0  0  0  0  0  0  0
   55.0010   26.7060   46.0110 O   0  0  0  0  0  0  0  0  0  0  0  0
   57.9920   26.0250   46.3060 C   0  0  0  0  0  0  0  0  0  0  0  0
   57.8158   25.4463   47.2248 H   0  0  0  0  0  0  0  0  0  0  0  0
   58.6610   27.2260   46.2080 C   0  0  0  0  0  0  0  0  0  0  0  0
   59.2820   27.9430   47.3700 C   0  0  0  0  0  0  0  0  0  0  0  0
   58.9078   27.5110   48.3099 H   0  0  0  0  0  0  0  0  0  0  0  0
   60.3757   27.8339   47.3261 H   0  0  0  0  0  0  0  0  0  0  0  0
   59.0179   29.0099   47.3261 H   0  0  0  0  0  0  0  0  0  0  0  0
   58.7150   27.6370   44.9180 N   0  0  0  0  0  0  0  0  0  0  0  0
   59.3760   28.8570   44.4250 C   0  0  0  0  0  0  0  0  0  0  0  0
   60.3915   28.9094   44.8445 H   0  0  0  0  0  0  0  0  0  0  0  0
   59.4120   28.8141   43.3264 H   0  0  0  0  0  0  0  0  0  0  0  0
   58.6100   30.0960   44.8310 C   0  0  0  0  0  0  0  0  0  0  0  0
   59.2240   31.0850   45.6130 C   0  0  0  0  0  0  0  0  0  0  0  0
   60.2714   30.9641   45.9267 H   0  0  0  0  0  0  0  0  0  0  0  0
   58.5300   32.1910   45.9840 N   0  0  0  0  0  0  0  0  0  0  0  0
   57.2340   32.3590   45.6190 C   0  0  0  0  0  0  0  0  0  0  0  0
   56.6100   33.3930   45.9730 O   0  0  0  0  0  0  0  0  0  0  0  0
   56.6100   31.4120   44.8750 N   0  0  0  0  0  0  0  0  0  0  0  0
   57.2620   30.2870   44.4780 C   0  0  0  0  0  0  0  0  0  0  0  0
   56.6450   29.4280   43.7960 O   0  0  0  0  0  0  0  0  0  0  0  0
  1  2  1  0
  2  3  1  0
  2  4  2  0
  4  5  1  0
  5  6  2  0
  6  7  1  0
  6  8  1  0
  8  9  1  0
  9 10  1  0
 10 11  2  0
 10 12  1  0
 12 13  1  0
 13 14  1  0
  5 15  1  0
 15 16  1  0
 15 17  2  0
 17 18  1  0
 18 19  1  0
 18 20  1  0
 18 21  1  0
 17 22  1  0
 22 23  1  0
 23 24  1  0
 23 25  1  0
 23 26  1  0
 26 27  2  0
 27 28  1  0
 27 29  1  0
 29 30  1  0
 30 31  2  0
 30 32  1  0
 32 33  1  0
 33 34  2  0
 22  4  1  0
 33 26  1  0
 13  8  2  0
M  CHG  5   9  -1  12  -1  14  -1  29  -1  32  -1
M  END
>  <UniqueID>  (87) 
84

>  <SMILES>  (87) 
C=c1/c(=C\c2[n-]c(=O)[n-]c2[O-])cc(C)n1Cc1c[n-]c(=O)[n-]c1=O

>  <Energy>  (87) 
106.90265756469373

>  <Genealogy>  (87) 
C=c1c(=Cc2[n-]c(=O)[n-]c2[O-])cc(C)n1Cc1c[n-]c(=O)[n-]c1=O (protonated)
C=c1/c(=C\c2[n-]c(=O)[n-]c2[O-])cc(C)n1Cc1c[n-]c(=O)[n-]c1=O (cis-trans isomerization)
C=c1/c(=C\c2[n-]c(=O)[n-]c2[O-])cc(C)n1Cc1c[n-]c(=O)[n-]c1=O (3D coordinates assigned)
C=c1/c(=C\c2[n-]c(=O)[n-]c2[O-])cc(C)n1Cc1c[n-]c(=O)[n-]c1=O (optimized conformer: 106.90265756469373 kcal/mol)

>  <smiles>  (87) 
C=c1c(=Cc2[nH]c(=O)[nH]c2O)cc(C)n1Cc1c[nH]c(=O)[nH]c1=O

>  <score_type>  (87) 
oracle

>  <origin>  (87) 
adg

>  <m_score__min__energy>  (87) 
-17

>  <m_primary>  (87) 
energy

$$$$
87:0
     RDKit          3D

 45 48  0  0  0  0  0  0  0  0999 V2000
   58.2077   26.8541   44.0883 H   0  0  0  0  0  0  0  0  0  0  0  0
   58.0820   27.8220   43.5810 C   0  0  0  0  0  0  0  0  0  0  0  0
   58.0984   27.8734   42.4823 H   0  0  0  0  0  0  0  0  0  0  0  0
   57.9080   28.9440   44.3050 C   0  0  0  0  0  0  0  0  0  0  0  0
   57.9950   28.9740   45.7290 C   0  0  0  0  0  0  0  0  0  0  0  0
   57.8980   27.8770   46.5310 C   0  0  0  0  0  0  0  0  0  0  0  0
   58.0807   28.0244   47.6057 H   0  0  0  0  0  0  0  0  0  0  0  0
   57.5700   26.5100   46.0870 C   0  0  0  0  0  0  0  0  0  0  0  0
   58.7050   25.2660   45.9360 S   0  0  0  0  0  0  0  0  0  0  0  0
   57.5810   24.0780   45.5460 C   0  0  0  0  0  0  0  0  0  0  0  0
   57.8100   22.7340   45.2650 C   0  0  0  0  0  0  0  0  0  0  0  0
   58.8301   22.3224   45.2654 H   0  0  0  0  0  0  0  0  0  0  0  0
   56.7030   21.9180   44.9810 C   0  0  0  0  0  0  0  0  0  0  0  0
   56.8526   20.8525   44.7520 H   0  0  0  0  0  0  0  0  0  0  0  0
   55.4010   22.4580   44.9880 C   0  0  0  0  0  0  0  0  0  0  0  0
   54.5401   21.8107   44.7648 H   0  0  0  0  0  0  0  0  0  0  0  0
   55.1950   23.8170   45.2780 C   0  0  0  0  0  0  0  0  0  0  0  0
   54.1797   24.2401   45.2878 H   0  0  0  0  0  0  0  0  0  0  0  0
   56.3050   24.6220   45.5540 C   0  0  0  0  0  0  0  0  0  0  0  0
   56.2900   25.9840   45.8750 C   0  0  0  0  0  0  0  0  0  0  0  0
   55.1200   26.7250   46.0030 O   0  0  0  0  0  0  0  0  0  0  0  0
   58.1520   30.2450   46.3360 C   0  0  0  0  0  0  0  0  0  0  0  0
   58.3520   30.3240   47.5830 O   0  0  0  0  0  0  0  0  0  0  0  0
   58.0350   31.3960   45.5980 N   0  0  0  0  0  0  0  0  0  0  0  0
   58.0500   32.7170   46.2640 C   0  0  0  0  0  0  0  0  0  0  0  0
   57.0969   33.2291   46.0659 H   0  0  0  0  0  0  0  0  0  0  0  0
   58.1901   32.5602   47.3437 H   0  0  0  0  0  0  0  0  0  0  0  0
   59.2050   33.5900   45.7460 C   0  0  0  0  0  0  0  0  0  0  0  0
   59.6478   33.1076   44.8621 H   0  0  0  0  0  0  0  0  0  0  0  0
   58.7993   34.5805   45.4926 H   0  0  0  0  0  0  0  0  0  0  0  0
   60.2760   33.7740   46.7900 C   0  0  0  0  0  0  0  0  0  0  0  0
   59.9290   34.0800   48.1170 C   0  0  0  0  0  0  0  0  0  0  0  0
   58.8743   34.2440   48.3830 H   0  0  0  0  0  0  0  0  0  0  0  0
   60.9180   34.1770   49.1010 C   0  0  0  0  0  0  0  0  0  0  0  0
   60.6402   34.4156   50.1383 H   0  0  0  0  0  0  0  0  0  0  0  0
   62.2580   33.9710   48.7670 C   0  0  0  0  0  0  0  0  0  0  0  0
   63.0354   34.0496   49.5413 H   0  0  0  0  0  0  0  0  0  0  0  0
   62.6130   33.6650   47.4500 C   0  0  0  0  0  0  0  0  0  0  0  0
   63.6694   33.5043   47.1888 H   0  0  0  0  0  0  0  0  0  0  0  0
   61.6260   33.5630   46.4640 C   0  0  0  0  0  0  0  0  0  0  0  0
   61.9080   33.3167   45.4297 H   0  0  0  0  0  0  0  0  0  0  0  0
   57.8070   31.3200   44.2510 C   0  0  0  0  0  0  0  0  0  0  0  0
   57.6550   32.3710   43.5670 O   0  0  0  0  0  0  0  0  0  0  0  0
   57.7570   30.1170   43.6270 N   0  0  0  0  0  0  0  0  0  0  0  0
   57.6410   30.1120   42.5860 H   0  0  0  0  0  0  0  0  0  0  0  0
  1  2  1  0
  2  3  1  0
  2  4  2  0
  4  5  1  0
  5  6  2  0
  6  7  1  0
  6  8  1  0
  8  9  1  0
  9 10  1  0
 10 11  2  0
 11 12  1  0
 11 13  1  0
 13 14  1  0
 13 15  2  0
 15 16  1  0
 15 17  1  0
 17 18  1  0
 17 19  2  0
 19 20  1  0
 20 21  1  0
  5 22  1  0
 22 23  2  0
 22 24  1  0
 24 25  1  0
 25 26  1  0
 25 27  1  0
 25 28  1  0
 28 29  1  0
 28 30  1  0
 28 31  1  0
 31 32  2  0
 32 33  1  0
 32 34  1  0
 34 35  1  0
 34 36  2  0
 36 37  1  0
 36 38  1  0
 38 39  1  0
 38 40  2  0
 40 41  1  0
 24 42  1  0
 42 43  2  0
 42 44  1  0
 44 45  1  0
 44  4  1  0
 20  8  2  0
 40 31  1  0
 19 10  1  0
M  CHG  1  21  -1
M  END
>  <UniqueID>  (88) 
85

>  <SMILES>  (88) 
C=c1[nH]c(=O)n(CCc2ccccc2)c(=O)/c1=C/c1sc2ccccc2c1[O-]

>  <Energy>  (88) 
104.416111810686

>  <Genealogy>  (88) 
C=c1[nH]c(=O)n(CCc2ccccc2)c(=O)c1=Cc1sc2ccccc2c1[O-] (protonated)
C=c1[nH]c(=O)n(CCc2ccccc2)c(=O)/c1=C/c1sc2ccccc2c1[O-] (cis-trans isomerization)
C=c1[nH]c(=O)n(CCc2ccccc2)c(=O)/c1=C/c1sc2ccccc2c1[O-] (3D coordinates assigned)
C=c1[nH]c(=O)n(CCc2ccccc2)c(=O)/c1=C/c1sc2ccccc2c1[O-] (optimized conformer: 104.416111810686 kcal/mol)

>  <smiles>  (88) 
C=c1[nH]c(=O)n(CCc2ccccc2)c(=O)c1=Cc1sc2ccccc2c1O

>  <score_type>  (88) 
oracle

>  <origin>  (88) 
adg

>  <m_score__min__energy>  (88) 
-12.76

>  <m_primary>  (88) 
energy

$$$$
88:0
     RDKit          3D

 57 60  0  0  0  0  0  0  0  0999 V2000
   60.1850   29.8230   45.3710 O   0  0  0  0  0  0  0  0  0  0  0  0
   58.9920   29.7360   44.9710 C   0  0  0  0  0  0  0  0  0  0  0  0
   58.5020   28.5120   44.4100 N   0  0  0  0  0  0  0  0  0  0  0  0
   58.3650   27.2550   45.0880 C   0  0  0  0  0  0  0  0  0  0  0  0
   59.5040   26.6670   45.6520 C   0  0  0  0  0  0  0  0  0  0  0  0
   59.4160   25.4330   46.3010 C   0  0  0  0  0  0  0  0  0  0  0  0
   58.1910   24.7690   46.3810 C   0  0  0  0  0  0  0  0  0  0  0  0
   57.0460   25.3340   45.8040 C   0  0  0  0  0  0  0  0  0  0  0  0
   55.5000   24.4940   45.8750 S   0  0  0  0  0  0  0  0  0  0  0  0
   55.3330   23.8960   47.2450 O   0  0  0  0  0  0  0  0  0  0  0  0
   54.3780   25.4650   45.6230 O   0  0  0  0  0  0  0  0  0  0  0  0
   55.4710   23.2250   44.6760 N   0  0  0  0  0  0  0  0  0  0  0  0
   56.3820   22.1370   45.0300 C   0  0  0  0  0  0  0  0  0  0  0  0
   56.7980   21.4790   43.7240 C   0  0  0  0  0  0  0  0  0  0  0  0
   56.5190   22.5140   42.6450 C   0  0  0  0  0  0  0  0  0  0  0  0
   55.9310   23.7130   43.3760 C   0  0  0  0  0  0  0  0  0  0  0  0
   57.1370   26.5680   45.1460 C   0  0  0  0  0  0  0  0  0  0  0  0
   58.1080   30.8620   45.0640 N   0  0  0  0  0  0  0  0  0  0  0  0
   58.5220   32.1870   45.4370 C   0  0  0  0  0  0  0  0  0  0  0  0
   58.1670   33.3110   44.6690 C   0  0  0  0  0  0  0  0  0  0  0  0
   58.5590   34.5900   45.0700 C   0  0  0  0  0  0  0  0  0  0  0  0
   59.2920   34.7640   46.2460 C   0  0  0  0  0  0  0  0  0  0  0  0
   59.6260   33.6570   47.0380 C   0  0  0  0  0  0  0  0  0  0  0  0
   60.5200   33.8780   48.5440 S   0  0  0  0  0  0  0  0  0  0  0  0
   59.8650   34.9630   49.3520 O   0  0  0  0  0  0  0  0  0  0  0  0
   60.4620   32.6070   49.3430 O   0  0  0  0  0  0  0  0  0  0  0  0
   62.1950   34.3030   48.2570 N   0  0  0  0  0  0  0  0  0  0  0  0
   63.0780   33.6680   49.2410 C   0  0  0  0  0  0  0  0  0  0  0  0
   63.6700   32.4130   48.6160 C   0  0  0  0  0  0  0  0  0  0  0  0
   63.3940   32.5230   47.1290 C   0  0  0  0  0  0  0  0  0  0  0  0
   62.6440   33.8340   46.9410 C   0  0  0  0  0  0  0  0  0  0  0  0
   59.2400   32.3730   46.6280 C   0  0  0  0  0  0  0  0  0  0  0  0
   60.4745   27.1802   45.5835 H   0  0  0  0  0  0  0  0  0  0  0  0
   60.3141   24.9837   46.7499 H   0  0  0  0  0  0  0  0  0  0  0  0
   58.1243   23.8003   46.8980 H   0  0  0  0  0  0  0  0  0  0  0  0
   57.2642   22.5351   45.5527 H   0  0  0  0  0  0  0  0  0  0  0  0
   55.8959   21.4144   45.7020 H   0  0  0  0  0  0  0  0  0  0  0  0
   57.8677   21.2235   43.7451 H   0  0  0  0  0  0  0  0  0  0  0  0
   56.2500   20.5423   43.5445 H   0  0  0  0  0  0  0  0  0  0  0  0
   57.4503   22.7952   42.1317 H   0  0  0  0  0  0  0  0  0  0  0  0
   55.8339   22.1280   41.8758 H   0  0  0  0  0  0  0  0  0  0  0  0
   56.6989   24.4888   43.5118 H   0  0  0  0  0  0  0  0  0  0  0  0
   55.1040   24.1597   42.8045 H   0  0  0  0  0  0  0  0  0  0  0  0
   56.2443   27.0024   44.6722 H   0  0  0  0  0  0  0  0  0  0  0  0
   57.0850   30.6780   44.9480 H   0  0  0  0  0  0  0  0  0  0  0  0
   57.5782   33.1819   43.7488 H   0  0  0  0  0  0  0  0  0  0  0  0
   58.2896   35.4632   44.4577 H   0  0  0  0  0  0  0  0  0  0  0  0
   59.6080   35.7724   46.5514 H   0  0  0  0  0  0  0  0  0  0  0  0
   63.8856   34.3617   49.5176 H   0  0  0  0  0  0  0  0  0  0  0  0
   62.5097   33.4075   50.1461 H   0  0  0  0  0  0  0  0  0  0  0  0
   64.7531   32.3666   48.8022 H   0  0  0  0  0  0  0  0  0  0  0  0
   63.2286   31.5007   49.0435 H   0  0  0  0  0  0  0  0  0  0  0  0
   64.3380   32.5376   46.5645 H   0  0  0  0  0  0  0  0  0  0  0  0
   62.8095   31.6665   46.7618 H   0  0  0  0  0  0  0  0  0  0  0  0
   63.3111   34.5820   46.4877 H   0  0  0  0  0  0  0  0  0  0  0  0
   61.7793   33.6833   46.2780 H   0  0  0  0  0  0  0  0  0  0  0  0
   59.5029   31.5022   47.2466 H   0  0  0  0  0  0  0  0  0  0  0  0
  1  2  2  0
  2  3  1  0
  3  4  1  0
  4  5  2  0
  5  6  1  0
  6  7  2  0
  7  8  1  0
  8  9  1  0
  9 10  2  0
  9 11  2  0
  9 12  1  0
 12 13  1  0
 13 14  1  0
 14 15  1  0
 15 16  1  0
  8 17  2  0
  2 18  1  0
 18 19  1  0
 19 20  2  0
 20 21  1  0
 21 22  2  0
 22 23  1  0
 23 24  1  0
 24 25  2  0
 24 26  2  0
 24 27  1  0
 27 28  1  0
 28 29  1  0
 29 30  1  0
 30 31  1  0
 23 32  2  0
 17  4  1  0
 32 19  1  0
 16 12  1  0
 31 27  1  0
  5 33  1  0
  6 34  1  0
  7 35  1  0
 13 36  1  0
 13 37  1  0
 14 38  1  0
 14 39  1  0
 15 40  1  0
 15 41  1  0
 16 42  1  0
 16 43  1  0
 17 44  1  0
 18 45  1  0
 20 46  1  0
 21 47  1  0
 22 48  1  0
 28 49  1  0
 28 50  1  0
 29 51  1  0
 29 52  1  0
 30 53  1  0
 30 54  1  0
 31 55  1  0
 31 56  1  0
 32 57  1  0
M  CHG  1   3  -1
M  END
>  <UniqueID>  (89) 
86

>  <SMILES>  (89) 
O=C([N-]c1cccc(S(=O)(=O)N2CCCC2)c1)Nc1cccc(S(=O)(=O)N2CCCC2)c1

>  <Energy>  (89) 
65.70531220737756

>  <Genealogy>  (89) 
O=C([N-]c1cccc(S(=O)(=O)N2CCCC2)c1)Nc1cccc(S(=O)(=O)N2CCCC2)c1 (protonated)
O=C([N-]c1cccc(S(=O)(=O)N2CCCC2)c1)Nc1cccc(S(=O)(=O)N2CCCC2)c1 (3D coordinates assigned)
O=C([N-]c1cccc(S(=O)(=O)N2CCCC2)c1)Nc1cccc(S(=O)(=O)N2CCCC2)c1 (nonaromatic ring conformer: 65.70531220737756 kcal/mol)

>  <smiles>  (89) 
O=C(Nc1cccc(S(=O)(=O)N2CCCC2)c1)Nc1cccc(S(=O)(=O)N2CCCC2)c1

>  <score_type>  (89) 
oracle

>  <origin>  (89) 
adg

>  <m_score__min__energy>  (89) 
-12.789999999999999

>  <m_primary>  (89) 
energy

$$$$
