0:0
     RDKit          3D

 51 54  0  0  1  0  0  0  0  0999 V2000
   62.6280   34.4890   49.8370 C   0  0  0  0  0  0  0  0  0  0  0  0
   61.5920   34.3200   48.8870 O   0  0  0  0  0  0  0  0  0  0  0  0
   61.1640   33.0320   48.6220 C   0  0  0  0  0  0  0  0  0  0  0  0
   59.9960   32.5390   49.1450 C   0  0  0  0  0  0  0  0  0  0  0  0
   59.5950   31.2490   48.8630 C   0  0  0  0  0  0  0  0  0  0  0  0
   60.3690   30.4450   48.0510 C   0  0  0  0  0  0  0  0  0  0  0  0
   60.0170   29.1050   47.7190 N   0  0  0  0  0  0  0  0  0  0  0  0
   59.1500   28.8860   46.8050 C   0  0  0  0  0  0  0  0  0  0  0  0
   58.3590   29.8350   46.2710 N   0  0  0  0  0  0  0  0  0  0  0  0
   57.4670   29.5300   45.3080 C   0  0  0  0  0  0  0  0  0  0  0  0
   56.7280   30.4630   44.8210 N   0  0  0  0  0  0  0  0  0  0  0  0
   57.2020   31.5590   44.0420 C   0  0  0  0  0  0  0  0  0  0  0  0
   57.7930   32.6410   44.8970 C   0  0  0  0  0  0  0  0  0  0  0  0
   58.7720   33.5030   44.3980 C   0  0  0  0  0  0  0  0  0  0  0  0
   59.3310   34.5040   45.1610 C   0  0  0  0  0  0  0  0  0  0  0  0
   58.9280   34.6840   46.4680 C   0  0  0  0  0  0  0  0  0  0  0  0
   57.9620   33.8470   46.9880 C   0  0  0  0  0  0  0  0  0  0  0  0
   57.4160   32.8480   46.2000 C   0  0  0  0  0  0  0  0  0  0  0  0
   57.3360   28.2740   44.8510 N   0  0  0  0  0  0  0  0  0  0  0  0
   58.1090   27.2990   45.3620 C   0  0  0  0  0  0  0  0  0  0  0  0
   59.0320   27.5840   46.3480 C   0  0  0  0  0  0  0  0  0  0  0  0
   59.6700   26.4050   46.6710 C   0  0  0  0  0  0  0  0  0  0  0  0
   59.1480   25.4440   45.9040 N   0  0  0  0  0  0  0  0  0  0  0  0
   58.2220   25.9640   45.1250 N   0  0  0  0  0  0  0  0  0  0  0  0
   57.4030   25.2770   44.1360 C   0  0  0  0  0  0  0  0  0  0  0  0
   61.5590   30.9490   47.5200 C   0  0  0  0  0  0  0  0  0  0  0  0
   61.9690   32.2420   47.7970 C   0  0  0  0  0  0  0  0  0  0  0  0
   63.1460   32.7770   47.2870 O   0  0  0  0  0  0  0  0  0  0  0  0
   63.0450   33.8580   46.3760 C   0  0  0  0  0  0  0  0  0  0  0  0
   62.2095   34.4207   50.8520 H   0  0  0  0  0  0  0  0  0  0  0  0
   63.3843   33.7024   49.6986 H   0  0  0  0  0  0  0  0  0  0  0  0
   63.0951   35.4752   49.6986 H   0  0  0  0  0  0  0  0  0  0  0  0
   59.3753   33.1754   49.7929 H   0  0  0  0  0  0  0  0  0  0  0  0
   58.6568   30.8608   49.2862 H   0  0  0  0  0  0  0  0  0  0  0  0
   58.4590   30.8120   46.6240 H   0  0  0  0  0  0  0  0  0  0  0  0
   57.9729   31.1941   43.3474 H   0  0  0  0  0  0  0  0  0  0  0  0
   56.3462   31.9848   43.4977 H   0  0  0  0  0  0  0  0  0  0  0  0
   59.1087   33.3779   43.3583 H   0  0  0  0  0  0  0  0  0  0  0  0
   60.0997   35.1608   44.7277 H   0  0  0  0  0  0  0  0  0  0  0  0
   59.3690   35.4808   47.0849 H   0  0  0  0  0  0  0  0  0  0  0  0
   57.6260   33.9734   48.0278 H   0  0  0  0  0  0  0  0  0  0  0  0
   56.6479   32.1929   46.6368 H   0  0  0  0  0  0  0  0  0  0  0  0
   56.6510   28.0350   44.1110 H   0  0  0  0  0  0  0  0  0  0  0  0
   60.4633   26.2790   47.4225 H   0  0  0  0  0  0  0  0  0  0  0  0
   56.6572   24.6514   44.6483 H   0  0  0  0  0  0  0  0  0  0  0  0
   56.8894   26.0185   43.5064 H   0  0  0  0  0  0  0  0  0  0  0  0
   58.0438   24.6422   43.5064 H   0  0  0  0  0  0  0  0  0  0  0  0
   62.1783   30.3100   46.8733 H   0  0  0  0  0  0  0  0  0  0  0  0
   62.9569   34.8014   46.9348 H   0  0  0  0  0  0  0  0  0  0  0  0
   63.9441   33.8894   45.7431 H   0  0  0  0  0  0  0  0  0  0  0  0
   62.1556   33.7223   45.7431 H   0  0  0  0  0  0  0  0  0  0  0  0
  1  2  1  0
  2  3  1  0
  3  4  2  0
  4  5  1  0
  5  6  2  0
  6  7  1  0
  7  8  2  0
  8  9  1  0
  9 10  1  0
 10 11  2  0
 11 12  1  0
 12 13  1  0
 13 14  2  0
 14 15  1  0
 15 16  2  0
 16 17  1  0
 17 18  2  0
 10 19  1  0
 19 20  1  0
 20 21  2  0
 21 22  1  0
 22 23  2  0
 23 24  1  0
 24 25  1  0
  6 26  1  0
 26 27  2  0
 27 28  1  0
 28 29  1  0
 27  3  1  0
 21  8  1  0
 18 13  1  0
 24 20  1  0
  1 30  1  0
  1 31  1  0
  1 32  1  0
  4 33  1  0
  5 34  1  0
  9 35  1  0
 12 36  1  0
 12 37  1  0
 14 38  1  0
 15 39  1  0
 16 40  1  0
 17 41  1  0
 18 42  1  0
 19 43  1  0
 22 44  1  0
 25 45  1  0
 25 46  1  0
 25 47  1  0
 26 48  1  0
 29 49  1  0
 29 50  1  0
 29 51  1  0
M  END
>  <smiles>  (1) 
COc1ccc(N=c2[nH]c(=NCc3ccccc3)[nH]c3c2cnn3C)cc1OC

>  <score_type>  (1) 
oracle

>  <origin>  (1) 
adg

>  <m_score__min__energy>  (1) 
-8.7899999999999991

>  <m_primary>  (1) 
energy

$$$$
1:0
     RDKit          3D

 50 53  0  0  0  0  0  0  0  0999 V2000
   59.4930   26.8900   47.8450 C   0  0  0  0  0  0  0  0  0  0  0  0
   58.9710   27.8330   46.7950 C   0  0  0  0  0  0  0  0  0  0  0  0
   59.3240   29.1840   46.6660 C   0  0  0  0  0  0  0  0  0  0  0  0
   60.2550   29.9650   47.5640 C   0  0  0  0  0  0  0  0  0  0  0  0
   59.6030   30.4330   48.8510 C   0  0  0  0  0  0  0  0  0  0  0  0
   59.0070   29.4590   49.6790 C   0  0  0  0  0  0  0  0  0  0  0  0
   58.3710   29.8210   50.8650 C   0  0  0  0  0  0  0  0  0  0  0  0
   58.3290   31.1560   51.2550 C   0  0  0  0  0  0  0  0  0  0  0  0
   58.9350   32.1340   50.4670 C   0  0  0  0  0  0  0  0  0  0  0  0
   59.5920   31.7950   49.2700 C   0  0  0  0  0  0  0  0  0  0  0  0
   60.3770   33.0920   48.3430 S   0  0  0  0  0  0  0  0  0  0  0  0
   61.6820   32.6030   47.7800 O   0  0  0  0  0  0  0  0  0  0  0  0
   60.6450   34.2740   49.2330 O   0  0  0  0  0  0  0  0  0  0  0  0
   59.3550   33.6460   47.0110 C   0  0  0  0  0  0  0  0  0  0  0  0
   59.9260   34.3520   45.9420 C   0  0  0  0  0  0  0  0  0  0  0  0
   59.1260   34.8090   44.8910 C   0  0  0  0  0  0  0  0  0  0  0  0
   57.7500   34.5690   44.9030 C   0  0  0  0  0  0  0  0  0  0  0  0
   57.1720   33.8760   45.9700 C   0  0  0  0  0  0  0  0  0  0  0  0
   57.9670   33.4160   47.0250 C   0  0  0  0  0  0  0  0  0  0  0  0
   57.3800   32.7710   48.0630 F   0  0  0  0  0  0  0  0  0  0  0  0
   58.5780   29.6540   45.5940 C   0  0  0  0  0  0  0  0  0  0  0  0
   58.4580   30.9330   45.0400 C   0  0  0  0  0  0  0  0  0  0  0  0
   57.6080   31.1020   43.9350 C   0  0  0  0  0  0  0  0  0  0  0  0
   57.4670   32.3290   43.3740 F   0  0  0  0  0  0  0  0  0  0  0  0
   56.8900   30.0070   43.4130 C   0  0  0  0  0  0  0  0  0  0  0  0
   57.0130   28.7340   43.9930 C   0  0  0  0  0  0  0  0  0  0  0  0
   57.8720   28.5880   45.0890 C   0  0  0  0  0  0  0  0  0  0  0  0
   58.1190   27.4670   45.8000 N   0  0  0  0  0  0  0  0  0  0  0  0
   57.5350   26.1410   45.5700 C   0  0  0  0  0  0  0  0  0  0  0  0
   56.2640   25.9940   46.3470 C   0  0  0  0  0  0  0  0  0  0  0  0
   56.2180   25.2330   47.3490 O   0  0  0  0  0  0  0  0  0  0  0  0
   55.1330   26.7090   45.9740 O   0  0  0  0  0  0  0  0  0  0  0  0
   59.2697   27.2934   48.8437 H   0  0  0  0  0  0  0  0  0  0  0  0
   59.0097   25.9087   47.7294 H   0  0  0  0  0  0  0  0  0  0  0  0
   60.5812   26.7786   47.7294 H   0  0  0  0  0  0  0  0  0  0  0  0
   61.1108   29.3234   47.8206 H   0  0  0  0  0  0  0  0  0  0  0  0
   60.5597   30.8650   47.0098 H   0  0  0  0  0  0  0  0  0  0  0  0
   59.0447   28.3998   49.3847 H   0  0  0  0  0  0  0  0  0  0  0  0
   57.9015   29.0502   51.4938 H   0  0  0  0  0  0  0  0  0  0  0  0
   57.8171   31.4403   52.1862 H   0  0  0  0  0  0  0  0  0  0  0  0
   58.8988   33.1861   50.7860 H   0  0  0  0  0  0  0  0  0  0  0  0
   61.0085   34.5469   45.9307 H   0  0  0  0  0  0  0  0  0  0  0  0
   59.5805   35.3583   44.0534 H   0  0  0  0  0  0  0  0  0  0  0  0
   57.1219   34.9252   44.0732 H   0  0  0  0  0  0  0  0  0  0  0  0
   56.0876   33.6915   45.9803 H   0  0  0  0  0  0  0  0  0  0  0  0
   59.0149   31.7841   45.4590 H   0  0  0  0  0  0  0  0  0  0  0  0
   56.2290   30.1506   42.5456 H   0  0  0  0  0  0  0  0  0  0  0  0
   56.4503   27.8756   43.5974 H   0  0  0  0  0  0  0  0  0  0  0  0
   57.3216   26.0190   44.4978 H   0  0  0  0  0  0  0  0  0  0  0  0
   58.2488   25.3722   45.9007 H   0  0  0  0  0  0  0  0  0  0  0  0
  1  2  1  0
  2  3  2  0
  3  4  1  0
  4  5  1  0
  5  6  2  0
  6  7  1  0
  7  8  2  0
  8  9  1  0
  9 10  2  0
 10 11  1  0
 11 12  2  0
 11 13  2  0
 11 14  1  0
 14 15  2  0
 15 16  1  0
 16 17  2  0
 17 18  1  0
 18 19  2  0
 19 20  1  0
  3 21  1  0
 21 22  2  0
 22 23  1  0
 23 24  1  0
 23 25  2  0
 25 26  1  0
 26 27  2  0
 27 28  1  0
 28 29  1  0
 29 30  1  0
 30 31  2  0
 30 32  1  0
 28  2  1  0
 10  5  1  0
 19 14  1  0
 27 21  1  0
  1 33  1  0
  1 34  1  0
  1 35  1  0
  4 36  1  0
  4 37  1  0
  6 38  1  0
  7 39  1  0
  8 40  1  0
  9 41  1  0
 15 42  1  0
 16 43  1  0
 17 44  1  0
 18 45  1  0
 22 46  1  0
 25 47  1  0
 26 48  1  0
 29 49  1  0
 29 50  1  0
M  CHG  1  32  -1
M  END
>  <UniqueID>  (2) 
1

>  <SMILES>  (2) 
Cc1c(Cc2ccccc2S(=O)(=O)c2ccccc2F)c2cc(F)ccc2n1CC(=O)[O-]

>  <Energy>  (2) 
92.55430589257294

>  <Genealogy>  (2) 
Cc1c(Cc2ccccc2S(=O)(=O)c2ccccc2F)c2cc(F)ccc2n1CC(=O)[O-] (protonated)
Cc1c(Cc2ccccc2S(=O)(=O)c2ccccc2F)c2cc(F)ccc2n1CC(=O)[O-] (3D coordinates assigned)
Cc1c(Cc2ccccc2S(=O)(=O)c2ccccc2F)c2cc(F)ccc2n1CC(=O)[O-] (optimized conformer: 92.55430589257294 kcal/mol)

>  <smiles>  (2) 
Cc1c(Cc2ccccc2S(=O)(=O)c2ccccc2F)c2cc(F)ccc2n1CC(=O)O

>  <score_type>  (2) 
oracle

>  <origin>  (2) 
adg

>  <m_score__min__energy>  (2) 
-12.49

>  <m_primary>  (2) 
energy

$$$$
2:0
     RDKit          3D

 60 63  0  0  1  0  0  0  0  0999 V2000
   61.8390   33.4370   52.0720 C   0  0  0  0  0  0  0  0  0  0  0  0
   62.4820   33.3980   50.7510 C   0  0  0  0  0  0  0  0  0  0  0  0
   61.7460   33.4380   49.5970 C   0  0  0  0  0  0  0  0  0  0  0  0
   60.2820   33.6090   49.5130 C   0  0  0  0  0  0  0  0  0  0  0  0
   59.6090   32.7840   48.5120 C   0  0  0  0  0  0  0  0  0  0  0  0
   59.0620   33.2140   47.3300 C   0  0  0  0  0  0  0  0  0  0  0  0
   58.4410   32.3390   46.4290 C   0  0  0  0  0  0  0  0  0  0  0  0
   58.3590   30.9930   46.7060 C   0  0  0  0  0  0  0  0  0  0  0  0
   57.7070   30.1160   45.7440 C   0  0  0  0  0  0  0  0  0  0  0  0
   57.0090   30.6410   44.8420 O   0  0  0  0  0  0  0  0  0  0  0  0
   57.8330   28.7020   45.7930 N   0  0  0  0  0  0  0  0  0  0  0  0
   57.1430   27.9170   44.7850 C   0  0  1  0  0  0  0  0  0  0  0  0
   57.7470   28.2040   43.4310 C   0  0  0  0  0  0  0  0  0  0  0  0
   57.4190   26.4720   45.1060 C   0  0  0  0  0  0  0  0  0  0  0  0
   57.5250   25.6300   44.0190 C   0  0  0  0  0  0  0  0  0  0  0  0
   57.7780   24.2850   44.1680 C   0  0  0  0  0  0  0  0  0  0  0  0
   57.9220   23.8110   45.4620 C   0  0  0  0  0  0  0  0  0  0  0  0
   58.2430   22.0970   45.6370 S   0  0  0  0  0  0  0  0  0  0  0  0
   57.6630   21.6090   46.9270 O   0  0  0  0  0  0  0  0  0  0  0  0
   59.7360   21.8570   45.5770 O   0  0  0  0  0  0  0  0  0  0  0  0
   57.5570   21.2600   44.3600 O   0  0  0  0  0  0  0  0  0  0  0  0
   57.8150   24.6590   46.5460 C   0  0  0  0  0  0  0  0  0  0  0  0
   57.5590   26.0180   46.3930 C   0  0  0  0  0  0  0  0  0  0  0  0
   58.9040   30.5470   47.8900 C   0  0  0  0  0  0  0  0  0  0  0  0
   59.5130   31.4220   48.7690 C   0  0  0  0  0  0  0  0  0  0  0  0
   62.4270   33.3540   48.3770 C   0  0  0  0  0  0  0  0  0  0  0  0
   63.7780   33.2360   48.2790 C   0  0  0  0  0  0  0  0  0  0  0  0
   64.5190   33.1980   49.4380 C   0  0  0  0  0  0  0  0  0  0  0  0
   65.8630   33.0880   49.3770 N   0  0  0  0  0  0  0  0  0  0  0  0
   66.6120   33.0550   50.5030 C   0  0  0  0  0  0  0  0  0  0  0  0
   67.8860   32.9520   50.4520 N   0  0  0  0  0  0  0  0  0  0  0  0
   66.0210   33.1310   51.6920 N   0  0  0  0  0  0  0  0  0  0  0  0
   64.6790   33.2400   51.7770 C   0  0  0  0  0  0  0  0  0  0  0  0
   64.1850   33.3190   52.9660 N   0  0  0  0  0  0  0  0  0  0  0  0
   63.8570   33.2800   50.6710 C   0  0  0  0  0  0  0  0  0  0  0  0
   62.6090   33.3903   52.8561 H   0  0  0  0  0  0  0  0  0  0  0  0
   61.2677   34.3714   52.1743 H   0  0  0  0  0  0  0  0  0  0  0  0
   61.1590   32.5785   52.1743 H   0  0  0  0  0  0  0  0  0  0  0  0
   59.8551   33.3640   50.4968 H   0  0  0  0  0  0  0  0  0  0  0  0
   60.1168   34.6521   49.2055 H   0  0  0  0  0  0  0  0  0  0  0  0
   59.1127   34.2841   47.0805 H   0  0  0  0  0  0  0  0  0  0  0  0
   58.0157   32.7305   45.4931 H   0  0  0  0  0  0  0  0  0  0  0  0
   58.4010   28.2310   46.5240 H   0  0  0  0  0  0  0  0  0  0  0  0
   56.0679   28.1496   44.7741 H   0  0  0  0  0  0  0  0  0  0  0  0
   58.7335   28.6728   43.5615 H   0  0  0  0  0  0  0  0  0  0  0  0
   57.8592   27.2629   42.8726 H   0  0  0  0  0  0  0  0  0  0  0  0
   57.0883   28.8854   42.8726 H   0  0  0  0  0  0  0  0  0  0  0  0
   57.4043   26.0437   43.0069 H   0  0  0  0  0  0  0  0  0  0  0  0
   57.8621   23.6164   43.2985 H   0  0  0  0  0  0  0  0  0  0  0  0
   57.9860   20.3820   44.2680 H   0  0  0  0  0  0  0  0  0  0  0  0
   57.9355   24.2487   47.5595 H   0  0  0  0  0  0  0  0  0  0  0  0
   57.4734   26.6924   47.2578 H   0  0  0  0  0  0  0  0  0  0  0  0
   58.8535   29.4769   48.1397 H   0  0  0  0  0  0  0  0  0  0  0  0
   59.9363   31.0268   49.7042 H   0  0  0  0  0  0  0  0  0  0  0  0
   61.8381   33.3851   47.4484 H   0  0  0  0  0  0  0  0  0  0  0  0
   64.2674   33.1724   47.2959 H   0  0  0  0  0  0  0  0  0  0  0  0
   66.3760   33.0250   48.4810 H   0  0  0  0  0  0  0  0  0  0  0  0
   68.5280   33.7660   50.6310 H   0  0  0  0  0  0  0  0  0  0  0  0
   66.6060   33.1040   52.5680 H   0  0  0  0  0  0  0  0  0  0  0  0
   64.6510   32.8970   53.7880 H   0  0  0  0  0  0  0  0  0  0  0  0
  1  2  1  0
  2  3  2  0
  3  4  1  0
  4  5  1  0
  5  6  2  0
  6  7  1  0
  7  8  2  0
  8  9  1  0
  9 10  2  0
  9 11  1  0
 11 12  1  0
 12 13  1  0
 12 14  1  0
 14 15  2  0
 15 16  1  0
 16 17  2  0
 17 18  1  0
 18 19  2  0
 18 20  2  0
 18 21  1  0
 17 22  1  0
 22 23  2  0
  8 24  1  0
 24 25  2  0
  3 26  1  0
 26 27  2  0
 27 28  1  0
 28 29  1  0
 29 30  1  0
 30 31  2  3
 30 32  1  0
 32 33  1  0
 33 34  2  3
 33 35  1  0
 35  2  1  0
 25  5  1  0
 35 28  2  0
 23 14  1  0
  1 36  1  0
  1 37  1  0
  1 38  1  0
  4 39  1  0
  4 40  1  0
  6 41  1  0
  7 42  1  0
 11 43  1  0
 12 44  1  6
 13 45  1  0
 13 46  1  0
 13 47  1  0
 15 48  1  0
 16 49  1  0
 21 50  1  0
 22 51  1  0
 23 52  1  0
 24 53  1  0
 25 54  1  0
 26 55  1  0
 27 56  1  0
 29 57  1  0
 31 58  1  0
 32 59  1  0
 34 60  1  0
M  END
>  <smiles>  (3) 
Cc1c(Cc2ccc(C(=O)NC(C)c3ccc(S(=O)(=O)O)cc3)cc2)ccc2[nH]c(=N)[nH]c(=N)c12

>  <score_type>  (3) 
oracle

>  <origin>  (3) 
adg

>  <m_score__min__energy>  (3) 
-9.2699999999999996

>  <m_primary>  (3) 
energy

$$$$
3:0
     RDKit          3D

 58 61  0  0  1  0  0  0  0  0999 V2000
   56.8260   21.4480   42.9740 C   0  0  0  0  0  0  0  0  0  0  0  0
   55.8610   22.4640   43.2230 O   0  0  0  0  0  0  0  0  0  0  0  0
   56.1390   23.5550   44.0330 C   0  0  0  0  0  0  0  0  0  0  0  0
   57.3400   24.2200   44.0380 C   0  0  0  0  0  0  0  0  0  0  0  0
   57.5090   25.2900   44.8830 C   0  0  0  0  0  0  0  0  0  0  0  0
   56.5080   25.7250   45.7340 C   0  0  0  0  0  0  0  0  0  0  0  0
   56.7860   26.8440   46.5680 N   0  0  0  0  0  0  0  0  0  0  0  0
   57.3930   27.8820   46.0970 C   0  0  0  0  0  0  0  0  0  0  0  0
   58.3490   28.4890   46.8840 C   0  0  0  0  0  0  0  0  0  0  0  0
   58.9980   29.6000   46.3790 C   0  0  0  0  0  0  0  0  0  0  0  0
   59.9830   30.1930   47.2380 N   0  0  0  0  0  0  0  0  0  0  0  0
   61.2730   30.5100   46.6770 C   0  0  0  0  0  0  0  0  0  0  0  0
   62.0410   31.5070   47.4230 C   0  0  0  0  0  0  0  0  0  0  0  0
   62.2880   32.7420   46.8220 C   0  0  0  0  0  0  0  0  0  0  0  0
   63.0020   33.7370   47.4580 C   0  0  0  0  0  0  0  0  0  0  0  0
   63.5050   33.5430   48.7310 C   0  0  0  0  0  0  0  0  0  0  0  0
   63.2600   32.3260   49.3210 C   0  0  0  0  0  0  0  0  0  0  0  0
   62.5510   31.3400   48.6890 C   0  0  0  0  0  0  0  0  0  0  0  0
   59.6040   30.4140   48.5800 C   0  0  0  0  0  0  0  0  0  0  0  0
   59.9550   29.5110   49.4150 O   0  0  0  0  0  0  0  0  0  0  0  0
   58.8650   31.5630   49.0550 C   0  0  0  0  0  0  0  0  0  0  0  0
   59.2030   32.7780   48.6670 C   0  0  0  0  0  0  0  0  0  0  0  0
   58.8830   33.3350   47.3640 C   0  0  0  0  0  0  0  0  0  0  0  0
   57.8620   32.8550   46.5710 C   0  0  0  0  0  0  0  0  0  0  0  0
   57.5930   33.4160   45.3350 C   0  0  0  0  0  0  0  0  0  0  0  0
   58.3410   34.4800   44.8550 C   0  0  0  0  0  0  0  0  0  0  0  0
   59.3590   34.9690   45.6300 C   0  0  0  0  0  0  0  0  0  0  0  0
   59.6130   34.3920   46.8660 C   0  0  0  0  0  0  0  0  0  0  0  0
   58.7280   30.0980   45.1570 N   0  0  0  0  0  0  0  0  0  0  0  0
   57.7860   29.4600   44.4410 C   0  0  0  0  0  0  0  0  0  0  0  0
   57.1220   28.3770   44.8800 N   0  0  0  0  0  0  0  0  0  0  0  0
   55.2960   25.0620   45.7370 C   0  0  0  0  0  0  0  0  0  0  0  0
   55.1390   23.9850   44.8810 C   0  0  0  0  0  0  0  0  0  0  0  0
   53.9080   23.3340   44.9020 O   0  0  0  0  0  0  0  0  0  0  0  0
   57.1996   21.0547   43.9309 H   0  0  0  0  0  0  0  0  0  0  0  0
   56.3609   20.6335   42.3993 H   0  0  0  0  0  0  0  0  0  0  0  0
   57.6634   21.8706   42.3993 H   0  0  0  0  0  0  0  0  0  0  0  0
   58.1566   23.9002   43.3739 H   0  0  0  0  0  0  0  0  0  0  0  0
   58.4733   25.8193   44.8832 H   0  0  0  0  0  0  0  0  0  0  0  0
   58.5882   28.1002   47.8848 H   0  0  0  0  0  0  0  0  0  0  0  0
   61.8647   29.5836   46.6358 H   0  0  0  0  0  0  0  0  0  0  0  0
   61.0796   30.9475   45.6865 H   0  0  0  0  0  0  0  0  0  0  0  0
   61.9013   32.9283   45.8092 H   0  0  0  0  0  0  0  0  0  0  0  0
   63.1729   34.6955   46.9462 H   0  0  0  0  0  0  0  0  0  0  0  0
   64.0760   34.3278   49.2488 H   0  0  0  0  0  0  0  0  0  0  0  0
   63.6461   32.1382   50.3338 H   0  0  0  0  0  0  0  0  0  0  0  0
   62.3843   30.3855   49.2096 H   0  0  0  0  0  0  0  0  0  0  0  0
   58.0177   31.4234   49.7425 H   0  0  0  0  0  0  0  0  0  0  0  0
   59.7619   33.4084   49.3742 H   0  0  0  0  0  0  0  0  0  0  0  0
   57.2513   32.0122   46.9269 H   0  0  0  0  0  0  0  0  0  0  0  0
   56.7728   33.0114   44.7237 H   0  0  0  0  0  0  0  0  0  0  0  0
   58.1215   34.9224   43.8721 H   0  0  0  0  0  0  0  0  0  0  0  0
   59.9701   35.8121   45.2755 H   0  0  0  0  0  0  0  0  0  0  0  0
   60.4342   34.7967   47.4758 H   0  0  0  0  0  0  0  0  0  0  0  0
   57.5451   29.8460   43.4395 H   0  0  0  0  0  0  0  0  0  0  0  0
   56.3960   27.9160   44.2810 H   0  0  0  0  0  0  0  0  0  0  0  0
   54.4787   25.3807   46.4007 H   0  0  0  0  0  0  0  0  0  0  0  0
   53.6480   22.5900   44.2670 H   0  0  0  0  0  0  0  0  0  0  0  0
  1  2  1  0
  2  3  1  0
  3  4  2  0
  4  5  1  0
  5  6  2  0
  6  7  1  0
  7  8  2  0
  8  9  1  0
  9 10  2  0
 10 11  1  0
 11 12  1  0
 12 13  1  0
 13 14  2  0
 14 15  1  0
 15 16  2  0
 16 17  1  0
 17 18  2  0
 11 19  1  0
 19 20  2  0
 19 21  1  0
 21 22  2  0
 22 23  1  0
 23 24  2  0
 24 25  1  0
 25 26  2  0
 26 27  1  0
 27 28  2  0
 10 29  1  0
 29 30  2  0
 30 31  1  0
  6 32  1  0
 32 33  2  0
 33 34  1  0
 33  3  1  0
 31  8  1  0
 18 13  1  0
 28 23  1  0
  1 35  1  0
  1 36  1  0
  1 37  1  0
  4 38  1  0
  5 39  1  0
  9 40  1  0
 12 41  1  0
 12 42  1  0
 14 43  1  0
 15 44  1  0
 16 45  1  0
 17 46  1  0
 18 47  1  0
 21 48  1  0
 22 49  1  0
 24 50  1  0
 25 51  1  0
 26 52  1  0
 27 53  1  0
 28 54  1  0
 30 55  1  0
 31 56  1  0
 32 57  1  0
 34 58  1  0
M  END
>  <smiles>  (4) 
COc1ccc(N=c2cc(N(Cc3ccccc3)C(=O)C=Cc3ccccc3)nc[nH]2)cc1O

>  <score_type>  (4) 
oracle

>  <origin>  (4) 
adg

>  <m_score__min__energy>  (4) 
-10.59

>  <m_primary>  (4) 
energy

$$$$
4:0
     RDKit          3D

 44 47  0  0  0  0  0  0  0  0999 V2000
   54.7120   26.6960   47.1030 H   0  0  0  0  0  0  0  0  0  0  0  0
   55.1890   26.6120   46.2150 O   0  0  0  0  0  0  0  0  0  0  0  0
   56.5710   26.7350   46.1380 C   0  0  0  0  0  0  0  0  0  0  0  0
   57.4250   25.7690   46.5620 N   0  0  0  0  0  0  0  0  0  0  0  0
   58.6470   26.2890   46.3300 C   0  0  0  0  0  0  0  0  0  0  0  0
   59.8680   25.6800   46.6090 C   0  0  0  0  0  0  0  0  0  0  0  0
   59.9121   24.6827   47.0711 H   0  0  0  0  0  0  0  0  0  0  0  0
   61.0440   26.3810   46.2810 C   0  0  0  0  0  0  0  0  0  0  0  0
   62.0248   25.9267   46.4854 H   0  0  0  0  0  0  0  0  0  0  0  0
   60.9750   27.6620   45.6920 C   0  0  0  0  0  0  0  0  0  0  0  0
   61.9014   28.1923   45.4263 H   0  0  0  0  0  0  0  0  0  0  0  0
   59.7290   28.2640   45.4430 C   0  0  0  0  0  0  0  0  0  0  0  0
   59.6630   29.2711   45.0056 H   0  0  0  0  0  0  0  0  0  0  0  0
   58.5790   27.5440   45.7680 C   0  0  0  0  0  0  0  0  0  0  0  0
   57.2360   27.8550   45.6640 C   0  0  0  0  0  0  0  0  0  0  0  0
   56.6240   29.1420   45.2840 C   0  0  0  0  0  0  0  0  0  0  0  0
   56.4830   29.9300   46.0385 H   0  0  0  0  0  0  0  0  0  0  0  0
   56.2540   29.3410   44.0620 N   0  0  0  0  0  0  0  0  0  0  0  0
   56.6780   30.4350   43.2390 C   0  0  0  0  0  0  0  0  0  0  0  0
   56.4710   30.4120   41.9960 O   0  0  0  0  0  0  0  0  0  0  0  0
   57.2900   31.6340   43.8700 C   0  0  0  0  0  0  0  0  0  0  0  0
   58.1990   32.4270   43.1490 C   0  0  0  0  0  0  0  0  0  0  0  0
   58.3718   32.2243   42.0817 H   0  0  0  0  0  0  0  0  0  0  0  0
   58.8850   33.4700   43.7750 C   0  0  0  0  0  0  0  0  0  0  0  0
   59.5832   34.0901   43.1937 H   0  0  0  0  0  0  0  0  0  0  0  0
   58.6910   33.7330   45.1380 C   0  0  0  0  0  0  0  0  0  0  0  0
   59.5390   34.7310   45.8340 C   0  0  0  0  0  0  0  0  0  0  0  0
   59.6510   35.8950   45.3700 O   0  0  0  0  0  0  0  0  0  0  0  0
   60.2200   34.3990   47.0530 N   0  0  0  0  0  0  0  0  0  0  0  0
   61.2980   33.4550   47.1320 C   0  0  0  0  0  0  0  0  0  0  0  0
   61.0250   32.1290   47.4890 C   0  0  0  0  0  0  0  0  0  0  0  0
   59.9841   31.8003   47.6247 H   0  0  0  0  0  0  0  0  0  0  0  0
   62.0760   31.2190   47.6740 C   0  0  0  0  0  0  0  0  0  0  0  0
   61.8583   30.1850   47.9797 H   0  0  0  0  0  0  0  0  0  0  0  0
   63.4010   31.6220   47.4710 C   0  0  0  0  0  0  0  0  0  0  0  0
   64.2244   30.9101   47.6299 H   0  0  0  0  0  0  0  0  0  0  0  0
   63.6750   32.9310   47.0660 C   0  0  0  0  0  0  0  0  0  0  0  0
   64.7140   33.2455   46.8886 H   0  0  0  0  0  0  0  0  0  0  0  0
   62.6280   33.8420   46.8860 C   0  0  0  0  0  0  0  0  0  0  0  0
   62.8462   34.8665   46.5502 H   0  0  0  0  0  0  0  0  0  0  0  0
   57.7240   32.9990   45.8420 C   0  0  0  0  0  0  0  0  0  0  0  0
   57.5029   33.2503   46.8898 H   0  0  0  0  0  0  0  0  0  0  0  0
   57.0390   31.9490   45.2190 C   0  0  0  0  0  0  0  0  0  0  0  0
   56.2995   31.3660   45.7875 H   0  0  0  0  0  0  0  0  0  0  0  0
  1  2  1  0
  2  3  1  0
  3  4  1  0
  4  5  1  0
  5  6  2  0
  6  7  1  0
  6  8  1  0
  8  9  1  0
  8 10  2  0
 10 11  1  0
 10 12  1  0
 12 13  1  0
 12 14  2  0
 14 15  1  0
 15 16  1  0
 16 17  1  0
 16 18  2  0
 18 19  1  0
 19 20  2  0
 19 21  1  0
 21 22  2  0
 22 23  1  0
 22 24  1  0
 24 25  1  0
 24 26  2  0
 26 27  1  0
 27 28  2  0
 27 29  1  0
 29 30  1  0
 30 31  2  0
 31 32  1  0
 31 33  1  0
 33 34  1  0
 33 35  2  0
 35 36  1  0
 35 37  1  0
 37 38  1  0
 37 39  2  0
 39 40  1  0
 26 41  1  0
 41 42  1  0
 41 43  2  0
 43 44  1  0
 15  3  2  0
 43 21  1  0
 14  5  1  0
 39 30  1  0
M  CHG  2   4  -1  29  -1
M  END
>  <UniqueID>  (5) 
2

>  <SMILES>  (5) 
O=C(/N=C/c1c(O)[n-]c2ccccc12)c1ccc(C(=O)[N-]c2ccccc2)cc1

>  <Energy>  (5) 
92.26636942120567

>  <Genealogy>  (5) 
O=C(N=Cc1c(O)[n-]c2ccccc12)c1ccc(C(=O)[N-]c2ccccc2)cc1 (protonated)
O=C(/N=C/c1c(O)[n-]c2ccccc12)c1ccc(C(=O)[N-]c2ccccc2)cc1 (cis-trans isomerization)
O=C(/N=C/c1c(O)[n-]c2ccccc12)c1ccc(C(=O)[N-]c2ccccc2)cc1 (3D coordinates assigned)
O=C(/N=C/c1c(O)[n-]c2ccccc12)c1ccc(C(=O)[N-]c2ccccc2)cc1 (optimized conformer: 92.26636942120567 kcal/mol)

>  <smiles>  (5) 
O=C(N=Cc1c(O)[nH]c2ccccc12)c1ccc(C(=O)Nc2ccccc2)cc1

>  <score_type>  (5) 
oracle

>  <origin>  (5) 
adg

>  <m_score__min__energy>  (5) 
-12.56

>  <m_primary>  (5) 
energy

$$$$
5:0
     RDKit          3D

 39 42  0  0  0  0  0  0  0  0999 V2000
   59.6390   35.2370   44.8730 O   0  0  0  0  0  0  0  0  0  0  0  0
   59.1430   34.1990   45.3870 C   0  0  0  0  0  0  0  0  0  0  0  0
   58.4430   33.1860   44.6460 C   0  0  0  0  0  0  0  0  0  0  0  0
   58.1970   33.0780   43.2770 C   0  0  0  0  0  0  0  0  0  0  0  0
   57.4550   31.9760   42.8250 C   0  0  0  0  0  0  0  0  0  0  0  0
   56.9730   31.0220   43.7420 C   0  0  0  0  0  0  0  0  0  0  0  0
   57.2340   31.1640   45.1150 C   0  0  0  0  0  0  0  0  0  0  0  0
   57.9940   32.2590   45.5450 C   0  0  0  0  0  0  0  0  0  0  0  0
   58.3690   32.6530   46.9590 C   0  0  1  0  0  0  0  0  0  0  0  0
   57.1760   32.9670   47.6480 O   0  0  0  0  0  0  0  0  0  0  0  0
   59.1120   31.5320   47.7130 C   0  0  0  0  0  0  0  0  0  0  0  0
   60.0640   30.7010   47.0820 C   0  0  0  0  0  0  0  0  0  0  0  0
   60.7670   29.7410   47.8140 C   0  0  0  0  0  0  0  0  0  0  0  0
   60.5430   29.6000   49.1850 C   0  0  0  0  0  0  0  0  0  0  0  0
   61.2340   28.6700   49.8910 F   0  0  0  0  0  0  0  0  0  0  0  0
   59.6160   30.4230   49.8280 C   0  0  0  0  0  0  0  0  0  0  0  0
   59.4090   30.2980   51.1620 F   0  0  0  0  0  0  0  0  0  0  0  0
   58.9090   31.3840   49.1010 C   0  0  0  0  0  0  0  0  0  0  0  0
   59.1810   33.9190   46.7990 N   0  0  1  0  0  0  0  0  0  0  0  0
   60.5500   33.8710   47.3040 C   0  0  0  0  0  0  0  0  0  0  0  0
   61.6120   33.7690   46.3830 C   0  0  0  0  0  0  0  0  0  0  0  0
   62.9390   33.7870   46.8170 C   0  0  0  0  0  0  0  0  0  0  0  0
   63.2310   33.9140   48.1750 C   0  0  0  0  0  0  0  0  0  0  0  0
   62.1970   34.0240   49.1060 C   0  0  0  0  0  0  0  0  0  0  0  0
   62.5830   34.2050   50.8090 Cl  0  0  0  0  0  0  0  0  0  0  0  0
   60.8620   34.0040   48.6820 C   0  0  0  0  0  0  0  0  0  0  0  0
   59.8810   34.1370   49.6110 F   0  0  0  0  0  0  0  0  0  0  0  0
   58.5736   33.8344   42.5727 H   0  0  0  0  0  0  0  0  0  0  0  0
   57.2492   31.8570   41.7510 H   0  0  0  0  0  0  0  0  0  0  0  0
   56.3896   30.1619   43.3816 H   0  0  0  0  0  0  0  0  0  0  0  0
   56.8491   30.4298   45.8380 H   0  0  0  0  0  0  0  0  0  0  0  0
   56.7360   33.7230   47.1750 H   0  0  0  0  0  0  0  0  0  0  0  0
   60.2537   30.8108   46.0040 H   0  0  0  0  0  0  0  0  0  0  0  0
   61.4993   29.0941   47.3087 H   0  0  0  0  0  0  0  0  0  0  0  0
   58.1858   32.0327   49.6169 H   0  0  0  0  0  0  0  0  0  0  0  0
   58.6770   34.7160   47.2580 H   0  0  0  0  0  0  0  0  0  0  0  0
   61.3928   33.6741   45.3093 H   0  0  0  0  0  0  0  0  0  0  0  0
   63.7564   33.7008   46.0859 H   0  0  0  0  0  0  0  0  0  0  0  0
   64.2778   33.9275   48.5127 H   0  0  0  0  0  0  0  0  0  0  0  0
  1  2  2  0
  2  3  1  0
  3  4  2  0
  4  5  1  0
  5  6  2  0
  6  7  1  0
  7  8  2  0
  8  9  1  0
  9 10  1  1
  9 11  1  0
 11 12  2  0
 12 13  1  0
 13 14  2  0
 14 15  1  0
 14 16  1  0
 16 17  1  0
 16 18  2  0
  9 19  1  0
 19 20  1  0
 20 21  2  0
 21 22  1  0
 22 23  2  0
 23 24  1  0
 24 25  1  0
 24 26  2  0
 26 27  1  0
 19  2  1  0
 26 20  1  0
  8  3  1  0
 18 11  1  0
  4 28  1  0
  5 29  1  0
  6 30  1  0
  7 31  1  0
 10 32  1  0
 12 33  1  0
 13 34  1  0
 18 35  1  0
 19 36  1  1
 21 37  1  0
 22 38  1  0
 23 39  1  0
M  CHG  1  19   1
M  END
>  <UniqueID>  (6) 
3

>  <SMILES>  (6) 
O=C1c2ccccc2[C@@](O)(c2ccc(F)c(F)c2)[N@H+]1c1cccc(Cl)c1F

>  <Energy>  (6) 
76.62428747210139

>  <Genealogy>  (6) 
O=C1c2ccccc2C(O)(c2ccc(F)c(F)c2)[NH+]1c1cccc(Cl)c1F (protonated)
O=C1c2ccccc2[C@@](O)(c2ccc(F)c(F)c2)[N@H+]1c1cccc(Cl)c1F (chirality)
O=C1c2ccccc2[C@@](O)(c2ccc(F)c(F)c2)[N@H+]1c1cccc(Cl)c1F (3D coordinates assigned)
O=C1c2ccccc2[C@@](O)(c2ccc(F)c(F)c2)[N@H+]1c1cccc(Cl)c1F (nonaromatic ring conformer: 76.62428747210139 kcal/mol)

>  <smiles>  (6) 
O=C1c2ccccc2C(O)(c2ccc(F)c(F)c2)N1c1cccc(Cl)c1F

>  <score_type>  (6) 
oracle

>  <origin>  (6) 
adg

>  <m_score__min__energy>  (6) 
-6.1799999999999997

>  <m_primary>  (6) 
energy

$$$$
6:0
     RDKit          3D

 47 49  0  0  0  0  0  0  0  0999 V2000
   63.4620   31.6910   47.1840 N   0  0  0  0  0  0  0  0  0  0  0  0
   62.9340   33.3150   47.4600 S   0  0  0  0  0  0  0  0  0  0  0  0
   62.1240   33.7540   46.2710 O   0  0  0  0  0  0  0  0  0  0  0  0
   64.1380   34.2030   47.6040 O   0  0  0  0  0  0  0  0  0  0  0  0
   61.9580   33.3980   48.9370 C   0  0  0  0  0  0  0  0  0  0  0  0
   62.5830   33.7980   50.1300 C   0  0  0  0  0  0  0  0  0  0  0  0
   61.8690   33.8390   51.3290 C   0  0  0  0  0  0  0  0  0  0  0  0
   60.5220   33.4790   51.3530 C   0  0  0  0  0  0  0  0  0  0  0  0
   59.8810   33.0890   50.1760 C   0  0  0  0  0  0  0  0  0  0  0  0
   60.5810   33.0580   48.9580 C   0  0  0  0  0  0  0  0  0  0  0  0
   59.8430   32.6790   47.7350 C   0  0  0  0  0  0  0  0  0  0  0  0
   58.9850   33.6000   47.1160 C   0  0  0  0  0  0  0  0  0  0  0  0
   58.2930   33.2480   45.9540 C   0  0  0  0  0  0  0  0  0  0  0  0
   58.4600   31.9740   45.3890 C   0  0  0  0  0  0  0  0  0  0  0  0
   57.6870   31.5900   44.1610 C   0  0  0  0  0  0  0  0  0  0  0  0
   56.4240   30.9820   44.5580 N   0  0  0  0  0  0  0  0  0  0  0  0
   56.2260   29.5820   44.7880 C   0  0  0  0  0  0  0  0  0  0  0  0
   55.1030   29.0770   44.5250 O   0  0  0  0  0  0  0  0  0  0  0  0
   57.3010   28.7080   45.3750 C   0  0  0  0  0  0  0  0  0  0  0  0
   57.4670   27.4010   44.5860 C   0  0  0  0  0  0  0  0  0  0  0  0
   57.3460   26.2250   45.4640 N   0  0  0  0  0  0  0  0  0  0  0  0
   58.4220   25.3960   45.6250 C   0  0  0  0  0  0  0  0  0  0  0  0
   58.3440   24.2880   46.4650 C   0  0  0  0  0  0  0  0  0  0  0  0
   57.1480   24.0410   47.1320 C   0  0  0  0  0  0  0  0  0  0  0  0
   57.0390   23.0460   47.8940 O   0  0  0  0  0  0  0  0  0  0  0  0
   56.0970   24.8800   46.9600 N   0  0  0  0  0  0  0  0  0  0  0  0
   56.1820   25.9620   46.1420 C   0  0  0  0  0  0  0  0  0  0  0  0
   55.1790   26.7150   46.0170 O   0  0  0  0  0  0  0  0  0  0  0  0
   59.3210   31.0530   46.0070 C   0  0  0  0  0  0  0  0  0  0  0  0
   60.0180   31.4080   47.1660 C   0  0  0  0  0  0  0  0  0  0  0  0
   64.5000   31.7210   47.0860 H   0  0  0  0  0  0  0  0  0  0  0  0
   63.6457   34.0818   50.1192 H   0  0  0  0  0  0  0  0  0  0  0  0
   62.3696   34.1557   52.2559 H   0  0  0  0  0  0  0  0  0  0  0  0
   59.9639   33.5024   52.3006 H   0  0  0  0  0  0  0  0  0  0  0  0
   58.8190   32.8035   50.2021 H   0  0  0  0  0  0  0  0  0  0  0  0
   58.8563   34.6038   47.5471 H   0  0  0  0  0  0  0  0  0  0  0  0
   57.6145   33.9725   45.4801 H   0  0  0  0  0  0  0  0  0  0  0  0
   57.4889   32.4871   43.5560 H   0  0  0  0  0  0  0  0  0  0  0  0
   58.2713   30.8717   43.5672 H   0  0  0  0  0  0  0  0  0  0  0  0
   58.2542   29.2569   45.3595 H   0  0  0  0  0  0  0  0  0  0  0  0
   57.0093   28.4516   46.4042 H   0  0  0  0  0  0  0  0  0  0  0  0
   56.6890   27.3500   43.8100 H   0  0  0  0  0  0  0  0  0  0  0  0
   58.4698   27.3942   44.1340 H   0  0  0  0  0  0  0  0  0  0  0  0
   59.3575   25.6064   45.0860 H   0  0  0  0  0  0  0  0  0  0  0  0
   59.2094   23.6222   46.5984 H   0  0  0  0  0  0  0  0  0  0  0  0
   59.4477   30.0482   45.5777 H   0  0  0  0  0  0  0  0  0  0  0  0
   60.7061   30.6884   47.6336 H   0  0  0  0  0  0  0  0  0  0  0  0
  1  2  1  0
  2  3  2  0
  2  4  2  0
  2  5  1  0
  5  6  2  0
  6  7  1  0
  7  8  2  0
  8  9  1  0
  9 10  2  0
 10 11  1  0
 11 12  2  0
 12 13  1  0
 13 14  2  0
 14 15  1  0
 15 16  1  0
 16 17  1  0
 17 18  2  0
 17 19  1  0
 19 20  1  0
 20 21  1  0
 21 22  1  0
 22 23  2  0
 23 24  1  0
 24 25  2  0
 24 26  1  0
 26 27  1  0
 27 28  2  0
 14 29  1  0
 29 30  2  0
 10  5  1  0
 30 11  1  0
 27 21  1  0
  1 31  1  0
  6 32  1  0
  7 33  1  0
  8 34  1  0
  9 35  1  0
 12 36  1  0
 13 37  1  0
 15 38  1  0
 15 39  1  0
 19 40  1  0
 19 41  1  0
 20 42  1  0
 20 43  1  0
 22 44  1  0
 23 45  1  0
 29 46  1  0
 30 47  1  0
M  CHG  3   1  -1  16  -1  26  -1
M  END
>  <UniqueID>  (7) 
4

>  <SMILES>  (7) 
[NH-]S(=O)(=O)c1ccccc1-c1ccc(C[N-]C(=O)CCn2ccc(=O)[n-]c2=O)cc1

>  <Energy>  (7) 
54.96621838812076

>  <Genealogy>  (7) 
[NH-]S(=O)(=O)c1ccccc1-c1ccc(C[N-]C(=O)CCn2ccc(=O)[n-]c2=O)cc1 (protonated)
[NH-]S(=O)(=O)c1ccccc1-c1ccc(C[N-]C(=O)CCn2ccc(=O)[n-]c2=O)cc1 (3D coordinates assigned)
[NH-]S(=O)(=O)c1ccccc1-c1ccc(C[N-]C(=O)CCn2ccc(=O)[n-]c2=O)cc1 (optimized conformer: 54.96621838812076 kcal/mol)

>  <smiles>  (7) 
NS(=O)(=O)c1ccccc1-c1ccc(CNC(=O)CCn2ccc(=O)[nH]c2=O)cc1

>  <score_type>  (7) 
oracle

>  <origin>  (7) 
adg

>  <m_score__min__energy>  (7) 
-14.18

>  <m_primary>  (7) 
energy

$$$$
7:0
     RDKit          3D

 64 67  0  0  1  0  0  0  0  0999 V2000
   66.6860   32.7240   50.3400 C   0  0  0  0  0  0  0  0  0  0  0  0
   65.7380   33.0620   49.3910 O   0  0  0  0  0  0  0  0  0  0  0  0
   64.4600   32.4670   49.2720 C   0  0  0  0  0  0  0  0  0  0  0  0
   63.8700   31.7580   50.2850 C   0  0  0  0  0  0  0  0  0  0  0  0
   62.6580   31.1570   50.2140 C   0  0  0  0  0  0  0  0  0  0  0  0
   61.9030   31.2410   49.0030 C   0  0  0  0  0  0  0  0  0  0  0  0
   60.7010   30.5740   49.0960 N   0  0  0  0  0  0  0  0  0  0  0  0
   60.2080   29.5510   48.6060 C   0  0  0  0  0  0  0  0  0  0  0  0
   60.5070   28.3690   49.1300 N   0  0  0  0  0  0  0  0  0  0  0  0
   59.9600   27.2410   48.6900 C   0  0  0  0  0  0  0  0  0  0  0  0
   59.0540   27.3140   47.6480 C   0  0  0  0  0  0  0  0  0  0  0  0
   58.4250   26.1130   47.1050 C   0  0  0  0  0  0  0  0  0  0  0  0
   57.7690   25.3840   47.8820 O   0  0  0  0  0  0  0  0  0  0  0  0
   58.5260   25.7410   45.7240 N   0  0  0  0  0  0  0  0  0  0  0  0
   57.8440   24.5640   45.3060 C   0  0  0  0  0  0  0  0  0  0  0  0
   58.6920   23.5160   44.9150 C   0  0  0  0  0  0  0  0  0  0  0  0
   58.2290   22.2910   44.5030 C   0  0  0  0  0  0  0  0  0  0  0  0
   56.8650   22.0990   44.4800 C   0  0  0  0  0  0  0  0  0  0  0  0
   56.4190   20.8550   44.0610 O   0  0  0  0  0  0  0  0  0  0  0  0
   56.0330   23.1250   44.8640 C   0  0  0  0  0  0  0  0  0  0  0  0
   56.5100   24.3690   45.2810 C   0  0  0  0  0  0  0  0  0  0  0  0
   55.5850   25.4290   45.6730 C   0  0  0  0  0  0  0  0  0  0  0  0
   56.0890   26.7540   45.7700 N   0  0  0  0  0  0  0  0  0  0  0  0
   54.3790   25.1360   45.9070 O   0  0  0  0  0  0  0  0  0  0  0  0
   58.7600   28.5530   47.1110 C   0  0  0  0  0  0  0  0  0  0  0  0
   57.9450   28.6810   46.1200 N   0  0  0  0  0  0  0  0  0  0  0  0
   58.0550   29.5000   44.9860 C   0  0  2  0  0  0  0  0  0  0  0  0
   58.2510   30.8520   45.1010 O   0  0  0  0  0  0  0  0  0  0  0  0
   58.1030   31.2110   43.7270 C   0  0  2  0  0  0  0  0  0  0  0  0
   58.3300   32.6530   43.4770 C   0  0  0  0  0  0  0  0  0  0  0  0
   58.4310   33.2970   44.7160 O   0  0  0  0  0  0  0  0  0  0  0  0
   56.6440   30.7640   43.5670 C   0  0  1  0  0  0  0  0  0  0  0  0
   56.2470   30.7040   42.2420 O   0  0  0  0  0  0  0  0  0  0  0  0
   56.7120   29.3910   44.2230 C   0  0  2  0  0  0  0  0  0  0  0  0
   55.6630   29.2880   45.1130 O   0  0  0  0  0  0  0  0  0  0  0  0
   59.3240   29.6650   47.5790 N   0  0  0  0  0  0  0  0  0  0  0  0
   62.4820   31.9370   48.0080 C   0  0  0  0  0  0  0  0  0  0  0  0
   63.7430   32.5570   48.1110 C   0  0  0  0  0  0  0  0  0  0  0  0
   66.2671   32.8733   51.3461 H   0  0  0  0  0  0  0  0  0  0  0  0
   66.9707   31.6690   50.2143 H   0  0  0  0  0  0  0  0  0  0  0  0
   67.5740   33.3609   50.2143 H   0  0  0  0  0  0  0  0  0  0  0  0
   64.4244   31.6698   51.2310 H   0  0  0  0  0  0  0  0  0  0  0  0
   62.2585   30.6093   51.0803 H   0  0  0  0  0  0  0  0  0  0  0  0
   61.2210   28.3200   49.8640 H   0  0  0  0  0  0  0  0  0  0  0  0
   60.2213   26.2734   49.1432 H   0  0  0  0  0  0  0  0  0  0  0  0
   59.0960   26.3340   45.0610 H   0  0  0  0  0  0  0  0  0  0  0  0
   59.7788   23.6842   44.9399 H   0  0  0  0  0  0  0  0  0  0  0  0
   58.9221   21.4916   44.2021 H   0  0  0  0  0  0  0  0  0  0  0  0
   57.0290   20.0690   44.0270 H   0  0  0  0  0  0  0  0  0  0  0  0
   54.9460   22.9582   44.8415 H   0  0  0  0  0  0  0  0  0  0  0  0
   56.5980   27.0340   46.6230 H   0  0  0  0  0  0  0  0  0  0  0  0
   55.9210   27.4070   44.9550 H   0  0  0  0  0  0  0  0  0  0  0  0
   58.9786   29.1179   44.5266 H   0  0  0  0  0  0  0  0  0  0  0  0
   58.8173   30.7675   43.0177 H   0  0  0  0  0  0  0  0  0  0  0  0
   59.2611   32.7910   42.9077 H   0  0  0  0  0  0  0  0  0  0  0  0
   57.4981   33.0750   42.8940 H   0  0  0  0  0  0  0  0  0  0  0  0
   58.4290   32.7060   45.4830 H   0  0  0  0  0  0  0  0  0  0  0  0
   55.9031   31.4470   44.0082 H   0  0  0  0  0  0  0  0  0  0  0  0
   55.5710   30.0110   42.0340 H   0  0  0  0  0  0  0  0  0  0  0  0
   56.6521   28.5284   43.5430 H   0  0  0  0  0  0  0  0  0  0  0  0
   55.8570   29.7070   45.9970 H   0  0  0  0  0  0  0  0  0  0  0  0
   59.1180   30.6030   47.1820 H   0  0  0  0  0  0  0  0  0  0  0  0
   61.9380   32.0276   47.0563 H   0  0  0  0  0  0  0  0  0  0  0  0
   64.1517   33.1148   47.2555 H   0  0  0  0  0  0  0  0  0  0  0  0
  1  2  1  0
  2  3  1  0
  3  4  2  0
  4  5  1  0
  5  6  2  0
  6  7  1  0
  7  8  2  0
  8  9  1  0
  9 10  1  0
 10 11  2  0
 11 12  1  0
 12 13  2  0
 12 14  1  0
 14 15  1  0
 15 16  2  0
 16 17  1  0
 17 18  2  0
 18 19  1  0
 18 20  1  0
 20 21  2  0
 21 22  1  0
 22 23  1  0
 22 24  2  0
 11 25  1  0
 25 26  2  0
 26 27  1  0
 27 28  1  0
 28 29  1  0
 29 30  1  0
 30 31  1  0
 29 32  1  0
 32 33  1  0
 32 34  1  0
 34 35  1  0
 25 36  1  0
  6 37  1  0
 37 38  2  0
 38  3  1  0
 36  8  1  0
 21 15  1  0
 34 27  1  0
  1 39  1  0
  1 40  1  0
  1 41  1  0
  4 42  1  0
  5 43  1  0
  9 44  1  0
 10 45  1  0
 14 46  1  0
 16 47  1  0
 17 48  1  0
 19 49  1  0
 20 50  1  0
 23 51  1  0
 23 52  1  0
 27 53  1  6
 29 54  1  6
 30 55  1  0
 30 56  1  0
 31 57  1  0
 32 58  1  1
 33 59  1  0
 34 60  1  6
 35 61  1  0
 36 62  1  0
 37 63  1  0
 38 64  1  0
M  END
>  <smiles>  (8) 
COc1ccc(N=c2[nH]cc(C(=O)Nc3ccc(O)cc3C(N)=O)c(=NC3OC(CO)C(O)C3O)[nH]2)cc1

>  <score_type>  (8) 
oracle

>  <origin>  (8) 
adg

>  <m_score__min__energy>  (8) 
-9.9800000000000004

>  <m_primary>  (8) 
energy

$$$$
8:0
     RDKit          3D

 45 48  0  0  1  0  0  0  0  0999 V2000
   58.5460   29.5770   49.4310 O   0  0  0  0  0  0  0  0  0  0  0  0
   59.4070   28.9370   48.7380 C   0  0  0  0  0  0  0  0  0  0  0  0
   59.0320   27.7880   47.9770 N   0  0  0  0  0  0  0  0  0  0  0  0
   58.3990   27.9440   46.8450 C   0  0  0  0  0  0  0  0  0  0  0  0
   58.0700   29.1180   46.2800 N   0  0  0  0  0  0  0  0  0  0  0  0
   57.4260   28.9480   45.1200 C   0  0  0  0  0  0  0  0  0  0  0  0
   56.7730   30.0660   43.9730 S   0  0  0  0  0  0  0  0  0  0  0  0
   55.4290   30.5580   44.4930 O   0  0  0  0  0  0  0  0  0  0  0  0
   56.5060   29.3430   42.6350 O   0  0  0  0  0  0  0  0  0  0  0  0
   57.7890   31.3990   43.6710 N   0  0  0  0  0  0  0  0  0  0  0  0
   58.1520   32.4480   44.5100 C   0  0  0  0  0  0  0  0  0  0  0  0
   58.5290   33.7130   44.1690 C   0  0  0  0  0  0  0  0  0  0  0  0
   58.8980   34.6640   45.1240 C   0  0  0  0  0  0  0  0  0  0  0  0
   58.8890   34.3410   46.4520 C   0  0  0  0  0  0  0  0  0  0  0  0
   58.5170   33.0810   46.8270 C   0  0  0  0  0  0  0  0  0  0  0  0
   58.5130   32.6880   48.5240 Cl  0  0  0  0  0  0  0  0  0  0  0  0
   58.1620   32.1700   45.8840 C   0  0  0  0  0  0  0  0  0  0  0  0
   57.3630   27.5880   44.9780 N   0  0  0  0  0  0  0  0  0  0  0  0
   57.9430   27.0020   46.0070 N   0  0  0  0  0  0  0  0  0  0  0  0
   60.7650   29.3630   48.7130 N   0  0  0  0  0  0  0  0  0  0  0  0
   61.2210   30.4950   49.4390 C   0  0  0  0  0  0  0  0  0  0  0  0
   61.0910   30.4220   50.8260 C   0  0  0  0  0  0  0  0  0  0  0  0
   61.4980   31.4570   51.6340 C   0  0  0  0  0  0  0  0  0  0  0  0
   62.0380   32.5670   51.0300 C   0  0  0  0  0  0  0  0  0  0  0  0
   62.1800   32.6670   49.6490 C   0  0  0  0  0  0  0  0  0  0  0  0
   62.7190   33.7750   49.0380 C   0  0  0  0  0  0  0  0  0  0  0  0
   62.8500   33.8510   47.6470 C   0  0  0  0  0  0  0  0  0  0  0  0
   62.4250   32.7780   46.8580 C   0  0  0  0  0  0  0  0  0  0  0  0
   61.8770   31.6490   47.4730 C   0  0  0  0  0  0  0  0  0  0  0  0
   61.7640   31.6120   48.8440 C   0  0  0  0  0  0  0  0  0  0  0  0
   58.2180   31.4440   42.6860 H   0  0  0  0  0  0  0  0  0  0  0  0
   58.5432   33.9947   43.1058 H   0  0  0  0  0  0  0  0  0  0  0  0
   59.1962   35.6741   44.8065 H   0  0  0  0  0  0  0  0  0  0  0  0
   59.1774   35.0855   47.2087 H   0  0  0  0  0  0  0  0  0  0  0  0
   57.8675   31.1633   46.2152 H   0  0  0  0  0  0  0  0  0  0  0  0
   56.9300   27.0520   44.1900 H   0  0  0  0  0  0  0  0  0  0  0  0
   58.0340   25.9640   46.1500 H   0  0  0  0  0  0  0  0  0  0  0  0
   61.5080   28.8580   48.1480 H   0  0  0  0  0  0  0  0  0  0  0  0
   60.6552   29.5204   51.2811 H   0  0  0  0  0  0  0  0  0  0  0  0
   61.3949   31.3986   52.7276 H   0  0  0  0  0  0  0  0  0  0  0  0
   62.3696   33.4057   51.6599 H   0  0  0  0  0  0  0  0  0  0  0  0
   63.0546   34.6203   49.6567 H   0  0  0  0  0  0  0  0  0  0  0  0
   63.2835   34.7469   47.1785 H   0  0  0  0  0  0  0  0  0  0  0  0
   62.5211   32.8220   45.7631 H   0  0  0  0  0  0  0  0  0  0  0  0
   61.5386   30.7965   46.8658 H   0  0  0  0  0  0  0  0  0  0  0  0
  1  2  2  0
  2  3  1  0
  3  4  2  0
  4  5  1  0
  5  6  2  0
  6  7  1  0
  7  8  2  0
  7  9  2  0
  7 10  1  0
 10 11  1  0
 11 12  2  0
 12 13  1  0
 13 14  2  0
 14 15  1  0
 15 16  1  0
 15 17  2  0
  6 18  1  0
 18 19  1  0
  2 20  1  0
 20 21  1  0
 21 22  2  0
 22 23  1  0
 23 24  2  0
 24 25  1  0
 25 26  2  0
 26 27  1  0
 27 28  2  0
 28 29  1  0
 29 30  2  0
 19  4  1  0
 30 21  1  0
 17 11  1  0
 30 25  1  0
 10 31  1  0
 12 32  1  0
 13 33  1  0
 14 34  1  0
 17 35  1  0
 18 36  1  0
 19 37  1  0
 20 38  1  0
 22 39  1  0
 23 40  1  0
 24 41  1  0
 26 42  1  0
 27 43  1  0
 28 44  1  0
 29 45  1  0
M  END
>  <smiles>  (9) 
O=C(N=c1nc(S(=O)(=O)Nc2cccc(Cl)c2)[nH][nH]1)Nc1cccc2ccccc12

>  <score_type>  (9) 
oracle

>  <origin>  (9) 
adg

>  <m_score__min__energy>  (9) 
-10.15

>  <m_primary>  (9) 
energy

$$$$
9:0
     RDKit          3D

 38 40  0  0  0  0  0  0  0  0999 V2000
   58.9190   25.8100   47.1680 O   0  0  0  0  0  0  0  0  0  0  0  0
   58.1920   26.8310   47.0320 C   0  0  0  0  0  0  0  0  0  0  0  0
   58.5270   28.0740   47.7960 C   0  0  0  0  0  0  0  0  0  0  0  0
   59.6550   29.1470   46.8400 S   0  0  0  0  0  0  0  0  0  0  0  0
   58.3490   30.0520   45.9940 C   0  0  0  0  0  0  0  0  0  0  0  0
   57.2780   29.3550   45.5360 N   0  0  0  0  0  0  0  0  0  0  0  0
   56.2680   29.9680   44.8700 C   0  0  0  0  0  0  0  0  0  0  0  0
   55.2890   29.2970   44.4560 O   0  0  0  0  0  0  0  0  0  0  0  0
   56.3150   31.3050   44.6490 N   0  0  0  0  0  0  0  0  0  0  0  0
   57.3590   32.0590   45.0830 C   0  0  0  0  0  0  0  0  0  0  0  0
   58.4080   31.4500   45.8080 C   0  0  0  0  0  0  0  0  0  0  0  0
   59.5950   32.2550   46.2970 C   0  0  0  0  0  0  0  0  0  0  0  0
   59.3190   33.7620   46.3370 C   0  0  0  0  0  0  0  0  0  0  0  0
   58.6680   34.2190   45.0340 C   0  0  0  0  0  0  0  0  0  0  0  0
   57.3030   33.5480   44.8620 C   0  0  0  0  0  0  0  0  0  0  0  0
   57.0120   26.7900   46.2140 N   0  0  0  0  0  0  0  0  0  0  0  0
   56.6160   25.6420   45.4450 C   0  0  0  0  0  0  0  0  0  0  0  0
   57.3830   25.2600   44.3330 C   0  0  0  0  0  0  0  0  0  0  0  0
   57.0200   24.1420   43.5760 C   0  0  0  0  0  0  0  0  0  0  0  0
   55.8980   23.3890   43.9310 C   0  0  0  0  0  0  0  0  0  0  0  0
   55.5490   22.3040   43.1980 F   0  0  0  0  0  0  0  0  0  0  0  0
   55.1400   23.7500   45.0480 C   0  0  0  0  0  0  0  0  0  0  0  0
   55.4980   24.8690   45.8070 C   0  0  0  0  0  0  0  0  0  0  0  0
   57.5997   28.6262   48.0088 H   0  0  0  0  0  0  0  0  0  0  0  0
   59.0276   27.7855   48.7320 H   0  0  0  0  0  0  0  0  0  0  0  0
   59.8529   31.9185   47.3120 H   0  0  0  0  0  0  0  0  0  0  0  0
   60.4200   32.0896   45.5884 H   0  0  0  0  0  0  0  0  0  0  0  0
   58.6443   33.9847   47.1767 H   0  0  0  0  0  0  0  0  0  0  0  0
   60.2721   34.2958   46.4659 H   0  0  0  0  0  0  0  0  0  0  0  0
   58.5360   35.3108   45.0571 H   0  0  0  0  0  0  0  0  0  0  0  0
   59.3156   33.9371   44.1907 H   0  0  0  0  0  0  0  0  0  0  0  0
   56.6011   33.9859   45.5870 H   0  0  0  0  0  0  0  0  0  0  0  0
   56.9749   33.7196   43.8262 H   0  0  0  0  0  0  0  0  0  0  0  0
   56.3320   27.5780   46.3040 H   0  0  0  0  0  0  0  0  0  0  0  0
   58.2737   25.8430   44.0560 H   0  0  0  0  0  0  0  0  0  0  0  0
   57.6189   23.8547   42.6992 H   0  0  0  0  0  0  0  0  0  0  0  0
   54.2603   23.1532   45.3309 H   0  0  0  0  0  0  0  0  0  0  0  0
   54.9032   25.1455   46.6900 H   0  0  0  0  0  0  0  0  0  0  0  0
  1  2  2  0
  2  3  1  0
  3  4  1  0
  4  5  1  0
  5  6  1  0
  6  7  1  0
  7  8  2  0
  7  9  1  0
  9 10  2  0
 10 11  1  0
 11 12  1  0
 12 13  1  0
 13 14  1  0
 14 15  1  0
  2 16  1  0
 16 17  1  0
 17 18  2  0
 18 19  1  0
 19 20  2  0
 20 21  1  0
 20 22  1  0
 22 23  2  0
 11  5  2  0
 23 17  1  0
 15 10  1  0
  3 24  1  0
  3 25  1  0
 12 26  1  0
 12 27  1  0
 13 28  1  0
 13 29  1  0
 14 30  1  0
 14 31  1  0
 15 32  1  0
 15 33  1  0
 16 34  1  0
 18 35  1  0
 19 36  1  0
 22 37  1  0
 23 38  1  0
M  CHG  1   6  -1
M  END
>  <UniqueID>  (10) 
5

>  <SMILES>  (10) 
O=C(CSc1[n-]c(=O)nc2c1CCCC2)Nc1ccc(F)cc1

>  <Energy>  (10) 
37.63035507550902

>  <Genealogy>  (10) 
O=C(CSc1[n-]c(=O)nc2c1CCCC2)Nc1ccc(F)cc1 (protonated)
O=C(CSc1[n-]c(=O)nc2c1CCCC2)Nc1ccc(F)cc1 (3D coordinates assigned)
O=C(CSc1[n-]c(=O)nc2c1CCCC2)Nc1ccc(F)cc1 (nonaromatic ring conformer: 37.63035507550902 kcal/mol)

>  <smiles>  (10) 
O=C(CSc1[nH]c(=O)nc2c1CCCC2)Nc1ccc(F)cc1

>  <score_type>  (10) 
oracle

>  <origin>  (10) 
adg

>  <m_score__min__energy>  (10) 
-9.5399999999999991

>  <m_primary>  (10) 
energy

$$$$
10:0
     RDKit          3D

 28 29  0  0  0  0  0  0  0  0999 V2000
   53.8480   29.2420   53.2370 O   0  0  0  0  0  0  0  0  0  0  0  0
   54.0610   29.9310   52.2030 C   0  0  0  0  0  0  0  0  0  0  0  0
   55.3840   30.0140   51.6540 N   0  0  0  0  0  0  0  0  0  0  0  0
   56.5750   30.4000   52.3550 C   0  0  0  0  0  0  0  0  0  0  0  0
   56.5120   30.7190   53.7260 C   0  0  0  0  0  0  0  0  0  0  0  0
   57.6510   31.1400   54.4130 C   0  0  0  0  0  0  0  0  0  0  0  0
   58.8640   31.2640   53.7430 C   0  0  0  0  0  0  0  0  0  0  0  0
   58.9410   30.9750   52.3800 C   0  0  0  0  0  0  0  0  0  0  0  0
   57.8120   30.5430   51.6680 C   0  0  0  0  0  0  0  0  0  0  0  0
   58.0050   30.2760   50.2980 O   0  0  0  0  0  0  0  0  0  0  0  0
   59.1430   29.6780   49.6870 C   0  0  0  0  0  0  0  0  0  0  0  0
   59.6810   28.7140   50.5220 F   0  0  0  0  0  0  0  0  0  0  0  0
   60.0960   30.6530   49.4670 F   0  0  0  0  0  0  0  0  0  0  0  0
   52.9330   30.6090   51.5220 C   0  0  0  0  0  0  0  0  0  0  0  0
   52.3110   31.7280   52.1030 C   0  0  0  0  0  0  0  0  0  0  0  0
   51.2500   32.3530   51.4430 C   0  0  0  0  0  0  0  0  0  0  0  0
   50.6310   33.4590   52.0110 O   0  0  0  0  0  0  0  0  0  0  0  0
   50.8190   31.8790   50.2450 N   0  0  0  0  0  0  0  0  0  0  0  0
   51.3960   30.7990   49.6550 C   0  0  0  0  0  0  0  0  0  0  0  0
   50.9680   30.3900   48.5450 O   0  0  0  0  0  0  0  0  0  0  0  0
   52.4610   30.1450   50.2820 C   0  0  0  0  0  0  0  0  0  0  0  0
   55.5543   30.6352   54.2605 H   0  0  0  0  0  0  0  0  0  0  0  0
   57.5899   31.3742   55.4860 H   0  0  0  0  0  0  0  0  0  0  0  0
   59.7624   31.5899   54.2877 H   0  0  0  0  0  0  0  0  0  0  0  0
   59.9015   31.0876   51.8559 H   0  0  0  0  0  0  0  0  0  0  0  0
   58.8396   29.2112   48.7383 H   0  0  0  0  0  0  0  0  0  0  0  0
   52.6586   32.1102   53.0741 H   0  0  0  0  0  0  0  0  0  0  0  0
   52.9280   29.2700   49.8063 H   0  0  0  0  0  0  0  0  0  0  0  0
  1  2  2  0
  2  3  1  0
  3  4  1  0
  4  5  2  0
  5  6  1  0
  6  7  2  0
  7  8  1  0
  8  9  2  0
  9 10  1  0
 10 11  1  0
 11 12  1  0
 11 13  1  0
  2 14  1  0
 14 15  1  0
 15 16  2  0
 16 17  1  0
 16 18  1  0
 18 19  1  0
 19 20  2  0
 19 21  1  0
  9  4  1  0
 21 14  2  0
  5 22  1  0
  6 23  1  0
  7 24  1  0
  8 25  1  0
 11 26  1  0
 15 27  1  0
 21 28  1  0
M  CHG  3   3  -1  17  -1  18  -1
M  END
>  <UniqueID>  (11) 
6

>  <SMILES>  (11) 
O=C([N-]c1ccccc1OC(F)F)c1cc([O-])[n-]c(=O)c1

>  <Energy>  (11) 
37.562639237368636

>  <Genealogy>  (11) 
O=C([N-]c1ccccc1OC(F)F)c1cc([O-])[n-]c(=O)c1 (protonated)
O=C([N-]c1ccccc1OC(F)F)c1cc([O-])[n-]c(=O)c1 (3D coordinates assigned)
O=C([N-]c1ccccc1OC(F)F)c1cc([O-])[n-]c(=O)c1 (optimized conformer: 37.562639237368636 kcal/mol)

>  <smiles>  (11) 
O=C(Nc1ccccc1OC(F)F)c1cc(O)[nH]c(=O)c1

>  <score_type>  (11) 
oracle

>  <origin>  (11) 
adg

>  <m_score__min__energy>  (11) 
-14.48

>  <m_primary>  (11) 
energy

$$$$
11:0
     RDKit          3D

 57 59  0  0  0  0  0  0  0  0999 V2000
   56.5840   29.3840   44.7590 C   0  0  0  0  0  0  0  0  0  0  0  0
   56.6520   30.6960   43.9840 C   0  0  0  0  0  0  0  0  0  0  0  0
   56.3180   31.8240   44.8490 N   0  0  0  0  0  0  0  0  0  0  0  0
   57.1560   32.9480   45.1570 C   0  0  0  0  0  0  0  0  0  0  0  0
   56.7150   34.1040   44.9180 O   0  0  0  0  0  0  0  0  0  0  0  0
   58.5490   32.7980   45.7350 C   0  0  0  0  0  0  0  0  0  0  0  0
   58.4980   32.6360   47.2760 C   0  0  0  0  0  0  0  0  0  0  0  0
   58.7820   33.9620   48.0000 C   0  0  0  0  0  0  0  0  0  0  0  0
   60.0980   34.5400   47.6290 N   0  0  0  0  0  0  0  0  0  0  0  0
   61.1300   34.4580   48.6870 C   0  0  0  0  0  0  0  0  0  0  0  0
   61.3780   33.0510   49.1940 C   0  0  0  0  0  0  0  0  0  0  0  0
   61.9340   32.8370   50.4660 C   0  0  0  0  0  0  0  0  0  0  0  0
   62.1630   31.5380   50.9270 C   0  0  0  0  0  0  0  0  0  0  0  0
   61.8440   30.4410   50.1240 C   0  0  0  0  0  0  0  0  0  0  0  0
   61.2900   30.6340   48.8470 C   0  0  0  0  0  0  0  0  0  0  0  0
   60.9760   29.5220   47.9900 N   0  0  0  0  0  0  0  0  0  0  0  0
   59.6410   29.0490   47.7500 C   0  0  0  0  0  0  0  0  0  0  0  0
   58.6580   29.8060   47.9810 O   0  0  0  0  0  0  0  0  0  0  0  0
   59.4010   27.7010   47.1810 C   0  0  0  0  0  0  0  0  0  0  0  0
   60.4870   26.8830   46.8190 C   0  0  0  0  0  0  0  0  0  0  0  0
   60.2690   25.6090   46.2880 C   0  0  0  0  0  0  0  0  0  0  0  0
   58.9680   25.1390   46.1020 C   0  0  0  0  0  0  0  0  0  0  0  0
   57.8750   25.9470   46.4380 C   0  0  0  0  0  0  0  0  0  0  0  0
   56.2320   25.3560   46.2080 S   0  0  0  0  0  0  0  0  0  0  0  0
   55.1490   26.6980   46.0830 N   0  0  0  0  0  0  0  0  0  0  0  0
   56.1590   24.5360   44.9510 O   0  0  0  0  0  0  0  0  0  0  0  0
   55.8280   24.4940   47.3710 O   0  0  0  0  0  0  0  0  0  0  0  0
   58.0920   27.2220   46.9780 C   0  0  0  0  0  0  0  0  0  0  0  0
   61.0890   31.9420   48.3800 C   0  0  0  0  0  0  0  0  0  0  0  0
   60.5970   34.1750   46.2830 C   0  0  0  0  0  0  0  0  0  0  0  0
   59.4410   33.9840   45.2970 C   0  0  0  0  0  0  0  0  0  0  0  0
   56.5949   29.5948   45.8385 H   0  0  0  0  0  0  0  0  0  0  0  0
   55.6571   28.8520   44.4987 H   0  0  0  0  0  0  0  0  0  0  0  0
   57.4510   28.7590   44.4987 H   0  0  0  0  0  0  0  0  0  0  0  0
   57.6706   30.8312   43.5914 H   0  0  0  0  0  0  0  0  0  0  0  0
   55.9268   30.6569   43.1578 H   0  0  0  0  0  0  0  0  0  0  0  0
   59.0028   31.8785   45.3368 H   0  0  0  0  0  0  0  0  0  0  0  0
   57.4975   32.2807   47.5636 H   0  0  0  0  0  0  0  0  0  0  0  0
   59.2740   31.9137   47.5694 H   0  0  0  0  0  0  0  0  0  0  0  0
   57.9934   34.6829   47.7385 H   0  0  0  0  0  0  0  0  0  0  0  0
   58.7990   33.7566   49.0805 H   0  0  0  0  0  0  0  0  0  0  0  0
   62.0738   34.8517   48.2818 H   0  0  0  0  0  0  0  0  0  0  0  0
   60.7601   35.0449   49.5406 H   0  0  0  0  0  0  0  0  0  0  0  0
   62.1905   33.6966   51.1026 H   0  0  0  0  0  0  0  0  0  0  0  0
   62.5959   31.3790   51.9256 H   0  0  0  0  0  0  0  0  0  0  0  0
   62.0272   29.4210   50.4928 H   0  0  0  0  0  0  0  0  0  0  0  0
   61.7510   29.1170   47.4160 H   0  0  0  0  0  0  0  0  0  0  0  0
   61.5153   27.2491   46.9550 H   0  0  0  0  0  0  0  0  0  0  0  0
   61.1254   24.9746   46.0157 H   0  0  0  0  0  0  0  0  0  0  0  0
   58.8011   24.1324   45.6909 H   0  0  0  0  0  0  0  0  0  0  0  0
   54.7810   26.7030   45.1060 H   0  0  0  0  0  0  0  0  0  0  0  0
   57.2325   27.8542   47.2457 H   0  0  0  0  0  0  0  0  0  0  0  0
   60.7001   32.1016   47.3635 H   0  0  0  0  0  0  0  0  0  0  0  0
   61.2543   34.9764   45.9145 H   0  0  0  0  0  0  0  0  0  0  0  0
   61.1484   33.2264   46.3613 H   0  0  0  0  0  0  0  0  0  0  0  0
   58.8350   34.9015   45.2668 H   0  0  0  0  0  0  0  0  0  0  0  0
   59.8539   33.7708   44.3000 H   0  0  0  0  0  0  0  0  0  0  0  0
  1  2  1  0
  2  3  1  0
  3  4  1  0
  4  5  2  0
  4  6  1  0
  6  7  1  0
  7  8  1  0
  8  9  1  0
  9 10  1  0
 10 11  1  0
 11 12  2  0
 12 13  1  0
 13 14  2  0
 14 15  1  0
 15 16  1  0
 16 17  1  0
 17 18  2  0
 17 19  1  0
 19 20  2  0
 20 21  1  0
 21 22  2  0
 22 23  1  0
 23 24  1  0
 24 25  1  0
 24 26  2  0
 24 27  2  0
 23 28  2  0
 15 29  2  0
  9 30  1  0
 30 31  1  0
 31  6  1  0
 29 11  1  0
 28 19  1  0
  1 32  1  0
  1 33  1  0
  1 34  1  0
  2 35  1  0
  2 36  1  0
  6 37  1  0
  7 38  1  0
  7 39  1  0
  8 40  1  0
  8 41  1  0
 10 42  1  0
 10 43  1  0
 12 44  1  0
 13 45  1  0
 14 46  1  0
 16 47  1  0
 20 48  1  0
 21 49  1  0
 22 50  1  0
 25 51  1  0
 28 52  1  0
 29 53  1  0
 30 54  1  0
 30 55  1  0
 31 56  1  0
 31 57  1  0
M  CHG  2   3  -1  25  -1
M  END
>  <UniqueID>  (12) 
7

>  <SMILES>  (12) 
CC[N-]C(=O)C1CCN(Cc2cccc(NC(=O)c3cccc(S([NH-])(=O)=O)c3)c2)CC1

>  <Energy>  (12) 
70.49090174862707

>  <Genealogy>  (12) 
CC[N-]C(=O)C1CCN(Cc2cccc(NC(=O)c3cccc(S([NH-])(=O)=O)c3)c2)CC1 (protonated)
CC[N-]C(=O)C1CCN(Cc2cccc(NC(=O)c3cccc(S([NH-])(=O)=O)c3)c2)CC1 (3D coordinates assigned)
CC[N-]C(=O)C1CCN(Cc2cccc(NC(=O)c3cccc(S([NH-])(=O)=O)c3)c2)CC1 (nonaromatic ring conformer: 70.49090174862707 kcal/mol)

>  <smiles>  (12) 
CCNC(=O)C1CCN(Cc2cccc(NC(=O)c3cccc(S(N)(=O)=O)c3)c2)CC1

>  <score_type>  (12) 
oracle

>  <origin>  (12) 
adg

>  <m_score__min__energy>  (12) 
-14.140000000000001

>  <m_primary>  (12) 
energy

$$$$
12:0
     RDKit          3D

 48 50  0  0  0  0  0  0  0  0999 V2000
   59.9720   29.7860   46.3030 C   0  0  0  0  0  0  0  0  0  0  0  0
   59.4540   30.6210   45.2740 O   0  0  0  0  0  0  0  0  0  0  0  0
   58.9210   31.9040   45.4810 C   0  0  0  0  0  0  0  0  0  0  0  0
   59.3680   32.7350   46.5280 C   0  0  0  0  0  0  0  0  0  0  0  0
   58.8120   34.0040   46.7100 C   0  0  0  0  0  0  0  0  0  0  0  0
   57.8070   34.4580   45.8560 C   0  0  0  0  0  0  0  0  0  0  0  0
   57.3550   33.6460   44.8140 C   0  0  0  0  0  0  0  0  0  0  0  0
   57.9080   32.3700   44.6150 C   0  0  0  0  0  0  0  0  0  0  0  0
   57.3960   31.4970   43.4980 C   0  0  0  0  0  0  0  0  0  0  0  0
   57.7100   30.0940   43.7660 N   0  0  0  0  0  0  0  0  0  0  0  0
   56.8280   29.2380   44.5090 C   0  0  0  0  0  0  0  0  0  0  0  0
   55.6870   29.6570   44.8410 O   0  0  0  0  0  0  0  0  0  0  0  0
   57.2530   27.8730   44.8910 C   0  0  0  0  0  0  0  0  0  0  0  0
   57.0820   27.2110   46.4330 S   0  0  0  0  0  0  0  0  0  0  0  0
   57.7580   25.7300   45.9960 C   0  0  0  0  0  0  0  0  0  0  0  0
   57.9450   24.7010   46.7720 N   0  0  0  0  0  0  0  0  0  0  0  0
   57.4890   23.3530   46.5680 C   0  0  0  0  0  0  0  0  0  0  0  0
   57.2490   22.6000   47.5520 O   0  0  0  0  0  0  0  0  0  0  0  0
   57.2370   22.8500   45.1950 C   0  0  0  0  0  0  0  0  0  0  0  0
   58.1720   21.9630   44.6270 C   0  0  0  0  0  0  0  0  0  0  0  0
   57.9720   21.4320   43.3520 C   0  0  0  0  0  0  0  0  0  0  0  0
   56.8390   21.7790   42.6210 C   0  0  0  0  0  0  0  0  0  0  0  0
   55.9060   22.6690   43.1560 C   0  0  0  0  0  0  0  0  0  0  0  0
   56.0970   23.2280   44.4320 C   0  0  0  0  0  0  0  0  0  0  0  0
   55.0810   24.2200   44.9370 C   0  0  0  0  0  0  0  0  0  0  0  0
   58.1180   25.7170   44.6970 N   0  0  0  0  0  0  0  0  0  0  0  0
   57.8420   26.8950   44.0720 C   0  0  0  0  0  0  0  0  0  0  0  0
   58.1630   27.0860   42.6230 C   0  0  0  0  0  0  0  0  0  0  0  0
   59.7101   30.2082   47.2844 H   0  0  0  0  0  0  0  0  0  0  0  0
   59.5400   28.7787   46.2101 H   0  0  0  0  0  0  0  0  0  0  0  0
   61.0664   29.7256   46.2101 H   0  0  0  0  0  0  0  0  0  0  0  0
   60.1593   32.3825   47.2059 H   0  0  0  0  0  0  0  0  0  0  0  0
   59.1678   34.6465   47.5289 H   0  0  0  0  0  0  0  0  0  0  0  0
   57.3701   35.4567   46.0036 H   0  0  0  0  0  0  0  0  0  0  0  0
   56.5607   34.0077   44.1445 H   0  0  0  0  0  0  0  0  0  0  0  0
   56.3055   31.6155   43.4155 H   0  0  0  0  0  0  0  0  0  0  0  0
   57.8799   31.7987   42.5574 H   0  0  0  0  0  0  0  0  0  0  0  0
   58.6120   29.7190   43.3980 H   0  0  0  0  0  0  0  0  0  0  0  0
   59.0716   21.6852   45.1958 H   0  0  0  0  0  0  0  0  0  0  0  0
   58.7106   20.7383   42.9239 H   0  0  0  0  0  0  0  0  0  0  0  0
   56.6788   21.3512   41.6203 H   0  0  0  0  0  0  0  0  0  0  0  0
   55.0120   22.9358   42.5732 H   0  0  0  0  0  0  0  0  0  0  0  0
   55.0825   24.2186   46.0370 H   0  0  0  0  0  0  0  0  0  0  0  0
   55.3369   25.2254   44.5713 H   0  0  0  0  0  0  0  0  0  0  0  0
   54.0820   23.9401   44.5713 H   0  0  0  0  0  0  0  0  0  0  0  0
   59.1047   27.6463   42.5268 H   0  0  0  0  0  0  0  0  0  0  0  0
   58.2694   26.1042   42.1385 H   0  0  0  0  0  0  0  0  0  0  0  0
   57.3509   27.6479   42.1385 H   0  0  0  0  0  0  0  0  0  0  0  0
  1  2  1  0
  2  3  1  0
  3  4  2  0
  4  5  1  0
  5  6  2  0
  6  7  1  0
  7  8  2  0
  8  9  1  0
  9 10  1  0
 10 11  1  0
 11 12  2  0
 11 13  1  0
 13 14  1  0
 14 15  1  0
 15 16  2  3
 16 17  1  0
 17 18  2  0
 17 19  1  0
 19 20  2  0
 20 21  1  0
 21 22  2  0
 22 23  1  0
 23 24  2  0
 24 25  1  0
 15 26  1  0
 26 27  1  0
 27 28  1  0
  8  3  1  0
 27 13  2  0
 24 19  1  0
  1 29  1  0
  1 30  1  0
  1 31  1  0
  4 32  1  0
  5 33  1  0
  6 34  1  0
  7 35  1  0
  9 36  1  0
  9 37  1  0
 10 38  1  0
 20 39  1  0
 21 40  1  0
 22 41  1  0
 23 42  1  0
 25 43  1  0
 25 44  1  0
 25 45  1  0
 28 46  1  0
 28 47  1  0
 28 48  1  0
M  CHG  1  26  -1
M  END
>  <UniqueID>  (13) 
8

>  <SMILES>  (13) 
COc1ccccc1CNC(=O)c1sc(=NC(=O)c2ccccc2C)[n-]c1C

>  <Energy>  (13) 
85.5217512459926

>  <Genealogy>  (13) 
COc1ccccc1CNC(=O)c1sc(=NC(=O)c2ccccc2C)[n-]c1C (protonated)
COc1ccccc1CNC(=O)c1sc(=NC(=O)c2ccccc2C)[n-]c1C (3D coordinates assigned)
COc1ccccc1CNC(=O)c1sc(=NC(=O)c2ccccc2C)[n-]c1C (optimized conformer: 85.5217512459926 kcal/mol)

>  <smiles>  (13) 
COc1ccccc1CNC(=O)c1sc(=NC(=O)c2ccccc2C)[nH]c1C

>  <score_type>  (13) 
oracle

>  <origin>  (13) 
adg

>  <m_score__min__energy>  (13) 
-10.02

>  <m_primary>  (13) 
energy

$$$$
13:0
     RDKit          3D

 42 45  0  0  0  0  0  0  0  0999 V2000
   56.4130   30.6210   44.7390 O   0  0  0  0  0  0  0  0  0  0  0  0
   57.3570   31.3840   45.0720 C   0  0  0  0  0  0  0  0  0  0  0  0
   57.7720   32.4830   44.1330 C   0  0  0  0  0  0  0  0  0  0  0  0
   57.4880   34.1280   44.8780 S   0  0  0  0  0  0  0  0  0  0  0  0
   58.9010   34.0570   45.9780 C   0  0  0  0  0  0  0  0  0  0  0  0
   58.7920   34.2240   47.3210 N   0  0  0  0  0  0  0  0  0  0  0  0
   60.0640   34.1020   47.7280 C   0  0  0  0  0  0  0  0  0  0  0  0
   60.5540   34.1840   49.0290 C   0  0  0  0  0  0  0  0  0  0  0  0
   61.9400   34.0240   49.2160 C   0  0  0  0  0  0  0  0  0  0  0  0
   62.7890   33.7900   48.1090 C   0  0  0  0  0  0  0  0  0  0  0  0
   62.2550   33.7150   46.8070 C   0  0  0  0  0  0  0  0  0  0  0  0
   60.8800   33.8780   46.6620 C   0  0  0  0  0  0  0  0  0  0  0  0
   60.1650   33.8450   45.5290 N   0  0  0  0  0  0  0  0  0  0  0  0
   57.9290   31.2410   46.3800 N   0  0  0  0  0  0  0  0  0  0  0  0
   58.5370   30.0670   46.9300 C   0  0  0  0  0  0  0  0  0  0  0  0
   59.4250   30.1390   48.0160 C   0  0  0  0  0  0  0  0  0  0  0  0
   60.0260   28.9790   48.5130 C   0  0  0  0  0  0  0  0  0  0  0  0
   59.7630   27.7440   47.9170 C   0  0  0  0  0  0  0  0  0  0  0  0
   58.9080   27.6650   46.8090 C   0  0  0  0  0  0  0  0  0  0  0  0
   58.6060   26.1090   46.0430 S   0  0  0  0  0  0  0  0  0  0  0  0
   59.8860   25.3330   45.9000 O   0  0  0  0  0  0  0  0  0  0  0  0
   58.0170   26.3400   44.6810 O   0  0  0  0  0  0  0  0  0  0  0  0
   57.4930   25.1870   46.9960 N   0  0  0  0  0  0  0  0  0  0  0  0
   56.1910   24.8200   46.5350 C   0  0  0  0  0  0  0  0  0  0  0  0
   55.5090   23.2800   46.6060 S   0  0  0  0  0  0  0  0  0  0  0  0
   54.0780   23.8100   45.8930 C   0  0  0  0  0  0  0  0  0  0  0  0
   53.0900   23.0680   45.6560 O   0  0  0  0  0  0  0  0  0  0  0  0
   54.0950   25.1280   45.5990 N   0  0  0  0  0  0  0  0  0  0  0  0
   55.2760   25.6950   45.9580 C   0  0  0  0  0  0  0  0  0  0  0  0
   55.5260   27.0490   45.7530 O   0  0  0  0  0  0  0  0  0  0  0  0
   58.3020   28.8300   46.3170 C   0  0  0  0  0  0  0  0  0  0  0  0
   58.8418   32.3732   43.9020 H   0  0  0  0  0  0  0  0  0  0  0  0
   57.1685   32.4058   43.2166 H   0  0  0  0  0  0  0  0  0  0  0  0
   59.8819   34.3673   49.8803 H   0  0  0  0  0  0  0  0  0  0  0  0
   62.3653   34.0813   50.2288 H   0  0  0  0  0  0  0  0  0  0  0  0
   63.8708   33.6660   48.2651 H   0  0  0  0  0  0  0  0  0  0  0  0
   62.9019   33.5340   45.9359 H   0  0  0  0  0  0  0  0  0  0  0  0
   59.6484   31.1123   48.4773 H   0  0  0  0  0  0  0  0  0  0  0  0
   60.7070   29.0391   49.3747 H   0  0  0  0  0  0  0  0  0  0  0  0
   60.2277   26.8311   48.3178 H   0  0  0  0  0  0  0  0  0  0  0  0
   56.1880   27.3640   45.0540 H   0  0  0  0  0  0  0  0  0  0  0  0
   57.6369   28.7717   45.4428 H   0  0  0  0  0  0  0  0  0  0  0  0
  1  2  2  0
  2  3  1  0
  3  4  1  0
  4  5  1  0
  5  6  2  0
  6  7  1  0
  7  8  2  0
  8  9  1  0
  9 10  2  0
 10 11  1  0
 11 12  2  0
 12 13  1  0
  2 14  1  0
 14 15  1  0
 15 16  2  0
 16 17  1  0
 17 18  2  0
 18 19  1  0
 19 20  1  0
 20 21  2  0
 20 22  2  0
 20 23  1  0
 23 24  1  0
 24 25  1  0
 25 26  1  0
 26 27  2  0
 26 28  1  0
 28 29  1  0
 29 30  1  0
 19 31  2  0
 13  5  1  0
 31 15  1  0
 12  7  1  0
 29 24  2  0
  3 32  1  0
  3 33  1  0
  8 34  1  0
  9 35  1  0
 10 36  1  0
 11 37  1  0
 16 38  1  0
 17 39  1  0
 18 40  1  0
 30 41  1  0
 31 42  1  0
M  CHG  4  13  -1  14  -1  23  -1  28  -1
M  END
>  <UniqueID>  (14) 
9

>  <SMILES>  (14) 
O=C(CSc1nc2ccccc2[n-]1)[N-]c1cccc(S(=O)(=O)[N-]c2sc(=O)[n-]c2O)c1

>  <Energy>  (14) 
116.02521198175033

>  <Genealogy>  (14) 
O=C(CSc1nc2ccccc2[n-]1)[N-]c1cccc(S(=O)(=O)[N-]c2sc(=O)[n-]c2O)c1 (protonated)
O=C(CSc1nc2ccccc2[n-]1)[N-]c1cccc(S(=O)(=O)[N-]c2sc(=O)[n-]c2O)c1 (3D coordinates assigned)
O=C(CSc1nc2ccccc2[n-]1)[N-]c1cccc(S(=O)(=O)[N-]c2sc(=O)[n-]c2O)c1 (optimized conformer: 116.02521198175033 kcal/mol)

>  <smiles>  (14) 
O=C(CSc1nc2ccccc2[nH]1)Nc1cccc(S(=O)(=O)Nc2sc(=O)[nH]c2O)c1

>  <score_type>  (14) 
oracle

>  <origin>  (14) 
adg

>  <m_score__min__energy>  (14) 
-15.380000000000001

>  <m_primary>  (14) 
energy

$$$$
14:0
     RDKit          3D

 57 60  0  0  0  0  0  0  0  0999 V2000
   67.1110   32.7380   50.7360 C   0  0  0  0  0  0  0  0  0  0  0  0
   66.2190   33.0450   49.6700 O   0  0  0  0  0  0  0  0  0  0  0  0
   64.8750   32.6510   49.6270 C   0  0  0  0  0  0  0  0  0  0  0  0
   64.3480   31.6860   50.5020 C   0  0  0  0  0  0  0  0  0  0  0  0
   63.0120   31.3050   50.4040 C   0  0  0  0  0  0  0  0  0  0  0  0
   62.1790   31.8780   49.4360 C   0  0  0  0  0  0  0  0  0  0  0  0
   60.8280   31.5180   49.3840 O   0  0  0  0  0  0  0  0  0  0  0  0
   60.3290   30.4730   48.5920 C   0  0  0  0  0  0  0  0  0  0  0  0
   60.9570   30.1230   47.3840 C   0  0  0  0  0  0  0  0  0  0  0  0
   60.4060   29.1460   46.5590 C   0  0  0  0  0  0  0  0  0  0  0  0
   59.2230   28.5010   46.9270 C   0  0  0  0  0  0  0  0  0  0  0  0
   58.4460   27.3680   45.8290 S   0  0  0  0  0  0  0  0  0  0  0  0
   59.2460   26.0970   45.7560 O   0  0  0  0  0  0  0  0  0  0  0  0
   58.3590   27.9570   44.4480 O   0  0  0  0  0  0  0  0  0  0  0  0
   56.8350   27.0670   46.4100 N   0  0  0  0  0  0  0  0  0  0  0  0
   56.1140   26.0430   46.0780 C   0  0  0  0  0  0  0  0  0  0  0  0
   54.7640   26.0640   45.9670 N   0  0  0  0  0  0  0  0  0  0  0  0
   54.2790   24.8450   45.6100 C   0  0  0  0  0  0  0  0  0  0  0  0
   55.2410   23.8550   45.4400 C   0  0  0  0  0  0  0  0  0  0  0  0
   56.7570   24.5300   45.7480 S   0  0  0  0  0  0  0  0  0  0  0  0
   58.6050   28.8250   48.1410 C   0  0  0  0  0  0  0  0  0  0  0  0
   59.1590   29.8020   48.9770 C   0  0  0  0  0  0  0  0  0  0  0  0
   58.5420   30.0900   50.2500 C   0  0  0  0  0  0  0  0  0  0  0  0
   58.0480   30.3120   51.2720 N   0  0  0  0  0  0  0  0  0  0  0  0
   62.6970   32.8410   48.5480 C   0  0  0  0  0  0  0  0  0  0  0  0
   61.8630   33.3870   47.4570 C   0  0  0  0  0  0  0  0  0  0  0  0
   62.4160   33.8560   46.4260 O   0  0  0  0  0  0  0  0  0  0  0  0
   60.4320   33.3330   47.5470 N   0  0  0  0  0  0  0  0  0  0  0  0
   59.5490   34.2080   46.7790 C   0  0  0  0  0  0  0  0  0  0  0  0
   58.7570   33.3880   45.8050 C   0  0  0  0  0  0  0  0  0  0  0  0
   58.4550   33.8810   44.5260 C   0  0  0  0  0  0  0  0  0  0  0  0
   57.7840   33.0910   43.6470 N   0  0  0  0  0  0  0  0  0  0  0  0
   57.4060   31.8250   43.9790 C   0  0  0  0  0  0  0  0  0  0  0  0
   56.7340   31.0070   43.0660 O   0  0  0  0  0  0  0  0  0  0  0  0
   56.2390   29.7160   43.4080 C   0  0  0  0  0  0  0  0  0  0  0  0
   57.7200   31.3310   45.2460 C   0  0  0  0  0  0  0  0  0  0  0  0
   58.3920   32.1170   46.1270 N   0  0  0  0  0  0  0  0  0  0  0  0
   64.0410   33.2350   48.6650 C   0  0  0  0  0  0  0  0  0  0  0  0
   66.6064   32.9117   51.6979 H   0  0  0  0  0  0  0  0  0  0  0  0
   67.4157   31.6833   50.6669 H   0  0  0  0  0  0  0  0  0  0  0  0
   68.0002   33.3818   50.6669 H   0  0  0  0  0  0  0  0  0  0  0  0
   64.9931   31.2298   51.2673 H   0  0  0  0  0  0  0  0  0  0  0  0
   62.6084   30.5480   51.0925 H   0  0  0  0  0  0  0  0  0  0  0  0
   61.8903   30.6245   47.0884 H   0  0  0  0  0  0  0  0  0  0  0  0
   60.9039   28.8813   45.6145 H   0  0  0  0  0  0  0  0  0  0  0  0
   53.2050   24.6557   45.4662 H   0  0  0  0  0  0  0  0  0  0  0  0
   55.0470   22.8108   45.1538 H   0  0  0  0  0  0  0  0  0  0  0  0
   57.6801   28.3096   48.4392 H   0  0  0  0  0  0  0  0  0  0  0  0
   59.9970   32.6920   48.2450 H   0  0  0  0  0  0  0  0  0  0  0  0
   58.8628   34.7286   47.4633 H   0  0  0  0  0  0  0  0  0  0  0  0
   60.1514   34.9476   46.2312 H   0  0  0  0  0  0  0  0  0  0  0  0
   58.7588   34.8981   44.2376 H   0  0  0  0  0  0  0  0  0  0  0  0
   56.2007   29.6162   44.5028 H   0  0  0  0  0  0  0  0  0  0  0  0
   55.2284   29.5889   42.9927 H   0  0  0  0  0  0  0  0  0  0  0  0
   56.9056   28.9458   42.9927 H   0  0  0  0  0  0  0  0  0  0  0  0
   57.4248   30.3101   45.5299 H   0  0  0  0  0  0  0  0  0  0  0  0
   64.4419   34.0095   47.9946 H   0  0  0  0  0  0  0  0  0  0  0  0
  1  2  1  0
  2  3  1  0
  3  4  2  0
  4  5  1  0
  5  6  2  0
  6  7  1  0
  7  8  1  0
  8  9  2  0
  9 10  1  0
 10 11  2  0
 11 12  1  0
 12 13  2  0
 12 14  2  0
 12 15  1  0
 15 16  2  3
 16 17  1  0
 17 18  1  0
 18 19  2  0
 19 20  1  0
 11 21  1  0
 21 22  2  0
 22 23  1  0
 23 24  3  0
  6 25  1  0
 25 26  1  0
 26 27  2  0
 26 28  1  0
 28 29  1  0
 29 30  1  0
 30 31  2  0
 31 32  1  0
 32 33  2  0
 33 34  1  0
 34 35  1  0
 33 36  1  0
 36 37  2  0
 25 38  2  0
 38  3  1  0
 22  8  1  0
 37 30  1  0
 20 16  1  0
  1 39  1  0
  1 40  1  0
  1 41  1  0
  4 42  1  0
  5 43  1  0
  9 44  1  0
 10 45  1  0
 18 46  1  0
 19 47  1  0
 21 48  1  0
 28 49  1  0
 29 50  1  0
 29 51  1  0
 31 52  1  0
 35 53  1  0
 35 54  1  0
 35 55  1  0
 36 56  1  0
 38 57  1  0
M  CHG  1  17  -1
M  END
>  <UniqueID>  (15) 
10

>  <SMILES>  (15) 
COc1ccc(Oc2ccc(S(=O)(=O)N=c3[n-]ccs3)cc2C#N)c(C(=O)NCc2cnc(OC)cn2)c1

>  <Energy>  (15) 
98.29519687630336

>  <Genealogy>  (15) 
COc1ccc(Oc2ccc(S(=O)(=O)N=c3[n-]ccs3)cc2C#N)c(C(=O)NCc2cnc(OC)cn2)c1 (protonated)
COc1ccc(Oc2ccc(S(=O)(=O)N=c3[n-]ccs3)cc2C#N)c(C(=O)NCc2cnc(OC)cn2)c1 (3D coordinates assigned)
COc1ccc(Oc2ccc(S(=O)(=O)N=c3[n-]ccs3)cc2C#N)c(C(=O)NCc2cnc(OC)cn2)c1 (optimized conformer: 98.29519687630336 kcal/mol)

>  <smiles>  (15) 
COc1ccc(Oc2ccc(S(=O)(=O)N=c3[nH]ccs3)cc2C#N)c(C(=O)NCc2cnc(OC)cn2)c1

>  <score_type>  (15) 
oracle

>  <origin>  (15) 
adg

>  <m_score__min__energy>  (15) 
-10.890000000000001

>  <m_primary>  (15) 
energy

$$$$
15:0
     RDKit          3D

 37 39  0  0  0  0  0  0  0  0999 V2000
   54.7750   29.6760   43.7470 N   0  0  0  0  0  0  0  0  0  0  0  0
   56.0210   30.0430   44.3330 C   0  0  0  0  0  0  0  0  0  0  0  0
   56.6430   31.0490   43.8990 O   0  0  0  0  0  0  0  0  0  0  0  0
   56.5640   29.2520   45.3970 N   0  0  0  0  0  0  0  0  0  0  0  0
   57.7590   29.6170   46.1030 C   0  0  0  0  0  0  0  0  0  0  0  0
   58.0340   30.9830   46.2780 C   0  0  0  0  0  0  0  0  0  0  0  0
   59.1120   31.4030   47.0500 C   0  0  0  0  0  0  0  0  0  0  0  0
   59.9280   30.4690   47.6770 C   0  0  0  0  0  0  0  0  0  0  0  0
   59.6890   29.0970   47.5180 C   0  0  0  0  0  0  0  0  0  0  0  0
   60.5250   28.1770   48.1640 C   0  0  0  0  0  0  0  0  0  0  0  0
   60.3210   26.8120   48.0080 C   0  0  0  0  0  0  0  0  0  0  0  0
   59.2980   26.3440   47.1890 C   0  0  0  0  0  0  0  0  0  0  0  0
   58.4420   27.2390   46.5180 C   0  0  0  0  0  0  0  0  0  0  0  0
   57.4440   26.7370   45.6140 N   0  0  0  0  0  0  0  0  0  0  0  0
   56.2090   25.5800   45.9910 S   0  0  0  0  0  0  0  0  0  0  0  0
   54.8640   26.2000   45.7330 O   0  0  0  0  0  0  0  0  0  0  0  0
   56.3100   25.2160   47.4460 O   0  0  0  0  0  0  0  0  0  0  0  0
   56.4220   24.1200   45.0250 C   0  0  0  0  0  0  0  0  0  0  0  0
   55.8640   24.0460   43.7400 C   0  0  0  0  0  0  0  0  0  0  0  0
   56.0220   22.8910   42.9690 C   0  0  0  0  0  0  0  0  0  0  0  0
   56.7440   21.8060   43.4720 C   0  0  0  0  0  0  0  0  0  0  0  0
   57.3130   21.8770   44.7470 C   0  0  0  0  0  0  0  0  0  0  0  0
   57.1570   23.0300   45.5230 C   0  0  0  0  0  0  0  0  0  0  0  0
   57.7270   23.0820   46.7530 F   0  0  0  0  0  0  0  0  0  0  0  0
   58.6090   28.6420   46.7070 C   0  0  0  0  0  0  0  0  0  0  0  0
   54.2160   28.8810   44.1280 H   0  0  0  0  0  0  0  0  0  0  0  0
   56.0490   28.3910   45.6920 H   0  0  0  0  0  0  0  0  0  0  0  0
   57.3873   31.7319   45.7974 H   0  0  0  0  0  0  0  0  0  0  0  0
   59.3192   32.4772   47.1646 H   0  0  0  0  0  0  0  0  0  0  0  0
   60.7669   30.8086   48.3022 H   0  0  0  0  0  0  0  0  0  0  0  0
   61.3479   28.5378   48.7986 H   0  0  0  0  0  0  0  0  0  0  0  0
   60.9711   26.0976   48.5343 H   0  0  0  0  0  0  0  0  0  0  0  0
   59.1559   25.2604   47.0639 H   0  0  0  0  0  0  0  0  0  0  0  0
   55.2999   24.9003   43.3377 H   0  0  0  0  0  0  0  0  0  0  0  0
   55.5771   22.8362   41.9645 H   0  0  0  0  0  0  0  0  0  0  0  0
   56.8647   20.8964   42.8653 H   0  0  0  0  0  0  0  0  0  0  0  0
   57.8848   21.0238   45.1409 H   0  0  0  0  0  0  0  0  0  0  0  0
  1  2  1  0
  2  3  2  0
  2  4  1  0
  4  5  1  0
  5  6  2  0
  6  7  1  0
  7  8  2  0
  8  9  1  0
  9 10  2  0
 10 11  1  0
 11 12  2  0
 12 13  1  0
 13 14  1  0
 14 15  1  0
 15 16  2  0
 15 17  2  0
 15 18  1  0
 18 19  2  0
 19 20  1  0
 20 21  2  0
 21 22  1  0
 22 23  2  0
 23 24  1  0
 13 25  2  0
 25  5  1  0
 25  9  1  0
 23 18  1  0
  1 26  1  0
  4 27  1  0
  6 28  1  0
  7 29  1  0
  8 30  1  0
 10 31  1  0
 11 32  1  0
 12 33  1  0
 19 34  1  0
 20 35  1  0
 21 36  1  0
 22 37  1  0
M  CHG  2   1  -1  14  -1
M  END
>  <UniqueID>  (16) 
11

>  <SMILES>  (16) 
[NH-]C(=O)Nc1cccc2cccc([N-]S(=O)(=O)c3ccccc3F)c12

>  <Energy>  (16) 
55.622258675354935

>  <Genealogy>  (16) 
[NH-]C(=O)Nc1cccc2cccc([N-]S(=O)(=O)c3ccccc3F)c12 (protonated)
[NH-]C(=O)Nc1cccc2cccc([N-]S(=O)(=O)c3ccccc3F)c12 (3D coordinates assigned)
[NH-]C(=O)Nc1cccc2cccc([N-]S(=O)(=O)c3ccccc3F)c12 (optimized conformer: 55.622258675354935 kcal/mol)

>  <smiles>  (16) 
NC(=O)Nc1cccc2cccc(NS(=O)(=O)c3ccccc3F)c12

>  <score_type>  (16) 
oracle

>  <origin>  (16) 
adg

>  <m_score__min__energy>  (16) 
-11.68

>  <m_primary>  (16) 
energy

$$$$
16:0
     RDKit          3D

 52 55  0  0  0  0  0  0  0  0999 V2000
   59.4870   34.4110   45.4100 C   0  0  0  0  0  0  0  0  0  0  0  0
   60.3710   34.5680   46.6410 C   0  0  0  0  0  0  0  0  0  0  0  0
   61.6890   34.0860   46.3810 O   0  0  0  0  0  0  0  0  0  0  0  0
   62.5340   33.4550   47.3110 C   0  0  0  0  0  0  0  0  0  0  0  0
   63.6410   34.1140   47.8860 C   0  0  0  0  0  0  0  0  0  0  0  0
   64.4220   33.4730   48.8510 C   0  0  0  0  0  0  0  0  0  0  0  0
   64.1100   32.1780   49.2590 C   0  0  0  0  0  0  0  0  0  0  0  0
   63.0210   31.5100   48.6940 C   0  0  0  0  0  0  0  0  0  0  0  0
   62.2440   32.1300   47.7040 C   0  0  0  0  0  0  0  0  0  0  0  0
   61.1330   31.4130   47.1410 N   0  0  0  0  0  0  0  0  0  0  0  0
   60.3880   30.4270   47.8740 C   0  0  0  0  0  0  0  0  0  0  0  0
   60.4660   30.3980   49.1340 O   0  0  0  0  0  0  0  0  0  0  0  0
   59.5020   29.4640   47.1760 C   0  0  0  0  0  0  0  0  0  0  0  0
   59.1880   29.6260   45.8140 C   0  0  0  0  0  0  0  0  0  0  0  0
   58.3590   28.7070   45.1650 C   0  0  0  0  0  0  0  0  0  0  0  0
   57.8460   27.6010   45.8510 C   0  0  0  0  0  0  0  0  0  0  0  0
   56.9830   26.6960   45.1480 N   0  0  0  0  0  0  0  0  0  0  0  0
   55.9620   25.8670   45.7210 C   0  0  0  0  0  0  0  0  0  0  0  0
   54.8150   26.3350   45.9550 O   0  0  0  0  0  0  0  0  0  0  0  0
   56.2440   24.4890   46.0320 N   0  0  0  0  0  0  0  0  0  0  0  0
   56.2560   24.1060   47.4490 C   0  0  0  0  0  0  0  0  0  0  0  0
   55.4090   22.8600   47.6680 C   0  0  0  0  0  0  0  0  0  0  0  0
   56.2710   21.4460   46.9370 S   0  0  0  0  0  0  0  0  0  0  0  0
   56.3070   22.1070   45.2630 C   0  0  0  0  0  0  0  0  0  0  0  0
   56.3190   21.2080   44.2410 N   0  0  0  0  0  0  0  0  0  0  0  0
   56.4700   21.5830   42.9460 C   0  0  0  0  0  0  0  0  0  0  0  0
   56.6570   22.9250   42.6290 C   0  0  0  0  0  0  0  0  0  0  0  0
   56.6380   23.8760   43.6480 C   0  0  0  0  0  0  0  0  0  0  0  0
   56.4150   23.4930   44.9860 C   0  0  0  0  0  0  0  0  0  0  0  0
   58.1450   27.4410   47.2140 C   0  0  0  0  0  0  0  0  0  0  0  0
   58.9730   28.3590   47.8680 C   0  0  0  0  0  0  0  0  0  0  0  0
   58.4493   34.2267   45.7249 H   0  0  0  0  0  0  0  0  0  0  0  0
   59.5297   35.3308   44.8082 H   0  0  0  0  0  0  0  0  0  0  0  0
   59.8438   33.5622   44.8082 H   0  0  0  0  0  0  0  0  0  0  0  0
   60.4232   35.6322   46.9146 H   0  0  0  0  0  0  0  0  0  0  0  0
   59.9368   33.9827   47.4649 H   0  0  0  0  0  0  0  0  0  0  0  0
   63.8907   35.1385   47.5727 H   0  0  0  0  0  0  0  0  0  0  0  0
   65.2863   33.9927   49.2902 H   0  0  0  0  0  0  0  0  0  0  0  0
   64.7216   31.6812   50.0266 H   0  0  0  0  0  0  0  0  0  0  0  0
   62.7712   30.4919   49.0273 H   0  0  0  0  0  0  0  0  0  0  0  0
   60.7420   31.7520   46.2330 H   0  0  0  0  0  0  0  0  0  0  0  0
   59.5976   30.4813   45.2566 H   0  0  0  0  0  0  0  0  0  0  0  0
   58.1074   28.8547   44.1044 H   0  0  0  0  0  0  0  0  0  0  0  0
   57.2908   23.9004   47.7604 H   0  0  0  0  0  0  0  0  0  0  0  0
   55.8392   24.9308   48.0456 H   0  0  0  0  0  0  0  0  0  0  0  0
   55.2675   22.6919   48.7458 H   0  0  0  0  0  0  0  0  0  0  0  0
   54.4231   22.9860   47.1966 H   0  0  0  0  0  0  0  0  0  0  0  0
   56.4446   20.8270   42.1474 H   0  0  0  0  0  0  0  0  0  0  0  0
   56.8181   23.2322   41.5851 H   0  0  0  0  0  0  0  0  0  0  0  0
   56.7988   24.9368   43.4053 H   0  0  0  0  0  0  0  0  0  0  0  0
   57.7258   26.5894   47.7699 H   0  0  0  0  0  0  0  0  0  0  0  0
   59.2126   28.2160   48.9320 H   0  0  0  0  0  0  0  0  0  0  0  0
  1  2  1  0
  2  3  1  0
  3  4  1  0
  4  5  2  0
  5  6  1  0
  6  7  2  0
  7  8  1  0
  8  9  2  0
  9 10  1  0
 10 11  1  0
 11 12  2  0
 11 13  1  0
 13 14  2  0
 14 15  1  0
 15 16  2  0
 16 17  1  0
 17 18  1  0
 18 19  2  0
 18 20  1  0
 20 21  1  0
 21 22  1  0
 22 23  1  0
 23 24  1  0
 24 25  2  0
 25 26  1  0
 26 27  2  0
 27 28  1  0
 28 29  2  0
 16 30  1  0
 30 31  2  0
  9  4  1  0
 31 13  1  0
 29 20  1  0
 29 24  1  0
  1 32  1  0
  1 33  1  0
  1 34  1  0
  2 35  1  0
  2 36  1  0
  5 37  1  0
  6 38  1  0
  7 39  1  0
  8 40  1  0
 10 41  1  0
 14 42  1  0
 15 43  1  0
 21 44  1  0
 21 45  1  0
 22 46  1  0
 22 47  1  0
 26 48  1  0
 27 49  1  0
 28 50  1  0
 30 51  1  0
 31 52  1  0
M  CHG  1  17  -1
M  END
>  <UniqueID>  (17) 
12

>  <SMILES>  (17) 
CCOc1ccccc1NC(=O)c1ccc([N-]C(=O)N2CCSc3ncccc32)cc1

>  <Energy>  (17) 
77.96089571464923

>  <Genealogy>  (17) 
CCOc1ccccc1NC(=O)c1ccc([N-]C(=O)N2CCSc3ncccc32)cc1 (protonated)
CCOc1ccccc1NC(=O)c1ccc([N-]C(=O)N2CCSc3ncccc32)cc1 (3D coordinates assigned)
CCOc1ccccc1NC(=O)c1ccc([N-]C(=O)N2CCSc3ncccc32)cc1 (nonaromatic ring conformer: 77.96089571464923 kcal/mol)

>  <smiles>  (17) 
CCOc1ccccc1NC(=O)c1ccc(NC(=O)N2CCSc3ncccc32)cc1

>  <score_type>  (17) 
oracle

>  <origin>  (17) 
adg

>  <m_score__min__energy>  (17) 
-9.5500000000000007

>  <m_primary>  (17) 
energy

$$$$
17:0
     RDKit          3D

 66 69  0  0  0  0  0  0  0  0999 V2000
   57.0870   33.5170   46.4630 C   0  0  0  0  0  0  0  0  0  0  0  0
   58.4610   33.2420   46.0300 N   0  0  0  0  0  0  0  0  0  0  0  0
   59.4660   34.3080   46.0390 C   0  0  0  0  0  0  0  0  0  0  0  0
   58.8840   31.8840   45.8250 C   0  0  0  0  0  0  0  0  0  0  0  0
   59.9620   31.4870   46.3460 O   0  0  0  0  0  0  0  0  0  0  0  0
   58.0920   30.9490   44.9960 C   0  0  0  0  0  0  0  0  0  0  0  0
   57.3960   31.4130   43.8680 C   0  0  0  0  0  0  0  0  0  0  0  0
   56.6620   30.5260   43.0780 C   0  0  0  0  0  0  0  0  0  0  0  0
   56.6310   29.1660   43.3900 C   0  0  0  0  0  0  0  0  0  0  0  0
   57.3570   28.6770   44.4920 C   0  0  0  0  0  0  0  0  0  0  0  0
   57.3460   27.2880   44.8490 N   0  0  0  0  0  0  0  0  0  0  0  0
   56.6420   26.7040   45.9530 C   0  0  0  0  0  0  0  0  0  0  0  0
   55.3820   26.7170   45.9920 O   0  0  0  0  0  0  0  0  0  0  0  0
   57.4050   25.9800   47.0140 C   0  0  0  0  0  0  0  0  0  0  0  0
   58.5090   26.8520   47.5440 C   0  0  0  0  0  0  0  0  0  0  0  0
   59.8200   26.3600   47.6270 C   0  0  0  0  0  0  0  0  0  0  0  0
   60.8480   27.1740   48.1080 C   0  0  0  0  0  0  0  0  0  0  0  0
   60.5790   28.4900   48.4900 C   0  0  0  0  0  0  0  0  0  0  0  0
   59.2810   29.0100   48.3860 C   0  0  0  0  0  0  0  0  0  0  0  0
   59.0230   30.3520   48.8350 N   0  0  0  0  0  0  0  0  0  0  0  0
   58.4920   30.6810   50.1300 C   0  0  0  0  0  0  0  0  0  0  0  0
   57.9630   29.7880   50.8490 O   0  0  0  0  0  0  0  0  0  0  0  0
   58.5210   32.1060   50.6270 C   0  0  1  0  0  0  0  0  0  0  0  0
   59.1000   32.1720   52.0630 C   0  0  0  0  0  0  0  0  0  0  0  0
   59.9050   33.4470   52.2950 C   0  0  0  0  0  0  0  0  0  0  0  0
   61.0860   33.4920   51.3190 C   0  0  0  0  0  0  0  0  0  0  0  0
   60.6650   33.2170   49.9350 N   0  0  0  0  0  0  0  0  0  0  0  0
   61.6180   33.3920   48.8650 C   0  0  0  0  0  0  0  0  0  0  0  0
   61.5200   34.3810   48.0890 O   0  0  0  0  0  0  0  0  0  0  0  0
   62.7870   32.4590   48.7040 C   0  0  0  0  0  0  0  0  0  0  0  0
   63.6660   32.7180   47.4880 C   0  0  0  0  0  0  0  0  0  0  0  0
   62.6980   31.5490   47.4860 C   0  0  0  0  0  0  0  0  0  0  0  0
   59.2400   33.0350   49.6150 C   0  0  0  0  0  0  0  0  0  0  0  0
   58.2460   28.1810   47.9150 C   0  0  0  0  0  0  0  0  0  0  0  0
   58.0670   29.5760   45.2980 C   0  0  0  0  0  0  0  0  0  0  0  0
   57.0437   33.5257   47.5621 H   0  0  0  0  0  0  0  0  0  0  0  0
   56.7696   34.4965   46.0758 H   0  0  0  0  0  0  0  0  0  0  0  0
   56.4171   32.7351   46.0758 H   0  0  0  0  0  0  0  0  0  0  0  0
   59.7131   34.5701   47.0783 H   0  0  0  0  0  0  0  0  0  0  0  0
   60.3732   33.9610   45.5227 H   0  0  0  0  0  0  0  0  0  0  0  0
   59.0662   35.1932   45.5227 H   0  0  0  0  0  0  0  0  0  0  0  0
   57.4292   32.4807   43.6055 H   0  0  0  0  0  0  0  0  0  0  0  0
   56.1058   30.9007   42.2061 H   0  0  0  0  0  0  0  0  0  0  0  0
   56.0378   28.4748   42.7732 H   0  0  0  0  0  0  0  0  0  0  0  0
   56.7235   25.7162   47.8362 H   0  0  0  0  0  0  0  0  0  0  0  0
   57.8429   25.0677   46.5829 H   0  0  0  0  0  0  0  0  0  0  0  0
   60.0393   25.3291   47.3120 H   0  0  0  0  0  0  0  0  0  0  0  0
   61.8712   26.7778   48.1861 H   0  0  0  0  0  0  0  0  0  0  0  0
   61.3915   29.1234   48.8754 H   0  0  0  0  0  0  0  0  0  0  0  0
   59.1760   31.1320   48.1600 H   0  0  0  0  0  0  0  0  0  0  0  0
   57.4913   32.4865   50.6966 H   0  0  0  0  0  0  0  0  0  0  0  0
   58.2690   32.1404   52.7831 H   0  0  0  0  0  0  0  0  0  0  0  0
   59.7750   31.3140   52.1976 H   0  0  0  0  0  0  0  0  0  0  0  0
   59.2600   34.3227   52.1303 H   0  0  0  0  0  0  0  0  0  0  0  0
   60.2831   33.4583   53.3279 H   0  0  0  0  0  0  0  0  0  0  0  0
   61.5432   34.4917   51.3597 H   0  0  0  0  0  0  0  0  0  0  0  0
   61.8049   32.7148   51.6176 H   0  0  0  0  0  0  0  0  0  0  0  0
   62.9732   32.3200   49.7792 H   0  0  0  0  0  0  0  0  0  0  0  0
   63.4744   33.5914   46.8473 H   0  0  0  0  0  0  0  0  0  0  0  0
   64.7472   32.8319   47.3208 H   0  0  0  0  0  0  0  0  0  0  0  0
   61.8052   31.5756   46.8439 H   0  0  0  0  0  0  0  0  0  0  0  0
   62.7878   30.4658   47.3168 H   0  0  0  0  0  0  0  0  0  0  0  0
   58.7470   34.0183   49.6262 H   0  0  0  0  0  0  0  0  0  0  0  0
   59.1765   32.5635   48.6232 H   0  0  0  0  0  0  0  0  0  0  0  0
   57.2227   28.5770   47.8367 H   0  0  0  0  0  0  0  0  0  0  0  0
   58.6117   29.2033   46.1780 H   0  0  0  0  0  0  0  0  0  0  0  0
  1  2  1  0
  2  3  1  0
  2  4  1  0
  4  5  2  0
  4  6  1  0
  6  7  2  0
  7  8  1  0
  8  9  2  0
  9 10  1  0
 10 11  1  0
 11 12  1  0
 12 13  2  0
 12 14  1  0
 14 15  1  0
 15 16  2  0
 16 17  1  0
 17 18  2  0
 18 19  1  0
 19 20  1  0
 20 21  1  0
 21 22  2  0
 21 23  1  0
 23 24  1  0
 24 25  1  0
 25 26  1  0
 26 27  1  0
 27 28  1  0
 28 29  2  0
 28 30  1  0
 30 31  1  0
 31 32  1  0
 27 33  1  0
 19 34  2  0
 10 35  2  0
 35  6  1  0
 34 15  1  0
 33 23  1  0
 32 30  1  0
  1 36  1  0
  1 37  1  0
  1 38  1  0
  3 39  1  0
  3 40  1  0
  3 41  1  0
  7 42  1  0
  8 43  1  0
  9 44  1  0
 14 45  1  0
 14 46  1  0
 16 47  1  0
 17 48  1  0
 18 49  1  0
 20 50  1  0
 23 51  1  1
 24 52  1  0
 24 53  1  0
 25 54  1  0
 25 55  1  0
 26 56  1  0
 26 57  1  0
 30 58  1  0
 31 59  1  0
 31 60  1  0
 32 61  1  0
 32 62  1  0
 33 63  1  0
 33 64  1  0
 34 65  1  0
 35 66  1  0
M  CHG  1  11  -1
M  END
>  <UniqueID>  (18) 
13

>  <SMILES>  (18) 
CN(C)C(=O)c1cccc([N-]C(=O)Cc2cccc(NC(=O)[C@H]3CCCN(C(=O)C4CC4)C3)c2)c1

>  <Energy>  (18) 
339.68247810770947

>  <Genealogy>  (18) 
CN(C)C(=O)c1cccc([N-]C(=O)Cc2cccc(NC(=O)C3CCCN(C(=O)C4CC4)C3)c2)c1 (protonated)
CN(C)C(=O)c1cccc([N-]C(=O)Cc2cccc(NC(=O)[C@H]3CCCN(C(=O)C4CC4)C3)c2)c1 (chirality)
CN(C)C(=O)c1cccc([N-]C(=O)Cc2cccc(NC(=O)[C@H]3CCCN(C(=O)C4CC4)C3)c2)c1 (3D coordinates assigned)
CN(C)C(=O)c1cccc([N-]C(=O)Cc2cccc(NC(=O)[C@H]3CCCN(C(=O)C4CC4)C3)c2)c1 (nonaromatic ring conformer: 339.68247810770947 kcal/mol)

>  <smiles>  (18) 
CN(C)C(=O)c1cccc(NC(=O)Cc2cccc(NC(=O)C3CCCN(C(=O)C4CC4)C3)c2)c1

>  <score_type>  (18) 
oracle

>  <origin>  (18) 
adg

>  <m_score__min__energy>  (18) 
-12.02

>  <m_primary>  (18) 
energy

$$$$
18:0
     RDKit          3D

 45 47  0  0  0  0  0  0  0  0999 V2000
   63.6360   33.5090   46.3400 N   0  0  0  0  0  0  0  0  0  0  0  0
   63.0030   33.5300   47.3090 C   0  0  0  0  0  0  0  0  0  0  0  0
   62.2140   33.5580   48.5170 C   0  0  0  0  0  0  0  0  0  0  0  0
   62.8740   33.6570   49.7500 C   0  0  0  0  0  0  0  0  0  0  0  0
   62.1420   33.7600   50.9350 C   0  0  0  0  0  0  0  0  0  0  0  0
   60.7470   33.7770   50.8960 C   0  0  0  0  0  0  0  0  0  0  0  0
   60.0790   33.6810   49.6730 C   0  0  0  0  0  0  0  0  0  0  0  0
   60.8000   33.5490   48.4760 C   0  0  0  0  0  0  0  0  0  0  0  0
   60.0760   33.4520   47.2370 N   0  0  0  0  0  0  0  0  0  0  0  0
   58.9530   32.5740   47.0610 C   0  0  0  0  0  0  0  0  0  0  0  0
   58.3840   32.0810   48.0750 O   0  0  0  0  0  0  0  0  0  0  0  0
   58.4330   32.2590   45.7070 C   0  0  0  0  0  0  0  0  0  0  0  0
   58.6130   33.1720   44.6530 C   0  0  0  0  0  0  0  0  0  0  0  0
   58.1070   32.8940   43.3820 C   0  0  0  0  0  0  0  0  0  0  0  0
   57.4170   31.7030   43.1470 C   0  0  0  0  0  0  0  0  0  0  0  0
   57.2260   30.7850   44.1840 C   0  0  0  0  0  0  0  0  0  0  0  0
   56.3450   29.2930   43.8730 S   0  0  0  0  0  0  0  0  0  0  0  0
   54.8970   29.6020   43.6150 O   0  0  0  0  0  0  0  0  0  0  0  0
   56.9380   28.6080   42.6730 O   0  0  0  0  0  0  0  0  0  0  0  0
   56.4760   28.2690   45.2660 N   0  0  0  0  0  0  0  0  0  0  0  0
   57.6850   27.6580   45.7430 C   0  0  0  0  0  0  0  0  0  0  0  0
   58.8710   28.4000   45.9010 C   0  0  0  0  0  0  0  0  0  0  0  0
   60.0360   27.7830   46.3630 C   0  0  0  0  0  0  0  0  0  0  0  0
   60.0310   26.4230   46.6750 C   0  0  0  0  0  0  0  0  0  0  0  0
   58.8610   25.6770   46.5310 C   0  0  0  0  0  0  0  0  0  0  0  0
   57.6820   26.2850   46.0700 C   0  0  0  0  0  0  0  0  0  0  0  0
   56.2080   25.3220   45.9010 S   0  0  0  0  0  0  0  0  0  0  0  0
   54.8240   26.3550   45.9950 N   0  0  0  0  0  0  0  0  0  0  0  0
   56.1250   24.3040   47.0020 O   0  0  0  0  0  0  0  0  0  0  0  0
   56.2240   24.6070   44.5790 O   0  0  0  0  0  0  0  0  0  0  0  0
   57.7270   31.0660   45.4630 C   0  0  0  0  0  0  0  0  0  0  0  0
   63.9735   33.6535   49.7842 H   0  0  0  0  0  0  0  0  0  0  0  0
   62.6655   33.8278   51.9001 H   0  0  0  0  0  0  0  0  0  0  0  0
   60.1726   33.8661   51.8299 H   0  0  0  0  0  0  0  0  0  0  0  0
   58.9796   33.7091   49.6478 H   0  0  0  0  0  0  0  0  0  0  0  0
   60.2420   34.1940   46.5200 H   0  0  0  0  0  0  0  0  0  0  0  0
   59.1562   34.1118   44.8311 H   0  0  0  0  0  0  0  0  0  0  0  0
   58.2522   33.6148   42.5638 H   0  0  0  0  0  0  0  0  0  0  0  0
   57.0226   31.4865   42.1432 H   0  0  0  0  0  0  0  0  0  0  0  0
   58.8803   29.4730   45.6590 H   0  0  0  0  0  0  0  0  0  0  0  0
   60.9587   28.3701   46.4810 H   0  0  0  0  0  0  0  0  0  0  0  0
   60.9506   25.9385   47.0349 H   0  0  0  0  0  0  0  0  0  0  0  0
   58.8619   24.6056   46.7802 H   0  0  0  0  0  0  0  0  0  0  0  0
   55.1680   27.3370   46.0280 H   0  0  0  0  0  0  0  0  0  0  0  0
   57.5672   30.3489   46.2817 H   0  0  0  0  0  0  0  0  0  0  0  0
  1  2  3  0
  2  3  1  0
  3  4  2  0
  4  5  1  0
  5  6  2  0
  6  7  1  0
  7  8  2  0
  8  9  1  0
  9 10  1  0
 10 11  2  0
 10 12  1  0
 12 13  2  0
 13 14  1  0
 14 15  2  0
 15 16  1  0
 16 17  1  0
 17 18  2  0
 17 19  2  0
 17 20  1  0
 20 21  1  0
 21 22  2  0
 22 23  1  0
 23 24  2  0
 24 25  1  0
 25 26  2  0
 26 27  1  0
 27 28  1  0
 27 29  2  0
 27 30  2  0
 16 31  2  0
  8  3  1  0
 31 12  1  0
 26 21  1  0
  4 32  1  0
  5 33  1  0
  6 34  1  0
  7 35  1  0
  9 36  1  0
 13 37  1  0
 14 38  1  0
 15 39  1  0
 22 40  1  0
 23 41  1  0
 24 42  1  0
 25 43  1  0
 28 44  1  0
 31 45  1  0
M  CHG  2  20  -1  28  -1
M  END
>  <UniqueID>  (19) 
14

>  <SMILES>  (19) 
N#Cc1ccccc1NC(=O)c1cccc(S(=O)(=O)[N-]c2ccccc2S([NH-])(=O)=O)c1

>  <Energy>  (19) 
59.96505759445978

>  <Genealogy>  (19) 
N#Cc1ccccc1NC(=O)c1cccc(S(=O)(=O)[N-]c2ccccc2S([NH-])(=O)=O)c1 (protonated)
N#Cc1ccccc1NC(=O)c1cccc(S(=O)(=O)[N-]c2ccccc2S([NH-])(=O)=O)c1 (3D coordinates assigned)
N#Cc1ccccc1NC(=O)c1cccc(S(=O)(=O)[N-]c2ccccc2S([NH-])(=O)=O)c1 (optimized conformer: 59.96505759445978 kcal/mol)

>  <smiles>  (19) 
N#Cc1ccccc1NC(=O)c1cccc(S(=O)(=O)Nc2ccccc2S(N)(=O)=O)c1

>  <score_type>  (19) 
oracle

>  <origin>  (19) 
adg

>  <m_score__min__energy>  (19) 
-14.83

>  <m_primary>  (19) 
energy

$$$$
19:0
     RDKit          3D

 49 52  0  0  0  0  0  0  0  0999 V2000
   55.1540   26.3930   45.9630 N   0  0  0  0  0  0  0  0  0  0  0  0
   56.8100   25.9020   46.0150 S   0  0  0  0  0  0  0  0  0  0  0  0
   57.0880   25.2340   47.3320 O   0  0  0  0  0  0  0  0  0  0  0  0
   57.0800   24.9210   44.9080 O   0  0  0  0  0  0  0  0  0  0  0  0
   57.8460   27.3120   45.8210 C   0  0  0  0  0  0  0  0  0  0  0  0
   59.2340   27.1500   45.7330 C   0  0  0  0  0  0  0  0  0  0  0  0
   60.0610   28.2590   45.5400 C   0  0  0  0  0  0  0  0  0  0  0  0
   59.5070   29.5380   45.4380 C   0  0  0  0  0  0  0  0  0  0  0  0
   58.1200   29.7200   45.5420 C   0  0  0  0  0  0  0  0  0  0  0  0
   57.5700   31.0410   45.3960 N   0  0  0  0  0  0  0  0  0  0  0  0
   57.6300   31.8040   44.1820 C   0  0  0  0  0  0  0  0  0  0  0  0
   57.8530   31.2380   43.0770 O   0  0  0  0  0  0  0  0  0  0  0  0
   57.4070   33.2840   44.2200 C   0  0  0  0  0  0  0  0  0  0  0  0
   58.3050   33.8960   45.1950 N   0  0  0  0  0  0  0  0  0  0  0  0
   59.1930   34.8790   44.9480 C   0  0  0  0  0  0  0  0  0  0  0  0
   59.9270   35.1440   46.0860 C   0  0  0  0  0  0  0  0  0  0  0  0
   59.4680   34.2690   47.0580 C   0  0  0  0  0  0  0  0  0  0  0  0
   59.9350   34.1660   48.4540 C   0  0  0  0  0  0  0  0  0  0  0  0
   59.4910   34.9730   49.3140 O   0  0  0  0  0  0  0  0  0  0  0  0
   60.8960   33.1220   48.8730 C   0  0  0  0  0  0  0  0  0  0  0  0
   62.2320   33.4960   49.0920 C   0  0  0  0  0  0  0  0  0  0  0  0
   63.1940   32.5450   49.4310 C   0  0  0  0  0  0  0  0  0  0  0  0
   62.8410   31.2030   49.5560 C   0  0  0  0  0  0  0  0  0  0  0  0
   61.5150   30.7980   49.3520 C   0  0  0  0  0  0  0  0  0  0  0  0
   61.1630   29.4450   49.4870 C   0  0  0  0  0  0  0  0  0  0  0  0
   59.8400   29.0410   49.3050 C   0  0  0  0  0  0  0  0  0  0  0  0
   58.8570   29.9790   48.9940 C   0  0  0  0  0  0  0  0  0  0  0  0
   59.1890   31.3280   48.8520 C   0  0  0  0  0  0  0  0  0  0  0  0
   60.5230   31.7600   49.0130 C   0  0  0  0  0  0  0  0  0  0  0  0
   58.4690   33.5120   46.4770 C   0  0  0  0  0  0  0  0  0  0  0  0
   57.2900   28.5960   45.7130 C   0  0  0  0  0  0  0  0  0  0  0  0
   55.1450   27.4370   46.0070 H   0  0  0  0  0  0  0  0  0  0  0  0
   59.6748   26.1456   45.8162 H   0  0  0  0  0  0  0  0  0  0  0  0
   61.1505   28.1254   45.4682 H   0  0  0  0  0  0  0  0  0  0  0  0
   60.1621   30.4066   45.2753 H   0  0  0  0  0  0  0  0  0  0  0  0
   57.0500   31.4520   46.2040 H   0  0  0  0  0  0  0  0  0  0  0  0
   57.6050   33.7085   43.2247 H   0  0  0  0  0  0  0  0  0  0  0  0
   56.3653   33.4864   44.5095 H   0  0  0  0  0  0  0  0  0  0  0  0
   59.3146   35.3933   43.9833 H   0  0  0  0  0  0  0  0  0  0  0  0
   60.7187   35.8992   46.1992 H   0  0  0  0  0  0  0  0  0  0  0  0
   62.5232   34.5523   48.9949 H   0  0  0  0  0  0  0  0  0  0  0  0
   64.2356   32.8556   49.6004 H   0  0  0  0  0  0  0  0  0  0  0  0
   63.6070   30.4576   49.8161 H   0  0  0  0  0  0  0  0  0  0  0  0
   61.9335   28.7009   49.7372 H   0  0  0  0  0  0  0  0  0  0  0  0
   59.5719   27.9791   49.4072 H   0  0  0  0  0  0  0  0  0  0  0  0
   57.8144   29.6550   48.8597 H   0  0  0  0  0  0  0  0  0  0  0  0
   58.4039   32.0604   48.6126 H   0  0  0  0  0  0  0  0  0  0  0  0
   57.8967   32.7196   46.9816 H   0  0  0  0  0  0  0  0  0  0  0  0
   56.1987   28.7249   45.7623 H   0  0  0  0  0  0  0  0  0  0  0  0
  1  2  1  0
  2  3  2  0
  2  4  2  0
  2  5  1  0
  5  6  2  0
  6  7  1  0
  7  8  2  0
  8  9  1  0
  9 10  1  0
 10 11  1  0
 11 12  2  0
 11 13  1  0
 13 14  1  0
 14 15  1  0
 15 16  2  0
 16 17  1  0
 17 18  1  0
 18 19  2  0
 18 20  1  0
 20 21  2  0
 21 22  1  0
 22 23  2  0
 23 24  1  0
 24 25  2  0
 25 26  1  0
 26 27  2  0
 27 28  1  0
 28 29  2  0
 17 30  2  0
  9 31  2  0
 31  5  1  0
 30 14  1  0
 29 20  1  0
 29 24  1  0
  1 32  1  0
  6 33  1  0
  7 34  1  0
  8 35  1  0
 10 36  1  0
 13 37  1  0
 13 38  1  0
 15 39  1  0
 16 40  1  0
 21 41  1  0
 22 42  1  0
 23 43  1  0
 25 44  1  0
 26 45  1  0
 27 46  1  0
 28 47  1  0
 30 48  1  0
 31 49  1  0
M  CHG  1   1  -1
M  END
>  <UniqueID>  (20) 
15

>  <SMILES>  (20) 
[NH-]S(=O)(=O)c1cccc(NC(=O)Cn2ccc(C(=O)c3cccc4ccccc34)c2)c1

>  <Energy>  (20) 
90.63921519627903

>  <Genealogy>  (20) 
[NH-]S(=O)(=O)c1cccc(NC(=O)Cn2ccc(C(=O)c3cccc4ccccc34)c2)c1 (protonated)
[NH-]S(=O)(=O)c1cccc(NC(=O)Cn2ccc(C(=O)c3cccc4ccccc34)c2)c1 (3D coordinates assigned)
[NH-]S(=O)(=O)c1cccc(NC(=O)Cn2ccc(C(=O)c3cccc4ccccc34)c2)c1 (optimized conformer: 90.63921519627903 kcal/mol)

>  <smiles>  (20) 
NS(=O)(=O)c1cccc(NC(=O)Cn2ccc(C(=O)c3cccc4ccccc34)c2)c1

>  <score_type>  (20) 
oracle

>  <origin>  (20) 
adg

>  <m_score__min__energy>  (20) 
-13.99

>  <m_primary>  (20) 
energy

$$$$
20:0
     RDKit          3D

 50 52  0  0  0  0  0  0  0  0999 V2000
   62.9460   33.6690   46.8110 C   0  0  0  0  0  0  0  0  0  0  0  0
   63.2340   32.6820   47.6660 C   0  0  0  0  0  0  0  0  0  0  0  0
   62.4430   32.4890   48.9280 C   0  0  0  0  0  0  0  0  0  0  0  0
   61.0640   32.1170   48.6090 N   0  0  0  0  0  0  0  0  0  0  0  0
   60.7660   30.8240   48.0770 C   0  0  0  0  0  0  0  0  0  0  0  0
   60.1560   29.8580   48.8850 C   0  0  0  0  0  0  0  0  0  0  0  0
   59.8410   28.6010   48.3620 C   0  0  0  0  0  0  0  0  0  0  0  0
   60.1470   28.2880   47.0230 C   0  0  0  0  0  0  0  0  0  0  0  0
   59.8100   26.9560   46.4670 C   0  0  0  0  0  0  0  0  0  0  0  0
   60.5400   25.9640   46.7410 O   0  0  0  0  0  0  0  0  0  0  0  0
   58.6750   26.8180   45.5960 N   0  0  0  0  0  0  0  0  0  0  0  0
   57.7370   27.6890   45.3390 C   0  0  0  0  0  0  0  0  0  0  0  0
   57.8670   28.9250   44.7260 C   0  0  0  0  0  0  0  0  0  0  0  0
   56.5690   29.4070   44.6930 C   0  0  0  0  0  0  0  0  0  0  0  0
   56.1420   30.7210   44.1230 C   0  0  0  0  0  0  0  0  0  0  0  0
   55.7190   28.5140   45.2370 N   0  0  0  0  0  0  0  0  0  0  0  0
   56.4390   27.4770   45.6350 N   0  0  0  0  0  0  0  0  0  0  0  0
   55.8740   26.2910   46.2630 C   0  0  0  0  0  0  0  0  0  0  0  0
   60.7700   29.2620   46.2200 C   0  0  0  0  0  0  0  0  0  0  0  0
   61.0710   30.5230   46.7430 C   0  0  0  0  0  0  0  0  0  0  0  0
   59.7760   33.2610   48.8340 S   0  0  0  0  0  0  0  0  0  0  0  0
   60.3260   34.5530   49.3720 O   0  0  0  0  0  0  0  0  0  0  0  0
   58.7790   32.7130   49.8200 O   0  0  0  0  0  0  0  0  0  0  0  0
   59.0060   33.5780   47.2840 C   0  0  0  0  0  0  0  0  0  0  0  0
   57.7290   33.0600   47.0230 C   0  0  0  0  0  0  0  0  0  0  0  0
   57.0910   33.3450   45.8110 C   0  0  0  0  0  0  0  0  0  0  0  0
   57.7230   34.1490   44.8580 C   0  0  0  0  0  0  0  0  0  0  0  0
   58.9920   34.6760   45.1190 C   0  0  0  0  0  0  0  0  0  0  0  0
   59.6330   34.3940   46.3300 C   0  0  0  0  0  0  0  0  0  0  0  0
   63.5389   33.7916   45.8926 H   0  0  0  0  0  0  0  0  0  0  0  0
   62.1162   34.3583   47.0261 H   0  0  0  0  0  0  0  0  0  0  0  0
   64.0660   31.9985   47.4408 H   0  0  0  0  0  0  0  0  0  0  0  0
   62.9050   31.6910   49.5278 H   0  0  0  0  0  0  0  0  0  0  0  0
   62.4381   33.4311   49.4958 H   0  0  0  0  0  0  0  0  0  0  0  0
   59.9237   30.0888   49.9351 H   0  0  0  0  0  0  0  0  0  0  0  0
   59.3508   27.8510   49.0001 H   0  0  0  0  0  0  0  0  0  0  0  0
   58.7827   29.4081   44.3543 H   0  0  0  0  0  0  0  0  0  0  0  0
   55.9150   31.4195   44.9419 H   0  0  0  0  0  0  0  0  0  0  0  0
   56.9525   31.1329   43.5038 H   0  0  0  0  0  0  0  0  0  0  0  0
   55.2442   30.5777   43.5038 H   0  0  0  0  0  0  0  0  0  0  0  0
   55.9241   26.3962   47.3568 H   0  0  0  0  0  0  0  0  0  0  0  0
   54.8247   26.1767   45.9533 H   0  0  0  0  0  0  0  0  0  0  0  0
   56.4464   25.4042   45.9533 H   0  0  0  0  0  0  0  0  0  0  0  0
   61.0215   29.0295   45.1747 H   0  0  0  0  0  0  0  0  0  0  0  0
   61.5488   31.2813   46.1053 H   0  0  0  0  0  0  0  0  0  0  0  0
   57.2285   32.4289   47.7722 H   0  0  0  0  0  0  0  0  0  0  0  0
   56.0904   32.9358   45.6076 H   0  0  0  0  0  0  0  0  0  0  0  0
   57.2224   34.3671   43.9031 H   0  0  0  0  0  0  0  0  0  0  0  0
   59.4867   35.3131   44.3710 H   0  0  0  0  0  0  0  0  0  0  0  0
   60.6296   34.8123   46.5346 H   0  0  0  0  0  0  0  0  0  0  0  0
  1  2  2  0
  2  3  1  0
  3  4  1  0
  4  5  1  0
  5  6  2  0
  6  7  1  0
  7  8  2  0
  8  9  1  0
  9 10  2  0
  9 11  1  0
 11 12  2  3
 12 13  1  0
 13 14  2  0
 14 15  1  0
 14 16  1  0
 16 17  1  0
 17 18  1  0
  8 19  1  0
 19 20  2  0
  4 21  1  0
 21 22  2  0
 21 23  2  0
 21 24  1  0
 24 25  2  0
 25 26  1  0
 26 27  2  0
 27 28  1  0
 28 29  2  0
 20  5  1  0
 29 24  1  0
 17 12  1  0
  1 30  1  0
  1 31  1  0
  2 32  1  0
  3 33  1  0
  3 34  1  0
  6 35  1  0
  7 36  1  0
 13 37  1  0
 15 38  1  0
 15 39  1  0
 15 40  1  0
 18 41  1  0
 18 42  1  0
 18 43  1  0
 19 44  1  0
 20 45  1  0
 25 46  1  0
 26 47  1  0
 27 48  1  0
 28 49  1  0
 29 50  1  0
M  CHG  1  16  -1
M  END
>  <UniqueID>  (21) 
16

>  <SMILES>  (21) 
C=CCN(c1ccc(C(=O)N=c2cc(C)[n-]n2C)cc1)S(=O)(=O)c1ccccc1

>  <Energy>  (21) 
89.59057189660028

>  <Genealogy>  (21) 
C=CCN(c1ccc(C(=O)N=c2cc(C)[n-]n2C)cc1)S(=O)(=O)c1ccccc1 (protonated)
C=CCN(c1ccc(C(=O)N=c2cc(C)[n-]n2C)cc1)S(=O)(=O)c1ccccc1 (3D coordinates assigned)
C=CCN(c1ccc(C(=O)N=c2cc(C)[n-]n2C)cc1)S(=O)(=O)c1ccccc1 (optimized conformer: 89.59057189660028 kcal/mol)

>  <smiles>  (21) 
C=CCN(c1ccc(C(=O)N=c2cc(C)[nH]n2C)cc1)S(=O)(=O)c1ccccc1

>  <score_type>  (21) 
oracle

>  <origin>  (21) 
adg

>  <m_score__min__energy>  (21) 
-10.77

>  <m_primary>  (21) 
energy

$$$$
21:0
     RDKit          3D

 46 47  0  0  0  0  0  0  0  0999 V2000
   57.3210   31.6490   42.1750 C   0  0  0  0  0  0  0  0  0  0  0  0
   57.7480   31.6720   43.6470 C   0  0  0  0  0  0  0  0  0  0  0  0
   57.8900   33.1120   44.1520 C   0  0  0  0  0  0  0  0  0  0  0  0
   56.7650   30.9130   44.4940 C   0  0  0  0  0  0  0  0  0  0  0  0
   55.5630   30.8300   44.1260 O   0  0  0  0  0  0  0  0  0  0  0  0
   57.2160   30.2320   45.6740 N   0  0  0  0  0  0  0  0  0  0  0  0
   58.1370   29.1340   45.7270 C   0  0  0  0  0  0  0  0  0  0  0  0
   59.5070   29.2960   45.4580 C   0  0  0  0  0  0  0  0  0  0  0  0
   60.3630   28.1930   45.4860 C   0  0  0  0  0  0  0  0  0  0  0  0
   59.8620   26.9210   45.7730 C   0  0  0  0  0  0  0  0  0  0  0  0
   58.4940   26.7370   46.0340 C   0  0  0  0  0  0  0  0  0  0  0  0
   57.9680   25.3810   46.3180 C   0  0  0  0  0  0  0  0  0  0  0  0
   58.7740   24.4470   46.5850 O   0  0  0  0  0  0  0  0  0  0  0  0
   56.5550   25.1160   46.2990 N   0  0  0  0  0  0  0  0  0  0  0  0
   56.0230   23.7480   46.3080 C   0  0  1  0  0  0  0  0  0  0  0  0
   54.4900   23.7360   46.4940 C   0  0  0  0  0  0  0  0  0  0  0  0
   53.7760   24.7280   45.6210 C   0  0  0  0  0  0  0  0  0  0  0  0
   54.0470   25.9550   45.6990 O   0  0  0  0  0  0  0  0  0  0  0  0
   52.8240   24.2910   44.7080 O   0  0  0  0  0  0  0  0  0  0  0  0
   56.4380   22.9850   45.0620 C   0  0  0  0  0  0  0  0  0  0  0  0
   55.9100   23.3100   43.7970 C   0  0  0  0  0  0  0  0  0  0  0  0
   56.2840   22.5790   42.6660 C   0  0  0  0  0  0  0  0  0  0  0  0
   57.1770   21.5110   42.7850 C   0  0  0  0  0  0  0  0  0  0  0  0
   57.6940   21.1700   44.0380 C   0  0  0  0  0  0  0  0  0  0  0  0
   57.3240   21.8990   45.1720 C   0  0  0  0  0  0  0  0  0  0  0  0
   57.6360   27.8520   45.9910 C   0  0  0  0  0  0  0  0  0  0  0  0
   56.2244   31.5899   42.1122 H   0  0  0  0  0  0  0  0  0  0  0  0
   57.6678   32.5671   41.6782 H   0  0  0  0  0  0  0  0  0  0  0  0
   57.7644   30.7734   41.6782 H   0  0  0  0  0  0  0  0  0  0  0  0
   58.7295   31.1815   43.7257 H   0  0  0  0  0  0  0  0  0  0  0  0
   57.8904   33.1164   45.2520 H   0  0  0  0  0  0  0  0  0  0  0  0
   58.8346   33.5384   43.7832 H   0  0  0  0  0  0  0  0  0  0  0  0
   57.0469   33.7147   43.7832 H   0  0  0  0  0  0  0  0  0  0  0  0
   59.9060   30.2942   45.2248 H   0  0  0  0  0  0  0  0  0  0  0  0
   61.4355   28.3263   45.2813 H   0  0  0  0  0  0  0  0  0  0  0  0
   60.5433   26.0576   45.7948 H   0  0  0  0  0  0  0  0  0  0  0  0
   55.8960   25.9240   46.3570 H   0  0  0  0  0  0  0  0  0  0  0  0
   56.4610   23.2304   47.1742 H   0  0  0  0  0  0  0  0  0  0  0  0
   54.1175   22.7291   46.2546 H   0  0  0  0  0  0  0  0  0  0  0  0
   54.2871   24.0167   47.5380 H   0  0  0  0  0  0  0  0  0  0  0  0
   55.1993   24.1438   43.6988 H   0  0  0  0  0  0  0  0  0  0  0  0
   55.8745   22.8450   41.6803 H   0  0  0  0  0  0  0  0  0  0  0  0
   57.4729   20.9390   41.8932 H   0  0  0  0  0  0  0  0  0  0  0  0
   58.3935   20.3263   44.1320 H   0  0  0  0  0  0  0  0  0  0  0  0
   57.7286   21.6212   46.1564 H   0  0  0  0  0  0  0  0  0  0  0  0
   56.5588   27.7154   46.1668 H   0  0  0  0  0  0  0  0  0  0  0  0
  1  2  1  0
  2  3  1  0
  2  4  1  0
  4  5  2  0
  4  6  1  0
  6  7  1  0
  7  8  2  0
  8  9  1  0
  9 10  2  0
 10 11  1  0
 11 12  1  0
 12 13  2  0
 12 14  1  0
 14 15  1  0
 15 16  1  0
 16 17  1  0
 17 18  2  0
 17 19  1  0
 15 20  1  0
 20 21  2  0
 21 22  1  0
 22 23  2  0
 23 24  1  0
 24 25  2  0
 11 26  2  0
 26  7  1  0
 25 20  1  0
  1 27  1  0
  1 28  1  0
  1 29  1  0
  2 30  1  0
  3 31  1  0
  3 32  1  0
  3 33  1  0
  8 34  1  0
  9 35  1  0
 10 36  1  0
 14 37  1  0
 15 38  1  1
 16 39  1  0
 16 40  1  0
 21 41  1  0
 22 42  1  0
 23 43  1  0
 24 44  1  0
 25 45  1  0
 26 46  1  0
M  CHG  2   6  -1  19  -1
M  END
>  <UniqueID>  (22) 
17

>  <SMILES>  (22) 
CC(C)C(=O)[N-]c1cccc(C(=O)N[C@@H](CC(=O)[O-])c2ccccc2)c1

>  <Energy>  (22) 
44.104445294933754

>  <Genealogy>  (22) 
CC(C)C(=O)[N-]c1cccc(C(=O)NC(CC(=O)[O-])c2ccccc2)c1 (protonated)
CC(C)C(=O)[N-]c1cccc(C(=O)N[C@@H](CC(=O)[O-])c2ccccc2)c1 (chirality)
CC(C)C(=O)[N-]c1cccc(C(=O)N[C@@H](CC(=O)[O-])c2ccccc2)c1 (3D coordinates assigned)
CC(C)C(=O)[N-]c1cccc(C(=O)N[C@@H](CC(=O)[O-])c2ccccc2)c1 (optimized conformer: 44.104445294933754 kcal/mol)

>  <smiles>  (22) 
CC(C)C(=O)Nc1cccc(C(=O)NC(CC(=O)O)c2ccccc2)c1

>  <score_type>  (22) 
oracle

>  <origin>  (22) 
adg

>  <m_score__min__energy>  (22) 
-11.949999999999999

>  <m_primary>  (22) 
energy

$$$$
22:0
     RDKit          3D

 41 42  0  0  0  0  0  0  0  0999 V2000
   55.1630   26.7160   46.0000 O   0  0  0  0  0  0  0  0  0  0  0  0
   55.8760   25.7320   46.3320 C   0  0  0  0  0  0  0  0  0  0  0  0
   55.2900   24.4800   46.4720 O   0  0  0  0  0  0  0  0  0  0  0  0
   57.3180   25.9080   46.5660 C   0  0  0  0  0  0  0  0  0  0  0  0
   57.7390   26.1110   47.7370 O   0  0  0  0  0  0  0  0  0  0  0  0
   58.2950   25.8840   45.4260 C   0  0  0  0  0  0  0  0  0  0  0  0
   59.0350   27.1910   45.3160 C   0  0  0  0  0  0  0  0  0  0  0  0
   60.2790   27.2120   45.5260 O   0  0  0  0  0  0  0  0  0  0  0  0
   58.3430   28.4570   44.9680 C   0  0  0  0  0  0  0  0  0  0  0  0
   57.4400   28.4540   43.8910 C   0  0  0  0  0  0  0  0  0  0  0  0
   56.7940   29.6270   43.5000 C   0  0  0  0  0  0  0  0  0  0  0  0
   55.9360   29.6110   42.4500 F   0  0  0  0  0  0  0  0  0  0  0  0
   57.0420   30.8190   44.1770 C   0  0  0  0  0  0  0  0  0  0  0  0
   57.9200   30.8380   45.2620 C   0  0  0  0  0  0  0  0  0  0  0  0
   58.5610   29.6570   45.6880 C   0  0  0  0  0  0  0  0  0  0  0  0
   59.3940   29.6340   46.8220 O   0  0  0  0  0  0  0  0  0  0  0  0
   59.2220   30.4100   48.0090 C   0  0  0  0  0  0  0  0  0  0  0  0
   60.3650   31.4200   48.2050 C   0  0  0  0  0  0  0  0  0  0  0  0
   59.8740   32.8650   48.3890 C   0  0  0  0  0  0  0  0  0  0  0  0
   59.1400   33.3860   47.1800 C   0  0  0  0  0  0  0  0  0  0  0  0
   57.7360   33.3650   47.1350 C   0  0  0  0  0  0  0  0  0  0  0  0
   57.0580   33.8570   46.0150 C   0  0  0  0  0  0  0  0  0  0  0  0
   57.7770   34.3620   44.9290 C   0  0  0  0  0  0  0  0  0  0  0  0
   59.1740   34.3810   44.9610 C   0  0  0  0  0  0  0  0  0  0  0  0
   59.8540   33.9000   46.0840 C   0  0  0  0  0  0  0  0  0  0  0  0
   59.0203   25.0738   45.5919 H   0  0  0  0  0  0  0  0  0  0  0  0
   57.7371   25.7197   44.4923 H   0  0  0  0  0  0  0  0  0  0  0  0
   57.2405   27.5168   43.3507 H   0  0  0  0  0  0  0  0  0  0  0  0
   56.5453   31.7465   43.8561 H   0  0  0  0  0  0  0  0  0  0  0  0
   58.1135   31.7836   45.7896 H   0  0  0  0  0  0  0  0  0  0  0  0
   58.2709   30.9583   47.9406 H   0  0  0  0  0  0  0  0  0  0  0  0
   59.2232   29.7232   48.8682 H   0  0  0  0  0  0  0  0  0  0  0  0
   60.9384   31.1296   49.0977 H   0  0  0  0  0  0  0  0  0  0  0  0
   60.9794   31.3981   47.2928 H   0  0  0  0  0  0  0  0  0  0  0  0
   59.1961   32.8992   49.2546 H   0  0  0  0  0  0  0  0  0  0  0  0
   60.7587   33.5007   48.5413 H   0  0  0  0  0  0  0  0  0  0  0  0
   57.1672   32.9596   47.9848 H   0  0  0  0  0  0  0  0  0  0  0  0
   55.9584   33.8463   45.9893 H   0  0  0  0  0  0  0  0  0  0  0  0
   57.2427   34.7453   44.0472 H   0  0  0  0  0  0  0  0  0  0  0  0
   59.7386   34.7743   44.1028 H   0  0  0  0  0  0  0  0  0  0  0  0
   60.9534   33.9240   46.1098 H   0  0  0  0  0  0  0  0  0  0  0  0
  1  2  2  0
  2  3  1  0
  2  4  1  0
  4  5  2  0
  4  6  1  0
  6  7  1  0
  7  8  2  0
  7  9  1  0
  9 10  2  0
 10 11  1  0
 11 12  1  0
 11 13  2  0
 13 14  1  0
 14 15  2  0
 15 16  1  0
 16 17  1  0
 17 18  1  0
 18 19  1  0
 19 20  1  0
 20 21  2  0
 21 22  1  0
 22 23  2  0
 23 24  1  0
 24 25  2  0
 15  9  1  0
 25 20  1  0
  6 26  1  0
  6 27  1  0
 10 28  1  0
 13 29  1  0
 14 30  1  0
 17 31  1  0
 17 32  1  0
 18 33  1  0
 18 34  1  0
 19 35  1  0
 19 36  1  0
 21 37  1  0
 22 38  1  0
 23 39  1  0
 24 40  1  0
 25 41  1  0
M  CHG  1   3  -1
M  END
>  <UniqueID>  (23) 
18

>  <SMILES>  (23) 
O=C([O-])C(=O)CC(=O)c1cc(F)ccc1OCCCc1ccccc1

>  <Energy>  (23) 
36.82661410408645

>  <Genealogy>  (23) 
O=C([O-])C(=O)CC(=O)c1cc(F)ccc1OCCCc1ccccc1 (protonated)
O=C([O-])C(=O)CC(=O)c1cc(F)ccc1OCCCc1ccccc1 (3D coordinates assigned)
O=C([O-])C(=O)CC(=O)c1cc(F)ccc1OCCCc1ccccc1 (optimized conformer: 36.82661410408645 kcal/mol)

>  <smiles>  (23) 
O=C(O)C(=O)CC(=O)c1cc(F)ccc1OCCCc1ccccc1

>  <score_type>  (23) 
oracle

>  <origin>  (23) 
adg

>  <m_score__min__energy>  (23) 
-11.23

>  <m_primary>  (23) 
energy

$$$$
23:0
     RDKit          3D

 53 56  0  0  0  0  0  0  0  0999 V2000
   50.1000   25.5730   42.4250 C   0  0  0  0  0  0  0  0  0  0  0  0
   51.0450   24.0220   42.3060 S   0  0  0  0  0  0  0  0  0  0  0  0
   50.8740   23.5370   44.0600 C   0  0  0  0  0  0  0  0  0  0  0  0
   52.0670   24.0050   44.8940 C   0  0  0  0  0  0  0  0  0  0  0  0
   52.6130   22.8990   45.6760 N   0  0  0  0  0  0  0  0  0  0  0  0
   53.9440   22.3700   45.6090 C   0  0  0  0  0  0  0  0  0  0  0  0
   54.1890   21.2910   46.2090 O   0  0  0  0  0  0  0  0  0  0  0  0
   55.0250   23.0080   44.8340 C   0  0  0  0  0  0  0  0  0  0  0  0
   55.6980   22.4080   43.8260 N   0  0  0  0  0  0  0  0  0  0  0  0
   56.6840   23.1960   43.3220 C   0  0  0  0  0  0  0  0  0  0  0  0
   56.8170   24.4240   43.9490 C   0  0  0  0  0  0  0  0  0  0  0  0
   57.7450   25.4030   43.5740 O   0  0  0  0  0  0  0  0  0  0  0  0
   58.1740   26.4620   44.3860 C   0  0  0  0  0  0  0  0  0  0  0  0
   58.8850   26.1650   45.5550 C   0  0  0  0  0  0  0  0  0  0  0  0
   59.2990   27.1870   46.4120 C   0  0  0  0  0  0  0  0  0  0  0  0
   59.0010   28.5190   46.1110 C   0  0  0  0  0  0  0  0  0  0  0  0
   58.2990   28.8350   44.9320 C   0  0  0  0  0  0  0  0  0  0  0  0
   57.8650   27.8020   44.0880 C   0  0  0  0  0  0  0  0  0  0  0  0
   57.9470   30.2670   44.6230 C   0  0  0  0  0  0  0  0  0  0  0  0
   58.8850   31.2500   45.3390 C   0  0  0  0  0  0  0  0  0  0  0  0
   58.9850   30.8890   46.8290 C   0  0  2  0  0  0  0  0  0  0  0  0
   59.9320   31.8200   47.5440 C   0  0  0  0  0  0  0  0  0  0  0  0
   61.3170   31.5740   47.5400 C   0  0  0  0  0  0  0  0  0  0  0  0
   62.1920   32.4520   48.1850 C   0  0  0  0  0  0  0  0  0  0  0  0
   61.7000   33.6010   48.8240 C   0  0  0  0  0  0  0  0  0  0  0  0
   62.6390   34.5260   49.5410 C   0  0  0  0  0  0  0  0  0  0  0  0
   60.3190   33.8450   48.8330 C   0  0  0  0  0  0  0  0  0  0  0  0
   59.4420   32.9680   48.1880 C   0  0  0  0  0  0  0  0  0  0  0  0
   59.4170   29.5350   46.9800 O   0  0  0  0  0  0  0  0  0  0  0  0
   55.6490   24.5400   45.1590 S   0  0  0  0  0  0  0  0  0  0  0  0
   49.9449   25.8275   43.4838 H   0  0  0  0  0  0  0  0  0  0  0  0
   50.6590   26.3817   41.9315 H   0  0  0  0  0  0  0  0  0  0  0  0
   49.1250   25.4471   41.9315 H   0  0  0  0  0  0  0  0  0  0  0  0
   49.9562   23.9868   44.4666 H   0  0  0  0  0  0  0  0  0  0  0  0
   50.8298   22.4390   44.1099 H   0  0  0  0  0  0  0  0  0  0  0  0
   52.8473   24.3930   44.2228 H   0  0  0  0  0  0  0  0  0  0  0  0
   51.7306   24.7941   45.5826 H   0  0  0  0  0  0  0  0  0  0  0  0
   57.3246   22.8839   42.4840 H   0  0  0  0  0  0  0  0  0  0  0  0
   59.1193   25.1186   45.8003 H   0  0  0  0  0  0  0  0  0  0  0  0
   59.8608   26.9432   47.3258 H   0  0  0  0  0  0  0  0  0  0  0  0
   57.2796   28.0409   43.1879 H   0  0  0  0  0  0  0  0  0  0  0  0
   58.0245   30.4268   43.5374 H   0  0  0  0  0  0  0  0  0  0  0  0
   56.9219   30.4520   44.9766 H   0  0  0  0  0  0  0  0  0  0  0  0
   59.8848   31.1972   44.8834 H   0  0  0  0  0  0  0  0  0  0  0  0
   58.4838   32.2694   45.2403 H   0  0  0  0  0  0  0  0  0  0  0  0
   57.9872   30.9987   47.2790 H   0  0  0  0  0  0  0  0  0  0  0  0
   61.7134   30.6857   47.0264 H   0  0  0  0  0  0  0  0  0  0  0  0
   63.2717   32.2418   48.1921 H   0  0  0  0  0  0  0  0  0  0  0  0
   62.5154   34.4043   50.6272 H   0  0  0  0  0  0  0  0  0  0  0  0
   63.6753   34.2861   49.2607 H   0  0  0  0  0  0  0  0  0  0  0  0
   62.4147   35.5658   49.2607 H   0  0  0  0  0  0  0  0  0  0  0  0
   59.9236   34.7315   49.3505 H   0  0  0  0  0  0  0  0  0  0  0  0
   58.3623   33.1782   48.1848 H   0  0  0  0  0  0  0  0  0  0  0  0
  1  2  1  0
  2  3  1  0
  3  4  1  0
  4  5  1  0
  5  6  1  0
  6  7  2  0
  6  8  1  0
  8  9  2  0
  9 10  1  0
 10 11  2  0
 11 12  1  0
 12 13  1  0
 13 14  2  0
 14 15  1  0
 15 16  2  0
 16 17  1  0
 17 18  2  0
 17 19  1  0
 19 20  1  0
 20 21  1  0
 21 22  1  0
 22 23  2  0
 23 24  1  0
 24 25  2  0
 25 26  1  0
 25 27  1  0
 27 28  2  0
 21 29  1  0
 11 30  1  0
 30  8  1  0
 18 13  1  0
 28 22  1  0
 29 16  1  0
  1 31  1  0
  1 32  1  0
  1 33  1  0
  3 34  1  0
  3 35  1  0
  4 36  1  0
  4 37  1  0
 10 38  1  0
 14 39  1  0
 15 40  1  0
 18 41  1  0
 19 42  1  0
 19 43  1  0
 20 44  1  0
 20 45  1  0
 21 46  1  1
 23 47  1  0
 24 48  1  0
 26 49  1  0
 26 50  1  0
 26 51  1  0
 27 52  1  0
 28 53  1  0
M  CHG  1   5  -1
M  END
>  <UniqueID>  (24) 
19

>  <SMILES>  (24) 
CSCC[N-]C(=O)c1ncc(Oc2ccc3c(c2)CC[C@H](c2ccc(C)cc2)O3)s1

>  <Energy>  (24) 
89.45675910728947

>  <Genealogy>  (24) 
CSCC[N-]C(=O)c1ncc(Oc2ccc3c(c2)CCC(c2ccc(C)cc2)O3)s1 (protonated)
CSCC[N-]C(=O)c1ncc(Oc2ccc3c(c2)CC[C@H](c2ccc(C)cc2)O3)s1 (chirality)
CSCC[N-]C(=O)c1ncc(Oc2ccc3c(c2)CC[C@H](c2ccc(C)cc2)O3)s1 (3D coordinates assigned)
CSCC[N-]C(=O)c1ncc(Oc2ccc3c(c2)CC[C@H](c2ccc(C)cc2)O3)s1 (nonaromatic ring conformer: 89.45675910728947 kcal/mol)

>  <smiles>  (24) 
CSCCNC(=O)c1ncc(Oc2ccc3c(c2)CCC(c2ccc(C)cc2)O3)s1

>  <score_type>  (24) 
oracle

>  <origin>  (24) 
adg

>  <m_score__min__energy>  (24) 
-9.7599999999999998

>  <m_primary>  (24) 
energy

$$$$
24:0
     RDKit          3D

 26 27  0  0  0  0  0  0  0  0999 V2000
   55.4023   24.6711   46.3483 H   0  0  0  0  0  0  0  0  0  0  0  0
   56.0760   25.5240   46.1790 C   0  0  0  0  0  0  0  0  0  0  0  0
   55.5680   26.7280   45.8120 N   0  0  0  0  0  0  0  0  0  0  0  0
   56.3550   27.8190   45.5850 C   0  0  0  0  0  0  0  0  0  0  0  0
   55.8220   28.9600   45.2470 N   0  0  0  0  0  0  0  0  0  0  0  0
   56.4130   30.0160   44.4710 C   0  0  0  0  0  0  0  0  0  0  0  0
   56.9410   31.1250   45.0610 N   0  0  0  0  0  0  0  0  0  0  0  0
   57.5030   32.1320   44.3390 C   0  0  0  0  0  0  0  0  0  0  0  0
   58.0660   33.3280   45.0390 C   0  0  0  0  0  0  0  0  0  0  0  0
   57.9973   33.1821   46.1271 H   0  0  0  0  0  0  0  0  0  0  0  0
   59.1200   33.4582   44.7523 H   0  0  0  0  0  0  0  0  0  0  0  0
   57.4948   34.2233   44.7523 H   0  0  0  0  0  0  0  0  0  0  0  0
   57.5500   32.0410   42.9420 C   0  0  0  0  0  0  0  0  0  0  0  0
   58.0025   32.8482   42.3473 H   0  0  0  0  0  0  0  0  0  0  0  0
   57.0170   30.9160   42.3130 C   0  0  0  0  0  0  0  0  0  0  0  0
   57.0471   30.8315   41.2167 H   0  0  0  0  0  0  0  0  0  0  0  0
   56.4450   29.8970   43.0780 C   0  0  0  0  0  0  0  0  0  0  0  0
   56.0227   29.0072   42.5882 H   0  0  0  0  0  0  0  0  0  0  0  0
   57.7620   27.7050   45.7340 C   0  0  0  0  0  0  0  0  0  0  0  0
   58.6590   28.8140   45.5060 N   0  0  0  0  0  0  0  0  0  0  0  0
   58.8680   29.6740   46.3870 O   0  0  0  0  0  0  0  0  0  0  0  0
   59.2740   28.9690   44.2850 O   0  0  0  0  0  0  0  0  0  0  0  0
   58.2900   26.4590   46.1190 C   0  0  0  0  0  0  0  0  0  0  0  0
   59.3765   26.3435   46.2461 H   0  0  0  0  0  0  0  0  0  0  0  0
   57.4490   25.3690   46.3410 C   0  0  0  0  0  0  0  0  0  0  0  0
   57.8669   24.3967   46.6411 H   0  0  0  0  0  0  0  0  0  0  0  0
  1  2  1  0
  2  3  1  0
  3  4  1  0
  4  5  2  0
  5  6  1  0
  6  7  2  0
  7  8  1  0
  8  9  1  0
  9 10  1  0
  9 11  1  0
  9 12  1  0
  8 13  2  0
 13 14  1  0
 13 15  1  0
 15 16  1  0
 15 17  2  0
 17 18  1  0
  4 19  1  0
 19 20  1  0
 20 21  2  0
 20 22  1  0
 19 23  2  0
 23 24  1  0
 23 25  1  0
 25 26  1  0
 25  2  2  0
 17  6  1  0
M  CHG  3   3  -1  20   1  22  -1
M  END
>  <UniqueID>  (25) 
20

>  <SMILES>  (25) 
Cc1cccc(/N=c2\[n-]cccc2[N+](=O)[O-])n1

>  <Energy>  (25) 
33.267354118522384

>  <Genealogy>  (25) 
Cc1cccc(N=c2[n-]cccc2[N+](=O)[O-])n1 (protonated)
Cc1cccc(/N=c2\[n-]cccc2[N+](=O)[O-])n1 (cis-trans isomerization)
Cc1cccc(/N=c2\[n-]cccc2[N+](=O)[O-])n1 (3D coordinates assigned)
Cc1cccc(/N=c2\[n-]cccc2[N+](=O)[O-])n1 (optimized conformer: 33.267354118522384 kcal/mol)

>  <smiles>  (25) 
Cc1cccc(N=c2[nH]cccc2[N+](=O)[O-])n1

>  <score_type>  (25) 
oracle

>  <origin>  (25) 
adg

>  <m_score__min__energy>  (25) 
-8.4299999999999997

>  <m_primary>  (25) 
energy

$$$$
25:0
     RDKit          3D

 41 43  0  0  0  0  0  0  0  0999 V2000
   59.0330   31.8340   49.3070 N   0  0  0  0  0  0  0  0  0  0  0  0
   59.2060   30.6960   48.4470 C   0  0  0  0  0  0  0  0  0  0  0  0
   59.4490   29.4480   49.0270 C   0  0  0  0  0  0  0  0  0  0  0  0
   59.5900   28.3380   48.2020 C   0  0  0  0  0  0  0  0  0  0  0  0
   59.8060   27.2030   48.7060 O   0  0  0  0  0  0  0  0  0  0  0  0
   59.4930   28.4780   46.8570 N   0  0  0  0  0  0  0  0  0  0  0  0
   59.2660   29.6940   46.2890 C   0  0  0  0  0  0  0  0  0  0  0  0
   59.1780   29.7970   44.4900 S   0  0  0  0  0  0  0  0  0  0  0  0
   58.0550   28.3670   44.3460 C   0  0  0  0  0  0  0  0  0  0  0  0
   56.7160   28.6980   44.9390 C   0  0  0  0  0  0  0  0  0  0  0  0
   56.2780   29.8750   44.8550 O   0  0  0  0  0  0  0  0  0  0  0  0
   55.9290   27.7150   45.6270 N   0  0  0  0  0  0  0  0  0  0  0  0
   56.3490   26.3930   45.9920 C   0  0  0  0  0  0  0  0  0  0  0  0
   57.5120   26.2390   46.7600 C   0  0  0  0  0  0  0  0  0  0  0  0
   57.9320   24.9660   47.1570 C   0  0  0  0  0  0  0  0  0  0  0  0
   57.1840   23.8400   46.8040 C   0  0  0  0  0  0  0  0  0  0  0  0
   56.0080   23.9870   46.0620 C   0  0  0  0  0  0  0  0  0  0  0  0
   55.5860   25.2590   45.6640 C   0  0  0  0  0  0  0  0  0  0  0  0
   59.1200   30.8080   47.0800 N   0  0  0  0  0  0  0  0  0  0  0  0
   58.8840   32.0900   46.4700 C   0  0  0  0  0  0  0  0  0  0  0  0
   57.6450   32.3710   45.8740 C   0  0  0  0  0  0  0  0  0  0  0  0
   57.4210   33.6130   45.2730 C   0  0  0  0  0  0  0  0  0  0  0  0
   58.4310   34.5800   45.2660 C   0  0  0  0  0  0  0  0  0  0  0  0
   59.6660   34.3060   45.8620 C   0  0  0  0  0  0  0  0  0  0  0  0
   59.8930   33.0650   46.4640 C   0  0  0  0  0  0  0  0  0  0  0  0
   58.1000   32.1210   49.6720 H   0  0  0  0  0  0  0  0  0  0  0  0
   59.8590   32.3970   49.6110 H   0  0  0  0  0  0  0  0  0  0  0  0
   59.5275   29.3456   50.1194 H   0  0  0  0  0  0  0  0  0  0  0  0
   59.6020   27.6370   46.2450 H   0  0  0  0  0  0  0  0  0  0  0  0
   57.9286   28.1097   43.2840 H   0  0  0  0  0  0  0  0  0  0  0  0
   58.4877   27.5144   44.8899 H   0  0  0  0  0  0  0  0  0  0  0  0
   58.0967   27.1240   47.0515 H   0  0  0  0  0  0  0  0  0  0  0  0
   58.8525   24.8508   47.7480 H   0  0  0  0  0  0  0  0  0  0  0  0
   57.5201   22.8382   47.1097 H   0  0  0  0  0  0  0  0  0  0  0  0
   55.4145   23.1013   45.7913 H   0  0  0  0  0  0  0  0  0  0  0  0
   54.6533   25.3728   45.0920 H   0  0  0  0  0  0  0  0  0  0  0  0
   56.8485   31.6124   45.8798 H   0  0  0  0  0  0  0  0  0  0  0  0
   56.4494   33.8298   44.8052 H   0  0  0  0  0  0  0  0  0  0  0  0
   58.2540   35.5565   44.7915 H   0  0  0  0  0  0  0  0  0  0  0  0
   60.4596   35.0677   45.8571 H   0  0  0  0  0  0  0  0  0  0  0  0
   60.8646   32.8524   46.9339 H   0  0  0  0  0  0  0  0  0  0  0  0
  1  2  1  0
  2  3  2  0
  3  4  1  0
  4  5  2  0
  4  6  1  0
  6  7  2  0
  7  8  1  0
  8  9  1  0
  9 10  1  0
 10 11  2  0
 10 12  1  0
 12 13  1  0
 13 14  2  0
 14 15  1  0
 15 16  2  0
 16 17  1  0
 17 18  2  0
  7 19  1  0
 19 20  1  0
 20 21  2  0
 21 22  1  0
 22 23  2  0
 23 24  1  0
 24 25  2  0
 19  2  1  0
 25 20  1  0
 18 13  1  0
  1 26  1  0
  1 27  1  0
  3 28  1  0
  6 29  1  0
  9 30  1  0
  9 31  1  0
 14 32  1  0
 15 33  1  0
 16 34  1  0
 17 35  1  0
 18 36  1  0
 21 37  1  0
 22 38  1  0
 23 39  1  0
 24 40  1  0
 25 41  1  0
M  CHG  2   6   1  12  -1
M  END
>  <UniqueID>  (26) 
21

>  <SMILES>  (26) 
Nc1cc(=O)[nH+]c(SCC(=O)[N-]c2ccccc2)n1-c1ccccc1

>  <Energy>  (26) 
53.4206534937459

>  <Genealogy>  (26) 
Nc1cc(=O)[nH+]c(SCC(=O)[N-]c2ccccc2)n1-c1ccccc1 (protonated)
Nc1cc(=O)[nH+]c(SCC(=O)[N-]c2ccccc2)n1-c1ccccc1 (3D coordinates assigned)
Nc1cc(=O)[nH+]c(SCC(=O)[N-]c2ccccc2)n1-c1ccccc1 (optimized conformer: 53.4206534937459 kcal/mol)

>  <smiles>  (26) 
Nc1cc(=O)nc(SCC(=O)Nc2ccccc2)n1-c1ccccc1

>  <score_type>  (26) 
oracle

>  <origin>  (26) 
adg

>  <m_score__min__energy>  (26) 
-7.4199999999999999

>  <m_primary>  (26) 
energy

$$$$
26:0
     RDKit          3D

 37 38  0  0  0  0  0  0  0  0999 V2000
   58.5680   22.1530   45.1860 C   0  0  0  0  0  0  0  0  0  0  0  0
   57.3040   22.0160   45.9800 C   0  0  0  0  0  0  0  0  0  0  0  0
   56.2300   21.7230   45.3900 O   0  0  0  0  0  0  0  0  0  0  0  0
   57.2820   22.2500   47.3920 N   0  0  0  0  0  0  0  0  0  0  0  0
   56.2730   23.0620   48.0640 C   0  0  0  0  0  0  0  0  0  0  0  0
   55.7830   24.0930   47.1540 N   0  0  0  0  0  0  0  0  0  0  0  0
   56.5560   25.2430   46.7440 C   0  0  0  0  0  0  0  0  0  0  0  0
   57.9540   25.2860   46.9070 C   0  0  0  0  0  0  0  0  0  0  0  0
   58.6800   26.4120   46.5110 C   0  0  0  0  0  0  0  0  0  0  0  0
   58.0280   27.5120   45.9580 C   0  0  0  0  0  0  0  0  0  0  0  0
   56.6300   27.4950   45.7940 C   0  0  0  0  0  0  0  0  0  0  0  0
   55.9220   28.6170   45.2470 N   0  0  0  0  0  0  0  0  0  0  0  0
   56.4460   29.5820   43.9020 S   0  0  0  0  0  0  0  0  0  0  0  0
   55.2570   29.9540   43.0590 O   0  0  0  0  0  0  0  0  0  0  0  0
   57.3910   28.7730   43.0580 O   0  0  0  0  0  0  0  0  0  0  0  0
   57.2890   31.0140   44.4850 C   0  0  0  0  0  0  0  0  0  0  0  0
   57.4730   32.1300   43.6570 C   0  0  0  0  0  0  0  0  0  0  0  0
   58.1580   33.2510   44.1340 C   0  0  0  0  0  0  0  0  0  0  0  0
   58.6630   33.2640   45.4380 C   0  0  0  0  0  0  0  0  0  0  0  0
   59.5240   34.6680   46.0360 Cl  0  0  0  0  0  0  0  0  0  0  0  0
   58.4790   32.1550   46.2680 C   0  0  0  0  0  0  0  0  0  0  0  0
   57.7940   31.0320   45.7930 C   0  0  0  0  0  0  0  0  0  0  0  0
   55.9040   26.3560   46.1740 C   0  0  0  0  0  0  0  0  0  0  0  0
   54.5270   26.3350   45.9840 O   0  0  0  0  0  0  0  0  0  0  0  0
   59.4233   22.2457   45.8714 H   0  0  0  0  0  0  0  0  0  0  0  0
   58.7009   21.2640   44.5520 H   0  0  0  0  0  0  0  0  0  0  0  0
   58.5073   23.0498   44.5520 H   0  0  0  0  0  0  0  0  0  0  0  0
   55.4351   22.4205   48.3745 H   0  0  0  0  0  0  0  0  0  0  0  0
   56.7205   23.5400   48.9479 H   0  0  0  0  0  0  0  0  0  0  0  0
   54.8000   23.9870   46.8130 H   0  0  0  0  0  0  0  0  0  0  0  0
   58.4785   24.4263   47.3496 H   0  0  0  0  0  0  0  0  0  0  0  0
   59.7727   26.4302   46.6366 H   0  0  0  0  0  0  0  0  0  0  0  0
   58.6065   28.3951   45.6491 H   0  0  0  0  0  0  0  0  0  0  0  0
   57.0777   32.1235   42.6305 H   0  0  0  0  0  0  0  0  0  0  0  0
   58.3003   34.1254   43.4819 H   0  0  0  0  0  0  0  0  0  0  0  0
   58.8729   32.1653   47.2950 H   0  0  0  0  0  0  0  0  0  0  0  0
   57.6509   30.1598   46.4478 H   0  0  0  0  0  0  0  0  0  0  0  0
  1  2  1  0
  2  3  2  0
  2  4  1  0
  4  5  1  0
  5  6  1  0
  6  7  1  0
  7  8  2  0
  8  9  1  0
  9 10  2  0
 10 11  1  0
 11 12  1  0
 12 13  1  0
 13 14  2  0
 13 15  2  0
 13 16  1  0
 16 17  2  0
 17 18  1  0
 18 19  2  0
 19 20  1  0
 19 21  1  0
 21 22  2  0
 11 23  2  0
 23 24  1  0
 23  7  1  0
 22 16  1  0
  1 25  1  0
  1 26  1  0
  1 27  1  0
  5 28  1  0
  5 29  1  0
  6 30  1  0
  8 31  1  0
  9 32  1  0
 10 33  1  0
 17 34  1  0
 18 35  1  0
 21 36  1  0
 22 37  1  0
M  CHG  3   4  -1  12  -1  24  -1
M  END
>  <UniqueID>  (27) 
22

>  <SMILES>  (27) 
CC(=O)[N-]CNc1cccc([N-]S(=O)(=O)c2ccc(Cl)cc2)c1[O-]

>  <Energy>  (27) 
38.40453226943674

>  <Genealogy>  (27) 
CC(=O)[N-]CNc1cccc([N-]S(=O)(=O)c2ccc(Cl)cc2)c1[O-] (protonated)
CC(=O)[N-]CNc1cccc([N-]S(=O)(=O)c2ccc(Cl)cc2)c1[O-] (3D coordinates assigned)
CC(=O)[N-]CNc1cccc([N-]S(=O)(=O)c2ccc(Cl)cc2)c1[O-] (optimized conformer: 38.40453226943674 kcal/mol)

>  <smiles>  (27) 
CC(=O)NCNc1cccc(NS(=O)(=O)c2ccc(Cl)cc2)c1O

>  <score_type>  (27) 
oracle

>  <origin>  (27) 
adg

>  <m_score__min__energy>  (27) 
-15.57

>  <m_primary>  (27) 
energy

$$$$
27:0
     RDKit          3D

 72 76  0  0  1  0  0  0  0  0999 V2000
   58.4680   26.8210   44.7300 C   0  0  0  0  0  0  0  0  0  0  0  0
   57.4770   27.4270   45.7190 C   0  0  0  0  0  0  0  0  0  0  0  0
   56.5570   26.3830   46.2920 C   0  0  0  0  0  0  0  0  0  0  0  0
   58.2800   27.9960   46.9000 C   0  0  0  0  0  0  0  0  0  0  0  0
   56.7730   28.5230   45.0190 C   0  0  0  0  0  0  0  0  0  0  0  0
   57.3720   29.2610   44.0040 C   0  0  0  0  0  0  0  0  0  0  0  0
   60.2860   31.9080   48.1860 C   0  0  0  0  0  0  0  0  0  0  0  0
   59.6850   31.4560   47.1590 N   0  0  0  0  0  0  0  0  0  0  0  0
   57.7410   31.9400   42.7920 C   0  0  0  0  0  0  0  0  0  0  0  0
   58.5240   32.2410   41.8600 O   0  0  0  0  0  0  0  0  0  0  0  0
   57.8980   32.5250   44.1490 C   0  0  0  0  0  0  0  0  0  0  0  0
   57.3440   33.7350   44.4960 C   0  0  0  0  0  0  0  0  0  0  0  0
   57.5700   34.1910   45.7780 C   0  0  0  0  0  0  0  0  0  0  0  0
   58.3240   33.4830   46.7080 C   0  0  0  0  0  0  0  0  0  0  0  0
   58.5440   33.9330   47.9620 F   0  0  0  0  0  0  0  0  0  0  0  0
   58.8770   32.2770   46.3650 C   0  0  0  0  0  0  0  0  0  0  0  0
   56.6490   31.0360   42.6660 N   0  0  0  0  0  0  0  0  0  0  0  0
   56.4240   30.1840   43.5980 C   0  0  0  0  0  0  0  0  0  0  0  0
   61.4590   32.5620   47.9560 N   0  0  0  0  0  0  0  0  0  0  0  0
   62.1230   33.0630   49.0080 C   0  0  0  0  0  0  0  0  0  0  0  0
   61.7060   32.9590   50.2830 N   0  0  0  0  0  0  0  0  0  0  0  0
   60.5450   32.3090   50.4830 C   0  0  0  0  0  0  0  0  0  0  0  0
   60.0640   32.1960   51.7570 C   0  0  0  0  0  0  0  0  0  0  0  0
   55.3400   29.9720   44.3540 N   0  0  0  0  0  0  0  0  0  0  0  0
   58.1510   31.0300   50.9760 C   0  0  0  0  0  0  0  0  0  0  0  0
   57.0180   30.5030   51.2720 N   0  0  0  0  0  0  0  0  0  0  0  0
   55.9760   31.0730   52.0760 C   0  0  0  0  0  0  0  0  0  0  0  0
   54.8440   30.0110   52.0420 C   0  0  0  0  0  0  0  0  0  0  0  0
   53.7920   30.3690   53.0480 C   0  0  0  0  0  0  0  0  0  0  0  0
   52.8130   31.2400   52.4820 N   0  0  0  0  0  0  0  0  0  0  0  0
   52.2430   30.6560   51.2460 C   0  0  0  0  0  0  0  0  0  0  0  0
   51.4090   31.7170   50.5960 C   0  0  0  0  0  0  0  0  0  0  0  0
   51.0190   32.7030   51.5380 O   0  0  0  0  0  0  0  0  0  0  0  0
   50.5350   31.9440   52.6290 C   0  0  0  0  0  0  0  0  0  0  0  0
   51.6600   31.2920   53.3930 C   0  0  0  0  0  0  0  0  0  0  0  0
   58.6190   31.1330   49.7070 N   0  0  0  0  0  0  0  0  0  0  0  0
   59.8020   31.7650   49.4640 C   0  0  0  0  0  0  0  0  0  0  0  0
   58.6370   31.8270   45.0580 C   0  0  0  0  0  0  0  0  0  0  0  0
   58.8950   31.5680   51.9710 N   0  0  0  0  0  0  0  0  0  0  0  0
   55.5480   28.9870   45.1970 O   0  0  0  0  0  0  0  0  0  0  0  0
   59.2798   26.3246   45.2820 H   0  0  0  0  0  0  0  0  0  0  0  0
   57.9508   26.0845   44.0975 H   0  0  0  0  0  0  0  0  0  0  0  0
   58.8879   27.6170   44.0975 H   0  0  0  0  0  0  0  0  0  0  0  0
   56.5939   26.4249   47.3906 H   0  0  0  0  0  0  0  0  0  0  0  0
   55.5285   26.5743   45.9521 H   0  0  0  0  0  0  0  0  0  0  0  0
   56.8761   25.3867   45.9521 H   0  0  0  0  0  0  0  0  0  0  0  0
   57.8215   27.6711   47.8456 H   0  0  0  0  0  0  0  0  0  0  0  0
   59.3158   27.6292   46.8497 H   0  0  0  0  0  0  0  0  0  0  0  0
   58.2773   29.0948   46.8497 H   0  0  0  0  0  0  0  0  0  0  0  0
   58.3898   29.1368   43.6057 H   0  0  0  0  0  0  0  0  0  0  0  0
   56.7445   34.3160   43.7797 H   0  0  0  0  0  0  0  0  0  0  0  0
   57.1353   35.1560   46.0778 H   0  0  0  0  0  0  0  0  0  0  0  0
   63.0681   33.5923   48.8164 H   0  0  0  0  0  0  0  0  0  0  0  0
   62.2710   33.3720   51.0800 H   0  0  0  0  0  0  0  0  0  0  0  0
   60.6296   32.6161   52.6017 H   0  0  0  0  0  0  0  0  0  0  0  0
   54.4440   30.5080   44.2930 H   0  0  0  0  0  0  0  0  0  0  0  0
   56.3246   31.2387   53.1061 H   0  0  0  0  0  0  0  0  0  0  0  0
   55.6450   32.0535   51.7031 H   0  0  0  0  0  0  0  0  0  0  0  0
   54.3966   29.9842   51.0375 H   0  0  0  0  0  0  0  0  0  0  0  0
   55.2614   29.0225   52.2842 H   0  0  0  0  0  0  0  0  0  0  0  0
   53.2974   29.4490   53.3931 H   0  0  0  0  0  0  0  0  0  0  0  0
   54.2757   30.8876   53.8889 H   0  0  0  0  0  0  0  0  0  0  0  0
   53.0520   30.3454   50.5685 H   0  0  0  0  0  0  0  0  0  0  0  0
   51.6342   29.7699   51.4786 H   0  0  0  0  0  0  0  0  0  0  0  0
   51.9936   32.1947   49.7960 H   0  0  0  0  0  0  0  0  0  0  0  0
   50.5036   31.2482   50.1832 H   0  0  0  0  0  0  0  0  0  0  0  0
   49.9801   32.6082   53.3079 H   0  0  0  0  0  0  0  0  0  0  0  0
   49.8818   31.1516   52.2346 H   0  0  0  0  0  0  0  0  0  0  0  0
   51.9076   31.8866   54.2847 H   0  0  0  0  0  0  0  0  0  0  0  0
   51.3771   30.2845   53.7321 H   0  0  0  0  0  0  0  0  0  0  0  0
   59.0668   30.8621   44.7509 H   0  0  0  0  0  0  0  0  0  0  0  0
   58.5970   31.5180   52.9730 H   0  0  0  0  0  0  0  0  0  0  0  0
  1  2  1  0
  2  3  1  0
  2  4  1  0
  2  5  1  0
  5  6  2  0
  6  7  1  0
  7  8  2  0
  8  9  1  0
  9 10  2  0
  9 11  1  0
 11 12  2  0
 12 13  1  0
 13 14  2  0
 14 15  1  0
 14 16  1  0
 16 17  1  0
 17 18  2  0
 18 19  1  0
 19 20  2  0
 20 21  1  0
 21 22  1  0
 22 23  2  0
 23 24  1  0
 24 25  1  0
 25 26  2  0
 26 27  1  0
 27 28  1  0
 28 29  1  0
 29 30  1  0
 30 31  1  0
 31 32  1  0
 32 33  1  0
 33 34  1  0
 34 35  1  0
 25 36  1  0
 36 37  2  0
 16 38  2  0
  7 39  1  0
 39 40  1  0
 40  5  1  0
 38 11  1  0
 37 18  1  0
 37 22  1  0
 35 30  1  0
  1 41  1  0
  1 42  1  0
  1 43  1  0
  3 44  1  0
  3 45  1  0
  3 46  1  0
  4 47  1  0
  4 48  1  0
  4 49  1  0
  6 50  1  0
 12 51  1  0
 13 52  1  0
 20 53  1  0
 21 54  1  0
 23 55  1  0
 24 56  1  0
 27 57  1  0
 27 58  1  0
 28 59  1  0
 28 60  1  0
 29 61  1  0
 29 62  1  0
 31 63  1  0
 31 64  1  0
 32 65  1  0
 32 66  1  0
 34 67  1  0
 34 68  1  0
 35 69  1  0
 35 70  1  0
 38 71  1  0
 39 72  1  0
M  END
>  <smiles>  (28) 
CC(C)(C)c1cc(=NC(=O)c2ccc(F)c(N=c3nc[nH]c4c[nH]c(=NCCCN5CCOCC5)nc34)c2)[nH]o1

>  <score_type>  (28) 
oracle

>  <origin>  (28) 
adg

>  <m_score__min__energy>  (28) 
-11.390000000000001

>  <m_primary>  (28) 
energy

$$$$
28:0
     RDKit          3D

 52 54  0  0  0  0  0  0  0  0999 V2000
   51.7720   30.2980   49.7620 C   0  0  0  0  0  0  0  0  0  0  0  0
   51.1530   31.5800   50.2080 C   0  0  0  0  0  0  0  0  0  0  0  0
   50.6450   32.3530   49.3530 O   0  0  0  0  0  0  0  0  0  0  0  0
   51.1810   31.9350   51.5960 N   0  0  0  0  0  0  0  0  0  0  0  0
   51.5790   31.0590   52.6980 C   0  0  1  0  0  0  0  0  0  0  0  0
   50.6110   29.8730   52.8330 C   0  0  0  0  0  0  0  0  0  0  0  0
   53.0450   30.6730   52.5780 C   0  0  0  0  0  0  0  0  0  0  0  0
   53.9390   31.5920   52.0050 C   0  0  0  0  0  0  0  0  0  0  0  0
   55.2910   31.2710   51.8450 C   0  0  0  0  0  0  0  0  0  0  0  0
   55.7730   30.0110   52.2440 C   0  0  0  0  0  0  0  0  0  0  0  0
   57.1180   29.6350   52.1090 O   0  0  0  0  0  0  0  0  0  0  0  0
   58.1800   30.4950   51.6880 C   0  0  1  0  0  0  0  0  0  0  0  0
   59.3810   29.6640   51.2330 C   0  0  0  0  0  0  0  0  0  0  0  0
   59.9720   30.4060   50.0430 C   0  0  0  0  0  0  0  0  0  0  0  0
   58.9250   31.2990   49.5770 N   0  0  0  0  0  0  0  0  0  0  0  0
   59.0430   32.0770   48.3700 C   0  0  0  0  0  0  0  0  0  0  0  0
   59.7260   33.3020   48.3520 C   0  0  0  0  0  0  0  0  0  0  0  0
   59.8170   34.0010   47.1480 C   0  0  0  0  0  0  0  0  0  0  0  0
   59.2480   33.4960   46.0220 N   0  0  0  0  0  0  0  0  0  0  0  0
   58.5770   32.3130   46.0540 C   0  0  0  0  0  0  0  0  0  0  0  0
   57.8560   31.6600   44.5930 S   0  0  0  0  0  0  0  0  0  0  0  0
   58.5650   30.0680   44.2430 C   0  0  0  0  0  0  0  0  0  0  0  0
   56.3720   31.5160   44.7850 O   0  0  0  0  0  0  0  0  0  0  0  0
   58.1100   32.5960   43.4440 O   0  0  0  0  0  0  0  0  0  0  0  0
   58.4850   31.6170   47.2170 N   0  0  0  0  0  0  0  0  0  0  0  0
   57.7800   31.3320   50.4730 C   0  0  0  0  0  0  0  0  0  0  0  0
   54.8820   29.0880   52.8020 C   0  0  0  0  0  0  0  0  0  0  0  0
   53.5310   29.4090   52.9650 C   0  0  0  0  0  0  0  0  0  0  0  0
   52.0589   29.7037   50.6420 H   0  0  0  0  0  0  0  0  0  0  0  0
   51.0479   29.7320   49.1576 H   0  0  0  0  0  0  0  0  0  0  0  0
   52.6655   30.5130   49.1576 H   0  0  0  0  0  0  0  0  0  0  0  0
   51.4996   31.6047   53.6498 H   0  0  0  0  0  0  0  0  0  0  0  0
   50.4377   29.6606   53.8983 H   0  0  0  0  0  0  0  0  0  0  0  0
   49.6554   30.1227   52.3487 H   0  0  0  0  0  0  0  0  0  0  0  0
   51.0471   28.9868   52.3487 H   0  0  0  0  0  0  0  0  0  0  0  0
   53.5717   32.5760   51.6781 H   0  0  0  0  0  0  0  0  0  0  0  0
   55.9803   32.0069   51.4053 H   0  0  0  0  0  0  0  0  0  0  0  0
   58.4164   31.1387   52.5481 H   0  0  0  0  0  0  0  0  0  0  0  0
   60.1218   29.5865   52.0424 H   0  0  0  0  0  0  0  0  0  0  0  0
   59.0856   28.6389   50.9648 H   0  0  0  0  0  0  0  0  0  0  0  0
   60.8576   30.9811   50.3510 H   0  0  0  0  0  0  0  0  0  0  0  0
   60.2960   29.7130   49.2526 H   0  0  0  0  0  0  0  0  0  0  0  0
   60.1810   33.7038   49.2693 H   0  0  0  0  0  0  0  0  0  0  0  0
   60.3502   34.9624   47.1101 H   0  0  0  0  0  0  0  0  0  0  0  0
   59.3310   34.0290   45.1270 H   0  0  0  0  0  0  0  0  0  0  0  0
   58.7943   29.5531   45.1876 H   0  0  0  0  0  0  0  0  0  0  0  0
   57.8493   29.4675   43.6624 H   0  0  0  0  0  0  0  0  0  0  0  0
   59.4902   30.1983   43.6624 H   0  0  0  0  0  0  0  0  0  0  0  0
   57.5598   32.3663   50.7757 H   0  0  0  0  0  0  0  0  0  0  0  0
   56.8746   30.9372   49.9888 H   0  0  0  0  0  0  0  0  0  0  0  0
   55.2482   28.0993   53.1158 H   0  0  0  0  0  0  0  0  0  0  0  0
   52.8425   28.6688   53.3987 H   0  0  0  0  0  0  0  0  0  0  0  0
  1  2  1  0
  2  3  2  0
  2  4  1  0
  4  5  1  0
  5  6  1  0
  5  7  1  0
  7  8  2  0
  8  9  1  0
  9 10  2  0
 10 11  1  0
 11 12  1  0
 12 13  1  0
 13 14  1  0
 14 15  1  0
 15 16  1  0
 16 17  2  0
 17 18  1  0
 18 19  2  0
 19 20  1  0
 20 21  1  0
 21 22  1  0
 21 23  2  0
 21 24  2  0
 20 25  2  0
 15 26  1  0
 10 27  1  0
 27 28  2  0
 28  7  1  0
 26 12  1  0
 25 16  1  0
  1 29  1  0
  1 30  1  0
  1 31  1  0
  5 32  1  1
  6 33  1  0
  6 34  1  0
  6 35  1  0
  8 36  1  0
  9 37  1  0
 12 38  1  1
 13 39  1  0
 13 40  1  0
 14 41  1  0
 14 42  1  0
 17 43  1  0
 18 44  1  0
 19 45  1  0
 22 46  1  0
 22 47  1  0
 22 48  1  0
 26 49  1  0
 26 50  1  0
 27 51  1  0
 28 52  1  0
M  CHG  2   4  -1  19   1
M  END
>  <UniqueID>  (29) 
23

>  <SMILES>  (29) 
CC(=O)[N-][C@@H](C)c1ccc(O[C@H]2CCN(c3cc[nH+]c(S(C)(=O)=O)n3)C2)cc1

>  <Energy>  (29) 
48.69195346294388

>  <Genealogy>  (29) 
CC(=O)[N-]C(C)c1ccc(OC2CCN(c3cc[nH+]c(S(C)(=O)=O)n3)C2)cc1 (protonated)
CC(=O)[N-][C@@H](C)c1ccc(O[C@H]2CCN(c3cc[nH+]c(S(C)(=O)=O)n3)C2)cc1 (chirality)
CC(=O)[N-][C@@H](C)c1ccc(O[C@H]2CCN(c3cc[nH+]c(S(C)(=O)=O)n3)C2)cc1 (3D coordinates assigned)
CC(=O)[N-][C@@H](C)c1ccc(O[C@H]2CCN(c3cc[nH+]c(S(C)(=O)=O)n3)C2)cc1 (nonaromatic ring conformer: 48.69195346294388 kcal/mol)

>  <smiles>  (29) 
CC(=O)NC(C)c1ccc(OC2CCN(c3ccnc(S(C)(=O)=O)n3)C2)cc1

>  <score_type>  (29) 
oracle

>  <origin>  (29) 
adg

>  <m_score__min__energy>  (29) 
-9.1699999999999999

>  <m_primary>  (29) 
energy

$$$$
29:0
     RDKit          3D

 55 59  0  0  0  0  0  0  0  0999 V2000
   55.9000   27.8370   45.6210 O   0  0  0  0  0  0  0  0  0  0  0  0
   56.3990   28.8930   45.1520 C   0  0  0  0  0  0  0  0  0  0  0  0
   57.4950   29.6000   45.8990 C   0  0  0  0  0  0  0  0  0  0  0  0
   57.6760   30.9900   45.4480 N   0  0  0  0  0  0  0  0  0  0  0  0
   58.5670   31.8400   46.1800 C   0  0  0  0  0  0  0  0  0  0  0  0
   58.0840   33.0000   46.7830 C   0  0  0  0  0  0  0  0  0  0  0  0
   58.9400   33.7800   47.5600 C   0  0  0  0  0  0  0  0  0  0  0  0
   60.2430   33.4070   47.7610 N   0  0  0  0  0  0  0  0  0  0  0  0
   61.0940   34.2250   48.6480 C   0  0  0  0  0  0  0  0  0  0  0  0
   62.0610   33.3660   49.4420 C   0  0  0  0  0  0  0  0  0  0  0  0
   63.4440   33.5650   49.2650 C   0  0  0  0  0  0  0  0  0  0  0  0
   64.3700   32.7360   49.9000 C   0  0  0  0  0  0  0  0  0  0  0  0
   63.9320   31.6940   50.7160 C   0  0  0  0  0  0  0  0  0  0  0  0
   62.5660   31.4890   50.9140 C   0  0  0  0  0  0  0  0  0  0  0  0
   61.6190   32.3250   50.3000 C   0  0  0  0  0  0  0  0  0  0  0  0
   60.2240   32.1030   50.5560 N   0  0  0  0  0  0  0  0  0  0  0  0
   59.4190   32.8990   51.2830 C   0  0  0  0  0  0  0  0  0  0  0  0
   58.1450   32.3800   51.2460 C   0  0  0  0  0  0  0  0  0  0  0  0
   58.2480   31.2560   50.4490 C   0  0  0  0  0  0  0  0  0  0  0  0
   59.5210   31.1110   50.0340 N   0  0  0  0  0  0  0  0  0  0  0  0
   60.7470   32.2980   47.1250 C   0  0  0  0  0  0  0  0  0  0  0  0
   61.9660   31.9900   47.2380 O   0  0  0  0  0  0  0  0  0  0  0  0
   59.9090   31.4830   46.3510 C   0  0  0  0  0  0  0  0  0  0  0  0
   60.3950   30.3080   45.7700 O   0  0  0  0  0  0  0  0  0  0  0  0
   60.3770   29.0610   46.4130 C   0  0  0  0  0  0  0  0  0  0  0  0
   60.3720   27.8460   45.6980 C   0  0  0  0  0  0  0  0  0  0  0  0
   60.3650   26.6270   46.3830 C   0  0  0  0  0  0  0  0  0  0  0  0
   60.3670   26.6090   47.7800 C   0  0  0  0  0  0  0  0  0  0  0  0
   60.3730   27.8100   48.4950 C   0  0  0  0  0  0  0  0  0  0  0  0
   60.3830   27.7920   49.8510 F   0  0  0  0  0  0  0  0  0  0  0  0
   60.3780   29.0310   47.8130 C   0  0  0  0  0  0  0  0  0  0  0  0
   56.8440   31.5970   44.3990 C   0  0  0  0  0  0  0  0  0  0  0  0
   56.5370   30.5770   43.3090 C   0  0  0  0  0  0  0  0  0  0  0  0
   55.9280   29.3990   43.9040 N   0  0  0  0  0  0  0  0  0  0  0  0
   57.2454   29.6059   46.9703 H   0  0  0  0  0  0  0  0  0  0  0  0
   58.4340   29.0602   45.7067 H   0  0  0  0  0  0  0  0  0  0  0  0
   57.0340   33.2985   46.6469 H   0  0  0  0  0  0  0  0  0  0  0  0
   58.5641   34.7070   48.0176 H   0  0  0  0  0  0  0  0  0  0  0  0
   61.6680   34.9361   48.0358 H   0  0  0  0  0  0  0  0  0  0  0  0
   60.4419   34.7550   49.3578 H   0  0  0  0  0  0  0  0  0  0  0  0
   63.7980   34.3823   48.6195 H   0  0  0  0  0  0  0  0  0  0  0  0
   65.4474   32.9051   49.7563 H   0  0  0  0  0  0  0  0  0  0  0  0
   64.6635   31.0331   51.2040 H   0  0  0  0  0  0  0  0  0  0  0  0
   62.2273   30.6639   51.5578 H   0  0  0  0  0  0  0  0  0  0  0  0
   59.7270   33.8103   51.8166 H   0  0  0  0  0  0  0  0  0  0  0  0
   57.2446   32.7728   51.7410 H   0  0  0  0  0  0  0  0  0  0  0  0
   57.4170   30.5824   50.1926 H   0  0  0  0  0  0  0  0  0  0  0  0
   60.3736   27.8570   44.5981 H   0  0  0  0  0  0  0  0  0  0  0  0
   60.3579   25.6812   45.8214 H   0  0  0  0  0  0  0  0  0  0  0  0
   60.3639   25.6492   48.3174 H   0  0  0  0  0  0  0  0  0  0  0  0
   60.3827   29.9737   48.3799 H   0  0  0  0  0  0  0  0  0  0  0  0
   55.9008   31.9488   44.8425 H   0  0  0  0  0  0  0  0  0  0  0  0
   57.3902   32.4418   43.9541 H   0  0  0  0  0  0  0  0  0  0  0  0
   55.8433   31.0188   42.5785 H   0  0  0  0  0  0  0  0  0  0  0  0
   57.4703   30.2904   42.8023 H   0  0  0  0  0  0  0  0  0  0  0  0
  1  2  2  0
  2  3  1  0
  3  4  1  0
  4  5  1  0
  5  6  1  0
  6  7  2  0
  7  8  1  0
  8  9  1  0
  9 10  1  0
 10 11  2  0
 11 12  1  0
 12 13  2  0
 13 14  1  0
 14 15  2  0
 15 16  1  0
 16 17  1  0
 17 18  2  0
 18 19  1  0
 19 20  2  0
  8 21  1  0
 21 22  2  0
 21 23  1  0
 23 24  1  0
 24 25  1  0
 25 26  2  0
 26 27  1  0
 27 28  2  0
 28 29  1  0
 29 30  1  0
 29 31  2  0
  4 32  1  0
 32 33  1  0
 33 34  1  0
 34  2  1  0
 23  5  2  0
 31 25  1  0
 15 10  1  0
 20 16  1  0
  3 35  1  0
  3 36  1  0
  6 37  1  0
  7 38  1  0
  9 39  1  0
  9 40  1  0
 11 41  1  0
 12 42  1  0
 13 43  1  0
 14 44  1  0
 17 45  1  0
 18 46  1  0
 19 47  1  0
 26 48  1  0
 27 49  1  0
 28 50  1  0
 31 51  1  0
 32 52  1  0
 32 53  1  0
 33 54  1  0
 33 55  1  0
M  CHG  1  34  -1
M  END
>  <UniqueID>  (30) 
24

>  <SMILES>  (30) 
O=C1CN(c2ccn(Cc3ccccc3-n3cccn3)c(=O)c2Oc2cccc(F)c2)CC[N-]1

>  <Energy>  (30) 
109.83410785115039

>  <Genealogy>  (30) 
O=C1CN(c2ccn(Cc3ccccc3-n3cccn3)c(=O)c2Oc2cccc(F)c2)CC[N-]1 (protonated)
O=C1CN(c2ccn(Cc3ccccc3-n3cccn3)c(=O)c2Oc2cccc(F)c2)CC[N-]1 (3D coordinates assigned)
O=C1CN(c2ccn(Cc3ccccc3-n3cccn3)c(=O)c2Oc2cccc(F)c2)CC[N-]1 (nonaromatic ring conformer: 109.83410785115039 kcal/mol)

>  <smiles>  (30) 
O=C1CN(c2ccn(Cc3ccccc3-n3cccn3)c(=O)c2Oc2cccc(F)c2)CCN1

>  <score_type>  (30) 
oracle

>  <origin>  (30) 
adg

>  <m_score__min__energy>  (30) 
-9.9399999999999995

>  <m_primary>  (30) 
energy

$$$$
30:0
     RDKit          3D

 40 42  0  0  0  0  0  0  0  0999 V2000
   58.5480   32.5910   48.5580 C   0  0  0  0  0  0  0  0  0  0  0  0
   58.5690   32.9710   47.1080 C   0  0  0  0  0  0  0  0  0  0  0  0
   58.9520   34.2640   46.7210 C   0  0  0  0  0  0  0  0  0  0  0  0
   58.9400   34.6280   45.3720 C   0  0  0  0  0  0  0  0  0  0  0  0
   58.5340   33.7090   44.4020 C   0  0  0  0  0  0  0  0  0  0  0  0
   58.1280   32.4180   44.7740 C   0  0  0  0  0  0  0  0  0  0  0  0
   57.7210   31.4130   43.7260 C   0  0  0  0  0  0  0  0  0  0  0  0
   57.4470   30.1030   44.3530 N   0  0  0  0  0  0  0  0  0  0  0  0
   56.1630   29.7110   44.6170 C   0  0  0  0  0  0  0  0  0  0  0  0
   55.1830   30.4330   44.2880 O   0  0  0  0  0  0  0  0  0  0  0  0
   55.9260   28.5330   45.2360 N   0  0  0  0  0  0  0  0  0  0  0  0
   56.9430   27.7280   45.6140 C   0  0  0  0  0  0  0  0  0  0  0  0
   56.6760   26.6420   46.1950 O   0  0  0  0  0  0  0  0  0  0  0  0
   58.2390   28.0930   45.3640 N   0  0  0  0  0  0  0  0  0  0  0  0
   59.3600   27.2490   45.8230 C   0  0  0  0  0  0  0  0  0  0  0  0
   59.7920   27.6580   47.2080 C   0  0  0  0  0  0  0  0  0  0  0  0
   60.3800   26.7190   48.0710 C   0  0  0  0  0  0  0  0  0  0  0  0
   60.7450   27.0870   49.3700 C   0  0  0  0  0  0  0  0  0  0  0  0
   60.5210   28.3920   49.8180 C   0  0  0  0  0  0  0  0  0  0  0  0
   59.9320   29.3310   48.9670 C   0  0  0  0  0  0  0  0  0  0  0  0
   59.5670   28.9670   47.6670 C   0  0  0  0  0  0  0  0  0  0  0  0
   58.4840   29.2860   44.7300 C   0  0  0  0  0  0  0  0  0  0  0  0
   59.6740   29.6340   44.4910 O   0  0  0  0  0  0  0  0  0  0  0  0
   58.1440   32.0560   46.1310 C   0  0  0  0  0  0  0  0  0  0  0  0
   58.5982   33.4996   49.1759 H   0  0  0  0  0  0  0  0  0  0  0  0
   57.6184   32.0468   48.7810 H   0  0  0  0  0  0  0  0  0  0  0  0
   59.4120   31.9477   48.7810 H   0  0  0  0  0  0  0  0  0  0  0  0
   59.2630   34.9942   47.4826 H   0  0  0  0  0  0  0  0  0  0  0  0
   59.2509   35.6401   45.0736 H   0  0  0  0  0  0  0  0  0  0  0  0
   58.5324   33.9985   43.3408 H   0  0  0  0  0  0  0  0  0  0  0  0
   56.8138   31.7681   43.2153 H   0  0  0  0  0  0  0  0  0  0  0  0
   58.5404   31.2991   43.0011 H   0  0  0  0  0  0  0  0  0  0  0  0
   59.0389   26.1970   45.8392 H   0  0  0  0  0  0  0  0  0  0  0  0
   60.2074   27.3746   45.1330 H   0  0  0  0  0  0  0  0  0  0  0  0
   60.5542   25.6898   47.7239 H   0  0  0  0  0  0  0  0  0  0  0  0
   61.2090   26.3484   50.0401 H   0  0  0  0  0  0  0  0  0  0  0  0
   60.8083   28.6797   50.8401 H   0  0  0  0  0  0  0  0  0  0  0  0
   59.7553   30.3577   49.3201 H   0  0  0  0  0  0  0  0  0  0  0  0
   59.1018   29.7085   47.0009 H   0  0  0  0  0  0  0  0  0  0  0  0
   57.8212   31.0481   46.4308 H   0  0  0  0  0  0  0  0  0  0  0  0
  1  2  1  0
  2  3  2  0
  3  4  1  0
  4  5  2  0
  5  6  1  0
  6  7  1  0
  7  8  1  0
  8  9  1  0
  9 10  2  0
  9 11  1  0
 11 12  1  0
 12 13  2  0
 12 14  1  0
 14 15  1  0
 15 16  1  0
 16 17  2  0
 17 18  1  0
 18 19  2  0
 19 20  1  0
 20 21  2  0
 14 22  1  0
 22 23  2  0
  6 24  2  0
 24  2  1  0
 22  8  1  0
 21 16  1  0
  1 25  1  0
  1 26  1  0
  1 27  1  0
  3 28  1  0
  4 29  1  0
  5 30  1  0
  7 31  1  0
  7 32  1  0
 15 33  1  0
 15 34  1  0
 17 35  1  0
 18 36  1  0
 19 37  1  0
 20 38  1  0
 21 39  1  0
 24 40  1  0
M  CHG  1  11  -1
M  END
>  <UniqueID>  (31) 
25

>  <SMILES>  (31) 
Cc1cccc(Cn2c(=O)[n-]c(=O)n(Cc3ccccc3)c2=O)c1

>  <Energy>  (31) 
47.4840447294345

>  <Genealogy>  (31) 
Cc1cccc(Cn2c(=O)[n-]c(=O)n(Cc3ccccc3)c2=O)c1 (protonated)
Cc1cccc(Cn2c(=O)[n-]c(=O)n(Cc3ccccc3)c2=O)c1 (3D coordinates assigned)
Cc1cccc(Cn2c(=O)[n-]c(=O)n(Cc3ccccc3)c2=O)c1 (optimized conformer: 47.4840447294345 kcal/mol)

>  <smiles>  (31) 
Cc1cccc(Cn2c(=O)[nH]c(=O)n(Cc3ccccc3)c2=O)c1

>  <score_type>  (31) 
oracle

>  <origin>  (31) 
adg

>  <m_score__min__energy>  (31) 
-9.4499999999999993

>  <m_primary>  (31) 
energy

$$$$
31:0
     RDKit          3D

 32 34  0  0  0  0  0  0  0  0999 V2000
   60.5550   33.5980   51.2540 O   0  0  0  0  0  0  0  0  0  0  0  0
   60.2770   33.7250   50.0330 C   0  0  0  0  0  0  0  0  0  0  0  0
   61.1360   34.2200   49.1160 N   0  0  0  0  0  0  0  0  0  0  0  0
   60.5240   34.2170   47.9230 C   0  0  0  0  0  0  0  0  0  0  0  0
   60.8490   34.5770   46.6620 N   0  0  0  0  0  0  0  0  0  0  0  0
   59.9950   34.4550   45.6190 C   0  0  0  0  0  0  0  0  0  0  0  0
   58.7620   33.9540   45.8270 N   0  0  0  0  0  0  0  0  0  0  0  0
   57.7790   33.7830   44.7860 C   0  0  0  0  0  0  0  0  0  0  0  0
   58.2060   32.8170   43.7050 C   0  0  0  0  0  0  0  0  0  0  0  0
   57.5630   31.5160   44.0400 C   0  0  0  0  0  0  0  0  0  0  0  0
   57.9170   30.9090   45.2290 C   0  0  0  0  0  0  0  0  0  0  0  0
   57.3950   29.7100   45.6490 C   0  0  0  0  0  0  0  0  0  0  0  0
   56.4610   29.1020   44.8050 C   0  0  0  0  0  0  0  0  0  0  0  0
   55.9500   27.8880   45.2560 O   0  0  0  0  0  0  0  0  0  0  0  0
   56.0890   29.6830   43.6140 C   0  0  0  0  0  0  0  0  0  0  0  0
   56.6410   30.9040   43.2180 C   0  0  0  0  0  0  0  0  0  0  0  0
   58.4000   33.5820   47.0750 C   0  0  0  0  0  0  0  0  0  0  0  0
   57.2440   33.1070   47.2930 O   0  0  0  0  0  0  0  0  0  0  0  0
   59.2760   33.7090   48.1350 C   0  0  0  0  0  0  0  0  0  0  0  0
   59.1030   33.3980   49.4340 N   0  0  0  0  0  0  0  0  0  0  0  0
   62.1160   34.5610   49.2560 H   0  0  0  0  0  0  0  0  0  0  0  0
   60.3054   34.7625   44.6095 H   0  0  0  0  0  0  0  0  0  0  0  0
   56.8512   33.4071   45.2419 H   0  0  0  0  0  0  0  0  0  0  0  0
   57.6416   34.7637   44.3071 H   0  0  0  0  0  0  0  0  0  0  0  0
   57.8648   33.1698   42.7206 H   0  0  0  0  0  0  0  0  0  0  0  0
   59.3011   32.7247   43.6566 H   0  0  0  0  0  0  0  0  0  0  0  0
   58.6545   31.4113   45.8723 H   0  0  0  0  0  0  0  0  0  0  0  0
   57.6968   29.2510   46.6020 H   0  0  0  0  0  0  0  0  0  0  0  0
   56.2130   27.0140   44.8200 H   0  0  0  0  0  0  0  0  0  0  0  0
   55.3517   29.1824   42.9692 H   0  0  0  0  0  0  0  0  0  0  0  0
   56.3448   31.3691   42.2662 H   0  0  0  0  0  0  0  0  0  0  0  0
   58.2430   32.9870   49.9010 H   0  0  0  0  0  0  0  0  0  0  0  0
  1  2  2  0
  2  3  1  0
  3  4  1  0
  4  5  1  0
  5  6  2  0
  6  7  1  0
  7  8  1  0
  8  9  1  0
  9 10  1  0
 10 11  2  0
 11 12  1  0
 12 13  2  0
 13 14  1  0
 13 15  1  0
 15 16  2  0
  7 17  1  0
 17 18  2  0
 17 19  1  0
 19 20  1  0
 20  2  1  0
 19  4  2  0
 16 10  1  0
  3 21  1  0
  6 22  1  0
  8 23  1  0
  8 24  1  0
  9 25  1  0
  9 26  1  0
 11 27  1  0
 12 28  1  0
 14 29  1  0
 15 30  1  0
 16 31  1  0
 20 32  1  0
M  END
>  <smiles>  (32) 
O=c1[nH]c2ncn(CCc3ccc(O)cc3)c(=O)c2[nH]1

>  <score_type>  (32) 
oracle

>  <origin>  (32) 
adg

>  <m_score__min__energy>  (32) 
-6.96

>  <m_primary>  (32) 
energy

$$$$
32:0
     RDKit          3D

 53 55  0  0  0  0  0  0  0  0999 V2000
   62.8590   31.1550   50.2940 C   0  0  0  0  0  0  0  0  0  0  0  0
   62.8940   32.2450   49.3800 O   0  0  0  0  0  0  0  0  0  0  0  0
   62.7440   32.0790   47.9990 C   0  0  0  0  0  0  0  0  0  0  0  0
   63.6750   32.4230   47.2170 O   0  0  0  0  0  0  0  0  0  0  0  0
   61.4950   31.5010   47.4580 C   0  0  0  0  0  0  0  0  0  0  0  0
   60.2410   32.0010   47.8520 C   0  0  0  0  0  0  0  0  0  0  0  0
   59.0650   31.4480   47.3390 C   0  0  0  0  0  0  0  0  0  0  0  0
   59.1220   30.3870   46.4230 C   0  0  0  0  0  0  0  0  0  0  0  0
   57.8760   29.7890   45.9040 C   0  0  0  0  0  0  0  0  0  0  0  0
   57.1320   30.2750   44.8250 C   0  0  0  0  0  0  0  0  0  0  0  0
   57.3790   31.4980   44.0340 C   0  0  0  0  0  0  0  0  0  0  0  0
   57.2120   31.4690   42.7840 O   0  0  0  0  0  0  0  0  0  0  0  0
   57.8080   32.7520   44.6740 C   0  0  0  0  0  0  0  0  0  0  0  0
   58.8170   33.5830   44.2260 C   0  0  0  0  0  0  0  0  0  0  0  0
   58.8650   34.6260   45.1250 C   0  0  0  0  0  0  0  0  0  0  0  0
   57.8840   34.3730   46.0600 C   0  0  0  0  0  0  0  0  0  0  0  0
   57.2700   33.2520   45.7620 O   0  0  0  0  0  0  0  0  0  0  0  0
   56.1370   29.3370   44.6010 C   0  0  0  0  0  0  0  0  0  0  0  0
   55.1360   29.3780   43.6340 O   0  0  0  0  0  0  0  0  0  0  0  0
   56.3060   28.3390   45.5290 C   0  0  0  0  0  0  0  0  0  0  0  0
   55.5190   27.1970   45.6240 O   0  0  0  0  0  0  0  0  0  0  0  0
   57.3590   28.6050   46.3290 N   0  0  0  0  0  0  0  0  0  0  0  0
   57.9110   27.6950   47.3420 C   0  0  0  0  0  0  0  0  0  0  0  0
   59.1390   26.9390   46.8130 C   0  0  0  0  0  0  0  0  0  0  0  0
   60.3850   27.1710   47.6810 C   0  0  0  0  0  0  0  0  0  0  0  0
   59.9950   27.5010   49.0690 N   0  0  0  0  0  0  0  0  0  0  0  0
   60.7630   26.6800   50.0220 C   0  0  0  0  0  0  0  0  0  0  0  0
   60.2260   28.9280   49.3570 C   0  0  0  0  0  0  0  0  0  0  0  0
   60.3690   29.8850   46.0280 C   0  0  0  0  0  0  0  0  0  0  0  0
   61.5460   30.4380   46.5390 C   0  0  0  0  0  0  0  0  0  0  0  0
   62.8714   31.5399   51.3244 H   0  0  0  0  0  0  0  0  0  0  0  0
   61.9416   30.5700   50.1321 H   0  0  0  0  0  0  0  0  0  0  0  0
   63.7370   30.5124   50.1321 H   0  0  0  0  0  0  0  0  0  0  0  0
   60.1857   32.8333   48.5691 H   0  0  0  0  0  0  0  0  0  0  0  0
   58.0896   31.8465   47.6549 H   0  0  0  0  0  0  0  0  0  0  0  0
   59.4497   33.4414   43.3374 H   0  0  0  0  0  0  0  0  0  0  0  0
   59.5487   35.4874   45.1014 H   0  0  0  0  0  0  0  0  0  0  0  0
   57.6514   35.0130   46.9239 H   0  0  0  0  0  0  0  0  0  0  0  0
   55.1810   28.8120   42.7980 H   0  0  0  0  0  0  0  0  0  0  0  0
   58.2054   28.2805   48.2255 H   0  0  0  0  0  0  0  0  0  0  0  0
   57.1372   26.9570   47.6001 H   0  0  0  0  0  0  0  0  0  0  0  0
   58.9129   25.8626   46.7993 H   0  0  0  0  0  0  0  0  0  0  0  0
   59.3573   27.3166   45.8032 H   0  0  0  0  0  0  0  0  0  0  0  0
   60.9987   26.2581   47.6847 H   0  0  0  0  0  0  0  0  0  0  0  0
   60.9583   28.0116   47.2631 H   0  0  0  0  0  0  0  0  0  0  0  0
   60.4959   26.9655   51.0502 H   0  0  0  0  0  0  0  0  0  0  0  0
   60.5272   25.6173   49.8635 H   0  0  0  0  0  0  0  0  0  0  0  0
   61.8390   26.8444   49.8635 H   0  0  0  0  0  0  0  0  0  0  0  0
   60.2511   29.0829   50.4457 H   0  0  0  0  0  0  0  0  0  0  0  0
   61.1863   29.2395   48.9201 H   0  0  0  0  0  0  0  0  0  0  0  0
   59.4131   29.5265   48.9201 H   0  0  0  0  0  0  0  0  0  0  0  0
   60.4217   29.0515   45.3121 H   0  0  0  0  0  0  0  0  0  0  0  0
   62.5200   30.0387   46.2199 H   0  0  0  0  0  0  0  0  0  0  0  0
  1  2  1  0
  2  3  1  0
  3  4  2  0
  3  5  1  0
  5  6  2  0
  6  7  1  0
  7  8  2  0
  8  9  1  0
  9 10  2  0
 10 11  1  0
 11 12  2  0
 11 13  1  0
 13 14  2  0
 14 15  1  0
 15 16  2  0
 16 17  1  0
 10 18  1  0
 18 19  1  0
 18 20  2  0
 20 21  1  0
 20 22  1  0
 22 23  1  0
 23 24  1  0
 24 25  1  0
 25 26  1  0
 26 27  1  0
 26 28  1  0
  8 29  1  0
 29 30  2  0
 30  5  1  0
 22  9  1  0
 17 13  1  0
  1 31  1  0
  1 32  1  0
  1 33  1  0
  6 34  1  0
  7 35  1  0
 14 36  1  0
 15 37  1  0
 16 38  1  0
 19 39  1  0
 23 40  1  0
 23 41  1  0
 24 42  1  0
 24 43  1  0
 25 44  1  0
 25 45  1  0
 27 46  1  0
 27 47  1  0
 27 48  1  0
 28 49  1  0
 28 50  1  0
 28 51  1  0
 29 52  1  0
 30 53  1  0
M  CHG  1  21  -1
M  END
>  <UniqueID>  (33) 
26

>  <SMILES>  (33) 
COC(=O)c1ccc(-c2c(C(=O)c3ccco3)c(O)c([O-])n2CCCN(C)C)cc1

>  <Energy>  (33) 
110.85959816293878

>  <Genealogy>  (33) 
COC(=O)c1ccc(-c2c(C(=O)c3ccco3)c(O)c([O-])n2CCCN(C)C)cc1 (protonated)
COC(=O)c1ccc(-c2c(C(=O)c3ccco3)c(O)c([O-])n2CCCN(C)C)cc1 (3D coordinates assigned)
COC(=O)c1ccc(-c2c(C(=O)c3ccco3)c(O)c([O-])n2CCCN(C)C)cc1 (optimized conformer: 110.85959816293878 kcal/mol)

>  <smiles>  (33) 
COC(=O)c1ccc(-c2c(C(=O)c3ccco3)c(O)c(O)n2CCCN(C)C)cc1

>  <score_type>  (33) 
oracle

>  <origin>  (33) 
adg

>  <m_score__min__energy>  (33) 
-9.8000000000000007

>  <m_primary>  (33) 
energy

$$$$
33:0
     RDKit          3D

 29 30  0  0  0  0  0  0  0  0999 V2000
   58.5160   34.5170   44.8520 C   0  0  0  0  0  0  0  0  0  0  0  0
   58.6550   33.1890   45.5600 C   0  0  0  0  0  0  0  0  0  0  0  0
   59.0670   33.1320   46.9090 C   0  0  0  0  0  0  0  0  0  0  0  0
   59.4490   34.5800   47.8390 Cl  0  0  0  0  0  0  0  0  0  0  0  0
   59.1750   31.9010   47.5590 C   0  0  0  0  0  0  0  0  0  0  0  0
   58.8500   30.7100   46.9000 C   0  0  0  0  0  0  0  0  0  0  0  0
   59.0070   29.3950   47.6170 C   0  0  0  0  0  0  0  0  0  0  0  0
   59.8200   28.5000   46.8060 N   0  0  0  0  0  0  0  0  0  0  0  0
   59.5600   27.1110   46.5550 C   0  0  0  0  0  0  0  0  0  0  0  0
   60.5300   26.3670   46.2570 O   0  0  0  0  0  0  0  0  0  0  0  0
   58.2060   26.5220   46.5820 C   0  0  0  0  0  0  0  0  0  0  0  0
   57.8750   25.2170   46.9110 C   0  0  0  0  0  0  0  0  0  0  0  0
   56.5130   25.1070   46.7390 C   0  0  0  0  0  0  0  0  0  0  0  0
   56.0930   26.3420   46.3040 C   0  0  0  0  0  0  0  0  0  0  0  0
   54.7780   26.6670   45.9980 O   0  0  0  0  0  0  0  0  0  0  0  0
   57.1130   27.2120   46.1940 N   0  0  0  0  0  0  0  0  0  0  0  0
   58.4240   30.7500   45.5610 C   0  0  0  0  0  0  0  0  0  0  0  0
   58.1190   29.5470   44.9140 O   0  0  0  0  0  0  0  0  0  0  0  0
   58.3080   31.9880   44.8930 C   0  0  0  0  0  0  0  0  0  0  0  0
   57.7090   32.0320   43.2310 Cl  0  0  0  0  0  0  0  0  0  0  0  0
   58.4317   35.3224   45.5965 H   0  0  0  0  0  0  0  0  0  0  0  0
   59.4008   34.6911   44.2221 H   0  0  0  0  0  0  0  0  0  0  0  0
   57.6143   34.5041   44.2221 H   0  0  0  0  0  0  0  0  0  0  0  0
   59.5201   31.8669   48.6029 H   0  0  0  0  0  0  0  0  0  0  0  0
   59.4991   29.5614   48.5866 H   0  0  0  0  0  0  0  0  0  0  0  0
   58.0171   28.9451   47.7835 H   0  0  0  0  0  0  0  0  0  0  0  0
   58.5634   24.4261   47.2435 H   0  0  0  0  0  0  0  0  0  0  0  0
   55.8908   24.2168   46.9133 H   0  0  0  0  0  0  0  0  0  0  0  0
   58.2160   28.6400   45.3520 H   0  0  0  0  0  0  0  0  0  0  0  0
  1  2  1  0
  2  3  2  0
  3  4  1  0
  3  5  1  0
  5  6  2  0
  6  7  1  0
  7  8  1  0
  8  9  1  0
  9 10  2  0
  9 11  1  0
 11 12  2  0
 12 13  1  0
 13 14  2  0
 14 15  1  0
 14 16  1  0
  6 17  1  0
 17 18  1  0
 17 19  2  0
 19 20  1  0
 19  2  1  0
 16 11  1  0
  1 21  1  0
  1 22  1  0
  1 23  1  0
  5 24  1  0
  7 25  1  0
  7 26  1  0
 12 27  1  0
 13 28  1  0
 18 29  1  0
M  CHG  3   8  -1  15  -1  16  -1
M  END
>  <UniqueID>  (34) 
27

>  <SMILES>  (34) 
Cc1c(Cl)cc(C[N-]C(=O)c2ccc([O-])[n-]2)c(O)c1Cl

>  <Energy>  (34) 
61.11760820633033

>  <Genealogy>  (34) 
Cc1c(Cl)cc(C[N-]C(=O)c2ccc([O-])[n-]2)c(O)c1Cl (protonated)
Cc1c(Cl)cc(C[N-]C(=O)c2ccc([O-])[n-]2)c(O)c1Cl (3D coordinates assigned)
Cc1c(Cl)cc(C[N-]C(=O)c2ccc([O-])[n-]2)c(O)c1Cl (optimized conformer: 61.11760820633033 kcal/mol)

>  <smiles>  (34) 
Cc1c(Cl)cc(CNC(=O)c2ccc(O)[nH]2)c(O)c1Cl

>  <score_type>  (34) 
oracle

>  <origin>  (34) 
adg

>  <m_score__min__energy>  (34) 
-13.06

>  <m_primary>  (34) 
energy

$$$$
34:0
     RDKit          3D

 30 31  0  0  0  0  0  0  0  0999 V2000
   63.6660   32.6840   47.1260 C   0  0  0  0  0  0  0  0  0  0  0  0
   62.1740   32.8430   47.1220 C   0  0  0  0  0  0  0  0  0  0  0  0
   61.5990   34.1160   46.9850 C   0  0  0  0  0  0  0  0  0  0  0  0
   60.2090   34.2600   46.9430 C   0  0  0  0  0  0  0  0  0  0  0  0
   59.3830   33.1320   47.0220 C   0  0  0  0  0  0  0  0  0  0  0  0
   57.6000   33.3130   46.9580 S   0  0  0  0  0  0  0  0  0  0  0  0
   57.4930   32.5350   45.3450 C   0  0  0  0  0  0  0  0  0  0  0  0
   56.8060   31.4000   45.2390 O   0  0  0  0  0  0  0  0  0  0  0  0
   56.6820   30.7330   44.0950 C   0  0  0  0  0  0  0  0  0  0  0  0
   55.8790   29.4680   44.0650 C   0  0  0  0  0  0  0  0  0  0  0  0
   55.1410   29.3360   45.2480 O   0  0  0  0  0  0  0  0  0  0  0  0
   57.2780   31.2250   42.9290 C   0  0  0  0  0  0  0  0  0  0  0  0
   58.0020   32.4150   42.9930 C   0  0  0  0  0  0  0  0  0  0  0  0
   58.5470   32.8780   41.9540 O   0  0  0  0  0  0  0  0  0  0  0  0
   58.1160   33.0910   44.2110 C   0  0  0  0  0  0  0  0  0  0  0  0
   58.8330   34.2890   44.2680 O   0  0  0  0  0  0  0  0  0  0  0  0
   59.9530   31.8600   47.1470 C   0  0  0  0  0  0  0  0  0  0  0  0
   61.3420   31.7140   47.1890 C   0  0  0  0  0  0  0  0  0  0  0  0
   64.0278   32.6454   48.1641 H   0  0  0  0  0  0  0  0  0  0  0  0
   63.9368   31.7519   46.6084 H   0  0  0  0  0  0  0  0  0  0  0  0
   64.1272   33.5381   46.6084 H   0  0  0  0  0  0  0  0  0  0  0  0
   62.2444   35.0037   46.9104 H   0  0  0  0  0  0  0  0  0  0  0  0
   59.7634   35.2612   46.8477 H   0  0  0  0  0  0  0  0  0  0  0  0
   55.1900   29.4951   43.2079 H   0  0  0  0  0  0  0  0  0  0  0  0
   56.5622   28.6111   43.9704 H   0  0  0  0  0  0  0  0  0  0  0  0
   55.6840   29.7520   45.9680 H   0  0  0  0  0  0  0  0  0  0  0  0
   57.1772   30.6822   41.9776 H   0  0  0  0  0  0  0  0  0  0  0  0
   59.4600   34.5890   43.5320 H   0  0  0  0  0  0  0  0  0  0  0  0
   59.3059   30.9729   47.2124 H   0  0  0  0  0  0  0  0  0  0  0  0
   61.7852   30.7109   47.2749 H   0  0  0  0  0  0  0  0  0  0  0  0
  1  2  1  0
  2  3  2  0
  3  4  1  0
  4  5  2  0
  5  6  1  0
  6  7  1  0
  7  8  1  0
  8  9  1  0
  9 10  1  0
 10 11  1  0
  9 12  2  0
 12 13  1  0
 13 14  2  0
 13 15  1  0
 15 16  1  0
  5 17  1  0
 17 18  2  0
 18  2  1  0
 15  7  2  0
  1 19  1  0
  1 20  1  0
  1 21  1  0
  3 22  1  0
  4 23  1  0
 10 24  1  0
 10 25  1  0
 11 26  1  0
 12 27  1  0
 16 28  1  0
 17 29  1  0
 18 30  1  0
M  END
>  <UniqueID>  (35) 
28

>  <SMILES>  (35) 
Cc1ccc(Sc2oc(CO)cc(=O)c2O)cc1

>  <Energy>  (35) 
26.62533915235806

>  <Genealogy>  (35) 
Cc1ccc(Sc2oc(CO)cc(=O)c2O)cc1 (3D coordinates assigned)
Cc1ccc(Sc2oc(CO)cc(=O)c2O)cc1 (optimized conformer: 26.62533915235806 kcal/mol)

>  <smiles>  (35) 
Cc1ccc(Sc2oc(CO)cc(=O)c2O)cc1

>  <score_type>  (35) 
oracle

>  <origin>  (35) 
adg

>  <m_score__min__energy>  (35) 
-7.0999999999999996

>  <m_primary>  (35) 
energy

$$$$
35:0
     RDKit          3D

 39 41  0  0  0  0  0  0  0  0999 V2000
   58.5980   33.1300   45.7080 C   0  0  0  0  0  0  0  0  0  0  0  0
   59.0050   32.4720   46.9990 C   0  0  0  0  0  0  0  0  0  0  0  0
   59.6370   33.2430   47.9910 C   0  0  0  0  0  0  0  0  0  0  0  0
   60.0450   32.6580   49.1910 C   0  0  0  0  0  0  0  0  0  0  0  0
   59.8230   31.3010   49.4190 C   0  0  0  0  0  0  0  0  0  0  0  0
   59.1830   30.5240   48.4520 C   0  0  0  0  0  0  0  0  0  0  0  0
   58.7610   31.0970   47.2390 C   0  0  0  0  0  0  0  0  0  0  0  0
   58.0740   30.2800   46.2720 N   0  0  0  0  0  0  0  0  0  0  0  0
   57.0230   30.6840   45.5730 N   0  0  0  0  0  0  0  0  0  0  0  0
   56.6270   29.6580   44.7900 C   0  0  0  0  0  0  0  0  0  0  0  0
   55.5070   29.7580   43.8070 C   0  0  0  0  0  0  0  0  0  0  0  0
   57.4600   28.5640   44.9900 C   0  0  0  0  0  0  0  0  0  0  0  0
   57.4450   27.2360   44.2860 C   0  0  0  0  0  0  0  0  0  0  0  0
   57.3880   26.1040   45.2810 C   0  0  0  0  0  0  0  0  0  0  0  0
   58.4900   25.2420   45.4260 C   0  0  0  0  0  0  0  0  0  0  0  0
   58.4600   24.2060   46.3640 C   0  0  0  0  0  0  0  0  0  0  0  0
   57.3290   24.0170   47.1680 C   0  0  0  0  0  0  0  0  0  0  0  0
   57.2880   22.9890   48.1060 O   0  0  0  0  0  0  0  0  0  0  0  0
   56.2290   24.8690   47.0290 C   0  0  0  0  0  0  0  0  0  0  0  0
   56.2530   25.9080   46.0920 C   0  0  0  0  0  0  0  0  0  0  0  0
   55.1450   26.7400   45.9740 O   0  0  0  0  0  0  0  0  0  0  0  0
   58.3560   29.0050   45.9400 C   0  0  0  0  0  0  0  0  0  0  0  0
   59.3150   28.3370   46.4130 O   0  0  0  0  0  0  0  0  0  0  0  0
   58.0309   34.0468   45.9266 H   0  0  0  0  0  0  0  0  0  0  0  0
   59.4967   33.3845   45.1269 H   0  0  0  0  0  0  0  0  0  0  0  0
   57.9690   32.4396   45.1269 H   0  0  0  0  0  0  0  0  0  0  0  0
   59.8112   34.3156   47.8199 H   0  0  0  0  0  0  0  0  0  0  0  0
   60.5427   33.2692   49.9582 H   0  0  0  0  0  0  0  0  0  0  0  0
   60.1527   30.8416   50.3625 H   0  0  0  0  0  0  0  0  0  0  0  0
   59.0073   29.4546   48.6403 H   0  0  0  0  0  0  0  0  0  0  0  0
   54.5522   29.8433   44.3465 H   0  0  0  0  0  0  0  0  0  0  0  0
   55.6518   30.6468   43.1753 H   0  0  0  0  0  0  0  0  0  0  0  0
   55.4921   28.8576   43.1753 H   0  0  0  0  0  0  0  0  0  0  0  0
   56.5630   27.1850   43.6306 H   0  0  0  0  0  0  0  0  0  0  0  0
   58.3673   27.1397   43.6943 H   0  0  0  0  0  0  0  0  0  0  0  0
   59.3813   25.3841   44.7971 H   0  0  0  0  0  0  0  0  0  0  0  0
   59.3270   23.5375   46.4709 H   0  0  0  0  0  0  0  0  0  0  0  0
   56.5410   22.3030   48.1060 H   0  0  0  0  0  0  0  0  0  0  0  0
   55.3399   24.7217   47.6597 H   0  0  0  0  0  0  0  0  0  0  0  0
  1  2  1  0
  2  3  2  0
  3  4  1  0
  4  5  2  0
  5  6  1  0
  6  7  2  0
  7  8  1  0
  8  9  1  0
  9 10  1  0
 10 11  1  0
 10 12  2  0
 12 13  1  0
 13 14  1  0
 14 15  2  0
 15 16  1  0
 16 17  2  0
 17 18  1  0
 17 19  1  0
 19 20  2  0
 20 21  1  0
 12 22  1  0
 22 23  2  0
  7  2  1  0
 22  8  1  0
 20 14  1  0
  1 24  1  0
  1 25  1  0
  1 26  1  0
  3 27  1  0
  4 28  1  0
  5 29  1  0
  6 30  1  0
 11 31  1  0
 11 32  1  0
 11 33  1  0
 13 34  1  0
 13 35  1  0
 15 36  1  0
 16 37  1  0
 18 38  1  0
 19 39  1  0
M  CHG  2   9  -1  21  -1
M  END
>  <UniqueID>  (36) 
29

>  <SMILES>  (36) 
Cc1ccccc1-n1[n-]c(C)c(Cc2ccc(O)cc2[O-])c1=O

>  <Energy>  (36) 
76.78176253831154

>  <Genealogy>  (36) 
Cc1ccccc1-n1[n-]c(C)c(Cc2ccc(O)cc2[O-])c1=O (protonated)
Cc1ccccc1-n1[n-]c(C)c(Cc2ccc(O)cc2[O-])c1=O (3D coordinates assigned)
Cc1ccccc1-n1[n-]c(C)c(Cc2ccc(O)cc2[O-])c1=O (optimized conformer: 76.78176253831154 kcal/mol)

>  <smiles>  (36) 
Cc1ccccc1-n1[nH]c(C)c(Cc2ccc(O)cc2O)c1=O

>  <score_type>  (36) 
oracle

>  <origin>  (36) 
adg

>  <m_score__min__energy>  (36) 
-12.52

>  <m_primary>  (36) 
energy

$$$$
36:0
     RDKit          3D

 43 44  0  0  0  0  0  0  0  0999 V2000
   62.4220   31.6110   47.7170 C   0  0  0  0  0  0  0  0  0  0  0  0
   61.4220   31.2070   46.7900 O   0  0  0  0  0  0  0  0  0  0  0  0
   60.8640   29.9240   46.7900 C   0  0  0  0  0  0  0  0  0  0  0  0
   60.7230   29.2370   45.5820 C   0  0  0  0  0  0  0  0  0  0  0  0
   60.1680   27.9560   45.5820 C   0  0  0  0  0  0  0  0  0  0  0  0
   59.7550   27.3690   46.7860 C   0  0  0  0  0  0  0  0  0  0  0  0
   59.1920   25.9770   46.7990 C   0  0  0  0  0  0  0  0  0  0  0  0
   57.9000   25.9890   47.4790 N   0  0  0  0  0  0  0  0  0  0  0  0
   56.6530   25.4440   46.3990 S   0  0  0  0  0  0  0  0  0  0  0  0
   55.8440   24.3690   47.0650 O   0  0  0  0  0  0  0  0  0  0  0  0
   57.2710   24.8890   45.1470 O   0  0  0  0  0  0  0  0  0  0  0  0
   55.5940   26.7570   45.9900 N   0  0  0  0  0  0  0  0  0  0  0  0
   56.5220   28.0930   45.3810 S   0  0  0  0  0  0  0  0  0  0  0  0
   57.4170   27.6210   44.2690 O   0  0  0  0  0  0  0  0  0  0  0  0
   57.3730   28.6290   46.4970 O   0  0  0  0  0  0  0  0  0  0  0  0
   55.4620   29.3520   44.8150 N   0  0  0  0  0  0  0  0  0  0  0  0
   56.1420   30.2190   43.8480 C   0  0  0  0  0  0  0  0  0  0  0  0
   57.6180   30.4020   44.2200 C   0  0  0  0  0  0  0  0  0  0  0  0
   57.8480   31.7120   44.9290 C   0  0  0  0  0  0  0  0  0  0  0  0
   57.8160   32.9200   44.2150 C   0  0  0  0  0  0  0  0  0  0  0  0
   58.0540   34.1320   44.8730 C   0  0  0  0  0  0  0  0  0  0  0  0
   58.3380   34.1450   46.2410 C   0  0  0  0  0  0  0  0  0  0  0  0
   58.3830   32.9450   46.9560 C   0  0  0  0  0  0  0  0  0  0  0  0
   58.1410   31.7320   46.3030 C   0  0  0  0  0  0  0  0  0  0  0  0
   59.9170   28.0930   47.9780 C   0  0  0  0  0  0  0  0  0  0  0  0
   60.4610   29.3380   47.9510 N   0  0  0  0  0  0  0  0  0  0  0  0
   62.0530   31.4619   48.7425 H   0  0  0  0  0  0  0  0  0  0  0  0
   63.3296   31.0090   47.5628 H   0  0  0  0  0  0  0  0  0  0  0  0
   62.6568   32.6745   47.5628 H   0  0  0  0  0  0  0  0  0  0  0  0
   61.0465   29.7014   44.6388 H   0  0  0  0  0  0  0  0  0  0  0  0
   60.0546   27.4065   44.6358 H   0  0  0  0  0  0  0  0  0  0  0  0
   59.0608   25.6233   45.7657 H   0  0  0  0  0  0  0  0  0  0  0  0
   59.8823   25.3036   47.3282 H   0  0  0  0  0  0  0  0  0  0  0  0
   56.0763   29.7645   42.8484 H   0  0  0  0  0  0  0  0  0  0  0  0
   55.6531   31.2044   43.8552 H   0  0  0  0  0  0  0  0  0  0  0  0
   57.9252   29.5784   44.8813 H   0  0  0  0  0  0  0  0  0  0  0  0
   58.2112   30.4008   43.2937 H   0  0  0  0  0  0  0  0  0  0  0  0
   57.6034   32.9141   43.1358 H   0  0  0  0  0  0  0  0  0  0  0  0
   58.0174   35.0772   44.3115 H   0  0  0  0  0  0  0  0  0  0  0  0
   58.5261   35.0992   46.7550 H   0  0  0  0  0  0  0  0  0  0  0  0
   58.6088   32.9545   48.0325 H   0  0  0  0  0  0  0  0  0  0  0  0
   58.1803   30.7890   46.8680 H   0  0  0  0  0  0  0  0  0  0  0  0
   59.6030   27.6517   48.9354 H   0  0  0  0  0  0  0  0  0  0  0  0
  1  2  1  0
  2  3  1  0
  3  4  2  0
  4  5  1  0
  5  6  2  0
  6  7  1  0
  7  8  1  0
  8  9  1  0
  9 10  2  0
  9 11  2  0
  9 12  1  0
 12 13  1  0
 13 14  2  0
 13 15  2  0
 13 16  1  0
 16 17  1  0
 17 18  1  0
 18 19  1  0
 19 20  2  0
 20 21  1  0
 21 22  2  0
 22 23  1  0
 23 24  2  0
  6 25  1  0
 25 26  2  0
 26  3  1  0
 24 19  1  0
  1 27  1  0
  1 28  1  0
  1 29  1  0
  4 30  1  0
  5 31  1  0
  7 32  1  0
  7 33  1  0
 17 34  1  0
 17 35  1  0
 18 36  1  0
 18 37  1  0
 20 38  1  0
 21 39  1  0
 22 40  1  0
 23 41  1  0
 24 42  1  0
 25 43  1  0
M  CHG  3   8  -1  12  -1  16  -1
M  END
>  <UniqueID>  (37) 
30

>  <SMILES>  (37) 
COc1ccc(C[N-]S(=O)(=O)[N-]S(=O)(=O)[N-]CCc2ccccc2)cn1

>  <Energy>  (37) 
29.146995678113377

>  <Genealogy>  (37) 
COc1ccc(C[N-]S(=O)(=O)[N-]S(=O)(=O)[N-]CCc2ccccc2)cn1 (protonated)
COc1ccc(C[N-]S(=O)(=O)[N-]S(=O)(=O)[N-]CCc2ccccc2)cn1 (3D coordinates assigned)
COc1ccc(C[N-]S(=O)(=O)[N-]S(=O)(=O)[N-]CCc2ccccc2)cn1 (optimized conformer: 29.146995678113377 kcal/mol)

>  <smiles>  (37) 
COc1ccc(CNS(=O)(=O)NS(=O)(=O)NCCc2ccccc2)cn1

>  <score_type>  (37) 
oracle

>  <origin>  (37) 
adg

>  <m_score__min__energy>  (37) 
-12.84

>  <m_primary>  (37) 
energy

$$$$
37:0
     RDKit          3D

 49 52  0  0  0  0  0  0  0  0999 V2000
   58.3780   30.9700   53.4530 N   0  0  0  0  0  0  0  0  0  0  0  0
   57.6450   31.2990   51.9200 S   0  0  0  0  0  0  0  0  0  0  0  0
   57.0330   32.6720   51.9520 O   0  0  0  0  0  0  0  0  0  0  0  0
   56.5660   30.2920   51.6470 O   0  0  0  0  0  0  0  0  0  0  0  0
   58.8620   31.2090   50.6530 C   0  0  0  0  0  0  0  0  0  0  0  0
   59.2420   32.3530   49.9390 C   0  0  0  0  0  0  0  0  0  0  0  0
   60.2230   32.2660   48.9540 C   0  0  0  0  0  0  0  0  0  0  0  0
   60.8290   31.0400   48.6720 C   0  0  0  0  0  0  0  0  0  0  0  0
   60.4620   29.8860   49.3760 C   0  0  0  0  0  0  0  0  0  0  0  0
   61.1470   28.6620   49.0780 N   0  0  0  0  0  0  0  0  0  0  0  0
   60.4770   27.2440   48.3300 S   0  0  0  0  0  0  0  0  0  0  0  0
   61.5180   26.5380   47.5080 O   0  0  0  0  0  0  0  0  0  0  0  0
   60.0370   26.3170   49.4280 O   0  0  0  0  0  0  0  0  0  0  0  0
   59.0780   27.6500   47.3320 C   0  0  0  0  0  0  0  0  0  0  0  0
   58.9210   28.9370   46.8010 C   0  0  0  0  0  0  0  0  0  0  0  0
   57.8110   29.2460   46.0130 C   0  0  0  0  0  0  0  0  0  0  0  0
   56.8190   28.2780   45.7710 C   0  0  0  0  0  0  0  0  0  0  0  0
   55.6580   28.5650   44.9780 N   0  0  0  0  0  0  0  0  0  0  0  0
   55.4770   29.7000   44.1180 C   0  0  0  0  0  0  0  0  0  0  0  0
   54.4650   29.7390   43.3690 O   0  0  0  0  0  0  0  0  0  0  0  0
   56.4190   30.8370   44.1020 C   0  0  0  0  0  0  0  0  0  0  0  0
   57.0620   31.2320   42.9180 C   0  0  0  0  0  0  0  0  0  0  0  0
   57.9250   32.3280   42.9440 C   0  0  0  0  0  0  0  0  0  0  0  0
   58.5000   32.6910   41.8810 O   0  0  0  0  0  0  0  0  0  0  0  0
   58.1390   33.0080   44.1530 C   0  0  0  0  0  0  0  0  0  0  0  0
   58.9900   34.1240   44.2480 C   0  0  0  0  0  0  0  0  0  0  0  0
   59.1710   34.7650   45.4780 C   0  0  0  0  0  0  0  0  0  0  0  0
   58.5100   34.2980   46.6180 C   0  0  0  0  0  0  0  0  0  0  0  0
   57.6670   33.1880   46.5350 C   0  0  0  0  0  0  0  0  0  0  0  0
   57.4740   32.5400   45.3090 C   0  0  0  0  0  0  0  0  0  0  0  0
   56.6610   31.4900   45.2370 O   0  0  0  0  0  0  0  0  0  0  0  0
   56.9900   26.9860   46.2780 C   0  0  0  0  0  0  0  0  0  0  0  0
   58.1090   26.6720   47.0560 C   0  0  0  0  0  0  0  0  0  0  0  0
   59.4670   29.9760   50.3680 C   0  0  0  0  0  0  0  0  0  0  0  0
   59.4040   30.8650   53.2890 H   0  0  0  0  0  0  0  0  0  0  0  0
   58.0270   30.0360   53.7660 H   0  0  0  0  0  0  0  0  0  0  0  0
   58.7654   33.3203   50.1564 H   0  0  0  0  0  0  0  0  0  0  0  0
   60.5213   33.1661   48.3964 H   0  0  0  0  0  0  0  0  0  0  0  0
   61.6009   30.9800   47.8906 H   0  0  0  0  0  0  0  0  0  0  0  0
   59.6773   29.7089   47.0064 H   0  0  0  0  0  0  0  0  0  0  0  0
   57.7113   30.2518   45.5789 H   0  0  0  0  0  0  0  0  0  0  0  0
   56.8874   30.6836   41.9806 H   0  0  0  0  0  0  0  0  0  0  0  0
   59.5138   34.4931   43.3539 H   0  0  0  0  0  0  0  0  0  0  0  0
   59.8353   35.6389   45.5485 H   0  0  0  0  0  0  0  0  0  0  0  0
   58.6544   34.8063   47.5828 H   0  0  0  0  0  0  0  0  0  0  0  0
   57.1529   32.8215   47.4357 H   0  0  0  0  0  0  0  0  0  0  0  0
   56.2392   26.2113   46.0634 H   0  0  0  0  0  0  0  0  0  0  0  0
   58.2306   25.6537   47.4537 H   0  0  0  0  0  0  0  0  0  0  0  0
   59.1628   29.0756   50.9219 H   0  0  0  0  0  0  0  0  0  0  0  0
  1  2  1  0
  2  3  2  0
  2  4  2  0
  2  5  1  0
  5  6  2  0
  6  7  1  0
  7  8  2  0
  8  9  1  0
  9 10  1  0
 10 11  1  0
 11 12  2  0
 11 13  2  0
 11 14  1  0
 14 15  2  0
 15 16  1  0
 16 17  2  0
 17 18  1  0
 18 19  1  0
 19 20  2  0
 19 21  1  0
 21 22  2  0
 22 23  1  0
 23 24  2  0
 23 25  1  0
 25 26  2  0
 26 27  1  0
 27 28  2  0
 28 29  1  0
 29 30  2  0
 30 31  1  0
 17 32  1  0
 32 33  2  0
  9 34  2  0
 34  5  1  0
 33 14  1  0
 31 21  1  0
 30 25  1  0
  1 35  1  0
  1 36  1  0
  6 37  1  0
  7 38  1  0
  8 39  1  0
 15 40  1  0
 16 41  1  0
 22 42  1  0
 26 43  1  0
 27 44  1  0
 28 45  1  0
 29 46  1  0
 32 47  1  0
 33 48  1  0
 34 49  1  0
M  CHG  2  10  -1  18  -1
M  END
>  <UniqueID>  (38) 
31

>  <SMILES>  (38) 
NS(=O)(=O)c1cccc([N-]S(=O)(=O)c2ccc([N-]C(=O)c3cc(=O)c4ccccc4o3)cc2)c1

>  <Energy>  (38) 
68.35340133391699

>  <Genealogy>  (38) 
NS(=O)(=O)c1cccc([N-]S(=O)(=O)c2ccc([N-]C(=O)c3cc(=O)c4ccccc4o3)cc2)c1 (protonated)
NS(=O)(=O)c1cccc([N-]S(=O)(=O)c2ccc([N-]C(=O)c3cc(=O)c4ccccc4o3)cc2)c1 (3D coordinates assigned)
NS(=O)(=O)c1cccc([N-]S(=O)(=O)c2ccc([N-]C(=O)c3cc(=O)c4ccccc4o3)cc2)c1 (optimized conformer: 68.35340133391699 kcal/mol)

>  <smiles>  (38) 
NS(=O)(=O)c1cccc(NS(=O)(=O)c2ccc(NC(=O)c3cc(=O)c4ccccc4o3)cc2)c1

>  <score_type>  (38) 
oracle

>  <origin>  (38) 
adg

>  <m_score__min__energy>  (38) 
-12.539999999999999

>  <m_primary>  (38) 
energy

$$$$
38:0
     RDKit          3D

 49 51  0  0  0  0  0  0  0  0999 V2000
   61.3610   27.9970   50.8580 C   0  0  0  0  0  0  0  0  0  0  0  0
   60.3330   28.4250   49.8080 C   0  0  0  0  0  0  0  0  0  0  0  0
   60.1050   29.9260   49.8290 C   0  0  0  0  0  0  0  0  0  0  0  0
   60.3430   30.7600   48.7050 C   0  0  0  0  0  0  0  0  0  0  0  0
   60.9170   30.0480   47.1330 S   0  0  0  0  0  0  0  0  0  0  0  0
   59.2920   29.5220   46.5670 C   0  0  0  0  0  0  0  0  0  0  0  0
   58.5230   30.3340   45.7240 C   0  0  0  0  0  0  0  0  0  0  0  0
   57.2600   29.9040   45.2790 C   0  0  0  0  0  0  0  0  0  0  0  0
   56.4490   30.6960   44.4510 O   0  0  0  0  0  0  0  0  0  0  0  0
   56.2790   30.4880   43.0520 C   0  0  0  0  0  0  0  0  0  0  0  0
   56.7860   28.6440   45.6700 C   0  0  0  0  0  0  0  0  0  0  0  0
   55.5380   28.2120   45.2340 O   0  0  0  0  0  0  0  0  0  0  0  0
   57.5580   27.8130   46.4920 C   0  0  0  0  0  0  0  0  0  0  0  0
   57.0420   26.5580   46.8510 O   0  0  0  0  0  0  0  0  0  0  0  0
   56.7760   25.5030   45.9320 C   0  0  0  0  0  0  0  0  0  0  0  0
   58.8190   28.2580   46.9310 C   0  0  0  0  0  0  0  0  0  0  0  0
   60.1830   32.1290   48.8200 N   0  0  0  0  0  0  0  0  0  0  0  0
   60.6280   33.0420   47.7400 C   0  0  0  0  0  0  0  0  0  0  0  0
   59.4700   33.4320   46.8540 C   0  0  0  0  0  0  0  0  0  0  0  0
   59.6920   34.1630   45.6740 C   0  0  0  0  0  0  0  0  0  0  0  0
   58.6190   34.5230   44.8530 C   0  0  0  0  0  0  0  0  0  0  0  0
   57.3170   34.1630   45.2050 C   0  0  0  0  0  0  0  0  0  0  0  0
   57.0840   33.4450   46.3820 C   0  0  0  0  0  0  0  0  0  0  0  0
   58.1540   33.0840   47.2050 C   0  0  0  0  0  0  0  0  0  0  0  0
   59.6970   32.6610   49.9900 C   0  0  0  0  0  0  0  0  0  0  0  0
   59.4940   33.9000   50.1050 O   0  0  0  0  0  0  0  0  0  0  0  0
   59.4420   31.8640   51.0520 N   0  0  0  0  0  0  0  0  0  0  0  0
   59.6490   30.5310   51.0100 C   0  0  0  0  0  0  0  0  0  0  0  0
   59.4310   29.8470   52.0460 O   0  0  0  0  0  0  0  0  0  0  0  0
   60.9504   28.1679   51.8641 H   0  0  0  0  0  0  0  0  0  0  0  0
   61.5905   26.9286   50.7323 H   0  0  0  0  0  0  0  0  0  0  0  0
   62.2809   28.5869   50.7323 H   0  0  0  0  0  0  0  0  0  0  0  0
   60.6972   28.1331   48.8119 H   0  0  0  0  0  0  0  0  0  0  0  0
   59.3787   27.9286   50.0381 H   0  0  0  0  0  0  0  0  0  0  0  0
   58.9092   31.3143   45.4079 H   0  0  0  0  0  0  0  0  0  0  0  0
   55.5907   29.6459   42.8875 H   0  0  0  0  0  0  0  0  0  0  0  0
   55.8621   31.3971   42.5941 H   0  0  0  0  0  0  0  0  0  0  0  0
   57.2529   30.2604   42.5941 H   0  0  0  0  0  0  0  0  0  0  0  0
   56.5439   24.5825   46.4877 H   0  0  0  0  0  0  0  0  0  0  0  0
   55.9184   25.7754   45.2993 H   0  0  0  0  0  0  0  0  0  0  0  0
   57.6602   25.3363   45.2993 H   0  0  0  0  0  0  0  0  0  0  0  0
   59.4372   27.6060   47.5656 H   0  0  0  0  0  0  0  0  0  0  0  0
   61.0590   33.9487   48.1896 H   0  0  0  0  0  0  0  0  0  0  0  0
   61.3798   32.5224   47.1278 H   0  0  0  0  0  0  0  0  0  0  0  0
   60.7156   34.4534   45.3950 H   0  0  0  0  0  0  0  0  0  0  0  0
   58.8010   35.0906   43.9285 H   0  0  0  0  0  0  0  0  0  0  0  0
   56.4743   34.4442   44.5564 H   0  0  0  0  0  0  0  0  0  0  0  0
   56.0575   33.1641   46.6603 H   0  0  0  0  0  0  0  0  0  0  0  0
   57.9654   32.5242   48.1330 H   0  0  0  0  0  0  0  0  0  0  0  0
  1  2  1  0
  2  3  1  0
  3  4  2  0
  4  5  1  0
  5  6  1  0
  6  7  2  0
  7  8  1  0
  8  9  1  0
  9 10  1  0
  8 11  2  0
 11 12  1  0
 11 13  1  0
 13 14  1  0
 14 15  1  0
 13 16  2  0
  4 17  1  0
 17 18  1  0
 18 19  1  0
 19 20  2  0
 20 21  1  0
 21 22  2  0
 22 23  1  0
 23 24  2  0
 17 25  1  0
 25 26  2  0
 25 27  1  0
 27 28  1  0
 28 29  2  0
 28  3  1  0
 16  6  1  0
 24 19  1  0
  1 30  1  0
  1 31  1  0
  1 32  1  0
  2 33  1  0
  2 34  1  0
  7 35  1  0
 10 36  1  0
 10 37  1  0
 10 38  1  0
 15 39  1  0
 15 40  1  0
 15 41  1  0
 16 42  1  0
 18 43  1  0
 18 44  1  0
 20 45  1  0
 21 46  1  0
 22 47  1  0
 23 48  1  0
 24 49  1  0
M  CHG  2  12  -1  27  -1
M  END
>  <UniqueID>  (39) 
32

>  <SMILES>  (39) 
CCc1c(Sc2cc(OC)c([O-])c(OC)c2)n(Cc2ccccc2)c(=O)[n-]c1=O

>  <Energy>  (39) 
53.53729700941713

>  <Genealogy>  (39) 
CCc1c(Sc2cc(OC)c([O-])c(OC)c2)n(Cc2ccccc2)c(=O)[n-]c1=O (protonated)
CCc1c(Sc2cc(OC)c([O-])c(OC)c2)n(Cc2ccccc2)c(=O)[n-]c1=O (3D coordinates assigned)
CCc1c(Sc2cc(OC)c([O-])c(OC)c2)n(Cc2ccccc2)c(=O)[n-]c1=O (optimized conformer: 53.53729700941713 kcal/mol)

>  <smiles>  (39) 
CCc1c(Sc2cc(OC)c(O)c(OC)c2)n(Cc2ccccc2)c(=O)[nH]c1=O

>  <score_type>  (39) 
oracle

>  <origin>  (39) 
adg

>  <m_score__min__energy>  (39) 
-12.390000000000001

>  <m_primary>  (39) 
energy

$$$$
39:0
     RDKit          3D

 40 41  0  0  0  0  0  0  0  0999 V2000
   54.7990   22.9600   48.2520 C   0  0  0  0  0  0  0  0  0  0  0  0
   54.0600   23.0230   46.9870 N   0  0  0  0  0  0  0  0  0  0  0  0
   52.6940   22.4970   46.9050 C   0  0  0  0  0  0  0  0  0  0  0  0
   54.7080   23.4810   45.7820 C   0  0  0  0  0  0  0  0  0  0  0  0
   54.2870   23.0870   44.6590 O   0  0  0  0  0  0  0  0  0  0  0  0
   55.8630   24.4040   45.8230 C   0  0  0  0  0  0  0  0  0  0  0  0
   57.1700   23.8930   45.8040 C   0  0  0  0  0  0  0  0  0  0  0  0
   58.2690   24.7540   45.8630 C   0  0  0  0  0  0  0  0  0  0  0  0
   58.0760   26.1410   45.9490 C   0  0  0  0  0  0  0  0  0  0  0  0
   59.2540   27.0740   46.0370 C   0  0  0  0  0  0  0  0  0  0  0  0
   58.8580   28.4280   45.6590 N   0  0  0  0  0  0  0  0  0  0  0  0
   58.3930   29.3910   46.6190 C   0  0  0  0  0  0  0  0  0  0  0  0
   58.1920   29.0450   47.8120 O   0  0  0  0  0  0  0  0  0  0  0  0
   58.0910   30.7340   46.2270 N   0  0  0  0  0  0  0  0  0  0  0  0
   57.8570   31.1880   44.8870 C   0  0  0  0  0  0  0  0  0  0  0  0
   58.3890   32.4210   44.4860 C   0  0  0  0  0  0  0  0  0  0  0  0
   58.2040   32.8790   43.1780 C   0  0  0  0  0  0  0  0  0  0  0  0
   57.4990   32.0990   42.2550 C   0  0  0  0  0  0  0  0  0  0  0  0
   57.2700   32.6730   40.6140 Cl  0  0  0  0  0  0  0  0  0  0  0  0
   56.9890   30.8550   42.6400 C   0  0  0  0  0  0  0  0  0  0  0  0
   57.1730   30.3960   43.9490 C   0  0  0  0  0  0  0  0  0  0  0  0
   56.7710   26.6530   45.9890 C   0  0  0  0  0  0  0  0  0  0  0  0
   55.6700   25.7950   45.9280 C   0  0  0  0  0  0  0  0  0  0  0  0
   54.3870   26.3320   45.9610 O   0  0  0  0  0  0  0  0  0  0  0  0
   54.0924   23.0202   49.0928 H   0  0  0  0  0  0  0  0  0  0  0  0
   55.3532   22.0113   48.3060 H   0  0  0  0  0  0  0  0  0  0  0  0
   55.5058   23.8011   48.3060 H   0  0  0  0  0  0  0  0  0  0  0  0
   52.2982   22.3446   47.9200 H   0  0  0  0  0  0  0  0  0  0  0  0
   52.0567   23.2140   46.3668 H   0  0  0  0  0  0  0  0  0  0  0  0
   52.7022   21.5377   46.3668 H   0  0  0  0  0  0  0  0  0  0  0  0
   57.3305   22.8065   45.7422 H   0  0  0  0  0  0  0  0  0  0  0  0
   59.2891   24.3429   45.8419 H   0  0  0  0  0  0  0  0  0  0  0  0
   59.6342   27.0820   47.0692 H   0  0  0  0  0  0  0  0  0  0  0  0
   60.0384   26.7256   45.3490 H   0  0  0  0  0  0  0  0  0  0  0  0
   58.8680   28.6770   44.6440 H   0  0  0  0  0  0  0  0  0  0  0  0
   58.9553   33.0319   45.2044 H   0  0  0  0  0  0  0  0  0  0  0  0
   58.6133   33.8538   42.8743 H   0  0  0  0  0  0  0  0  0  0  0  0
   56.4425   30.2365   41.9128 H   0  0  0  0  0  0  0  0  0  0  0  0
   56.7809   29.4118   44.2449 H   0  0  0  0  0  0  0  0  0  0  0  0
   56.6130   27.7386   46.0690 H   0  0  0  0  0  0  0  0  0  0  0  0
  1  2  1  0
  2  3  1  0
  2  4  1  0
  4  5  2  0
  4  6  1  0
  6  7  2  0
  7  8  1  0
  8  9  2  0
  9 10  1  0
 10 11  1  0
 11 12  1  0
 12 13  2  0
 12 14  1  0
 14 15  1  0
 15 16  2  0
 16 17  1  0
 17 18  2  0
 18 19  1  0
 18 20  1  0
 20 21  2  0
  9 22  1  0
 22 23  2  0
 23 24  1  0
 23  6  1  0
 21 15  1  0
  1 25  1  0
  1 26  1  0
  1 27  1  0
  3 28  1  0
  3 29  1  0
  3 30  1  0
  7 31  1  0
  8 32  1  0
 10 33  1  0
 10 34  1  0
 11 35  1  0
 16 36  1  0
 17 37  1  0
 20 38  1  0
 21 39  1  0
 22 40  1  0
M  CHG  2  14  -1  24  -1
M  END
>  <UniqueID>  (40) 
33

>  <SMILES>  (40) 
CN(C)C(=O)c1ccc(CNC(=O)[N-]c2ccc(Cl)cc2)cc1[O-]

>  <Energy>  (40) 
45.78299138984393

>  <Genealogy>  (40) 
CN(C)C(=O)c1ccc(CNC(=O)[N-]c2ccc(Cl)cc2)cc1[O-] (protonated)
CN(C)C(=O)c1ccc(CNC(=O)[N-]c2ccc(Cl)cc2)cc1[O-] (3D coordinates assigned)
CN(C)C(=O)c1ccc(CNC(=O)[N-]c2ccc(Cl)cc2)cc1[O-] (optimized conformer: 45.78299138984393 kcal/mol)

>  <smiles>  (40) 
CN(C)C(=O)c1ccc(CNC(=O)Nc2ccc(Cl)cc2)cc1O

>  <score_type>  (40) 
oracle

>  <origin>  (40) 
adg

>  <m_score__min__energy>  (40) 
-12.619999999999999

>  <m_primary>  (40) 
energy

$$$$
40:0
     RDKit          3D

 39 41  0  0  0  0  0  0  0  0999 V2000
   54.8210   29.3100   44.2610 N   0  0  0  0  0  0  0  0  0  0  0  0
   56.3100   30.1830   44.2230 S   0  0  0  0  0  0  0  0  0  0  0  0
   56.8360   30.1930   42.8140 O   0  0  0  0  0  0  0  0  0  0  0  0
   56.0800   31.6050   44.6500 O   0  0  0  0  0  0  0  0  0  0  0  0
   57.4880   29.4120   45.2920 C   0  0  0  0  0  0  0  0  0  0  0  0
   57.8350   28.0720   45.0550 C   0  0  0  0  0  0  0  0  0  0  0  0
   58.8150   27.4350   45.8340 C   0  0  0  0  0  0  0  0  0  0  0  0
   59.1670   26.0610   45.6170 N   0  0  0  0  0  0  0  0  0  0  0  0
   58.3820   24.9230   46.0010 C   0  0  0  0  0  0  0  0  0  0  0  0
   58.0580   24.7960   47.2110 O   0  0  0  0  0  0  0  0  0  0  0  0
   57.8950   23.9410   45.0060 C   0  0  0  0  0  0  0  0  0  0  0  0
   56.9320   24.2990   44.0490 C   0  0  0  0  0  0  0  0  0  0  0  0
   56.4940   23.3480   43.1250 C   0  0  0  0  0  0  0  0  0  0  0  0
   57.0190   22.0550   43.1560 C   0  0  0  0  0  0  0  0  0  0  0  0
   57.9830   21.7330   44.1120 C   0  0  0  0  0  0  0  0  0  0  0  0
   58.3970   22.6730   45.0030 N   0  0  0  0  0  0  0  0  0  0  0  0
   59.5040   28.1670   46.8030 C   0  0  0  0  0  0  0  0  0  0  0  0
   59.1630   29.4970   47.0540 C   0  0  0  0  0  0  0  0  0  0  0  0
   58.1290   30.1140   46.3400 C   0  0  0  0  0  0  0  0  0  0  0  0
   57.7800   31.4240   46.6890 O   0  0  0  0  0  0  0  0  0  0  0  0
   58.6760   32.4960   46.8460 C   0  0  0  0  0  0  0  0  0  0  0  0
   59.1420   32.7780   48.1420 C   0  0  0  0  0  0  0  0  0  0  0  0
   58.5980   31.8210   49.5130 Cl  0  0  0  0  0  0  0  0  0  0  0  0
   60.0570   33.8130   48.3580 C   0  0  0  0  0  0  0  0  0  0  0  0
   60.4990   34.5920   47.2900 C   0  0  0  0  0  0  0  0  0  0  0  0
   60.0170   34.3520   46.0030 C   0  0  0  0  0  0  0  0  0  0  0  0
   59.1000   33.3180   45.7690 C   0  0  0  0  0  0  0  0  0  0  0  0
   58.4720   33.1600   44.1320 Cl  0  0  0  0  0  0  0  0  0  0  0  0
   54.4600   29.3630   45.2400 H   0  0  0  0  0  0  0  0  0  0  0  0
   57.3335   27.5148   44.2500 H   0  0  0  0  0  0  0  0  0  0  0  0
   56.5256   25.3209   44.0273 H   0  0  0  0  0  0  0  0  0  0  0  0
   55.7366   23.6173   42.3741 H   0  0  0  0  0  0  0  0  0  0  0  0
   56.6766   21.2983   42.4348 H   0  0  0  0  0  0  0  0  0  0  0  0
   58.4080   20.7189   44.1449 H   0  0  0  0  0  0  0  0  0  0  0  0
   60.3187   27.6937   47.3708 H   0  0  0  0  0  0  0  0  0  0  0  0
   59.7116   30.0653   47.8196 H   0  0  0  0  0  0  0  0  0  0  0  0
   60.4291   34.0130   49.3737 H   0  0  0  0  0  0  0  0  0  0  0  0
   61.2287   35.3969   47.4621 H   0  0  0  0  0  0  0  0  0  0  0  0
   60.3589   34.9786   45.1660 H   0  0  0  0  0  0  0  0  0  0  0  0
  1  2  1  0
  2  3  2  0
  2  4  2  0
  2  5  1  0
  5  6  2  0
  6  7  1  0
  7  8  1  0
  8  9  1  0
  9 10  2  0
  9 11  1  0
 11 12  2  0
 12 13  1  0
 13 14  2  0
 14 15  1  0
 15 16  2  0
  7 17  2  0
 17 18  1  0
 18 19  2  0
 19 20  1  0
 20 21  1  0
 21 22  2  0
 22 23  1  0
 22 24  1  0
 24 25  2  0
 25 26  1  0
 26 27  2  0
 27 28  1  0
 19  5  1  0
 27 21  1  0
 16 11  1  0
  1 29  1  0
  6 30  1  0
 12 31  1  0
 13 32  1  0
 14 33  1  0
 15 34  1  0
 17 35  1  0
 18 36  1  0
 24 37  1  0
 25 38  1  0
 26 39  1  0
M  CHG  2   1  -1   8  -1
M  END
>  <UniqueID>  (41) 
34

>  <SMILES>  (41) 
[NH-]S(=O)(=O)c1cc([N-]C(=O)c2ccccn2)ccc1Oc1c(Cl)cccc1Cl

>  <Energy>  (41) 
59.79376973349057

>  <Genealogy>  (41) 
[NH-]S(=O)(=O)c1cc([N-]C(=O)c2ccccn2)ccc1Oc1c(Cl)cccc1Cl (protonated)
[NH-]S(=O)(=O)c1cc([N-]C(=O)c2ccccn2)ccc1Oc1c(Cl)cccc1Cl (3D coordinates assigned)
[NH-]S(=O)(=O)c1cc([N-]C(=O)c2ccccn2)ccc1Oc1c(Cl)cccc1Cl (optimized conformer: 59.79376973349057 kcal/mol)

>  <smiles>  (41) 
NS(=O)(=O)c1cc(NC(=O)c2ccccn2)ccc1Oc1c(Cl)cccc1Cl

>  <score_type>  (41) 
oracle

>  <origin>  (41) 
adg

>  <m_score__min__energy>  (41) 
-13.609999999999999

>  <m_primary>  (41) 
energy

$$$$
41:0
     RDKit          3D

 48 49  0  0  0  0  0  0  0  0999 V2000
   55.1810   28.9950   42.5670 H   0  0  0  0  0  0  0  0  0  0  0  0
   55.9660   29.6310   42.8310 N   0  0  0  0  0  0  0  0  0  0  0  0
   56.2570   29.8810   44.0700 C   0  0  0  0  0  0  0  0  0  0  0  0
   57.0910   31.0620   44.4030 C   0  0  0  0  0  0  0  0  0  0  0  0
   57.5100   31.9440   43.3890 C   0  0  0  0  0  0  0  0  0  0  0  0
   57.2039   31.7623   42.3482 H   0  0  0  0  0  0  0  0  0  0  0  0
   58.3110   33.0480   43.6920 C   0  0  0  0  0  0  0  0  0  0  0  0
   58.6373   33.7228   42.8869 H   0  0  0  0  0  0  0  0  0  0  0  0
   58.7030   33.3030   45.0170 C   0  0  0  0  0  0  0  0  0  0  0  0
   59.5830   34.4500   45.3330 C   0  0  0  0  0  0  0  0  0  0  0  0
   59.2180   35.6240   45.0500 O   0  0  0  0  0  0  0  0  0  0  0  0
   60.8400   34.2320   45.9850 N   0  0  0  0  0  0  0  0  0  0  0  0
   61.0170   34.2410   47.4330 C   0  0  0  0  0  0  0  0  0  0  0  0
   62.0429   34.5617   47.6667 H   0  0  0  0  0  0  0  0  0  0  0  0
   60.2836   34.9358   47.8683 H   0  0  0  0  0  0  0  0  0  0  0  0
   60.7850   32.8780   48.0190 C   0  0  0  0  0  0  0  0  0  0  0  0
   60.6460   32.7640   49.2670 O   0  0  0  0  0  0  0  0  0  0  0  0
   60.7440   31.7150   47.1730 N   0  0  0  0  0  0  0  0  0  0  0  0
   60.8760   31.8440   46.1440 H   0  0  0  0  0  0  0  0  0  0  0  0
   60.4820   30.3920   47.6650 C   0  0  0  0  0  0  0  0  0  0  0  0
   60.7670   30.0970   48.8580 O   0  0  0  0  0  0  0  0  0  0  0  0
   59.8950   29.3590   46.7790 C   0  0  0  0  0  0  0  0  0  0  0  0
   60.3910   29.1770   45.4770 C   0  0  0  0  0  0  0  0  0  0  0  0
   61.1979   29.8252   45.1046 H   0  0  0  0  0  0  0  0  0  0  0  0
   59.8670   28.1790   44.6520 C   0  0  0  0  0  0  0  0  0  0  0  0
   60.2633   28.0434   43.6349 H   0  0  0  0  0  0  0  0  0  0  0  0
   58.8410   27.3530   45.1160 C   0  0  0  0  0  0  0  0  0  0  0  0
   58.4407   26.5602   44.4670 H   0  0  0  0  0  0  0  0  0  0  0  0
   58.3200   27.5290   46.4020 C   0  0  0  0  0  0  0  0  0  0  0  0
   57.2970   26.6350   46.8640 N   0  0  0  0  0  0  0  0  0  0  0  0
   56.2440   26.0710   46.0730 C   0  0  0  0  0  0  0  0  0  0  0  0
   55.1330   26.6640   46.0310 O   0  0  0  0  0  0  0  0  0  0  0  0
   56.4270   24.7820   45.3160 C   0  0  0  0  0  0  0  0  0  0  0  0
   55.6460   24.0722   45.6262 H   0  0  0  0  0  0  0  0  0  0  0  0
   56.3543   25.0019   44.2407 H   0  0  0  0  0  0  0  0  0  0  0  0
   57.7950   24.1610   45.5840 C   0  0  0  0  0  0  0  0  0  0  0  0
   57.9578   24.0871   46.6694 H   0  0  0  0  0  0  0  0  0  0  0  0
   57.8354   23.1563   45.1379 H   0  0  0  0  0  0  0  0  0  0  0  0
   58.5779   24.7920   45.1379 H   0  0  0  0  0  0  0  0  0  0  0  0
   58.8650   28.5170   47.2400 C   0  0  0  0  0  0  0  0  0  0  0  0
   58.4835   28.6335   48.2651 H   0  0  0  0  0  0  0  0  0  0  0  0
   58.2670   32.4370   46.0330 C   0  0  0  0  0  0  0  0  0  0  0  0
   58.5560   32.6315   47.0764 H   0  0  0  0  0  0  0  0  0  0  0  0
   57.4690   31.3300   45.7300 C   0  0  0  0  0  0  0  0  0  0  0  0
   57.1338   30.6625   46.5375 H   0  0  0  0  0  0  0  0  0  0  0  0
   55.7850   28.9990   45.0970 N   0  0  0  0  0  0  0  0  0  0  0  0
   55.1510   28.2040   44.8620 H   0  0  0  0  0  0  0  0  0  0  0  0
   56.1240   29.0780   46.0800 H   0  0  0  0  0  0  0  0  0  0  0  0
  1  2  1  0
  2  3  2  0
  3  4  1  0
  4  5  2  0
  5  6  1  0
  5  7  1  0
  7  8  1  0
  7  9  2  0
  9 10  1  0
 10 11  2  0
 10 12  1  0
 12 13  1  0
 13 14  1  0
 13 15  1  0
 13 16  1  0
 16 17  2  0
 16 18  1  0
 18 19  1  0
 18 20  1  0
 20 21  2  0
 20 22  1  0
 22 23  2  0
 23 24  1  0
 23 25  1  0
 25 26  1  0
 25 27  2  0
 27 28  1  0
 27 29  1  0
 29 30  1  0
 30 31  1  0
 31 32  2  0
 31 33  1  0
 33 34  1  0
 33 35  1  0
 33 36  1  0
 36 37  1  0
 36 38  1  0
 36 39  1  0
 29 40  2  0
 40 41  1  0
  9 42  1  0
 42 43  1  0
 42 44  2  0
 44 45  1  0
  3 46  1  0
 46 47  1  0
 46 48  1  0
 44  4  1  0
 40 22  1  0
M  CHG  2  12  -1  30  -1
M  END
>  <UniqueID>  (42) 
35

>  <SMILES>  (42) 
[H]/N=C(\N)c1ccc(C(=O)[N-]CC(=O)NC(=O)c2cccc([N-]C(=O)CC)c2)cc1

>  <Energy>  (42) 
47.52847929241743

>  <Genealogy>  (42) 
CCC(=O)[N-]c1cccc(C(=O)NC(=O)C[N-]C(=O)c2ccc(C(=N)N)cc2)c1 (protonated)
[H]/N=C(\N)c1ccc(C(=O)[N-]CC(=O)NC(=O)c2cccc([N-]C(=O)CC)c2)cc1 (cis-trans isomerization)
[H]/N=C(\N)c1ccc(C(=O)[N-]CC(=O)NC(=O)c2cccc([N-]C(=O)CC)c2)cc1 (3D coordinates assigned)
[H]/N=C(\N)c1ccc(C(=O)[N-]CC(=O)NC(=O)c2cccc([N-]C(=O)CC)c2)cc1 (optimized conformer: 47.52847929241743 kcal/mol)

>  <smiles>  (42) 
CCC(=O)Nc1cccc(C(=O)NC(=O)CNC(=O)c2ccc(C(=N)N)cc2)c1

>  <score_type>  (42) 
oracle

>  <origin>  (42) 
adg

>  <m_score__min__energy>  (42) 
-11.31

>  <m_primary>  (42) 
energy

$$$$
42:0
     RDKit          3D

 56 59  0  0  1  0  0  0  0  0999 V2000
   61.0090   32.6280   47.2040 C   0  0  0  0  0  0  0  0  0  0  0  0
   59.7240   33.1480   46.6670 C   0  0  0  0  0  0  0  0  0  0  0  0
   59.7330   34.0990   45.6710 C   0  0  0  0  0  0  0  0  0  0  0  0
   58.5880   34.6320   45.1190 C   0  0  0  0  0  0  0  0  0  0  0  0
   57.3900   34.1640   45.6160 C   0  0  0  0  0  0  0  0  0  0  0  0
   57.3790   33.2050   46.6210 C   0  0  0  0  0  0  0  0  0  0  0  0
   58.5180   32.6720   47.1720 C   0  0  0  0  0  0  0  0  0  0  0  0
   58.5540   31.7000   48.1900 N   0  0  0  0  0  0  0  0  0  0  0  0
   58.5730   31.9240   49.5690 C   0  0  0  0  0  0  0  0  0  0  0  0
   58.5620   33.0610   50.0840 O   0  0  0  0  0  0  0  0  0  0  0  0
   58.6100   30.8070   50.4810 N   0  0  0  0  0  0  0  0  0  0  0  0
   57.8140   30.8250   51.6770 C   0  0  0  0  0  0  0  0  0  0  0  0
   58.4920   30.9610   52.8800 C   0  0  0  0  0  0  0  0  0  0  0  0
   57.7070   30.9760   54.0270 C   0  0  0  0  0  0  0  0  0  0  0  0
   56.3510   30.8660   54.0040 C   0  0  0  0  0  0  0  0  0  0  0  0
   55.7070   30.7350   52.8090 C   0  0  0  0  0  0  0  0  0  0  0  0
   56.4560   30.7140   51.6330 C   0  0  0  0  0  0  0  0  0  0  0  0
   59.4190   29.6630   50.2390 C   0  0  0  0  0  0  0  0  0  0  0  0
   59.6210   29.3410   48.9320 N   0  0  0  0  0  0  0  0  0  0  0  0
   60.3660   28.2810   48.5700 C   0  0  0  0  0  0  0  0  0  0  0  0
   60.5200   28.0300   47.3340 N   0  0  0  0  0  0  0  0  0  0  0  0
   59.4420   27.6340   46.4940 C   0  0  0  0  0  0  0  0  0  0  0  0
   59.2240   26.2880   46.2340 C   0  0  0  0  0  0  0  0  0  0  0  0
   58.1760   25.9170   45.4190 C   0  0  0  0  0  0  0  0  0  0  0  0
   57.3540   26.8720   44.8680 C   0  0  0  0  0  0  0  0  0  0  0  0
   57.5770   28.2060   45.1320 C   0  0  0  0  0  0  0  0  0  0  0  0
   56.5510   29.4260   44.4460 S   0  0  0  0  0  0  0  0  0  0  0  0
   56.4630   29.3000   42.7250 N   0  0  0  0  0  0  0  0  0  0  0  0
   55.1570   29.3500   45.0020 O   0  0  0  0  0  0  0  0  0  0  0  0
   57.0820   30.8090   44.7880 O   0  0  0  0  0  0  0  0  0  0  0  0
   58.6310   28.6090   45.9530 C   0  0  0  0  0  0  0  0  0  0  0  0
   60.9430   27.4950   49.5330 C   0  0  0  0  0  0  0  0  0  0  0  0
   60.7230   27.8430   50.8540 C   0  0  0  0  0  0  0  0  0  0  0  0
   59.9670   28.9160   51.1950 N   0  0  0  0  0  0  0  0  0  0  0  0
   60.9787   32.6403   48.3035 H   0  0  0  0  0  0  0  0  0  0  0  0
   61.1627   31.5969   46.8529 H   0  0  0  0  0  0  0  0  0  0  0  0
   61.8365   33.2620   46.8529 H   0  0  0  0  0  0  0  0  0  0  0  0
   60.7051   34.4518   45.2962 H   0  0  0  0  0  0  0  0  0  0  0  0
   58.6279   35.3909   44.3237 H   0  0  0  0  0  0  0  0  0  0  0  0
   56.4411   34.5508   45.2159 H   0  0  0  0  0  0  0  0  0  0  0  0
   56.4060   32.8540   46.9952 H   0  0  0  0  0  0  0  0  0  0  0  0
   58.5670   30.6760   47.8880 H   0  0  0  0  0  0  0  0  0  0  0  0
   59.5874   31.0517   52.9235 H   0  0  0  0  0  0  0  0  0  0  0  0
   58.2066   31.0820   55.0012 H   0  0  0  0  0  0  0  0  0  0  0  0
   55.7781   30.8826   54.9429 H   0  0  0  0  0  0  0  0  0  0  0  0
   54.6111   30.6471   52.7733 H   0  0  0  0  0  0  0  0  0  0  0  0
   55.9477   30.6072   50.6634 H   0  0  0  0  0  0  0  0  0  0  0  0
   59.8817   25.5242   46.6744 H   0  0  0  0  0  0  0  0  0  0  0  0
   57.9964   24.8524   45.2084 H   0  0  0  0  0  0  0  0  0  0  0  0
   56.5196   26.5714   44.2174 H   0  0  0  0  0  0  0  0  0  0  0  0
   56.6460   28.2830   42.5030 H   0  0  0  0  0  0  0  0  0  0  0  0
   55.5410   29.6130   42.4010 H   0  0  0  0  0  0  0  0  0  0  0  0
   58.8097   29.6740   46.1625 H   0  0  0  0  0  0  0  0  0  0  0  0
   61.5568   26.6220   49.2663 H   0  0  0  0  0  0  0  0  0  0  0  0
   61.1740   27.2322   51.6499 H   0  0  0  0  0  0  0  0  0  0  0  0
   59.8100   29.1650   52.1840 H   0  0  0  0  0  0  0  0  0  0  0  0
  1  2  1  0
  2  3  2  0
  3  4  1  0
  4  5  2  0
  5  6  1  0
  6  7  2  0
  7  8  1  0
  8  9  1  0
  9 10  2  0
  9 11  1  0
 11 12  1  0
 12 13  2  0
 13 14  1  0
 14 15  2  0
 15 16  1  0
 16 17  2  0
 11 18  1  0
 18 19  2  0
 19 20  1  0
 20 21  2  0
 21 22  1  0
 22 23  2  0
 23 24  1  0
 24 25  2  0
 25 26  1  0
 26 27  1  0
 27 28  1  0
 27 29  2  0
 27 30  2  0
 26 31  2  0
 20 32  1  0
 32 33  2  0
 33 34  1  0
  7  2  1  0
 17 12  1  0
 34 18  1  0
 31 22  1  0
  1 35  1  0
  1 36  1  0
  1 37  1  0
  3 38  1  0
  4 39  1  0
  5 40  1  0
  6 41  1  0
  8 42  1  0
 13 43  1  0
 14 44  1  0
 15 45  1  0
 16 46  1  0
 17 47  1  0
 23 48  1  0
 24 49  1  0
 25 50  1  0
 28 51  1  0
 28 52  1  0
 31 53  1  0
 32 54  1  0
 33 55  1  0
 34 56  1  0
M  END
>  <smiles>  (43) 
Cc1ccccc1NC(=O)N(c1ccccc1)c1nc(=Nc2cccc(S(N)(=O)=O)c2)cc[nH]1

>  <score_type>  (43) 
oracle

>  <origin>  (43) 
adg

>  <m_score__min__energy>  (43) 
-10.09

>  <m_primary>  (43) 
energy

$$$$
43:0
     RDKit          3D

 57 60  0  0  0  0  0  0  0  0999 V2000
   57.4590   34.2850   44.9130 C   0  0  0  0  0  0  0  0  0  0  0  0
   58.2040   33.0450   45.3100 C   0  0  0  0  0  0  0  0  0  0  0  0
   57.7190   31.7460   45.1390 C   0  0  0  0  0  0  0  0  0  0  0  0
   56.4380   31.3190   44.4770 C   0  0  0  0  0  0  0  0  0  0  0  0
   56.4410   29.8460   44.2290 C   0  0  0  0  0  0  0  0  0  0  0  0
   55.5210   29.0030   44.9260 N   0  0  0  0  0  0  0  0  0  0  0  0
   57.2570   29.3440   43.4050 O   0  0  0  0  0  0  0  0  0  0  0  0
   58.6400   30.9250   45.7630 C   0  0  0  0  0  0  0  0  0  0  0  0
   58.6500   29.5420   45.9400 C   0  0  0  0  0  0  0  0  0  0  0  0
   59.7350   28.9710   46.6280 C   0  0  0  0  0  0  0  0  0  0  0  0
   59.7700   27.5930   46.8280 O   0  0  0  0  0  0  0  0  0  0  0  0
   60.7790   29.7900   47.1150 C   0  0  0  0  0  0  0  0  0  0  0  0
   60.7380   31.1790   46.9320 C   0  0  0  0  0  0  0  0  0  0  0  0
   59.6410   31.7260   46.2550 C   0  0  0  0  0  0  0  0  0  0  0  0
   59.3860   33.0270   45.9940 N   0  0  0  0  0  0  0  0  0  0  0  0
   60.1840   34.1810   46.4340 C   0  0  0  0  0  0  0  0  0  0  0  0
   60.6420   33.9980   47.8600 C   0  0  0  0  0  0  0  0  0  0  0  0
   62.0080   34.0560   48.1890 C   0  0  0  0  0  0  0  0  0  0  0  0
   62.4270   33.8410   49.5070 C   0  0  0  0  0  0  0  0  0  0  0  0
   61.4900   33.5540   50.5040 C   0  0  0  0  0  0  0  0  0  0  0  0
   60.1260   33.4940   50.1870 C   0  0  0  0  0  0  0  0  0  0  0  0
   58.9530   33.0570   51.4270 S   0  0  0  0  0  0  0  0  0  0  0  0
   57.6400   32.6690   50.7960 O   0  0  0  0  0  0  0  0  0  0  0  0
   58.7210   34.2460   52.3240 O   0  0  0  0  0  0  0  0  0  0  0  0
   59.5220   31.7300   52.3860 N   0  0  0  0  0  0  0  0  0  0  0  0
   60.6180   30.8780   52.0160 C   0  0  0  0  0  0  0  0  0  0  0  0
   61.8400   30.9350   52.7050 C   0  0  0  0  0  0  0  0  0  0  0  0
   62.8870   30.0770   52.3600 C   0  0  0  0  0  0  0  0  0  0  0  0
   62.7350   29.1710   51.3110 C   0  0  0  0  0  0  0  0  0  0  0  0
   61.5240   29.0990   50.6170 C   0  0  0  0  0  0  0  0  0  0  0  0
   60.4550   29.9390   50.9690 C   0  0  0  0  0  0  0  0  0  0  0  0
   58.9270   29.8260   50.0880 S   0  0  0  0  0  0  0  0  0  0  0  0
   57.6150   29.8290   51.2100 N   0  0  0  0  0  0  0  0  0  0  0  0
   58.8820   28.5590   49.2820 O   0  0  0  0  0  0  0  0  0  0  0  0
   58.7960   30.9970   49.1520 O   0  0  0  0  0  0  0  0  0  0  0  0
   59.7050   33.7280   48.8700 C   0  0  0  0  0  0  0  0  0  0  0  0
   57.1355   34.8234   45.8161 H   0  0  0  0  0  0  0  0  0  0  0  0
   58.1175   34.9330   44.3159 H   0  0  0  0  0  0  0  0  0  0  0  0
   56.5777   34.0079   44.3159 H   0  0  0  0  0  0  0  0  0  0  0  0
   55.5907   31.5740   45.1305 H   0  0  0  0  0  0  0  0  0  0  0  0
   56.3453   31.8411   43.5132 H   0  0  0  0  0  0  0  0  0  0  0  0
   54.5840   29.3560   45.2210 H   0  0  0  0  0  0  0  0  0  0  0  0
   57.8327   28.9159   45.5526 H   0  0  0  0  0  0  0  0  0  0  0  0
   59.5110   27.1770   47.7190 H   0  0  0  0  0  0  0  0  0  0  0  0
   61.6302   29.3338   47.6417 H   0  0  0  0  0  0  0  0  0  0  0  0
   61.5461   31.8224   47.3102 H   0  0  0  0  0  0  0  0  0  0  0  0
   61.0641   34.2816   45.7818 H   0  0  0  0  0  0  0  0  0  0  0  0
   59.5611   35.0857   46.3752 H   0  0  0  0  0  0  0  0  0  0  0  0
   62.7508   34.2714   47.4067 H   0  0  0  0  0  0  0  0  0  0  0  0
   63.4962   33.8980   49.7590 H   0  0  0  0  0  0  0  0  0  0  0  0
   61.8231   33.3753   51.5370 H   0  0  0  0  0  0  0  0  0  0  0  0
   61.9738   31.6598   53.5216 H   0  0  0  0  0  0  0  0  0  0  0  0
   63.8344   30.1162   52.9176 H   0  0  0  0  0  0  0  0  0  0  0  0
   63.5695   28.5120   51.0293 H   0  0  0  0  0  0  0  0  0  0  0  0
   61.4077   28.3813   49.7915 H   0  0  0  0  0  0  0  0  0  0  0  0
   57.6770   30.7200   51.7500 H   0  0  0  0  0  0  0  0  0  0  0  0
   58.6327   33.6998   48.6265 H   0  0  0  0  0  0  0  0  0  0  0  0
  1  2  1  0
  2  3  2  0
  3  4  1  0
  4  5  1  0
  5  6  1  0
  5  7  2  0
  3  8  1  0
  8  9  2  0
  9 10  1  0
 10 11  1  0
 10 12  2  0
 12 13  1  0
 13 14  2  0
 14 15  1  0
 15 16  1  0
 16 17  1  0
 17 18  2  0
 18 19  1  0
 19 20  2  0
 20 21  1  0
 21 22  1  0
 22 23  2  0
 22 24  2  0
 22 25  1  0
 25 26  1  0
 26 27  2  0
 27 28  1  0
 28 29  2  0
 29 30  1  0
 30 31  2  0
 31 32  1  0
 32 33  1  0
 32 34  2  0
 32 35  2  0
 21 36  2  0
 15  2  1  0
 36 17  1  0
 14  8  1  0
 31 26  1  0
  1 37  1  0
  1 38  1  0
  1 39  1  0
  4 40  1  0
  4 41  1  0
  6 42  1  0
  9 43  1  0
 11 44  1  0
 12 45  1  0
 13 46  1  0
 16 47  1  0
 16 48  1  0
 18 49  1  0
 19 50  1  0
 20 51  1  0
 27 52  1  0
 28 53  1  0
 29 54  1  0
 30 55  1  0
 33 56  1  0
 36 57  1  0
M  CHG  3   6  -1  25  -1  33  -1
M  END
>  <UniqueID>  (44) 
36

>  <SMILES>  (44) 
Cc1c(CC([NH-])=O)c2cc(O)ccc2n1Cc1cccc(S(=O)(=O)[N-]c2ccccc2S([NH-])(=O)=O)c1

>  <Energy>  (44) 
95.84210042274005

>  <Genealogy>  (44) 
Cc1c(CC([NH-])=O)c2cc(O)ccc2n1Cc1cccc(S(=O)(=O)[N-]c2ccccc2S([NH-])(=O)=O)c1 (protonated)
Cc1c(CC([NH-])=O)c2cc(O)ccc2n1Cc1cccc(S(=O)(=O)[N-]c2ccccc2S([NH-])(=O)=O)c1 (3D coordinates assigned)
Cc1c(CC([NH-])=O)c2cc(O)ccc2n1Cc1cccc(S(=O)(=O)[N-]c2ccccc2S([NH-])(=O)=O)c1 (optimized conformer: 95.84210042274005 kcal/mol)

>  <smiles>  (44) 
Cc1c(CC(N)=O)c2cc(O)ccc2n1Cc1cccc(S(=O)(=O)Nc2ccccc2S(N)(=O)=O)c1

>  <score_type>  (44) 
oracle

>  <origin>  (44) 
adg

>  <m_score__min__energy>  (44) 
-16.420000000000002

>  <m_primary>  (44) 
energy

$$$$
44:0
     RDKit          3D

 41 42  0  0  0  0  0  0  0  0999 V2000
   62.0590   33.8840   46.7400 C   0  0  0  0  0  0  0  0  0  0  0  0
   60.7790   34.4330   46.4460 O   0  0  0  0  0  0  0  0  0  0  0  0
   59.6940   33.6960   45.9450 C   0  0  0  0  0  0  0  0  0  0  0  0
   59.1900   33.8950   44.6450 C   0  0  0  0  0  0  0  0  0  0  0  0
   58.1150   33.1370   44.1800 C   0  0  0  0  0  0  0  0  0  0  0  0
   57.5340   32.1600   45.0000 C   0  0  0  0  0  0  0  0  0  0  0  0
   56.4120   31.3900   44.5570 N   0  0  0  0  0  0  0  0  0  0  0  0
   56.3990   29.9750   44.3260 C   0  0  0  0  0  0  0  0  0  0  0  0
   55.5130   29.2810   44.8890 O   0  0  0  0  0  0  0  0  0  0  0  0
   57.4250   29.3390   43.5440 N   0  0  0  0  0  0  0  0  0  0  0  0
   57.7750   27.9290   43.7270 C   0  0  0  0  0  0  0  0  0  0  0  0
   59.2530   27.7920   44.1070 C   0  0  0  0  0  0  0  0  0  0  0  0
   59.5470   28.5410   45.3260 N   0  0  0  0  0  0  0  0  0  0  0  0
   58.8630   28.4590   46.4850 C   0  0  0  0  0  0  0  0  0  0  0  0
   59.5240   29.2250   47.4180 C   0  0  0  0  0  0  0  0  0  0  0  0
   59.1210   29.4720   48.8330 C   0  0  0  0  0  0  0  0  0  0  0  0
   60.6070   29.7660   46.7500 C   0  0  0  0  0  0  0  0  0  0  0  0
   60.6070   29.3210   45.4770 N   0  0  0  0  0  0  0  0  0  0  0  0
   58.0090   31.9800   46.3010 C   0  0  0  0  0  0  0  0  0  0  0  0
   59.0990   32.7350   46.7780 C   0  0  0  0  0  0  0  0  0  0  0  0
   59.6160   32.5600   48.0720 O   0  0  0  0  0  0  0  0  0  0  0  0
   59.6410   33.5700   49.0740 C   0  0  0  0  0  0  0  0  0  0  0  0
   62.1918   33.8270   47.8305 H   0  0  0  0  0  0  0  0  0  0  0  0
   62.1331   32.8749   46.3084 H   0  0  0  0  0  0  0  0  0  0  0  0
   62.8412   34.5258   46.3084 H   0  0  0  0  0  0  0  0  0  0  0  0
   59.6470   34.6531   43.9920 H   0  0  0  0  0  0  0  0  0  0  0  0
   57.7222   33.3067   43.1666 H   0  0  0  0  0  0  0  0  0  0  0  0
   58.1110   29.9240   43.0210 H   0  0  0  0  0  0  0  0  0  0  0  0
   57.1535   27.5020   44.5279 H   0  0  0  0  0  0  0  0  0  0  0  0
   57.5971   27.3913   42.7840 H   0  0  0  0  0  0  0  0  0  0  0  0
   59.4860   26.7296   44.2715 H   0  0  0  0  0  0  0  0  0  0  0  0
   59.8664   28.1964   43.2883 H   0  0  0  0  0  0  0  0  0  0  0  0
   57.9414   27.8829   46.6546 H   0  0  0  0  0  0  0  0  0  0  0  0
   59.8606   29.0187   49.5094 H   0  0  0  0  0  0  0  0  0  0  0  0
   59.0719   30.5555   49.0165 H   0  0  0  0  0  0  0  0  0  0  0  0
   58.1333   29.0240   49.0165 H   0  0  0  0  0  0  0  0  0  0  0  0
   61.3496   30.4498   47.1869 H   0  0  0  0  0  0  0  0  0  0  0  0
   57.5277   31.2419   46.9595 H   0  0  0  0  0  0  0  0  0  0  0  0
   59.6294   33.1002   50.0686 H   0  0  0  0  0  0  0  0  0  0  0  0
   60.5543   34.1731   48.9640 H   0  0  0  0  0  0  0  0  0  0  0  0
   58.7586   34.2175   48.9640 H   0  0  0  0  0  0  0  0  0  0  0  0
  1  2  1  0
  2  3  1  0
  3  4  2  0
  4  5  1  0
  5  6  2  0
  6  7  1  0
  7  8  1  0
  8  9  2  0
  8 10  1  0
 10 11  1  0
 11 12  1  0
 12 13  1  0
 13 14  1  0
 14 15  2  0
 15 16  1  0
 15 17  1  0
 17 18  2  0
  6 19  1  0
 19 20  2  0
 20 21  1  0
 21 22  1  0
 20  3  1  0
 18 13  1  0
  1 23  1  0
  1 24  1  0
  1 25  1  0
  4 26  1  0
  5 27  1  0
 10 28  1  0
 11 29  1  0
 11 30  1  0
 12 31  1  0
 12 32  1  0
 14 33  1  0
 16 34  1  0
 16 35  1  0
 16 36  1  0
 17 37  1  0
 19 38  1  0
 22 39  1  0
 22 40  1  0
 22 41  1  0
M  CHG  1   7  -1
M  END
>  <UniqueID>  (45) 
37

>  <SMILES>  (45) 
COc1ccc([N-]C(=O)NCCn2cc(C)cn2)cc1OC

>  <Energy>  (45) 
67.56167934302185

>  <Genealogy>  (45) 
COc1ccc([N-]C(=O)NCCn2cc(C)cn2)cc1OC (protonated)
COc1ccc([N-]C(=O)NCCn2cc(C)cn2)cc1OC (3D coordinates assigned)
COc1ccc([N-]C(=O)NCCn2cc(C)cn2)cc1OC (optimized conformer: 67.56167934302185 kcal/mol)

>  <smiles>  (45) 
COc1ccc(NC(=O)NCCn2cc(C)cn2)cc1OC

>  <score_type>  (45) 
oracle

>  <origin>  (45) 
adg

>  <m_score__min__energy>  (45) 
-8.3499999999999996

>  <m_primary>  (45) 
energy

$$$$
45:0
     RDKit          3D

 44 47  0  0  0  0  0  0  0  0999 V2000
   62.1850   33.8210   50.7680 C   0  0  0  0  0  0  0  0  0  0  0  0
   62.4330   33.6790   49.2930 C   0  0  0  0  0  0  0  0  0  0  0  0
   63.6800   33.2920   48.7930 C   0  0  0  0  0  0  0  0  0  0  0  0
   63.5990   33.2340   47.1080 S   0  0  0  0  0  0  0  0  0  0  0  0
   61.9900   33.7000   47.0830 C   0  0  0  0  0  0  0  0  0  0  0  0
   61.2390   33.8610   45.9670 N   0  0  0  0  0  0  0  0  0  0  0  0
   59.9350   34.2340   46.0770 C   0  0  0  0  0  0  0  0  0  0  0  0
   59.1150   34.4250   44.8340 C   0  0  0  0  0  0  0  0  0  0  0  0
   58.5090   33.1940   44.4410 O   0  0  0  0  0  0  0  0  0  0  0  0
   57.5210   32.5500   45.1960 C   0  0  0  0  0  0  0  0  0  0  0  0
   56.6560   33.2230   45.8210 O   0  0  0  0  0  0  0  0  0  0  0  0
   57.4890   31.0790   45.2670 C   0  0  0  0  0  0  0  0  0  0  0  0
   58.5490   30.3590   45.8360 C   0  0  0  0  0  0  0  0  0  0  0  0
   58.4820   28.9670   45.8910 C   0  0  0  0  0  0  0  0  0  0  0  0
   57.3730   28.2930   45.3690 C   0  0  0  0  0  0  0  0  0  0  0  0
   57.3240   26.8620   45.4620 N   0  0  0  0  0  0  0  0  0  0  0  0
   56.1510   26.0510   45.6240 C   0  0  0  0  0  0  0  0  0  0  0  0
   55.1550   26.4990   46.2550 O   0  0  0  0  0  0  0  0  0  0  0  0
   56.0870   24.7090   45.0010 C   0  0  0  0  0  0  0  0  0  0  0  0
   55.4350   23.6480   45.6520 C   0  0  0  0  0  0  0  0  0  0  0  0
   55.3830   22.3900   45.0460 C   0  0  0  0  0  0  0  0  0  0  0  0
   55.9620   22.1930   43.8330 N   0  0  0  0  0  0  0  0  0  0  0  0
   56.6010   23.1970   43.1780 C   0  0  0  0  0  0  0  0  0  0  0  0
   56.6770   24.4700   43.7470 C   0  0  0  0  0  0  0  0  0  0  0  0
   56.3200   29.0500   44.8280 C   0  0  0  0  0  0  0  0  0  0  0  0
   56.4060   30.4070   44.7880 N   0  0  0  0  0  0  0  0  0  0  0  0
   59.3820   34.4690   47.3470 C   0  0  0  0  0  0  0  0  0  0  0  0
   60.1850   34.2940   48.4820 C   0  0  0  0  0  0  0  0  0  0  0  0
   59.6930   34.4990   49.6240 O   0  0  0  0  0  0  0  0  0  0  0  0
   61.4880   33.9060   48.3250 N   0  0  0  0  0  0  0  0  0  0  0  0
   63.0080   33.3497   51.3252 H   0  0  0  0  0  0  0  0  0  0  0  0
   62.1290   34.8880   51.0293 H   0  0  0  0  0  0  0  0  0  0  0  0
   61.2364   33.3292   51.0293 H   0  0  0  0  0  0  0  0  0  0  0  0
   64.5690   33.0627   49.3989 H   0  0  0  0  0  0  0  0  0  0  0  0
   58.3290   35.1692   45.0297 H   0  0  0  0  0  0  0  0  0  0  0  0
   59.7728   34.7724   44.0237 H   0  0  0  0  0  0  0  0  0  0  0  0
   59.4267   30.8879   46.2359 H   0  0  0  0  0  0  0  0  0  0  0  0
   59.3048   28.3967   46.3468 H   0  0  0  0  0  0  0  0  0  0  0  0
   54.9674   23.8072   46.6348 H   0  0  0  0  0  0  0  0  0  0  0  0
   54.8722   21.5576   45.5521 H   0  0  0  0  0  0  0  0  0  0  0  0
   57.0599   23.0067   42.1966 H   0  0  0  0  0  0  0  0  0  0  0  0
   57.1960   25.2821   43.2168 H   0  0  0  0  0  0  0  0  0  0  0  0
   55.4249   28.5446   44.4363 H   0  0  0  0  0  0  0  0  0  0  0  0
   58.3336   34.7859   47.4489 H   0  0  0  0  0  0  0  0  0  0  0  0
  1  2  1  0
  2  3  2  0
  3  4  1  0
  4  5  1  0
  5  6  2  0
  6  7  1  0
  7  8  1  0
  8  9  1  0
  9 10  1  0
 10 11  2  0
 10 12  1  0
 12 13  2  0
 13 14  1  0
 14 15  2  0
 15 16  1  0
 16 17  1  0
 17 18  2  0
 17 19  1  0
 19 20  2  0
 20 21  1  0
 21 22  2  0
 22 23  1  0
 23 24  2  0
 15 25  1  0
 25 26  2  0
  7 27  2  0
 27 28  1  0
 28 29  2  0
 28 30  1  0
 30  2  1  0
 30  5  1  0
 26 12  1  0
 24 19  1  0
  1 31  1  0
  1 32  1  0
  1 33  1  0
  3 34  1  0
  8 35  1  0
  8 36  1  0
 13 37  1  0
 14 38  1  0
 20 39  1  0
 21 40  1  0
 23 41  1  0
 24 42  1  0
 25 43  1  0
 27 44  1  0
M  CHG  1  16  -1
M  END
>  <UniqueID>  (46) 
38

>  <SMILES>  (46) 
Cc1csc2nc(COC(=O)c3ccc([N-]C(=O)c4ccncc4)cn3)cc(=O)n12

>  <Energy>  (46) 
88.60153584446924

>  <Genealogy>  (46) 
Cc1csc2nc(COC(=O)c3ccc([N-]C(=O)c4ccncc4)cn3)cc(=O)n12 (protonated)
Cc1csc2nc(COC(=O)c3ccc([N-]C(=O)c4ccncc4)cn3)cc(=O)n12 (3D coordinates assigned)
Cc1csc2nc(COC(=O)c3ccc([N-]C(=O)c4ccncc4)cn3)cc(=O)n12 (optimized conformer: 88.60153584446924 kcal/mol)

>  <smiles>  (46) 
Cc1csc2nc(COC(=O)c3ccc(NC(=O)c4ccncc4)cn3)cc(=O)n12

>  <score_type>  (46) 
oracle

>  <origin>  (46) 
adg

>  <m_score__min__energy>  (46) 
-10.82

>  <m_primary>  (46) 
energy

$$$$
46:0
     RDKit          3D

 42 43  0  0  0  0  0  0  0  0999 V2000
   58.7620   32.7320   50.6960 C   0  0  0  0  0  0  0  0  0  0  0  0
   58.7900   32.5110   48.9300 S   0  0  0  0  0  0  0  0  0  0  0  0
   57.3980   32.7300   48.4060 O   0  0  0  0  0  0  0  0  0  0  0  0
   59.2270   31.1120   48.5980 O   0  0  0  0  0  0  0  0  0  0  0  0
   59.8800   33.6570   48.2030 N   0  0  0  0  0  0  0  0  0  0  0  0
   59.3530   34.6540   47.2680 C   0  0  0  0  0  0  0  0  0  0  0  0
   58.8600   33.9800   46.0260 C   0  0  0  0  0  0  0  0  0  0  0  0
   58.7110   34.6520   44.9700 O   0  0  0  0  0  0  0  0  0  0  0  0
   58.5240   32.5850   46.0530 N   0  0  0  0  0  0  0  0  0  0  0  0
   57.9980   31.8850   44.8840 C   0  0  0  0  0  0  0  0  0  0  0  0
   58.3890   30.4260   44.9300 C   0  0  0  0  0  0  0  0  0  0  0  0
   59.6570   30.0980   45.4440 C   0  0  0  0  0  0  0  0  0  0  0  0
   60.1140   28.7790   45.4250 C   0  0  0  0  0  0  0  0  0  0  0  0
   59.3130   27.7700   44.8890 C   0  0  0  0  0  0  0  0  0  0  0  0
   58.0500   28.0750   44.3820 C   0  0  0  0  0  0  0  0  0  0  0  0
   57.5650   29.3940   44.4090 C   0  0  0  0  0  0  0  0  0  0  0  0
   56.2440   29.6600   43.9180 N   0  0  0  0  0  0  0  0  0  0  0  0
   56.0260   29.6550   42.6890 O   0  0  0  0  0  0  0  0  0  0  0  0
   55.1740   29.6220   44.7820 O   0  0  0  0  0  0  0  0  0  0  0  0
   61.2990   33.5100   48.3810 C   0  0  0  0  0  0  0  0  0  0  0  0
   62.0920   32.9990   47.3420 C   0  0  0  0  0  0  0  0  0  0  0  0
   63.4720   32.8480   47.5150 C   0  0  0  0  0  0  0  0  0  0  0  0
   64.0680   33.2050   48.7290 C   0  0  0  0  0  0  0  0  0  0  0  0
   65.4070   33.0640   48.8930 F   0  0  0  0  0  0  0  0  0  0  0  0
   63.2850   33.7140   49.7680 C   0  0  0  0  0  0  0  0  0  0  0  0
   61.9060   33.8630   49.5980 C   0  0  0  0  0  0  0  0  0  0  0  0
   58.8856   31.7567   51.1896 H   0  0  0  0  0  0  0  0  0  0  0  0
   59.5826   33.4008   50.9949 H   0  0  0  0  0  0  0  0  0  0  0  0
   57.8005   33.1750   50.9949 H   0  0  0  0  0  0  0  0  0  0  0  0
   58.5218   35.1956   47.7431 H   0  0  0  0  0  0  0  0  0  0  0  0
   60.1542   35.3594   47.0025 H   0  0  0  0  0  0  0  0  0  0  0  0
   58.6400   32.0520   46.9450 H   0  0  0  0  0  0  0  0  0  0  0  0
   56.9011   31.9671   44.8743 H   0  0  0  0  0  0  0  0  0  0  0  0
   58.4166   32.3404   43.9744 H   0  0  0  0  0  0  0  0  0  0  0  0
   60.2949   30.8890   45.8652 H   0  0  0  0  0  0  0  0  0  0  0  0
   61.1061   28.5350   45.8328 H   0  0  0  0  0  0  0  0  0  0  0  0
   59.6781   26.7326   44.8663 H   0  0  0  0  0  0  0  0  0  0  0  0
   57.4267   27.2747   43.9564 H   0  0  0  0  0  0  0  0  0  0  0  0
   61.6261   32.7157   46.3867 H   0  0  0  0  0  0  0  0  0  0  0  0
   64.0884   32.4485   46.6962 H   0  0  0  0  0  0  0  0  0  0  0  0
   63.7547   33.9979   50.7213 H   0  0  0  0  0  0  0  0  0  0  0  0
   61.2927   34.2586   50.4210 H   0  0  0  0  0  0  0  0  0  0  0  0
  1  2  1  0
  2  3  2  0
  2  4  2  0
  2  5  1  0
  5  6  1  0
  6  7  1  0
  7  8  2  0
  7  9  1  0
  9 10  1  0
 10 11  1  0
 11 12  2  0
 12 13  1  0
 13 14  2  0
 14 15  1  0
 15 16  2  0
 16 17  1  0
 17 18  2  0
 17 19  1  0
  5 20  1  0
 20 21  2  0
 21 22  1  0
 22 23  2  0
 23 24  1  0
 23 25  1  0
 25 26  2  0
 16 11  1  0
 26 20  1  0
  1 27  1  0
  1 28  1  0
  1 29  1  0
  6 30  1  0
  6 31  1  0
  9 32  1  0
 10 33  1  0
 10 34  1  0
 12 35  1  0
 13 36  1  0
 14 37  1  0
 15 38  1  0
 21 39  1  0
 22 40  1  0
 25 41  1  0
 26 42  1  0
M  CHG  2  17   1  19  -1
M  END
>  <UniqueID>  (47) 
39

>  <SMILES>  (47) 
CS(=O)(=O)N(CC(=O)NCc1ccccc1[N+](=O)[O-])c1ccc(F)cc1

>  <Energy>  (47) 
45.99528809998194

>  <Genealogy>  (47) 
CS(=O)(=O)N(CC(=O)NCc1ccccc1[N+](=O)[O-])c1ccc(F)cc1 (3D coordinates assigned)
CS(=O)(=O)N(CC(=O)NCc1ccccc1[N+](=O)[O-])c1ccc(F)cc1 (optimized conformer: 45.99528809998194 kcal/mol)

>  <smiles>  (47) 
CS(=O)(=O)N(CC(=O)NCc1ccccc1[N+](=O)[O-])c1ccc(F)cc1

>  <score_type>  (47) 
oracle

>  <origin>  (47) 
adg

>  <m_score__min__energy>  (47) 
-8.4800000000000004

>  <m_primary>  (47) 
energy

$$$$
47:0
     RDKit          3D

 62 66  0  0  0  0  0  0  0  0999 V2000
   55.1720   26.7100   46.0310 O   0  0  0  0  0  0  0  0  0  0  0  0
   55.9050   25.7400   46.3640 C   0  0  0  0  0  0  0  0  0  0  0  0
   57.2400   25.9870   46.9790 C   0  0  0  0  0  0  0  0  0  0  0  0
   58.4740   26.1870   45.6500 S   0  0  0  0  0  0  0  0  0  0  0  0
   58.1840   27.9470   45.4370 C   0  0  0  0  0  0  0  0  0  0  0  0
   57.0080   28.3860   44.9130 N   0  0  0  0  0  0  0  0  0  0  0  0
   56.7660   29.7170   44.7240 C   0  0  0  0  0  0  0  0  0  0  0  0
   55.6640   30.0750   44.2270 O   0  0  0  0  0  0  0  0  0  0  0  0
   57.7130   30.6550   45.0700 N   0  0  0  0  0  0  0  0  0  0  0  0
   57.4450   32.0900   44.8590 C   0  0  0  0  0  0  0  0  0  0  0  0
   58.1250   32.9270   45.9140 C   0  0  0  0  0  0  0  0  0  0  0  0
   57.9410   32.6450   47.2790 C   0  0  0  0  0  0  0  0  0  0  0  0
   58.5650   33.4340   48.2530 C   0  0  0  0  0  0  0  0  0  0  0  0
   59.3820   34.5030   47.8710 C   0  0  0  0  0  0  0  0  0  0  0  0
   59.5810   34.7810   46.5160 C   0  0  0  0  0  0  0  0  0  0  0  0
   58.9570   33.9960   45.5400 C   0  0  0  0  0  0  0  0  0  0  0  0
   58.8970   30.2180   45.6050 C   0  0  0  0  0  0  0  0  0  0  0  0
   59.1470   28.8870   45.7950 C   0  0  0  0  0  0  0  0  0  0  0  0
   60.4970   28.6330   46.3510 C   0  0  0  0  0  0  0  0  0  0  0  0
   61.0820   30.0390   46.5590 C   0  0  0  0  0  0  0  0  0  0  0  0
   60.0590   31.0510   46.0110 C   0  0  0  0  0  0  0  0  0  0  0  0
   55.4560   24.3890   46.2150 N   0  0  0  0  0  0  0  0  0  0  0  0
   55.8720   23.4120   45.2490 C   0  0  0  0  0  0  0  0  0  0  0  0
   56.1900   23.7740   43.9250 C   0  0  0  0  0  0  0  0  0  0  0  0
   56.6100   22.8060   43.0120 C   0  0  0  0  0  0  0  0  0  0  0  0
   56.7380   21.4740   43.4080 C   0  0  0  0  0  0  0  0  0  0  0  0
   56.4430   21.1050   44.7210 C   0  0  0  0  0  0  0  0  0  0  0  0
   56.0140   22.0660   45.6530 C   0  0  0  0  0  0  0  0  0  0  0  0
   55.7180   21.6530   47.0010 N   0  0  0  0  0  0  0  0  0  0  0  0
   54.3930   21.8700   47.5890 C   0  0  0  0  0  0  0  0  0  0  0  0
   54.5310   22.1420   49.0900 C   0  0  0  0  0  0  0  0  0  0  0  0
   55.3060   21.1340   49.7140 O   0  0  0  0  0  0  0  0  0  0  0  0
   56.6320   21.1770   49.2190 C   0  0  0  0  0  0  0  0  0  0  0  0
   56.6630   20.8080   47.7330 C   0  0  0  0  0  0  0  0  0  0  0  0
   57.2023   26.9018   47.5887 H   0  0  0  0  0  0  0  0  0  0  0  0
   57.5177   25.1382   47.6212 H   0  0  0  0  0  0  0  0  0  0  0  0
   56.2830   27.6860   44.6300 H   0  0  0  0  0  0  0  0  0  0  0  0
   57.8213   32.3845   43.8682 H   0  0  0  0  0  0  0  0  0  0  0  0
   56.3598   32.2575   44.9240 H   0  0  0  0  0  0  0  0  0  0  0  0
   57.3043   31.8011   47.5830 H   0  0  0  0  0  0  0  0  0  0  0  0
   58.4125   33.2129   49.3197 H   0  0  0  0  0  0  0  0  0  0  0  0
   59.8679   35.1250   48.6372 H   0  0  0  0  0  0  0  0  0  0  0  0
   60.2289   35.6179   46.2163 H   0  0  0  0  0  0  0  0  0  0  0  0
   59.1186   34.2168   44.4746 H   0  0  0  0  0  0  0  0  0  0  0  0
   60.4313   28.0913   47.3061 H   0  0  0  0  0  0  0  0  0  0  0  0
   61.1171   28.0091   45.6906 H   0  0  0  0  0  0  0  0  0  0  0  0
   61.2527   30.2201   47.6305 H   0  0  0  0  0  0  0  0  0  0  0  0
   62.0448   30.1395   46.0366 H   0  0  0  0  0  0  0  0  0  0  0  0
   59.7684   31.7714   46.7898 H   0  0  0  0  0  0  0  0  0  0  0  0
   60.4615   31.6446   45.1770 H   0  0  0  0  0  0  0  0  0  0  0  0
   56.1068   24.8245   43.6096 H   0  0  0  0  0  0  0  0  0  0  0  0
   56.8412   23.0940   41.9758 H   0  0  0  0  0  0  0  0  0  0  0  0
   57.0715   20.7149   42.6851 H   0  0  0  0  0  0  0  0  0  0  0  0
   56.5469   20.0542   45.0291 H   0  0  0  0  0  0  0  0  0  0  0  0
   53.9148   22.7336   47.1036 H   0  0  0  0  0  0  0  0  0  0  0  0
   53.7763   20.9719   47.4373 H   0  0  0  0  0  0  0  0  0  0  0  0
   55.0206   23.1161   49.2366 H   0  0  0  0  0  0  0  0  0  0  0  0
   53.5280   22.1462   49.5415 H   0  0  0  0  0  0  0  0  0  0  0  0
   57.0336   22.1929   49.3480 H   0  0  0  0  0  0  0  0  0  0  0  0
   57.2435   20.4532   49.7777 H   0  0  0  0  0  0  0  0  0  0  0  0
   57.6774   20.9644   47.3374 H   0  0  0  0  0  0  0  0  0  0  0  0
   56.3810   19.7517   47.6113 H   0  0  0  0  0  0  0  0  0  0  0  0
  1  2  2  0
  2  3  1  0
  3  4  1  0
  4  5  1  0
  5  6  2  0
  6  7  1  0
  7  8  2  0
  7  9  1  0
  9 10  1  0
 10 11  1  0
 11 12  2  0
 12 13  1  0
 13 14  2  0
 14 15  1  0
 15 16  2  0
  9 17  1  0
 17 18  2  0
 18 19  1  0
 19 20  1  0
 20 21  1  0
  2 22  1  0
 22 23  1  0
 23 24  2  0
 24 25  1  0
 25 26  2  0
 26 27  1  0
 27 28  2  0
 28 29  1  0
 29 30  1  0
 30 31  1  0
 31 32  1  0
 32 33  1  0
 33 34  1  0
 18  5  1  0
 28 23  1  0
 34 29  1  0
 16 11  1  0
 21 17  1  0
  3 35  1  0
  3 36  1  0
  6 37  1  0
 10 38  1  0
 10 39  1  0
 12 40  1  0
 13 41  1  0
 14 42  1  0
 15 43  1  0
 16 44  1  0
 19 45  1  0
 19 46  1  0
 20 47  1  0
 20 48  1  0
 21 49  1  0
 21 50  1  0
 24 51  1  0
 25 52  1  0
 26 53  1  0
 27 54  1  0
 30 55  1  0
 30 56  1  0
 31 57  1  0
 31 58  1  0
 33 59  1  0
 33 60  1  0
 34 61  1  0
 34 62  1  0
M  CHG  2   6   1  22  -1
M  END
>  <UniqueID>  (48) 
40

>  <SMILES>  (48) 
O=C(CSc1[nH+]c(=O)n(Cc2ccccc2)c2c1CCC2)[N-]c1ccccc1N1CCOCC1

>  <Energy>  (48) 
82.31124795340767

>  <Genealogy>  (48) 
O=C(CSc1[nH+]c(=O)n(Cc2ccccc2)c2c1CCC2)[N-]c1ccccc1N1CCOCC1 (protonated)
O=C(CSc1[nH+]c(=O)n(Cc2ccccc2)c2c1CCC2)[N-]c1ccccc1N1CCOCC1 (3D coordinates assigned)
O=C(CSc1[nH+]c(=O)n(Cc2ccccc2)c2c1CCC2)[N-]c1ccccc1N1CCOCC1 (nonaromatic ring conformer: 82.31124795340767 kcal/mol)

>  <smiles>  (48) 
O=C(CSc1nc(=O)n(Cc2ccccc2)c2c1CCC2)Nc1ccccc1N1CCOCC1

>  <score_type>  (48) 
oracle

>  <origin>  (48) 
adg

>  <m_score__min__energy>  (48) 
-10.460000000000001

>  <m_primary>  (48) 
energy

$$$$
48:0
     RDKit          3D

 52 56  0  0  0  0  0  0  0  0999 V2000
   52.4161   20.4871   46.2812 H   0  0  0  0  0  0  0  0  0  0  0  0
   53.2880   21.1380   46.4430 C   0  0  0  0  0  0  0  0  0  0  0  0
   54.3450   20.7950   47.2240 N   0  0  0  0  0  0  0  0  0  0  0  0
   55.1260   21.8880   47.1260 C   0  0  0  0  0  0  0  0  0  0  0  0
   56.3910   22.1150   47.6990 C   0  0  0  0  0  0  0  0  0  0  0  0
   57.0060   21.2720   48.4830 N   0  0  0  0  0  0  0  0  0  0  0  0
   57.1050   21.3110   49.9130 C   0  0  0  0  0  0  0  0  0  0  0  0
   56.4490   20.3640   50.7140 C   0  0  0  0  0  0  0  0  0  0  0  0
   55.8898   19.5413   50.2445 H   0  0  0  0  0  0  0  0  0  0  0  0
   56.5030   20.4610   52.0700 N   0  0  0  0  0  0  0  0  0  0  0  0
   57.1680   21.4750   52.6870 C   0  0  0  0  0  0  0  0  0  0  0  0
   57.2043   21.5203   53.7855 H   0  0  0  0  0  0  0  0  0  0  0  0
   57.8050   22.4590   51.9260 C   0  0  0  0  0  0  0  0  0  0  0  0
   58.3365   23.2858   52.4198 H   0  0  0  0  0  0  0  0  0  0  0  0
   57.7600   22.3820   50.5320 C   0  0  0  0  0  0  0  0  0  0  0  0
   58.2386   23.1619   49.9216 H   0  0  0  0  0  0  0  0  0  0  0  0
   57.0180   23.2820   47.3700 N   0  0  0  0  0  0  0  0  0  0  0  0
   56.4570   24.2250   46.5500 C   0  0  0  0  0  0  0  0  0  0  0  0
   57.2100   25.4670   46.2330 C   0  0  0  0  0  0  0  0  0  0  0  0
   58.6150   25.4510   46.2000 C   0  0  0  0  0  0  0  0  0  0  0  0
   59.1542   24.5101   46.3840 H   0  0  0  0  0  0  0  0  0  0  0  0
   59.3310   26.6180   45.9360 C   0  0  0  0  0  0  0  0  0  0  0  0
   60.4303   26.5907   45.9067 H   0  0  0  0  0  0  0  0  0  0  0  0
   58.6610   27.8190   45.7090 C   0  0  0  0  0  0  0  0  0  0  0  0
   59.2361   28.7338   45.5031 H   0  0  0  0  0  0  0  0  0  0  0  0
   57.2560   27.8710   45.7410 C   0  0  0  0  0  0  0  0  0  0  0  0
   56.5440   29.1070   45.5180 N   0  0  0  0  0  0  0  0  0  0  0  0
   55.5470   29.1910   45.8220 H   0  0  0  0  0  0  0  0  0  0  0  0
   57.2340   30.5090   44.7610 S   0  0  0  0  0  0  0  0  0  0  0  0
   56.1510   31.2600   44.0350 O   0  0  0  0  0  0  0  0  0  0  0  0
   58.2710   30.0730   43.7650 O   0  0  0  0  0  0  0  0  0  0  0  0
   58.0040   31.5260   45.9730 C   0  0  0  0  0  0  0  0  0  0  0  0
   57.9760   32.9230   45.8540 C   0  0  0  0  0  0  0  0  0  0  0  0
   57.4656   33.3903   44.9990 H   0  0  0  0  0  0  0  0  0  0  0  0
   58.5950   33.7240   46.8190 C   0  0  0  0  0  0  0  0  0  0  0  0
   58.5697   34.8192   46.7198 H   0  0  0  0  0  0  0  0  0  0  0  0
   59.2510   33.1340   47.9180 C   0  0  0  0  0  0  0  0  0  0  0  0
   59.8880   33.8930   48.9100 O   0  0  0  0  0  0  0  0  0  0  0  0
   61.2640   34.2570   48.8850 C   0  0  0  0  0  0  0  0  0  0  0  0
   61.6360   34.3554   49.9155 H   0  0  0  0  0  0  0  0  0  0  0  0
   61.8393   33.4801   48.3601 H   0  0  0  0  0  0  0  0  0  0  0  0
   61.3799   35.2167   48.3601 H   0  0  0  0  0  0  0  0  0  0  0  0
   59.2730   31.7390   48.0310 C   0  0  0  0  0  0  0  0  0  0  0  0
   59.7788   31.2689   48.8872 H   0  0  0  0  0  0  0  0  0  0  0  0
   58.6570   30.9380   47.0640 C   0  0  0  0  0  0  0  0  0  0  0  0
   58.6854   29.8426   47.1605 H   0  0  0  0  0  0  0  0  0  0  0  0
   56.5340   26.6850   45.9960 C   0  0  0  0  0  0  0  0  0  0  0  0
   55.1420   26.7180   45.9960 O   0  0  0  0  0  0  0  0  0  0  0  0
   55.1790   23.9800   46.0100 C   0  0  0  0  0  0  0  0  0  0  0  0
   54.6863   24.7142   45.3557 H   0  0  0  0  0  0  0  0  0  0  0  0
   54.5790   22.8070   46.3260 N   0  0  0  0  0  0  0  0  0  0  0  0
   53.4190   22.3630   45.8850 N   0  0  0  0  0  0  0  0  0  0  0  0
  1  2  1  0
  2  3  1  0
  3  4  2  0
  4  5  1  0
  5  6  2  0
  6  7  1  0
  7  8  2  0
  8  9  1  0
  8 10  1  0
 10 11  2  0
 11 12  1  0
 11 13  1  0
 13 14  1  0
 13 15  2  0
 15 16  1  0
  5 17  1  0
 17 18  1  0
 18 19  1  0
 19 20  2  0
 20 21  1  0
 20 22  1  0
 22 23  1  0
 22 24  2  0
 24 25  1  0
 24 26  1  0
 26 27  1  0
 27 28  1  0
 27 29  1  0
 29 30  2  0
 29 31  2  0
 29 32  1  0
 32 33  2  0
 33 34  1  0
 33 35  1  0
 35 36  1  0
 35 37  2  0
 37 38  1  0
 38 39  1  0
 39 40  1  0
 39 41  1  0
 39 42  1  0
 37 43  1  0
 43 44  1  0
 43 45  2  0
 45 46  1  0
 26 47  2  0
 47 48  1  0
 18 49  2  0
 49 50  1  0
 49 51  1  0
 51 52  1  0
 52  2  2  0
 51  4  1  0
 15  7  1  0
 47 19  1  0
 45 32  1  0
M  CHG  2  17  -1  48  -1
M  END
>  <UniqueID>  (49) 
41

>  <SMILES>  (49) 
COc1ccc(S(=O)(=O)Nc2cccc(-c3cn4ncnc4/c(=N\c4cccnc4)[n-]3)c2[O-])cc1

>  <Energy>  (49) 
119.4962336445338

>  <Genealogy>  (49) 
COc1ccc(S(=O)(=O)Nc2cccc(-c3cn4ncnc4c(=Nc4cccnc4)[n-]3)c2[O-])cc1 (protonated)
COc1ccc(S(=O)(=O)Nc2cccc(-c3cn4ncnc4/c(=N\c4cccnc4)[n-]3)c2[O-])cc1 (cis-trans isomerization)
COc1ccc(S(=O)(=O)Nc2cccc(-c3cn4ncnc4/c(=N\c4cccnc4)[n-]3)c2[O-])cc1 (3D coordinates assigned)
COc1ccc(S(=O)(=O)Nc2cccc(-c3cn4ncnc4/c(=N\c4cccnc4)[n-]3)c2[O-])cc1 (optimized conformer: 119.4962336445338 kcal/mol)

>  <smiles>  (49) 
COc1ccc(S(=O)(=O)Nc2cccc(-c3cn4ncnc4c(=Nc4cccnc4)[nH]3)c2O)cc1

>  <score_type>  (49) 
oracle

>  <origin>  (49) 
adg

>  <m_score__min__energy>  (49) 
-14.17

>  <m_primary>  (49) 
energy

$$$$
49:0
     RDKit          3D

 54 58  0  0  0  0  0  0  0  0999 V2000
   61.1300   32.2310   50.7290 O   0  0  0  0  0  0  0  0  0  0  0  0
   60.1470   31.8190   50.0580 C   0  0  0  0  0  0  0  0  0  0  0  0
   60.2310   31.8140   48.6230 N   0  0  0  0  0  0  0  0  0  0  0  0
   61.2770   32.4880   47.9060 C   0  0  0  0  0  0  0  0  0  0  0  0
   62.6030   32.0720   48.0980 C   0  0  0  0  0  0  0  0  0  0  0  0
   63.6550   32.7300   47.4560 C   0  0  0  0  0  0  0  0  0  0  0  0
   63.3910   33.8020   46.6050 C   0  0  0  0  0  0  0  0  0  0  0  0
   62.0740   34.2080   46.3780 C   0  0  0  0  0  0  0  0  0  0  0  0
   61.0060   33.5540   47.0140 C   0  0  0  0  0  0  0  0  0  0  0  0
   59.6580   33.9300   46.6800 N   0  0  0  0  0  0  0  0  0  0  0  0
   59.3690   34.6040   45.4080 C   0  0  0  0  0  0  0  0  0  0  0  0
   58.1740   33.9420   44.6830 C   0  0  0  0  0  0  0  0  0  0  0  0
   57.4370   33.0310   45.4860 O   0  0  0  0  0  0  0  0  0  0  0  0
   57.2320   33.5630   46.7770 C   0  0  0  0  0  0  0  0  0  0  0  0
   58.5500   33.5220   47.5500 C   0  0  0  0  0  0  0  0  0  0  0  0
   58.9160   31.3380   50.7450 C   0  0  0  0  0  0  0  0  0  0  0  0
   57.9340   32.2720   51.1260 C   0  0  0  0  0  0  0  0  0  0  0  0
   56.7640   31.8570   51.7600 C   0  0  0  0  0  0  0  0  0  0  0  0
   56.5710   30.5030   52.0160 C   0  0  0  0  0  0  0  0  0  0  0  0
   57.5190   29.6030   51.6550 N   0  0  0  0  0  0  0  0  0  0  0  0
   58.6770   29.9690   51.0420 C   0  0  0  0  0  0  0  0  0  0  0  0
   59.8330   28.6580   50.6220 S   0  0  0  0  0  0  0  0  0  0  0  0
   59.7780   29.0630   48.8800 C   0  0  0  0  0  0  0  0  0  0  0  0
   60.8720   29.2600   48.1260 N   0  0  0  0  0  0  0  0  0  0  0  0
   60.4440   29.5080   46.9020 N   0  0  0  0  0  0  0  0  0  0  0  0
   59.0980   29.4580   46.9440 C   0  0  0  0  0  0  0  0  0  0  0  0
   58.2280   29.6770   45.7690 C   0  0  0  0  0  0  0  0  0  0  0  0
   58.6180   30.5640   44.7480 C   0  0  0  0  0  0  0  0  0  0  0  0
   57.7920   30.7700   43.6380 C   0  0  0  0  0  0  0  0  0  0  0  0
   56.5720   30.0970   43.5380 C   0  0  0  0  0  0  0  0  0  0  0  0
   56.1750   29.2160   44.5460 C   0  0  0  0  0  0  0  0  0  0  0  0
   56.9980   29.0030   45.6560 C   0  0  0  0  0  0  0  0  0  0  0  0
   58.6350   29.1800   48.1790 N   0  0  0  0  0  0  0  0  0  0  0  0
   59.6480   31.1240   48.0960 H   0  0  0  0  0  0  0  0  0  0  0  0
   62.8164   31.2199   48.7601 H   0  0  0  0  0  0  0  0  0  0  0  0
   64.6918   32.4021   47.6221 H   0  0  0  0  0  0  0  0  0  0  0  0
   64.2210   34.3289   46.1116 H   0  0  0  0  0  0  0  0  0  0  0  0
   61.8716   35.0467   45.6956 H   0  0  0  0  0  0  0  0  0  0  0  0
   59.1281   35.6586   45.6074 H   0  0  0  0  0  0  0  0  0  0  0  0
   60.2558   34.5241   44.7622 H   0  0  0  0  0  0  0  0  0  0  0  0
   57.4911   34.7365   44.3476 H   0  0  0  0  0  0  0  0  0  0  0  0
   58.5936   33.3600   43.8492 H   0  0  0  0  0  0  0  0  0  0  0  0
   56.8849   34.6036   46.6957 H   0  0  0  0  0  0  0  0  0  0  0  0
   56.4731   32.9683   47.3066 H   0  0  0  0  0  0  0  0  0  0  0  0
   58.4899   34.2076   48.4081 H   0  0  0  0  0  0  0  0  0  0  0  0
   58.7286   32.4954   47.9026 H   0  0  0  0  0  0  0  0  0  0  0  0
   58.0917   33.3412   50.9211 H   0  0  0  0  0  0  0  0  0  0  0  0
   56.0010   32.5925   52.0549 H   0  0  0  0  0  0  0  0  0  0  0  0
   55.6496   30.1627   52.5111 H   0  0  0  0  0  0  0  0  0  0  0  0
   59.5769   31.0977   44.8233 H   0  0  0  0  0  0  0  0  0  0  0  0
   58.1037   31.4630   42.8427 H   0  0  0  0  0  0  0  0  0  0  0  0
   55.9237   30.2612   42.6647 H   0  0  0  0  0  0  0  0  0  0  0  0
   55.2130   28.6886   44.4666 H   0  0  0  0  0  0  0  0  0  0  0  0
   56.6823   28.3048   46.4452 H   0  0  0  0  0  0  0  0  0  0  0  0
  1  2  2  0
  2  3  1  0
  3  4  1  0
  4  5  2  0
  5  6  1  0
  6  7  2  0
  7  8  1  0
  8  9  2  0
  9 10  1  0
 10 11  1  0
 11 12  1  0
 12 13  1  0
 13 14  1  0
 14 15  1  0
  2 16  1  0
 16 17  2  0
 17 18  1  0
 18 19  2  0
 19 20  1  0
 20 21  2  0
 21 22  1  0
 22 23  1  0
 23 24  2  0
 24 25  1  0
 25 26  1  0
 26 27  1  0
 27 28  2  0
 28 29  1  0
 29 30  2  0
 30 31  1  0
 31 32  2  0
 26 33  2  0
  9  4  1  0
 15 10  1  0
 21 16  1  0
 33 23  1  0
 32 27  1  0
  3 34  1  0
  5 35  1  0
  6 36  1  0
  7 37  1  0
  8 38  1  0
 11 39  1  0
 11 40  1  0
 12 41  1  0
 12 42  1  0
 14 43  1  0
 14 44  1  0
 15 45  1  0
 15 46  1  0
 17 47  1  0
 18 48  1  0
 19 49  1  0
 28 50  1  0
 29 51  1  0
 30 52  1  0
 31 53  1  0
 32 54  1  0
M  CHG  1  25  -1
M  END
>  <UniqueID>  (50) 
42

>  <SMILES>  (50) 
O=C(Nc1ccccc1N1CCOCC1)c1cccnc1Sc1n[n-]c(-c2ccccc2)n1

>  <Energy>  (50) 
109.31395345969378

>  <Genealogy>  (50) 
O=C(Nc1ccccc1N1CCOCC1)c1cccnc1Sc1n[n-]c(-c2ccccc2)n1 (protonated)
O=C(Nc1ccccc1N1CCOCC1)c1cccnc1Sc1n[n-]c(-c2ccccc2)n1 (3D coordinates assigned)
O=C(Nc1ccccc1N1CCOCC1)c1cccnc1Sc1n[n-]c(-c2ccccc2)n1 (nonaromatic ring conformer: 109.31395345969378 kcal/mol)

>  <smiles>  (50) 
O=C(Nc1ccccc1N1CCOCC1)c1cccnc1Sc1n[nH]c(-c2ccccc2)n1

>  <score_type>  (50) 
oracle

>  <origin>  (50) 
adg

>  <m_score__min__energy>  (50) 
-10.68

>  <m_primary>  (50) 
energy

$$$$
50:0
     RDKit          3D

 47 49  0  0  1  0  0  0  0  0999 V2000
   56.1880   21.7250   43.0140 N   0  0  0  0  0  0  0  0  0  0  0  0
   56.3840   22.7320   43.5590 C   0  0  0  0  0  0  0  0  0  0  0  0
   56.6060   23.9670   44.2470 C   0  0  0  0  0  0  0  0  0  0  0  0
   57.4050   24.9390   43.6480 C   0  0  0  0  0  0  0  0  0  0  0  0
   57.6080   26.1240   44.3260 C   0  0  0  0  0  0  0  0  0  0  0  0
   57.0520   26.3820   45.5690 C   0  0  0  0  0  0  0  0  0  0  0  0
   57.3500   27.6460   46.1450 N   0  0  0  0  0  0  0  0  0  0  0  0
   57.0140   28.7310   45.5120 C   0  0  0  0  0  0  0  0  0  0  0  0
   55.8250   28.8510   44.8840 N   0  0  0  0  0  0  0  0  0  0  0  0
   55.5640   30.0120   44.2540 C   0  0  0  0  0  0  0  0  0  0  0  0
   56.4780   31.0460   44.2470 C   0  0  0  0  0  0  0  0  0  0  0  0
   57.6870   30.9150   44.8900 C   0  0  0  0  0  0  0  0  0  0  0  0
   58.5920   31.8090   44.9390 N   0  0  0  0  0  0  0  0  0  0  0  0
   58.2370   33.1830   44.6500 C   0  0  0  0  0  0  0  0  0  0  0  0
   57.4790   33.8460   45.7910 C   0  0  0  0  0  0  0  0  0  0  0  0
   58.3680   34.0300   46.8990 O   0  0  0  0  0  0  0  0  0  0  0  0
   59.6110   34.6150   46.7220 C   0  0  0  0  0  0  0  0  0  0  0  0
   59.6690   35.6010   45.9430 O   0  0  0  0  0  0  0  0  0  0  0  0
   60.7780   34.1000   47.4130 C   0  0  0  0  0  0  0  0  0  0  0  0
   60.8970   34.0280   48.7810 C   0  0  0  0  0  0  0  0  0  0  0  0
   62.0400   33.5250   49.3880 C   0  0  0  0  0  0  0  0  0  0  0  0
   62.1660   33.4500   50.7600 O   0  0  0  0  0  0  0  0  0  0  0  0
   63.1070   33.0770   48.6070 C   0  0  0  0  0  0  0  0  0  0  0  0
   64.2670   32.5670   49.1770 O   0  0  0  0  0  0  0  0  0  0  0  0
   62.9780   33.1540   47.2370 C   0  0  0  0  0  0  0  0  0  0  0  0
   63.9990   32.7250   46.3930 O   0  0  0  0  0  0  0  0  0  0  0  0
   61.8420   33.6530   46.6480 C   0  0  0  0  0  0  0  0  0  0  0  0
   57.9270   29.7410   45.5150 N   0  0  0  0  0  0  0  0  0  0  0  0
   56.2730   25.4280   46.1470 C   0  0  0  0  0  0  0  0  0  0  0  0
   56.0560   24.2330   45.4850 C   0  0  0  0  0  0  0  0  0  0  0  0
   57.8613   24.7666   42.6621 H   0  0  0  0  0  0  0  0  0  0  0  0
   58.2377   26.8963   43.8601 H   0  0  0  0  0  0  0  0  0  0  0  0
   55.1430   28.0670   44.8940 H   0  0  0  0  0  0  0  0  0  0  0  0
   54.6028   30.1389   43.7344 H   0  0  0  0  0  0  0  0  0  0  0  0
   56.2377   31.9828   43.7229 H   0  0  0  0  0  0  0  0  0  0  0  0
   59.1590   33.7527   44.4621 H   0  0  0  0  0  0  0  0  0  0  0  0
   57.5760   33.1776   43.7708 H   0  0  0  0  0  0  0  0  0  0  0  0
   57.0954   34.8225   45.4602 H   0  0  0  0  0  0  0  0  0  0  0  0
   56.6348   33.2095   46.0946 H   0  0  0  0  0  0  0  0  0  0  0  0
   60.0655   34.3778   49.4105 H   0  0  0  0  0  0  0  0  0  0  0  0
   63.0330   33.0700   51.1290 H   0  0  0  0  0  0  0  0  0  0  0  0
   65.0260   32.2370   48.5920 H   0  0  0  0  0  0  0  0  0  0  0  0
   64.8150   32.2690   46.7650 H   0  0  0  0  0  0  0  0  0  0  0  0
   61.7764   33.6983   45.5509 H   0  0  0  0  0  0  0  0  0  0  0  0
   58.8370   29.6080   46.0130 H   0  0  0  0  0  0  0  0  0  0  0  0
   55.8192   25.6056   47.1332 H   0  0  0  0  0  0  0  0  0  0  0  0
   55.4239   23.4689   45.9610 H   0  0  0  0  0  0  0  0  0  0  0  0
  1  2  3  0
  2  3  1  0
  3  4  2  0
  4  5  1  0
  5  6  2  0
  6  7  1  0
  7  8  2  0
  8  9  1  0
  9 10  1  0
 10 11  2  0
 11 12  1  0
 12 13  2  0
 13 14  1  0
 14 15  1  0
 15 16  1  0
 16 17  1  0
 17 18  2  0
 17 19  1  0
 19 20  2  0
 20 21  1  0
 21 22  1  0
 21 23  2  0
 23 24  1  0
 23 25  1  0
 25 26  1  0
 25 27  2  0
 12 28  1  0
  6 29  1  0
 29 30  2  0
 30  3  1  0
 28  8  1  0
 27 19  1  0
  4 31  1  0
  5 32  1  0
  9 33  1  0
 10 34  1  0
 11 35  1  0
 14 36  1  0
 14 37  1  0
 15 38  1  0
 15 39  1  0
 20 40  1  0
 22 41  1  0
 24 42  1  0
 26 43  1  0
 27 44  1  0
 28 45  1  0
 29 46  1  0
 30 47  1  0
M  END
>  <smiles>  (51) 
N#Cc1ccc(N=c2[nH]ccc(=NCCOC(=O)c3cc(O)c(O)c(O)c3)[nH]2)cc1

>  <score_type>  (51) 
oracle

>  <origin>  (51) 
adg

>  <m_score__min__energy>  (51) 
-9.2699999999999996

>  <m_primary>  (51) 
energy

$$$$
51:0
     RDKit          3D

 49 52  0  0  0  0  0  0  0  0999 V2000
   56.9810   21.3480   48.7280 C   0  0  0  0  0  0  0  0  0  0  0  0
   57.7500   21.0760   47.5210 N   0  0  0  0  0  0  0  0  0  0  0  0
   57.7630   21.9350   46.3740 C   0  0  0  0  0  0  0  0  0  0  0  0
   58.6480   21.7720   45.4940 O   0  0  0  0  0  0  0  0  0  0  0  0
   56.7940   23.0340   46.2230 C   0  0  0  0  0  0  0  0  0  0  0  0
   57.2770   24.3000   46.1510 N   0  0  0  0  0  0  0  0  0  0  0  0
   56.4800   25.3950   46.0450 C   0  0  0  0  0  0  0  0  0  0  0  0
   57.1150   26.7330   45.9790 C   0  0  0  0  0  0  0  0  0  0  0  0
   58.2380   26.9240   46.5160 O   0  0  0  0  0  0  0  0  0  0  0  0
   56.4410   27.8520   45.3870 N   0  0  0  0  0  0  0  0  0  0  0  0
   57.0210   29.1350   45.1070 C   0  0  0  0  0  0  0  0  0  0  0  0
   56.4750   29.9190   44.0850 C   0  0  0  0  0  0  0  0  0  0  0  0
   57.0160   31.1740   43.7900 C   0  0  0  0  0  0  0  0  0  0  0  0
   58.0920   31.6760   44.5410 C   0  0  0  0  0  0  0  0  0  0  0  0
   58.6970   32.9450   44.2520 N   0  0  0  0  0  0  0  0  0  0  0  0
   58.7540   34.0840   45.1230 C   0  0  0  0  0  0  0  0  0  0  0  0
   58.0950   35.1240   44.8480 O   0  0  0  0  0  0  0  0  0  0  0  0
   59.5430   34.0200   46.3770 C   0  0  0  0  0  0  0  0  0  0  0  0
   58.9000   34.0250   47.6290 C   0  0  0  0  0  0  0  0  0  0  0  0
   59.6480   33.9600   48.8090 C   0  0  0  0  0  0  0  0  0  0  0  0
   61.0410   33.8890   48.7540 C   0  0  0  0  0  0  0  0  0  0  0  0
   61.6900   33.8820   47.5180 C   0  0  0  0  0  0  0  0  0  0  0  0
   60.9490   33.9460   46.3340 C   0  0  0  0  0  0  0  0  0  0  0  0
   58.6330   30.8950   45.5690 C   0  0  0  0  0  0  0  0  0  0  0  0
   58.0940   29.6380   45.8620 C   0  0  0  0  0  0  0  0  0  0  0  0
   55.0840   25.2310   45.9950 C   0  0  0  0  0  0  0  0  0  0  0  0
   54.2470   26.3410   45.9080 O   0  0  0  0  0  0  0  0  0  0  0  0
   54.5390   23.9350   46.0460 C   0  0  0  0  0  0  0  0  0  0  0  0
   53.1470   23.7350   45.9860 C   0  0  0  0  0  0  0  0  0  0  0  0
   52.6160   22.4440   46.0220 C   0  0  0  0  0  0  0  0  0  0  0  0
   53.4620   21.3400   46.1150 C   0  0  0  0  0  0  0  0  0  0  0  0
   54.8450   21.5170   46.1780 C   0  0  0  0  0  0  0  0  0  0  0  0
   55.4000   22.8140   46.1560 C   0  0  0  0  0  0  0  0  0  0  0  0
   57.5975   21.1299   49.6125 H   0  0  0  0  0  0  0  0  0  0  0  0
   56.6819   22.4065   48.7415 H   0  0  0  0  0  0  0  0  0  0  0  0
   56.0829   20.7130   48.7415 H   0  0  0  0  0  0  0  0  0  0  0  0
   55.6147   29.5457   43.5100 H   0  0  0  0  0  0  0  0  0  0  0  0
   56.5974   31.7709   42.9663 H   0  0  0  0  0  0  0  0  0  0  0  0
   57.8026   34.0804   47.6797 H   0  0  0  0  0  0  0  0  0  0  0  0
   59.1371   33.9648   49.7832 H   0  0  0  0  0  0  0  0  0  0  0  0
   61.6268   33.8386   49.6837 H   0  0  0  0  0  0  0  0  0  0  0  0
   62.7877   33.8260   47.4754 H   0  0  0  0  0  0  0  0  0  0  0  0
   61.4669   33.9385   45.3636 H   0  0  0  0  0  0  0  0  0  0  0  0
   59.4874   31.2722   46.1501 H   0  0  0  0  0  0  0  0  0  0  0  0
   58.5115   29.0412   46.6863 H   0  0  0  0  0  0  0  0  0  0  0  0
   52.4732   24.6012   45.9103 H   0  0  0  0  0  0  0  0  0  0  0  0
   51.5267   22.2977   45.9768 H   0  0  0  0  0  0  0  0  0  0  0  0
   53.0379   20.3253   46.1388 H   0  0  0  0  0  0  0  0  0  0  0  0
   55.5060   20.6404   46.2452 H   0  0  0  0  0  0  0  0  0  0  0  0
  1  2  1  0
  2  3  1  0
  3  4  2  0
  3  5  1  0
  5  6  2  0
  6  7  1  0
  7  8  1  0
  8  9  2  0
  8 10  1  0
 10 11  1  0
 11 12  2  0
 12 13  1  0
 13 14  2  0
 14 15  1  0
 15 16  1  0
 16 17  2  0
 16 18  1  0
 18 19  2  0
 19 20  1  0
 20 21  2  0
 21 22  1  0
 22 23  2  0
 14 24  1  0
 24 25  2  0
  7 26  2  0
 26 27  1  0
 26 28  1  0
 28 29  2  0
 29 30  1  0
 30 31  2  0
 31 32  1  0
 32 33  2  0
 33  5  1  0
 25 11  1  0
 33 28  1  0
 23 18  1  0
  1 34  1  0
  1 35  1  0
  1 36  1  0
 12 37  1  0
 13 38  1  0
 19 39  1  0
 20 40  1  0
 21 41  1  0
 22 42  1  0
 23 43  1  0
 24 44  1  0
 25 45  1  0
 29 46  1  0
 30 47  1  0
 31 48  1  0
 32 49  1  0
M  CHG  4   2  -1  10  -1  15  -1  27  -1
M  END
>  <UniqueID>  (52) 
43

>  <SMILES>  (52) 
C[N-]C(=O)c1nc(C(=O)[N-]c2ccc([N-]C(=O)c3ccccc3)cc2)c([O-])c2ccccc12

>  <Energy>  (52) 
74.53032699016241

>  <Genealogy>  (52) 
C[N-]C(=O)c1nc(C(=O)[N-]c2ccc([N-]C(=O)c3ccccc3)cc2)c([O-])c2ccccc12 (protonated)
C[N-]C(=O)c1nc(C(=O)[N-]c2ccc([N-]C(=O)c3ccccc3)cc2)c([O-])c2ccccc12 (3D coordinates assigned)
C[N-]C(=O)c1nc(C(=O)[N-]c2ccc([N-]C(=O)c3ccccc3)cc2)c([O-])c2ccccc12 (optimized conformer: 74.53032699016241 kcal/mol)

>  <smiles>  (52) 
CNC(=O)c1nc(C(=O)Nc2ccc(NC(=O)c3ccccc3)cc2)c(O)c2ccccc12

>  <score_type>  (52) 
oracle

>  <origin>  (52) 
adg

>  <m_score__min__energy>  (52) 
-15.960000000000001

>  <m_primary>  (52) 
energy

$$$$
52:0
     RDKit          3D

 51 53  0  0  0  0  0  0  0  0999 V2000
   57.7690   32.3480   51.2260 C   0  0  0  0  0  0  0  0  0  0  0  0
   58.8130   31.6020   50.4450 C   0  0  0  0  0  0  0  0  0  0  0  0
   59.4920   32.0730   49.3290 C   0  0  0  0  0  0  0  0  0  0  0  0
   59.3810   33.4320   48.7590 C   0  0  0  0  0  0  0  0  0  0  0  0
   59.7580   34.4160   49.4500 O   0  0  0  0  0  0  0  0  0  0  0  0
   58.9060   33.6430   47.4150 N   0  0  0  0  0  0  0  0  0  0  0  0
   59.2290   34.9060   46.7380 C   0  0  0  0  0  0  0  0  0  0  0  0
   59.0170   34.7920   45.2250 C   0  0  0  0  0  0  0  0  0  0  0  0
   57.5970   34.3170   44.8780 C   0  0  0  0  0  0  0  0  0  0  0  0
   57.0140   33.3000   45.8820 C   0  0  0  0  0  0  0  0  0  0  0  0
   58.0910   32.6240   46.7350 C   0  0  0  0  0  0  0  0  0  0  0  0
   60.2230   30.9990   48.8320 C   0  0  0  0  0  0  0  0  0  0  0  0
   61.2300   30.9540   47.3780 S   0  0  0  0  0  0  0  0  0  0  0  0
   60.8190   32.0040   46.3840 O   0  0  0  0  0  0  0  0  0  0  0  0
   62.6540   31.2050   47.7840 O   0  0  0  0  0  0  0  0  0  0  0  0
   61.1290   29.3920   46.6340 N   0  0  0  0  0  0  0  0  0  0  0  0
   59.9300   28.8030   46.1140 C   0  0  0  0  0  0  0  0  0  0  0  0
   59.8360   27.4100   46.0570 C   0  0  0  0  0  0  0  0  0  0  0  0
   58.6620   26.7980   45.6050 C   0  0  0  0  0  0  0  0  0  0  0  0
   57.5750   27.5750   45.1930 C   0  0  0  0  0  0  0  0  0  0  0  0
   57.6670   28.9680   45.2270 C   0  0  0  0  0  0  0  0  0  0  0  0
   56.5480   29.7690   44.8190 C   0  0  0  0  0  0  0  0  0  0  0  0
   55.6500   30.4170   44.4960 N   0  0  0  0  0  0  0  0  0  0  0  0
   58.8460   29.5820   45.6770 C   0  0  0  0  0  0  0  0  0  0  0  0
   59.9770   29.9280   49.6800 C   0  0  0  0  0  0  0  0  0  0  0  0
   60.4880   28.5250   49.5090 C   0  0  0  0  0  0  0  0  0  0  0  0
   59.1310   30.3060   50.6640 N   0  0  0  0  0  0  0  0  0  0  0  0
   58.5280   29.4310   51.6730 C   0  0  0  0  0  0  0  0  0  0  0  0
   57.9529   32.2166   52.3025 H   0  0  0  0  0  0  0  0  0  0  0  0
   57.8170   33.4176   50.9737 H   0  0  0  0  0  0  0  0  0  0  0  0
   56.7726   31.9561   50.9737 H   0  0  0  0  0  0  0  0  0  0  0  0
   58.5795   35.7012   47.1327 H   0  0  0  0  0  0  0  0  0  0  0  0
   60.2870   35.1416   46.9253 H   0  0  0  0  0  0  0  0  0  0  0  0
   59.1835   35.7784   44.7675 H   0  0  0  0  0  0  0  0  0  0  0  0
   59.7289   34.0487   44.8367 H   0  0  0  0  0  0  0  0  0  0  0  0
   56.9351   35.1952   44.8510 H   0  0  0  0  0  0  0  0  0  0  0  0
   57.6604   33.8054   43.9063 H   0  0  0  0  0  0  0  0  0  0  0  0
   56.3158   33.8260   46.5496 H   0  0  0  0  0  0  0  0  0  0  0  0
   56.5094   32.5136   45.3015 H   0  0  0  0  0  0  0  0  0  0  0  0
   57.6101   31.9808   47.4866 H   0  0  0  0  0  0  0  0  0  0  0  0
   58.7389   32.0174   46.0852 H   0  0  0  0  0  0  0  0  0  0  0  0
   60.6900   26.7911   46.3693 H   0  0  0  0  0  0  0  0  0  0  0  0
   58.5937   25.7006   45.5736 H   0  0  0  0  0  0  0  0  0  0  0  0
   56.6511   27.0910   44.8435 H   0  0  0  0  0  0  0  0  0  0  0  0
   58.9216   30.6793   45.6875 H   0  0  0  0  0  0  0  0  0  0  0  0
   60.6530   28.0718   50.4976 H   0  0  0  0  0  0  0  0  0  0  0  0
   59.7486   27.9308   48.9521 H   0  0  0  0  0  0  0  0  0  0  0  0
   61.4364   28.5455   48.9521 H   0  0  0  0  0  0  0  0  0  0  0  0
   58.7823   29.8001   52.6775 H   0  0  0  0  0  0  0  0  0  0  0  0
   57.4350   29.4277   51.5494 H   0  0  0  0  0  0  0  0  0  0  0  0
   58.9140   28.4084   51.5494 H   0  0  0  0  0  0  0  0  0  0  0  0
  1  2  1  0
  2  3  2  0
  3  4  1  0
  4  5  2  0
  4  6  1  0
  6  7  1  0
  7  8  1  0
  8  9  1  0
  9 10  1  0
 10 11  1  0
  3 12  1  0
 12 13  1  0
 13 14  2  0
 13 15  2  0
 13 16  1  0
 16 17  1  0
 17 18  2  0
 18 19  1  0
 19 20  2  0
 20 21  1  0
 21 22  1  0
 22 23  3  0
 21 24  2  0
 12 25  2  0
 25 26  1  0
 25 27  1  0
 27 28  1  0
 27  2  1  0
 11  6  1  0
 24 17  1  0
  1 29  1  0
  1 30  1  0
  1 31  1  0
  7 32  1  0
  7 33  1  0
  8 34  1  0
  8 35  1  0
  9 36  1  0
  9 37  1  0
 10 38  1  0
 10 39  1  0
 11 40  1  0
 11 41  1  0
 18 42  1  0
 19 43  1  0
 20 44  1  0
 24 45  1  0
 26 46  1  0
 26 47  1  0
 26 48  1  0
 28 49  1  0
 28 50  1  0
 28 51  1  0
M  CHG  1  16  -1
M  END
>  <UniqueID>  (53) 
44

>  <SMILES>  (53) 
Cc1c(C(=O)N2CCCCC2)c(S(=O)(=O)[N-]c2cccc(C#N)c2)c(C)n1C

>  <Energy>  (53) 
86.91136027126359

>  <Genealogy>  (53) 
Cc1c(C(=O)N2CCCCC2)c(S(=O)(=O)[N-]c2cccc(C#N)c2)c(C)n1C (protonated)
Cc1c(C(=O)N2CCCCC2)c(S(=O)(=O)[N-]c2cccc(C#N)c2)c(C)n1C (3D coordinates assigned)
Cc1c(C(=O)N2CCCCC2)c(S(=O)(=O)[N-]c2cccc(C#N)c2)c(C)n1C (nonaromatic ring conformer: 86.91136027126359 kcal/mol)

>  <smiles>  (53) 
Cc1c(C(=O)N2CCCCC2)c(S(=O)(=O)Nc2cccc(C#N)c2)c(C)n1C

>  <score_type>  (53) 
oracle

>  <origin>  (53) 
adg

>  <m_score__min__energy>  (53) 
-9.4000000000000004

>  <m_primary>  (53) 
energy

$$$$
53:0
     RDKit          3D

 45 47  0  0  0  0  0  0  0  0999 V2000
   62.7610   31.7240   47.4740 C   0  0  0  0  0  0  0  0  0  0  0  0
   62.8360   33.4960   47.3240 S   0  0  0  0  0  0  0  0  0  0  0  0
   63.6640   34.0820   48.4330 O   0  0  0  0  0  0  0  0  0  0  0  0
   63.4770   33.8390   46.0090 O   0  0  0  0  0  0  0  0  0  0  0  0
   61.2380   34.1690   47.3550 N   0  0  0  0  0  0  0  0  0  0  0  0
   60.0660   33.5770   46.7780 C   0  0  0  0  0  0  0  0  0  0  0  0
   59.3430   32.5580   47.4220 C   0  0  0  0  0  0  0  0  0  0  0  0
   58.2130   32.0030   46.8150 C   0  0  0  0  0  0  0  0  0  0  0  0
   57.7820   32.4640   45.5590 C   0  0  0  0  0  0  0  0  0  0  0  0
   56.6230   31.9300   44.9030 N   0  0  0  0  0  0  0  0  0  0  0  0
   56.5450   30.3880   44.1140 S   0  0  0  0  0  0  0  0  0  0  0  0
   55.1590   29.8270   44.2670 O   0  0  0  0  0  0  0  0  0  0  0  0
   56.8320   30.5610   42.6490 O   0  0  0  0  0  0  0  0  0  0  0  0
   57.6920   29.2810   44.8620 C   0  0  0  0  0  0  0  0  0  0  0  0
   59.0600   29.5670   44.8090 C   0  0  0  0  0  0  0  0  0  0  0  0
   59.9830   28.6930   45.3840 C   0  0  0  0  0  0  0  0  0  0  0  0
   59.5470   27.5180   46.0110 C   0  0  0  0  0  0  0  0  0  0  0  0
   60.4700   26.6440   46.5840 O   0  0  0  0  0  0  0  0  0  0  0  0
   58.1770   27.2160   46.0640 C   0  0  0  0  0  0  0  0  0  0  0  0
   57.7610   26.0000   46.7000 N   0  0  0  0  0  0  0  0  0  0  0  0
   56.2680   25.1740   46.4010 S   0  0  0  0  0  0  0  0  0  0  0  0
   55.2190   26.1700   45.9890 O   0  0  0  0  0  0  0  0  0  0  0  0
   55.8250   24.4410   47.6360 O   0  0  0  0  0  0  0  0  0  0  0  0
   56.5070   24.0230   45.1030 C   0  0  0  0  0  0  0  0  0  0  0  0
   57.6220   23.2170   44.9320 C   0  0  0  0  0  0  0  0  0  0  0  0
   57.5310   22.3910   43.8060 C   0  0  0  0  0  0  0  0  0  0  0  0
   56.3470   22.5470   43.0950 C   0  0  0  0  0  0  0  0  0  0  0  0
   55.4120   23.7120   43.8690 S   0  0  0  0  0  0  0  0  0  0  0  0
   57.2510   28.1080   45.4920 C   0  0  0  0  0  0  0  0  0  0  0  0
   58.5010   33.4820   44.9240 C   0  0  0  0  0  0  0  0  0  0  0  0
   59.6340   34.0350   45.5280 C   0  0  0  0  0  0  0  0  0  0  0  0
   62.7492   31.4463   48.5383 H   0  0  0  0  0  0  0  0  0  0  0  0
   61.8464   31.3533   46.9882 H   0  0  0  0  0  0  0  0  0  0  0  0
   63.6410   31.2773   46.9882 H   0  0  0  0  0  0  0  0  0  0  0  0
   59.6681   32.1957   48.4084 H   0  0  0  0  0  0  0  0  0  0  0  0
   57.6577   31.2008   47.3231 H   0  0  0  0  0  0  0  0  0  0  0  0
   59.4094   30.4842   44.3123 H   0  0  0  0  0  0  0  0  0  0  0  0
   61.0571   28.9271   45.3450 H   0  0  0  0  0  0  0  0  0  0  0  0
   60.1750   25.8160   47.0860 H   0  0  0  0  0  0  0  0  0  0  0  0
   58.4878   23.2258   45.6105 H   0  0  0  0  0  0  0  0  0  0  0  0
   58.3216   21.6852   43.5116 H   0  0  0  0  0  0  0  0  0  0  0  0
   56.0685   22.0014   42.1813 H   0  0  0  0  0  0  0  0  0  0  0  0
   56.1751   27.8840   45.5392 H   0  0  0  0  0  0  0  0  0  0  0  0
   58.1722   33.8505   43.9411 H   0  0  0  0  0  0  0  0  0  0  0  0
   60.1897   34.8354   45.0175 H   0  0  0  0  0  0  0  0  0  0  0  0
  1  2  1  0
  2  3  2  0
  2  4  2  0
  2  5  1  0
  5  6  1  0
  6  7  2  0
  7  8  1  0
  8  9  2  0
  9 10  1  0
 10 11  1  0
 11 12  2  0
 11 13  2  0
 11 14  1  0
 14 15  2  0
 15 16  1  0
 16 17  2  0
 17 18  1  0
 17 19  1  0
 19 20  1  0
 20 21  1  0
 21 22  2  0
 21 23  2  0
 21 24  1  0
 24 25  2  0
 25 26  1  0
 26 27  2  0
 27 28  1  0
 19 29  2  0
  9 30  1  0
 30 31  2  0
 31  6  1  0
 29 14  1  0
 28 24  1  0
  1 32  1  0
  1 33  1  0
  1 34  1  0
  7 35  1  0
  8 36  1  0
 15 37  1  0
 16 38  1  0
 18 39  1  0
 25 40  1  0
 26 41  1  0
 27 42  1  0
 29 43  1  0
 30 44  1  0
 31 45  1  0
M  CHG  3   5  -1  10  -1  20  -1
M  END
>  <UniqueID>  (54) 
45

>  <SMILES>  (54) 
CS(=O)(=O)[N-]c1ccc([N-]S(=O)(=O)c2ccc(O)c([N-]S(=O)(=O)c3cccs3)c2)cc1

>  <Energy>  (54) 
79.04057656923847

>  <Genealogy>  (54) 
CS(=O)(=O)[N-]c1ccc([N-]S(=O)(=O)c2ccc(O)c([N-]S(=O)(=O)c3cccs3)c2)cc1 (protonated)
CS(=O)(=O)[N-]c1ccc([N-]S(=O)(=O)c2ccc(O)c([N-]S(=O)(=O)c3cccs3)c2)cc1 (3D coordinates assigned)
CS(=O)(=O)[N-]c1ccc([N-]S(=O)(=O)c2ccc(O)c([N-]S(=O)(=O)c3cccs3)c2)cc1 (optimized conformer: 79.04057656923847 kcal/mol)

>  <smiles>  (54) 
CS(=O)(=O)Nc1ccc(NS(=O)(=O)c2ccc(O)c(NS(=O)(=O)c3cccs3)c2)cc1

>  <score_type>  (54) 
oracle

>  <origin>  (54) 
adg

>  <m_score__min__energy>  (54) 
-13.630000000000001

>  <m_primary>  (54) 
energy

$$$$
54:0
     RDKit          3D

 34 35  0  0  0  0  0  0  0  0999 V2000
   58.1510   32.1800   42.4500 C   0  0  0  0  0  0  0  0  0  0  0  0
   57.4530   32.2220   43.7380 N   0  0  0  0  0  0  0  0  0  0  0  0
   57.4290   33.4650   44.5260 C   0  0  0  0  0  0  0  0  0  0  0  0
   58.3070   33.3340   45.7420 C   0  0  0  0  0  0  0  0  0  0  0  0
   57.7710   32.8980   46.9650 C   0  0  0  0  0  0  0  0  0  0  0  0
   58.6000   32.7420   48.0800 C   0  0  0  0  0  0  0  0  0  0  0  0
   59.9670   33.0150   47.9820 C   0  0  0  0  0  0  0  0  0  0  0  0
   60.5110   33.4450   46.7650 C   0  0  0  0  0  0  0  0  0  0  0  0
   61.9210   33.7190   46.6620 C   0  0  0  0  0  0  0  0  0  0  0  0
   63.0530   33.9390   46.5790 N   0  0  0  0  0  0  0  0  0  0  0  0
   59.6820   33.6010   45.6460 C   0  0  0  0  0  0  0  0  0  0  0  0
   56.9510   30.9870   44.2880 C   0  0  0  0  0  0  0  0  0  0  0  0
   55.7150   30.8590   44.4990 O   0  0  0  0  0  0  0  0  0  0  0  0
   57.8410   29.8560   44.6020 C   0  0  0  0  0  0  0  0  0  0  0  0
   59.1370   29.9320   45.0940 C   0  0  0  0  0  0  0  0  0  0  0  0
   59.5090   28.6120   45.2350 C   0  0  0  0  0  0  0  0  0  0  0  0
   60.6300   28.2080   45.6420 O   0  0  0  0  0  0  0  0  0  0  0  0
   58.4950   27.8040   44.8740 N   0  0  0  0  0  0  0  0  0  0  0  0
   58.5140   26.3470   44.8110 C   0  0  0  0  0  0  0  0  0  0  0  0
   57.4800   28.5600   44.4850 N   0  0  0  0  0  0  0  0  0  0  0  0
   59.2354   32.1147   42.6226 H   0  0  0  0  0  0  0  0  0  0  0  0
   57.8168   31.3003   41.8803 H   0  0  0  0  0  0  0  0  0  0  0  0
   57.9247   33.0934   41.8803 H   0  0  0  0  0  0  0  0  0  0  0  0
   57.7937   34.2955   43.9037 H   0  0  0  0  0  0  0  0  0  0  0  0
   56.3966   33.6607   44.8514 H   0  0  0  0  0  0  0  0  0  0  0  0
   56.6961   32.6787   47.0457 H   0  0  0  0  0  0  0  0  0  0  0  0
   58.1752   32.4036   49.0366 H   0  0  0  0  0  0  0  0  0  0  0  0
   60.6164   32.8921   48.8613 H   0  0  0  0  0  0  0  0  0  0  0  0
   60.1101   33.9339   44.6890 H   0  0  0  0  0  0  0  0  0  0  0  0
   59.7275   30.8326   45.3183 H   0  0  0  0  0  0  0  0  0  0  0  0
   58.5194   25.9359   45.8313 H   0  0  0  0  0  0  0  0  0  0  0  0
   57.6204   25.9914   44.2771 H   0  0  0  0  0  0  0  0  0  0  0  0
   59.4166   26.0148   44.2771 H   0  0  0  0  0  0  0  0  0  0  0  0
   56.5660   28.1970   44.1310 H   0  0  0  0  0  0  0  0  0  0  0  0
  1  2  1  0
  2  3  1  0
  3  4  1  0
  4  5  2  0
  5  6  1  0
  6  7  2  0
  7  8  1  0
  8  9  1  0
  9 10  3  0
  8 11  2  0
  2 12  1  0
 12 13  2  0
 12 14  1  0
 14 15  2  0
 15 16  1  0
 16 17  2  0
 16 18  1  0
 18 19  1  0
 18 20  1  0
 11  4  1  0
 20 14  1  0
  1 21  1  0
  1 22  1  0
  1 23  1  0
  3 24  1  0
  3 25  1  0
  5 26  1  0
  6 27  1  0
  7 28  1  0
 11 29  1  0
 15 30  1  0
 19 31  1  0
 19 32  1  0
 19 33  1  0
 20 34  1  0
M  END
>  <UniqueID>  (55) 
46

>  <SMILES>  (55) 
CN(Cc1cccc(C#N)c1)C(=O)c1cc(=O)n(C)[nH]1

>  <Energy>  (55) 
65.60945343418295

>  <Genealogy>  (55) 
CN(Cc1cccc(C#N)c1)C(=O)c1cc(=O)n(C)[nH]1 (3D coordinates assigned)
CN(Cc1cccc(C#N)c1)C(=O)c1cc(=O)n(C)[nH]1 (optimized conformer: 65.60945343418295 kcal/mol)

>  <smiles>  (55) 
CN(Cc1cccc(C#N)c1)C(=O)c1cc(=O)n(C)[nH]1

>  <score_type>  (55) 
oracle

>  <origin>  (55) 
adg

>  <m_score__min__energy>  (55) 
-6.5499999999999998

>  <m_primary>  (55) 
energy

$$$$
55:0
     RDKit          3D

 31 32  0  0  0  0  0  0  0  0999 V2000
   57.3960   33.2110   45.1360 C   0  0  0  0  0  0  0  0  0  0  0  0
   57.5580   31.7440   44.8330 C   0  0  0  0  0  0  0  0  0  0  0  0
   56.8110   31.1890   43.7810 C   0  0  0  0  0  0  0  0  0  0  0  0
   56.9210   29.8370   43.4700 C   0  0  0  0  0  0  0  0  0  0  0  0
   57.7910   29.0220   44.1880 C   0  0  0  0  0  0  0  0  0  0  0  0
   58.5610   29.5460   45.2380 C   0  0  0  0  0  0  0  0  0  0  0  0
   59.5210   28.6370   45.9080 C   0  0  0  0  0  0  0  0  0  0  0  0
   60.7560   28.8430   45.7700 O   0  0  0  0  0  0  0  0  0  0  0  0
   59.0930   27.5160   46.6940 N   0  0  0  0  0  0  0  0  0  0  0  0
   58.0690   26.5710   46.3480 C   0  0  0  0  0  0  0  0  0  0  0  0
   58.4400   25.2530   46.0490 C   0  0  0  0  0  0  0  0  0  0  0  0
   57.4700   24.3070   45.7080 C   0  0  0  0  0  0  0  0  0  0  0  0
   56.1200   24.6650   45.6800 C   0  0  0  0  0  0  0  0  0  0  0  0
   55.7380   25.9700   46.0050 C   0  0  0  0  0  0  0  0  0  0  0  0
   54.3930   26.3220   45.9940 O   0  0  0  0  0  0  0  0  0  0  0  0
   56.7060   26.9200   46.3470 C   0  0  0  0  0  0  0  0  0  0  0  0
   58.4060   30.9100   45.6080 C   0  0  0  0  0  0  0  0  0  0  0  0
   59.1310   31.4800   46.8090 C   0  0  0  0  0  0  0  0  0  0  0  0
   57.3795   33.3607   46.2256 H   0  0  0  0  0  0  0  0  0  0  0  0
   58.2378   33.7702   44.7018 H   0  0  0  0  0  0  0  0  0  0  0  0
   56.4524   33.5731   44.7018 H   0  0  0  0  0  0  0  0  0  0  0  0
   56.1327   31.8289   43.1975 H   0  0  0  0  0  0  0  0  0  0  0  0
   56.3184   29.4112   42.6541 H   0  0  0  0  0  0  0  0  0  0  0  0
   57.8761   27.9561   43.9300 H   0  0  0  0  0  0  0  0  0  0  0  0
   59.5002   24.9618   46.0830 H   0  0  0  0  0  0  0  0  0  0  0  0
   57.7700   23.2779   45.4610 H   0  0  0  0  0  0  0  0  0  0  0  0
   55.3586   23.9212   45.4026 H   0  0  0  0  0  0  0  0  0  0  0  0
   56.4010   27.9421   46.6157 H   0  0  0  0  0  0  0  0  0  0  0  0
   58.6599   31.1096   47.7314 H   0  0  0  0  0  0  0  0  0  0  0  0
   60.1850   31.1662   46.7840 H   0  0  0  0  0  0  0  0  0  0  0  0
   59.0748   32.5783   46.7840 H   0  0  0  0  0  0  0  0  0  0  0  0
  1  2  1  0
  2  3  2  0
  3  4  1  0
  4  5  2  0
  5  6  1  0
  6  7  1  0
  7  8  2  0
  7  9  1  0
  9 10  1  0
 10 11  2  0
 11 12  1  0
 12 13  2  0
 13 14  1  0
 14 15  1  0
 14 16  2  0
  6 17  2  0
 17 18  1  0
 17  2  1  0
 16 10  1  0
  1 19  1  0
  1 20  1  0
  1 21  1  0
  3 22  1  0
  4 23  1  0
  5 24  1  0
 11 25  1  0
 12 26  1  0
 13 27  1  0
 16 28  1  0
 18 29  1  0
 18 30  1  0
 18 31  1  0
M  CHG  2   9  -1  15  -1
M  END
>  <UniqueID>  (56) 
47

>  <SMILES>  (56) 
Cc1cccc(C(=O)[N-]c2cccc([O-])c2)c1C

>  <Energy>  (56) 
42.392509792572106

>  <Genealogy>  (56) 
Cc1cccc(C(=O)[N-]c2cccc([O-])c2)c1C (protonated)
Cc1cccc(C(=O)[N-]c2cccc([O-])c2)c1C (3D coordinates assigned)
Cc1cccc(C(=O)[N-]c2cccc([O-])c2)c1C (optimized conformer: 42.392509792572106 kcal/mol)

>  <smiles>  (56) 
Cc1cccc(C(=O)Nc2cccc(O)c2)c1C

>  <score_type>  (56) 
oracle

>  <origin>  (56) 
adg

>  <m_score__min__energy>  (56) 
-12.119999999999999

>  <m_primary>  (56) 
energy

$$$$
56:0
     RDKit          3D

 63 64  0  0  0  0  0  0  0  0999 V2000
   61.2910   31.7540   52.1800 N   0  0  0  0  0  0  0  0  0  0  0  0
   60.6960   30.5320   52.6080 C   0  0  0  0  0  0  0  0  0  0  0  0
   60.4980   30.3300   53.8370 O   0  0  0  0  0  0  0  0  0  0  0  0
   60.3490   29.4750   51.5910 C   0  0  1  0  0  0  0  0  0  0  0  0
   58.8140   29.3380   51.4520 C   0  0  0  0  0  0  0  0  0  0  0  0
   58.0260   30.6390   51.7410 C   0  0  0  0  0  0  0  0  0  0  0  0
   58.0220   31.6300   50.5610 C   0  0  0  0  0  0  0  0  0  0  0  0
   59.2900   32.3470   50.4370 N   0  0  0  0  0  0  0  0  0  0  0  0
   60.9750   29.7750   50.2890 N   0  0  0  0  0  0  0  0  0  0  0  0
   60.5120   28.8630   49.2320 C   0  0  0  0  0  0  0  0  0  0  0  0
   59.6100   29.6260   48.2490 C   0  0  2  0  0  0  0  0  0  0  0  0
   59.6820   28.9540   46.8540 C   0  0  0  0  0  0  0  0  0  0  0  0
   58.6690   29.5080   45.8850 C   0  0  0  0  0  0  0  0  0  0  0  0
   59.0180   30.5600   45.0200 C   0  0  0  0  0  0  0  0  0  0  0  0
   58.0830   31.0630   44.1100 C   0  0  0  0  0  0  0  0  0  0  0  0
   56.7940   30.5280   44.0620 C   0  0  0  0  0  0  0  0  0  0  0  0
   56.4350   29.4890   44.9250 C   0  0  0  0  0  0  0  0  0  0  0  0
   55.1520   28.9580   44.8770 O   0  0  0  0  0  0  0  0  0  0  0  0
   57.3670   28.9800   45.8370 C   0  0  0  0  0  0  0  0  0  0  0  0
   60.0500   31.0360   48.2180 N   0  0  0  0  0  0  0  0  0  0  0  0
   61.3400   31.2500   47.5410 C   0  0  0  0  0  0  0  0  0  0  0  0
   62.0760   32.4650   48.1370 C   0  0  2  0  0  0  0  0  0  0  0  0
   61.6200   32.7020   49.5100 N   0  0  0  0  0  0  0  0  0  0  0  0
   61.9130   33.7400   47.2750 C   0  0  0  0  0  0  0  0  0  0  0  0
   60.5070   33.8870   46.7480 C   0  0  0  0  0  0  0  0  0  0  0  0
   60.2810   34.0060   45.3670 C   0  0  0  0  0  0  0  0  0  0  0  0
   58.9780   34.1220   44.8730 C   0  0  0  0  0  0  0  0  0  0  0  0
   57.8910   34.1120   45.7530 C   0  0  0  0  0  0  0  0  0  0  0  0
   56.5970   34.2250   45.2600 O   0  0  0  0  0  0  0  0  0  0  0  0
   58.1080   33.9860   47.1280 C   0  0  0  0  0  0  0  0  0  0  0  0
   59.4090   33.8700   47.6250 C   0  0  0  0  0  0  0  0  0  0  0  0
   61.3200   32.0100   51.1680 H   0  0  0  0  0  0  0  0  0  0  0  0
   60.7474   28.5117   51.9422 H   0  0  0  0  0  0  0  0  0  0  0  0
   58.5889   29.0210   50.4230 H   0  0  0  0  0  0  0  0  0  0  0  0
   58.4951   28.6041   52.2068 H   0  0  0  0  0  0  0  0  0  0  0  0
   56.9849   30.3710   51.9742 H   0  0  0  0  0  0  0  0  0  0  0  0
   58.5263   31.1401   52.5828 H   0  0  0  0  0  0  0  0  0  0  0  0
   57.8380   31.0724   49.6308 H   0  0  0  0  0  0  0  0  0  0  0  0
   57.2314   32.3721   50.7462 H   0  0  0  0  0  0  0  0  0  0  0  0
   59.4190   32.6630   49.4500 H   0  0  0  0  0  0  0  0  0  0  0  0
   60.0750   31.6940   50.6680 H   0  0  0  0  0  0  0  0  0  0  0  0
   60.7000   30.7430   49.9980 H   0  0  0  0  0  0  0  0  0  0  0  0
   61.3806   28.4577   48.6923 H   0  0  0  0  0  0  0  0  0  0  0  0
   59.9418   28.0388   49.6855 H   0  0  0  0  0  0  0  0  0  0  0  0
   58.5573   29.5984   48.5670 H   0  0  0  0  0  0  0  0  0  0  0  0
   60.6883   29.1126   46.4391 H   0  0  0  0  0  0  0  0  0  0  0  0
   59.4600   27.8852   46.9897 H   0  0  0  0  0  0  0  0  0  0  0  0
   60.0302   30.9889   45.0592 H   0  0  0  0  0  0  0  0  0  0  0  0
   58.3633   31.8816   43.4308 H   0  0  0  0  0  0  0  0  0  0  0  0
   56.0607   30.9246   43.3444 H   0  0  0  0  0  0  0  0  0  0  0  0
   57.0799   28.1650   46.5177 H   0  0  0  0  0  0  0  0  0  0  0  0
   60.0980   31.4230   49.1910 H   0  0  0  0  0  0  0  0  0  0  0  0
   61.9652   30.3534   47.6647 H   0  0  0  0  0  0  0  0  0  0  0  0
   61.1508   31.4409   46.4743 H   0  0  0  0  0  0  0  0  0  0  0  0
   63.1503   32.2286   48.1458 H   0  0  0  0  0  0  0  0  0  0  0  0
   61.3250   31.7960   49.9430 H   0  0  0  0  0  0  0  0  0  0  0  0
   60.7730   33.3160   49.4770 H   0  0  0  0  0  0  0  0  0  0  0  0
   62.1558   34.6188   47.8905 H   0  0  0  0  0  0  0  0  0  0  0  0
   62.5929   33.6586   46.4141 H   0  0  0  0  0  0  0  0  0  0  0  0
   61.1327   34.0080   44.6709 H   0  0  0  0  0  0  0  0  0  0  0  0
   58.8077   34.2213   43.7908 H   0  0  0  0  0  0  0  0  0  0  0  0
   57.2532   33.9781   47.8202 H   0  0  0  0  0  0  0  0  0  0  0  0
   59.5743   33.7649   48.7074 H   0  0  0  0  0  0  0  0  0  0  0  0
  1  2  1  0
  2  3  2  0
  2  4  1  0
  4  5  1  0
  5  6  1  0
  6  7  1  0
  7  8  1  0
  4  9  1  0
  9 10  1  0
 10 11  1  0
 11 12  1  0
 12 13  1  0
 13 14  2  0
 14 15  1  0
 15 16  2  0
 16 17  1  0
 17 18  1  0
 17 19  2  0
 11 20  1  0
 20 21  1  0
 21 22  1  0
 22 23  1  0
 22 24  1  0
 24 25  1  0
 25 26  2  0
 26 27  1  0
 27 28  2  0
 28 29  1  0
 28 30  1  0
 30 31  2  0
 19 13  1  0
 31 25  1  0
  1 32  1  0
  4 33  1  1
  5 34  1  0
  5 35  1  0
  6 36  1  0
  6 37  1  0
  7 38  1  0
  7 39  1  0
  8 40  1  0
  8 41  1  0
  9 42  1  0
 10 43  1  0
 10 44  1  0
 11 45  1  1
 12 46  1  0
 12 47  1  0
 14 48  1  0
 15 49  1  0
 16 50  1  0
 19 51  1  0
 20 52  1  0
 21 53  1  0
 21 54  1  0
 22 55  1  1
 23 56  1  0
 23 57  1  0
 24 58  1  0
 24 59  1  0
 26 60  1  0
 27 61  1  0
 30 62  1  0
 31 63  1  0
M  CHG  3   1  -1  18  -1  29  -1
M  END
>  <UniqueID>  (57) 
48

>  <SMILES>  (57) 
[NH-]C(=O)[C@@H](CCCN)NC[C@H](Cc1cccc([O-])c1)NCC(N)Cc1ccc([O-])cc1

>  <Energy>  (57) 
52.09500737530843

>  <Genealogy>  (57) 
[NH-]C(=O)C(CCCN)NCC(Cc1cccc([O-])c1)NCC(N)Cc1ccc([O-])cc1 (protonated)
[NH-]C(=O)[C@@H](CCCN)NC[C@H](Cc1cccc([O-])c1)NCC(N)Cc1ccc([O-])cc1 (chirality)
[NH-]C(=O)[C@@H](CCCN)NC[C@H](Cc1cccc([O-])c1)NCC(N)Cc1ccc([O-])cc1 (3D coordinates assigned)
[NH-]C(=O)[C@@H](CCCN)NC[C@H](Cc1cccc([O-])c1)NCC(N)Cc1ccc([O-])cc1 (optimized conformer: 52.09500737530843 kcal/mol)

>  <smiles>  (57) 
NCCCC(NCC(Cc1cccc(O)c1)NCC(N)Cc1ccc(O)cc1)C(N)=O

>  <score_type>  (57) 
oracle

>  <origin>  (57) 
adg

>  <m_score__min__energy>  (57) 
-12.800000000000001

>  <m_primary>  (57) 
energy

$$$$
57:0
     RDKit          3D

 36 38  0  0  1  0  0  0  0  0999 V2000
   56.3360   30.5680   44.5740 O   0  0  0  0  0  0  0  0  0  0  0  0
   57.3950   30.7780   45.2240 C   0  0  0  0  0  0  0  0  0  0  0  0
   58.1510   29.7090   45.8150 N   0  0  0  0  0  0  0  0  0  0  0  0
   57.6540   28.5220   45.9240 C   0  0  0  0  0  0  0  0  0  0  0  0
   58.0060   27.6180   46.8520 N   0  0  0  0  0  0  0  0  0  0  0  0
   57.2830   26.4740   46.6770 C   0  0  0  0  0  0  0  0  0  0  0  0
   56.4860   26.7150   45.6200 N   0  0  0  0  0  0  0  0  0  0  0  0
   56.7040   27.9550   45.1580 N   0  0  0  0  0  0  0  0  0  0  0  0
   57.9240   32.1460   45.4150 C   0  0  0  0  0  0  0  0  0  0  0  0
   58.0800   32.9670   44.3230 C   0  0  0  0  0  0  0  0  0  0  0  0
   58.5740   34.2300   44.5300 C   0  0  0  0  0  0  0  0  0  0  0  0
   58.9020   34.6480   45.8140 C   0  0  0  0  0  0  0  0  0  0  0  0
   58.7640   33.8650   46.9290 C   0  0  0  0  0  0  0  0  0  0  0  0
   59.0380   34.1440   48.2040 O   0  0  0  0  0  0  0  0  0  0  0  0
   60.0590   33.7940   49.0340 C   0  0  0  0  0  0  0  0  0  0  0  0
   61.2660   33.2260   48.4060 C   0  0  0  0  0  0  0  0  0  0  0  0
   62.4240   33.8730   48.1070 C   0  0  0  0  0  0  0  0  0  0  0  0
   63.5220   33.2690   47.5290 C   0  0  0  0  0  0  0  0  0  0  0  0
   63.4720   31.9320   47.2220 C   0  0  0  0  0  0  0  0  0  0  0  0
   62.3020   31.2210   47.5090 C   0  0  0  0  0  0  0  0  0  0  0  0
   61.2140   31.8610   48.0940 C   0  0  0  0  0  0  0  0  0  0  0  0
   58.2510   32.5680   46.6750 C   0  0  0  0  0  0  0  0  0  0  0  0
   57.3397   25.5513   47.2731 H   0  0  0  0  0  0  0  0  0  0  0  0
   55.8010   26.0050   45.2390 H   0  0  0  0  0  0  0  0  0  0  0  0
   56.2230   28.4130   44.3400 H   0  0  0  0  0  0  0  0  0  0  0  0
   57.8163   32.6211   43.3127 H   0  0  0  0  0  0  0  0  0  0  0  0
   58.7106   34.9127   43.6784 H   0  0  0  0  0  0  0  0  0  0  0  0
   59.2954   35.6672   45.9423 H   0  0  0  0  0  0  0  0  0  0  0  0
   60.3642   34.6965   49.5839 H   0  0  0  0  0  0  0  0  0  0  0  0
   59.6544   32.9850   49.6600 H   0  0  0  0  0  0  0  0  0  0  0  0
   62.4898   34.9459   48.3407 H   0  0  0  0  0  0  0  0  0  0  0  0
   64.4291   33.8537   47.3162 H   0  0  0  0  0  0  0  0  0  0  0  0
   64.3346   31.4298   46.7596 H   0  0  0  0  0  0  0  0  0  0  0  0
   62.2418   30.1488   47.2706 H   0  0  0  0  0  0  0  0  0  0  0  0
   60.3012   31.2881   48.3144 H   0  0  0  0  0  0  0  0  0  0  0  0
   58.1110   31.8773   47.5196 H   0  0  0  0  0  0  0  0  0  0  0  0
  1  2  2  0
  2  3  1  0
  3  4  2  0
  4  5  1  0
  5  6  2  0
  6  7  1  0
  7  8  1  0
  2  9  1  0
  9 10  2  0
 10 11  1  0
 11 12  2  0
 12 13  1  0
 13 14  1  0
 14 15  1  0
 15 16  1  0
 16 17  2  0
 17 18  1  0
 18 19  2  0
 19 20  1  0
 20 21  2  0
 13 22  2  0
  8  4  1  0
 22  9  1  0
 21 16  1  0
  6 23  1  0
  7 24  1  0
  8 25  1  0
 10 26  1  0
 11 27  1  0
 12 28  1  0
 15 29  1  0
 15 30  1  0
 17 31  1  0
 18 32  1  0
 19 33  1  0
 20 34  1  0
 21 35  1  0
 22 36  1  0
M  END
>  <smiles>  (58) 
O=C(N=c1nc[nH][nH]1)c1cccc(OCc2ccccc2)c1

>  <score_type>  (58) 
oracle

>  <origin>  (58) 
adg

>  <m_score__min__energy>  (58) 
-8.4199999999999999

>  <m_primary>  (58) 
energy

$$$$
58:0
     RDKit          3D

 44 47  0  0  0  0  0  0  0  0999 V2000
   56.6230   34.5970   45.2490 N   0  0  0  0  0  0  0  0  0  0  0  0
   56.1110   24.1850   45.5600 C   0  0  0  0  0  0  0  0  0  0  0  0
   57.4170   32.4500   44.9610 N   0  0  0  0  0  0  0  0  0  0  0  0
   58.3280   31.4880   45.1860 C   0  0  0  0  0  0  0  0  0  0  0  0
   58.1320   30.1830   44.5780 C   0  0  0  0  0  0  0  0  0  0  0  0
   58.9290   29.1490   45.0250 C   0  0  0  0  0  0  0  0  0  0  0  0
   58.7990   27.8820   44.4930 C   0  0  0  0  0  0  0  0  0  0  0  0
   57.8710   27.5860   43.4950 C   0  0  0  0  0  0  0  0  0  0  0  0
   57.7820   26.2620   43.0200 N   0  0  0  0  0  0  0  0  0  0  0  0
   59.5570   33.0730   46.5590 C   0  0  0  0  0  0  0  0  0  0  0  0
   56.7410   25.2260   44.9420 C   0  0  0  0  0  0  0  0  0  0  0  0
   56.1920   23.0030   43.6000 C   0  0  0  0  0  0  0  0  0  0  0  0
   55.7990   24.3080   46.7800 O   0  0  0  0  0  0  0  0  0  0  0  0
   58.5980   33.9700   46.2780 N   0  0  0  0  0  0  0  0  0  0  0  0
   57.5300   33.6820   45.4900 C   0  0  0  0  0  0  0  0  0  0  0  0
   55.9140   21.9220   42.9830 O   0  0  0  0  0  0  0  0  0  0  0  0
   55.8320   23.0590   44.8860 N   0  0  0  0  0  0  0  0  0  0  0  0
   57.0900   28.6340   43.0700 C   0  0  0  0  0  0  0  0  0  0  0  0
   57.2050   29.9220   43.5940 C   0  0  0  0  0  0  0  0  0  0  0  0
   59.3990   31.8140   45.9920 C   0  0  0  0  0  0  0  0  0  0  0  0
   57.1230   25.1820   43.5980 C   0  0  0  0  0  0  0  0  0  0  0  0
   60.6920   33.4080   47.4080 C   0  0  0  0  0  0  0  0  0  0  0  0
   61.9830   33.3150   46.9420 C   0  0  0  0  0  0  0  0  0  0  0  0
   63.0750   33.6370   47.7600 C   0  0  0  0  0  0  0  0  0  0  0  0
   62.9070   34.0610   49.0610 C   0  0  0  0  0  0  0  0  0  0  0  0
   61.6180   34.1540   49.5250 C   0  0  0  0  0  0  0  0  0  0  0  0
   60.5340   33.8330   48.7110 C   0  0  0  0  0  0  0  0  0  0  0  0
   56.8170   24.0240   42.9680 N   0  0  0  0  0  0  0  0  0  0  0  0
   55.8980   34.7860   45.9550 H   0  0  0  0  0  0  0  0  0  0  0  0
   59.6743   29.3361   45.8121 H   0  0  0  0  0  0  0  0  0  0  0  0
   59.4494   27.0785   44.8690 H   0  0  0  0  0  0  0  0  0  0  0  0
   58.2900   26.0790   42.0980 H   0  0  0  0  0  0  0  0  0  0  0  0
   56.9564   26.1344   45.5237 H   0  0  0  0  0  0  0  0  0  0  0  0
   58.6090   34.9510   46.6490 H   0  0  0  0  0  0  0  0  0  0  0  0
   55.3470   22.2660   45.3740 H   0  0  0  0  0  0  0  0  0  0  0  0
   56.3430   28.4496   42.2839 H   0  0  0  0  0  0  0  0  0  0  0  0
   56.5558   30.7280   43.2214 H   0  0  0  0  0  0  0  0  0  0  0  0
   60.1596   31.0455   46.1944 H   0  0  0  0  0  0  0  0  0  0  0  0
   62.1617   32.9820   45.9090 H   0  0  0  0  0  0  0  0  0  0  0  0
   64.0931   33.5490   47.3529 H   0  0  0  0  0  0  0  0  0  0  0  0
   63.7670   34.3135   49.6987 H   0  0  0  0  0  0  0  0  0  0  0  0
   61.4382   34.4878   50.5576 H   0  0  0  0  0  0  0  0  0  0  0  0
   59.5172   33.9214   49.1212 H   0  0  0  0  0  0  0  0  0  0  0  0
   57.0670   23.8780   41.9750 H   0  0  0  0  0  0  0  0  0  0  0  0
  1  2  2  3
  2  3  1  0
  3  4  2  0
  4  5  1  0
  5  6  2  0
  6  7  1  0
  7  8  2  0
  8  9  1  0
  9 10  1  0
 10 11  2  0
 11 12  1  0
 12 13  2  0
 12 14  1  0
 14 15  1  0
 15 16  2  0
 15 17  1  0
  8 18  1  0
 18 19  2  0
  4 20  1  0
 20 21  2  0
 21 22  1  0
 22 23  2  0
 23 24  1  0
 24 25  2  0
 25 26  1  0
 26 27  2  0
 21 28  1  0
 28  2  1  0
 19  5  1  0
 27 22  1  0
 17 10  1  0
  1 29  1  0
  6 30  1  0
  7 31  1  0
  9 32  1  0
 11 33  1  0
 14 34  1  0
 17 35  1  0
 18 36  1  0
 19 37  1  0
 20 38  1  0
 23 39  1  0
 24 40  1  0
 25 41  1  0
 26 42  1  0
 27 43  1  0
 28 44  1  0
M  END
>  <smiles>  (59) 
N=c1nc(-c2ccc(Nc3cc(=O)[nH]c(=O)[nH]3)cc2)cc(-c2ccccc2)[nH]1

>  <score_type>  (59) 
oracle

>  <origin>  (59) 
adg

>  <m_score__min__energy>  (59) 
-8.8100000000000005

>  <m_primary>  (59) 
energy

$$$$
59:0
     RDKit          3D

 37 39  0  0  0  0  0  0  0  0999 V2000
   57.4190   33.3800   45.2430 O   0  0  0  0  0  0  0  0  0  0  0  0
   58.0050   32.3700   45.7180 C   0  0  0  0  0  0  0  0  0  0  0  0
   57.6380   31.0210   45.2680 C   0  0  0  0  0  0  0  0  0  0  0  0
   56.6420   30.8580   44.5110 O   0  0  0  0  0  0  0  0  0  0  0  0
   58.4150   29.8950   45.7230 N   0  0  0  0  0  0  0  0  0  0  0  0
   58.1310   28.5670   45.2490 C   0  0  0  0  0  0  0  0  0  0  0  0
   57.5800   27.6110   46.1180 C   0  0  0  0  0  0  0  0  0  0  0  0
   57.3120   26.3160   45.6620 C   0  0  0  0  0  0  0  0  0  0  0  0
   57.5960   25.9660   44.3390 C   0  0  0  0  0  0  0  0  0  0  0  0
   57.3370   24.7110   43.8990 F   0  0  0  0  0  0  0  0  0  0  0  0
   58.1500   26.9110   43.4690 C   0  0  0  0  0  0  0  0  0  0  0  0
   58.4180   28.2070   43.9210 C   0  0  0  0  0  0  0  0  0  0  0  0
   59.6420   30.1320   46.4990 C   0  0  0  0  0  0  0  0  0  0  0  0
   59.4680   31.3250   47.4470 C   0  0  0  0  0  0  0  0  0  0  0  0
   59.0490   32.5150   46.6960 N   0  0  0  0  0  0  0  0  0  0  0  0
   59.7010   33.8110   46.9170 C   0  0  0  0  0  0  0  0  0  0  0  0
   61.0110   33.6150   47.6350 C   0  0  0  0  0  0  0  0  0  0  0  0
   62.1530   33.2430   46.9060 C   0  0  0  0  0  0  0  0  0  0  0  0
   63.3840   33.0870   47.5490 C   0  0  0  0  0  0  0  0  0  0  0  0
   63.4870   33.3050   48.9260 C   0  0  0  0  0  0  0  0  0  0  0  0
   65.1710   33.0920   49.8020 Br  0  0  0  0  0  0  0  0  0  0  0  0
   62.3580   33.6780   49.6590 C   0  0  0  0  0  0  0  0  0  0  0  0
   61.1230   33.8370   49.0210 C   0  0  0  0  0  0  0  0  0  0  0  0
   60.0440   34.2040   49.7570 F   0  0  0  0  0  0  0  0  0  0  0  0
   57.3584   27.8816   47.1609 H   0  0  0  0  0  0  0  0  0  0  0  0
   56.8771   25.5720   46.3457 H   0  0  0  0  0  0  0  0  0  0  0  0
   58.3750   26.6344   42.4284 H   0  0  0  0  0  0  0  0  0  0  0  0
   58.8550   28.9473   43.2347 H   0  0  0  0  0  0  0  0  0  0  0  0
   59.8738   29.2334   47.0896 H   0  0  0  0  0  0  0  0  0  0  0  0
   60.4621   30.3547   45.8006 H   0  0  0  0  0  0  0  0  0  0  0  0
   58.7028   31.0824   48.1991 H   0  0  0  0  0  0  0  0  0  0  0  0
   60.4287   31.5331   47.9408 H   0  0  0  0  0  0  0  0  0  0  0  0
   59.8866   34.2952   45.9469 H   0  0  0  0  0  0  0  0  0  0  0  0
   59.0445   34.4445   47.5316 H   0  0  0  0  0  0  0  0  0  0  0  0
   62.0777   33.0734   45.8218 H   0  0  0  0  0  0  0  0  0  0  0  0
   64.2725   32.7925   46.9712 H   0  0  0  0  0  0  0  0  0  0  0  0
   62.4402   33.8475   50.7427 H   0  0  0  0  0  0  0  0  0  0  0  0
  1  2  2  0
  2  3  1  0
  3  4  2  0
  3  5  1  0
  5  6  1  0
  6  7  2  0
  7  8  1  0
  8  9  2  0
  9 10  1  0
  9 11  1  0
 11 12  2  0
  5 13  1  0
 13 14  1  0
 14 15  1  0
 15 16  1  0
 16 17  1  0
 17 18  2  0
 18 19  1  0
 19 20  2  0
 20 21  1  0
 20 22  1  0
 22 23  2  0
 23 24  1  0
 15  2  1  0
 23 17  1  0
 12  6  1  0
  7 25  1  0
  8 26  1  0
 11 27  1  0
 12 28  1  0
 13 29  1  0
 13 30  1  0
 14 31  1  0
 14 32  1  0
 16 33  1  0
 16 34  1  0
 18 35  1  0
 19 36  1  0
 22 37  1  0
M  END
>  <UniqueID>  (60) 
49

>  <SMILES>  (60) 
O=C1C(=O)N(c2ccc(F)cc2)CCN1Cc1ccc(Br)cc1F

>  <Energy>  (60) 
42.71073526709759

>  <Genealogy>  (60) 
O=C1C(=O)N(c2ccc(F)cc2)CCN1Cc1ccc(Br)cc1F (3D coordinates assigned)
O=C1C(=O)N(c2ccc(F)cc2)CCN1Cc1ccc(Br)cc1F (nonaromatic ring conformer: 42.71073526709759 kcal/mol)

>  <smiles>  (60) 
O=C1C(=O)N(c2ccc(F)cc2)CCN1Cc1ccc(Br)cc1F

>  <score_type>  (60) 
oracle

>  <origin>  (60) 
adg

>  <m_score__min__energy>  (60) 
-8.0299999999999994

>  <m_primary>  (60) 
energy

$$$$
60:0
     RDKit          3D

 43 45  0  0  0  0  0  0  0  0999 V2000
   54.3380   26.7790   45.9880 H   0  0  0  0  0  0  0  0  0  0  0  0
   55.2570   26.3620   46.0740 O   0  0  0  0  0  0  0  0  0  0  0  0
   56.4210   27.0760   45.7960 C   0  0  0  0  0  0  0  0  0  0  0  0
   57.6630   26.4940   46.0770 C   0  0  0  0  0  0  0  0  0  0  0  0
   57.7084   25.4748   46.4884 H   0  0  0  0  0  0  0  0  0  0  0  0
   58.8510   27.2030   45.8370 C   0  0  0  0  0  0  0  0  0  0  0  0
   60.1610   26.6030   46.1400 C   0  0  0  0  0  0  0  0  0  0  0  0
   60.6401   26.0074   45.3490 H   0  0  0  0  0  0  0  0  0  0  0  0
   60.8180   26.7250   47.3060 C   0  0  0  0  0  0  0  0  0  0  0  0
   61.7878   26.2119   47.3847 H   0  0  0  0  0  0  0  0  0  0  0  0
   60.3650   27.4820   48.4950 C   0  0  0  0  0  0  0  0  0  0  0  0
   60.8220   27.1630   49.6240 O   0  0  0  0  0  0  0  0  0  0  0  0
   59.3500   28.4850   48.4070 N   0  0  0  0  0  0  0  0  0  0  0  0
   59.2300   29.5990   49.0720 C   0  0  0  0  0  0  0  0  0  0  0  0
   58.5120   29.6900   50.2430 C   0  0  0  0  0  0  0  0  0  0  0  0
   57.9895   28.8853   50.7810 H   0  0  0  0  0  0  0  0  0  0  0  0
   58.5990   31.0230   50.5860 C   0  0  0  0  0  0  0  0  0  0  0  0
   57.9960   31.6520   51.8010 C   0  0  0  0  0  0  0  0  0  0  0  0
   58.4290   32.9590   51.9070 F   0  0  0  0  0  0  0  0  0  0  0  0
   58.3820   30.9500   52.9280 F   0  0  0  0  0  0  0  0  0  0  0  0
   56.6150   31.6370   51.7120 F   0  0  0  0  0  0  0  0  0  0  0  0
   59.3150   31.6920   49.6600 N   0  0  0  0  0  0  0  0  0  0  0  0
   59.7020   30.8300   48.7320 N   0  0  0  0  0  0  0  0  0  0  0  0
   60.3640   31.2870   47.5050 C   0  0  0  0  0  0  0  0  0  0  0  0
   61.3230   31.7562   47.7700 H   0  0  0  0  0  0  0  0  0  0  0  0
   60.5208   30.4151   46.8529 H   0  0  0  0  0  0  0  0  0  0  0  0
   59.5180   32.2890   46.7590 C   0  0  0  0  0  0  0  0  0  0  0  0
   60.0470   33.5380   46.3870 C   0  0  0  0  0  0  0  0  0  0  0  0
   61.0748   33.8046   46.6743 H   0  0  0  0  0  0  0  0  0  0  0  0
   59.2730   34.4420   45.6540 C   0  0  0  0  0  0  0  0  0  0  0  0
   59.6914   35.4188   45.3696 H   0  0  0  0  0  0  0  0  0  0  0  0
   57.9690   34.1070   45.2820 C   0  0  0  0  0  0  0  0  0  0  0  0
   57.3562   34.8253   44.7176 H   0  0  0  0  0  0  0  0  0  0  0  0
   57.4430   32.8590   45.6270 C   0  0  0  0  0  0  0  0  0  0  0  0
   56.4179   32.5935   45.3292 H   0  0  0  0  0  0  0  0  0  0  0  0
   58.2180   31.9480   46.3500 C   0  0  0  0  0  0  0  0  0  0  0  0
   57.8078   30.9585   46.6002 H   0  0  0  0  0  0  0  0  0  0  0  0
   58.7900   28.4730   45.2480 C   0  0  0  0  0  0  0  0  0  0  0  0
   59.7185   29.0121   45.0087 H   0  0  0  0  0  0  0  0  0  0  0  0
   57.5530   29.0560   44.9640 C   0  0  0  0  0  0  0  0  0  0  0  0
   57.5107   30.0617   44.5204 H   0  0  0  0  0  0  0  0  0  0  0  0
   56.3680   28.3670   45.2410 C   0  0  0  0  0  0  0  0  0  0  0  0
   55.1460   28.9650   44.9620 O   0  0  0  0  0  0  0  0  0  0  0  0
  1  2  1  0
  2  3  1  0
  3  4  2  0
  4  5  1  0
  4  6  1  0
  6  7  1  0
  7  8  1  0
  7  9  2  0
  9 10  1  0
  9 11  1  0
 11 12  2  0
 11 13  1  0
 13 14  2  0
 14 15  1  0
 15 16  1  0
 15 17  2  0
 17 18  1  0
 18 19  1  0
 18 20  1  0
 18 21  1  0
 17 22  1  0
 22 23  1  0
 23 24  1  0
 24 25  1  0
 24 26  1  0
 24 27  1  0
 27 28  2  0
 28 29  1  0
 28 30  1  0
 30 31  1  0
 30 32  2  0
 32 33  1  0
 32 34  1  0
 34 35  1  0
 34 36  2  0
 36 37  1  0
  6 38  2  0
 38 39  1  0
 38 40  1  0
 40 41  1  0
 40 42  2  0
 42 43  1  0
 42  3  1  0
 23 14  1  0
 36 27  1  0
M  CHG  2  22  -1  43  -1
M  END
>  <UniqueID>  (61) 
50

>  <SMILES>  (61) 
O=C(/C=C\c1ccc([O-])c(O)c1)/N=c1/cc(C(F)(F)F)[n-]n1Cc1ccccc1

>  <Energy>  (61) 
92.14974039430352

>  <Genealogy>  (61) 
O=C(C=Cc1ccc([O-])c(O)c1)N=c1cc(C(F)(F)F)[n-]n1Cc1ccccc1 (protonated)
O=C(/C=C\c1ccc([O-])c(O)c1)/N=c1/cc(C(F)(F)F)[n-]n1Cc1ccccc1 (cis-trans isomerization)
O=C(/C=C\c1ccc([O-])c(O)c1)/N=c1/cc(C(F)(F)F)[n-]n1Cc1ccccc1 (3D coordinates assigned)
O=C(/C=C\c1ccc([O-])c(O)c1)/N=c1/cc(C(F)(F)F)[n-]n1Cc1ccccc1 (optimized conformer: 92.14974039430352 kcal/mol)

>  <smiles>  (61) 
O=C(C=Cc1ccc(O)c(O)c1)N=c1cc(C(F)(F)F)[nH]n1Cc1ccccc1

>  <score_type>  (61) 
oracle

>  <origin>  (61) 
adg

>  <m_score__min__energy>  (61) 
-13.300000000000001

>  <m_primary>  (61) 
energy

$$$$
61:0
     RDKit          3D

 49 51  0  0  0  0  0  0  0  0999 V2000
   60.2890   25.6910   46.3570 C   0  0  0  0  0  0  0  0  0  0  0  0
   58.5490   25.2370   46.0850 S   0  0  0  0  0  0  0  0  0  0  0  0
   58.0860   26.8880   45.5300 C   0  0  0  0  0  0  0  0  0  0  0  0
   59.0790   27.7170   45.1200 N   0  0  0  0  0  0  0  0  0  0  0  0
   58.8190   28.9580   44.6480 C   0  0  0  0  0  0  0  0  0  0  0  0
   59.7790   29.7030   44.3140 O   0  0  0  0  0  0  0  0  0  0  0  0
   57.4940   29.4000   44.5480 C   0  0  0  0  0  0  0  0  0  0  0  0
   57.1550   30.7400   44.0130 C   0  0  0  0  0  0  0  0  0  0  0  0
   56.9220   31.7830   44.7580 N   0  0  0  0  0  0  0  0  0  0  0  0
   57.6910   32.2370   45.8850 C   0  0  0  0  0  0  0  0  0  0  0  0
   58.1390   31.3490   46.8780 C   0  0  0  0  0  0  0  0  0  0  0  0
   58.9040   31.8190   47.9500 C   0  0  0  0  0  0  0  0  0  0  0  0
   59.2460   33.1750   48.0310 C   0  0  0  0  0  0  0  0  0  0  0  0
   60.2210   33.7480   49.3800 S   0  0  0  0  0  0  0  0  0  0  0  0
   61.0420   34.9340   48.9580 O   0  0  0  0  0  0  0  0  0  0  0  0
   59.3040   34.1520   50.5010 O   0  0  0  0  0  0  0  0  0  0  0  0
   61.2680   32.4670   49.9000 N   0  0  0  0  0  0  0  0  0  0  0  0
   62.6980   32.6110   50.0100 C   0  0  0  0  0  0  0  0  0  0  0  0
   63.3240   32.5650   51.2700 C   0  0  0  0  0  0  0  0  0  0  0  0
   64.7060   32.7260   51.3860 C   0  0  0  0  0  0  0  0  0  0  0  0
   65.4830   32.9400   50.2490 C   0  0  0  0  0  0  0  0  0  0  0  0
   64.8820   32.9930   48.9920 C   0  0  0  0  0  0  0  0  0  0  0  0
   63.4920   32.8260   48.8560 C   0  0  0  0  0  0  0  0  0  0  0  0
   62.8790   32.8800   47.4830 C   0  0  0  0  0  0  0  0  0  0  0  0
   58.8360   34.0540   47.0190 C   0  0  0  0  0  0  0  0  0  0  0  0
   58.0700   33.5830   45.9470 C   0  0  0  0  0  0  0  0  0  0  0  0
   56.4770   28.5520   45.0090 C   0  0  0  0  0  0  0  0  0  0  0  0
   55.1520   28.9800   44.9320 O   0  0  0  0  0  0  0  0  0  0  0  0
   56.7800   27.3120   45.5130 N   0  0  0  0  0  0  0  0  0  0  0  0
   55.7050   26.4200   45.9790 C   0  0  0  0  0  0  0  0  0  0  0  0
   60.4897   25.7434   47.4373 H   0  0  0  0  0  0  0  0  0  0  0  0
   60.9416   24.9331   45.8991 H   0  0  0  0  0  0  0  0  0  0  0  0
   60.4881   26.6712   45.8991 H   0  0  0  0  0  0  0  0  0  0  0  0
   57.0966   30.8611   42.9212 H   0  0  0  0  0  0  0  0  0  0  0  0
   57.8869   30.2803   46.8116 H   0  0  0  0  0  0  0  0  0  0  0  0
   59.2383   31.1216   48.7322 H   0  0  0  0  0  0  0  0  0  0  0  0
   60.8040   31.5870   50.2120 H   0  0  0  0  0  0  0  0  0  0  0  0
   62.7178   32.4004   52.1730 H   0  0  0  0  0  0  0  0  0  0  0  0
   65.1824   32.6839   52.3766 H   0  0  0  0  0  0  0  0  0  0  0  0
   66.5715   33.0672   50.3434 H   0  0  0  0  0  0  0  0  0  0  0  0
   65.5002   33.1669   48.0989 H   0  0  0  0  0  0  0  0  0  0  0  0
   61.7869   32.9762   47.5726 H   0  0  0  0  0  0  0  0  0  0  0  0
   63.2798   33.7463   46.9363 H   0  0  0  0  0  0  0  0  0  0  0  0
   63.1222   31.9570   46.9363 H   0  0  0  0  0  0  0  0  0  0  0  0
   59.1171   35.1164   47.0677 H   0  0  0  0  0  0  0  0  0  0  0  0
   57.7638   34.2746   45.1483 H   0  0  0  0  0  0  0  0  0  0  0  0
   55.6899   26.4075   47.0788 H   0  0  0  0  0  0  0  0  0  0  0  0
   54.7375   26.7843   45.6031 H   0  0  0  0  0  0  0  0  0  0  0  0
   55.8846   25.4019   45.6031 H   0  0  0  0  0  0  0  0  0  0  0  0
  1  2  1  0
  2  3  1  0
  3  4  2  0
  4  5  1  0
  5  6  2  0
  5  7  1  0
  7  8  1  0
  8  9  2  3
  9 10  1  0
 10 11  2  0
 11 12  1  0
 12 13  2  0
 13 14  1  0
 14 15  2  0
 14 16  2  0
 14 17  1  0
 17 18  1  0
 18 19  2  0
 19 20  1  0
 20 21  2  0
 21 22  1  0
 22 23  2  0
 23 24  1  0
 13 25  1  0
 25 26  2  0
  7 27  2  0
 27 28  1  0
 27 29  1  0
 29 30  1  0
 29  3  1  0
 26 10  1  0
 23 18  1  0
  1 31  1  0
  1 32  1  0
  1 33  1  0
  8 34  1  0
 11 35  1  0
 12 36  1  0
 17 37  1  0
 19 38  1  0
 20 39  1  0
 21 40  1  0
 22 41  1  0
 24 42  1  0
 24 43  1  0
 24 44  1  0
 25 45  1  0
 26 46  1  0
 30 47  1  0
 30 48  1  0
 30 49  1  0
M  CHG  1  28  -1
M  END
>  <UniqueID>  (62) 
51

>  <SMILES>  (62) 
CSc1nc(=O)c(C=Nc2ccc(S(=O)(=O)Nc3ccccc3C)cc2)c([O-])n1C

>  <Energy>  (62) 
69.48388384698121

>  <Genealogy>  (62) 
CSc1nc(=O)c(C=Nc2ccc(S(=O)(=O)Nc3ccccc3C)cc2)c([O-])n1C (protonated)
CSc1nc(=O)c(C=Nc2ccc(S(=O)(=O)Nc3ccccc3C)cc2)c([O-])n1C (3D coordinates assigned)
CSc1nc(=O)c(C=Nc2ccc(S(=O)(=O)Nc3ccccc3C)cc2)c([O-])n1C (optimized conformer: 69.48388384698121 kcal/mol)

>  <smiles>  (62) 
CSc1nc(=O)c(C=Nc2ccc(S(=O)(=O)Nc3ccccc3C)cc2)c(O)n1C

>  <score_type>  (62) 
oracle

>  <origin>  (62) 
adg

>  <m_score__min__energy>  (62) 
-12.81

>  <m_primary>  (62) 
energy

$$$$
62:0
     RDKit          3D

 38 40  0  0  1  0  0  0  0  0999 V2000
   56.5000   29.7110   42.5550 N   0  0  0  0  0  0  0  0  0  0  0  0
   56.4280   30.0040   44.2530 S   0  0  0  0  0  0  0  0  0  0  0  0
   55.1720   29.3460   44.7580 O   0  0  0  0  0  0  0  0  0  0  0  0
   56.2840   31.4800   44.5060 O   0  0  0  0  0  0  0  0  0  0  0  0
   57.8520   29.3590   45.0630 C   0  0  0  0  0  0  0  0  0  0  0  0
   58.9090   28.8280   44.3400 C   0  0  0  0  0  0  0  0  0  0  0  0
   60.0210   28.3240   44.9790 C   0  0  0  0  0  0  0  0  0  0  0  0
   60.0340   28.3730   46.3550 C   0  0  0  0  0  0  0  0  0  0  0  0
   58.9690   28.9090   47.0840 C   0  0  0  0  0  0  0  0  0  0  0  0
   59.1150   28.8950   48.4990 N   0  0  0  0  0  0  0  0  0  0  0  0
   59.0610   29.9790   49.1970 C   0  0  0  0  0  0  0  0  0  0  0  0
   58.7370   29.9620   50.5380 C   0  0  0  0  0  0  0  0  0  0  0  0
   58.6710   31.1060   51.3080 C   0  0  0  0  0  0  0  0  0  0  0  0
   58.9470   32.2680   50.6660 N   0  0  0  0  0  0  0  0  0  0  0  0
   59.2650   32.3180   49.3610 C   0  0  0  0  0  0  0  0  0  0  0  0
   59.5470   33.5640   48.7270 N   0  0  0  0  0  0  0  0  0  0  0  0
   59.2790   33.8560   47.5210 C   0  0  0  0  0  0  0  0  0  0  0  0
   59.8750   34.9500   46.9280 C   0  0  0  0  0  0  0  0  0  0  0  0
   59.6090   35.2930   45.6310 C   0  0  0  0  0  0  0  0  0  0  0  0
   58.7100   34.4840   44.9430 C   0  0  0  0  0  0  0  0  0  0  0  0
   58.1300   33.3920   45.5700 C   0  0  0  0  0  0  0  0  0  0  0  0
   58.4120   33.0760   46.8560 N   0  0  0  0  0  0  0  0  0  0  0  0
   59.3190   31.1770   48.6430 N   0  0  0  0  0  0  0  0  0  0  0  0
   57.8580   29.4120   46.4410 C   0  0  0  0  0  0  0  0  0  0  0  0
   55.6790   29.2100   42.1870 H   0  0  0  0  0  0  0  0  0  0  0  0
   57.4050   29.3340   42.2260 H   0  0  0  0  0  0  0  0  0  0  0  0
   58.8593   28.8087   43.2413 H   0  0  0  0  0  0  0  0  0  0  0  0
   60.8636   27.9000   44.4131 H   0  0  0  0  0  0  0  0  0  0  0  0
   60.9073   27.9792   46.8957 H   0  0  0  0  0  0  0  0  0  0  0  0
   58.5218   28.9943   51.0147 H   0  0  0  0  0  0  0  0  0  0  0  0
   58.4106   31.0767   52.3763 H   0  0  0  0  0  0  0  0  0  0  0  0
   58.9000   33.1540   51.2470 H   0  0  0  0  0  0  0  0  0  0  0  0
   60.5801   35.5602   47.5116 H   0  0  0  0  0  0  0  0  0  0  0  0
   60.0821   36.1648   45.1555 H   0  0  0  0  0  0  0  0  0  0  0  0
   58.4583   34.7119   43.8967 H   0  0  0  0  0  0  0  0  0  0  0  0
   57.4218   32.7656   45.0077 H   0  0  0  0  0  0  0  0  0  0  0  0
   57.9810   32.2650   47.3240 H   0  0  0  0  0  0  0  0  0  0  0  0
   57.0131   29.8371   47.0027 H   0  0  0  0  0  0  0  0  0  0  0  0
  1  2  1  0
  2  3  2  0
  2  4  2  0
  2  5  1  0
  5  6  2  0
  6  7  1  0
  7  8  2  0
  8  9  1  0
  9 10  1  0
 10 11  2  0
 11 12  1  0
 12 13  2  0
 13 14  1  0
 14 15  1  0
 15 16  1  0
 16 17  2  0
 17 18  1  0
 18 19  2  0
 19 20  1  0
 20 21  2  0
 21 22  1  0
 15 23  2  0
  9 24  2  0
 24  5  1  0
 23 11  1  0
 22 17  1  0
  1 25  1  0
  1 26  1  0
  6 27  1  0
  7 28  1  0
  8 29  1  0
 12 30  1  0
 13 31  1  0
 14 32  1  0
 18 33  1  0
 19 34  1  0
 20 35  1  0
 21 36  1  0
 22 37  1  0
 24 38  1  0
M  END
>  <smiles>  (63) 
NS(=O)(=O)c1cccc(N=c2cc[nH]c(N=c3cccc[nH]3)n2)c1

>  <score_type>  (63) 
oracle

>  <origin>  (63) 
adg

>  <m_score__min__energy>  (63) 
-9.3499999999999996

>  <m_primary>  (63) 
energy

$$$$
63:0
     RDKit          3D

 70 73  0  0  0  0  0  0  0  0999 V2000
   59.4080   34.6920   45.6620 C   0  0  0  0  0  0  0  0  0  0  0  0
   60.3710   33.6560   45.8340 O   0  0  0  0  0  0  0  0  0  0  0  0
   61.2780   33.5840   46.9040 C   0  0  0  0  0  0  0  0  0  0  0  0
   62.6700   33.5610   46.7030 C   0  0  0  0  0  0  0  0  0  0  0  0
   63.5390   33.5040   47.7930 C   0  0  0  0  0  0  0  0  0  0  0  0
   63.0360   33.4910   49.0970 C   0  0  0  0  0  0  0  0  0  0  0  0
   64.1470   33.5100   50.4730 S   0  0  0  0  0  0  0  0  0  0  0  0
   63.9650   34.7970   51.2300 O   0  0  0  0  0  0  0  0  0  0  0  0
   65.5660   33.4600   49.9740 O   0  0  0  0  0  0  0  0  0  0  0  0
   63.8800   32.1350   51.5220 N   0  0  0  0  0  0  0  0  0  0  0  0
   64.3460   30.8830   50.8720 C   0  0  0  0  0  0  0  0  0  0  0  0
   63.5840   29.6410   51.3430 C   0  0  0  0  0  0  0  0  0  0  0  0
   62.1570   29.8390   51.0920 N   0  0  0  0  0  0  0  0  0  0  0  0
   61.3030   28.7440   50.6160 C   0  0  0  0  0  0  0  0  0  0  0  0
   60.7620   29.0080   49.1990 C   0  0  0  0  0  0  0  0  0  0  0  0
   59.2770   29.4160   49.1580 C   0  0  0  0  0  0  0  0  0  0  0  0
   58.6780   29.2720   47.8140 N   0  0  0  0  0  0  0  0  0  0  0  0
   58.4720   30.3840   47.0460 C   0  0  0  0  0  0  0  0  0  0  0  0
   57.8630   30.2880   45.8390 N   0  0  0  0  0  0  0  0  0  0  0  0
   57.4760   29.0920   45.3290 C   0  0  0  0  0  0  0  0  0  0  0  0
   56.8180   29.0450   43.9840 C   0  0  0  0  0  0  0  0  0  0  0  0
   57.7680   27.9190   46.0350 C   0  0  0  0  0  0  0  0  0  0  0  0
   57.4120   26.6410   45.4810 N   0  0  0  0  0  0  0  0  0  0  0  0
   56.1350   26.0070   45.6300 C   0  0  0  0  0  0  0  0  0  0  0  0
   55.1500   26.7020   45.9970 O   0  0  0  0  0  0  0  0  0  0  0  0
   55.9420   24.5690   45.3270 C   0  0  0  0  0  0  0  0  0  0  0  0
   55.6290   23.6640   46.3530 C   0  0  0  0  0  0  0  0  0  0  0  0
   55.4260   22.3180   46.0460 C   0  0  0  0  0  0  0  0  0  0  0  0
   55.5150   21.8890   44.7590 N   0  0  0  0  0  0  0  0  0  0  0  0
   55.8060   22.7370   43.7370 C   0  0  0  0  0  0  0  0  0  0  0  0
   55.8730   22.2770   42.5270 N   0  0  0  0  0  0  0  0  0  0  0  0
   56.0190   24.0990   44.0040 C   0  0  0  0  0  0  0  0  0  0  0  0
   58.3690   28.0350   47.3030 C   0  0  0  0  0  0  0  0  0  0  0  0
   58.6040   26.9920   47.9740 O   0  0  0  0  0  0  0  0  0  0  0  0
   61.6090   31.1010   51.4890 C   0  0  0  0  0  0  0  0  0  0  0  0
   60.3740   31.3320   51.3930 O   0  0  0  0  0  0  0  0  0  0  0  0
   62.5150   32.1260   52.1080 C   0  0  0  0  0  0  0  0  0  0  0  0
   61.6490   33.4980   49.3030 C   0  0  0  0  0  0  0  0  0  0  0  0
   60.7650   33.5300   48.2100 C   0  0  0  0  0  0  0  0  0  0  0  0
   59.3710   33.5090   48.3780 O   0  0  0  0  0  0  0  0  0  0  0  0
   58.6930   32.7490   49.3720 C   0  0  0  0  0  0  0  0  0  0  0  0
   59.0750   35.0503   46.6472 H   0  0  0  0  0  0  0  0  0  0  0  0
   59.8606   35.5242   45.1030 H   0  0  0  0  0  0  0  0  0  0  0  0
   58.5450   34.3013   45.1030 H   0  0  0  0  0  0  0  0  0  0  0  0
   63.0756   33.5881   45.6809 H   0  0  0  0  0  0  0  0  0  0  0  0
   64.6256   33.4691   47.6253 H   0  0  0  0  0  0  0  0  0  0  0  0
   64.2138   30.9831   49.7846 H   0  0  0  0  0  0  0  0  0  0  0  0
   65.4017   30.7439   51.1480 H   0  0  0  0  0  0  0  0  0  0  0  0
   63.9376   28.7586   50.7895 H   0  0  0  0  0  0  0  0  0  0  0  0
   63.7556   29.4831   52.4180 H   0  0  0  0  0  0  0  0  0  0  0  0
   61.8912   27.8145   50.6040 H   0  0  0  0  0  0  0  0  0  0  0  0
   60.4437   28.6626   51.2978 H   0  0  0  0  0  0  0  0  0  0  0  0
   61.3551   29.8173   48.7481 H   0  0  0  0  0  0  0  0  0  0  0  0
   60.8458   28.0607   48.6461 H   0  0  0  0  0  0  0  0  0  0  0  0
   58.7188   28.7803   49.8611 H   0  0  0  0  0  0  0  0  0  0  0  0
   59.2190   30.4794   49.4332 H   0  0  0  0  0  0  0  0  0  0  0  0
   58.8040   31.3670   47.4115 H   0  0  0  0  0  0  0  0  0  0  0  0
   55.7282   28.9672   44.1115 H   0  0  0  0  0  0  0  0  0  0  0  0
   57.0573   29.9625   43.4265 H   0  0  0  0  0  0  0  0  0  0  0  0
   57.1853   28.1708   43.4265 H   0  0  0  0  0  0  0  0  0  0  0  0
   55.5442   24.0135   47.3926 H   0  0  0  0  0  0  0  0  0  0  0  0
   55.1932   21.6018   46.8478 H   0  0  0  0  0  0  0  0  0  0  0  0
   56.3870   22.7690   41.7630 H   0  0  0  0  0  0  0  0  0  0  0  0
   56.2449   24.7947   43.1824 H   0  0  0  0  0  0  0  0  0  0  0  0
   62.0669   33.1202   51.9642 H   0  0  0  0  0  0  0  0  0  0  0  0
   62.6193   31.8680   53.1722 H   0  0  0  0  0  0  0  0  0  0  0  0
   61.2494   33.4783   50.3277 H   0  0  0  0  0  0  0  0  0  0  0  0
   59.0005   33.0937   50.3703 H   0  0  0  0  0  0  0  0  0  0  0  0
   57.6070   32.8808   49.2570 H   0  0  0  0  0  0  0  0  0  0  0  0
   58.9474   31.6850   49.2570 H   0  0  0  0  0  0  0  0  0  0  0  0
  1  2  1  0
  2  3  1  0
  3  4  2  0
  4  5  1  0
  5  6  2  0
  6  7  1  0
  7  8  2  0
  7  9  2  0
  7 10  1  0
 10 11  1  0
 11 12  1  0
 12 13  1  0
 13 14  1  0
 14 15  1  0
 15 16  1  0
 16 17  1  0
 17 18  1  0
 18 19  2  0
 19 20  1  0
 20 21  1  0
 20 22  2  0
 22 23  1  0
 23 24  1  0
 24 25  2  0
 24 26  1  0
 26 27  1  0
 27 28  2  0
 28 29  1  0
 29 30  1  0
 30 31  2  3
 30 32  1  0
 22 33  1  0
 33 34  2  0
 13 35  1  0
 35 36  2  0
 35 37  1  0
  6 38  1  0
 38 39  2  0
 39 40  1  0
 40 41  1  0
 39  3  1  0
 37 10  1  0
 33 17  1  0
 32 26  2  0
  1 42  1  0
  1 43  1  0
  1 44  1  0
  4 45  1  0
  5 46  1  0
 11 47  1  0
 11 48  1  0
 12 49  1  0
 12 50  1  0
 14 51  1  0
 14 52  1  0
 15 53  1  0
 15 54  1  0
 16 55  1  0
 16 56  1  0
 18 57  1  0
 21 58  1  0
 21 59  1  0
 21 60  1  0
 27 61  1  0
 28 62  1  0
 31 63  1  0
 32 64  1  0
 37 65  1  0
 37 66  1  0
 38 67  1  0
 41 68  1  0
 41 69  1  0
 41 70  1  0
M  CHG  2  23  -1  29  -1
M  END
>  <UniqueID>  (64) 
52

>  <SMILES>  (64) 
COc1ccc(S(=O)(=O)N2CCN(CCCn3cnc(C)c([N-]C(=O)c4cc[n-]c(=N)c4)c3=O)C(=O)C2)cc1OC

>  <Energy>  (64) 
83.54106008925673

>  <Genealogy>  (64) 
COc1ccc(S(=O)(=O)N2CCN(CCCn3cnc(C)c([N-]C(=O)c4cc[n-]c(=N)c4)c3=O)C(=O)C2)cc1OC (protonated)
COc1ccc(S(=O)(=O)N2CCN(CCCn3cnc(C)c([N-]C(=O)c4cc[n-]c(=N)c4)c3=O)C(=O)C2)cc1OC (3D coordinates assigned)
COc1ccc(S(=O)(=O)N2CCN(CCCn3cnc(C)c([N-]C(=O)c4cc[n-]c(=N)c4)c3=O)C(=O)C2)cc1OC (nonaromatic ring conformer: 83.54106008925673 kcal/mol)

>  <smiles>  (64) 
COc1ccc(S(=O)(=O)N2CCN(CCCn3cnc(C)c(NC(=O)c4cc[nH]c(=N)c4)c3=O)C(=O)C2)cc1OC

>  <score_type>  (64) 
oracle

>  <origin>  (64) 
adg

>  <m_score__min__energy>  (64) 
-14.67

>  <m_primary>  (64) 
energy

$$$$
64:0
     RDKit          3D

 26 26  0  0  0  0  0  0  0  0999 V2000
   57.5870   34.1240   45.3080 C   0  0  0  0  0  0  0  0  0  0  0  0
   57.7540   32.7880   44.5920 C   0  0  0  0  0  0  0  0  0  0  0  0
   56.6660   31.9180   44.8920 O   0  0  0  0  0  0  0  0  0  0  0  0
   56.6210   30.5760   44.4940 C   0  0  0  0  0  0  0  0  0  0  0  0
   55.5490   29.9170   44.5640 O   0  0  0  0  0  0  0  0  0  0  0  0
   57.8670   29.9180   43.9950 C   0  0  0  0  0  0  0  0  0  0  0  0
   58.9930   29.5160   45.3740 S   0  0  0  0  0  0  0  0  0  0  0  0
   58.3010   27.8870   45.6640 C   0  0  0  0  0  0  0  0  0  0  0  0
   59.1310   26.8310   45.8690 N   0  0  0  0  0  0  0  0  0  0  0  0
   58.6370   25.5870   46.0940 C   0  0  0  0  0  0  0  0  0  0  0  0
   59.4240   24.6230   46.2770 O   0  0  0  0  0  0  0  0  0  0  0  0
   57.2570   25.3820   46.1220 C   0  0  0  0  0  0  0  0  0  0  0  0
   56.4140   26.4790   45.9190 C   0  0  0  0  0  0  0  0  0  0  0  0
   54.9940   26.3090   45.9480 N   0  0  0  0  0  0  0  0  0  0  0  0
   56.9520   27.7090   45.6920 N   0  0  0  0  0  0  0  0  0  0  0  0
   57.6072   33.9621   46.3958 H   0  0  0  0  0  0  0  0  0  0  0  0
   58.4079   34.7982   45.0223 H   0  0  0  0  0  0  0  0  0  0  0  0
   56.6254   34.5754   45.0223 H   0  0  0  0  0  0  0  0  0  0  0  0
   57.7891   32.9617   43.5064 H   0  0  0  0  0  0  0  0  0  0  0  0
   58.6882   32.3177   44.9328 H   0  0  0  0  0  0  0  0  0  0  0  0
   57.5977   28.9904   43.4686 H   0  0  0  0  0  0  0  0  0  0  0  0
   58.3811   30.6125   43.3144 H   0  0  0  0  0  0  0  0  0  0  0  0
   56.8413   24.3792   46.2999 H   0  0  0  0  0  0  0  0  0  0  0  0
   54.5040   25.8060   45.1750 H   0  0  0  0  0  0  0  0  0  0  0  0
   54.4260   26.6780   46.7420 H   0  0  0  0  0  0  0  0  0  0  0  0
   56.3240   28.5310   45.5400 H   0  0  0  0  0  0  0  0  0  0  0  0
  1  2  1  0
  2  3  1  0
  3  4  1  0
  4  5  2  0
  4  6  1  0
  6  7  1  0
  7  8  1  0
  8  9  2  0
  9 10  1  0
 10 11  2  0
 10 12  1  0
 12 13  2  0
 13 14  1  0
 13 15  1  0
 15  8  1  0
  1 16  1  0
  1 17  1  0
  1 18  1  0
  2 19  1  0
  2 20  1  0
  6 21  1  0
  6 22  1  0
 12 23  1  0
 14 24  1  0
 14 25  1  0
 15 26  1  0
M  END
>  <UniqueID>  (65) 
53

>  <SMILES>  (65) 
CCOC(=O)CSc1nc(=O)cc(N)[nH]1

>  <Energy>  (65) 
12.907477911698582

>  <Genealogy>  (65) 
CCOC(=O)CSc1nc(=O)cc(N)[nH]1 (3D coordinates assigned)
CCOC(=O)CSc1nc(=O)cc(N)[nH]1 (optimized conformer: 12.907477911698582 kcal/mol)

>  <smiles>  (65) 
CCOC(=O)CSc1nc(=O)cc(N)[nH]1

>  <score_type>  (65) 
oracle

>  <origin>  (65) 
adg

>  <m_score__min__energy>  (65) 
-5.7300000000000004

>  <m_primary>  (65) 
energy

$$$$
65:0
     RDKit          3D

 48 50  0  0  0  0  0  0  0  0999 V2000
   54.7680   28.9860   45.6020 H   0  0  0  0  0  0  0  0  0  0  0  0
   55.6060   29.0860   45.0390 O   0  0  0  0  0  0  0  0  0  0  0  0
   55.8900   30.2580   44.3700 N   0  0  0  0  0  0  0  0  0  0  0  0
   56.8720   30.3430   43.5280 C   0  0  0  0  0  0  0  0  0  0  0  0
   57.3172   29.4244   43.1182 H   0  0  0  0  0  0  0  0  0  0  0  0
   57.3980   31.6520   43.1140 C   0  0  0  0  0  0  0  0  0  0  0  0
   57.6510   31.8500   41.8960 O   0  0  0  0  0  0  0  0  0  0  0  0
   57.6380   32.7550   44.1070 C   0  0  0  0  0  0  0  0  0  0  0  0
   58.4866   33.3670   43.7675 H   0  0  0  0  0  0  0  0  0  0  0  0
   56.7272   33.3676   44.1790 H   0  0  0  0  0  0  0  0  0  0  0  0
   57.9330   32.2220   45.3990 O   0  0  0  0  0  0  0  0  0  0  0  0
   59.0360   32.5770   46.1970 C   0  0  0  0  0  0  0  0  0  0  0  0
   59.6360   33.8500   46.1170 C   0  0  0  0  0  0  0  0  0  0  0  0
   59.2529   34.5906   45.3996 H   0  0  0  0  0  0  0  0  0  0  0  0
   60.7140   34.1770   46.9430 C   0  0  0  0  0  0  0  0  0  0  0  0
   61.1739   35.1740   46.8756 H   0  0  0  0  0  0  0  0  0  0  0  0
   61.2090   33.2430   47.8530 C   0  0  0  0  0  0  0  0  0  0  0  0
   62.0537   33.5061   48.5067 H   0  0  0  0  0  0  0  0  0  0  0  0
   60.6330   31.9760   47.9340 C   0  0  0  0  0  0  0  0  0  0  0  0
   61.0270   31.2431   48.6535 H   0  0  0  0  0  0  0  0  0  0  0  0
   59.5540   31.6270   47.1050 C   0  0  0  0  0  0  0  0  0  0  0  0
   58.9250   30.2550   47.2400 C   0  0  0  0  0  0  0  0  0  0  0  0
   59.7132   29.5267   47.4816 H   0  0  0  0  0  0  0  0  0  0  0  0
   58.1692   30.3081   48.0375 H   0  0  0  0  0  0  0  0  0  0  0  0
   58.2470   29.8270   46.0040 N   0  0  0  0  0  0  0  0  0  0  0  0
   57.2720   30.2050   45.9850 H   0  0  0  0  0  0  0  0  0  0  0  0
   58.7510   30.2410   45.1860 H   0  0  0  0  0  0  0  0  0  0  0  0
   58.2340   28.3900   45.8720 C   0  0  0  0  0  0  0  0  0  0  0  0
   58.5600   27.7850   44.6440 C   0  0  0  0  0  0  0  0  0  0  0  0
   58.8575   28.4094   43.7887 H   0  0  0  0  0  0  0  0  0  0  0  0
   58.5080   26.3960   44.5050 C   0  0  0  0  0  0  0  0  0  0  0  0
   58.7680   25.9313   43.5424 H   0  0  0  0  0  0  0  0  0  0  0  0
   58.1260   25.5930   45.5870 C   0  0  0  0  0  0  0  0  0  0  0  0
   58.0790   23.8390   45.4320 S   0  0  0  0  0  0  0  0  0  0  0  0
   57.7950   23.4820   44.0010 O   0  0  0  0  0  0  0  0  0  0  0  0
   59.3970   23.2330   45.8250 O   0  0  0  0  0  0  0  0  0  0  0  0
   56.8240   23.1970   46.4420 N   0  0  0  0  0  0  0  0  0  0  0  0
   55.5620   23.3410   46.1800 C   0  0  0  0  0  0  0  0  0  0  0  0
   54.9590   24.5360   46.0030 N   0  0  0  0  0  0  0  0  0  0  0  0
   53.6340   24.3870   45.7350 C   0  0  0  0  0  0  0  0  0  0  0  0
   52.9675   25.2438   45.5574 H   0  0  0  0  0  0  0  0  0  0  0  0
   53.1840   23.0720   45.7020 C   0  0  0  0  0  0  0  0  0  0  0  0
   52.1513   22.7488   45.5042 H   0  0  0  0  0  0  0  0  0  0  0  0
   54.4920   22.0590   46.0170 S   0  0  0  0  0  0  0  0  0  0  0  0
   57.8010   26.1890   46.8120 C   0  0  0  0  0  0  0  0  0  0  0  0
   57.5062   25.5614   47.6659 H   0  0  0  0  0  0  0  0  0  0  0  0
   57.8500   27.5790   46.9530 C   0  0  0  0  0  0  0  0  0  0  0  0
   57.5863   28.0405   47.9161 H   0  0  0  0  0  0  0  0  0  0  0  0
  1  2  1  0
  2  3  1  0
  3  4  2  0
  4  5  1  0
  4  6  1  0
  6  7  2  0
  6  8  1  0
  8  9  1  0
  8 10  1  0
  8 11  1  0
 11 12  1  0
 12 13  2  0
 13 14  1  0
 13 15  1  0
 15 16  1  0
 15 17  2  0
 17 18  1  0
 17 19  1  0
 19 20  1  0
 19 21  2  0
 21 22  1  0
 22 23  1  0
 22 24  1  0
 22 25  1  0
 25 26  1  0
 25 27  1  0
 25 28  1  0
 28 29  2  0
 29 30  1  0
 29 31  1  0
 31 32  1  0
 31 33  2  0
 33 34  1  0
 34 35  2  0
 34 36  2  0
 34 37  1  0
 37 38  2  3
 38 39  1  0
 39 40  1  0
 40 41  1  0
 40 42  2  0
 42 43  1  0
 42 44  1  0
 33 45  1  0
 45 46  1  0
 45 47  2  0
 47 48  1  0
 21 12  1  0
 47 28  1  0
 44 38  1  0
M  CHG  2  25   1  39  -1
M  END
>  <UniqueID>  (66) 
54

>  <SMILES>  (66) 
O=C(/C=N/O)COc1ccccc1C[NH2+]c1ccc(S(=O)(=O)N=c2[n-]ccs2)cc1

>  <Energy>  (66) 
79.91188450512428

>  <Genealogy>  (66) 
O=C(C=NO)COc1ccccc1C[NH2+]c1ccc(S(=O)(=O)N=c2[n-]ccs2)cc1 (protonated)
O=C(/C=N/O)COc1ccccc1C[NH2+]c1ccc(S(=O)(=O)N=c2[n-]ccs2)cc1 (cis-trans isomerization)
O=C(/C=N/O)COc1ccccc1C[NH2+]c1ccc(S(=O)(=O)N=c2[n-]ccs2)cc1 (3D coordinates assigned)
O=C(/C=N/O)COc1ccccc1C[NH2+]c1ccc(S(=O)(=O)N=c2[n-]ccs2)cc1 (optimized conformer: 79.91188450512428 kcal/mol)

>  <smiles>  (66) 
O=C(C=NO)COc1ccccc1CNc1ccc(S(=O)(=O)N=c2[nH]ccs2)cc1

>  <score_type>  (66) 
oracle

>  <origin>  (66) 
adg

>  <m_score__min__energy>  (66) 
-9.6500000000000004

>  <m_primary>  (66) 
energy

$$$$
66:0
     RDKit          3D

 47 49  0  0  0  0  0  0  0  0999 V2000
   59.3100   23.4170   45.5990 C   0  0  0  0  0  0  0  0  0  0  0  0
   58.1240   23.1130   44.7250 C   0  0  0  0  0  0  0  0  0  0  0  0
   57.7330   21.7780   44.5270 C   0  0  0  0  0  0  0  0  0  0  0  0
   56.6310   21.4740   43.7250 C   0  0  0  0  0  0  0  0  0  0  0  0
   55.9000   22.4980   43.1230 C   0  0  0  0  0  0  0  0  0  0  0  0
   56.2700   23.8310   43.3200 C   0  0  0  0  0  0  0  0  0  0  0  0
   57.3870   24.1530   44.1120 C   0  0  0  0  0  0  0  0  0  0  0  0
   57.7370   25.5290   44.3430 N   0  0  0  0  0  0  0  0  0  0  0  0
   57.0260   26.3830   45.2580 C   0  0  0  0  0  0  0  0  0  0  0  0
   56.0420   25.9290   45.9050 O   0  0  0  0  0  0  0  0  0  0  0  0
   57.4240   27.7970   45.4540 C   0  0  0  0  0  0  0  0  0  0  0  0
   58.1320   28.2040   46.5990 C   0  0  0  0  0  0  0  0  0  0  0  0
   58.5060   29.5410   46.7620 C   0  0  0  0  0  0  0  0  0  0  0  0
   58.1750   30.4980   45.7920 C   0  0  0  0  0  0  0  0  0  0  0  0
   58.5930   31.8620   45.9760 N   0  0  0  0  0  0  0  0  0  0  0  0
   58.2620   32.6600   47.1210 C   0  0  0  0  0  0  0  0  0  0  0  0
   57.7670   32.1270   48.1520 O   0  0  0  0  0  0  0  0  0  0  0  0
   58.5360   34.0610   47.1000 N   0  0  0  0  0  0  0  0  0  0  0  0
   59.9500   34.7180   46.3470 S   0  0  0  0  0  0  0  0  0  0  0  0
   60.0090   34.2680   44.9140 O   0  0  0  0  0  0  0  0  0  0  0  0
   59.8760   36.2180   46.3770 O   0  0  0  0  0  0  0  0  0  0  0  0
   61.3830   34.1950   47.2260 C   0  0  0  0  0  0  0  0  0  0  0  0
   62.5330   33.7790   46.5370 C   0  0  0  0  0  0  0  0  0  0  0  0
   63.6580   33.3460   47.2460 C   0  0  0  0  0  0  0  0  0  0  0  0
   63.6400   33.3240   48.6460 C   0  0  0  0  0  0  0  0  0  0  0  0
   65.0520   32.7800   49.5340 Cl  0  0  0  0  0  0  0  0  0  0  0  0
   62.4930   33.7340   49.3340 C   0  0  0  0  0  0  0  0  0  0  0  0
   61.3670   34.1660   48.6270 C   0  0  0  0  0  0  0  0  0  0  0  0
   57.4990   30.0870   44.6310 C   0  0  0  0  0  0  0  0  0  0  0  0
   57.1270   28.7510   44.4650 C   0  0  0  0  0  0  0  0  0  0  0  0
   59.0154   23.3415   46.6561 H   0  0  0  0  0  0  0  0  0  0  0  0
   60.1139   22.6959   45.3900 H   0  0  0  0  0  0  0  0  0  0  0  0
   59.6679   24.4359   45.3900 H   0  0  0  0  0  0  0  0  0  0  0  0
   58.2992   20.9663   45.0073 H   0  0  0  0  0  0  0  0  0  0  0  0
   56.3390   20.4252   43.5678 H   0  0  0  0  0  0  0  0  0  0  0  0
   55.0316   22.2561   42.4927 H   0  0  0  0  0  0  0  0  0  0  0  0
   55.6830   24.6350   42.8520 H   0  0  0  0  0  0  0  0  0  0  0  0
   58.5330   25.9210   43.7940 H   0  0  0  0  0  0  0  0  0  0  0  0
   58.3931   27.4655   47.3713 H   0  0  0  0  0  0  0  0  0  0  0  0
   59.0650   29.8451   47.6592 H   0  0  0  0  0  0  0  0  0  0  0  0
   59.2410   32.2810   45.2710 H   0  0  0  0  0  0  0  0  0  0  0  0
   62.5494   33.7936   45.4372 H   0  0  0  0  0  0  0  0  0  0  0  0
   64.5583   33.0223   46.7031 H   0  0  0  0  0  0  0  0  0  0  0  0
   62.4771   33.7164   50.4337 H   0  0  0  0  0  0  0  0  0  0  0  0
   60.4659   34.4840   49.1719 H   0  0  0  0  0  0  0  0  0  0  0  0
   57.2612   30.8219   43.8479 H   0  0  0  0  0  0  0  0  0  0  0  0
   56.5967   28.4424   43.5520 H   0  0  0  0  0  0  0  0  0  0  0  0
  1  2  1  0
  2  3  2  0
  3  4  1  0
  4  5  2  0
  5  6  1  0
  6  7  2  0
  7  8  1  0
  8  9  1  0
  9 10  2  0
  9 11  1  0
 11 12  2  0
 12 13  1  0
 13 14  2  0
 14 15  1  0
 15 16  1  0
 16 17  2  0
 16 18  1  0
 18 19  1  0
 19 20  2  0
 19 21  2  0
 19 22  1  0
 22 23  2  0
 23 24  1  0
 24 25  2  0
 25 26  1  0
 25 27  1  0
 27 28  2  0
 14 29  1  0
 29 30  2  0
  7  2  1  0
 30 11  1  0
 28 22  1  0
  1 31  1  0
  1 32  1  0
  1 33  1  0
  3 34  1  0
  4 35  1  0
  5 36  1  0
  6 37  1  0
  8 38  1  0
 12 39  1  0
 13 40  1  0
 15 41  1  0
 23 42  1  0
 24 43  1  0
 27 44  1  0
 28 45  1  0
 29 46  1  0
 30 47  1  0
M  CHG  1  18  -1
M  END
>  <UniqueID>  (67) 
55

>  <SMILES>  (67) 
Cc1ccccc1NC(=O)c1ccc(NC(=O)[N-]S(=O)(=O)c2ccc(Cl)cc2)cc1

>  <Energy>  (67) 
61.90411256482633

>  <Genealogy>  (67) 
Cc1ccccc1NC(=O)c1ccc(NC(=O)[N-]S(=O)(=O)c2ccc(Cl)cc2)cc1 (protonated)
Cc1ccccc1NC(=O)c1ccc(NC(=O)[N-]S(=O)(=O)c2ccc(Cl)cc2)cc1 (3D coordinates assigned)
Cc1ccccc1NC(=O)c1ccc(NC(=O)[N-]S(=O)(=O)c2ccc(Cl)cc2)cc1 (optimized conformer: 61.90411256482633 kcal/mol)

>  <smiles>  (67) 
Cc1ccccc1NC(=O)c1ccc(NC(=O)NS(=O)(=O)c2ccc(Cl)cc2)cc1

>  <score_type>  (67) 
oracle

>  <origin>  (67) 
adg

>  <m_score__min__energy>  (67) 
-10.220000000000001

>  <m_primary>  (67) 
energy

$$$$
67:0
     RDKit          3D

 41 43  0  0  0  0  0  0  0  0999 V2000
   59.6000   34.7400   46.1100 C   0  0  0  0  0  0  0  0  0  0  0  0
   58.8370   33.5120   45.7080 C   0  0  0  0  0  0  0  0  0  0  0  0
   58.1810   33.4550   44.4680 C   0  0  0  0  0  0  0  0  0  0  0  0
   57.4980   32.2960   44.0840 C   0  0  0  0  0  0  0  0  0  0  0  0
   57.4790   31.1770   44.9270 C   0  0  0  0  0  0  0  0  0  0  0  0
   56.6300   29.7100   44.4480 S   0  0  0  0  0  0  0  0  0  0  0  0
   57.0130   29.3040   43.0520 O   0  0  0  0  0  0  0  0  0  0  0  0
   55.1520   29.9760   44.4920 O   0  0  0  0  0  0  0  0  0  0  0  0
   57.0160   28.4220   45.5460 N   0  0  0  0  0  0  0  0  0  0  0  0
   58.3500   27.9090   45.7330 C   0  0  0  0  0  0  0  0  0  0  0  0
   59.4450   28.4750   45.0510 C   0  0  0  0  0  0  0  0  0  0  0  0
   60.7330   27.9640   45.2280 C   0  0  0  0  0  0  0  0  0  0  0  0
   60.9430   26.8770   46.0710 C   0  0  0  0  0  0  0  0  0  0  0  0
   59.8710   26.2990   46.7510 C   0  0  0  0  0  0  0  0  0  0  0  0
   58.5690   26.8140   46.5990 C   0  0  0  0  0  0  0  0  0  0  0  0
   57.4590   26.2600   47.3230 N   0  0  0  0  0  0  0  0  0  0  0  0
   56.1780   25.3100   46.6410 S   0  0  0  0  0  0  0  0  0  0  0  0
   55.1630   26.2200   46.0070 O   0  0  0  0  0  0  0  0  0  0  0  0
   55.5360   24.4800   47.7160 O   0  0  0  0  0  0  0  0  0  0  0  0
   56.8390   24.2530   45.4090 C   0  0  0  0  0  0  0  0  0  0  0  0
   56.3750   24.1260   44.1090 C   0  0  0  0  0  0  0  0  0  0  0  0
   57.1010   23.1890   43.3620 C   0  0  0  0  0  0  0  0  0  0  0  0
   58.1330   22.5870   44.0730 C   0  0  0  0  0  0  0  0  0  0  0  0
   58.1410   23.2170   45.6330 S   0  0  0  0  0  0  0  0  0  0  0  0
   58.1450   31.2260   46.1590 C   0  0  0  0  0  0  0  0  0  0  0  0
   58.8230   32.3850   46.5470 C   0  0  0  0  0  0  0  0  0  0  0  0
   59.6398   34.8041   47.2074 H   0  0  0  0  0  0  0  0  0  0  0  0
   60.6226   34.6841   45.7086 H   0  0  0  0  0  0  0  0  0  0  0  0
   59.0969   35.6321   45.7086 H   0  0  0  0  0  0  0  0  0  0  0  0
   58.2042   34.3253   43.7956 H   0  0  0  0  0  0  0  0  0  0  0  0
   56.9743   32.2631   43.1172 H   0  0  0  0  0  0  0  0  0  0  0  0
   56.2350   28.0660   46.1390 H   0  0  0  0  0  0  0  0  0  0  0  0
   59.2844   29.3265   44.3734 H   0  0  0  0  0  0  0  0  0  0  0  0
   61.5826   28.4217   44.7001 H   0  0  0  0  0  0  0  0  0  0  0  0
   61.9575   26.4723   46.2015 H   0  0  0  0  0  0  0  0  0  0  0  0
   60.0436   25.4355   47.4102 H   0  0  0  0  0  0  0  0  0  0  0  0
   55.5271   24.6998   43.7067 H   0  0  0  0  0  0  0  0  0  0  0  0
   56.8757   22.9519   42.3117 H   0  0  0  0  0  0  0  0  0  0  0  0
   58.8264   21.8278   43.6820 H   0  0  0  0  0  0  0  0  0  0  0  0
   58.1341   30.3492   46.8231 H   0  0  0  0  0  0  0  0  0  0  0  0
   59.3478   32.4150   47.5133 H   0  0  0  0  0  0  0  0  0  0  0  0
  1  2  1  0
  2  3  2  0
  3  4  1  0
  4  5  2  0
  5  6  1  0
  6  7  2  0
  6  8  2  0
  6  9  1  0
  9 10  1  0
 10 11  2  0
 11 12  1  0
 12 13  2  0
 13 14  1  0
 14 15  2  0
 15 16  1  0
 16 17  1  0
 17 18  2  0
 17 19  2  0
 17 20  1  0
 20 21  2  0
 21 22  1  0
 22 23  2  0
 23 24  1  0
  5 25  1  0
 25 26  2  0
 26  2  1  0
 15 10  1  0
 24 20  1  0
  1 27  1  0
  1 28  1  0
  1 29  1  0
  3 30  1  0
  4 31  1  0
  9 32  1  0
 11 33  1  0
 12 34  1  0
 13 35  1  0
 14 36  1  0
 21 37  1  0
 22 38  1  0
 23 39  1  0
 25 40  1  0
 26 41  1  0
M  CHG  1  16  -1
M  END
>  <UniqueID>  (68) 
56

>  <SMILES>  (68) 
Cc1ccc(S(=O)(=O)Nc2ccccc2[N-]S(=O)(=O)c2cccs2)cc1

>  <Energy>  (68) 
76.26425936405717

>  <Genealogy>  (68) 
Cc1ccc(S(=O)(=O)Nc2ccccc2[N-]S(=O)(=O)c2cccs2)cc1 (protonated)
Cc1ccc(S(=O)(=O)Nc2ccccc2[N-]S(=O)(=O)c2cccs2)cc1 (3D coordinates assigned)
Cc1ccc(S(=O)(=O)Nc2ccccc2[N-]S(=O)(=O)c2cccs2)cc1 (optimized conformer: 76.26425936405717 kcal/mol)

>  <smiles>  (68) 
Cc1ccc(S(=O)(=O)Nc2ccccc2NS(=O)(=O)c2cccs2)cc1

>  <score_type>  (68) 
oracle

>  <origin>  (68) 
adg

>  <m_score__min__energy>  (68) 
-11.960000000000001

>  <m_primary>  (68) 
energy

$$$$
68:0
     RDKit          3D

 44 45  0  0  0  0  0  0  0  0999 V2000
   63.3540   33.7450   46.7450 C   0  0  0  0  0  0  0  0  0  0  0  0
   62.2840   32.8330   47.3330 C   0  0  0  0  0  0  0  0  0  0  0  0
   61.8300   33.3590   48.6210 N   0  0  0  0  0  0  0  0  0  0  0  0
   60.0930   33.4090   48.6570 S   0  0  0  0  0  0  0  0  0  0  0  0
   59.6500   34.5760   49.4950 O   0  0  0  0  0  0  0  0  0  0  0  0
   59.5610   32.1500   49.2820 O   0  0  0  0  0  0  0  0  0  0  0  0
   59.4480   33.5910   47.0280 C   0  0  0  0  0  0  0  0  0  0  0  0
   59.6080   34.8030   46.3420 C   0  0  0  0  0  0  0  0  0  0  0  0
   59.1110   34.9470   45.0440 C   0  0  0  0  0  0  0  0  0  0  0  0
   58.4570   33.8800   44.4230 C   0  0  0  0  0  0  0  0  0  0  0  0
   58.2990   32.6610   45.0950 C   0  0  0  0  0  0  0  0  0  0  0  0
   57.4670   31.3140   44.3160 S   0  0  0  0  0  0  0  0  0  0  0  0
   56.0550   31.2350   44.8300 O   0  0  0  0  0  0  0  0  0  0  0  0
   57.4070   31.5590   42.8340 O   0  0  0  0  0  0  0  0  0  0  0  0
   58.2880   29.8010   44.6240 N   0  0  0  0  0  0  0  0  0  0  0  0
   58.2250   29.4640   46.0610 C   0  0  0  0  0  0  0  0  0  0  0  0
   59.5290   28.7920   46.5580 C   0  0  0  0  0  0  0  0  0  0  0  0
   59.6640   27.3110   46.1600 C   0  0  0  0  0  0  0  0  0  0  0  0
   58.5340   26.7910   45.2440 C   0  0  0  0  0  0  0  0  0  0  0  0
   58.4750   27.4100   43.8360 C   0  0  0  0  0  0  0  0  0  0  0  0
   57.7160   28.7470   43.7610 C   0  0  0  0  0  0  0  0  0  0  0  0
   58.7990   32.5210   46.3980 C   0  0  0  0  0  0  0  0  0  0  0  0
   63.9160   34.2240   47.5603 H   0  0  0  0  0  0  0  0  0  0  0  0
   64.0418   33.1511   46.1251 H   0  0  0  0  0  0  0  0  0  0  0  0
   62.8766   34.5182   46.1251 H   0  0  0  0  0  0  0  0  0  0  0  0
   61.4310   32.7789   46.6406 H   0  0  0  0  0  0  0  0  0  0  0  0
   62.7078   31.8290   47.4824 H   0  0  0  0  0  0  0  0  0  0  0  0
   62.1610   34.3490   48.7040 H   0  0  0  0  0  0  0  0  0  0  0  0
   60.1264   35.6433   46.8270 H   0  0  0  0  0  0  0  0  0  0  0  0
   59.2348   35.9011   44.5108 H   0  0  0  0  0  0  0  0  0  0  0  0
   58.0645   33.9976   43.4022 H   0  0  0  0  0  0  0  0  0  0  0  0
   58.0605   30.3876   46.6353 H   0  0  0  0  0  0  0  0  0  0  0  0
   57.3994   28.7519   46.2067 H   0  0  0  0  0  0  0  0  0  0  0  0
   60.3834   29.3422   46.1368 H   0  0  0  0  0  0  0  0  0  0  0  0
   59.5033   28.8240   47.6572 H   0  0  0  0  0  0  0  0  0  0  0  0
   60.6209   27.1822   45.6329 H   0  0  0  0  0  0  0  0  0  0  0  0
   59.6059   26.7290   47.0916 H   0  0  0  0  0  0  0  0  0  0  0  0
   58.6649   25.7048   45.1300 H   0  0  0  0  0  0  0  0  0  0  0  0
   57.5936   27.0790   45.7367 H   0  0  0  0  0  0  0  0  0  0  0  0
   59.5057   27.5796   43.4912 H   0  0  0  0  0  0  0  0  0  0  0  0
   57.9229   26.6994   43.2033 H   0  0  0  0  0  0  0  0  0  0  0  0
   57.7369   29.1008   42.7197 H   0  0  0  0  0  0  0  0  0  0  0  0
   56.6929   28.5576   44.1181 H   0  0  0  0  0  0  0  0  0  0  0  0
   58.6808   31.5648   46.9288 H   0  0  0  0  0  0  0  0  0  0  0  0
  1  2  1  0
  2  3  1  0
  3  4  1  0
  4  5  2  0
  4  6  2  0
  4  7  1  0
  7  8  2  0
  8  9  1  0
  9 10  2  0
 10 11  1  0
 11 12  1  0
 12 13  2  0
 12 14  2  0
 12 15  1  0
 15 16  1  0
 16 17  1  0
 17 18  1  0
 18 19  1  0
 19 20  1  0
 20 21  1  0
 11 22  2  0
 22  7  1  0
 21 15  1  0
  1 23  1  0
  1 24  1  0
  1 25  1  0
  2 26  1  0
  2 27  1  0
  3 28  1  0
  8 29  1  0
  9 30  1  0
 10 31  1  0
 16 32  1  0
 16 33  1  0
 17 34  1  0
 17 35  1  0
 18 36  1  0
 18 37  1  0
 19 38  1  0
 19 39  1  0
 20 40  1  0
 20 41  1  0
 21 42  1  0
 21 43  1  0
 22 44  1  0
M  END
>  <UniqueID>  (69) 
57

>  <SMILES>  (69) 
CCNS(=O)(=O)c1cccc(S(=O)(=O)N2CCCCCC2)c1

>  <Energy>  (69) 
43.80607500036057

>  <Genealogy>  (69) 
CCNS(=O)(=O)c1cccc(S(=O)(=O)N2CCCCCC2)c1 (3D coordinates assigned)
CCNS(=O)(=O)c1cccc(S(=O)(=O)N2CCCCCC2)c1 (nonaromatic ring conformer: 43.80607500036057 kcal/mol)

>  <smiles>  (69) 
CCNS(=O)(=O)c1cccc(S(=O)(=O)N2CCCCCC2)c1

>  <score_type>  (69) 
oracle

>  <origin>  (69) 
adg

>  <m_score__min__energy>  (69) 
-6.9100000000000001

>  <m_primary>  (69) 
energy

$$$$
69:0
     RDKit          3D

 32 33  0  0  0  0  0  0  0  0999 V2000
   60.4780   29.1730   47.0530 C   0  0  0  0  0  0  0  0  0  0  0  0
   60.4590   29.7510   45.6390 C   0  0  0  0  0  0  0  0  0  0  0  0
   59.7220   28.8430   44.6440 C   0  0  0  0  0  0  0  0  0  0  0  0
   58.8340   27.8410   45.3390 C   0  0  0  0  0  0  0  0  0  0  0  0
   59.3290   26.6290   45.8190 C   0  0  0  0  0  0  0  0  0  0  0  0
   58.0490   25.7160   46.4160 S   0  0  0  0  0  0  0  0  0  0  0  0
   56.8560   26.8430   46.0670 C   0  0  0  0  0  0  0  0  0  0  0  0
   55.4700   26.6670   46.3650 N   0  0  0  0  0  0  0  0  0  0  0  0
   57.4330   27.9680   45.4820 C   0  0  0  0  0  0  0  0  0  0  0  0
   56.6480   29.1340   45.0330 C   0  0  0  0  0  0  0  0  0  0  0  0
   55.4060   28.9960   44.8700 O   0  0  0  0  0  0  0  0  0  0  0  0
   57.2790   30.4540   44.7860 C   0  0  0  0  0  0  0  0  0  0  0  0
   57.7670   31.2160   45.8640 C   0  0  0  0  0  0  0  0  0  0  0  0
   58.3670   32.4580   45.6390 C   0  0  0  0  0  0  0  0  0  0  0  0
   58.4920   32.9510   44.3380 C   0  0  0  0  0  0  0  0  0  0  0  0
   58.0210   32.2000   43.2590 C   0  0  0  0  0  0  0  0  0  0  0  0
   57.4200   30.9570   43.4780 C   0  0  0  0  0  0  0  0  0  0  0  0
   60.4510   29.9937   47.7850 H   0  0  0  0  0  0  0  0  0  0  0  0
   59.6007   28.5251   47.1961 H   0  0  0  0  0  0  0  0  0  0  0  0
   61.3960   28.5841   47.1961 H   0  0  0  0  0  0  0  0  0  0  0  0
   59.9559   30.7289   45.6641 H   0  0  0  0  0  0  0  0  0  0  0  0
   61.5016   29.8420   45.3004 H   0  0  0  0  0  0  0  0  0  0  0  0
   59.1023   29.4687   43.9849 H   0  0  0  0  0  0  0  0  0  0  0  0
   60.4776   28.2854   44.0711 H   0  0  0  0  0  0  0  0  0  0  0  0
   60.3848   26.3203   45.8088 H   0  0  0  0  0  0  0  0  0  0  0  0
   54.8030   27.4580   46.2290 H   0  0  0  0  0  0  0  0  0  0  0  0
   55.1020   25.7510   46.7020 H   0  0  0  0  0  0  0  0  0  0  0  0
   57.6755   30.8314   46.8905 H   0  0  0  0  0  0  0  0  0  0  0  0
   58.7416   33.0485   46.4881 H   0  0  0  0  0  0  0  0  0  0  0  0
   58.9613   33.9305   44.1635 H   0  0  0  0  0  0  0  0  0  0  0  0
   58.1231   32.5874   42.2345 H   0  0  0  0  0  0  0  0  0  0  0  0
   57.0550   30.3682   42.6236 H   0  0  0  0  0  0  0  0  0  0  0  0
  1  2  1  0
  2  3  1  0
  3  4  1  0
  4  5  2  0
  5  6  1  0
  6  7  1  0
  7  8  1  0
  7  9  2  0
  9 10  1  0
 10 11  2  0
 10 12  1  0
 12 13  2  0
 13 14  1  0
 14 15  2  0
 15 16  1  0
 16 17  2  0
  9  4  1  0
 17 12  1  0
  1 18  1  0
  1 19  1  0
  1 20  1  0
  2 21  1  0
  2 22  1  0
  3 23  1  0
  3 24  1  0
  5 25  1  0
  8 26  1  0
  8 27  1  0
 13 28  1  0
 14 29  1  0
 15 30  1  0
 16 31  1  0
 17 32  1  0
M  END
>  <UniqueID>  (70) 
58

>  <SMILES>  (70) 
CCCc1csc(N)c1C(=O)c1ccccc1

>  <Energy>  (70) 
59.86054108002485

>  <Genealogy>  (70) 
CCCc1csc(N)c1C(=O)c1ccccc1 (3D coordinates assigned)
CCCc1csc(N)c1C(=O)c1ccccc1 (optimized conformer: 59.86054108002485 kcal/mol)

>  <smiles>  (70) 
CCCc1csc(N)c1C(=O)c1ccccc1

>  <score_type>  (70) 
oracle

>  <origin>  (70) 
adg

>  <m_score__min__energy>  (70) 
-7.5

>  <m_primary>  (70) 
energy

$$$$
70:0
     RDKit          3D

 46 48  0  0  0  0  0  0  0  0999 V2000
   55.1230   26.4200   45.9930 N   0  0  0  0  0  0  0  0  0  0  0  0
   56.3170   25.8720   46.5490 C   0  0  0  0  0  0  0  0  0  0  0  0
   56.2330   24.8380   47.2660 O   0  0  0  0  0  0  0  0  0  0  0  0
   57.6470   26.4820   46.2770 C   0  0  0  0  0  0  0  0  0  0  0  0
   58.7970   25.6730   46.3810 C   0  0  0  0  0  0  0  0  0  0  0  0
   60.0660   26.1970   46.1300 C   0  0  0  0  0  0  0  0  0  0  0  0
   60.2120   27.5370   45.7860 C   0  0  0  0  0  0  0  0  0  0  0  0
   59.0910   28.3600   45.6840 C   0  0  0  0  0  0  0  0  0  0  0  0
   57.8000   27.8450   45.9080 C   0  0  0  0  0  0  0  0  0  0  0  0
   56.6540   28.7100   45.8570 N   0  0  0  0  0  0  0  0  0  0  0  0
   56.1400   29.3820   44.6990 C   0  0  0  0  0  0  0  0  0  0  0  0
   55.0660   28.9910   44.1660 O   0  0  0  0  0  0  0  0  0  0  0  0
   56.8420   30.5710   44.1600 C   0  0  0  0  0  0  0  0  0  0  0  0
   56.9550   30.7660   42.7710 C   0  0  0  0  0  0  0  0  0  0  0  0
   57.6200   31.8860   42.2660 C   0  0  0  0  0  0  0  0  0  0  0  0
   58.1780   32.8240   43.1360 C   0  0  0  0  0  0  0  0  0  0  0  0
   58.0700   32.6480   44.5210 C   0  0  0  0  0  0  0  0  0  0  0  0
   58.7810   33.8150   45.6340 S   0  0  0  0  0  0  0  0  0  0  0  0
   59.1820   35.0630   44.8980 O   0  0  0  0  0  0  0  0  0  0  0  0
   57.7620   34.1790   46.6750 O   0  0  0  0  0  0  0  0  0  0  0  0
   60.1700   33.1130   46.4130 N   0  0  0  0  0  0  0  0  0  0  0  0
   61.2880   34.0580   46.4550 C   0  0  0  0  0  0  0  0  0  0  0  0
   62.6010   33.3170   46.7320 C   0  0  2  0  0  0  0  0  0  0  0  0
   62.3670   32.0170   47.4830 C   0  0  0  0  0  0  0  0  0  0  0  0
   63.6270   31.8710   48.2770 C   0  0  0  0  0  0  0  0  0  0  0  0
   64.0870   33.3050   48.4580 C   0  0  0  0  0  0  0  0  0  0  0  0
   63.4670   34.1280   47.4940 O   0  0  0  0  0  0  0  0  0  0  0  0
   57.4080   31.5230   45.0290 C   0  0  0  0  0  0  0  0  0  0  0  0
   55.1590   27.0870   45.1900 H   0  0  0  0  0  0  0  0  0  0  0  0
   58.6927   24.6151   46.6636 H   0  0  0  0  0  0  0  0  0  0  0  0
   60.9521   25.5494   46.2043 H   0  0  0  0  0  0  0  0  0  0  0  0
   61.2140   27.9483   45.5940 H   0  0  0  0  0  0  0  0  0  0  0  0
   59.2166   29.4219   45.4260 H   0  0  0  0  0  0  0  0  0  0  0  0
   56.5170   30.0320   42.0786 H   0  0  0  0  0  0  0  0  0  0  0  0
   57.7042   32.0292   41.1786 H   0  0  0  0  0  0  0  0  0  0  0  0
   58.7032   33.7026   42.7332 H   0  0  0  0  0  0  0  0  0  0  0  0
   61.3612   34.5767   45.4878 H   0  0  0  0  0  0  0  0  0  0  0  0
   61.1111   34.7858   47.2606 H   0  0  0  0  0  0  0  0  0  0  0  0
   63.0537   33.0852   45.7567 H   0  0  0  0  0  0  0  0  0  0  0  0
   61.4886   32.0905   48.1411 H   0  0  0  0  0  0  0  0  0  0  0  0
   62.1619   31.1604   46.8240 H   0  0  0  0  0  0  0  0  0  0  0  0
   63.4288   31.3942   49.2483 H   0  0  0  0  0  0  0  0  0  0  0  0
   64.3773   31.2349   47.7847 H   0  0  0  0  0  0  0  0  0  0  0  0
   63.8140   33.6523   49.4654 H   0  0  0  0  0  0  0  0  0  0  0  0
   65.1787   33.3562   48.3331 H   0  0  0  0  0  0  0  0  0  0  0  0
   57.3296   31.3821   46.1171 H   0  0  0  0  0  0  0  0  0  0  0  0
  1  2  1  0
  2  3  2  0
  2  4  1  0
  4  5  2  0
  5  6  1  0
  6  7  2  0
  7  8  1  0
  8  9  2  0
  9 10  1  0
 10 11  1  0
 11 12  2  0
 11 13  1  0
 13 14  2  0
 14 15  1  0
 15 16  2  0
 16 17  1  0
 17 18  1  0
 18 19  2  0
 18 20  2  0
 18 21  1  0
 21 22  1  0
 22 23  1  0
 23 24  1  0
 24 25  1  0
 25 26  1  0
 26 27  1  0
 17 28  2  0
  9  4  1  0
 28 13  1  0
 27 23  1  0
  1 29  1  0
  5 30  1  0
  6 31  1  0
  7 32  1  0
  8 33  1  0
 14 34  1  0
 15 35  1  0
 16 36  1  0
 22 37  1  0
 22 38  1  0
 23 39  1  6
 24 40  1  0
 24 41  1  0
 25 42  1  0
 25 43  1  0
 26 44  1  0
 26 45  1  0
 28 46  1  0
M  CHG  3   1  -1  10  -1  21  -1
M  END
>  <UniqueID>  (71) 
59

>  <SMILES>  (71) 
[NH-]C(=O)c1ccccc1[N-]C(=O)c1cccc(S(=O)(=O)[N-]C[C@@H]2CCCO2)c1

>  <Energy>  (71) 
52.819440571806446

>  <Genealogy>  (71) 
[NH-]C(=O)c1ccccc1[N-]C(=O)c1cccc(S(=O)(=O)[N-]CC2CCCO2)c1 (protonated)
[NH-]C(=O)c1ccccc1[N-]C(=O)c1cccc(S(=O)(=O)[N-]C[C@@H]2CCCO2)c1 (chirality)
[NH-]C(=O)c1ccccc1[N-]C(=O)c1cccc(S(=O)(=O)[N-]C[C@@H]2CCCO2)c1 (3D coordinates assigned)
[NH-]C(=O)c1ccccc1[N-]C(=O)c1cccc(S(=O)(=O)[N-]C[C@@H]2CCCO2)c1 (nonaromatic ring conformer: 52.819440571806446 kcal/mol)

>  <smiles>  (71) 
NC(=O)c1ccccc1NC(=O)c1cccc(S(=O)(=O)NCC2CCCO2)c1

>  <score_type>  (71) 
oracle

>  <origin>  (71) 
adg

>  <m_score__min__energy>  (71) 
-16.41

>  <m_primary>  (71) 
energy

$$$$
71:0
     RDKit          3D

 41 43  0  0  1  0  0  0  0  0999 V2000
   55.2200   25.3240   46.3160 O   0  0  0  0  0  0  0  0  0  0  0  0
   56.3490   25.3220   46.7690 C   0  0  0  0  0  0  0  0  0  0  0  0
   57.3470   26.3840   46.5930 C   0  0  0  0  0  0  0  0  0  0  0  0
   57.0300   27.2370   45.4370 N   0  0  0  0  0  0  0  0  0  0  0  0
   57.2960   28.6180   45.4250 C   0  0  0  0  0  0  0  0  0  0  0  0
   57.8310   29.0980   46.4840 O   0  0  0  0  0  0  0  0  0  0  0  0
   56.9840   29.4640   44.2810 C   0  0  0  0  0  0  0  0  0  0  0  0
   56.4730   28.9750   43.1320 N   0  0  0  0  0  0  0  0  0  0  0  0
   56.2800   29.9240   42.2570 N   0  0  0  0  0  0  0  0  0  0  0  0
   56.6790   31.0910   42.8450 C   0  0  0  0  0  0  0  0  0  0  0  0
   57.1270   30.8250   44.1230 C   0  0  0  0  0  0  0  0  0  0  0  0
   57.6240   31.7270   45.0770 N   0  0  0  0  0  0  0  0  0  0  0  0
   58.1890   32.9960   44.7890 C   0  0  0  0  0  0  0  0  0  0  0  0
   58.2660   33.3710   43.5920 O   0  0  0  0  0  0  0  0  0  0  0  0
   58.6960   33.9020   45.8070 C   0  0  0  0  0  0  0  0  0  0  0  0
   59.2320   35.1580   45.5320 C   0  0  0  0  0  0  0  0  0  0  0  0
   59.5960   35.7200   46.7040 N   0  0  0  0  0  0  0  0  0  0  0  0
   59.3100   34.8770   47.6850 N   0  0  0  0  0  0  0  0  0  0  0  0
   58.7530   33.7420   47.1670 C   0  0  0  0  0  0  0  0  0  0  0  0
   58.3870   32.7720   47.8860 N   0  0  0  0  0  0  0  0  0  0  0  0
   59.1220   31.5640   47.9510 C   0  0  0  0  0  0  0  0  0  0  0  0
   58.8660   30.7110   49.0330 C   0  0  0  0  0  0  0  0  0  0  0  0
   59.5440   29.5270   49.1070 C   0  0  0  0  0  0  0  0  0  0  0  0
   60.4620   29.1610   48.1520 C   0  0  0  0  0  0  0  0  0  0  0  0
   60.7360   29.9730   47.0790 C   0  0  0  0  0  0  0  0  0  0  0  0
   60.0490   31.1790   46.9980 C   0  0  0  0  0  0  0  0  0  0  0  0
   56.6487   24.4464   47.3635 H   0  0  0  0  0  0  0  0  0  0  0  0
   57.3707   27.0059   47.5000 H   0  0  0  0  0  0  0  0  0  0  0  0
   58.3247   25.9122   46.4154 H   0  0  0  0  0  0  0  0  0  0  0  0
   56.5890   26.8260   44.5720 H   0  0  0  0  0  0  0  0  0  0  0  0
   55.8930   29.8020   41.2920 H   0  0  0  0  0  0  0  0  0  0  0  0
   56.6481   32.0848   42.3745 H   0  0  0  0  0  0  0  0  0  0  0  0
   57.5900   31.4710   46.1070 H   0  0  0  0  0  0  0  0  0  0  0  0
   59.3396   35.6117   44.5357 H   0  0  0  0  0  0  0  0  0  0  0  0
   60.0310   36.6540   46.8770 H   0  0  0  0  0  0  0  0  0  0  0  0
   59.4890   35.0570   48.7140 H   0  0  0  0  0  0  0  0  0  0  0  0
   58.1347   30.9887   49.8064 H   0  0  0  0  0  0  0  0  0  0  0  0
   59.3502   28.8499   49.9520 H   0  0  0  0  0  0  0  0  0  0  0  0
   60.9873   28.1994   48.2490 H   0  0  0  0  0  0  0  0  0  0  0  0
   61.4701   29.6808   46.3137 H   0  0  0  0  0  0  0  0  0  0  0  0
   60.2487   31.8491   46.1488 H   0  0  0  0  0  0  0  0  0  0  0  0
  1  2  2  0
  2  3  1  0
  3  4  1  0
  4  5  1  0
  5  6  2  0
  5  7  1  0
  7  8  2  0
  8  9  1  0
  9 10  1  0
 10 11  2  0
 11 12  1  0
 12 13  1  0
 13 14  2  0
 13 15  1  0
 15 16  2  0
 16 17  1  0
 17 18  1  0
 18 19  1  0
 19 20  2  0
 20 21  1  0
 21 22  2  0
 22 23  1  0
 23 24  2  0
 24 25  1  0
 25 26  2  0
 11  7  1  0
 19 15  1  0
 26 21  1  0
  2 27  1  0
  3 28  1  0
  3 29  1  0
  4 30  1  0
  9 31  1  0
 10 32  1  0
 12 33  1  0
 16 34  1  0
 17 35  1  0
 18 36  1  0
 22 37  1  0
 23 38  1  0
 24 39  1  0
 25 40  1  0
 26 41  1  0
M  END
>  <smiles>  (72) 
O=CCNC(=O)c1n[nH]cc1NC(=O)c1c[nH][nH]c1=Nc1ccccc1

>  <score_type>  (72) 
oracle

>  <origin>  (72) 
adg

>  <m_score__min__energy>  (72) 
-7.2699999999999996

>  <m_primary>  (72) 
energy

$$$$
72:0
     RDKit          3D

 55 57  0  0  0  0  0  0  0  0999 V2000
   60.4940   34.0780   49.5700 H   0  0  0  0  0  0  0  0  0  0  0  0
   59.8390   34.6600   49.0620 O   0  0  0  0  0  0  0  0  0  0  0  0
   59.3350   34.2740   47.8210 C   0  0  0  0  0  0  0  0  0  0  0  0
   58.4330   33.2060   47.7170 C   0  0  0  0  0  0  0  0  0  0  0  0
   58.1164   32.6650   48.6209 H   0  0  0  0  0  0  0  0  0  0  0  0
   57.9350   32.8270   46.4670 C   0  0  0  0  0  0  0  0  0  0  0  0
   57.2218   31.9930   46.3918 H   0  0  0  0  0  0  0  0  0  0  0  0
   58.3410   33.5060   45.3070 C   0  0  0  0  0  0  0  0  0  0  0  0
   57.7780   33.1200   43.9640 C   0  0  0  0  0  0  0  0  0  0  0  0
   58.4374   33.5089   43.1741 H   0  0  0  0  0  0  0  0  0  0  0  0
   56.7687   33.5483   43.8752 H   0  0  0  0  0  0  0  0  0  0  0  0
   57.6710   31.5970   43.8200 C   0  0  0  0  0  0  0  0  0  0  0  0
   58.5615   31.1305   44.2666 H   0  0  0  0  0  0  0  0  0  0  0  0
   57.6012   31.3514   42.7500 H   0  0  0  0  0  0  0  0  0  0  0  0
   56.4790   31.0880   44.4910 N   0  0  0  0  0  0  0  0  0  0  0  0
   56.3000   29.7170   44.8630 C   0  0  0  0  0  0  0  0  0  0  0  0
   55.1540   29.1930   44.8120 O   0  0  0  0  0  0  0  0  0  0  0  0
   57.4500   28.9090   45.3090 C   0  0  0  0  0  0  0  0  0  0  0  0
   57.8440   28.9680   46.6100 N   0  0  0  0  0  0  0  0  0  0  0  0
   58.9060   28.2520   47.0660 C   0  0  0  0  0  0  0  0  0  0  0  0
   59.2270   28.3290   48.3240 N   0  0  0  0  0  0  0  0  0  0  0  0
   59.5010   29.5240   49.0770 C   0  0  0  0  0  0  0  0  0  0  0  0
   58.6850   29.8280   50.1680 C   0  0  0  0  0  0  0  0  0  0  0  0
   57.8714   29.1429   50.4483 H   0  0  0  0  0  0  0  0  0  0  0  0
   58.8930   30.9940   50.9060 C   0  0  0  0  0  0  0  0  0  0  0  0
   58.2542   31.2125   51.7744 H   0  0  0  0  0  0  0  0  0  0  0  0
   59.9150   31.8920   50.5460 C   0  0  0  0  0  0  0  0  0  0  0  0
   60.1560   33.0710   51.2680 O   0  0  0  0  0  0  0  0  0  0  0  0
   59.1620   33.8000   51.9790 C   0  0  0  0  0  0  0  0  0  0  0  0
   59.3237   33.6814   53.0606 H   0  0  0  0  0  0  0  0  0  0  0  0
   59.2281   34.8653   51.7130 H   0  0  0  0  0  0  0  0  0  0  0  0
   58.1658   33.4168   51.7130 H   0  0  0  0  0  0  0  0  0  0  0  0
   60.7200   31.6160   49.4290 C   0  0  0  0  0  0  0  0  0  0  0  0
   61.7200   32.5490   49.0970 O   0  0  0  0  0  0  0  0  0  0  0  0
   63.0700   32.2630   48.7230 C   0  0  0  0  0  0  0  0  0  0  0  0
   63.3163   31.2352   49.0278 H   0  0  0  0  0  0  0  0  0  0  0  0
   63.7301   32.9861   49.2245 H   0  0  0  0  0  0  0  0  0  0  0  0
   63.2680   32.3960   47.2080 C   0  0  0  0  0  0  0  0  0  0  0  0
   62.4734   31.8300   46.6998 H   0  0  0  0  0  0  0  0  0  0  0  0
   64.2680   32.0034   46.9716 H   0  0  0  0  0  0  0  0  0  0  0  0
   63.2200   33.8430   46.7240 C   0  0  0  0  0  0  0  0  0  0  0  0
   63.1976   34.5192   47.5913 H   0  0  0  0  0  0  0  0  0  0  0  0
   64.1116   34.0560   46.1160 H   0  0  0  0  0  0  0  0  0  0  0  0
   62.3163   33.9965   46.1160 H   0  0  0  0  0  0  0  0  0  0  0  0
   60.5030   30.4330   48.6930 C   0  0  0  0  0  0  0  0  0  0  0  0
   61.1233   30.2191   47.8101 H   0  0  0  0  0  0  0  0  0  0  0  0
   59.5850   27.4420   46.2080 N   0  0  0  0  0  0  0  0  0  0  0  0
   59.2330   27.3490   44.9010 C   0  0  0  0  0  0  0  0  0  0  0  0
   59.7983   26.6919   44.2238 H   0  0  0  0  0  0  0  0  0  0  0  0
   58.1530   28.0880   44.4170 C   0  0  0  0  0  0  0  0  0  0  0  0
   57.8598   28.0275   43.3585 H   0  0  0  0  0  0  0  0  0  0  0  0
   59.2400   34.5810   45.4180 C   0  0  0  0  0  0  0  0  0  0  0  0
   59.5547   35.1266   44.5162 H   0  0  0  0  0  0  0  0  0  0  0  0
   59.7360   34.9600   46.6690 C   0  0  0  0  0  0  0  0  0  0  0  0
   60.4429   35.7991   46.7479 H   0  0  0  0  0  0  0  0  0  0  0  0
  1  2  1  0
  2  3  1  0
  3  4  2  0
  4  5  1  0
  4  6  1  0
  6  7  1  0
  6  8  2  0
  8  9  1  0
  9 10  1  0
  9 11  1  0
  9 12  1  0
 12 13  1  0
 12 14  1  0
 12 15  1  0
 15 16  1  0
 16 17  2  0
 16 18  1  0
 18 19  2  0
 19 20  1  0
 20 21  2  0
 21 22  1  0
 22 23  2  0
 23 24  1  0
 23 25  1  0
 25 26  1  0
 25 27  2  0
 27 28  1  0
 28 29  1  0
 29 30  1  0
 29 31  1  0
 29 32  1  0
 27 33  1  0
 33 34  1  0
 34 35  1  0
 35 36  1  0
 35 37  1  0
 35 38  1  0
 38 39  1  0
 38 40  1  0
 38 41  1  0
 41 42  1  0
 41 43  1  0
 41 44  1  0
 33 45  2  0
 45 46  1  0
 20 47  1  0
 47 48  1  0
 48 49  1  0
 48 50  2  0
 50 51  1  0
  8 52  1  0
 52 53  1  0
 52 54  2  0
 54 55  1  0
 54  3  1  0
 50 18  1  0
 45 22  1  0
M  CHG  2  15  -1  47  -1
M  END
>  <UniqueID>  (73) 
60

>  <SMILES>  (73) 
CCCOc1cc(/N=c2/nc(C(=O)[N-]CCc3ccc(O)cc3)cc[n-]2)ccc1OC

>  <Energy>  (73) 
56.07353650525324

>  <Genealogy>  (73) 
CCCOc1cc(N=c2nc(C(=O)[N-]CCc3ccc(O)cc3)cc[n-]2)ccc1OC (protonated)
CCCOc1cc(/N=c2/nc(C(=O)[N-]CCc3ccc(O)cc3)cc[n-]2)ccc1OC (cis-trans isomerization)
CCCOc1cc(/N=c2/nc(C(=O)[N-]CCc3ccc(O)cc3)cc[n-]2)ccc1OC (3D coordinates assigned)
CCCOc1cc(/N=c2/nc(C(=O)[N-]CCc3ccc(O)cc3)cc[n-]2)ccc1OC (optimized conformer: 56.07353650525324 kcal/mol)

>  <smiles>  (73) 
CCCOc1cc(N=c2nc(C(=O)NCCc3ccc(O)cc3)cc[nH]2)ccc1OC

>  <score_type>  (73) 
oracle

>  <origin>  (73) 
adg

>  <m_score__min__energy>  (73) 
-10.199999999999999

>  <m_primary>  (73) 
energy

$$$$
73:0
     RDKit          3D

 45 47  0  0  0  0  0  0  0  0999 V2000
   60.1271   35.2830   46.1574 H   0  0  0  0  0  0  0  0  0  0  0  0
   59.3330   34.5670   45.8990 C   0  0  0  0  0  0  0  0  0  0  0  0
   58.4340   34.1360   46.8810 C   0  0  0  0  0  0  0  0  0  0  0  0
   58.5301   34.5045   47.9130 H   0  0  0  0  0  0  0  0  0  0  0  0
   57.4140   33.2380   46.5530 C   0  0  0  0  0  0  0  0  0  0  0  0
   56.6963   32.9187   47.3230 H   0  0  0  0  0  0  0  0  0  0  0  0
   57.3020   32.7400   45.2380 C   0  0  0  0  0  0  0  0  0  0  0  0
   56.2840   31.8030   44.8610 N   0  0  0  0  0  0  0  0  0  0  0  0
   56.5640   30.1440   44.4400 S   0  0  0  0  0  0  0  0  0  0  0  0
   56.7330   30.0320   42.9530 O   0  0  0  0  0  0  0  0  0  0  0  0
   55.3660   29.3330   44.8440 O   0  0  0  0  0  0  0  0  0  0  0  0
   58.0170   29.5400   45.2350 C   0  0  0  0  0  0  0  0  0  0  0  0
   58.5250   28.2680   44.9140 C   0  0  0  0  0  0  0  0  0  0  0  0
   58.0353   27.6613   44.1380 H   0  0  0  0  0  0  0  0  0  0  0  0
   59.6490   27.7740   45.5780 C   0  0  0  0  0  0  0  0  0  0  0  0
   60.0327   26.7719   45.3361 H   0  0  0  0  0  0  0  0  0  0  0  0
   60.2880   28.5490   46.5490 C   0  0  0  0  0  0  0  0  0  0  0  0
   61.1675   28.1490   47.0748 H   0  0  0  0  0  0  0  0  0  0  0  0
   59.8140   29.8400   46.8600 C   0  0  0  0  0  0  0  0  0  0  0  0
   60.4830   30.6660   47.8900 C   0  0  0  0  0  0  0  0  0  0  0  0
   61.6930   30.9650   47.7520 O   0  0  0  0  0  0  0  0  0  0  0  0
   59.7620   31.1450   49.0320 N   0  0  0  0  0  0  0  0  0  0  0  0
   58.8290   30.7270   49.2540 H   0  0  0  0  0  0  0  0  0  0  0  0
   60.2580   32.2620   49.8380 C   0  0  0  0  0  0  0  0  0  0  0  0
   60.7376   32.9986   49.1766 H   0  0  0  0  0  0  0  0  0  0  0  0
   60.9823   31.8739   50.5692 H   0  0  0  0  0  0  0  0  0  0  0  0
   59.1310   32.9280   50.5830 C   0  0  0  0  0  0  0  0  0  0  0  0
   59.3750   33.9850   51.2280 O   0  0  0  0  0  0  0  0  0  0  0  0
   57.7900   32.4050   50.6090 N   0  0  0  0  0  0  0  0  0  0  0  0
   57.3530   31.3650   51.2550 C   0  0  0  0  0  0  0  0  0  0  0  0
   57.7570   30.0920   51.0490 N   0  0  0  0  0  0  0  0  0  0  0  0
   57.0490   29.3500   51.8500 O   0  0  0  0  0  0  0  0  0  0  0  0
   56.2040   30.0790   52.5470 C   0  0  0  0  0  0  0  0  0  0  0  0
   55.2610   29.5370   53.5660 C   0  0  0  0  0  0  0  0  0  0  0  0
   55.6438   29.7570   54.5735 H   0  0  0  0  0  0  0  0  0  0  0  0
   54.2741   30.0057   53.4383 H   0  0  0  0  0  0  0  0  0  0  0  0
   55.1692   28.4483   53.4383 H   0  0  0  0  0  0  0  0  0  0  0  0
   56.3570   31.4080   52.2060 C   0  0  0  0  0  0  0  0  0  0  0  0
   55.8177   32.2836   52.5965 H   0  0  0  0  0  0  0  0  0  0  0  0
   58.6630   30.3210   46.2040 C   0  0  0  0  0  0  0  0  0  0  0  0
   58.2684   31.3168   46.4541 H   0  0  0  0  0  0  0  0  0  0  0  0
   58.2200   33.1660   44.2620 C   0  0  0  0  0  0  0  0  0  0  0  0
   58.1360   32.6950   42.9980 F   0  0  0  0  0  0  0  0  0  0  0  0
   59.2230   34.0880   44.5880 C   0  0  0  0  0  0  0  0  0  0  0  0
   59.9237   34.4354   43.8145 H   0  0  0  0  0  0  0  0  0  0  0  0
  1  2  1  0
  2  3  2  0
  3  4  1  0
  3  5  1  0
  5  6  1  0
  5  7  2  0
  7  8  1  0
  8  9  1  0
  9 10  2  0
  9 11  2  0
  9 12  1  0
 12 13  2  0
 13 14  1  0
 13 15  1  0
 15 16  1  0
 15 17  2  0
 17 18  1  0
 17 19  1  0
 19 20  1  0
 20 21  2  0
 20 22  1  0
 22 23  1  0
 22 24  1  0
 24 25  1  0
 24 26  1  0
 24 27  1  0
 27 28  2  0
 27 29  1  0
 29 30  2  0
 30 31  1  0
 31 32  1  0
 32 33  1  0
 33 34  1  0
 34 35  1  0
 34 36  1  0
 34 37  1  0
 33 38  2  0
 38 39  1  0
 19 40  2  0
 40 41  1  0
  7 42  1  0
 42 43  1  0
 42 44  2  0
 44 45  1  0
 44  2  1  0
 40 12  1  0
 38 30  1  0
M  CHG  2   8  -1  31  -1
M  END
>  <UniqueID>  (74) 
61

>  <SMILES>  (74) 
Cc1c/c(=N/C(=O)CNC(=O)c2cccc(S(=O)(=O)[N-]c3ccccc3F)c2)[n-]o1

>  <Energy>  (74) 
84.80812323283028

>  <Genealogy>  (74) 
Cc1cc(=NC(=O)CNC(=O)c2cccc(S(=O)(=O)[N-]c3ccccc3F)c2)[n-]o1 (protonated)
Cc1c/c(=N/C(=O)CNC(=O)c2cccc(S(=O)(=O)[N-]c3ccccc3F)c2)[n-]o1 (cis-trans isomerization)
Cc1c/c(=N/C(=O)CNC(=O)c2cccc(S(=O)(=O)[N-]c3ccccc3F)c2)[n-]o1 (3D coordinates assigned)
Cc1c/c(=N/C(=O)CNC(=O)c2cccc(S(=O)(=O)[N-]c3ccccc3F)c2)[n-]o1 (optimized conformer: 84.80812323283028 kcal/mol)

>  <smiles>  (74) 
Cc1cc(=NC(=O)CNC(=O)c2cccc(S(=O)(=O)Nc3ccccc3F)c2)[nH]o1

>  <score_type>  (74) 
oracle

>  <origin>  (74) 
adg

>  <m_score__min__energy>  (74) 
-13.18

>  <m_primary>  (74) 
energy

$$$$
74:0
     RDKit          3D

 19 20  0  0  0  0  0  0  0  0999 V2000
   57.0390   33.1550   45.7710 C   0  0  0  0  0  0  0  0  0  0  0  0
   57.3940   31.7730   45.3450 C   0  0  0  0  0  0  0  0  0  0  0  0
   56.5740   30.9790   44.6210 N   0  0  0  0  0  0  0  0  0  0  0  0
   57.1250   29.8100   44.2950 N   0  0  0  0  0  0  0  0  0  0  0  0
   58.3900   29.6770   44.7500 C   0  0  0  0  0  0  0  0  0  0  0  0
   59.3970   28.2280   44.4650 S   0  0  0  0  0  0  0  0  0  0  0  0
   58.3360   27.1900   45.4710 C   0  0  0  0  0  0  0  0  0  0  0  0
   56.9860   27.3180   45.3700 N   0  0  0  0  0  0  0  0  0  0  0  0
   56.1460   26.5530   46.1160 C   0  0  0  0  0  0  0  0  0  0  0  0
   54.7720   26.7050   45.9930 O   0  0  0  0  0  0  0  0  0  0  0  0
   56.6780   25.6160   47.0040 C   0  0  0  0  0  0  0  0  0  0  0  0
   58.0260   25.4830   47.1070 N   0  0  0  0  0  0  0  0  0  0  0  0
   58.8690   26.2480   46.3620 C   0  0  0  0  0  0  0  0  0  0  0  0
   60.1140   26.1010   46.4800 O   0  0  0  0  0  0  0  0  0  0  0  0
   58.8930   31.0430   45.5950 S   0  0  0  0  0  0  0  0  0  0  0  0
   57.0254   33.2079   46.8696 H   0  0  0  0  0  0  0  0  0  0  0  0
   57.7846   33.8624   45.3790 H   0  0  0  0  0  0  0  0  0  0  0  0
   56.0448   33.4155   45.3790 H   0  0  0  0  0  0  0  0  0  0  0  0
   56.0109   24.9905   47.6153 H   0  0  0  0  0  0  0  0  0  0  0  0
  1  2  1  0
  2  3  2  0
  3  4  1  0
  4  5  2  0
  5  6  1  0
  6  7  1  0
  7  8  2  0
  8  9  1  0
  9 10  1  0
  9 11  2  0
 11 12  1  0
 12 13  1  0
 13 14  2  0
  5 15  1  0
 15  2  1  0
 13  7  1  0
  1 16  1  0
  1 17  1  0
  1 18  1  0
 11 19  1  0
M  CHG  2  10  -1  12  -1
M  END
>  <UniqueID>  (75) 
62

>  <SMILES>  (75) 
Cc1nnc(Sc2nc([O-])c[n-]c2=O)s1

>  <Energy>  (75) 
50.598325480293795

>  <Genealogy>  (75) 
Cc1nnc(Sc2nc([O-])c[n-]c2=O)s1 (protonated)
Cc1nnc(Sc2nc([O-])c[n-]c2=O)s1 (3D coordinates assigned)
Cc1nnc(Sc2nc([O-])c[n-]c2=O)s1 (optimized conformer: 50.598325480293795 kcal/mol)

>  <smiles>  (75) 
Cc1nnc(Sc2nc(O)c[nH]c2=O)s1

>  <score_type>  (75) 
oracle

>  <origin>  (75) 
adg

>  <m_score__min__energy>  (75) 
-11.31

>  <m_primary>  (75) 
energy

$$$$
75:0
     RDKit          3D

 48 51  0  0  0  0  0  0  0  0999 V2000
   58.7340   30.9670   51.4550 O   0  0  0  0  0  0  0  0  0  0  0  0
   59.4440   31.4830   50.5520 C   0  0  0  0  0  0  0  0  0  0  0  0
   60.8660   31.3100   50.6000 N   0  0  0  0  0  0  0  0  0  0  0  0
   61.6690   30.6940   49.5390 C   0  0  1  0  0  0  0  0  0  0  0  0
   60.8320   29.7520   48.7020 C   0  0  0  0  0  0  0  0  0  0  0  0
   61.0920   28.5170   48.6910 O   0  0  0  0  0  0  0  0  0  0  0  0
   59.7360   30.2690   47.9280 N   0  0  0  0  0  0  0  0  0  0  0  0
   58.7600   29.4360   47.2800 C   0  0  0  0  0  0  0  0  0  0  0  0
   58.0430   29.8940   46.1410 C   0  0  0  0  0  0  0  0  0  0  0  0
   57.0870   29.0720   45.5150 C   0  0  0  0  0  0  0  0  0  0  0  0
   56.8800   27.8030   46.0420 C   0  0  0  0  0  0  0  0  0  0  0  0
   56.0160   26.8690   45.6180 N   0  0  0  0  0  0  0  0  0  0  0  0
   56.2440   25.8530   46.4900 C   0  0  0  0  0  0  0  0  0  0  0  0
   55.6180   24.7610   46.4350 O   0  0  0  0  0  0  0  0  0  0  0  0
   57.1940   26.0980   47.4290 N   0  0  0  0  0  0  0  0  0  0  0  0
   57.5800   27.3460   47.1170 C   0  0  0  0  0  0  0  0  0  0  0  0
   58.5380   28.1270   47.7600 C   0  0  0  0  0  0  0  0  0  0  0  0
   62.4000   31.7600   48.7340 C   0  0  0  0  0  0  0  0  0  0  0  0
   62.0210   32.1210   47.4220 C   0  0  0  0  0  0  0  0  0  0  0  0
   62.7010   33.1370   46.7450 C   0  0  0  0  0  0  0  0  0  0  0  0
   63.7540   33.8140   47.3670 C   0  0  0  0  0  0  0  0  0  0  0  0
   64.1370   33.4660   48.6630 C   0  0  0  0  0  0  0  0  0  0  0  0
   63.4650   32.4470   49.3430 C   0  0  0  0  0  0  0  0  0  0  0  0
   58.8570   32.2250   49.5200 O   0  0  0  0  0  0  0  0  0  0  0  0
   59.3450   33.4900   49.0830 C   0  0  0  0  0  0  0  0  0  0  0  0
   58.9440   33.7310   47.6540 C   0  0  0  0  0  0  0  0  0  0  0  0
   57.8000   33.1140   47.1190 C   0  0  0  0  0  0  0  0  0  0  0  0
   57.4100   33.3760   45.8020 C   0  0  0  0  0  0  0  0  0  0  0  0
   58.1530   34.2610   45.0140 C   0  0  0  0  0  0  0  0  0  0  0  0
   59.2900   34.8820   45.5420 C   0  0  0  0  0  0  0  0  0  0  0  0
   59.6830   34.6220   46.8580 C   0  0  0  0  0  0  0  0  0  0  0  0
   62.4517   30.0669   49.9907 H   0  0  0  0  0  0  0  0  0  0  0  0
   59.7040   31.2970   47.7430 H   0  0  0  0  0  0  0  0  0  0  0  0
   58.2374   30.9015   45.7446 H   0  0  0  0  0  0  0  0  0  0  0  0
   56.5228   29.4224   44.6381 H   0  0  0  0  0  0  0  0  0  0  0  0
   59.1051   27.7349   48.6171 H   0  0  0  0  0  0  0  0  0  0  0  0
   61.1863   31.5997   46.9306 H   0  0  0  0  0  0  0  0  0  0  0  0
   62.4067   33.4048   45.7195 H   0  0  0  0  0  0  0  0  0  0  0  0
   64.2803   34.6204   46.8353 H   0  0  0  0  0  0  0  0  0  0  0  0
   64.9695   33.9949   49.1501 H   0  0  0  0  0  0  0  0  0  0  0  0
   63.7722   32.1796   50.3648 H   0  0  0  0  0  0  0  0  0  0  0  0
   58.9227   34.2825   49.7183 H   0  0  0  0  0  0  0  0  0  0  0  0
   60.4425   33.4981   49.1560 H   0  0  0  0  0  0  0  0  0  0  0  0
   57.2096   32.4228   47.7384 H   0  0  0  0  0  0  0  0  0  0  0  0
   56.5179   32.8856   45.3853 H   0  0  0  0  0  0  0  0  0  0  0  0
   57.8434   34.4688   43.9791 H   0  0  0  0  0  0  0  0  0  0  0  0
   59.8755   35.5758   44.9208 H   0  0  0  0  0  0  0  0  0  0  0  0
   60.5740   35.1168   47.2718 H   0  0  0  0  0  0  0  0  0  0  0  0
  1  2  2  0
  2  3  1  0
  3  4  1  0
  4  5  1  0
  5  6  2  0
  5  7  1  0
  7  8  1  0
  8  9  2  0
  9 10  1  0
 10 11  2  0
 11 12  1  0
 12 13  1  0
 13 14  2  0
 13 15  1  0
 15 16  1  0
 16 17  2  0
  4 18  1  0
 18 19  2  0
 19 20  1  0
 20 21  2  0
 21 22  1  0
 22 23  2  0
  2 24  1  0
 24 25  1  0
 25 26  1  0
 26 27  2  0
 27 28  1  0
 28 29  2  0
 29 30  1  0
 30 31  2  0
 17  8  1  0
 23 18  1  0
 31 26  1  0
 16 11  1  0
  4 32  1  1
  7 33  1  0
  9 34  1  0
 10 35  1  0
 17 36  1  0
 19 37  1  0
 20 38  1  0
 21 39  1  0
 22 40  1  0
 23 41  1  0
 25 42  1  0
 25 43  1  0
 27 44  1  0
 28 45  1  0
 29 46  1  0
 30 47  1  0
 31 48  1  0
M  CHG  3   3  -1  12  -1  15  -1
M  END
>  <UniqueID>  (76) 
63

>  <SMILES>  (76) 
O=C([N-][C@@H](C(=O)Nc1ccc2[n-]c(=O)[n-]c2c1)c1ccccc1)OCc1ccccc1

>  <Energy>  (76) 
88.26009771401559

>  <Genealogy>  (76) 
O=C([N-]C(C(=O)Nc1ccc2[n-]c(=O)[n-]c2c1)c1ccccc1)OCc1ccccc1 (protonated)
O=C([N-][C@@H](C(=O)Nc1ccc2[n-]c(=O)[n-]c2c1)c1ccccc1)OCc1ccccc1 (chirality)
O=C([N-][C@@H](C(=O)Nc1ccc2[n-]c(=O)[n-]c2c1)c1ccccc1)OCc1ccccc1 (3D coordinates assigned)
O=C([N-][C@@H](C(=O)Nc1ccc2[n-]c(=O)[n-]c2c1)c1ccccc1)OCc1ccccc1 (optimized conformer: 88.26009771401559 kcal/mol)

>  <smiles>  (76) 
O=C(NC(C(=O)Nc1ccc2[nH]c(=O)[nH]c2c1)c1ccccc1)OCc1ccccc1

>  <score_type>  (76) 
oracle

>  <origin>  (76) 
adg

>  <m_score__min__energy>  (76) 
-12.890000000000001

>  <m_primary>  (76) 
energy

$$$$
76:0
     RDKit          3D

 57 60  0  0  0  0  0  0  0  0999 V2000
   52.8280   20.7630   45.3840 H   0  0  0  0  0  0  0  0  0  0  0  0
   51.9110   21.2030   45.6240 N   0  0  0  0  0  0  0  0  0  0  0  0
   52.0870   22.9030   45.3730 S   0  0  0  0  0  0  0  0  0  0  0  0
   51.2270   23.6450   46.3570 O   0  0  0  0  0  0  0  0  0  0  0  0
   51.6430   23.2570   43.9810 O   0  0  0  0  0  0  0  0  0  0  0  0
   53.7750   23.3560   45.5890 C   0  0  0  0  0  0  0  0  0  0  0  0
   54.3720   23.2780   46.8540 C   0  0  0  0  0  0  0  0  0  0  0  0
   53.7761   22.9625   47.7231 H   0  0  0  0  0  0  0  0  0  0  0  0
   55.7230   23.6000   47.0150 C   0  0  0  0  0  0  0  0  0  0  0  0
   56.1840   23.5467   48.0123 H   0  0  0  0  0  0  0  0  0  0  0  0
   56.4950   23.9920   45.9060 C   0  0  0  0  0  0  0  0  0  0  0  0
   57.8770   24.3580   46.0420 N   0  0  0  0  0  0  0  0  0  0  0  0
   58.3160   25.5300   46.3980 C   0  0  0  0  0  0  0  0  0  0  0  0
   59.5040   25.7390   47.0130 N   0  0  0  0  0  0  0  0  0  0  0  0
   59.5030   27.0810   47.1380 C   0  0  0  0  0  0  0  0  0  0  0  0
   60.4430   27.7570   47.7290 N   0  0  0  0  0  0  0  0  0  0  0  0
   60.2490   28.5840   48.9160 C   0  0  0  0  0  0  0  0  0  0  0  0
   60.6950   28.0846   49.7887 H   0  0  0  0  0  0  0  0  0  0  0  0
   59.1730   28.7313   49.0908 H   0  0  0  0  0  0  0  0  0  0  0  0
   60.9140   29.9200   48.7060 C   0  0  0  0  0  0  0  0  0  0  0  0
   60.9510   30.4570   47.4090 C   0  0  0  0  0  0  0  0  0  0  0  0
   60.4501   29.9263   46.5860 H   0  0  0  0  0  0  0  0  0  0  0  0
   61.6160   31.6560   47.1530 C   0  0  0  0  0  0  0  0  0  0  0  0
   61.6322   32.0666   46.1326 H   0  0  0  0  0  0  0  0  0  0  0  0
   62.2650   32.3410   48.1930 C   0  0  0  0  0  0  0  0  0  0  0  0
   62.9480   33.5490   47.9870 O   0  0  0  0  0  0  0  0  0  0  0  0
   63.4190   33.9990   46.7200 C   0  0  0  0  0  0  0  0  0  0  0  0
   64.2071   34.7520   46.8681 H   0  0  0  0  0  0  0  0  0  0  0  0
   63.8272   33.1469   46.1568 H   0  0  0  0  0  0  0  0  0  0  0  0
   62.5863   34.4456   46.1568 H   0  0  0  0  0  0  0  0  0  0  0  0
   62.2390   31.8060   49.4860 C   0  0  0  0  0  0  0  0  0  0  0  0
   62.7478   32.3385   50.3031 H   0  0  0  0  0  0  0  0  0  0  0  0
   61.5700   30.5940   49.7570 C   0  0  0  0  0  0  0  0  0  0  0  0
   61.5420   30.0430   51.0500 O   0  0  0  0  0  0  0  0  0  0  0  0
   62.4840   29.0930   51.5420 C   0  0  0  0  0  0  0  0  0  0  0  0
   62.4743   29.1028   52.6419 H   0  0  0  0  0  0  0  0  0  0  0  0
   62.2146   28.0891   51.1819 H   0  0  0  0  0  0  0  0  0  0  0  0
   63.4901   29.3539   51.1819 H   0  0  0  0  0  0  0  0  0  0  0  0
   58.3950   27.6410   46.6130 N   0  0  0  0  0  0  0  0  0  0  0  0
   58.0480   29.0320   46.5340 C   0  0  0  0  0  0  0  0  0  0  0  0
   58.0870   29.7360   47.5780 O   0  0  0  0  0  0  0  0  0  0  0  0
   57.6330   29.6550   45.2570 C   0  0  0  0  0  0  0  0  0  0  0  0
   58.4670   30.6070   44.6470 C   0  0  0  0  0  0  0  0  0  0  0  0
   59.4131   30.8943   45.1290 H   0  0  0  0  0  0  0  0  0  0  0  0
   58.1010   31.1910   43.4310 C   0  0  0  0  0  0  0  0  0  0  0  0
   58.7643   31.9278   42.9543 H   0  0  0  0  0  0  0  0  0  0  0  0
   56.8950   30.8410   42.8200 C   0  0  0  0  0  0  0  0  0  0  0  0
   56.6135   31.2956   41.8587 H   0  0  0  0  0  0  0  0  0  0  0  0
   56.0460   29.9140   43.4290 C   0  0  0  0  0  0  0  0  0  0  0  0
   55.0936   29.6449   42.9490 H   0  0  0  0  0  0  0  0  0  0  0  0
   56.4030   29.3270   44.6470 C   0  0  0  0  0  0  0  0  0  0  0  0
   55.5240   28.4320   45.2500 O   0  0  0  0  0  0  0  0  0  0  0  0
   57.6360   26.6660   46.1460 N   0  0  0  0  0  0  0  0  0  0  0  0
   55.8860   24.0990   44.6500 C   0  0  0  0  0  0  0  0  0  0  0  0
   56.4718   24.4455   43.7858 H   0  0  0  0  0  0  0  0  0  0  0  0
   54.5380   23.7680   44.4880 C   0  0  0  0  0  0  0  0  0  0  0  0
   54.0741   23.8311   43.4926 H   0  0  0  0  0  0  0  0  0  0  0  0
  1  2  1  0
  2  3  1  0
  3  4  2  0
  3  5  2  0
  3  6  1  0
  6  7  2  0
  7  8  1  0
  7  9  1  0
  9 10  1  0
  9 11  2  0
 11 12  1  0
 12 13  2  3
 13 14  1  0
 14 15  1  0
 15 16  2  0
 16 17  1  0
 17 18  1  0
 17 19  1  0
 17 20  1  0
 20 21  2  0
 21 22  1  0
 21 23  1  0
 23 24  1  0
 23 25  2  0
 25 26  1  0
 26 27  1  0
 27 28  1  0
 27 29  1  0
 27 30  1  0
 25 31  1  0
 31 32  1  0
 31 33  2  0
 33 34  1  0
 34 35  1  0
 35 36  1  0
 35 37  1  0
 35 38  1  0
 15 39  1  0
 39 40  1  0
 40 41  2  0
 40 42  1  0
 42 43  2  0
 43 44  1  0
 43 45  1  0
 45 46  1  0
 45 47  2  0
 47 48  1  0
 47 49  1  0
 49 50  1  0
 49 51  2  0
 51 52  1  0
 39 53  1  0
 11 54  1  0
 54 55  1  0
 54 56  2  0
 56 57  1  0
 56  6  1  0
 53 13  1  0
 33 20  1  0
 51 42  1  0
M  CHG  4   2  -1  14  -1  52  -1  53  -1
M  END
>  <UniqueID>  (77) 
64

>  <SMILES>  (77) 
COc1ccc(C/N=c2\[n-]c(=Nc3ccc(S([NH-])(=O)=O)cc3)[n-]n2C(=O)c2ccccc2[O-])c(OC)c1

>  <Energy>  (77) 
103.23973761228888

>  <Genealogy>  (77) 
COc1ccc(CN=c2[n-]c(=Nc3ccc(S([NH-])(=O)=O)cc3)[n-]n2C(=O)c2ccccc2[O-])c(OC)c1 (protonated)
COc1ccc(C/N=c2\[n-]c(=Nc3ccc(S([NH-])(=O)=O)cc3)[n-]n2C(=O)c2ccccc2[O-])c(OC)c1 (cis-trans isomerization)
COc1ccc(C/N=c2\[n-]c(=Nc3ccc(S([NH-])(=O)=O)cc3)[n-]n2C(=O)c2ccccc2[O-])c(OC)c1 (3D coordinates assigned)
COc1ccc(C/N=c2\[n-]c(=Nc3ccc(S([NH-])(=O)=O)cc3)[n-]n2C(=O)c2ccccc2[O-])c(OC)c1 (optimized conformer: 103.23973761228888 kcal/mol)

>  <smiles>  (77) 
COc1ccc(CN=c2[nH]c(=Nc3ccc(S(N)(=O)=O)cc3)[nH]n2C(=O)c2ccccc2O)c(OC)c1

>  <score_type>  (77) 
oracle

>  <origin>  (77) 
adg

>  <m_score__min__energy>  (77) 
-15.300000000000001

>  <m_primary>  (77) 
energy

$$$$
77:0
     RDKit          3D

 48 50  0  0  0  0  0  0  0  0999 V2000
   57.7520   31.8190   42.7640 C   0  0  0  0  0  0  0  0  0  0  0  0
   57.5200   33.0840   43.3760 O   0  0  0  0  0  0  0  0  0  0  0  0
   58.0000   33.4510   44.6420 C   0  0  0  0  0  0  0  0  0  0  0  0
   59.2380   34.0990   44.7190 C   0  0  0  0  0  0  0  0  0  0  0  0
   59.7620   34.4840   45.9570 C   0  0  0  0  0  0  0  0  0  0  0  0
   59.0480   34.2280   47.1390 C   0  0  0  0  0  0  0  0  0  0  0  0
   59.6360   34.5940   48.4770 C   0  0  0  0  0  0  0  0  0  0  0  0
   60.2230   33.3690   49.1870 C   0  0  0  0  0  0  0  0  0  0  0  0
   60.2820   32.2180   48.2850 N   0  0  0  0  0  0  0  0  0  0  0  0
   59.3820   31.2170   48.2140 C   0  0  0  0  0  0  0  0  0  0  0  0
   59.8140   30.2670   47.3020 C   0  0  0  0  0  0  0  0  0  0  0  0
   59.1030   29.0270   46.9450 C   0  0  0  0  0  0  0  0  0  0  0  0
   57.9660   29.1050   46.4050 O   0  0  0  0  0  0  0  0  0  0  0  0
   59.6730   27.7420   47.2450 N   0  0  0  0  0  0  0  0  0  0  0  0
   59.2130   26.5070   46.6690 C   0  0  0  0  0  0  0  0  0  0  0  0
   60.1110   25.4870   46.3060 C   0  0  0  0  0  0  0  0  0  0  0  0
   59.6360   24.2900   45.7640 C   0  0  0  0  0  0  0  0  0  0  0  0
   58.2640   24.0920   45.5930 C   0  0  0  0  0  0  0  0  0  0  0  0
   57.3570   25.0870   45.9770 C   0  0  0  0  0  0  0  0  0  0  0  0
   55.6280   24.8410   45.7610 S   0  0  0  0  0  0  0  0  0  0  0  0
   54.7990   26.3350   46.0270 N   0  0  0  0  0  0  0  0  0  0  0  0
   55.1340   23.8110   46.7380 O   0  0  0  0  0  0  0  0  0  0  0  0
   55.3500   24.3550   44.3660 O   0  0  0  0  0  0  0  0  0  0  0  0
   57.8340   26.2910   46.5140 C   0  0  0  0  0  0  0  0  0  0  0  0
   61.0280   30.7090   46.7980 C   0  0  0  0  0  0  0  0  0  0  0  0
   61.2790   31.9050   47.4340 C   0  0  0  0  0  0  0  0  0  0  0  0
   62.4120   32.6860   47.2400 O   0  0  0  0  0  0  0  0  0  0  0  0
   57.8110   33.5710   47.0640 C   0  0  0  0  0  0  0  0  0  0  0  0
   57.2870   33.1880   45.8270 C   0  0  0  0  0  0  0  0  0  0  0  0
   57.8921   31.0550   43.5429 H   0  0  0  0  0  0  0  0  0  0  0  0
   56.8881   31.5505   42.1382 H   0  0  0  0  0  0  0  0  0  0  0  0
   58.6549   31.8745   42.1382 H   0  0  0  0  0  0  0  0  0  0  0  0
   59.8033   34.3071   43.7986 H   0  0  0  0  0  0  0  0  0  0  0  0
   60.7377   34.9896   46.0053 H   0  0  0  0  0  0  0  0  0  0  0  0
   60.4340   35.3359   48.3258 H   0  0  0  0  0  0  0  0  0  0  0  0
   58.8327   35.0053   49.1060 H   0  0  0  0  0  0  0  0  0  0  0  0
   61.2395   33.6069   49.5335 H   0  0  0  0  0  0  0  0  0  0  0  0
   59.5753   33.1139   50.0387 H   0  0  0  0  0  0  0  0  0  0  0  0
   58.4475   31.1625   48.7916 H   0  0  0  0  0  0  0  0  0  0  0  0
   60.3960   27.6860   47.9980 H   0  0  0  0  0  0  0  0  0  0  0  0
   61.1919   25.6323   46.4495 H   0  0  0  0  0  0  0  0  0  0  0  0
   60.3446   23.5013   45.4711 H   0  0  0  0  0  0  0  0  0  0  0  0
   57.8953   23.1524   45.1557 H   0  0  0  0  0  0  0  0  0  0  0  0
   55.1590   27.0140   45.3200 H   0  0  0  0  0  0  0  0  0  0  0  0
   57.1221   27.0731   46.8165 H   0  0  0  0  0  0  0  0  0  0  0  0
   61.6584   30.2094   46.0477 H   0  0  0  0  0  0  0  0  0  0  0  0
   57.2498   33.3559   47.9853 H   0  0  0  0  0  0  0  0  0  0  0  0
   56.3132   32.6788   45.7787 H   0  0  0  0  0  0  0  0  0  0  0  0
  1  2  1  0
  2  3  1  0
  3  4  2  0
  4  5  1  0
  5  6  2  0
  6  7  1  0
  7  8  1  0
  8  9  1  0
  9 10  1  0
 10 11  2  0
 11 12  1  0
 12 13  2  0
 12 14  1  0
 14 15  1  0
 15 16  2  0
 16 17  1  0
 17 18  2  0
 18 19  1  0
 19 20  1  0
 20 21  1  0
 20 22  2  0
 20 23  2  0
 19 24  2  0
 11 25  1  0
 25 26  2  0
 26 27  1  0
  6 28  1  0
 28 29  2  0
 29  3  1  0
 26  9  1  0
 24 15  1  0
  1 30  1  0
  1 31  1  0
  1 32  1  0
  4 33  1  0
  5 34  1  0
  7 35  1  0
  7 36  1  0
  8 37  1  0
  8 38  1  0
 10 39  1  0
 14 40  1  0
 16 41  1  0
 17 42  1  0
 18 43  1  0
 21 44  1  0
 24 45  1  0
 25 46  1  0
 28 47  1  0
 29 48  1  0
M  CHG  2  21  -1  27  -1
M  END
>  <UniqueID>  (78) 
65

>  <SMILES>  (78) 
COc1ccc(CCn2cc(C(=O)Nc3cccc(S([NH-])(=O)=O)c3)cc2[O-])cc1

>  <Energy>  (78) 
75.22251887593333

>  <Genealogy>  (78) 
COc1ccc(CCn2cc(C(=O)Nc3cccc(S([NH-])(=O)=O)c3)cc2[O-])cc1 (protonated)
COc1ccc(CCn2cc(C(=O)Nc3cccc(S([NH-])(=O)=O)c3)cc2[O-])cc1 (3D coordinates assigned)
COc1ccc(CCn2cc(C(=O)Nc3cccc(S([NH-])(=O)=O)c3)cc2[O-])cc1 (optimized conformer: 75.22251887593333 kcal/mol)

>  <smiles>  (78) 
COc1ccc(CCn2cc(C(=O)Nc3cccc(S(N)(=O)=O)c3)cc2O)cc1

>  <score_type>  (78) 
oracle

>  <origin>  (78) 
adg

>  <m_score__min__energy>  (78) 
-11.699999999999999

>  <m_primary>  (78) 
energy

$$$$
78:0
     RDKit          3D

 35 36  0  0  0  0  0  0  0  0999 V2000
   58.8030   27.4730   43.5400 C   0  0  0  0  0  0  0  0  0  0  0  0
   59.0780   28.4100   44.6770 C   0  0  0  0  0  0  0  0  0  0  0  0
   60.3640   28.5790   45.2190 C   0  0  0  0  0  0  0  0  0  0  0  0
   60.4180   29.4910   46.2630 C   0  0  0  0  0  0  0  0  0  0  0  0
   58.8710   30.0900   46.5180 S   0  0  0  0  0  0  0  0  0  0  0  0
   58.1110   29.2010   45.3080 C   0  0  0  0  0  0  0  0  0  0  0  0
   56.6720   29.2890   45.0090 C   0  0  0  0  0  0  0  0  0  0  0  0
   55.9040   28.3150   45.2390 O   0  0  0  0  0  0  0  0  0  0  0  0
   56.1660   30.4710   44.4640 O   0  0  0  0  0  0  0  0  0  0  0  0
   56.8310   31.2020   43.4410 C   0  0  0  0  0  0  0  0  0  0  0  0
   57.5770   32.3310   44.0740 C   0  0  0  0  0  0  0  0  0  0  0  0
   58.4010   32.9980   43.3900 O   0  0  0  0  0  0  0  0  0  0  0  0
   57.2990   32.6950   45.4320 N   0  0  0  0  0  0  0  0  0  0  0  0
   57.6460   34.0070   45.9710 C   0  0  0  0  0  0  0  0  0  0  0  0
   58.9970   33.9490   46.6320 C   0  0  0  0  0  0  0  0  0  0  0  0
   59.1080   33.8460   48.0280 C   0  0  0  0  0  0  0  0  0  0  0  0
   60.3680   33.7520   48.6280 C   0  0  0  0  0  0  0  0  0  0  0  0
   61.5220   33.7510   47.8400 C   0  0  0  0  0  0  0  0  0  0  0  0
   61.4190   33.8470   46.4510 C   0  0  0  0  0  0  0  0  0  0  0  0
   60.1620   33.9460   45.8460 C   0  0  0  0  0  0  0  0  0  0  0  0
   58.5142   26.4889   43.9376 H   0  0  0  0  0  0  0  0  0  0  0  0
   57.9847   27.8741   42.9240 H   0  0  0  0  0  0  0  0  0  0  0  0
   59.7083   27.3683   42.9240 H   0  0  0  0  0  0  0  0  0  0  0  0
   61.2471   28.0374   44.8490 H   0  0  0  0  0  0  0  0  0  0  0  0
   61.3195   29.7730   46.8267 H   0  0  0  0  0  0  0  0  0  0  0  0
   57.5347   30.5429   42.9115 H   0  0  0  0  0  0  0  0  0  0  0  0
   56.0983   31.5920   42.7192 H   0  0  0  0  0  0  0  0  0  0  0  0
   56.7170   32.0540   46.0180 H   0  0  0  0  0  0  0  0  0  0  0  0
   57.6715   34.7421   45.1531 H   0  0  0  0  0  0  0  0  0  0  0  0
   56.8917   34.3037   46.7147 H   0  0  0  0  0  0  0  0  0  0  0  0
   58.2017   33.8392   48.6513 H   0  0  0  0  0  0  0  0  0  0  0  0
   60.4507   33.6787   49.7224 H   0  0  0  0  0  0  0  0  0  0  0  0
   62.5116   33.6746   48.3141 H   0  0  0  0  0  0  0  0  0  0  0  0
   62.3280   33.8448   45.8315 H   0  0  0  0  0  0  0  0  0  0  0  0
   60.0849   34.0218   44.7513 H   0  0  0  0  0  0  0  0  0  0  0  0
  1  2  1  0
  2  3  1  0
  3  4  2  0
  4  5  1  0
  5  6  1  0
  6  7  1  0
  7  8  2  0
  7  9  1  0
  9 10  1  0
 10 11  1  0
 11 12  2  0
 11 13  1  0
 13 14  1  0
 14 15  1  0
 15 16  2  0
 16 17  1  0
 17 18  2  0
 18 19  1  0
 19 20  2  0
  6  2  2  0
 20 15  1  0
  1 21  1  0
  1 22  1  0
  1 23  1  0
  3 24  1  0
  4 25  1  0
 10 26  1  0
 10 27  1  0
 13 28  1  0
 14 29  1  0
 14 30  1  0
 16 31  1  0
 17 32  1  0
 18 33  1  0
 19 34  1  0
 20 35  1  0
M  END
>  <UniqueID>  (79) 
66

>  <SMILES>  (79) 
Cc1ccsc1C(=O)OCC(=O)NCc1ccccc1

>  <Energy>  (79) 
53.78085164496806

>  <Genealogy>  (79) 
Cc1ccsc1C(=O)OCC(=O)NCc1ccccc1 (3D coordinates assigned)
Cc1ccsc1C(=O)OCC(=O)NCc1ccccc1 (optimized conformer: 53.78085164496806 kcal/mol)

>  <smiles>  (79) 
Cc1ccsc1C(=O)OCC(=O)NCc1ccccc1

>  <score_type>  (79) 
oracle

>  <origin>  (79) 
adg

>  <m_score__min__energy>  (79) 
-6.8499999999999996

>  <m_primary>  (79) 
energy

$$$$
79:0
     RDKit          3D

 46 49  0  0  0  0  0  0  0  0999 V2000
   60.3800   32.2360   48.7470 O   0  0  0  0  0  0  0  0  0  0  0  0
   60.5320   33.4250   49.1330 C   0  0  0  0  0  0  0  0  0  0  0  0
   61.3560   33.6820   50.2760 N   0  0  0  0  0  0  0  0  0  0  0  0
   62.7860   33.5910   50.3180 C   0  0  0  0  0  0  0  0  0  0  0  0
   63.5050   32.8100   49.3960 C   0  0  0  0  0  0  0  0  0  0  0  0
   64.8960   32.7230   49.4820 C   0  0  0  0  0  0  0  0  0  0  0  0
   65.5860   33.3990   50.4950 C   0  0  0  0  0  0  0  0  0  0  0  0
   67.3370   33.2640   50.5700 Cl  0  0  0  0  0  0  0  0  0  0  0  0
   64.8710   34.1600   51.4350 C   0  0  0  0  0  0  0  0  0  0  0  0
   65.6950   35.0120   52.7340 Cl  0  0  0  0  0  0  0  0  0  0  0  0
   63.4750   34.2440   51.3470 C   0  0  0  0  0  0  0  0  0  0  0  0
   59.8100   34.4900   48.4950 N   0  0  0  0  0  0  0  0  0  0  0  0
   59.2850   34.4160   47.1590 C   0  0  0  0  0  0  0  0  0  0  0  0
   59.6910   35.3620   46.2070 C   0  0  0  0  0  0  0  0  0  0  0  0
   59.2150   35.2960   44.8950 C   0  0  0  0  0  0  0  0  0  0  0  0
   58.3420   34.2730   44.5160 C   0  0  0  0  0  0  0  0  0  0  0  0
   57.9460   33.3020   45.4480 C   0  0  0  0  0  0  0  0  0  0  0  0
   57.0270   32.1790   45.0410 C   0  0  0  0  0  0  0  0  0  0  0  0
   57.7940   31.0750   44.4400 N   0  0  0  0  0  0  0  0  0  0  0  0
   58.9030   30.6250   45.3240 C   0  0  0  0  0  0  0  0  0  0  0  0
   58.9330   29.1200   45.3720 C   0  0  0  0  0  0  0  0  0  0  0  0
   59.9340   28.3520   45.9790 C   0  0  0  0  0  0  0  0  0  0  0  0
   59.8190   26.9530   45.9760 C   0  0  0  0  0  0  0  0  0  0  0  0
   58.7070   26.3360   45.3720 C   0  0  0  0  0  0  0  0  0  0  0  0
   57.7080   27.1170   44.7740 C   0  0  0  0  0  0  0  0  0  0  0  0
   57.8510   28.5040   44.7960 C   0  0  0  0  0  0  0  0  0  0  0  0
   56.7950   29.6750   44.1360 S   0  0  0  0  0  0  0  0  0  0  0  0
   55.4860   29.7150   44.8770 O   0  0  0  0  0  0  0  0  0  0  0  0
   56.5860   29.4800   42.6620 O   0  0  0  0  0  0  0  0  0  0  0  0
   58.4200   33.3780   46.7670 C   0  0  0  0  0  0  0  0  0  0  0  0
   62.9698   32.2656   48.6041 H   0  0  0  0  0  0  0  0  0  0  0  0
   65.4526   32.1199   48.7496 H   0  0  0  0  0  0  0  0  0  0  0  0
   62.9157   34.8280   52.0928 H   0  0  0  0  0  0  0  0  0  0  0  0
   59.5910   35.3370   49.0650 H   0  0  0  0  0  0  0  0  0  0  0  0
   60.3892   36.1617   46.4951 H   0  0  0  0  0  0  0  0  0  0  0  0
   59.5282   36.0510   44.1589 H   0  0  0  0  0  0  0  0  0  0  0  0
   57.9641   34.2288   43.4839 H   0  0  0  0  0  0  0  0  0  0  0  0
   56.4941   31.8079   45.9289 H   0  0  0  0  0  0  0  0  0  0  0  0
   56.3097   32.5586   44.2984 H   0  0  0  0  0  0  0  0  0  0  0  0
   59.8598   30.9977   44.9294 H   0  0  0  0  0  0  0  0  0  0  0  0
   58.7440   31.0194   46.3385 H   0  0  0  0  0  0  0  0  0  0  0  0
   60.7995   28.8387   46.4522 H   0  0  0  0  0  0  0  0  0  0  0  0
   60.5996   26.3373   46.4467 H   0  0  0  0  0  0  0  0  0  0  0  0
   58.6218   25.2393   45.3693 H   0  0  0  0  0  0  0  0  0  0  0  0
   56.8336   26.6476   44.2995 H   0  0  0  0  0  0  0  0  0  0  0  0
   58.1122   32.6188   47.5011 H   0  0  0  0  0  0  0  0  0  0  0  0
  1  2  2  0
  2  3  1  0
  3  4  1  0
  4  5  2  0
  5  6  1  0
  6  7  2  0
  7  8  1  0
  7  9  1  0
  9 10  1  0
  9 11  2  0
  2 12  1  0
 12 13  1  0
 13 14  2  0
 14 15  1  0
 15 16  2  0
 16 17  1  0
 17 18  1  0
 18 19  1  0
 19 20  1  0
 20 21  1  0
 21 22  2  0
 22 23  1  0
 23 24  2  0
 24 25  1  0
 25 26  2  0
 26 27  1  0
 27 28  2  0
 27 29  2  0
 17 30  2  0
 11  4  1  0
 30 13  1  0
 27 19  1  0
 26 21  1  0
  5 31  1  0
  6 32  1  0
 11 33  1  0
 12 34  1  0
 14 35  1  0
 15 36  1  0
 16 37  1  0
 18 38  1  0
 18 39  1  0
 20 40  1  0
 20 41  1  0
 22 42  1  0
 23 43  1  0
 24 44  1  0
 25 45  1  0
 30 46  1  0
M  CHG  1   3  -1
M  END
>  <UniqueID>  (80) 
67

>  <SMILES>  (80) 
O=C([N-]c1ccc(Cl)c(Cl)c1)Nc1cccc(CN2Cc3ccccc3S2(=O)=O)c1

>  <Energy>  (80) 
71.31319617321755

>  <Genealogy>  (80) 
O=C([N-]c1ccc(Cl)c(Cl)c1)Nc1cccc(CN2Cc3ccccc3S2(=O)=O)c1 (protonated)
O=C([N-]c1ccc(Cl)c(Cl)c1)Nc1cccc(CN2Cc3ccccc3S2(=O)=O)c1 (3D coordinates assigned)
O=C([N-]c1ccc(Cl)c(Cl)c1)Nc1cccc(CN2Cc3ccccc3S2(=O)=O)c1 (nonaromatic ring conformer: 71.31319617321755 kcal/mol)

>  <smiles>  (80) 
O=C(Nc1cccc(CN2Cc3ccccc3S2(=O)=O)c1)Nc1ccc(Cl)c(Cl)c1

>  <score_type>  (80) 
oracle

>  <origin>  (80) 
adg

>  <m_score__min__energy>  (80) 
-11.33

>  <m_primary>  (80) 
energy

$$$$
80:0
     RDKit          3D

 43 45  0  0  0  0  0  0  0  0999 V2000
   57.0000   32.8540   52.4300 O   0  0  0  0  0  0  0  0  0  0  0  0
   58.1670   32.9990   51.9800 C   0  0  0  0  0  0  0  0  0  0  0  0
   58.8300   34.2020   52.1990 O   0  0  0  0  0  0  0  0  0  0  0  0
   58.8260   31.9060   51.2330 C   0  0  0  0  0  0  0  0  0  0  0  0
   60.2100   31.9360   50.9880 C   0  0  0  0  0  0  0  0  0  0  0  0
   60.8280   30.9020   50.2800 C   0  0  0  0  0  0  0  0  0  0  0  0
   60.0750   29.8300   49.7900 C   0  0  0  0  0  0  0  0  0  0  0  0
   60.7420   28.7800   49.0750 N   0  0  0  0  0  0  0  0  0  0  0  0
   60.1150   27.6450   48.4630 C   0  0  0  0  0  0  0  0  0  0  0  0
   60.5310   26.4940   48.7520 O   0  0  0  0  0  0  0  0  0  0  0  0
   59.0710   27.8070   47.4260 C   0  0  0  0  0  0  0  0  0  0  0  0
   58.0090   26.8870   47.3880 C   0  0  0  0  0  0  0  0  0  0  0  0
   57.0120   26.9720   46.4030 C   0  0  0  0  0  0  0  0  0  0  0  0
   55.9000   25.9960   46.3680 C   0  0  0  0  0  0  0  0  0  0  0  0
   54.7590   26.3390   45.9580 O   0  0  0  0  0  0  0  0  0  0  0  0
   56.0990   24.6860   46.7890 O   0  0  0  0  0  0  0  0  0  0  0  0
   57.0850   27.9950   45.4470 C   0  0  0  0  0  0  0  0  0  0  0  0
   58.1390   28.9100   45.4690 C   0  0  0  0  0  0  0  0  0  0  0  0
   59.1430   28.8240   46.4450 C   0  0  0  0  0  0  0  0  0  0  0  0
   60.2420   29.7500   46.4160 N   0  0  0  0  0  0  0  0  0  0  0  0
   60.1340   31.0940   46.9150 C   0  0  0  0  0  0  0  0  0  0  0  0
   59.0040   31.5560   47.2310 O   0  0  0  0  0  0  0  0  0  0  0  0
   61.3420   31.9390   47.0540 C   0  0  0  0  0  0  0  0  0  0  0  0
   62.5330   31.3600   47.5300 C   0  0  0  0  0  0  0  0  0  0  0  0
   63.6860   32.1320   47.6900 C   0  0  0  0  0  0  0  0  0  0  0  0
   63.6680   33.4900   47.3770 C   0  0  0  0  0  0  0  0  0  0  0  0
   62.4960   34.0810   46.9000 C   0  0  0  0  0  0  0  0  0  0  0  0
   61.3330   33.3190   46.7350 C   0  0  0  0  0  0  0  0  0  0  0  0
   59.9130   34.1220   46.0700 Cl  0  0  0  0  0  0  0  0  0  0  0  0
   58.6960   29.7790   50.0570 C   0  0  0  0  0  0  0  0  0  0  0  0
   58.0770   30.8130   50.7660 C   0  0  0  0  0  0  0  0  0  0  0  0
   60.8112   32.7802   51.3566 H   0  0  0  0  0  0  0  0  0  0  0  0
   61.9139   30.9313   50.1068 H   0  0  0  0  0  0  0  0  0  0  0  0
   57.9582   26.0877   48.1420 H   0  0  0  0  0  0  0  0  0  0  0  0
   56.3064   28.0771   44.6743 H   0  0  0  0  0  0  0  0  0  0  0  0
   58.1828   29.7074   44.7125 H   0  0  0  0  0  0  0  0  0  0  0  0
   61.1310   29.4660   45.9490 H   0  0  0  0  0  0  0  0  0  0  0  0
   62.5562   30.2887   47.7786 H   0  0  0  0  0  0  0  0  0  0  0  0
   64.6102   31.6672   48.0638 H   0  0  0  0  0  0  0  0  0  0  0  0
   64.5768   34.0962   47.5057 H   0  0  0  0  0  0  0  0  0  0  0  0
   62.4865   35.1527   46.6522 H   0  0  0  0  0  0  0  0  0  0  0  0
   58.1015   28.9223   49.7068 H   0  0  0  0  0  0  0  0  0  0  0  0
   56.9950   30.7703   50.9597 H   0  0  0  0  0  0  0  0  0  0  0  0
  1  2  2  0
  2  3  1  0
  2  4  1  0
  4  5  2  0
  5  6  1  0
  6  7  2  0
  7  8  1  0
  8  9  1  0
  9 10  2  0
  9 11  1  0
 11 12  2  0
 12 13  1  0
 13 14  1  0
 14 15  2  0
 14 16  1  0
 13 17  2  0
 17 18  1  0
 18 19  2  0
 19 20  1  0
 20 21  1  0
 21 22  2  0
 21 23  1  0
 23 24  2  0
 24 25  1  0
 25 26  2  0
 26 27  1  0
 27 28  2  0
 28 29  1  0
  7 30  1  0
 30 31  2  0
 31  4  1  0
 19 11  1  0
 28 23  1  0
  5 32  1  0
  6 33  1  0
 12 34  1  0
 17 35  1  0
 18 36  1  0
 20 37  1  0
 24 38  1  0
 25 39  1  0
 26 40  1  0
 27 41  1  0
 30 42  1  0
 31 43  1  0
M  CHG  3   3  -1   8  -1  16  -1
M  END
>  <UniqueID>  (81) 
68

>  <SMILES>  (81) 
O=C([O-])c1ccc([N-]C(=O)c2cc(C(=O)[O-])ccc2NC(=O)c2ccccc2Cl)cc1

>  <Energy>  (81) 
65.86457702098339

>  <Genealogy>  (81) 
O=C([O-])c1ccc([N-]C(=O)c2cc(C(=O)[O-])ccc2NC(=O)c2ccccc2Cl)cc1 (protonated)
O=C([O-])c1ccc([N-]C(=O)c2cc(C(=O)[O-])ccc2NC(=O)c2ccccc2Cl)cc1 (3D coordinates assigned)
O=C([O-])c1ccc([N-]C(=O)c2cc(C(=O)[O-])ccc2NC(=O)c2ccccc2Cl)cc1 (optimized conformer: 65.86457702098339 kcal/mol)

>  <smiles>  (81) 
O=C(O)c1ccc(NC(=O)c2cc(C(=O)O)ccc2NC(=O)c2ccccc2Cl)cc1

>  <score_type>  (81) 
oracle

>  <origin>  (81) 
adg

>  <m_score__min__energy>  (81) 
-13.359999999999999

>  <m_primary>  (81) 
energy

$$$$
81:0
     RDKit          3D

 69 73  0  0  0  0  0  0  0  0999 V2000
   56.0830   30.7470   52.0060 C   0  0  0  0  0  0  0  0  0  0  0  0
   57.4110   31.3250   51.5320 C   0  0  0  0  0  0  0  0  0  0  0  0
   57.9960   30.4890   50.5350 O   0  0  0  0  0  0  0  0  0  0  0  0
   59.3490   30.1220   50.5330 C   0  0  0  0  0  0  0  0  0  0  0  0
   59.6980   28.9930   50.9750 O   0  0  0  0  0  0  0  0  0  0  0  0
   60.3360   31.0360   50.0220 N   0  0  0  0  0  0  0  0  0  0  0  0
   59.9550   32.4000   49.6410 C   0  0  0  0  0  0  0  0  0  0  0  0
   61.1740   33.3270   49.7380 C   0  0  0  0  0  0  0  0  0  0  0  0
   62.3230   32.8900   48.8730 N   0  0  0  0  0  0  0  0  0  0  0  0
   63.5870   33.3490   49.5070 C   0  0  0  0  0  0  0  0  0  0  0  0
   62.2080   33.4650   47.4900 C   0  0  0  0  0  0  0  0  0  0  0  0
   60.9360   33.1130   46.7310 C   0  0  0  0  0  0  0  0  0  0  0  0
   60.3050   34.0750   45.9240 C   0  0  0  0  0  0  0  0  0  0  0  0
   59.1240   33.7720   45.2440 C   0  0  0  0  0  0  0  0  0  0  0  0
   58.5480   32.5060   45.3640 C   0  0  0  0  0  0  0  0  0  0  0  0
   57.3950   32.2170   44.6840 N   0  0  0  0  0  0  0  0  0  0  0  0
   56.7940   30.9930   44.7570 C   0  0  0  0  0  0  0  0  0  0  0  0
   55.6170   30.7210   44.0550 O   0  0  0  0  0  0  0  0  0  0  0  0
   55.5410   29.7300   43.0370 C   0  0  0  0  0  0  0  0  0  0  0  0
   57.3860   30.0160   45.5520 C   0  0  0  0  0  0  0  0  0  0  0  0
   57.0300   28.7080   45.7970 C   0  0  0  0  0  0  0  0  0  0  0  0
   55.9250   28.0560   45.2630 O   0  0  0  0  0  0  0  0  0  0  0  0
   57.9250   28.1340   46.6340 N   0  0  0  0  0  0  0  0  0  0  0  0
   57.8760   26.7610   47.1400 C   0  0  0  0  0  0  0  0  0  0  0  0
   57.3290   25.8310   46.0890 C   0  0  0  0  0  0  0  0  0  0  0  0
   56.1990   25.0430   46.3650 C   0  0  0  0  0  0  0  0  0  0  0  0
   55.6820   24.1830   45.3900 C   0  0  0  0  0  0  0  0  0  0  0  0
   56.2900   24.1040   44.1350 C   0  0  0  0  0  0  0  0  0  0  0  0
   57.4160   24.8810   43.8520 C   0  0  0  0  0  0  0  0  0  0  0  0
   57.9350   25.7430   44.8240 C   0  0  0  0  0  0  0  0  0  0  0  0
   58.8470   29.0880   46.9250 C   0  0  0  0  0  0  0  0  0  0  0  0
   59.9420   28.8960   47.7660 O   0  0  0  0  0  0  0  0  0  0  0  0
   58.5380   30.2700   46.2590 C   0  0  0  0  0  0  0  0  0  0  0  0
   59.1630   31.5260   46.1920 C   0  0  0  0  0  0  0  0  0  0  0  0
   60.3410   31.8470   46.8850 C   0  0  0  0  0  0  0  0  0  0  0  0
   62.3920   31.3920   48.7360 C   0  0  0  0  0  0  0  0  0  0  0  0
   61.7430   30.6360   49.9050 C   0  0  0  0  0  0  0  0  0  0  0  0
   56.0593   30.7367   53.1057 H   0  0  0  0  0  0  0  0  0  0  0  0
   55.2572   31.3671   51.6272 H   0  0  0  0  0  0  0  0  0  0  0  0
   55.9740   29.7200   51.6272 H   0  0  0  0  0  0  0  0  0  0  0  0
   57.2391   32.3258   51.1091 H   0  0  0  0  0  0  0  0  0  0  0  0
   58.0969   31.3866   52.3898 H   0  0  0  0  0  0  0  0  0  0  0  0
   59.5787   32.3987   48.6074 H   0  0  0  0  0  0  0  0  0  0  0  0
   59.1695   32.7609   50.3213 H   0  0  0  0  0  0  0  0  0  0  0  0
   60.8694   34.3380   49.4295 H   0  0  0  0  0  0  0  0  0  0  0  0
   61.5223   33.2995   50.7810 H   0  0  0  0  0  0  0  0  0  0  0  0
   63.4830   33.3112   50.6014 H   0  0  0  0  0  0  0  0  0  0  0  0
   64.4132   32.6935   49.1943 H   0  0  0  0  0  0  0  0  0  0  0  0
   63.8000   34.3819   49.1943 H   0  0  0  0  0  0  0  0  0  0  0  0
   62.2586   34.5606   47.5745 H   0  0  0  0  0  0  0  0  0  0  0  0
   63.0332   33.0228   46.9125 H   0  0  0  0  0  0  0  0  0  0  0  0
   60.7465   35.0778   45.8270 H   0  0  0  0  0  0  0  0  0  0  0  0
   58.6454   34.5338   44.6111 H   0  0  0  0  0  0  0  0  0  0  0  0
   55.4647   28.7347   43.4991 H   0  0  0  0  0  0  0  0  0  0  0  0
   54.6543   29.9132   42.4124 H   0  0  0  0  0  0  0  0  0  0  0  0
   56.4453   29.7759   42.4124 H   0  0  0  0  0  0  0  0  0  0  0  0
   58.8916   26.4398   47.4145 H   0  0  0  0  0  0  0  0  0  0  0  0
   57.2175   26.7295   48.0206 H   0  0  0  0  0  0  0  0  0  0  0  0
   55.7183   25.1025   47.3526 H   0  0  0  0  0  0  0  0  0  0  0  0
   54.7966   23.5690   45.6118 H   0  0  0  0  0  0  0  0  0  0  0  0
   55.8817   23.4290   43.3684 H   0  0  0  0  0  0  0  0  0  0  0  0
   57.8950   24.8150   42.8640 H   0  0  0  0  0  0  0  0  0  0  0  0
   58.8209   26.3543   44.5973 H   0  0  0  0  0  0  0  0  0  0  0  0
   59.8410   28.8180   48.7690 H   0  0  0  0  0  0  0  0  0  0  0  0
   60.8019   31.1042   47.5527 H   0  0  0  0  0  0  0  0  0  0  0  0
   61.8776   31.1039   47.8074 H   0  0  0  0  0  0  0  0  0  0  0  0
   63.4573   31.1181   48.7271 H   0  0  0  0  0  0  0  0  0  0  0  0
   61.8027   29.5533   49.7203 H   0  0  0  0  0  0  0  0  0  0  0  0
   62.2728   30.8773   50.8383 H   0  0  0  0  0  0  0  0  0  0  0  0
  1  2  1  0
  2  3  1  0
  3  4  1  0
  4  5  2  0
  4  6  1  0
  6  7  1  0
  7  8  1  0
  8  9  1  0
  9 10  1  0
  9 11  1  0
 11 12  1  0
 12 13  2  0
 13 14  1  0
 14 15  2  0
 15 16  1  0
 16 17  2  0
 17 18  1  0
 18 19  1  0
 17 20  1  0
 20 21  2  0
 21 22  1  0
 21 23  1  0
 23 24  1  0
 24 25  1  0
 25 26  2  0
 26 27  1  0
 27 28  2  0
 28 29  1  0
 29 30  2  0
 23 31  1  0
 31 32  1  0
 31 33  2  0
 33 34  1  0
 34 35  2  0
  9 36  1  0
 36 37  1  0
 37  6  1  0
 35 12  1  0
 34 15  1  0
 33 20  1  0
 30 25  1  0
  1 38  1  0
  1 39  1  0
  1 40  1  0
  2 41  1  0
  2 42  1  0
  7 43  1  0
  7 44  1  0
  8 45  1  0
  8 46  1  0
 10 47  1  0
 10 48  1  0
 10 49  1  0
 11 50  1  0
 11 51  1  0
 13 52  1  0
 14 53  1  0
 19 54  1  0
 19 55  1  0
 19 56  1  0
 24 57  1  0
 24 58  1  0
 26 59  1  0
 27 60  1  0
 28 61  1  0
 29 62  1  0
 30 63  1  0
 32 64  1  0
 35 65  1  0
 36 66  1  0
 36 67  1  0
 37 68  1  0
 37 69  1  0
M  CHG  2   9   1  22  -1
M  END
>  <UniqueID>  (82) 
69

>  <SMILES>  (82) 
CCOC(=O)N1CC[N+](C)(Cc2ccc3nc(OC)c4c([O-])n(Cc5ccccc5)c(O)c4c3c2)CC1

>  <Energy>  (82) 
124.74988367028982

>  <Genealogy>  (82) 
CCOC(=O)N1CC[N+](C)(Cc2ccc3nc(OC)c4c([O-])n(Cc5ccccc5)c(O)c4c3c2)CC1 (protonated)
CCOC(=O)N1CC[N+](C)(Cc2ccc3nc(OC)c4c([O-])n(Cc5ccccc5)c(O)c4c3c2)CC1 (3D coordinates assigned)
CCOC(=O)N1CC[N+](C)(Cc2ccc3nc(OC)c4c([O-])n(Cc5ccccc5)c(O)c4c3c2)CC1 (nonaromatic ring conformer: 124.74988367028982 kcal/mol)

>  <smiles>  (82) 
CCOC(=O)N1CC[N+](C)(Cc2ccc3nc(OC)c4c(O)n(Cc5ccccc5)c(O)c4c3c2)CC1

>  <score_type>  (82) 
oracle

>  <origin>  (82) 
adg

>  <m_score__min__energy>  (82) 
-9.8599999999999994

>  <m_primary>  (82) 
energy

$$$$
82:0
     RDKit          3D

 54 55  0  0  0  0  0  0  0  0999 V2000
   58.9300   34.2790   46.9310 C   0  0  0  0  0  0  0  0  0  0  0  0
   59.2690   34.6150   45.4800 C   0  0  0  0  0  0  0  0  0  0  0  0
   58.5320   33.7020   44.5000 C   0  0  0  0  0  0  0  0  0  0  0  0
   57.0180   33.0040   45.2550 S   0  0  0  0  0  0  0  0  0  0  0  0
   57.3090   31.3360   44.6610 C   0  0  0  0  0  0  0  0  0  0  0  0
   58.0410   30.4680   45.4110 N   0  0  0  0  0  0  0  0  0  0  0  0
   58.2820   29.2000   44.9820 C   0  0  0  0  0  0  0  0  0  0  0  0
   59.0890   28.2870   45.8100 C   0  0  0  0  0  0  0  0  0  0  0  0
   60.2120   28.6880   46.2190 O   0  0  0  0  0  0  0  0  0  0  0  0
   58.5820   27.0030   46.2380 N   0  0  0  0  0  0  0  0  0  0  0  0
   59.3250   25.7860   45.8740 C   0  0  0  0  0  0  0  0  0  0  0  0
   60.7720   25.8630   46.3570 C   0  0  0  0  0  0  0  0  0  0  0  0
   57.4140   26.9050   47.1260 C   0  0  0  0  0  0  0  0  0  0  0  0
   56.2350   26.3580   46.3800 C   0  0  0  0  0  0  0  0  0  0  0  0
   55.5730   27.1170   45.6180 O   0  0  0  0  0  0  0  0  0  0  0  0
   55.9070   24.9680   46.4820 N   0  0  0  0  0  0  0  0  0  0  0  0
   56.4040   23.9530   45.5970 C   0  0  0  0  0  0  0  0  0  0  0  0
   56.2570   24.1360   44.2170 C   0  0  0  0  0  0  0  0  0  0  0  0
   56.6720   23.1450   43.3250 C   0  0  0  0  0  0  0  0  0  0  0  0
   57.2490   21.9690   43.8060 C   0  0  0  0  0  0  0  0  0  0  0  0
   57.4350   21.7900   45.1770 C   0  0  0  0  0  0  0  0  0  0  0  0
   57.0410   22.7930   46.0860 C   0  0  0  0  0  0  0  0  0  0  0  0
   57.2900   22.6820   47.4650 O   0  0  0  0  0  0  0  0  0  0  0  0
   56.4520   22.0000   48.3920 C   0  0  0  0  0  0  0  0  0  0  0  0
   55.0660   22.6210   48.3610 C   0  0  0  0  0  0  0  0  0  0  0  0
   57.7550   28.7720   43.7510 C   0  0  0  0  0  0  0  0  0  0  0  0
   58.0360   27.1510   43.1250 Cl  0  0  0  0  0  0  0  0  0  0  0  0
   57.0110   29.6810   42.9980 C   0  0  0  0  0  0  0  0  0  0  0  0
   56.8060   30.9430   43.4590 N   0  0  0  0  0  0  0  0  0  0  0  0
   59.5483   34.8919   47.6034 H   0  0  0  0  0  0  0  0  0  0  0  0
   57.8665   34.4895   47.1173 H   0  0  0  0  0  0  0  0  0  0  0  0
   59.1310   33.2137   47.1173 H   0  0  0  0  0  0  0  0  0  0  0  0
   58.9826   35.6580   45.2795 H   0  0  0  0  0  0  0  0  0  0  0  0
   60.3499   34.4682   45.3381 H   0  0  0  0  0  0  0  0  0  0  0  0
   58.2531   34.2832   43.6087 H   0  0  0  0  0  0  0  0  0  0  0  0
   59.2002   32.8714   44.2285 H   0  0  0  0  0  0  0  0  0  0  0  0
   58.8374   24.9151   46.3362 H   0  0  0  0  0  0  0  0  0  0  0  0
   59.3260   25.6906   44.7781 H   0  0  0  0  0  0  0  0  0  0  0  0
   60.7919   25.8641   47.4568 H   0  0  0  0  0  0  0  0  0  0  0  0
   61.3308   24.9933   45.9810 H   0  0  0  0  0  0  0  0  0  0  0  0
   61.2354   26.7871   45.9810 H   0  0  0  0  0  0  0  0  0  0  0  0
   57.6528   26.2369   47.9666 H   0  0  0  0  0  0  0  0  0  0  0  0
   57.1650   27.9090   47.5001 H   0  0  0  0  0  0  0  0  0  0  0  0
   55.8120   25.0658   43.8330 H   0  0  0  0  0  0  0  0  0  0  0  0
   56.5440   23.2915   42.2423 H   0  0  0  0  0  0  0  0  0  0  0  0
   57.5578   21.1815   43.1027 H   0  0  0  0  0  0  0  0  0  0  0  0
   57.8914   20.8615   45.5507 H   0  0  0  0  0  0  0  0  0  0  0  0
   56.3856   20.9374   48.1155 H   0  0  0  0  0  0  0  0  0  0  0  0
   56.8734   22.0857   49.4044 H   0  0  0  0  0  0  0  0  0  0  0  0
   54.7121   22.7795   49.3904 H   0  0  0  0  0  0  0  0  0  0  0  0
   55.1084   23.5862   47.8351 H   0  0  0  0  0  0  0  0  0  0  0  0
   54.3739   21.9469   47.8351 H   0  0  0  0  0  0  0  0  0  0  0  0
   56.5894   29.3755   42.0290 H   0  0  0  0  0  0  0  0  0  0  0  0
   56.2470   31.6120   42.8830 H   0  0  0  0  0  0  0  0  0  0  0  0
  1  2  1  0
  2  3  1  0
  3  4  1  0
  4  5  1  0
  5  6  2  0
  6  7  1  0
  7  8  1  0
  8  9  2  0
  8 10  1  0
 10 11  1  0
 11 12  1  0
 10 13  1  0
 13 14  1  0
 14 15  2  0
 14 16  1  0
 16 17  1  0
 17 18  2  0
 18 19  1  0
 19 20  2  0
 20 21  1  0
 21 22  2  0
 22 23  1  0
 23 24  1  0
 24 25  1  0
  7 26  2  0
 26 27  1  0
 26 28  1  0
 28 29  2  0
 29  5  1  0
 22 17  1  0
  1 30  1  0
  1 31  1  0
  1 32  1  0
  2 33  1  0
  2 34  1  0
  3 35  1  0
  3 36  1  0
 11 37  1  0
 11 38  1  0
 12 39  1  0
 12 40  1  0
 12 41  1  0
 13 42  1  0
 13 43  1  0
 18 44  1  0
 19 45  1  0
 20 46  1  0
 21 47  1  0
 24 48  1  0
 24 49  1  0
 25 50  1  0
 25 51  1  0
 25 52  1  0
 28 53  1  0
 29 54  1  0
M  CHG  2  16  -1  29   1
M  END
>  <UniqueID>  (83) 
70

>  <SMILES>  (83) 
CCCSc1nc(C(=O)N(CC)CC(=O)[N-]c2ccccc2OCC)c(Cl)c[nH+]1

>  <Energy>  (83) 
45.132470036339214

>  <Genealogy>  (83) 
CCCSc1nc(C(=O)N(CC)CC(=O)[N-]c2ccccc2OCC)c(Cl)c[nH+]1 (protonated)
CCCSc1nc(C(=O)N(CC)CC(=O)[N-]c2ccccc2OCC)c(Cl)c[nH+]1 (3D coordinates assigned)
CCCSc1nc(C(=O)N(CC)CC(=O)[N-]c2ccccc2OCC)c(Cl)c[nH+]1 (optimized conformer: 45.132470036339214 kcal/mol)

>  <smiles>  (83) 
CCCSc1ncc(Cl)c(C(=O)N(CC)CC(=O)Nc2ccccc2OCC)n1

>  <score_type>  (83) 
oracle

>  <origin>  (83) 
adg

>  <m_score__min__energy>  (83) 
-9.3100000000000005

>  <m_primary>  (83) 
energy

$$$$
83:0
     RDKit          3D

 44 46  0  0  0  0  0  0  0  0999 V2000
   53.1990   22.1340   47.2170 C   0  0  0  0  0  0  0  0  0  0  0  0
   53.0400   22.1640   45.7700 N   0  0  0  0  0  0  0  0  0  0  0  0
   52.7930   23.3690   45.0450 C   0  0  0  0  0  0  0  0  0  0  0  0
   51.9090   23.3680   44.1450 O   0  0  0  0  0  0  0  0  0  0  0  0
   53.5500   24.5540   45.3400 N   0  0  0  0  0  0  0  0  0  0  0  0
   54.8470   24.6320   45.4180 C   0  0  0  0  0  0  0  0  0  0  0  0
   55.5150   25.2080   46.4400 N   0  0  0  0  0  0  0  0  0  0  0  0
   56.8610   25.1840   46.2350 C   0  0  0  0  0  0  0  0  0  0  0  0
   57.8070   25.8590   47.1860 C   0  0  0  0  0  0  0  0  0  0  0  0
   58.3640   27.1550   46.5840 C   0  0  0  0  0  0  0  0  0  0  0  0
   57.3490   28.2100   46.5920 N   0  0  0  0  0  0  0  0  0  0  0  0
   57.0850   29.0120   45.6010 C   0  0  0  0  0  0  0  0  0  0  0  0
   55.9090   28.9030   44.9200 N   0  0  0  0  0  0  0  0  0  0  0  0
   55.6170   29.7050   43.8650 C   0  0  0  0  0  0  0  0  0  0  0  0
   56.5450   30.6580   43.4560 C   0  0  0  0  0  0  0  0  0  0  0  0
   57.7240   30.7690   44.1180 N   0  0  0  0  0  0  0  0  0  0  0  0
   58.0300   29.9800   45.1870 C   0  0  0  0  0  0  0  0  0  0  0  0
   59.3600   30.1280   45.8290 C   0  0  0  0  0  0  0  0  0  0  0  0
   60.4000   29.7530   45.2200 O   0  0  0  0  0  0  0  0  0  0  0  0
   59.4680   30.6710   47.1570 N   0  0  0  0  0  0  0  0  0  0  0  0
   60.6870   31.1960   47.7100 C   0  0  0  0  0  0  0  0  0  0  0  0
   61.2460   30.6710   48.8930 C   0  0  0  0  0  0  0  0  0  0  0  0
   62.4470   31.1840   49.3930 C   0  0  0  0  0  0  0  0  0  0  0  0
   63.1070   32.2140   48.7180 C   0  0  0  0  0  0  0  0  0  0  0  0
   64.2690   32.7100   49.2150 F   0  0  0  0  0  0  0  0  0  0  0  0
   62.5690   32.7290   47.5320 C   0  0  0  0  0  0  0  0  0  0  0  0
   63.3890   34.0240   46.6750 Cl  0  0  0  0  0  0  0  0  0  0  0  0
   61.3690   32.2130   47.0250 C   0  0  0  0  0  0  0  0  0  0  0  0
   57.2650   24.6000   45.0360 C   0  0  0  0  0  0  0  0  0  0  0  0
   55.8850   24.0820   44.2190 S   0  0  0  0  0  0  0  0  0  0  0  0
   52.2262   22.3175   47.6966 H   0  0  0  0  0  0  0  0  0  0  0  0
   53.5789   21.1483   47.5238 H   0  0  0  0  0  0  0  0  0  0  0  0
   53.9120   22.9135   47.5238 H   0  0  0  0  0  0  0  0  0  0  0  0
   57.2717   26.0965   48.1172 H   0  0  0  0  0  0  0  0  0  0  0  0
   58.6469   25.1774   47.3859 H   0  0  0  0  0  0  0  0  0  0  0  0
   59.2309   27.4841   47.1757 H   0  0  0  0  0  0  0  0  0  0  0  0
   58.6624   26.9606   45.5432 H   0  0  0  0  0  0  0  0  0  0  0  0
   54.6566   29.6029   43.3385 H   0  0  0  0  0  0  0  0  0  0  0  0
   56.3243   31.3161   42.6027 H   0  0  0  0  0  0  0  0  0  0  0  0
   58.6270   30.6420   47.7770 H   0  0  0  0  0  0  0  0  0  0  0  0
   60.7354   29.8546   49.4248 H   0  0  0  0  0  0  0  0  0  0  0  0
   62.8735   30.7752   50.3209 H   0  0  0  0  0  0  0  0  0  0  0  0
   60.9589   32.6078   46.0838 H   0  0  0  0  0  0  0  0  0  0  0  0
   58.3021   24.4955   44.6846 H   0  0  0  0  0  0  0  0  0  0  0  0
  1  2  1  0
  2  3  1  0
  3  4  2  0
  3  5  1  0
  5  6  2  3
  6  7  1  0
  7  8  1  0
  8  9  1  0
  9 10  1  0
 10 11  1  0
 11 12  2  3
 12 13  1  0
 13 14  1  0
 14 15  2  0
 15 16  1  0
 16 17  2  0
 17 18  1  0
 18 19  2  0
 18 20  1  0
 20 21  1  0
 21 22  2  0
 22 23  1  0
 23 24  2  0
 24 25  1  0
 24 26  1  0
 26 27  1  0
 26 28  2  0
  8 29  2  0
 29 30  1  0
 30  6  1  0
 17 12  1  0
 28 21  1  0
  1 31  1  0
  1 32  1  0
  1 33  1  0
  9 34  1  0
  9 35  1  0
 10 36  1  0
 10 37  1  0
 14 38  1  0
 15 39  1  0
 20 40  1  0
 22 41  1  0
 23 42  1  0
 28 43  1  0
 29 44  1  0
M  CHG  3   2  -1   7  -1  13  -1
M  END
>  <UniqueID>  (84) 
71

>  <SMILES>  (84) 
C[N-]C(=O)N=c1[n-]c(CCN=c2[n-]ccnc2C(=O)Nc2ccc(F)c(Cl)c2)cs1

>  <Energy>  (84) 
76.38842991265079

>  <Genealogy>  (84) 
C[N-]C(=O)N=c1[n-]c(CCN=c2[n-]ccnc2C(=O)Nc2ccc(F)c(Cl)c2)cs1 (protonated)
C[N-]C(=O)N=c1[n-]c(CCN=c2[n-]ccnc2C(=O)Nc2ccc(F)c(Cl)c2)cs1 (3D coordinates assigned)
C[N-]C(=O)N=c1[n-]c(CCN=c2[n-]ccnc2C(=O)Nc2ccc(F)c(Cl)c2)cs1 (optimized conformer: 76.38842991265079 kcal/mol)

>  <smiles>  (84) 
CNC(=O)N=c1[nH]c(CCN=c2[nH]ccnc2C(=O)Nc2ccc(F)c(Cl)c2)cs1

>  <score_type>  (84) 
oracle

>  <origin>  (84) 
adg

>  <m_score__min__energy>  (84) 
-12.869999999999999

>  <m_primary>  (84) 
energy

$$$$
84:0
     RDKit          3D

 46 48  0  0  0  0  0  0  0  0999 V2000
   63.0510   32.0520   50.4020 C   0  0  0  0  0  0  0  0  0  0  0  0
   62.1980   31.2910   49.4210 C   0  0  0  0  0  0  0  0  0  0  0  0
   61.5310   30.1350   49.8560 C   0  0  0  0  0  0  0  0  0  0  0  0
   60.7170   29.4100   48.9850 C   0  0  0  0  0  0  0  0  0  0  0  0
   60.5430   29.8280   47.6580 C   0  0  0  0  0  0  0  0  0  0  0  0
   59.6660   29.0640   46.7360 C   0  0  0  0  0  0  0  0  0  0  0  0
   59.8710   27.6880   46.5310 C   0  0  0  0  0  0  0  0  0  0  0  0
   59.0470   26.9720   45.6590 C   0  0  0  0  0  0  0  0  0  0  0  0
   58.0070   27.6170   44.9860 C   0  0  0  0  0  0  0  0  0  0  0  0
   57.7840   28.9860   45.1840 C   0  0  0  0  0  0  0  0  0  0  0  0
   56.4820   29.8070   44.3300 S   0  0  0  0  0  0  0  0  0  0  0  0
   56.5690   29.4240   42.6460 N   0  0  0  0  0  0  0  0  0  0  0  0
   56.6080   31.2930   44.5200 O   0  0  0  0  0  0  0  0  0  0  0  0
   55.1530   29.3630   44.8750 O   0  0  0  0  0  0  0  0  0  0  0  0
   58.6160   29.7060   46.0520 C   0  0  0  0  0  0  0  0  0  0  0  0
   61.2130   30.9800   47.2150 C   0  0  0  0  0  0  0  0  0  0  0  0
   62.0660   31.7030   48.0700 C   0  0  0  0  0  0  0  0  0  0  0  0
   62.7660   32.9360   47.5350 C   0  0  0  0  0  0  0  0  0  0  0  0
   61.8830   34.0590   47.4870 O   0  0  0  0  0  0  0  0  0  0  0  0
   60.5640   34.0300   47.0060 C   0  0  0  0  0  0  0  0  0  0  0  0
   59.4530   33.8250   47.8470 C   0  0  0  0  0  0  0  0  0  0  0  0
   58.1590   33.8170   47.3170 C   0  0  0  0  0  0  0  0  0  0  0  0
   57.9580   34.0070   45.9430 C   0  0  0  0  0  0  0  0  0  0  0  0
   56.6330   34.0000   45.4020 N   0  0  0  0  0  0  0  0  0  0  0  0
   59.0620   34.2060   45.1040 C   0  0  0  0  0  0  0  0  0  0  0  0
   60.3550   34.2160   45.6340 C   0  0  0  0  0  0  0  0  0  0  0  0
   62.7546   31.7876   51.4278 H   0  0  0  0  0  0  0  0  0  0  0  0
   64.1085   31.7919   50.2473 H   0  0  0  0  0  0  0  0  0  0  0  0
   62.9127   33.1322   50.2473 H   0  0  0  0  0  0  0  0  0  0  0  0
   61.6515   29.7967   50.8957 H   0  0  0  0  0  0  0  0  0  0  0  0
   60.2075   28.5030   49.3424 H   0  0  0  0  0  0  0  0  0  0  0  0
   60.6854   27.1720   47.0606 H   0  0  0  0  0  0  0  0  0  0  0  0
   59.2179   25.8968   45.5020 H   0  0  0  0  0  0  0  0  0  0  0  0
   57.3619   27.0493   44.2993 H   0  0  0  0  0  0  0  0  0  0  0  0
   56.2990   28.4190   42.5480 H   0  0  0  0  0  0  0  0  0  0  0  0
   57.5740   29.4940   42.3680 H   0  0  0  0  0  0  0  0  0  0  0  0
   58.4472   30.7828   46.2003 H   0  0  0  0  0  0  0  0  0  0  0  0
   61.0685   31.3239   46.1802 H   0  0  0  0  0  0  0  0  0  0  0  0
   63.6161   33.1772   48.1901 H   0  0  0  0  0  0  0  0  0  0  0  0
   63.1091   32.7221   46.5120 H   0  0  0  0  0  0  0  0  0  0  0  0
   59.6039   33.6705   48.9256 H   0  0  0  0  0  0  0  0  0  0  0  0
   57.2958   33.6610   47.9808 H   0  0  0  0  0  0  0  0  0  0  0  0
   56.3640   33.3170   44.6590 H   0  0  0  0  0  0  0  0  0  0  0  0
   55.9140   34.6760   45.7410 H   0  0  0  0  0  0  0  0  0  0  0  0
   58.9107   34.3549   44.0247 H   0  0  0  0  0  0  0  0  0  0  0  0
   61.2162   34.3714   44.9675 H   0  0  0  0  0  0  0  0  0  0  0  0
  1  2  1  0
  2  3  2  0
  3  4  1  0
  4  5  2  0
  5  6  1  0
  6  7  2  0
  7  8  1  0
  8  9  2  0
  9 10  1  0
 10 11  1  0
 11 12  1  0
 11 13  2  0
 11 14  2  0
 10 15  2  0
  5 16  1  0
 16 17  2  0
 17 18  1  0
 18 19  1  0
 19 20  1  0
 20 21  2  0
 21 22  1  0
 22 23  2  0
 23 24  1  0
 23 25  1  0
 25 26  2  0
 17  2  1  0
 26 20  1  0
 15  6  1  0
  1 27  1  0
  1 28  1  0
  1 29  1  0
  3 30  1  0
  4 31  1  0
  7 32  1  0
  8 33  1  0
  9 34  1  0
 12 35  1  0
 12 36  1  0
 15 37  1  0
 16 38  1  0
 18 39  1  0
 18 40  1  0
 21 41  1  0
 22 42  1  0
 24 43  1  0
 24 44  1  0
 25 45  1  0
 26 46  1  0
M  END
>  <UniqueID>  (85) 
72

>  <SMILES>  (85) 
Cc1ccc(-c2cccc(S(N)(=O)=O)c2)cc1COc1ccc(N)cc1

>  <Energy>  (85) 
52.40661268754249

>  <Genealogy>  (85) 
Cc1ccc(-c2cccc(S(N)(=O)=O)c2)cc1COc1ccc(N)cc1 (3D coordinates assigned)
Cc1ccc(-c2cccc(S(N)(=O)=O)c2)cc1COc1ccc(N)cc1 (optimized conformer: 52.40661268754249 kcal/mol)

>  <smiles>  (85) 
Cc1ccc(-c2cccc(S(N)(=O)=O)c2)cc1COc1ccc(N)cc1

>  <score_type>  (85) 
oracle

>  <origin>  (85) 
adg

>  <m_score__min__energy>  (85) 
-9.2200000000000006

>  <m_primary>  (85) 
energy

$$$$
85:0
     RDKit          3D

 58 61  0  0  0  0  0  0  0  0999 V2000
   60.5490   33.6370   49.1830 C   0  0  0  0  0  0  0  0  0  0  0  0
   59.8350   34.4620   48.2680 O   0  0  0  0  0  0  0  0  0  0  0  0
   59.2620   34.0060   47.0720 C   0  0  0  0  0  0  0  0  0  0  0  0
   59.3040   34.7520   45.8820 C   0  0  0  0  0  0  0  0  0  0  0  0
   58.6930   34.2670   44.7240 C   0  0  0  0  0  0  0  0  0  0  0  0
   58.0490   33.0150   44.7270 C   0  0  0  0  0  0  0  0  0  0  0  0
   57.3930   32.5150   43.5920 O   0  0  0  0  0  0  0  0  0  0  0  0
   58.0000   32.3710   42.3120 C   0  0  0  0  0  0  0  0  0  0  0  0
   58.0550   32.2410   45.8990 C   0  0  0  0  0  0  0  0  0  0  0  0
   57.3930   30.9680   45.8940 N   0  0  0  0  0  0  0  0  0  0  0  0
   56.8870   30.2620   44.7520 C   0  0  0  0  0  0  0  0  0  0  0  0
   55.6480   30.2780   44.5310 O   0  0  0  0  0  0  0  0  0  0  0  0
   57.7900   29.5970   43.7510 C   0  0  0  0  0  0  0  0  0  0  0  0
   59.4500   29.3280   44.4590 S   0  0  0  0  0  0  0  0  0  0  0  0
   58.9810   27.8490   45.3770 C   0  0  0  0  0  0  0  0  0  0  0  0
   58.0520   27.0380   44.8120 N   0  0  0  0  0  0  0  0  0  0  0  0
   57.6280   25.9050   45.4190 C   0  0  0  0  0  0  0  0  0  0  0  0
   56.6540   25.1080   44.8090 C   0  0  0  0  0  0  0  0  0  0  0  0
   56.1990   23.9340   45.4350 C   0  0  0  0  0  0  0  0  0  0  0  0
   55.1710   23.0860   44.7870 C   0  0  0  0  0  0  0  0  0  0  0  0
   53.8210   23.1030   45.2450 N   0  0  0  0  0  0  0  0  0  0  0  0
   55.4830   22.3340   43.8230 O   0  0  0  0  0  0  0  0  0  0  0  0
   56.7410   23.5730   46.6820 C   0  0  0  0  0  0  0  0  0  0  0  0
   57.7180   24.3660   47.2900 C   0  0  0  0  0  0  0  0  0  0  0  0
   58.1660   25.5420   46.6630 C   0  0  0  0  0  0  0  0  0  0  0  0
   59.1270   26.3860   47.2460 C   0  0  0  0  0  0  0  0  0  0  0  0
   59.6220   26.0780   48.3660 O   0  0  0  0  0  0  0  0  0  0  0  0
   59.5180   27.5410   46.6070 N   0  0  0  0  0  0  0  0  0  0  0  0
   60.4700   28.4650   47.2650 C   0  0  0  0  0  0  0  0  0  0  0  0
   59.9460   28.9090   48.6080 C   0  0  0  0  0  0  0  0  0  0  0  0
   58.8910   29.8330   48.6890 C   0  0  0  0  0  0  0  0  0  0  0  0
   58.4050   30.2430   49.9340 C   0  0  0  0  0  0  0  0  0  0  0  0
   58.9640   29.7290   51.1080 C   0  0  0  0  0  0  0  0  0  0  0  0
   60.0050   28.8000   51.0370 C   0  0  0  0  0  0  0  0  0  0  0  0
   60.4930   28.3890   49.7940 C   0  0  0  0  0  0  0  0  0  0  0  0
   58.6230   32.7620   47.0740 C   0  0  0  0  0  0  0  0  0  0  0  0
   60.2967   33.9285   50.2132 H   0  0  0  0  0  0  0  0  0  0  0  0
   60.2718   32.5849   49.0213 H   0  0  0  0  0  0  0  0  0  0  0  0
   61.6300   33.7604   49.0213 H   0  0  0  0  0  0  0  0  0  0  0  0
   59.8208   35.7229   45.8626 H   0  0  0  0  0  0  0  0  0  0  0  0
   58.7150   34.8675   43.8026 H   0  0  0  0  0  0  0  0  0  0  0  0
   59.0634   32.1187   42.4368 H   0  0  0  0  0  0  0  0  0  0  0  0
   57.4954   31.5676   41.7552 H   0  0  0  0  0  0  0  0  0  0  0  0
   57.9101   33.3154   41.7552 H   0  0  0  0  0  0  0  0  0  0  0  0
   57.3583   28.6268   43.4638 H   0  0  0  0  0  0  0  0  0  0  0  0
   57.8826   30.2492   42.8701 H   0  0  0  0  0  0  0  0  0  0  0  0
   56.2410   25.4016   43.8327 H   0  0  0  0  0  0  0  0  0  0  0  0
   53.2460   22.2320   45.2540 H   0  0  0  0  0  0  0  0  0  0  0  0
   56.3925   22.6579   47.1832 H   0  0  0  0  0  0  0  0  0  0  0  0
   58.1379   24.0691   48.2624 H   0  0  0  0  0  0  0  0  0  0  0  0
   61.4323   27.9510   47.4056 H   0  0  0  0  0  0  0  0  0  0  0  0
   60.5984   29.3515   46.6266 H   0  0  0  0  0  0  0  0  0  0  0  0
   58.4449   30.2361   47.7678 H   0  0  0  0  0  0  0  0  0  0  0  0
   57.5820   30.9707   49.9901 H   0  0  0  0  0  0  0  0  0  0  0  0
   58.5842   30.0560   52.0872 H   0  0  0  0  0  0  0  0  0  0  0  0
   60.4409   28.3917   51.9607 H   0  0  0  0  0  0  0  0  0  0  0  0
   61.3100   27.6542   49.7431 H   0  0  0  0  0  0  0  0  0  0  0  0
   58.5642   32.1836   48.0078 H   0  0  0  0  0  0  0  0  0  0  0  0
  1  2  1  0
  2  3  1  0
  3  4  2  0
  4  5  1  0
  5  6  2  0
  6  7  1  0
  7  8  1  0
  6  9  1  0
  9 10  1  0
 10 11  1  0
 11 12  2  0
 11 13  1  0
 13 14  1  0
 14 15  1  0
 15 16  2  0
 16 17  1  0
 17 18  2  0
 18 19  1  0
 19 20  1  0
 20 21  1  0
 20 22  2  0
 19 23  2  0
 23 24  1  0
 24 25  2  0
 25 26  1  0
 26 27  2  0
 26 28  1  0
 28 29  1  0
 29 30  1  0
 30 31  2  0
 31 32  1  0
 32 33  2  0
 33 34  1  0
 34 35  2  0
  9 36  2  0
 36  3  1  0
 28 15  1  0
 35 30  1  0
 25 17  1  0
  1 37  1  0
  1 38  1  0
  1 39  1  0
  4 40  1  0
  5 41  1  0
  8 42  1  0
  8 43  1  0
  8 44  1  0
 13 45  1  0
 13 46  1  0
 18 47  1  0
 21 48  1  0
 23 49  1  0
 24 50  1  0
 29 51  1  0
 29 52  1  0
 31 53  1  0
 32 54  1  0
 33 55  1  0
 34 56  1  0
 35 57  1  0
 36 58  1  0
M  CHG  2  10  -1  21  -1
M  END
>  <UniqueID>  (86) 
73

>  <SMILES>  (86) 
COc1ccc(OC)c([N-]C(=O)CSc2nc3cc(C([NH-])=O)ccc3c(=O)n2Cc2ccccc2)c1

>  <Energy>  (86) 
65.84064388203083

>  <Genealogy>  (86) 
COc1ccc(OC)c([N-]C(=O)CSc2nc3cc(C([NH-])=O)ccc3c(=O)n2Cc2ccccc2)c1 (protonated)
COc1ccc(OC)c([N-]C(=O)CSc2nc3cc(C([NH-])=O)ccc3c(=O)n2Cc2ccccc2)c1 (3D coordinates assigned)
COc1ccc(OC)c([N-]C(=O)CSc2nc3cc(C([NH-])=O)ccc3c(=O)n2Cc2ccccc2)c1 (optimized conformer: 65.84064388203083 kcal/mol)

>  <smiles>  (86) 
COc1ccc(OC)c(NC(=O)CSc2nc3cc(C(N)=O)ccc3c(=O)n2Cc2ccccc2)c1

>  <score_type>  (86) 
oracle

>  <origin>  (86) 
adg

>  <m_score__min__energy>  (86) 
-12.609999999999999

>  <m_primary>  (86) 
energy

$$$$
86:0
     RDKit          3D

 50 52  0  0  0  0  0  0  0  0999 V2000
   62.8220   26.1850   52.3040 C   0  0  0  0  0  0  0  0  0  0  0  0
   62.7080   27.6950   52.1170 C   0  0  0  0  0  0  0  0  0  0  0  0
   61.3650   28.0660   51.8020 O   0  0  0  0  0  0  0  0  0  0  0  0
   60.8780   28.3730   50.5190 C   0  0  0  0  0  0  0  0  0  0  0  0
   60.7080   29.6940   50.0670 C   0  0  0  0  0  0  0  0  0  0  0  0
   60.2200   29.9310   48.7720 C   0  0  0  0  0  0  0  0  0  0  0  0
   60.0320   31.3100   48.2650 C   0  0  0  0  0  0  0  0  0  0  0  0
   60.3240   32.2920   49.0030 O   0  0  0  0  0  0  0  0  0  0  0  0
   59.4950   31.5340   46.9500 N   0  0  0  0  0  0  0  0  0  0  0  0
   59.3520   32.8420   46.3680 C   0  0  0  0  0  0  0  0  0  0  0  0
   59.9580   33.9500   46.9890 C   0  0  0  0  0  0  0  0  0  0  0  0
   59.9120   35.2110   46.3920 C   0  0  0  0  0  0  0  0  0  0  0  0
   59.2770   35.3790   45.1630 C   0  0  0  0  0  0  0  0  0  0  0  0
   58.6800   34.2890   44.5280 C   0  0  0  0  0  0  0  0  0  0  0  0
   58.7010   33.0130   45.1190 C   0  0  0  0  0  0  0  0  0  0  0  0
   58.0170   31.8900   44.4350 C   0  0  0  0  0  0  0  0  0  0  0  0
   58.0580   31.7980   43.1780 O   0  0  0  0  0  0  0  0  0  0  0  0
   57.3720   30.8700   45.2100 N   0  0  0  0  0  0  0  0  0  0  0  0
   57.5200   29.4540   45.0380 C   0  0  0  0  0  0  0  0  0  0  0  0
   58.6170   28.9780   44.3110 C   0  0  0  0  0  0  0  0  0  0  0  0
   58.8070   27.6060   44.1370 C   0  0  0  0  0  0  0  0  0  0  0  0
   57.9110   26.6950   44.6990 C   0  0  0  0  0  0  0  0  0  0  0  0
   56.8160   27.1490   45.4540 C   0  0  0  0  0  0  0  0  0  0  0  0
   55.8760   26.1810   46.0630 C   0  0  0  0  0  0  0  0  0  0  0  0
   56.3060   25.2070   46.7370 O   0  0  0  0  0  0  0  0  0  0  0  0
   54.5050   26.3360   45.9020 O   0  0  0  0  0  0  0  0  0  0  0  0
   56.6320   28.5340   45.6280 C   0  0  0  0  0  0  0  0  0  0  0  0
   59.9170   28.8750   47.9710 N   0  0  0  0  0  0  0  0  0  0  0  0
   60.0650   27.5850   48.3760 C   0  0  0  0  0  0  0  0  0  0  0  0
   59.6940   26.4740   47.4430 C   0  0  0  0  0  0  0  0  0  0  0  0
   60.5460   27.3140   49.6650 C   0  0  0  0  0  0  0  0  0  0  0  0
   60.6980   26.0000   50.0990 O   0  0  0  0  0  0  0  0  0  0  0  0
   62.8398   25.9489   53.3782 H   0  0  0  0  0  0  0  0  0  0  0  0
   61.9586   25.6911   51.8343 H   0  0  0  0  0  0  0  0  0  0  0  0
   63.7498   25.8264   51.8343 H   0  0  0  0  0  0  0  0  0  0  0  0
   63.0126   28.1978   53.0467 H   0  0  0  0  0  0  0  0  0  0  0  0
   63.3622   27.9983   51.2863 H   0  0  0  0  0  0  0  0  0  0  0  0
   60.9566   30.5389   50.7261 H   0  0  0  0  0  0  0  0  0  0  0  0
   59.1520   30.7160   46.4000 H   0  0  0  0  0  0  0  0  0  0  0  0
   60.4722   33.8213   47.9529 H   0  0  0  0  0  0  0  0  0  0  0  0
   60.3775   36.0730   46.8922 H   0  0  0  0  0  0  0  0  0  0  0  0
   59.2462   36.3728   44.6924 H   0  0  0  0  0  0  0  0  0  0  0  0
   58.1876   34.4295   43.5545 H   0  0  0  0  0  0  0  0  0  0  0  0
   59.3337   29.6890   43.8742 H   0  0  0  0  0  0  0  0  0  0  0  0
   59.6661   27.2414   43.5548 H   0  0  0  0  0  0  0  0  0  0  0  0
   58.0628   25.6158   44.5501 H   0  0  0  0  0  0  0  0  0  0  0  0
   55.7874   28.9005   46.2299 H   0  0  0  0  0  0  0  0  0  0  0  0
   59.3985   25.5891   48.0258 H   0  0  0  0  0  0  0  0  0  0  0  0
   58.8536   26.7929   46.8090 H   0  0  0  0  0  0  0  0  0  0  0  0
   60.5574   26.2239   46.8090 H   0  0  0  0  0  0  0  0  0  0  0  0
  1  2  1  0
  2  3  1  0
  3  4  1  0
  4  5  2  0
  5  6  1  0
  6  7  1  0
  7  8  2  0
  7  9  1  0
  9 10  1  0
 10 11  2  0
 11 12  1  0
 12 13  2  0
 13 14  1  0
 14 15  2  0
 15 16  1  0
 16 17  2  0
 16 18  1  0
 18 19  1  0
 19 20  2  0
 20 21  1  0
 21 22  2  0
 22 23  1  0
 23 24  1  0
 24 25  2  0
 24 26  1  0
 23 27  2  0
  6 28  2  0
 28 29  1  0
 29 30  1  0
 29 31  2  0
 31 32  1  0
 31  4  1  0
 15 10  1  0
 27 19  1  0
  1 33  1  0
  1 34  1  0
  1 35  1  0
  2 36  1  0
  2 37  1  0
  5 38  1  0
  9 39  1  0
 11 40  1  0
 12 41  1  0
 13 42  1  0
 14 43  1  0
 20 44  1  0
 21 45  1  0
 22 46  1  0
 27 47  1  0
 30 48  1  0
 30 49  1  0
 30 50  1  0
M  CHG  3  18  -1  26  -1  32  -1
M  END
>  <UniqueID>  (87) 
74

>  <SMILES>  (87) 
CCOc1cc(C(=O)Nc2ccccc2C(=O)[N-]c2cccc(C(=O)[O-])c2)nc(C)c1[O-]

>  <Energy>  (87) 
62.749805000220945

>  <Genealogy>  (87) 
CCOc1cc(C(=O)Nc2ccccc2C(=O)[N-]c2cccc(C(=O)[O-])c2)nc(C)c1[O-] (protonated)
CCOc1cc(C(=O)Nc2ccccc2C(=O)[N-]c2cccc(C(=O)[O-])c2)nc(C)c1[O-] (3D coordinates assigned)
CCOc1cc(C(=O)Nc2ccccc2C(=O)[N-]c2cccc(C(=O)[O-])c2)nc(C)c1[O-] (optimized conformer: 62.749805000220945 kcal/mol)

>  <smiles>  (87) 
CCOc1cc(C(=O)Nc2ccccc2C(=O)Nc2cccc(C(=O)O)c2)nc(C)c1O

>  <score_type>  (87) 
oracle

>  <origin>  (87) 
adg

>  <m_score__min__energy>  (87) 
-14.76

>  <m_primary>  (87) 
energy

$$$$
87:0
     RDKit          3D

 31 32  0  0  1  0  0  0  0  0999 V2000
   55.5410   25.6530   45.9440 N   0  0  0  0  0  0  0  0  0  0  0  0
   56.4910   26.5040   45.8180 C   0  0  0  0  0  0  0  0  0  0  0  0
   57.7820   26.1000   45.8990 N   0  0  0  0  0  0  0  0  0  0  0  0
   58.7970   26.9900   45.7680 C   0  0  0  0  0  0  0  0  0  0  0  0
   58.4750   28.3260   45.5500 C   0  0  0  0  0  0  0  0  0  0  0  0
   57.1530   28.7050   45.4730 C   0  0  0  0  0  0  0  0  0  0  0  0
   56.7700   29.9200   45.2720 N   0  0  0  0  0  0  0  0  0  0  0  0
   56.6060   30.3730   43.9100 C   0  0  0  0  0  0  0  0  0  0  0  0
   57.7240   31.3310   43.5120 C   0  0  0  0  0  0  0  0  0  0  0  0
   58.0360   32.2710   44.6170 C   0  0  0  0  0  0  0  0  0  0  0  0
   58.9210   31.8570   45.6080 C   0  0  0  0  0  0  0  0  0  0  0  0
   59.2320   32.7060   46.6500 C   0  0  0  0  0  0  0  0  0  0  0  0
   58.6400   33.9450   46.6590 C   0  0  0  0  0  0  0  0  0  0  0  0
   58.9580   34.8010   47.7140 O   0  0  0  0  0  0  0  0  0  0  0  0
   57.7640   34.3700   45.6870 C   0  0  0  0  0  0  0  0  0  0  0  0
   57.4530   33.5250   44.6490 C   0  0  0  0  0  0  0  0  0  0  0  0
   56.1520   27.7890   45.6070 N   0  0  0  0  0  0  0  0  0  0  0  0
   55.1450   25.3560   46.8430 H   0  0  0  0  0  0  0  0  0  0  0  0
   57.9980   25.0780   46.0660 H   0  0  0  0  0  0  0  0  0  0  0  0
   59.8458   26.6646   45.8323 H   0  0  0  0  0  0  0  0  0  0  0  0
   59.2723   29.0758   45.4397 H   0  0  0  0  0  0  0  0  0  0  0  0
   56.6221   29.5027   43.2375 H   0  0  0  0  0  0  0  0  0  0  0  0
   55.6460   30.9043   43.8315 H   0  0  0  0  0  0  0  0  0  0  0  0
   58.6258   30.7502   43.2681 H   0  0  0  0  0  0  0  0  0  0  0  0
   57.3933   31.9130   42.6391 H   0  0  0  0  0  0  0  0  0  0  0  0
   59.3717   30.8547   45.5606 H   0  0  0  0  0  0  0  0  0  0  0  0
   59.9289   32.4015   47.4448 H   0  0  0  0  0  0  0  0  0  0  0  0
   58.8900   35.8050   47.4810 H   0  0  0  0  0  0  0  0  0  0  0  0
   57.3180   35.3741   45.7401 H   0  0  0  0  0  0  0  0  0  0  0  0
   56.7546   33.8394   43.8595 H   0  0  0  0  0  0  0  0  0  0  0  0
   55.1490   28.0720   45.5500 H   0  0  0  0  0  0  0  0  0  0  0  0
  1  2  2  3
  2  3  1  0
  3  4  1  0
  4  5  2  0
  5  6  1  0
  6  7  2  0
  7  8  1  0
  8  9  1  0
  9 10  1  0
 10 11  2  0
 11 12  1  0
 12 13  2  0
 13 14  1  0
 13 15  1  0
 15 16  2  0
  6 17  1  0
 17  2  1  0
 16 10  1  0
  1 18  1  0
  3 19  1  0
  4 20  1  0
  5 21  1  0
  8 22  1  0
  8 23  1  0
  9 24  1  0
  9 25  1  0
 11 26  1  0
 12 27  1  0
 14 28  1  0
 15 29  1  0
 16 30  1  0
 17 31  1  0
M  END
>  <smiles>  (88) 
N=c1[nH]ccc(=NCCc2ccc(O)cc2)[nH]1

>  <score_type>  (88) 
oracle

>  <origin>  (88) 
adg

>  <m_score__min__energy>  (88) 
-6.6900000000000004

>  <m_primary>  (88) 
energy

$$$$
88:0
     RDKit          3D

 55 58  0  0  0  0  0  0  0  0999 V2000
   62.8810   31.5380   47.4730 C   0  0  0  0  0  0  0  0  0  0  0  0
   63.7040   32.8210   47.3610 C   0  0  0  0  0  0  0  0  0  0  0  0
   63.8700   33.5470   48.7090 C   0  0  0  0  0  0  0  0  0  0  0  0
   62.7610   34.5700   49.0330 C   0  0  0  0  0  0  0  0  0  0  0  0
   61.4410   33.9240   49.2660 N   0  0  0  0  0  0  0  0  0  0  0  0
   61.1420   33.5690   50.5620 C   0  0  0  0  0  0  0  0  0  0  0  0
   61.9760   33.7970   51.4860 O   0  0  0  0  0  0  0  0  0  0  0  0
   59.9280   32.9460   50.8870 C   0  0  0  0  0  0  0  0  0  0  0  0
   59.6600   32.5660   52.2210 C   0  0  0  0  0  0  0  0  0  0  0  0
   58.4680   31.9280   52.5520 C   0  0  0  0  0  0  0  0  0  0  0  0
   57.5320   31.6520   51.5650 C   0  0  0  0  0  0  0  0  0  0  0  0
   57.7730   32.0240   50.2420 C   0  0  0  0  0  0  0  0  0  0  0  0
   58.9700   32.6970   49.8770 C   0  0  0  0  0  0  0  0  0  0  0  0
   59.2490   33.1180   48.5480 C   0  0  0  0  0  0  0  0  0  0  0  0
   58.2860   33.0100   47.5120 C   0  0  0  0  0  0  0  0  0  0  0  0
   58.5580   33.4390   46.2120 C   0  0  0  0  0  0  0  0  0  0  0  0
   57.5170   33.3910   45.2170 N   0  0  0  0  0  0  0  0  0  0  0  0
   57.5610   32.5110   44.0460 C   0  0  0  0  0  0  0  0  0  0  0  0
   57.3810   31.0730   44.4610 C   0  0  0  0  0  0  0  0  0  0  0  0
   58.4820   30.3300   44.9140 C   0  0  0  0  0  0  0  0  0  0  0  0
   58.3140   29.0120   45.3500 C   0  0  0  0  0  0  0  0  0  0  0  0
   57.0440   28.4190   45.3300 C   0  0  0  0  0  0  0  0  0  0  0  0
   56.8290   26.7670   45.9000 S   0  0  0  0  0  0  0  0  0  0  0  0
   55.1440   26.4010   46.0020 N   0  0  0  0  0  0  0  0  0  0  0  0
   57.4610   26.6080   47.2550 O   0  0  0  0  0  0  0  0  0  0  0  0
   57.4910   25.8100   44.9480 O   0  0  0  0  0  0  0  0  0  0  0  0
   55.9420   29.1580   44.8780 C   0  0  0  0  0  0  0  0  0  0  0  0
   56.1090   30.4750   44.4410 C   0  0  0  0  0  0  0  0  0  0  0  0
   59.8240   33.9350   45.9120 C   0  0  0  0  0  0  0  0  0  0  0  0
   60.7840   34.0720   46.9070 C   0  0  0  0  0  0  0  0  0  0  0  0
   60.5200   33.7020   48.2510 C   0  0  0  0  0  0  0  0  0  0  0  0
   62.7246   31.2942   48.5342 H   0  0  0  0  0  0  0  0  0  0  0  0
   61.9071   31.6832   46.9827 H   0  0  0  0  0  0  0  0  0  0  0  0
   63.4190   30.7133   46.9827 H   0  0  0  0  0  0  0  0  0  0  0  0
   64.7018   32.5652   46.9751 H   0  0  0  0  0  0  0  0  0  0  0  0
   63.1649   33.5006   46.6846 H   0  0  0  0  0  0  0  0  0  0  0  0
   63.8808   32.7896   49.5067 H   0  0  0  0  0  0  0  0  0  0  0  0
   64.8078   34.1178   48.6403 H   0  0  0  0  0  0  0  0  0  0  0  0
   63.0468   35.1253   49.9385 H   0  0  0  0  0  0  0  0  0  0  0  0
   62.6580   35.2378   48.1650 H   0  0  0  0  0  0  0  0  0  0  0  0
   60.4010   32.7765   53.0063 H   0  0  0  0  0  0  0  0  0  0  0  0
   58.2679   31.6427   53.5953 H   0  0  0  0  0  0  0  0  0  0  0  0
   56.5957   31.1375   51.8270 H   0  0  0  0  0  0  0  0  0  0  0  0
   57.0247   31.7927   49.4696 H   0  0  0  0  0  0  0  0  0  0  0  0
   57.3004   32.5774   47.7389 H   0  0  0  0  0  0  0  0  0  0  0  0
   56.7710   34.1220   45.2360 H   0  0  0  0  0  0  0  0  0  0  0  0
   56.7551   32.7913   43.3517 H   0  0  0  0  0  0  0  0  0  0  0  0
   58.5390   32.6204   43.5546 H   0  0  0  0  0  0  0  0  0  0  0  0
   59.4826   30.7869   44.9262 H   0  0  0  0  0  0  0  0  0  0  0  0
   59.1812   28.4388   45.7098 H   0  0  0  0  0  0  0  0  0  0  0  0
   54.7220   27.0880   46.6680 H   0  0  0  0  0  0  0  0  0  0  0  0
   54.9421   28.6997   44.8672 H   0  0  0  0  0  0  0  0  0  0  0  0
   55.2411   31.0462   44.0798 H   0  0  0  0  0  0  0  0  0  0  0  0
   60.0663   34.2210   44.8778 H   0  0  0  0  0  0  0  0  0  0  0  0
   61.7729   34.4772   46.6464 H   0  0  0  0  0  0  0  0  0  0  0  0
  1  2  1  0
  2  3  1  0
  3  4  1  0
  4  5  1  0
  5  6  1  0
  6  7  2  0
  6  8  1  0
  8  9  2  0
  9 10  1  0
 10 11  2  0
 11 12  1  0
 12 13  2  0
 13 14  1  0
 14 15  2  0
 15 16  1  0
 16 17  1  0
 17 18  1  0
 18 19  1  0
 19 20  2  0
 20 21  1  0
 21 22  2  0
 22 23  1  0
 23 24  1  0
 23 25  2  0
 23 26  2  0
 22 27  1  0
 27 28  2  0
 16 29  2  0
 29 30  1  0
 30 31  2  0
 31  5  1  0
 13  8  1  0
 31 14  1  0
 28 19  1  0
  1 32  1  0
  1 33  1  0
  1 34  1  0
  2 35  1  0
  2 36  1  0
  3 37  1  0
  3 38  1  0
  4 39  1  0
  4 40  1  0
  9 41  1  0
 10 42  1  0
 11 43  1  0
 12 44  1  0
 15 45  1  0
 17 46  1  0
 18 47  1  0
 18 48  1  0
 20 49  1  0
 21 50  1  0
 24 51  1  0
 27 52  1  0
 28 53  1  0
 29 54  1  0
 30 55  1  0
M  CHG  1  24  -1
M  END
>  <UniqueID>  (89) 
75

>  <SMILES>  (89) 
CCCCn1c(=O)c2ccccc2c2cc(NCc3ccc(S([NH-])(=O)=O)cc3)ccc21

>  <Energy>  (89) 
76.63269682919773

>  <Genealogy>  (89) 
CCCCn1c(=O)c2ccccc2c2cc(NCc3ccc(S([NH-])(=O)=O)cc3)ccc21 (protonated)
CCCCn1c(=O)c2ccccc2c2cc(NCc3ccc(S([NH-])(=O)=O)cc3)ccc21 (3D coordinates assigned)
CCCCn1c(=O)c2ccccc2c2cc(NCc3ccc(S([NH-])(=O)=O)cc3)ccc21 (optimized conformer: 76.63269682919773 kcal/mol)

>  <smiles>  (89) 
CCCCn1c(=O)c2ccccc2c2cc(NCc3ccc(S(N)(=O)=O)cc3)ccc21

>  <score_type>  (89) 
oracle

>  <origin>  (89) 
adg

>  <m_score__min__energy>  (89) 
-12.43

>  <m_primary>  (89) 
energy

$$$$
89:0
     RDKit          3D

 63 66  0  0  0  0  0  0  0  0999 V2000
   59.9780   29.0340   44.9220 C   0  0  0  0  0  0  0  0  0  0  0  0
   59.0540   28.0000   45.5150 C   0  0  0  0  0  0  0  0  0  0  0  0
   59.6200   26.9600   46.2730 C   0  0  0  0  0  0  0  0  0  0  0  0
   58.8150   25.9570   46.8160 C   0  0  0  0  0  0  0  0  0  0  0  0
   57.4350   25.9810   46.6120 C   0  0  0  0  0  0  0  0  0  0  0  0
   56.8540   27.0170   45.8800 C   0  0  0  0  0  0  0  0  0  0  0  0
   57.6460   28.0500   45.3500 C   0  0  0  0  0  0  0  0  0  0  0  0
   56.9690   29.1500   44.6250 C   0  0  0  0  0  0  0  0  0  0  0  0
   56.6090   28.9700   43.4310 O   0  0  0  0  0  0  0  0  0  0  0  0
   56.7230   30.4240   45.2370 N   0  0  0  0  0  0  0  0  0  0  0  0
   57.4530   31.6300   44.9780 C   0  0  0  0  0  0  0  0  0  0  0  0
   57.8320   31.9950   43.6750 C   0  0  0  0  0  0  0  0  0  0  0  0
   58.5160   33.1920   43.4530 C   0  0  0  0  0  0  0  0  0  0  0  0
   58.8430   34.0220   44.5270 C   0  0  0  0  0  0  0  0  0  0  0  0
   58.5130   33.6490   45.8400 C   0  0  0  0  0  0  0  0  0  0  0  0
   58.8610   34.5570   47.0020 C   0  0  0  0  0  0  0  0  0  0  0  0
   60.1320   34.2090   47.6760 N   0  0  0  0  0  0  0  0  0  0  0  0
   61.2990   34.1910   46.7660 C   0  0  0  0  0  0  0  0  0  0  0  0
   62.5250   33.5930   47.4590 C   0  0  0  0  0  0  0  0  0  0  0  0
   62.2750   32.1140   47.8280 C   0  0  0  0  0  0  0  0  0  0  0  0
   63.1580   31.7220   48.9880 C   0  0  0  0  0  0  0  0  0  0  0  0
   62.6740   31.0730   49.9580 O   0  0  0  0  0  0  0  0  0  0  0  0
   64.5230   32.1630   49.0270 N   0  0  0  0  0  0  0  0  0  0  0  0
   65.4190   31.8190   50.1380 C   0  0  0  0  0  0  0  0  0  0  0  0
   66.7060   32.6330   50.0550 C   0  0  0  0  0  0  0  0  0  0  0  0
   66.4680   33.8980   50.8770 C   0  0  0  0  0  0  0  0  0  0  0  0
   65.2060   33.6600   51.7050 C   0  0  0  0  0  0  0  0  0  0  0  0
   64.8050   32.2100   51.4770 C   0  0  0  0  0  0  0  0  0  0  0  0
   60.7770   31.8180   48.1030 C   0  0  0  0  0  0  0  0  0  0  0  0
   60.0390   33.0640   48.6170 C   0  0  0  0  0  0  0  0  0  0  0  0
   57.8130   32.4490   46.0540 C   0  0  0  0  0  0  0  0  0  0  0  0
   60.4744   29.5894   45.7314 H   0  0  0  0  0  0  0  0  0  0  0  0
   60.7365   28.5349   44.3010 H   0  0  0  0  0  0  0  0  0  0  0  0
   59.3971   29.7318   44.3010 H   0  0  0  0  0  0  0  0  0  0  0  0
   60.7070   26.9364   46.4397 H   0  0  0  0  0  0  0  0  0  0  0  0
   59.2692   25.1469   47.4054 H   0  0  0  0  0  0  0  0  0  0  0  0
   56.8042   25.1821   47.0288 H   0  0  0  0  0  0  0  0  0  0  0  0
   55.7663   27.0254   45.7162 H   0  0  0  0  0  0  0  0  0  0  0  0
   57.5893   31.3364   42.8281 H   0  0  0  0  0  0  0  0  0  0  0  0
   58.7977   33.4816   42.4299 H   0  0  0  0  0  0  0  0  0  0  0  0
   59.3624   34.9741   44.3435 H   0  0  0  0  0  0  0  0  0  0  0  0
   58.9399   35.5873   46.6248 H   0  0  0  0  0  0  0  0  0  0  0  0
   58.0616   34.4404   47.7486 H   0  0  0  0  0  0  0  0  0  0  0  0
   61.0554   33.5858   45.8804 H   0  0  0  0  0  0  0  0  0  0  0  0
   61.5315   35.2256   46.4734 H   0  0  0  0  0  0  0  0  0  0  0  0
   63.3893   33.6552   46.7814 H   0  0  0  0  0  0  0  0  0  0  0  0
   62.7221   34.1596   48.3810 H   0  0  0  0  0  0  0  0  0  0  0  0
   62.5433   31.4922   46.9612 H   0  0  0  0  0  0  0  0  0  0  0  0
   64.8700   32.7700   48.2500 H   0  0  0  0  0  0  0  0  0  0  0  0
   65.5979   30.7360   50.0667 H   0  0  0  0  0  0  0  0  0  0  0  0
   67.5466   32.0598   50.4731 H   0  0  0  0  0  0  0  0  0  0  0  0
   66.9585   32.8758   49.0123 H   0  0  0  0  0  0  0  0  0  0  0  0
   67.3255   34.0849   51.5401 H   0  0  0  0  0  0  0  0  0  0  0  0
   66.3500   34.7751   50.2237 H   0  0  0  0  0  0  0  0  0  0  0  0
   65.4131   33.8336   52.7713 H   0  0  0  0  0  0  0  0  0  0  0  0
   64.4000   34.3466   51.4069 H   0  0  0  0  0  0  0  0  0  0  0  0
   65.1998   31.5717   52.2812 H   0  0  0  0  0  0  0  0  0  0  0  0
   63.7120   32.0862   51.4745 H   0  0  0  0  0  0  0  0  0  0  0  0
   60.3023   31.4818   47.1694 H   0  0  0  0  0  0  0  0  0  0  0  0
   60.7168   31.0388   48.8771 H   0  0  0  0  0  0  0  0  0  0  0  0
   58.9782   32.8112   48.7611 H   0  0  0  0  0  0  0  0  0  0  0  0
   60.5144   33.3681   49.5612 H   0  0  0  0  0  0  0  0  0  0  0  0
   57.5453   32.1505   47.0783 H   0  0  0  0  0  0  0  0  0  0  0  0
  1  2  1  0
  2  3  2  0
  3  4  1  0
  4  5  2  0
  5  6  1  0
  6  7  2  0
  7  8  1  0
  8  9  2  0
  8 10  1  0
 10 11  1  0
 11 12  2  0
 12 13  1  0
 13 14  2  0
 14 15  1  0
 15 16  1  0
 16 17  1  0
 17 18  1  0
 18 19  1  0
 19 20  1  0
 20 21  1  0
 21 22  2  0
 21 23  1  0
 23 24  1  0
 24 25  1  0
 25 26  1  0
 26 27  1  0
 27 28  1  0
 20 29  1  0
 29 30  1  0
 15 31  2  0
  7  2  1  0
 31 11  1  0
 30 17  1  0
 28 24  1  0
  1 32  1  0
  1 33  1  0
  1 34  1  0
  3 35  1  0
  4 36  1  0
  5 37  1  0
  6 38  1  0
 12 39  1  0
 13 40  1  0
 14 41  1  0
 16 42  1  0
 16 43  1  0
 18 44  1  0
 18 45  1  0
 19 46  1  0
 19 47  1  0
 20 48  1  0
 23 49  1  0
 24 50  1  0
 25 51  1  0
 25 52  1  0
 26 53  1  0
 26 54  1  0
 27 55  1  0
 27 56  1  0
 28 57  1  0
 28 58  1  0
 29 59  1  0
 29 60  1  0
 30 61  1  0
 30 62  1  0
 31 63  1  0
M  CHG  1  10  -1
M  END
>  <UniqueID>  (90) 
76

>  <SMILES>  (90) 
Cc1ccccc1C(=O)[N-]c1cccc(CN2CCC(C(=O)NC3CCCC3)CC2)c1

>  <Energy>  (90) 
82.91016807469414

>  <Genealogy>  (90) 
Cc1ccccc1C(=O)[N-]c1cccc(CN2CCC(C(=O)NC3CCCC3)CC2)c1 (protonated)
Cc1ccccc1C(=O)[N-]c1cccc(CN2CCC(C(=O)NC3CCCC3)CC2)c1 (3D coordinates assigned)
Cc1ccccc1C(=O)[N-]c1cccc(CN2CCC(C(=O)NC3CCCC3)CC2)c1 (nonaromatic ring conformer: 82.91016807469414 kcal/mol)

>  <smiles>  (90) 
Cc1ccccc1C(=O)Nc1cccc(CN2CCC(C(=O)NC3CCCC3)CC2)c1

>  <score_type>  (90) 
oracle

>  <origin>  (90) 
adg

>  <m_score__min__energy>  (90) 
-11.94

>  <m_primary>  (90) 
energy

$$$$
90:0
     RDKit          3D

 51 54  0  0  0  0  0  0  0  0999 V2000
   59.1310   33.5180   49.9770 O   0  0  0  0  0  0  0  0  0  0  0  0
   59.4040   32.3050   50.1970 C   0  0  0  0  0  0  0  0  0  0  0  0
   60.5290   31.6980   49.5390 N   0  0  0  0  0  0  0  0  0  0  0  0
   61.5240   32.4590   48.8330 C   0  0  0  0  0  0  0  0  0  0  0  0
   62.5040   33.1740   49.5450 C   0  0  0  0  0  0  0  0  0  0  0  0
   63.5320   33.8350   48.8670 C   0  0  0  0  0  0  0  0  0  0  0  0
   63.6050   33.7700   47.4740 C   0  0  0  0  0  0  0  0  0  0  0  0
   62.6420   33.0570   46.7550 C   0  0  0  0  0  0  0  0  0  0  0  0
   61.5870   32.4200   47.4180 C   0  0  0  0  0  0  0  0  0  0  0  0
   60.6270   31.7430   46.6510 O   0  0  0  0  0  0  0  0  0  0  0  0
   59.4280   32.3090   46.1910 C   0  0  0  0  0  0  0  0  0  0  0  0
   59.0720   33.5870   46.6400 C   0  0  0  0  0  0  0  0  0  0  0  0
   57.8900   34.1890   46.1960 C   0  0  0  0  0  0  0  0  0  0  0  0
   57.0480   33.5110   45.3090 C   0  0  0  0  0  0  0  0  0  0  0  0
   57.3860   32.2270   44.8700 C   0  0  0  0  0  0  0  0  0  0  0  0
   58.5660   31.6230   45.3130 C   0  0  0  0  0  0  0  0  0  0  0  0
   58.5230   31.5110   51.0860 C   0  0  0  0  0  0  0  0  0  0  0  0
   58.6690   30.1140   51.1590 C   0  0  0  0  0  0  0  0  0  0  0  0
   57.8490   29.3570   52.0000 C   0  0  0  0  0  0  0  0  0  0  0  0
   56.8700   29.9830   52.7820 C   0  0  0  0  0  0  0  0  0  0  0  0
   55.8500   29.0110   53.8380 S   0  0  0  0  0  0  0  0  0  0  0  0
   55.6230   29.6980   55.1560 O   0  0  0  0  0  0  0  0  0  0  0  0
   56.5290   27.6960   54.0920 O   0  0  0  0  0  0  0  0  0  0  0  0
   54.3220   28.7240   53.0690 N   0  0  0  0  0  0  0  0  0  0  0  0
   53.3950   29.7410   52.6660 C   0  0  0  0  0  0  0  0  0  0  0  0
   52.3540   30.0830   53.5390 C   0  0  0  0  0  0  0  0  0  0  0  0
   51.4280   31.0710   53.1860 C   0  0  0  0  0  0  0  0  0  0  0  0
   51.5490   31.7370   51.9640 C   0  0  0  0  0  0  0  0  0  0  0  0
   50.6370   32.7260   51.6160 O   0  0  0  0  0  0  0  0  0  0  0  0
   52.5940   31.4130   51.0920 C   0  0  0  0  0  0  0  0  0  0  0  0
   53.5150   30.4200   51.4390 C   0  0  0  0  0  0  0  0  0  0  0  0
   56.7090   31.3720   52.7060 C   0  0  0  0  0  0  0  0  0  0  0  0
   57.5240   32.1310   51.8600 C   0  0  0  0  0  0  0  0  0  0  0  0
   60.5570   30.6590   49.4500 H   0  0  0  0  0  0  0  0  0  0  0  0
   62.4610   33.2132   50.6435 H   0  0  0  0  0  0  0  0  0  0  0  0
   64.2838   34.4066   49.4309 H   0  0  0  0  0  0  0  0  0  0  0  0
   64.4214   34.2806   46.9422 H   0  0  0  0  0  0  0  0  0  0  0  0
   62.7138   32.9960   45.6590 H   0  0  0  0  0  0  0  0  0  0  0  0
   59.7257   34.1204   47.3458 H   0  0  0  0  0  0  0  0  0  0  0  0
   57.6224   35.1972   46.5451 H   0  0  0  0  0  0  0  0  0  0  0  0
   56.1209   33.9871   44.9570 H   0  0  0  0  0  0  0  0  0  0  0  0
   56.7223   31.6917   44.1751 H   0  0  0  0  0  0  0  0  0  0  0  0
   58.8226   30.6082   44.9748 H   0  0  0  0  0  0  0  0  0  0  0  0
   59.4351   29.6131   50.5489 H   0  0  0  0  0  0  0  0  0  0  0  0
   57.9729   28.2651   52.0481 H   0  0  0  0  0  0  0  0  0  0  0  0
   52.2639   29.5714   54.5086 H   0  0  0  0  0  0  0  0  0  0  0  0
   50.6049   31.3232   53.8707 H   0  0  0  0  0  0  0  0  0  0  0  0
   52.6912   31.9405   50.1316 H   0  0  0  0  0  0  0  0  0  0  0  0
   54.3357   30.1687   50.7511 H   0  0  0  0  0  0  0  0  0  0  0  0
   55.9383   31.8682   53.3142 H   0  0  0  0  0  0  0  0  0  0  0  0
   57.3833   33.2203   51.7990 H   0  0  0  0  0  0  0  0  0  0  0  0
  1  2  2  0
  2  3  1  0
  3  4  1  0
  4  5  2  0
  5  6  1  0
  6  7  2  0
  7  8  1  0
  8  9  2  0
  9 10  1  0
 10 11  1  0
 11 12  2  0
 12 13  1  0
 13 14  2  0
 14 15  1  0
 15 16  2  0
  2 17  1  0
 17 18  2  0
 18 19  1  0
 19 20  2  0
 20 21  1  0
 21 22  2  0
 21 23  2  0
 21 24  1  0
 24 25  1  0
 25 26  2  0
 26 27  1  0
 27 28  2  0
 28 29  1  0
 28 30  1  0
 30 31  2  0
 20 32  1  0
 32 33  2  0
  9  4  1  0
 16 11  1  0
 33 17  1  0
 31 25  1  0
  3 34  1  0
  5 35  1  0
  6 36  1  0
  7 37  1  0
  8 38  1  0
 12 39  1  0
 13 40  1  0
 14 41  1  0
 15 42  1  0
 16 43  1  0
 18 44  1  0
 19 45  1  0
 26 46  1  0
 27 47  1  0
 30 48  1  0
 31 49  1  0
 32 50  1  0
 33 51  1  0
M  CHG  2  24  -1  29  -1
M  END
>  <UniqueID>  (91) 
77

>  <SMILES>  (91) 
O=C(Nc1ccccc1Oc1ccccc1)c1ccc(S(=O)(=O)[N-]c2ccc([O-])cc2)cc1

>  <Energy>  (91) 
71.95681407225612

>  <Genealogy>  (91) 
O=C(Nc1ccccc1Oc1ccccc1)c1ccc(S(=O)(=O)[N-]c2ccc([O-])cc2)cc1 (protonated)
O=C(Nc1ccccc1Oc1ccccc1)c1ccc(S(=O)(=O)[N-]c2ccc([O-])cc2)cc1 (3D coordinates assigned)
O=C(Nc1ccccc1Oc1ccccc1)c1ccc(S(=O)(=O)[N-]c2ccc([O-])cc2)cc1 (optimized conformer: 71.95681407225612 kcal/mol)

>  <smiles>  (91) 
O=C(Nc1ccccc1Oc1ccccc1)c1ccc(S(=O)(=O)Nc2ccc(O)cc2)cc1

>  <score_type>  (91) 
oracle

>  <origin>  (91) 
adg

>  <m_score__min__energy>  (91) 
-14.48

>  <m_primary>  (91) 
energy

$$$$
91:0
     RDKit          3D

 44 46  0  0  0  0  0  0  0  0999 V2000
   55.1450   29.2780   44.8210 N   0  0  0  0  0  0  0  0  0  0  0  0
   56.7010   29.9560   44.4940 S   0  0  0  0  0  0  0  0  0  0  0  0
   56.6050   31.4560   44.4960 O   0  0  0  0  0  0  0  0  0  0  0  0
   57.1670   29.5050   43.1380 O   0  0  0  0  0  0  0  0  0  0  0  0
   57.8430   29.4290   45.7250 C   0  0  0  0  0  0  0  0  0  0  0  0
   57.6600   28.2030   46.3800 C   0  0  0  0  0  0  0  0  0  0  0  0
   58.5620   27.7890   47.3650 C   0  0  0  0  0  0  0  0  0  0  0  0
   59.6480   28.6060   47.7180 C   0  0  0  0  0  0  0  0  0  0  0  0
   60.6390   28.1440   48.7450 C   0  0  0  0  0  0  0  0  0  0  0  0
   60.9840   29.2630   49.6170 N   0  0  0  0  0  0  0  0  0  0  0  0
   60.1190   30.0860   50.1330 C   0  0  0  0  0  0  0  0  0  0  0  0
   59.1780   29.6330   51.0100 N   0  0  0  0  0  0  0  0  0  0  0  0
   58.2630   30.4570   51.5790 C   0  0  0  0  0  0  0  0  0  0  0  0
   58.2630   31.8160   51.2710 C   0  0  0  0  0  0  0  0  0  0  0  0
   59.2080   32.3140   50.3760 C   0  0  0  0  0  0  0  0  0  0  0  0
   60.1590   31.4560   49.7950 C   0  0  0  0  0  0  0  0  0  0  0  0
   61.1470   31.9510   48.8680 N   0  0  0  0  0  0  0  0  0  0  0  0
   61.1400   33.5660   48.2320 S   0  0  0  0  0  0  0  0  0  0  0  0
   62.4350   33.8190   47.5130 O   0  0  0  0  0  0  0  0  0  0  0  0
   61.0080   34.5440   49.3650 O   0  0  0  0  0  0  0  0  0  0  0  0
   59.7700   33.7770   47.1450 C   0  0  0  0  0  0  0  0  0  0  0  0
   59.9350   34.4120   45.9060 C   0  0  0  0  0  0  0  0  0  0  0  0
   58.8430   34.5640   45.0450 C   0  0  0  0  0  0  0  0  0  0  0  0
   57.5840   34.0840   45.4180 C   0  0  0  0  0  0  0  0  0  0  0  0
   57.4150   33.4540   46.6540 C   0  0  0  0  0  0  0  0  0  0  0  0
   58.5050   33.3010   47.5180 C   0  0  0  0  0  0  0  0  0  0  0  0
   59.8330   29.8300   47.0560 C   0  0  0  0  0  0  0  0  0  0  0  0
   58.9300   30.2430   46.0710 C   0  0  0  0  0  0  0  0  0  0  0  0
   55.1740   28.2840   44.5020 H   0  0  0  0  0  0  0  0  0  0  0  0
   56.8036   27.5643   46.1180 H   0  0  0  0  0  0  0  0  0  0  0  0
   58.4203   26.8196   47.8652 H   0  0  0  0  0  0  0  0  0  0  0  0
   60.1976   27.3336   49.3437 H   0  0  0  0  0  0  0  0  0  0  0  0
   61.5452   27.7733   48.2435 H   0  0  0  0  0  0  0  0  0  0  0  0
   57.5212   30.0525   52.2834 H   0  0  0  0  0  0  0  0  0  0  0  0
   57.5241   32.4893   51.7300 H   0  0  0  0  0  0  0  0  0  0  0  0
   59.2102   33.3844   50.1225 H   0  0  0  0  0  0  0  0  0  0  0  0
   61.9740   31.3610   48.6270 H   0  0  0  0  0  0  0  0  0  0  0  0
   60.9244   34.7912   45.6105 H   0  0  0  0  0  0  0  0  0  0  0  0
   58.9751   35.0619   44.0731 H   0  0  0  0  0  0  0  0  0  0  0  0
   56.7268   34.2022   44.7389 H   0  0  0  0  0  0  0  0  0  0  0  0
   56.4240   33.0780   46.9480 H   0  0  0  0  0  0  0  0  0  0  0  0
   58.3692   32.8066   48.4912 H   0  0  0  0  0  0  0  0  0  0  0  0
   60.6920   30.4672   47.3131 H   0  0  0  0  0  0  0  0  0  0  0  0
   59.0735   31.2098   45.5663 H   0  0  0  0  0  0  0  0  0  0  0  0
  1  2  1  0
  2  3  2  0
  2  4  2  0
  2  5  1  0
  5  6  2  0
  6  7  1  0
  7  8  2  0
  8  9  1  0
  9 10  1  0
 10 11  2  3
 11 12  1  0
 12 13  1  0
 13 14  2  0
 14 15  1  0
 15 16  2  0
 16 17  1  0
 17 18  1  0
 18 19  2  0
 18 20  2  0
 18 21  1  0
 21 22  2  0
 22 23  1  0
 23 24  2  0
 24 25  1  0
 25 26  2  0
  8 27  1  0
 27 28  2  0
 28  5  1  0
 16 11  1  0
 26 21  1  0
  1 29  1  0
  6 30  1  0
  7 31  1  0
  9 32  1  0
  9 33  1  0
 13 34  1  0
 14 35  1  0
 15 36  1  0
 17 37  1  0
 22 38  1  0
 23 39  1  0
 24 40  1  0
 25 41  1  0
 26 42  1  0
 27 43  1  0
 28 44  1  0
M  CHG  2   1  -1  12  -1
M  END
>  <UniqueID>  (92) 
78

>  <SMILES>  (92) 
[NH-]S(=O)(=O)c1ccc(CN=c2[n-]cccc2NS(=O)(=O)c2ccccc2)cc1

>  <Energy>  (92) 
49.38864990183191

>  <Genealogy>  (92) 
[NH-]S(=O)(=O)c1ccc(CN=c2[n-]cccc2NS(=O)(=O)c2ccccc2)cc1 (protonated)
[NH-]S(=O)(=O)c1ccc(CN=c2[n-]cccc2NS(=O)(=O)c2ccccc2)cc1 (3D coordinates assigned)
[NH-]S(=O)(=O)c1ccc(CN=c2[n-]cccc2NS(=O)(=O)c2ccccc2)cc1 (optimized conformer: 49.38864990183191 kcal/mol)

>  <smiles>  (92) 
NS(=O)(=O)c1ccc(CN=c2[nH]cccc2NS(=O)(=O)c2ccccc2)cc1

>  <score_type>  (92) 
oracle

>  <origin>  (92) 
adg

>  <m_score__min__energy>  (92) 
-12.49

>  <m_primary>  (92) 
energy

$$$$
92:0
     RDKit          3D

 48 51  0  0  0  0  0  0  0  0999 V2000
   59.0850   33.8980   52.8170 C   0  0  0  0  0  0  0  0  0  0  0  0
   59.2730   32.9860   51.6340 C   0  0  0  0  0  0  0  0  0  0  0  0
   60.2090   33.3410   50.6480 C   0  0  0  0  0  0  0  0  0  0  0  0
   60.4430   32.5020   49.5490 C   0  0  0  0  0  0  0  0  0  0  0  0
   61.4340   32.8850   48.5250 C   0  0  0  0  0  0  0  0  0  0  0  0
   62.7880   32.6000   48.7660 C   0  0  0  0  0  0  0  0  0  0  0  0
   63.7610   32.9210   47.8170 C   0  0  0  0  0  0  0  0  0  0  0  0
   63.3920   33.5320   46.6190 C   0  0  0  0  0  0  0  0  0  0  0  0
   62.0510   33.8330   46.3690 C   0  0  0  0  0  0  0  0  0  0  0  0
   61.0610   33.5260   47.3170 C   0  0  0  0  0  0  0  0  0  0  0  0
   59.3840   33.9820   46.9700 S   0  0  0  0  0  0  0  0  0  0  0  0
   59.2890   34.6860   45.3950 N   0  0  0  0  0  0  0  0  0  0  0  0
   58.4920   32.7750   47.0420 O   0  0  0  0  0  0  0  0  0  0  0  0
   58.9090   34.9840   47.9850 O   0  0  0  0  0  0  0  0  0  0  0  0
   59.7570   31.2840   49.4520 C   0  0  0  0  0  0  0  0  0  0  0  0
   58.8110   30.9320   50.4140 C   0  0  0  0  0  0  0  0  0  0  0  0
   58.5340   31.7880   51.4860 C   0  0  0  0  0  0  0  0  0  0  0  0
   57.5340   31.3900   52.4330 N   0  0  0  0  0  0  0  0  0  0  0  0
   57.1530   30.0300   52.6760 C   0  0  0  0  0  0  0  0  0  0  0  0
   58.0470   29.1480   52.7920 O   0  0  0  0  0  0  0  0  0  0  0  0
   55.7170   29.6710   52.8210 C   0  0  0  0  0  0  0  0  0  0  0  0
   54.7260   30.5420   52.3220 C   0  0  0  0  0  0  0  0  0  0  0  0
   53.3580   30.2340   52.4380 C   0  0  0  0  0  0  0  0  0  0  0  0
   52.3240   31.1620   51.9100 C   0  0  0  0  0  0  0  0  0  0  0  0
   52.0190   31.4310   50.5880 C   0  0  0  0  0  0  0  0  0  0  0  0
   51.0220   32.3330   50.5380 N   0  0  0  0  0  0  0  0  0  0  0  0
   50.6740   32.6490   51.7760 N   0  0  0  0  0  0  0  0  0  0  0  0
   51.4490   31.9550   52.6300 C   0  0  0  0  0  0  0  0  0  0  0  0
   52.9840   29.0330   53.0620 C   0  0  0  0  0  0  0  0  0  0  0  0
   53.9540   28.1620   53.5590 C   0  0  0  0  0  0  0  0  0  0  0  0
   55.3110   28.4690   53.4430 C   0  0  0  0  0  0  0  0  0  0  0  0
   56.2420   27.5670   53.9470 O   0  0  0  0  0  0  0  0  0  0  0  0
   59.2037   33.3220   53.7466 H   0  0  0  0  0  0  0  0  0  0  0  0
   59.8366   34.7005   52.7844 H   0  0  0  0  0  0  0  0  0  0  0  0
   58.0773   34.3379   52.7844 H   0  0  0  0  0  0  0  0  0  0  0  0
   60.7637   34.2865   50.7391 H   0  0  0  0  0  0  0  0  0  0  0  0
   63.0846   32.1199   49.7102 H   0  0  0  0  0  0  0  0  0  0  0  0
   64.8186   32.6919   48.0145 H   0  0  0  0  0  0  0  0  0  0  0  0
   64.1586   33.7775   45.8692 H   0  0  0  0  0  0  0  0  0  0  0  0
   61.7678   34.3146   45.4215 H   0  0  0  0  0  0  0  0  0  0  0  0
   58.3000   34.9900   45.2560 H   0  0  0  0  0  0  0  0  0  0  0  0
   59.9656   30.6030   48.6137 H   0  0  0  0  0  0  0  0  0  0  0  0
   58.2780   29.9735   50.3296 H   0  0  0  0  0  0  0  0  0  0  0  0
   55.0284   31.4797   51.8329 H   0  0  0  0  0  0  0  0  0  0  0  0
   52.5134   30.9790   49.7155 H   0  0  0  0  0  0  0  0  0  0  0  0
   51.3950   32.0099   53.7273 H   0  0  0  0  0  0  0  0  0  0  0  0
   51.9187   28.7770   53.1597 H   0  0  0  0  0  0  0  0  0  0  0  0
   53.6468   27.2250   54.0466 H   0  0  0  0  0  0  0  0  0  0  0  0
  1  2  1  0
  2  3  2  0
  3  4  1  0
  4  5  1  0
  5  6  2  0
  6  7  1  0
  7  8  2  0
  8  9  1  0
  9 10  2  0
 10 11  1  0
 11 12  1  0
 11 13  2  0
 11 14  2  0
  4 15  2  0
 15 16  1  0
 16 17  2  0
 17 18  1  0
 18 19  1  0
 19 20  2  0
 19 21  1  0
 21 22  2  0
 22 23  1  0
 23 24  1  0
 24 25  1  0
 25 26  2  0
 26 27  1  0
 27 28  1  0
 23 29  2  0
 29 30  1  0
 30 31  2  0
 31 32  1  0
 17  2  1  0
 31 21  1  0
 10  5  1  0
 28 24  2  0
  1 33  1  0
  1 34  1  0
  1 35  1  0
  3 36  1  0
  6 37  1  0
  7 38  1  0
  8 39  1  0
  9 40  1  0
 12 41  1  0
 15 42  1  0
 16 43  1  0
 22 44  1  0
 25 45  1  0
 28 46  1  0
 29 47  1  0
 30 48  1  0
M  CHG  4  12  -1  18  -1  27  -1  32  -1
M  END
>  <UniqueID>  (93) 
79

>  <SMILES>  (93) 
Cc1cc(-c2ccccc2S([NH-])(=O)=O)ccc1[N-]C(=O)c1cc(-c2cn[n-]c2)ccc1[O-]

>  <Energy>  (93) 
102.08632762930787

>  <Genealogy>  (93) 
Cc1cc(-c2ccccc2S([NH-])(=O)=O)ccc1[N-]C(=O)c1cc(-c2cn[n-]c2)ccc1[O-] (protonated)
Cc1cc(-c2ccccc2S([NH-])(=O)=O)ccc1[N-]C(=O)c1cc(-c2cn[n-]c2)ccc1[O-] (3D coordinates assigned)
Cc1cc(-c2ccccc2S([NH-])(=O)=O)ccc1[N-]C(=O)c1cc(-c2cn[n-]c2)ccc1[O-] (optimized conformer: 102.08632762930787 kcal/mol)

>  <smiles>  (93) 
Cc1cc(-c2ccccc2S(N)(=O)=O)ccc1NC(=O)c1cc(-c2cn[nH]c2)ccc1O

>  <score_type>  (93) 
oracle

>  <origin>  (93) 
adg

>  <m_score__min__energy>  (93) 
-15.02

>  <m_primary>  (93) 
energy

$$$$
