0:0
     RDKit          3D

 46 48  0  0  0  0  0  0  0  0999 V2000
   59.2760   29.4470   43.3390 H   0  0  0  0  0  0  0  0  0  0  0  0
   58.7860   28.9770   44.1310 N   0  0  0  0  0  0  0  0  0  0  0  0
   57.5400   29.2020   44.4050 C   0  0  0  0  0  0  0  0  0  0  0  0
   56.8010   30.3030   44.0270 C   0  0  0  0  0  0  0  0  0  0  0  0
   57.2480   31.4480   43.2050 C   0  0  0  0  0  0  0  0  0  0  0  0
   57.0040   31.4430   41.9690 O   0  0  0  0  0  0  0  0  0  0  0  0
   57.9480   32.5750   43.7550 N   0  0  0  0  0  0  0  0  0  0  0  0
   57.4190   33.5640   44.6900 C   0  0  0  0  0  0  0  0  0  0  0  0
   57.4429   34.5562   44.2157 H   0  0  0  0  0  0  0  0  0  0  0  0
   56.3868   33.2849   44.9483 H   0  0  0  0  0  0  0  0  0  0  0  0
   58.2370   33.6030   45.9560 C   0  0  0  0  0  0  0  0  0  0  0  0
   59.2430   34.5700   46.1190 C   0  0  0  0  0  0  0  0  0  0  0  0
   59.4421   35.2936   45.3148 H   0  0  0  0  0  0  0  0  0  0  0  0
   59.9920   34.6170   47.2980 C   0  0  0  0  0  0  0  0  0  0  0  0
   60.7844   35.3708   47.4161 H   0  0  0  0  0  0  0  0  0  0  0  0
   59.7350   33.7070   48.3270 C   0  0  0  0  0  0  0  0  0  0  0  0
   60.3284   33.7419   49.2526 H   0  0  0  0  0  0  0  0  0  0  0  0
   58.7250   32.7530   48.1810 C   0  0  0  0  0  0  0  0  0  0  0  0
   58.5210   32.0403   48.9936 H   0  0  0  0  0  0  0  0  0  0  0  0
   57.9730   32.7030   47.0030 C   0  0  0  0  0  0  0  0  0  0  0  0
   57.1721   31.9567   46.8953 H   0  0  0  0  0  0  0  0  0  0  0  0
   55.5500   30.1160   44.4970 N   0  0  0  0  0  0  0  0  0  0  0  0
   55.5360   28.9570   45.1450 N   0  0  0  0  0  0  0  0  0  0  0  0
   56.7320   28.3870   45.1090 N   0  0  0  0  0  0  0  0  0  0  0  0
   57.0330   27.0780   45.6810 C   0  0  0  0  0  0  0  0  0  0  0  0
   56.0928   26.5707   45.9430 H   0  0  0  0  0  0  0  0  0  0  0  0
   57.5873   26.4812   44.9417 H   0  0  0  0  0  0  0  0  0  0  0  0
   57.8710   27.2340   46.9120 C   0  0  0  0  0  0  0  0  0  0  0  0
   57.9380   26.2860   47.7410 O   0  0  0  0  0  0  0  0  0  0  0  0
   58.6230   28.4400   47.1190 N   0  0  0  0  0  0  0  0  0  0  0  0
   58.7930   29.0550   46.2900 H   0  0  0  0  0  0  0  0  0  0  0  0
   59.2200   28.8140   48.3720 C   0  0  0  0  0  0  0  0  0  0  0  0
   60.4610   28.2890   48.7770 C   0  0  0  0  0  0  0  0  0  0  0  0
   61.0050   27.5969   48.1174 H   0  0  0  0  0  0  0  0  0  0  0  0
   61.0050   28.6440   50.0150 C   0  0  0  0  0  0  0  0  0  0  0  0
   61.9798   28.2377   50.3227 H   0  0  0  0  0  0  0  0  0  0  0  0
   60.3140   29.5130   50.8620 C   0  0  0  0  0  0  0  0  0  0  0  0
   60.7476   29.7921   51.8337 H   0  0  0  0  0  0  0  0  0  0  0  0
   59.0710   30.0300   50.4780 C   0  0  0  0  0  0  0  0  0  0  0  0
   58.1890   31.1050   51.5580 S   0  0  0  0  0  0  0  0  0  0  0  0
   58.4430   32.5370   51.1750 O   0  0  0  0  0  0  0  0  0  0  0  0
   58.6490   30.8940   52.9730 O   0  0  0  0  0  0  0  0  0  0  0  0
   56.4970   30.7700   51.4440 N   0  0  0  0  0  0  0  0  0  0  0  0
   56.0670   31.5480   50.8970 H   0  0  0  0  0  0  0  0  0  0  0  0
   58.5210   29.6670   49.2400 C   0  0  0  0  0  0  0  0  0  0  0  0
   57.5339   30.0539   48.9470 H   0  0  0  0  0  0  0  0  0  0  0  0
  1  2  1  0
  2  3  2  0
  3  4  1  0
  4  5  1  0
  5  6  2  0
  5  7  1  0
  7  8  1  0
  8  9  1  0
  8 10  1  0
  8 11  1  0
 11 12  2  0
 12 13  1  0
 12 14  1  0
 14 15  1  0
 14 16  2  0
 16 17  1  0
 16 18  1  0
 18 19  1  0
 18 20  2  0
 20 21  1  0
  4 22  2  0
 22 23  1  0
 23 24  1  0
 24 25  1  0
 25 26  1  0
 25 27  1  0
 25 28  1  0
 28 29  2  0
 28 30  1  0
 30 31  1  0
 30 32  1  0
 32 33  2  0
 33 34  1  0
 33 35  1  0
 35 36  1  0
 35 37  2  0
 37 38  1  0
 37 39  1  0
 39 40  1  0
 40 41  2  0
 40 42  2  0
 40 43  1  0
 43 44  1  0
 39 45  2  0
 45 46  1  0
 24  3  1  0
 45 32  1  0
 20 11  1  0
M  CHG  3   7  -1  23  -1  43  -1
M  END
>  <UniqueID>  (1) 
1

>  <SMILES>  (1) 
[H]/N=c1/c(C(=O)[N-]Cc2ccccc2)n[n-]n1CC(=O)Nc1cccc(S([NH-])(=O)=O)c1

>  <Energy>  (1) 
87.71409994867142

>  <Genealogy>  (1) 
N=c1c(C(=O)[N-]Cc2ccccc2)n[n-]n1CC(=O)Nc1cccc(S([NH-])(=O)=O)c1 (protonated)
[H]/N=c1/c(C(=O)[N-]Cc2ccccc2)n[n-]n1CC(=O)Nc1cccc(S([NH-])(=O)=O)c1 (cis-trans isomerization)
[H]/N=c1/c(C(=O)[N-]Cc2ccccc2)n[n-]n1CC(=O)Nc1cccc(S([NH-])(=O)=O)c1 (3D coordinates assigned)
[H]/N=c1/c(C(=O)[N-]Cc2ccccc2)n[n-]n1CC(=O)Nc1cccc(S([NH-])(=O)=O)c1 (optimized conformer: 87.71409994867142 kcal/mol)

>  <smiles>  (1) 
N=c1c(C(=O)NCc2ccccc2)n[nH]n1CC(=O)Nc1cccc(S(N)(=O)=O)c1

>  <score_type>  (1) 
oracle

>  <origin>  (1) 
adg

>  <m_score__min__energy>  (1) 
-13.619999999999999

>  <m_primary>  (1) 
energy

$$$$
1:0
     RDKit          3D

 51 54  0  0  0  0  0  0  0  0999 V2000
   56.1680   30.2590   44.6780 O   0  0  0  0  0  0  0  0  0  0  0  0
   57.3020   29.7050   44.6660 C   0  0  0  0  0  0  0  0  0  0  0  0
   58.4870   30.5100   44.8020 N   0  0  0  0  0  0  0  0  0  0  0  0
   58.4570   31.8770   45.2450 C   0  0  0  0  0  0  0  0  0  0  0  0
   57.6840   32.8020   44.5300 C   0  0  0  0  0  0  0  0  0  0  0  0
   57.6660   34.1460   44.9030 C   0  0  0  0  0  0  0  0  0  0  0  0
   58.4240   34.5830   45.9880 C   0  0  0  0  0  0  0  0  0  0  0  0
   59.2150   33.6800   46.7170 C   0  0  0  0  0  0  0  0  0  0  0  0
   60.0280   34.1880   47.8490 C   0  0  0  0  0  0  0  0  0  0  0  0
   59.4840   34.9540   48.6900 O   0  0  0  0  0  0  0  0  0  0  0  0
   61.4530   33.8170   48.0280 C   0  0  0  0  0  0  0  0  0  0  0  0
   61.9920   33.6140   49.3130 C   0  0  0  0  0  0  0  0  0  0  0  0
   63.3350   33.2590   49.4680 C   0  0  0  0  0  0  0  0  0  0  0  0
   64.1550   33.1110   48.3460 C   0  0  0  0  0  0  0  0  0  0  0  0
   63.6340   33.3240   47.0680 C   0  0  0  0  0  0  0  0  0  0  0  0
   62.2910   33.6790   46.9070 C   0  0  0  0  0  0  0  0  0  0  0  0
   59.2510   32.3210   46.3250 C   0  0  0  0  0  0  0  0  0  0  0  0
   60.1520   31.4130   46.9630 N   0  0  0  0  0  0  0  0  0  0  0  0
   59.6900   29.7870   47.3190 S   0  0  0  0  0  0  0  0  0  0  0  0
   60.1050   28.8950   46.1830 O   0  0  0  0  0  0  0  0  0  0  0  0
   58.1960   29.6990   47.4690 O   0  0  0  0  0  0  0  0  0  0  0  0
   60.4720   29.2770   48.8100 C   0  0  0  0  0  0  0  0  0  0  0  0
   60.3910   27.9390   49.2220 C   0  0  0  0  0  0  0  0  0  0  0  0
   60.9850   27.5380   50.4220 C   0  0  0  0  0  0  0  0  0  0  0  0
   61.6630   28.4690   51.2140 C   0  0  0  0  0  0  0  0  0  0  0  0
   61.7400   29.8040   50.8110 C   0  0  0  0  0  0  0  0  0  0  0  0
   61.1430   30.2110   49.6130 C   0  0  0  0  0  0  0  0  0  0  0  0
   57.3800   28.2290   44.5320 C   0  0  0  0  0  0  0  0  0  0  0  0
   57.7740   27.6620   43.3090 C   0  0  0  0  0  0  0  0  0  0  0  0
   57.8300   26.2740   43.1720 C   0  0  0  0  0  0  0  0  0  0  0  0
   57.5130   25.4720   44.2210 N   0  0  0  0  0  0  0  0  0  0  0  0
   57.1410   25.9870   45.4210 C   0  0  0  0  0  0  0  0  0  0  0  0
   57.0680   27.3710   45.6020 C   0  0  0  0  0  0  0  0  0  0  0  0
   59.4130   30.1270   44.5160 H   0  0  0  0  0  0  0  0  0  0  0  0
   57.0876   32.4659   43.6690 H   0  0  0  0  0  0  0  0  0  0  0  0
   57.0516   34.8633   44.3390 H   0  0  0  0  0  0  0  0  0  0  0  0
   58.4025   35.6445   46.2758 H   0  0  0  0  0  0  0  0  0  0  0  0
   61.3526   33.7355   50.1998 H   0  0  0  0  0  0  0  0  0  0  0  0
   63.7472   33.0958   50.4747 H   0  0  0  0  0  0  0  0  0  0  0  0
   65.2105   32.8268   48.4695 H   0  0  0  0  0  0  0  0  0  0  0  0
   64.2816   33.2123   46.1858 H   0  0  0  0  0  0  0  0  0  0  0  0
   61.8879   33.8512   45.8981 H   0  0  0  0  0  0  0  0  0  0  0  0
   59.8592   27.2040   48.5999 H   0  0  0  0  0  0  0  0  0  0  0  0
   60.9188   26.4881   50.7436 H   0  0  0  0  0  0  0  0  0  0  0  0
   62.1359   28.1502   52.1546 H   0  0  0  0  0  0  0  0  0  0  0  0
   62.2709   30.5367   51.4366 H   0  0  0  0  0  0  0  0  0  0  0  0
   61.1999   31.2642   49.3006 H   0  0  0  0  0  0  0  0  0  0  0  0
   58.0380   28.3105   42.4606 H   0  0  0  0  0  0  0  0  0  0  0  0
   58.1315   25.8289   42.2123 H   0  0  0  0  0  0  0  0  0  0  0  0
   56.8960   25.3121   46.2543 H   0  0  0  0  0  0  0  0  0  0  0  0
   56.7684   27.7867   46.5753 H   0  0  0  0  0  0  0  0  0  0  0  0
  1  2  2  0
  2  3  1  0
  3  4  1  0
  4  5  2  0
  5  6  1  0
  6  7  2  0
  7  8  1  0
  8  9  1  0
  9 10  2  0
  9 11  1  0
 11 12  2  0
 12 13  1  0
 13 14  2  0
 14 15  1  0
 15 16  2  0
  8 17  2  0
 17 18  1  0
 18 19  1  0
 19 20  2  0
 19 21  2  0
 19 22  1  0
 22 23  2  0
 23 24  1  0
 24 25  2  0
 25 26  1  0
 26 27  2  0
  2 28  1  0
 28 29  2  0
 29 30  1  0
 30 31  2  0
 31 32  1  0
 32 33  2  0
 17  4  1  0
 27 22  1  0
 33 28  1  0
 16 11  1  0
  3 34  1  0
  5 35  1  0
  6 36  1  0
  7 37  1  0
 12 38  1  0
 13 39  1  0
 14 40  1  0
 15 41  1  0
 16 42  1  0
 23 43  1  0
 24 44  1  0
 25 45  1  0
 26 46  1  0
 27 47  1  0
 29 48  1  0
 30 49  1  0
 32 50  1  0
 33 51  1  0
M  CHG  1  18  -1
M  END
>  <UniqueID>  (2) 
2

>  <SMILES>  (2) 
O=C(Nc1cccc(C(=O)c2ccccc2)c1[N-]S(=O)(=O)c1ccccc1)c1ccncc1

>  <Energy>  (2) 
76.20093723216783

>  <Genealogy>  (2) 
O=C(Nc1cccc(C(=O)c2ccccc2)c1[N-]S(=O)(=O)c1ccccc1)c1ccncc1 (protonated)
O=C(Nc1cccc(C(=O)c2ccccc2)c1[N-]S(=O)(=O)c1ccccc1)c1ccncc1 (3D coordinates assigned)
O=C(Nc1cccc(C(=O)c2ccccc2)c1[N-]S(=O)(=O)c1ccccc1)c1ccncc1 (optimized conformer: 76.20093723216783 kcal/mol)

>  <smiles>  (2) 
O=C(Nc1cccc(C(=O)c2ccccc2)c1NS(=O)(=O)c1ccccc1)c1ccncc1

>  <score_type>  (2) 
oracle

>  <origin>  (2) 
adg

>  <m_score__min__energy>  (2) 
-11.289999999999999

>  <m_primary>  (2) 
energy

$$$$
2:0
     RDKit          3D

 42 43  0  0  0  0  0  0  0  0999 V2000
   58.8750   34.5770   45.4440 C   0  0  0  0  0  0  0  0  0  0  0  0
   58.0730   33.4760   45.8600 O   0  0  0  0  0  0  0  0  0  0  0  0
   58.4060   32.6010   46.9060 C   0  0  0  0  0  0  0  0  0  0  0  0
   58.9540   33.0620   48.1190 C   0  0  0  0  0  0  0  0  0  0  0  0
   59.2720   32.1610   49.1380 C   0  0  0  0  0  0  0  0  0  0  0  0
   59.0570   30.7880   48.9610 C   0  0  0  0  0  0  0  0  0  0  0  0
   59.3720   29.8200   50.0720 C   0  0  0  0  0  0  0  0  0  0  0  0
   58.7490   30.2600   51.4020 C   0  0  0  0  0  0  0  0  0  0  0  0
   57.3590   29.8070   51.5100 N   0  0  0  0  0  0  0  0  0  0  0  0
   56.3680   30.9750   52.3350 S   0  0  0  0  0  0  0  0  0  0  0  0
   56.6290   32.3470   51.7780 O   0  0  0  0  0  0  0  0  0  0  0  0
   56.7260   30.9800   53.7940 O   0  0  0  0  0  0  0  0  0  0  0  0
   54.6640   30.5640   52.1650 C   0  0  0  0  0  0  0  0  0  0  0  0
   54.2020   29.2870   52.5060 C   0  0  0  0  0  0  0  0  0  0  0  0
   52.8430   28.9840   52.4080 C   0  0  0  0  0  0  0  0  0  0  0  0
   51.9360   29.9560   51.9750 C   0  0  0  0  0  0  0  0  0  0  0  0
   52.3830   31.2440   51.6340 C   0  0  0  0  0  0  0  0  0  0  0  0
   51.4200   32.2750   51.1900 C   0  0  0  0  0  0  0  0  0  0  0  0
   50.9430   33.1040   52.0110 O   0  0  0  0  0  0  0  0  0  0  0  0
   51.0250   32.3420   49.8580 O   0  0  0  0  0  0  0  0  0  0  0  0
   53.7550   31.5380   51.7300 C   0  0  0  0  0  0  0  0  0  0  0  0
   58.5040   30.3260   47.7580 C   0  0  0  0  0  0  0  0  0  0  0  0
   58.1790   31.2280   46.7260 C   0  0  0  0  0  0  0  0  0  0  0  0
   57.6280   30.7990   45.5070 O   0  0  0  0  0  0  0  0  0  0  0  0
   58.2500   30.9640   44.2380 C   0  0  0  0  0  0  0  0  0  0  0  0
   59.2598   35.1053   46.3288 H   0  0  0  0  0  0  0  0  0  0  0  0
   59.7183   34.2092   44.8410 H   0  0  0  0  0  0  0  0  0  0  0  0
   58.2663   35.2668   44.8410 H   0  0  0  0  0  0  0  0  0  0  0  0
   59.1325   34.1376   48.2646 H   0  0  0  0  0  0  0  0  0  0  0  0
   59.6934   32.5314   50.0842 H   0  0  0  0  0  0  0  0  0  0  0  0
   58.9769   28.8290   49.8039 H   0  0  0  0  0  0  0  0  0  0  0  0
   60.4642   29.7880   50.1992 H   0  0  0  0  0  0  0  0  0  0  0  0
   59.3318   29.8315   52.2307 H   0  0  0  0  0  0  0  0  0  0  0  0
   58.7625   31.3590   51.4471 H   0  0  0  0  0  0  0  0  0  0  0  0
   54.9116   28.5209   52.8519 H   0  0  0  0  0  0  0  0  0  0  0  0
   52.4847   27.9781   52.6721 H   0  0  0  0  0  0  0  0  0  0  0  0
   50.8662   29.7111   51.9008 H   0  0  0  0  0  0  0  0  0  0  0  0
   54.1178   32.5411   51.4613 H   0  0  0  0  0  0  0  0  0  0  0  0
   58.3225   29.2500   47.6190 H   0  0  0  0  0  0  0  0  0  0  0  0
   59.3043   31.2437   44.3800 H   0  0  0  0  0  0  0  0  0  0  0  0
   58.1936   30.0198   43.6764 H   0  0  0  0  0  0  0  0  0  0  0  0
   57.7330   31.7561   43.6764 H   0  0  0  0  0  0  0  0  0  0  0  0
  1  2  1  0
  2  3  1  0
  3  4  2  0
  4  5  1  0
  5  6  2  0
  6  7  1  0
  7  8  1  0
  8  9  1  0
  9 10  1  0
 10 11  2  0
 10 12  2  0
 10 13  1  0
 13 14  2  0
 14 15  1  0
 15 16  2  0
 16 17  1  0
 17 18  1  0
 18 19  2  0
 18 20  1  0
 17 21  2  0
  6 22  1  0
 22 23  2  0
 23 24  1  0
 24 25  1  0
 23  3  1  0
 21 13  1  0
  1 26  1  0
  1 27  1  0
  1 28  1  0
  4 29  1  0
  5 30  1  0
  7 31  1  0
  7 32  1  0
  8 33  1  0
  8 34  1  0
 14 35  1  0
 15 36  1  0
 16 37  1  0
 21 38  1  0
 22 39  1  0
 25 40  1  0
 25 41  1  0
 25 42  1  0
M  CHG  2   9  -1  20  -1
M  END
>  <UniqueID>  (3) 
3

>  <SMILES>  (3) 
COc1ccc(CC[N-]S(=O)(=O)c2cccc(C(=O)[O-])c2)cc1OC

>  <Energy>  (3) 
37.75519070059054

>  <Genealogy>  (3) 
COc1ccc(CC[N-]S(=O)(=O)c2cccc(C(=O)[O-])c2)cc1OC (protonated)
COc1ccc(CC[N-]S(=O)(=O)c2cccc(C(=O)[O-])c2)cc1OC (3D coordinates assigned)
COc1ccc(CC[N-]S(=O)(=O)c2cccc(C(=O)[O-])c2)cc1OC (optimized conformer: 37.75519070059054 kcal/mol)

>  <smiles>  (3) 
COc1ccc(CCNS(=O)(=O)c2cccc(C(=O)O)c2)cc1OC

>  <score_type>  (3) 
oracle

>  <origin>  (3) 
adg

>  <m_score__min__energy>  (3) 
-11.94

>  <m_primary>  (3) 
energy

$$$$
3:0
     RDKit          3D

 39 41  0  0  0  0  0  0  0  0999 V2000
   59.3900   23.0280   45.2670 N   0  0  0  0  0  0  0  0  0  0  0  0
   58.3210   23.4420   45.4250 C   0  0  0  0  0  0  0  0  0  0  0  0
   56.9870   23.9590   45.6220 C   0  0  0  0  0  0  0  0  0  0  0  0
   56.7570   25.3330   45.8640 C   0  0  0  0  0  0  0  0  0  0  0  0
   57.8640   26.3110   45.9930 C   0  0  0  0  0  0  0  0  0  0  0  0
   58.2640   26.7760   47.2560 C   0  0  0  0  0  0  0  0  0  0  0  0
   59.2730   27.7360   47.3680 C   0  0  0  0  0  0  0  0  0  0  0  0
   59.8860   28.2610   46.2190 C   0  0  0  0  0  0  0  0  0  0  0  0
   60.9090   29.3650   46.3510 C   0  0  0  0  0  0  0  0  0  0  0  0
   60.3890   30.4750   47.1500 N   0  0  0  0  0  0  0  0  0  0  0  0
   59.2340   31.2670   46.8310 C   0  0  0  0  0  0  0  0  0  0  0  0
   58.9580   32.2610   47.5520 O   0  0  0  0  0  0  0  0  0  0  0  0
   58.3320   30.9140   45.7220 C   0  0  0  0  0  0  0  0  0  0  0  0
   58.4890   31.4990   44.4580 C   0  0  0  0  0  0  0  0  0  0  0  0
   57.6610   31.1160   43.3980 C   0  0  0  0  0  0  0  0  0  0  0  0
   56.6690   30.1440   43.5930 C   0  0  0  0  0  0  0  0  0  0  0  0
   55.8500   29.7470   42.5380 O   0  0  0  0  0  0  0  0  0  0  0  0
   56.5020   29.5680   44.8600 C   0  0  0  0  0  0  0  0  0  0  0  0
   55.5220   28.6030   45.0640 O   0  0  0  0  0  0  0  0  0  0  0  0
   57.3230   29.9590   45.9230 C   0  0  0  0  0  0  0  0  0  0  0  0
   59.5080   27.7710   44.9550 C   0  0  0  0  0  0  0  0  0  0  0  0
   60.0990   28.2330   43.8240 F   0  0  0  0  0  0  0  0  0  0  0  0
   58.4960   26.8140   44.8460 C   0  0  0  0  0  0  0  0  0  0  0  0
   55.4330   25.7790   45.9870 C   0  0  0  0  0  0  0  0  0  0  0  0
   54.3980   24.9040   45.8880 N   0  0  0  0  0  0  0  0  0  0  0  0
   54.5990   23.5800   45.6650 C   0  0  0  0  0  0  0  0  0  0  0  0
   53.6100   22.8060   45.5810 O   0  0  0  0  0  0  0  0  0  0  0  0
   55.8970   23.0820   45.5260 C   0  0  0  0  0  0  0  0  0  0  0  0
   56.0940   21.7590   45.2890 F   0  0  0  0  0  0  0  0  0  0  0  0
   57.7804   26.3824   48.1622 H   0  0  0  0  0  0  0  0  0  0  0  0
   59.5892   28.0828   48.3629 H   0  0  0  0  0  0  0  0  0  0  0  0
   61.8097   28.9633   46.8381 H   0  0  0  0  0  0  0  0  0  0  0  0
   61.1473   29.7413   45.3452 H   0  0  0  0  0  0  0  0  0  0  0  0
   59.2657   32.2616   44.2993 H   0  0  0  0  0  0  0  0  0  0  0  0
   57.7882   31.5786   42.4081 H   0  0  0  0  0  0  0  0  0  0  0  0
   55.1960   28.9790   42.6360 H   0  0  0  0  0  0  0  0  0  0  0  0
   57.1775   29.5167   46.9196 H   0  0  0  0  0  0  0  0  0  0  0  0
   58.1923   26.4520   43.8527 H   0  0  0  0  0  0  0  0  0  0  0  0
   55.2308   26.8455   46.1650 H   0  0  0  0  0  0  0  0  0  0  0  0
  1  2  3  0
  2  3  1  0
  3  4  1  0
  4  5  1  0
  5  6  2  0
  6  7  1  0
  7  8  2  0
  8  9  1  0
  9 10  1  0
 10 11  1  0
 11 12  2  0
 11 13  1  0
 13 14  2  0
 14 15  1  0
 15 16  2  0
 16 17  1  0
 16 18  1  0
 18 19  1  0
 18 20  2  0
  8 21  1  0
 21 22  1  0
 21 23  2  0
  4 24  2  0
 24 25  1  0
 25 26  1  0
 26 27  2  0
 26 28  1  0
 28 29  1  0
 28  3  2  0
 23  5  1  0
 20 13  1  0
  6 30  1  0
  7 31  1  0
  9 32  1  0
  9 33  1  0
 14 34  1  0
 15 35  1  0
 17 36  1  0
 20 37  1  0
 23 38  1  0
 24 39  1  0
M  CHG  3  10  -1  19  -1  25  -1
M  END
>  <UniqueID>  (4) 
4

>  <SMILES>  (4) 
N#Cc1c(-c2ccc(C[N-]C(=O)c3ccc(O)c([O-])c3)c(F)c2)c[n-]c(=O)c1F

>  <Energy>  (4) 
52.69578800942463

>  <Genealogy>  (4) 
N#Cc1c(-c2ccc(C[N-]C(=O)c3ccc(O)c([O-])c3)c(F)c2)c[n-]c(=O)c1F (protonated)
N#Cc1c(-c2ccc(C[N-]C(=O)c3ccc(O)c([O-])c3)c(F)c2)c[n-]c(=O)c1F (3D coordinates assigned)
N#Cc1c(-c2ccc(C[N-]C(=O)c3ccc(O)c([O-])c3)c(F)c2)c[n-]c(=O)c1F (optimized conformer: 52.69578800942463 kcal/mol)

>  <smiles>  (4) 
N#Cc1c(-c2ccc(CNC(=O)c3ccc(O)c(O)c3)c(F)c2)c[nH]c(=O)c1F

>  <score_type>  (4) 
oracle

>  <origin>  (4) 
adg

>  <m_score__min__energy>  (4) 
-13.31

>  <m_primary>  (4) 
energy

$$$$
4:0
     RDKit          3D

 68 71  0  0  0  0  0  0  0  0999 V2000
   58.5240   27.8820   43.3640 C   0  0  0  0  0  0  0  0  0  0  0  0
   57.4610   27.9900   44.3590 N   0  0  0  0  0  0  0  0  0  0  0  0
   57.4790   27.1020   45.4850 C   0  0  0  0  0  0  0  0  0  0  0  0
   56.8070   25.8730   45.3890 C   0  0  0  0  0  0  0  0  0  0  0  0
   56.8230   24.9710   46.4530 C   0  0  0  0  0  0  0  0  0  0  0  0
   57.5090   25.2870   47.6240 C   0  0  0  0  0  0  0  0  0  0  0  0
   58.1800   26.5050   47.7360 C   0  0  0  0  0  0  0  0  0  0  0  0
   58.1760   27.4300   46.6760 C   0  0  0  0  0  0  0  0  0  0  0  0
   58.8880   28.6800   46.8220 N   0  0  0  0  0  0  0  0  0  0  0  0
   58.6070   29.5760   47.9540 C   0  0  0  0  0  0  0  0  0  0  0  0
   59.8970   30.2230   48.4780 C   0  0  0  0  0  0  0  0  0  0  0  0
   60.7620   30.7020   47.3880 N   0  0  0  0  0  0  0  0  0  0  0  0
   62.0790   31.2140   47.6800 C   0  0  0  0  0  0  0  0  0  0  0  0
   63.0230   30.9740   46.8790 O   0  0  0  0  0  0  0  0  0  0  0  0
   62.3530   31.9590   48.9700 C   0  0  1  0  0  0  0  0  0  0  0  0
   61.6570   33.3420   49.0600 C   0  0  0  0  0  0  0  0  0  0  0  0
   60.5700   33.5520   48.0260 C   0  0  0  0  0  0  0  0  0  0  0  0
   60.8980   33.9960   46.7330 C   0  0  0  0  0  0  0  0  0  0  0  0
   59.8980   34.1960   45.7770 C   0  0  0  0  0  0  0  0  0  0  0  0
   58.5610   33.9430   46.0970 C   0  0  0  0  0  0  0  0  0  0  0  0
   57.3080   34.1900   44.8970 Cl  0  0  0  0  0  0  0  0  0  0  0  0
   58.2260   33.4790   47.3730 C   0  0  0  0  0  0  0  0  0  0  0  0
   59.2250   33.2770   48.3300 C   0  0  0  0  0  0  0  0  0  0  0  0
   61.9690   31.1110   50.1020 N   0  0  0  0  0  0  0  0  0  0  0  0
   61.4850   31.5710   51.3710 C   0  0  0  0  0  0  0  0  0  0  0  0
   62.2840   31.6080   52.3430 O   0  0  0  0  0  0  0  0  0  0  0  0
   60.0820   31.9710   51.5810 C   0  0  0  0  0  0  0  0  0  0  0  0
   59.7620   33.2790   51.9780 C   0  0  0  0  0  0  0  0  0  0  0  0
   58.4290   33.6420   52.1930 C   0  0  0  0  0  0  0  0  0  0  0  0
   57.4120   32.6990   52.0280 C   0  0  0  0  0  0  0  0  0  0  0  0
   57.7250   31.3900   51.6530 C   0  0  0  0  0  0  0  0  0  0  0  0
   59.0570   31.0230   51.4380 C   0  0  0  0  0  0  0  0  0  0  0  0
   60.3360   30.5120   45.9950 C   0  0  0  0  0  0  0  0  0  0  0  0
   59.8750   29.0680   45.7990 C   0  0  0  0  0  0  0  0  0  0  0  0
   56.6570   29.5190   44.5260 S   0  0  0  0  0  0  0  0  0  0  0  0
   56.7610   30.4570   43.0190 C   0  0  0  0  0  0  0  0  0  0  0  0
   55.2130   29.2890   44.8710 O   0  0  0  0  0  0  0  0  0  0  0  0
   57.3070   30.3160   45.6230 O   0  0  0  0  0  0  0  0  0  0  0  0
   59.4941   27.7834   43.8731 H   0  0  0  0  0  0  0  0  0  0  0  0
   58.3486   26.9971   42.7346 H   0  0  0  0  0  0  0  0  0  0  0  0
   58.5302   28.7841   42.7346 H   0  0  0  0  0  0  0  0  0  0  0  0
   56.2633   25.6192   44.4670 H   0  0  0  0  0  0  0  0  0  0  0  0
   56.2941   24.0103   46.3676 H   0  0  0  0  0  0  0  0  0  0  0  0
   57.5215   24.5745   48.4620 H   0  0  0  0  0  0  0  0  0  0  0  0
   58.7188   26.7451   48.6645 H   0  0  0  0  0  0  0  0  0  0  0  0
   57.9166   30.3663   47.6243 H   0  0  0  0  0  0  0  0  0  0  0  0
   58.1573   28.9847   48.7653 H   0  0  0  0  0  0  0  0  0  0  0  0
   59.6302   31.0760   49.1192 H   0  0  0  0  0  0  0  0  0  0  0  0
   60.4539   29.4584   49.0395 H   0  0  0  0  0  0  0  0  0  0  0  0
   63.4313   32.1751   48.9957 H   0  0  0  0  0  0  0  0  0  0  0  0
   61.2075   33.4389   50.0593 H   0  0  0  0  0  0  0  0  0  0  0  0
   62.4300   34.1009   48.8685 H   0  0  0  0  0  0  0  0  0  0  0  0
   61.9492   34.1874   46.4717 H   0  0  0  0  0  0  0  0  0  0  0  0
   60.1637   34.5531   44.7711 H   0  0  0  0  0  0  0  0  0  0  0  0
   57.1751   33.2727   47.6241 H   0  0  0  0  0  0  0  0  0  0  0  0
   58.9568   32.9002   49.3281 H   0  0  0  0  0  0  0  0  0  0  0  0
   60.5622   34.0203   52.1203 H   0  0  0  0  0  0  0  0  0  0  0  0
   58.1810   34.6710   52.4923 H   0  0  0  0  0  0  0  0  0  0  0  0
   56.3634   32.9872   52.1935 H   0  0  0  0  0  0  0  0  0  0  0  0
   56.9231   30.6477   51.5268 H   0  0  0  0  0  0  0  0  0  0  0  0
   59.3022   29.9884   51.1560 H   0  0  0  0  0  0  0  0  0  0  0  0
   59.5054   31.1966   45.7683 H   0  0  0  0  0  0  0  0  0  0  0  0
   61.1785   30.7241   45.3203 H   0  0  0  0  0  0  0  0  0  0  0  0
   59.4175   28.9694   44.8035 H   0  0  0  0  0  0  0  0  0  0  0  0
   60.7499   28.4076   45.8911 H   0  0  0  0  0  0  0  0  0  0  0  0
   56.8793   31.5240   43.2587 H   0  0  0  0  0  0  0  0  0  0  0  0
   57.6267   30.1146   42.4330 H   0  0  0  0  0  0  0  0  0  0  0  0
   55.8413   30.3126   42.4330 H   0  0  0  0  0  0  0  0  0  0  0  0
  1  2  1  0
  2  3  1  0
  3  4  2  0
  4  5  1  0
  5  6  2  0
  6  7  1  0
  7  8  2  0
  8  9  1  0
  9 10  1  0
 10 11  1  0
 11 12  1  0
 12 13  1  0
 13 14  2  0
 13 15  1  0
 15 16  1  0
 16 17  1  0
 17 18  2  0
 18 19  1  0
 19 20  2  0
 20 21  1  0
 20 22  1  0
 22 23  2  0
 15 24  1  0
 24 25  1  0
 25 26  2  0
 25 27  1  0
 27 28  2  0
 28 29  1  0
 29 30  2  0
 30 31  1  0
 31 32  2  0
 12 33  1  0
 33 34  1  0
  2 35  1  0
 35 36  1  0
 35 37  2  0
 35 38  2  0
  8  3  1  0
 34  9  1  0
 23 17  1  0
 32 27  1  0
  1 39  1  0
  1 40  1  0
  1 41  1  0
  4 42  1  0
  5 43  1  0
  6 44  1  0
  7 45  1  0
 10 46  1  0
 10 47  1  0
 11 48  1  0
 11 49  1  0
 15 50  1  1
 16 51  1  0
 16 52  1  0
 18 53  1  0
 19 54  1  0
 22 55  1  0
 23 56  1  0
 28 57  1  0
 29 58  1  0
 30 59  1  0
 31 60  1  0
 32 61  1  0
 33 62  1  0
 33 63  1  0
 34 64  1  0
 34 65  1  0
 36 66  1  0
 36 67  1  0
 36 68  1  0
M  CHG  1  24  -1
M  END
>  <UniqueID>  (5) 
5

>  <SMILES>  (5) 
CN(c1ccccc1N1CCN(C(=O)[C@@H](Cc2ccc(Cl)cc2)[N-]C(=O)c2ccccc2)CC1)S(C)(=O)=O

>  <Energy>  (5) 
82.7699355327736

>  <Genealogy>  (5) 
CN(c1ccccc1N1CCN(C(=O)C(Cc2ccc(Cl)cc2)[N-]C(=O)c2ccccc2)CC1)S(C)(=O)=O (protonated)
CN(c1ccccc1N1CCN(C(=O)[C@@H](Cc2ccc(Cl)cc2)[N-]C(=O)c2ccccc2)CC1)S(C)(=O)=O (chirality)
CN(c1ccccc1N1CCN(C(=O)[C@@H](Cc2ccc(Cl)cc2)[N-]C(=O)c2ccccc2)CC1)S(C)(=O)=O (3D coordinates assigned)
CN(c1ccccc1N1CCN(C(=O)[C@@H](Cc2ccc(Cl)cc2)[N-]C(=O)c2ccccc2)CC1)S(C)(=O)=O (nonaromatic ring conformer: 82.7699355327736 kcal/mol)

>  <smiles>  (5) 
CN(c1ccccc1N1CCN(C(=O)C(Cc2ccc(Cl)cc2)NC(=O)c2ccccc2)CC1)S(C)(=O)=O

>  <score_type>  (5) 
oracle

>  <origin>  (5) 
adg

>  <m_score__min__energy>  (5) 
-11.699999999999999

>  <m_primary>  (5) 
energy

$$$$
5:0
     RDKit          3D

 38 39  0  0  0  0  0  0  0  0999 V2000
   57.0620   30.1390   45.6360 O   0  0  0  0  0  0  0  0  0  0  0  0
   57.2840   30.5600   44.4850 C   0  0  0  0  0  0  0  0  0  0  0  0
   57.5600   29.6830   43.4020 N   0  0  0  0  0  0  0  0  0  0  0  0
   57.6000   28.2340   43.5430 C   0  0  0  0  0  0  0  0  0  0  0  0
   58.9440   27.8780   44.1360 C   0  0  0  0  0  0  0  0  0  0  0  0
   58.7290   27.7870   45.6420 C   0  0  0  0  0  0  0  0  0  0  0  0
   57.5240   26.9760   45.9380 C   0  0  0  0  0  0  0  0  0  0  0  0
   57.5260   25.6330   46.2710 C   0  0  0  0  0  0  0  0  0  0  0  0
   56.2360   25.2090   46.4760 C   0  0  0  0  0  0  0  0  0  0  0  0
   55.8450   24.0690   46.7900 O   0  0  0  0  0  0  0  0  0  0  0  0
   55.4590   26.3020   46.2660 N   0  0  0  0  0  0  0  0  0  0  0  0
   56.2310   27.3390   45.9490 N   0  0  0  0  0  0  0  0  0  0  0  0
   57.2660   31.9530   44.2180 N   0  0  0  0  0  0  0  0  0  0  0  0
   57.0070   32.9740   45.2010 C   0  0  0  0  0  0  0  0  0  0  0  0
   58.2100   33.3660   45.9790 C   0  0  0  0  0  0  0  0  0  0  0  0
   58.3850   32.6980   47.1960 C   0  0  0  0  0  0  0  0  0  0  0  0
   59.4840   32.9970   47.9840 C   0  0  0  0  0  0  0  0  0  0  0  0
   60.3730   33.9460   47.5380 C   0  0  0  0  0  0  0  0  0  0  0  0
   60.2190   34.6160   46.3410 C   0  0  0  0  0  0  0  0  0  0  0  0
   59.1170   34.3110   45.5590 C   0  0  0  0  0  0  0  0  0  0  0  0
   57.7450   30.0860   42.4570 H   0  0  0  0  0  0  0  0  0  0  0  0
   56.7929   27.8982   44.2107 H   0  0  0  0  0  0  0  0  0  0  0  0
   57.4618   27.7435   42.5682 H   0  0  0  0  0  0  0  0  0  0  0  0
   59.2922   26.9123   43.7408 H   0  0  0  0  0  0  0  0  0  0  0  0
   59.7071   28.6287   43.8830 H   0  0  0  0  0  0  0  0  0  0  0  0
   59.6076   27.3158   46.1068 H   0  0  0  0  0  0  0  0  0  0  0  0
   58.5887   28.8001   46.0468 H   0  0  0  0  0  0  0  0  0  0  0  0
   58.4228   25.0021   46.3581 H   0  0  0  0  0  0  0  0  0  0  0  0
   54.4160   26.2580   46.3580 H   0  0  0  0  0  0  0  0  0  0  0  0
   55.9050   28.3080   45.7350 H   0  0  0  0  0  0  0  0  0  0  0  0
   57.4540   32.3030   43.2330 H   0  0  0  0  0  0  0  0  0  0  0  0
   56.6210   33.8650   44.6842 H   0  0  0  0  0  0  0  0  0  0  0  0
   56.2808   32.5587   45.9153 H   0  0  0  0  0  0  0  0  0  0  0  0
   57.6562   31.9421   47.5239 H   0  0  0  0  0  0  0  0  0  0  0  0
   59.6420   32.4864   48.9454 H   0  0  0  0  0  0  0  0  0  0  0  0
   61.2466   34.1821   48.1633 H   0  0  0  0  0  0  0  0  0  0  0  0
   60.9507   35.3708   46.0172 H   0  0  0  0  0  0  0  0  0  0  0  0
   58.9667   34.8263   44.5988 H   0  0  0  0  0  0  0  0  0  0  0  0
  1  2  2  0
  2  3  1  0
  3  4  1  0
  4  5  1  0
  5  6  1  0
  6  7  1  0
  7  8  2  0
  8  9  1  0
  9 10  2  0
  9 11  1  0
 11 12  1  0
  2 13  1  0
 13 14  1  0
 14 15  1  0
 15 16  2  0
 16 17  1  0
 17 18  2  0
 18 19  1  0
 19 20  2  0
 12  7  1  0
 20 15  1  0
  3 21  1  0
  4 22  1  0
  4 23  1  0
  5 24  1  0
  5 25  1  0
  6 26  1  0
  6 27  1  0
  8 28  1  0
 11 29  1  0
 12 30  1  0
 13 31  1  0
 14 32  1  0
 14 33  1  0
 16 34  1  0
 17 35  1  0
 18 36  1  0
 19 37  1  0
 20 38  1  0
M  END
>  <smiles>  (6) 
O=C(NCCCc1cc(=O)[nH][nH]1)NCc1ccccc1

>  <score_type>  (6) 
oracle

>  <origin>  (6) 
adg

>  <m_score__min__energy>  (6) 
-7.9000000000000004

>  <m_primary>  (6) 
energy

$$$$
6:0
     RDKit          3D

 42 43  0  0  0  0  0  0  0  0999 V2000
   57.7530   27.8730   43.3210 C   0  0  0  0  0  0  0  0  0  0  0  0
   58.1400   27.6510   44.5890 C   0  0  0  0  0  0  0  0  0  0  0  0
   58.0570   26.4330   45.2770 C   0  0  0  0  0  0  0  0  0  0  0  0
   57.5810   25.2610   44.8020 C   0  0  0  0  0  0  0  0  0  0  0  0
   56.2300   24.7220   45.0730 C   0  0  0  0  0  0  0  0  0  0  0  0
   55.8540   23.4440   44.8850 N   0  0  0  0  0  0  0  0  0  0  0  0
   54.5830   23.4140   45.3350 C   0  0  0  0  0  0  0  0  0  0  0  0
   53.8790   22.3700   45.3130 O   0  0  0  0  0  0  0  0  0  0  0  0
   54.1250   24.5900   45.8120 N   0  0  0  0  0  0  0  0  0  0  0  0
   55.1780   25.4090   45.6470 C   0  0  0  0  0  0  0  0  0  0  0  0
   55.1590   26.7530   46.0100 O   0  0  0  0  0  0  0  0  0  0  0  0
   58.6080   26.6600   46.5320 C   0  0  0  0  0  0  0  0  0  0  0  0
   58.9950   27.9850   46.5620 C   0  0  0  0  0  0  0  0  0  0  0  0
   59.6640   28.6460   47.7290 C   0  0  0  0  0  0  0  0  0  0  0  0
   58.6950   28.5970   45.3940 N   0  0  0  0  0  0  0  0  0  0  0  0
   59.0090   29.9950   45.0590 C   0  0  0  0  0  0  0  0  0  0  0  0
   57.8420   30.8830   45.3610 C   0  0  0  0  0  0  0  0  0  0  0  0
   56.7070   30.6050   44.8880 O   0  0  0  0  0  0  0  0  0  0  0  0
   58.0280   32.0580   46.1570 N   0  0  0  0  0  0  0  0  0  0  0  0
   58.3420   33.3750   45.6100 C   0  0  1  0  0  0  0  0  0  0  0  0
   57.0290   34.0750   45.2440 C   0  0  0  0  0  0  0  0  0  0  0  0
   59.1570   34.1830   46.6430 C   0  0  0  0  0  0  0  0  0  0  0  0
   60.6660   34.0320   46.4560 C   0  0  0  0  0  0  0  0  0  0  0  0
   57.8647   28.8741   42.8791 H   0  0  0  0  0  0  0  0  0  0  0  0
   57.3246   27.0535   42.7252 H   0  0  0  0  0  0  0  0  0  0  0  0
   58.2488   24.6620   44.1654 H   0  0  0  0  0  0  0  0  0  0  0  0
   55.1440   27.4940   45.3210 H   0  0  0  0  0  0  0  0  0  0  0  0
   58.7152   25.9262   47.3444 H   0  0  0  0  0  0  0  0  0  0  0  0
   59.2532   28.2402   48.6653 H   0  0  0  0  0  0  0  0  0  0  0  0
   60.7461   28.4526   47.6891 H   0  0  0  0  0  0  0  0  0  0  0  0
   59.4836   29.7304   47.6891 H   0  0  0  0  0  0  0  0  0  0  0  0
   59.8759   30.3230   45.6514 H   0  0  0  0  0  0  0  0  0  0  0  0
   59.2362   30.0603   43.9847 H   0  0  0  0  0  0  0  0  0  0  0  0
   58.9561   33.2867   44.7017 H   0  0  0  0  0  0  0  0  0  0  0  0
   56.4962   34.3590   46.1635 H   0  0  0  0  0  0  0  0  0  0  0  0
   57.2466   34.9768   44.6529 H   0  0  0  0  0  0  0  0  0  0  0  0
   56.4016   33.3917   44.6529 H   0  0  0  0  0  0  0  0  0  0  0  0
   58.8952   35.2467   46.5428 H   0  0  0  0  0  0  0  0  0  0  0  0
   58.9064   33.7931   47.6406 H   0  0  0  0  0  0  0  0  0  0  0  0
   61.1544   33.9831   47.4404 H   0  0  0  0  0  0  0  0  0  0  0  0
   60.8755   33.1084   45.8965 H   0  0  0  0  0  0  0  0  0  0  0  0
   61.0544   34.8958   45.8965 H   0  0  0  0  0  0  0  0  0  0  0  0
  1  2  2  0
  2  3  1  0
  3  4  2  3
  4  5  1  0
  5  6  1  0
  6  7  1  0
  7  8  2  0
  7  9  1  0
  9 10  1  0
 10 11  1  0
  3 12  1  0
 12 13  2  0
 13 14  1  0
 13 15  1  0
 15 16  1  0
 16 17  1  0
 17 18  2  0
 17 19  1  0
 19 20  1  0
 20 21  1  0
 20 22  1  0
 22 23  1  0
 15  2  1  0
 10  5  2  0
  1 24  1  0
  1 25  1  0
  4 26  1  0
 11 27  1  0
 12 28  1  0
 14 29  1  0
 14 30  1  0
 14 31  1  0
 16 32  1  0
 16 33  1  0
 20 34  1  6
 21 35  1  0
 21 36  1  0
 21 37  1  0
 22 38  1  0
 22 39  1  0
 23 40  1  0
 23 41  1  0
 23 42  1  0
M  CHG  3   6  -1   9  -1  19  -1
M  END
>  <UniqueID>  (7) 
6

>  <SMILES>  (7) 
C=c1c(=Cc2[n-]c(=O)[n-]c2O)cc(C)n1CC(=O)[N-][C@@H](C)CC

>  <Energy>  (7) 
94.40712564184331

>  <Genealogy>  (7) 
C=c1c(=Cc2[n-]c(=O)[n-]c2O)cc(C)n1CC(=O)[N-]C(C)CC (protonated)
C=c1c(=Cc2[n-]c(=O)[n-]c2O)cc(C)n1CC(=O)[N-][C@@H](C)CC (chirality)
C=c1c(=Cc2[n-]c(=O)[n-]c2O)cc(C)n1CC(=O)[N-][C@@H](C)CC (3D coordinates assigned)
C=c1c(=Cc2[n-]c(=O)[n-]c2O)cc(C)n1CC(=O)[N-][C@@H](C)CC (optimized conformer: 94.40712564184331 kcal/mol)

>  <smiles>  (7) 
C=c1c(=Cc2[nH]c(=O)[nH]c2O)cc(C)n1CC(=O)NC(C)CC

>  <score_type>  (7) 
oracle

>  <origin>  (7) 
adg

>  <m_score__min__energy>  (7) 
-13.220000000000001

>  <m_primary>  (7) 
energy

$$$$
7:0
     RDKit          3D

 82 85  0  0  0  0  0  0  0  0999 V2000
   59.8070   35.7540   45.8820 H   0  0  0  0  0  0  0  0  0  0  0  0
   59.2400   35.1870   45.2990 O   0  0  0  0  0  0  0  0  0  0  0  0
   58.9170   34.0370   46.0380 C   0  0  1  0  0  0  0  0  0  0  0  0
   58.2038   34.3187   46.8267 H   0  0  0  0  0  0  0  0  0  0  0  0
   58.2610   33.0080   45.1440 C   0  0  0  0  0  0  0  0  0  0  0  0
   57.4220   32.0120   45.6720 C   0  0  0  0  0  0  0  0  0  0  0  0
   57.2679   31.9469   46.7592 H   0  0  0  0  0  0  0  0  0  0  0  0
   56.8000   31.1290   44.8480 N   0  0  0  0  0  0  0  0  0  0  0  0
   56.9620   31.1740   43.4980 C   0  0  0  0  0  0  0  0  0  0  0  0
   56.4421   30.4471   42.8567 H   0  0  0  0  0  0  0  0  0  0  0  0
   57.7890   32.1440   42.9270 C   0  0  0  0  0  0  0  0  0  0  0  0
   57.9337   32.1784   41.8371 H   0  0  0  0  0  0  0  0  0  0  0  0
   58.4300   33.0690   43.7520 C   0  0  0  0  0  0  0  0  0  0  0  0
   59.0692   33.8477   43.3104 H   0  0  0  0  0  0  0  0  0  0  0  0
   60.1690   33.4530   46.7240 C   0  0  0  0  0  0  0  0  0  0  0  0
   60.4719   32.5370   46.1956 H   0  0  0  0  0  0  0  0  0  0  0  0
   59.9185   33.2348   47.7726 H   0  0  0  0  0  0  0  0  0  0  0  0
   61.2910   34.4110   46.7050 N   0  0  0  0  0  0  0  0  0  0  0  0
   61.1070   35.1090   45.9450 H   0  0  0  0  0  0  0  0  0  0  0  0
   62.5640   33.7490   46.3840 C   0  0  0  0  0  0  0  0  0  0  0  0
   63.0312   34.2583   45.5282 H   0  0  0  0  0  0  0  0  0  0  0  0
   62.3648   32.6960   46.1360 H   0  0  0  0  0  0  0  0  0  0  0  0
   63.5150   33.8040   47.5840 C   0  0  0  0  0  0  0  0  0  0  0  0
   63.8695   34.8374   47.7123 H   0  0  0  0  0  0  0  0  0  0  0  0
   64.3568   33.1232   47.3894 H   0  0  0  0  0  0  0  0  0  0  0  0
   62.8300   33.3600   48.8510 C   0  0  0  0  0  0  0  0  0  0  0  0
   63.0320   32.0610   49.3420 C   0  0  0  0  0  0  0  0  0  0  0  0
   63.7538   31.3952   48.8462 H   0  0  0  0  0  0  0  0  0  0  0  0
   62.3230   31.6090   50.4550 C   0  0  0  0  0  0  0  0  0  0  0  0
   62.4807   30.5858   50.8266 H   0  0  0  0  0  0  0  0  0  0  0  0
   61.4070   32.4570   51.1040 C   0  0  0  0  0  0  0  0  0  0  0  0
   60.6020   32.0070   52.1990 N   0  0  0  0  0  0  0  0  0  0  0  0
   60.0970   30.3640   52.4330 S   0  0  0  0  0  0  0  0  0  0  0  0
   61.1030   29.6340   53.2770 O   0  0  0  0  0  0  0  0  0  0  0  0
   58.7790   30.3510   53.1550 O   0  0  0  0  0  0  0  0  0  0  0  0
   59.8980   29.5800   50.8650 C   0  0  0  0  0  0  0  0  0  0  0  0
   59.0690   30.1580   49.8980 C   0  0  0  0  0  0  0  0  0  0  0  0
   58.5462   31.1003   50.1187 H   0  0  0  0  0  0  0  0  0  0  0  0
   58.9010   29.5460   48.6540 C   0  0  0  0  0  0  0  0  0  0  0  0
   58.2521   30.0122   47.8980 H   0  0  0  0  0  0  0  0  0  0  0  0
   59.5570   28.3370   48.3630 C   0  0  0  0  0  0  0  0  0  0  0  0
   59.3730   27.6740   47.1010 N   0  0  0  0  0  0  0  0  0  0  0  0
   59.1640   26.6520   47.1170 H   0  0  0  0  0  0  0  0  0  0  0  0
   59.2100   28.3900   45.8630 C   0  0  0  0  0  0  0  0  0  0  0  0
   58.9640   29.6260   45.8860 O   0  0  0  0  0  0  0  0  0  0  0  0
   59.2590   27.7200   44.5490 C   0  0  0  0  0  0  0  0  0  0  0  0
   60.2374   27.6187   44.0565 H   0  0  0  0  0  0  0  0  0  0  0  0
   58.1820   27.2270   43.9190 C   0  0  0  0  0  0  0  0  0  0  0  0
   57.7699   27.7823   43.0635 H   0  0  0  0  0  0  0  0  0  0  0  0
   57.5250   25.9620   44.3310 C   0  0  0  0  0  0  0  0  0  0  0  0
   57.4160   24.8630   43.4550 C   0  0  0  0  0  0  0  0  0  0  0  0
   57.8457   24.9251   42.4443 H   0  0  0  0  0  0  0  0  0  0  0  0
   56.7660   23.6960   43.8620 C   0  0  0  0  0  0  0  0  0  0  0  0
   56.6000   22.2220   42.6550 Br  0  0  0  0  0  0  0  0  0  0  0  0
   56.2340   23.6060   45.1480 C   0  0  0  0  0  0  0  0  0  0  0  0
   55.7112   22.6893   45.4586 H   0  0  0  0  0  0  0  0  0  0  0  0
   56.3590   24.6700   46.0460 C   0  0  0  0  0  0  0  0  0  0  0  0
   55.8070   24.5160   47.3240 O   0  0  0  0  0  0  0  0  0  0  0  0
   55.1450   23.3470   47.7950 C   0  0  0  0  0  0  0  0  0  0  0  0
   54.7795   22.7594   46.9399 H   0  0  0  0  0  0  0  0  0  0  0  0
   54.2906   23.6308   48.4270 H   0  0  0  0  0  0  0  0  0  0  0  0
   56.1330   22.5140   48.6040 C   0  0  0  0  0  0  0  0  0  0  0  0
   55.6885   21.5293   48.8110 H   0  0  0  0  0  0  0  0  0  0  0  0
   56.3512   23.0433   49.5433 H   0  0  0  0  0  0  0  0  0  0  0  0
   57.3860   22.3290   47.8710 N   0  0  0  0  0  0  0  0  0  0  0  0
   57.2750   21.0100   46.7440 S   0  0  0  0  0  0  0  0  0  0  0  0
   58.1700   21.2640   45.5630 O   0  0  0  0  0  0  0  0  0  0  0  0
   55.8560   20.8350   46.2740 O   0  0  0  0  0  0  0  0  0  0  0  0
   57.7990   19.5140   47.5560 C   0  0  0  0  0  0  0  0  0  0  0  0
   57.7506   19.6523   48.6462 H   0  0  0  0  0  0  0  0  0  0  0  0
   57.1374   18.6860   47.2617 H   0  0  0  0  0  0  0  0  0  0  0  0
   58.8327   19.2798   47.2617 H   0  0  0  0  0  0  0  0  0  0  0  0
   57.0160   25.8470   45.6360 C   0  0  0  0  0  0  0  0  0  0  0  0
   57.1314   26.6822   46.3425 H   0  0  0  0  0  0  0  0  0  0  0  0
   60.4120   27.7780   49.3230 C   0  0  0  0  0  0  0  0  0  0  0  0
   60.9583   26.8512   49.0935 H   0  0  0  0  0  0  0  0  0  0  0  0
   60.5760   28.3890   50.5700 C   0  0  0  0  0  0  0  0  0  0  0  0
   61.2385   27.9341   51.3211 H   0  0  0  0  0  0  0  0  0  0  0  0
   61.2530   33.7720   50.6510 C   0  0  0  0  0  0  0  0  0  0  0  0
   60.5841   34.4605   51.1882 H   0  0  0  0  0  0  0  0  0  0  0  0
   61.9440   34.2160   49.5200 C   0  0  0  0  0  0  0  0  0  0  0  0
   61.7919   35.2418   49.1532 H   0  0  0  0  0  0  0  0  0  0  0  0
  1  2  1  0
  2  3  1  0
  3  4  1  1
  3  5  1  0
  5  6  2  0
  6  7  1  0
  6  8  1  0
  8  9  2  0
  9 10  1  0
  9 11  1  0
 11 12  1  0
 11 13  2  0
 13 14  1  0
  3 15  1  0
 15 16  1  0
 15 17  1  0
 15 18  1  0
 18 19  1  0
 18 20  1  0
 20 21  1  0
 20 22  1  0
 20 23  1  0
 23 24  1  0
 23 25  1  0
 23 26  1  0
 26 27  2  0
 27 28  1  0
 27 29  1  0
 29 30  1  0
 29 31  2  0
 31 32  1  0
 32 33  1  0
 33 34  2  0
 33 35  2  0
 33 36  1  0
 36 37  2  0
 37 38  1  0
 37 39  1  0
 39 40  1  0
 39 41  2  0
 41 42  1  0
 42 43  1  0
 42 44  1  0
 44 45  2  0
 44 46  1  0
 46 47  1  0
 46 48  2  0
 48 49  1  0
 48 50  1  0
 50 51  2  0
 51 52  1  0
 51 53  1  0
 53 54  1  0
 53 55  2  0
 55 56  1  0
 55 57  1  0
 57 58  1  0
 58 59  1  0
 59 60  1  0
 59 61  1  0
 59 62  1  0
 62 63  1  0
 62 64  1  0
 62 65  1  0
 65 66  1  0
 66 67  2  0
 66 68  2  0
 66 69  1  0
 69 70  1  0
 69 71  1  0
 69 72  1  0
 57 73  2  0
 73 74  1  0
 41 75  1  0
 75 76  1  0
 75 77  2  0
 77 78  1  0
 31 79  1  0
 79 80  1  0
 79 81  2  0
 81 82  1  0
 13  5  1  0
 81 26  1  0
 77 36  1  0
 73 50  1  0
M  CHG  2  32  -1  65  -1
M  END
>  <UniqueID>  (8) 
7

>  <SMILES>  (8) 
CS(=O)(=O)[N-]CCOc1cc(Br)cc(/C=C/C(=O)Nc2ccc(S(=O)(=O)[N-]c3ccc(CCNC[C@@H](O)c4cccnc4)cc3)cc2)c1

>  <Energy>  (8) 
79.11823139308447

>  <Genealogy>  (8) 
CS(=O)(=O)[N-]CCOc1cc(Br)cc(C=CC(=O)Nc2ccc(S(=O)(=O)[N-]c3ccc(CCNCC(O)c4cccnc4)cc3)cc2)c1 (protonated)
CS(=O)(=O)[N-]CCOc1cc(Br)cc(C=CC(=O)Nc2ccc(S(=O)(=O)[N-]c3ccc(CCNC[C@@H](O)c4cccnc4)cc3)cc2)c1 (chirality)
CS(=O)(=O)[N-]CCOc1cc(Br)cc(/C=C/C(=O)Nc2ccc(S(=O)(=O)[N-]c3ccc(CCNC[C@@H](O)c4cccnc4)cc3)cc2)c1 (cis-trans isomerization)
CS(=O)(=O)[N-]CCOc1cc(Br)cc(/C=C/C(=O)Nc2ccc(S(=O)(=O)[N-]c3ccc(CCNC[C@@H](O)c4cccnc4)cc3)cc2)c1 (3D coordinates assigned)
CS(=O)(=O)[N-]CCOc1cc(Br)cc(/C=C/C(=O)Nc2ccc(S(=O)(=O)[N-]c3ccc(CCNC[C@@H](O)c4cccnc4)cc3)cc2)c1 (optimized conformer: 79.11823139308447 kcal/mol)

>  <smiles>  (8) 
CS(=O)(=O)NCCOc1cc(Br)cc(C=CC(=O)Nc2ccc(S(=O)(=O)Nc3ccc(CCNCC(O)c4cccnc4)cc3)cc2)c1

>  <score_type>  (8) 
oracle

>  <origin>  (8) 
adg

>  <m_score__min__energy>  (8) 
-11.07

>  <m_primary>  (8) 
energy

$$$$
8:0
     RDKit          3D

 44 48  0  0  0  0  0  0  0  0999 V2000
   52.9083   30.4956   50.4564 H   0  0  0  0  0  0  0  0  0  0  0  0
   52.8290   30.5530   51.5520 C   0  0  0  0  0  0  0  0  0  0  0  0
   51.7740   31.4050   52.1250 C   0  0  0  0  0  0  0  0  0  0  0  0
   51.4890   31.4520   53.4380 N   0  0  0  0  0  0  0  0  0  0  0  0
   50.5320   32.4020   53.5150 C   0  0  0  0  0  0  0  0  0  0  0  0
   49.9890   32.7290   54.6020 O   0  0  0  0  0  0  0  0  0  0  0  0
   50.2090   32.9800   52.3390 N   0  0  0  0  0  0  0  0  0  0  0  0
   51.0140   32.3470   51.4700 C   0  0  0  0  0  0  0  0  0  0  0  0
   51.0770   32.6510   50.1160 O   0  0  0  0  0  0  0  0  0  0  0  0
   53.7000   29.8420   52.2850 C   0  0  0  0  0  0  0  0  0  0  0  0
   53.3910   28.7610   53.1090 C   0  0  0  0  0  0  0  0  0  0  0  0
   52.3775   28.3704   53.2830 H   0  0  0  0  0  0  0  0  0  0  0  0
   54.5230   28.2610   53.6650 N   0  0  0  0  0  0  0  0  0  0  0  0
   55.5250   28.9940   53.2060 N   0  0  0  0  0  0  0  0  0  0  0  0
   56.8470   28.8460   53.4570 C   0  0  0  0  0  0  0  0  0  0  0  0
   57.2690   27.9220   54.2680 N   0  0  0  0  0  0  0  0  0  0  0  0
   58.2210   26.8880   53.8780 C   0  0  0  0  0  0  0  0  0  0  0  0
   57.5075   26.2066   53.3915 H   0  0  0  0  0  0  0  0  0  0  0  0
   59.5970   27.4250   53.5280 C   0  0  0  0  0  0  0  0  0  0  0  0
   60.1992   26.9311   52.7512 H   0  0  0  0  0  0  0  0  0  0  0  0
   59.9951   28.4015   53.2152 H   0  0  0  0  0  0  0  0  0  0  0  0
   59.3640   26.7350   54.8640 C   0  0  0  0  0  0  0  0  0  0  0  0
   59.7979   25.7421   55.0535 H   0  0  0  0  0  0  0  0  0  0  0  0
   59.5240   27.0058   55.9181 H   0  0  0  0  0  0  0  0  0  0  0  0
   57.7180   29.6920   52.8320 N   0  0  0  0  0  0  0  0  0  0  0  0
   57.2620   30.6550   51.9710 C   0  0  0  0  0  0  0  0  0  0  0  0
   58.1930   31.5440   51.3200 N   0  0  0  0  0  0  0  0  0  0  0  0
   57.7960   32.2950   50.1190 C   0  0  0  0  0  0  0  0  0  0  0  0
   56.9720   31.7680   49.6157 H   0  0  0  0  0  0  0  0  0  0  0  0
   57.4690   33.3026   50.4152 H   0  0  0  0  0  0  0  0  0  0  0  0
   58.9830   32.4140   49.1590 C   0  0  0  0  0  0  0  0  0  0  0  0
   59.2455   31.4082   48.7992 H   0  0  0  0  0  0  0  0  0  0  0  0
   58.6765   33.0765   48.3361 H   0  0  0  0  0  0  0  0  0  0  0  0
   60.2320   33.0430   49.8200 C   0  0  0  0  0  0  0  0  0  0  0  0
   61.3580   32.3550   49.3980 F   0  0  0  0  0  0  0  0  0  0  0  0
   60.3540   34.3580   49.4020 F   0  0  0  0  0  0  0  0  0  0  0  0
   60.1840   33.0240   51.3600 C   0  0  0  0  0  0  0  0  0  0  0  0
   61.2116   33.0868   51.7474 H   0  0  0  0  0  0  0  0  0  0  0  0
   59.5792   33.8815   51.6901 H   0  0  0  0  0  0  0  0  0  0  0  0
   59.5290   31.7490   51.9020 C   0  0  0  0  0  0  0  0  0  0  0  0
   60.1644   30.8863   51.6529 H   0  0  0  0  0  0  0  0  0  0  0  0
   59.4205   31.8513   52.9918 H   0  0  0  0  0  0  0  0  0  0  0  0
   55.9210   30.7740   51.7370 N   0  0  0  0  0  0  0  0  0  0  0  0
   55.0740   29.9390   52.3800 C   0  0  0  0  0  0  0  0  0  0  0  0
  1  2  1  0
  2  3  1  0
  3  4  1  0
  4  5  1  0
  5  6  2  0
  5  7  1  0
  7  8  1  0
  8  9  1  0
  2 10  2  0
 10 11  1  0
 11 12  1  0
 11 13  2  0
 13 14  1  0
 14 15  1  0
 15 16  2  3
 16 17  1  0
 17 18  1  0
 17 19  1  0
 19 20  1  0
 19 21  1  0
 19 22  1  0
 22 23  1  0
 22 24  1  0
 15 25  1  0
 25 26  2  0
 26 27  1  0
 27 28  1  0
 28 29  1  0
 28 30  1  0
 28 31  1  0
 31 32  1  0
 31 33  1  0
 31 34  1  0
 34 35  1  0
 34 36  1  0
 34 37  1  0
 37 38  1  0
 37 39  1  0
 37 40  1  0
 40 41  1  0
 40 42  1  0
 26 43  1  0
 43 44  2  0
  8  3  2  0
 44 10  1  0
 44 14  1  0
 22 17  1  0
 40 27  1  0
M  CHG  3   4  -1   7  -1   9  -1
M  END
>  <UniqueID>  (9) 
8

>  <SMILES>  (9) 
O=c1[n-]c([O-])c(/C=c2/cnn3c(=NC4CC4)nc(N4CCC(F)(F)CC4)nc23)[n-]1

>  <Energy>  (9) 
388.0674821185937

>  <Genealogy>  (9) 
O=c1[n-]c([O-])c(C=c2cnn3c(=NC4CC4)nc(N4CCC(F)(F)CC4)nc23)[n-]1 (protonated)
O=c1[n-]c([O-])c(/C=c2/cnn3c(=NC4CC4)nc(N4CCC(F)(F)CC4)nc23)[n-]1 (cis-trans isomerization)
O=c1[n-]c([O-])c(/C=c2/cnn3c(=NC4CC4)nc(N4CCC(F)(F)CC4)nc23)[n-]1 (3D coordinates assigned)
O=c1[n-]c([O-])c(/C=c2/cnn3c(=NC4CC4)nc(N4CCC(F)(F)CC4)nc23)[n-]1 (nonaromatic ring conformer: 388.0674821185937 kcal/mol)

>  <smiles>  (9) 
O=c1[nH]c(O)c(C=c2cnn3c(=NC4CC4)nc(N4CCC(F)(F)CC4)nc23)[nH]1

>  <score_type>  (9) 
oracle

>  <origin>  (9) 
adg

>  <m_score__min__energy>  (9) 
-16

>  <m_primary>  (9) 
energy

$$$$
9:0
     RDKit          3D

 52 53  0  0  0  0  0  0  0  0999 V2000
   59.7610   34.5340   48.4040 C   0  0  0  0  0  0  0  0  0  0  0  0
   59.7980   34.5180   46.8800 C   0  0  0  0  0  0  0  0  0  0  0  0
   58.6680   33.7440   46.3460 N   0  0  0  0  0  0  0  0  0  0  0  0
   57.6990   33.1300   47.2570 C   0  0  0  0  0  0  0  0  0  0  0  0
   58.5030   33.5710   44.9270 C   0  0  0  0  0  0  0  0  0  0  0  0
   59.2050   34.2430   44.1220 O   0  0  0  0  0  0  0  0  0  0  0  0
   57.5180   32.6940   44.4470 O   0  0  0  0  0  0  0  0  0  0  0  0
   57.5990   31.2940   44.4670 C   0  0  0  0  0  0  0  0  0  0  0  0
   58.8240   30.6120   44.5730 C   0  0  0  0  0  0  0  0  0  0  0  0
   58.8540   29.2150   44.6020 C   0  0  0  0  0  0  0  0  0  0  0  0
   57.6610   28.4790   44.5300 C   0  0  0  0  0  0  0  0  0  0  0  0
   57.6870   26.9720   44.5940 C   0  0  0  0  0  0  0  0  0  0  0  0
   57.5130   26.4590   46.0360 C   0  0  1  0  0  0  0  0  0  0  0  0
   57.8500   27.5230   46.9890 N   0  0  0  0  0  0  0  0  0  0  0  0
   59.2100   27.8200   47.3490 C   0  0  0  0  0  0  0  0  0  0  0  0
   60.1320   27.0290   47.0090 O   0  0  0  0  0  0  0  0  0  0  0  0
   59.5480   29.0350   48.1290 C   0  0  0  0  0  0  0  0  0  0  0  0
   60.6200   29.8660   47.7510 C   0  0  0  0  0  0  0  0  0  0  0  0
   60.9280   31.0050   48.4980 C   0  0  0  0  0  0  0  0  0  0  0  0
   60.1810   31.3250   49.6330 C   0  0  0  0  0  0  0  0  0  0  0  0
   59.1240   30.4990   50.0350 C   0  0  0  0  0  0  0  0  0  0  0  0
   58.1770   30.9080   51.4620 S   0  0  0  0  0  0  0  0  0  0  0  0
   57.4230   32.4450   51.2320 N   0  0  0  0  0  0  0  0  0  0  0  0
   59.0700   30.9620   52.6700 O   0  0  0  0  0  0  0  0  0  0  0  0
   57.1210   29.8630   51.6900 O   0  0  0  0  0  0  0  0  0  0  0  0
   58.8100   29.3590   49.2820 C   0  0  0  0  0  0  0  0  0  0  0  0
   56.1070   25.9730   46.2750 C   0  0  0  0  0  0  0  0  0  0  0  0
   55.1210   26.7060   45.9950 O   0  0  0  0  0  0  0  0  0  0  0  0
   55.8910   24.7030   46.7950 O   0  0  0  0  0  0  0  0  0  0  0  0
   56.4370   29.1600   44.4520 C   0  0  0  0  0  0  0  0  0  0  0  0
   56.4090   30.5580   44.4240 C   0  0  0  0  0  0  0  0  0  0  0  0
   60.7037   34.1264   48.7980 H   0  0  0  0  0  0  0  0  0  0  0  0
   59.6328   35.5680   48.7568 H   0  0  0  0  0  0  0  0  0  0  0  0
   58.9198   33.9192   48.7568 H   0  0  0  0  0  0  0  0  0  0  0  0
   59.7387   35.5506   46.5055 H   0  0  0  0  0  0  0  0  0  0  0  0
   60.7373   34.0491   46.5517 H   0  0  0  0  0  0  0  0  0  0  0  0
   58.0013   33.3215   48.2972 H   0  0  0  0  0  0  0  0  0  0  0  0
   56.7033   33.5624   47.0790 H   0  0  0  0  0  0  0  0  0  0  0  0
   57.6648   32.0450   47.0790 H   0  0  0  0  0  0  0  0  0  0  0  0
   59.7635   31.1809   44.6334 H   0  0  0  0  0  0  0  0  0  0  0  0
   59.8172   28.6897   44.6816 H   0  0  0  0  0  0  0  0  0  0  0  0
   56.8701   26.5749   43.9735 H   0  0  0  0  0  0  0  0  0  0  0  0
   58.6652   26.6303   44.2246 H   0  0  0  0  0  0  0  0  0  0  0  0
   58.1955   25.6091   46.1841 H   0  0  0  0  0  0  0  0  0  0  0  0
   57.0790   28.0540   47.4520 H   0  0  0  0  0  0  0  0  0  0  0  0
   61.2183   29.6166   46.8622 H   0  0  0  0  0  0  0  0  0  0  0  0
   61.7625   31.6525   48.1908 H   0  0  0  0  0  0  0  0  0  0  0  0
   60.4231   32.2279   50.2128 H   0  0  0  0  0  0  0  0  0  0  0  0
   56.6430   32.3040   50.5510 H   0  0  0  0  0  0  0  0  0  0  0  0
   57.9782   28.7113   49.5959 H   0  0  0  0  0  0  0  0  0  0  0  0
   55.4957   28.5922   44.4127 H   0  0  0  0  0  0  0  0  0  0  0  0
   55.4442   31.0834   44.3677 H   0  0  0  0  0  0  0  0  0  0  0  0
  1  2  1  0
  2  3  1  0
  3  4  1  0
  3  5  1  0
  5  6  2  0
  5  7  1  0
  7  8  1  0
  8  9  2  0
  9 10  1  0
 10 11  2  0
 11 12  1  0
 12 13  1  0
 13 14  1  0
 14 15  1  0
 15 16  2  0
 15 17  1  0
 17 18  2  0
 18 19  1  0
 19 20  2  0
 20 21  1  0
 21 22  1  0
 22 23  1  0
 22 24  2  0
 22 25  2  0
 21 26  2  0
 13 27  1  0
 27 28  2  0
 27 29  1  0
 11 30  1  0
 30 31  2  0
 31  8  1  0
 26 17  1  0
  1 32  1  0
  1 33  1  0
  1 34  1  0
  2 35  1  0
  2 36  1  0
  4 37  1  0
  4 38  1  0
  4 39  1  0
  9 40  1  0
 10 41  1  0
 12 42  1  0
 12 43  1  0
 13 44  1  1
 14 45  1  0
 18 46  1  0
 19 47  1  0
 20 48  1  0
 23 49  1  0
 26 50  1  0
 30 51  1  0
 31 52  1  0
M  CHG  2  23  -1  29  -1
M  END
>  <UniqueID>  (10) 
9

>  <SMILES>  (10) 
CCN(C)C(=O)Oc1ccc(C[C@@H](NC(=O)c2cccc(S([NH-])(=O)=O)c2)C(=O)[O-])cc1

>  <Energy>  (10) 
49.70117459426351

>  <Genealogy>  (10) 
CCN(C)C(=O)Oc1ccc(CC(NC(=O)c2cccc(S([NH-])(=O)=O)c2)C(=O)[O-])cc1 (protonated)
CCN(C)C(=O)Oc1ccc(C[C@@H](NC(=O)c2cccc(S([NH-])(=O)=O)c2)C(=O)[O-])cc1 (chirality)
CCN(C)C(=O)Oc1ccc(C[C@@H](NC(=O)c2cccc(S([NH-])(=O)=O)c2)C(=O)[O-])cc1 (3D coordinates assigned)
CCN(C)C(=O)Oc1ccc(C[C@@H](NC(=O)c2cccc(S([NH-])(=O)=O)c2)C(=O)[O-])cc1 (optimized conformer: 49.70117459426351 kcal/mol)

>  <smiles>  (10) 
CCN(C)C(=O)Oc1ccc(CC(NC(=O)c2cccc(S(N)(=O)=O)c2)C(=O)O)cc1

>  <score_type>  (10) 
oracle

>  <origin>  (10) 
adg

>  <m_score__min__energy>  (10) 
-13.19

>  <m_primary>  (10) 
energy

$$$$
10:0
     RDKit          3D

 43 45  0  0  0  0  0  0  0  0999 V2000
   56.2220   24.3250   44.6200 C   0  0  0  0  0  0  0  0  0  0  0  0
   55.2320   24.9100   45.9810 S   0  0  0  0  0  0  0  0  0  0  0  0
   53.7740   24.8000   45.6280 O   0  0  0  0  0  0  0  0  0  0  0  0
   55.5110   24.0530   47.1820 O   0  0  0  0  0  0  0  0  0  0  0  0
   55.6400   26.5550   46.3630 N   0  0  0  0  0  0  0  0  0  0  0  0
   56.6950   27.0380   45.4740 C   0  0  0  0  0  0  0  0  0  0  0  0
   57.9810   27.1100   46.2490 C   0  0  0  0  0  0  0  0  0  0  0  0
   58.9390   26.0870   46.1190 C   0  0  0  0  0  0  0  0  0  0  0  0
   60.1660   26.1760   46.7830 C   0  0  0  0  0  0  0  0  0  0  0  0
   60.4560   27.2930   47.5710 C   0  0  0  0  0  0  0  0  0  0  0  0
   59.5120   28.3280   47.6980 C   0  0  0  0  0  0  0  0  0  0  0  0
   59.7810   29.4570   48.4750 O   0  0  0  0  0  0  0  0  0  0  0  0
   60.1950   30.6970   47.9600 C   0  0  0  0  0  0  0  0  0  0  0  0
   61.5170   31.1660   48.1130 C   0  0  0  0  0  0  0  0  0  0  0  0
   61.9060   32.3700   47.5200 C   0  0  0  0  0  0  0  0  0  0  0  0
   60.9950   33.1080   46.7590 C   0  0  0  0  0  0  0  0  0  0  0  0
   59.6820   32.6540   46.6030 C   0  0  0  0  0  0  0  0  0  0  0  0
   58.5560   33.5550   45.5930 S   0  0  0  0  0  0  0  0  0  0  0  0
   59.1690   33.7640   44.2350 O   0  0  0  0  0  0  0  0  0  0  0  0
   58.2630   34.8990   46.2000 O   0  0  0  0  0  0  0  0  0  0  0  0
   57.0880   32.6490   45.4190 N   0  0  0  0  0  0  0  0  0  0  0  0
   57.0110   31.5270   44.7740 C   0  0  0  0  0  0  0  0  0  0  0  0
   55.8630   30.8390   44.5940 N   0  0  0  0  0  0  0  0  0  0  0  0
   56.0750   29.7130   43.8620 C   0  0  0  0  0  0  0  0  0  0  0  0
   57.3850   29.5170   43.4460 C   0  0  0  0  0  0  0  0  0  0  0  0
   58.3160   30.7910   44.0270 S   0  0  0  0  0  0  0  0  0  0  0  0
   59.2840   31.4530   47.2140 C   0  0  0  0  0  0  0  0  0  0  0  0
   58.2760   28.2260   47.0500 C   0  0  0  0  0  0  0  0  0  0  0  0
   57.1077   23.8016   45.0092 H   0  0  0  0  0  0  0  0  0  0  0  0
   55.6278   23.6329   44.0053 H   0  0  0  0  0  0  0  0  0  0  0  0
   56.5416   25.1794   44.0053 H   0  0  0  0  0  0  0  0  0  0  0  0
   56.8113   26.3459   44.6270 H   0  0  0  0  0  0  0  0  0  0  0  0
   56.4334   28.0341   45.0875 H   0  0  0  0  0  0  0  0  0  0  0  0
   58.7206   25.2111   45.4904 H   0  0  0  0  0  0  0  0  0  0  0  0
   60.9038   25.3660   46.6851 H   0  0  0  0  0  0  0  0  0  0  0  0
   61.4223   27.3629   48.0919 H   0  0  0  0  0  0  0  0  0  0  0  0
   62.2422   30.5831   48.6998 H   0  0  0  0  0  0  0  0  0  0  0  0
   62.9338   32.7387   47.6527 H   0  0  0  0  0  0  0  0  0  0  0  0
   61.3116   34.0474   46.2822 H   0  0  0  0  0  0  0  0  0  0  0  0
   55.2668   29.0081   43.6170 H   0  0  0  0  0  0  0  0  0  0  0  0
   57.7506   28.6742   42.8410 H   0  0  0  0  0  0  0  0  0  0  0  0
   58.2466   31.1038   47.1049 H   0  0  0  0  0  0  0  0  0  0  0  0
   57.5298   29.0255   47.1686 H   0  0  0  0  0  0  0  0  0  0  0  0
  1  2  1  0
  2  3  2  0
  2  4  2  0
  2  5  1  0
  5  6  1  0
  6  7  1  0
  7  8  2  0
  8  9  1  0
  9 10  2  0
 10 11  1  0
 11 12  1  0
 12 13  1  0
 13 14  2  0
 14 15  1  0
 15 16  2  0
 16 17  1  0
 17 18  1  0
 18 19  2  0
 18 20  2  0
 18 21  1  0
 21 22  2  3
 22 23  1  0
 23 24  1  0
 24 25  2  0
 25 26  1  0
 17 27  2  0
 11 28  2  0
 28  7  1  0
 27 13  1  0
 26 22  1  0
  1 29  1  0
  1 30  1  0
  1 31  1  0
  6 32  1  0
  6 33  1  0
  8 34  1  0
  9 35  1  0
 10 36  1  0
 14 37  1  0
 15 38  1  0
 16 39  1  0
 24 40  1  0
 25 41  1  0
 27 42  1  0
 28 43  1  0
M  CHG  2   5  -1  23  -1
M  END
>  <UniqueID>  (11) 
10

>  <SMILES>  (11) 
CS(=O)(=O)[N-]Cc1cccc(Oc2cccc(S(=O)(=O)N=c3[n-]ccs3)c2)c1

>  <Energy>  (11) 
79.30735562465937

>  <Genealogy>  (11) 
CS(=O)(=O)[N-]Cc1cccc(Oc2cccc(S(=O)(=O)N=c3[n-]ccs3)c2)c1 (protonated)
CS(=O)(=O)[N-]Cc1cccc(Oc2cccc(S(=O)(=O)N=c3[n-]ccs3)c2)c1 (3D coordinates assigned)
CS(=O)(=O)[N-]Cc1cccc(Oc2cccc(S(=O)(=O)N=c3[n-]ccs3)c2)c1 (optimized conformer: 79.30735562465937 kcal/mol)

>  <smiles>  (11) 
CS(=O)(=O)NCc1cccc(Oc2cccc(S(=O)(=O)N=c3[nH]ccs3)c2)c1

>  <score_type>  (11) 
oracle

>  <origin>  (11) 
adg

>  <m_score__min__energy>  (11) 
-12.300000000000001

>  <m_primary>  (11) 
energy

$$$$
11:0
     RDKit          3D

 58 62  0  0  0  0  0  0  0  0999 V2000
   56.9600   27.7380   45.9720 O   0  0  0  0  0  0  0  0  0  0  0  0
   57.5990   26.7650   46.4510 C   0  0  0  0  0  0  0  0  0  0  0  0
   58.4700   26.9910   47.5650 N   0  0  0  0  0  0  0  0  0  0  0  0
   59.3340   28.1250   47.7190 C   0  0  0  0  0  0  0  0  0  0  0  0
   59.6210   28.5910   49.0060 C   0  0  0  0  0  0  0  0  0  0  0  0
   60.4620   29.6930   49.1870 C   0  0  0  0  0  0  0  0  0  0  0  0
   61.0490   30.3290   48.0800 C   0  0  0  0  0  0  0  0  0  0  0  0
   61.8860   31.4860   48.2650 N   0  0  0  0  0  0  0  0  0  0  0  0
   62.0890   32.0420   49.6080 C   0  0  0  0  0  0  0  0  0  0  0  0
   62.4300   33.5390   49.5250 C   0  0  0  0  0  0  0  0  0  0  0  0
   61.7240   34.2060   48.4050 N   0  0  0  0  0  0  0  0  0  0  0  0
   60.2520   34.2380   48.5740 C   0  0  0  0  0  0  0  0  0  0  0  0
   59.5420   33.9350   47.2790 C   0  0  0  0  0  0  0  0  0  0  0  0
   58.9210   32.6900   47.0920 C   0  0  0  0  0  0  0  0  0  0  0  0
   58.2720   32.4010   45.8870 C   0  0  0  0  0  0  0  0  0  0  0  0
   58.2410   33.3520   44.8630 C   0  0  0  0  0  0  0  0  0  0  0  0
   57.6130   33.0700   43.6950 F   0  0  0  0  0  0  0  0  0  0  0  0
   58.8600   34.5930   45.0410 C   0  0  0  0  0  0  0  0  0  0  0  0
   59.5090   34.8860   46.2450 C   0  0  0  0  0  0  0  0  0  0  0  0
   62.1170   33.6480   47.0850 C   0  0  0  0  0  0  0  0  0  0  0  0
   62.5230   32.1590   47.1290 C   0  0  0  0  0  0  0  0  0  0  0  0
   60.7750   29.8470   46.7890 C   0  0  0  0  0  0  0  0  0  0  0  0
   59.9330   28.7460   46.6090 C   0  0  0  0  0  0  0  0  0  0  0  0
   57.4840   25.4670   45.8450 N   0  0  0  0  0  0  0  0  0  0  0  0
   58.5490   24.4580   45.8620 C   0  0  0  0  0  0  0  0  0  0  0  0
   58.0650   23.4430   44.8980 C   0  0  0  0  0  0  0  0  0  0  0  0
   58.6850   22.2480   44.5280 C   0  0  0  0  0  0  0  0  0  0  0  0
   58.0440   21.4230   43.5900 C   0  0  0  0  0  0  0  0  0  0  0  0
   56.8040   21.8030   43.0400 C   0  0  0  0  0  0  0  0  0  0  0  0
   56.1990   23.0100   43.4270 C   0  0  0  0  0  0  0  0  0  0  0  0
   56.8530   23.8130   44.3620 C   0  0  0  0  0  0  0  0  0  0  0  0
   56.4120   25.1190   44.9080 C   0  0  0  0  0  0  0  0  0  0  0  0
   59.1827   28.0878   49.8805 H   0  0  0  0  0  0  0  0  0  0  0  0
   60.6655   30.0645   50.2022 H   0  0  0  0  0  0  0  0  0  0  0  0
   61.1687   31.9124   50.1964 H   0  0  0  0  0  0  0  0  0  0  0  0
   62.9245   31.5129   50.0896 H   0  0  0  0  0  0  0  0  0  0  0  0
   62.1374   34.0231   50.4684 H   0  0  0  0  0  0  0  0  0  0  0  0
   63.5119   33.6328   49.3498 H   0  0  0  0  0  0  0  0  0  0  0  0
   59.9618   33.4884   49.3250 H   0  0  0  0  0  0  0  0  0  0  0  0
   59.9631   35.2485   48.8985 H   0  0  0  0  0  0  0  0  0  0  0  0
   58.9448   31.9393   47.8956 H   0  0  0  0  0  0  0  0  0  0  0  0
   57.7857   31.4246   45.7451 H   0  0  0  0  0  0  0  0  0  0  0  0
   58.8366   35.3396   44.2335 H   0  0  0  0  0  0  0  0  0  0  0  0
   59.9947   35.8633   46.3827 H   0  0  0  0  0  0  0  0  0  0  0  0
   61.2653   33.7542   46.3970 H   0  0  0  0  0  0  0  0  0  0  0  0
   63.0023   34.2098   46.7525 H   0  0  0  0  0  0  0  0  0  0  0  0
   62.2075   31.6701   46.1955 H   0  0  0  0  0  0  0  0  0  0  0  0
   63.6150   32.0914   47.2425 H   0  0  0  0  0  0  0  0  0  0  0  0
   61.2259   30.3391   45.9146 H   0  0  0  0  0  0  0  0  0  0  0  0
   59.7384   28.3643   45.5959 H   0  0  0  0  0  0  0  0  0  0  0  0
   59.5066   24.8889   45.5343 H   0  0  0  0  0  0  0  0  0  0  0  0
   58.7391   24.0466   46.8643 H   0  0  0  0  0  0  0  0  0  0  0  0
   59.6539   21.9593   44.9616 H   0  0  0  0  0  0  0  0  0  0  0  0
   58.5120   20.4760   43.2833 H   0  0  0  0  0  0  0  0  0  0  0  0
   56.3079   21.1522   42.3049 H   0  0  0  0  0  0  0  0  0  0  0  0
   55.2313   23.3154   43.0025 H   0  0  0  0  0  0  0  0  0  0  0  0
   56.3252   25.8714   44.1103 H   0  0  0  0  0  0  0  0  0  0  0  0
   55.4203   25.0766   45.3821 H   0  0  0  0  0  0  0  0  0  0  0  0
  1  2  2  0
  2  3  1  0
  3  4  1  0
  4  5  2  0
  5  6  1  0
  6  7  2  0
  7  8  1  0
  8  9  1  0
  9 10  1  0
 10 11  1  0
 11 12  1  0
 12 13  1  0
 13 14  2  0
 14 15  1  0
 15 16  2  0
 16 17  1  0
 16 18  1  0
 18 19  2  0
 11 20  1  0
 20 21  1  0
  7 22  1  0
 22 23  2  0
  2 24  1  0
 24 25  1  0
 25 26  1  0
 26 27  2  0
 27 28  1  0
 28 29  2  0
 29 30  1  0
 30 31  2  0
 31 32  1  0
 23  4  1  0
 32 24  1  0
 21  8  1  0
 31 26  1  0
 19 13  1  0
  5 33  1  0
  6 34  1  0
  9 35  1  0
  9 36  1  0
 10 37  1  0
 10 38  1  0
 12 39  1  0
 12 40  1  0
 14 41  1  0
 15 42  1  0
 18 43  1  0
 19 44  1  0
 20 45  1  0
 20 46  1  0
 21 47  1  0
 21 48  1  0
 22 49  1  0
 23 50  1  0
 25 51  1  0
 25 52  1  0
 27 53  1  0
 28 54  1  0
 29 55  1  0
 30 56  1  0
 32 57  1  0
 32 58  1  0
M  CHG  1   3  -1
M  END
>  <UniqueID>  (12) 
11

>  <SMILES>  (12) 
O=C([N-]c1ccc(N2CCN(Cc3ccc(F)cc3)CC2)cc1)N1Cc2ccccc2C1

>  <Energy>  (12) 
90.5079667915275

>  <Genealogy>  (12) 
O=C([N-]c1ccc(N2CCN(Cc3ccc(F)cc3)CC2)cc1)N1Cc2ccccc2C1 (protonated)
O=C([N-]c1ccc(N2CCN(Cc3ccc(F)cc3)CC2)cc1)N1Cc2ccccc2C1 (3D coordinates assigned)
O=C([N-]c1ccc(N2CCN(Cc3ccc(F)cc3)CC2)cc1)N1Cc2ccccc2C1 (nonaromatic ring conformer: 90.5079667915275 kcal/mol)

>  <smiles>  (12) 
O=C(Nc1ccc(N2CCN(Cc3ccc(F)cc3)CC2)cc1)N1Cc2ccccc2C1

>  <score_type>  (12) 
oracle

>  <origin>  (12) 
adg

>  <m_score__min__energy>  (12) 
-10.470000000000001

>  <m_primary>  (12) 
energy

$$$$
12:0
     RDKit          3D

 70 73  0  0  0  0  0  0  0  0999 V2000
   63.3620   33.8830   46.5600 C   0  0  0  0  0  0  0  0  0  0  0  0
   63.0600   32.6050   47.3350 C   0  0  0  0  0  0  0  0  0  0  0  0
   62.7910   32.9070   48.7470 N   0  0  0  0  0  0  0  0  0  0  0  0
   62.2050   34.2090   49.1070 C   0  0  0  0  0  0  0  0  0  0  0  0
   60.6800   34.2080   48.9000 C   0  0  0  0  0  0  0  0  0  0  0  0
   60.0430   33.2070   49.7820 N   0  0  0  0  0  0  0  0  0  0  0  0
   59.6340   33.8270   51.0520 C   0  0  0  0  0  0  0  0  0  0  0  0
   58.8620   32.6100   49.1290 C   0  0  0  0  0  0  0  0  0  0  0  0
   62.9960   31.8830   49.7460 C   0  0  0  0  0  0  0  0  0  0  0  0
   64.0960   31.8180   50.3590 O   0  0  0  0  0  0  0  0  0  0  0  0
   61.9580   30.8750   50.0430 C   0  0  0  0  0  0  0  0  0  0  0  0
   61.5550   30.6180   51.3590 C   0  0  0  0  0  0  0  0  0  0  0  0
   60.5920   29.6910   51.6120 N   0  0  0  0  0  0  0  0  0  0  0  0
   59.9980   28.9860   50.6120 C   0  0  0  0  0  0  0  0  0  0  0  0
   60.3750   29.2030   49.2750 C   0  0  0  0  0  0  0  0  0  0  0  0
   59.8100   28.5100   48.1950 O   0  0  0  0  0  0  0  0  0  0  0  0
   60.4200   28.2950   46.9220 C   0  0  0  0  0  0  0  0  0  0  0  0
   59.4120   27.8110   45.8610 C   0  0  0  0  0  0  0  0  0  0  0  0
   58.2160   28.6600   45.6990 N   0  0  0  0  0  0  0  0  0  0  0  0
   56.9820   27.9800   45.2620 C   0  0  0  0  0  0  0  0  0  0  0  0
   57.0140   26.4850   45.4780 C   0  0  0  0  0  0  0  0  0  0  0  0
   57.4080   25.6230   44.4420 C   0  0  0  0  0  0  0  0  0  0  0  0
   57.4770   24.2430   44.6630 C   0  0  0  0  0  0  0  0  0  0  0  0
   57.1620   23.7170   45.9190 C   0  0  0  0  0  0  0  0  0  0  0  0
   56.7700   24.5700   46.9560 C   0  0  0  0  0  0  0  0  0  0  0  0
   56.6930   25.9480   46.7360 C   0  0  0  0  0  0  0  0  0  0  0  0
   58.2970   30.0970   45.6780 C   0  0  0  0  0  0  0  0  0  0  0  0
   59.4220   30.7850   46.0060 N   0  0  0  0  0  0  0  0  0  0  0  0
   59.0220   32.0550   45.8190 C   0  0  0  0  0  0  0  0  0  0  0  0
   59.7660   33.2190   45.9940 C   0  0  0  0  0  0  0  0  0  0  0  0
   59.1310   34.4470   45.7230 C   0  0  0  0  0  0  0  0  0  0  0  0
   57.7840   34.4750   45.2890 C   0  0  0  0  0  0  0  0  0  0  0  0
   57.0620   33.2770   45.1230 C   0  0  0  0  0  0  0  0  0  0  0  0
   57.7270   32.0860   45.4010 C   0  0  0  0  0  0  0  0  0  0  0  0
   57.2830   30.8630   45.3150 O   0  0  0  0  0  0  0  0  0  0  0  0
   61.3680   30.1470   49.0030 C   0  0  0  0  0  0  0  0  0  0  0  0
   63.5558   34.7033   47.2668 H   0  0  0  0  0  0  0  0  0  0  0  0
   64.2481   33.7273   45.9271 H   0  0  0  0  0  0  0  0  0  0  0  0
   62.4999   34.1404   45.9271 H   0  0  0  0  0  0  0  0  0  0  0  0
   62.1781   32.1159   46.8957 H   0  0  0  0  0  0  0  0  0  0  0  0
   63.9339   31.9396   47.2753 H   0  0  0  0  0  0  0  0  0  0  0  0
   62.4237   34.4212   50.1639 H   0  0  0  0  0  0  0  0  0  0  0  0
   62.6446   34.9808   48.4580 H   0  0  0  0  0  0  0  0  0  0  0  0
   60.2811   35.2056   49.1359 H   0  0  0  0  0  0  0  0  0  0  0  0
   60.4613   33.9527   47.8526 H   0  0  0  0  0  0  0  0  0  0  0  0
   60.0250   33.2342   51.8921 H   0  0  0  0  0  0  0  0  0  0  0  0
   60.0353   34.8497   51.1067 H   0  0  0  0  0  0  0  0  0  0  0  0
   58.5359   33.8606   51.1067 H   0  0  0  0  0  0  0  0  0  0  0  0
   58.1590   32.2546   49.8968 H   0  0  0  0  0  0  0  0  0  0  0  0
   58.3681   33.3667   48.5017 H   0  0  0  0  0  0  0  0  0  0  0  0
   59.1785   31.7636   48.5017 H   0  0  0  0  0  0  0  0  0  0  0  0
   62.0187   31.1676   52.1914 H   0  0  0  0  0  0  0  0  0  0  0  0
   60.3040   29.5150   52.6020 H   0  0  0  0  0  0  0  0  0  0  0  0
   59.2210   28.2445   50.8498 H   0  0  0  0  0  0  0  0  0  0  0  0
   60.8661   29.2405   46.5799 H   0  0  0  0  0  0  0  0  0  0  0  0
   61.1814   27.5104   47.0434 H   0  0  0  0  0  0  0  0  0  0  0  0
   59.9318   27.7666   44.8926 H   0  0  0  0  0  0  0  0  0  0  0  0
   59.0480   26.8330   46.2087 H   0  0  0  0  0  0  0  0  0  0  0  0
   56.1352   28.3963   45.8274 H   0  0  0  0  0  0  0  0  0  0  0  0
   56.8822   28.1504   44.1799 H   0  0  0  0  0  0  0  0  0  0  0  0
   57.6631   26.0337   43.4539 H   0  0  0  0  0  0  0  0  0  0  0  0
   57.7798   23.5708   43.8466 H   0  0  0  0  0  0  0  0  0  0  0  0
   57.2223   22.6324   46.0920 H   0  0  0  0  0  0  0  0  0  0  0  0
   56.5223   24.1562   47.9447 H   0  0  0  0  0  0  0  0  0  0  0  0
   56.3794   26.6157   47.5520 H   0  0  0  0  0  0  0  0  0  0  0  0
   60.8122   33.1810   46.3318 H   0  0  0  0  0  0  0  0  0  0  0  0
   59.6848   35.3890   45.8493 H   0  0  0  0  0  0  0  0  0  0  0  0
   57.2976   35.4392   45.0799 H   0  0  0  0  0  0  0  0  0  0  0  0
   56.0145   33.2823   44.7871 H   0  0  0  0  0  0  0  0  0  0  0  0
   61.6884   30.3195   47.9649 H   0  0  0  0  0  0  0  0  0  0  0  0
  1  2  1  0
  2  3  1  0
  3  4  1  0
  4  5  1  0
  5  6  1  0
  6  7  1  0
  6  8  1  0
  3  9  1  0
  9 10  2  0
  9 11  1  0
 11 12  2  0
 12 13  1  0
 13 14  2  0
 14 15  1  0
 15 16  1  0
 16 17  1  0
 17 18  1  0
 18 19  1  0
 19 20  1  0
 20 21  1  0
 21 22  2  0
 22 23  1  0
 23 24  2  0
 24 25  1  0
 25 26  2  0
 19 27  1  0
 27 28  2  0
 28 29  1  0
 29 30  2  0
 30 31  1  0
 31 32  2  0
 32 33  1  0
 33 34  2  0
 34 35  1  0
 15 36  2  0
 36 11  1  0
 26 21  1  0
 35 27  1  0
 34 29  1  0
  1 37  1  0
  1 38  1  0
  1 39  1  0
  2 40  1  0
  2 41  1  0
  4 42  1  0
  4 43  1  0
  5 44  1  0
  5 45  1  0
  7 46  1  0
  7 47  1  0
  7 48  1  0
  8 49  1  0
  8 50  1  0
  8 51  1  0
 12 52  1  0
 13 53  1  0
 14 54  1  0
 17 55  1  0
 17 56  1  0
 18 57  1  0
 18 58  1  0
 20 59  1  0
 20 60  1  0
 22 61  1  0
 23 62  1  0
 24 63  1  0
 25 64  1  0
 26 65  1  0
 30 66  1  0
 31 67  1  0
 32 68  1  0
 33 69  1  0
 36 70  1  0
M  CHG  1  13   1
M  END
>  <UniqueID>  (13) 
12

>  <SMILES>  (13) 
CCN(CCN(C)C)C(=O)c1c[nH+]cc(OCCN(Cc2ccccc2)c2nc3ccccc3o2)c1

>  <Energy>  (13) 
114.19393344682113

>  <Genealogy>  (13) 
CCN(CCN(C)C)C(=O)c1c[nH+]cc(OCCN(Cc2ccccc2)c2nc3ccccc3o2)c1 (protonated)
CCN(CCN(C)C)C(=O)c1c[nH+]cc(OCCN(Cc2ccccc2)c2nc3ccccc3o2)c1 (3D coordinates assigned)
CCN(CCN(C)C)C(=O)c1c[nH+]cc(OCCN(Cc2ccccc2)c2nc3ccccc3o2)c1 (optimized conformer: 114.19393344682113 kcal/mol)

>  <smiles>  (13) 
CCN(CCN(C)C)C(=O)c1cncc(OCCN(Cc2ccccc2)c2nc3ccccc3o2)c1

>  <score_type>  (13) 
oracle

>  <origin>  (13) 
adg

>  <m_score__min__energy>  (13) 
-7.0599999999999996

>  <m_primary>  (13) 
energy

$$$$
13:0
     RDKit          3D

 47 51  0  0  0  0  0  0  0  0999 V2000
   54.6515   18.2596   47.9257 H   0  0  0  0  0  0  0  0  0  0  0  0
   54.7040   19.3120   47.6100 C   0  0  0  0  0  0  0  0  0  0  0  0
   53.5890   19.9230   47.0280 C   0  0  0  0  0  0  0  0  0  0  0  0
   52.6627   19.3483   46.8808 H   0  0  0  0  0  0  0  0  0  0  0  0
   53.6490   21.2620   46.6330 C   0  0  0  0  0  0  0  0  0  0  0  0
   52.7715   21.7373   46.1704 H   0  0  0  0  0  0  0  0  0  0  0  0
   54.8260   22.0020   46.8250 C   0  0  0  0  0  0  0  0  0  0  0  0
   55.9550   21.3770   47.3910 C   0  0  0  0  0  0  0  0  0  0  0  0
   55.8850   20.0370   47.7910 C   0  0  0  0  0  0  0  0  0  0  0  0
   56.7611   19.5541   48.2485 H   0  0  0  0  0  0  0  0  0  0  0  0
   57.1420   22.0940   47.5810 O   0  0  0  0  0  0  0  0  0  0  0  0
   57.3330   23.4000   47.0370 C   0  0  0  0  0  0  0  0  0  0  0  0
   57.6524   23.3133   45.9880 H   0  0  0  0  0  0  0  0  0  0  0  0
   58.1033   23.9232   47.6226 H   0  0  0  0  0  0  0  0  0  0  0  0
   56.0240   24.2000   47.1040 C   0  0  1  0  0  0  0  0  0  0  0  0
   55.7399   24.3184   48.1601 H   0  0  0  0  0  0  0  0  0  0  0  0
   56.2020   25.5740   46.5190 C   0  0  0  0  0  0  0  0  0  0  0  0
   55.1930   26.3270   46.0300 N   0  0  0  0  0  0  0  0  0  0  0  0
   55.7080   27.4740   45.6210 N   0  0  0  0  0  0  0  0  0  0  0  0
   55.1490   28.2300   45.1670 H   0  0  0  0  0  0  0  0  0  0  0  0
   57.0370   27.4580   45.8540 C   0  0  0  0  0  0  0  0  0  0  0  0
   57.8680   28.4130   45.5510 N   0  0  0  0  0  0  0  0  0  0  0  0
   57.5470   29.8060   45.4670 C   0  0  0  0  0  0  0  0  0  0  0  0
   56.4500   30.1440   44.9480 O   0  0  0  0  0  0  0  0  0  0  0  0
   58.5110   30.8480   45.8800 C   0  0  0  0  0  0  0  0  0  0  0  0
   59.7050   30.6400   46.5690 C   0  0  0  0  0  0  0  0  0  0  0  0
   60.0699   29.6608   46.9125 H   0  0  0  0  0  0  0  0  0  0  0  0
   60.3510   31.8140   46.7550 N   0  0  0  0  0  0  0  0  0  0  0  0
   61.6330   31.9970   47.4280 C   0  0  0  0  0  0  0  0  0  0  0  0
   61.4816   31.9754   48.5173 H   0  0  0  0  0  0  0  0  0  0  0  0
   62.3187   31.1876   47.1370 H   0  0  0  0  0  0  0  0  0  0  0  0
   62.0649   32.9659   47.1370 H   0  0  0  0  0  0  0  0  0  0  0  0
   59.5860   32.7660   46.1860 C   0  0  0  0  0  0  0  0  0  0  0  0
   59.8370   34.1380   46.1200 C   0  0  0  0  0  0  0  0  0  0  0  0
   60.7493   34.5692   46.5580 H   0  0  0  0  0  0  0  0  0  0  0  0
   58.8870   34.9520   45.4760 C   0  0  0  0  0  0  0  0  0  0  0  0
   59.0548   36.0368   45.4057 H   0  0  0  0  0  0  0  0  0  0  0  0
   57.7210   34.3860   44.9200 C   0  0  0  0  0  0  0  0  0  0  0  0
   56.9849   35.0332   44.4207 H   0  0  0  0  0  0  0  0  0  0  0  0
   57.4920   33.0000   44.9990 C   0  0  0  0  0  0  0  0  0  0  0  0
   56.5841   32.5499   44.5711 H   0  0  0  0  0  0  0  0  0  0  0  0
   58.4540   32.2130   45.6380 C   0  0  0  0  0  0  0  0  0  0  0  0
   57.4000   26.2580   46.4190 C   0  0  0  0  0  0  0  0  0  0  0  0
   58.4035   25.9223   46.7196 H   0  0  0  0  0  0  0  0  0  0  0  0
   54.9060   23.4380   46.3680 C   0  0  0  0  0  0  0  0  0  0  0  0
   55.1100   23.4589   45.2873 H   0  0  0  0  0  0  0  0  0  0  0  0
   53.9469   23.9272   46.5935 H   0  0  0  0  0  0  0  0  0  0  0  0
  1  2  1  0
  2  3  2  0
  3  4  1  0
  3  5  1  0
  5  6  1  0
  5  7  2  0
  7  8  1  0
  8  9  2  0
  9 10  1  0
  8 11  1  0
 11 12  1  0
 12 13  1  0
 12 14  1  0
 12 15  1  0
 15 16  1  1
 15 17  1  0
 17 18  1  0
 18 19  1  0
 19 20  1  0
 19 21  1  0
 21 22  2  0
 22 23  1  0
 23 24  2  0
 23 25  1  0
 25 26  2  0
 26 27  1  0
 26 28  1  0
 28 29  1  0
 29 30  1  0
 29 31  1  0
 29 32  1  0
 28 33  1  0
 33 34  2  0
 34 35  1  0
 34 36  1  0
 36 37  1  0
 36 38  2  0
 38 39  1  0
 38 40  1  0
 40 41  1  0
 40 42  2  0
 21 43  1  0
 43 44  1  0
 15 45  1  0
 45 46  1  0
 45 47  1  0
  9  2  1  0
 43 17  2  0
 45  7  1  0
 42 25  1  0
 42 33  1  0
M  CHG  1  18  -1
M  END
>  <UniqueID>  (14) 
13

>  <SMILES>  (14) 
Cn1cc(C(=O)/N=c2/cc([C@@H]3COc4ccccc4C3)[n-][nH]2)c2ccccc21

>  <Energy>  (14) 
123.62788251368036

>  <Genealogy>  (14) 
Cn1cc(C(=O)N=c2cc(C3COc4ccccc4C3)[n-][nH]2)c2ccccc21 (protonated)
Cn1cc(C(=O)N=c2cc([C@@H]3COc4ccccc4C3)[n-][nH]2)c2ccccc21 (chirality)
Cn1cc(C(=O)/N=c2/cc([C@@H]3COc4ccccc4C3)[n-][nH]2)c2ccccc21 (cis-trans isomerization)
Cn1cc(C(=O)/N=c2/cc([C@@H]3COc4ccccc4C3)[n-][nH]2)c2ccccc21 (3D coordinates assigned)
Cn1cc(C(=O)/N=c2/cc([C@@H]3COc4ccccc4C3)[n-][nH]2)c2ccccc21 (nonaromatic ring conformer: 123.62788251368036 kcal/mol)

>  <smiles>  (14) 
Cn1cc(C(=O)N=c2cc(C3COc4ccccc4C3)[nH][nH]2)c2ccccc21

>  <score_type>  (14) 
oracle

>  <origin>  (14) 
adg

>  <m_score__min__energy>  (14) 
-11.529999999999999

>  <m_primary>  (14) 
energy

$$$$
14:0
     RDKit          3D

 25 26  0  0  0  0  0  0  0  0999 V2000
   60.0942   35.8614   46.2546 H   0  0  0  0  0  0  0  0  0  0  0  0
   59.4650   34.9690   46.1210 C   0  0  0  0  0  0  0  0  0  0  0  0
   58.9230   34.3250   47.2340 C   0  0  0  0  0  0  0  0  0  0  0  0
   59.1258   34.7112   48.2438 H   0  0  0  0  0  0  0  0  0  0  0  0
   58.1220   33.1890   47.0690 C   0  0  0  0  0  0  0  0  0  0  0  0
   57.6960   32.6853   47.9492 H   0  0  0  0  0  0  0  0  0  0  0  0
   57.8600   32.6890   45.7770 C   0  0  0  0  0  0  0  0  0  0  0  0
   57.0670   31.5530   45.5500 O   0  0  0  0  0  0  0  0  0  0  0  0
   57.4040   30.4740   44.6780 C   0  0  0  0  0  0  0  0  0  0  0  0
   58.4744   30.2441   44.7851 H   0  0  0  0  0  0  0  0  0  0  0  0
   57.1792   30.7722   43.6433 H   0  0  0  0  0  0  0  0  0  0  0  0
   56.6030   29.2530   45.0120 C   0  0  0  0  0  0  0  0  0  0  0  0
   55.3510   29.2720   44.8610 O   0  0  0  0  0  0  0  0  0  0  0  0
   57.2800   28.0700   45.4640 N   0  0  0  0  0  0  0  0  0  0  0  0
   56.7430   26.8970   45.6280 C   0  0  0  0  0  0  0  0  0  0  0  0
   57.3870   25.7260   45.4200 N   0  0  0  0  0  0  0  0  0  0  0  0
   56.4260   24.8290   45.7140 C   0  0  0  0  0  0  0  0  0  0  0  0
   56.5622   23.7386   45.6640 H   0  0  0  0  0  0  0  0  0  0  0  0
   55.2800   25.4310   46.0760 N   0  0  0  0  0  0  0  0  0  0  0  0
   54.3870   24.9660   46.3500 H   0  0  0  0  0  0  0  0  0  0  0  0
   55.4680   26.7360   46.0240 N   0  0  0  0  0  0  0  0  0  0  0  0
   58.4090   33.3460   44.6670 C   0  0  0  0  0  0  0  0  0  0  0  0
   58.2092   32.9661   43.6542 H   0  0  0  0  0  0  0  0  0  0  0  0
   59.2090   34.4810   44.8370 C   0  0  0  0  0  0  0  0  0  0  0  0
   59.6364   34.9892   43.9600 H   0  0  0  0  0  0  0  0  0  0  0  0
  1  2  1  0
  2  3  2  0
  3  4  1  0
  3  5  1  0
  5  6  1  0
  5  7  2  0
  7  8  1  0
  8  9  1  0
  9 10  1  0
  9 11  1  0
  9 12  1  0
 12 13  2  0
 12 14  1  0
 14 15  2  0
 15 16  1  0
 16 17  2  0
 17 18  1  0
 17 19  1  0
 19 20  1  0
 19 21  1  0
  7 22  1  0
 22 23  1  0
 22 24  2  0
 24 25  1  0
 24  2  1  0
 21 15  1  0
M  CHG  1  21  -1
M  END
>  <UniqueID>  (15) 
14

>  <SMILES>  (15) 
O=C(COc1ccccc1)/N=c1\nc[nH][n-]1

>  <Energy>  (15) 
59.12999762701752

>  <Genealogy>  (15) 
O=C(COc1ccccc1)N=c1nc[nH][n-]1 (protonated)
O=C(COc1ccccc1)/N=c1\nc[nH][n-]1 (cis-trans isomerization)
O=C(COc1ccccc1)/N=c1\nc[nH][n-]1 (3D coordinates assigned)
O=C(COc1ccccc1)/N=c1\nc[nH][n-]1 (optimized conformer: 59.12999762701752 kcal/mol)

>  <smiles>  (15) 
O=C(COc1ccccc1)N=c1nc[nH][nH]1

>  <score_type>  (15) 
oracle

>  <origin>  (15) 
adg

>  <m_score__min__energy>  (15) 
-7.9900000000000002

>  <m_primary>  (15) 
energy

$$$$
15:0
     RDKit          3D

 48 50  0  0  0  0  0  0  0  0999 V2000
   57.8601   35.1818   44.3167 H   0  0  0  0  0  0  0  0  0  0  0  0
   57.9290   34.2200   44.8460 C   0  0  0  0  0  0  0  0  0  0  0  0
   57.0680   33.2160   44.5430 N   0  0  0  0  0  0  0  0  0  0  0  0
   57.0990   32.0090   45.1690 C   0  0  0  0  0  0  0  0  0  0  0  0
   56.2290   31.1110   44.8030 N   0  0  0  0  0  0  0  0  0  0  0  0
   56.4480   29.7690   44.3430 C   0  0  0  0  0  0  0  0  0  0  0  0
   56.8300   29.5910   43.1560 O   0  0  0  0  0  0  0  0  0  0  0  0
   56.1220   28.6440   45.1670 N   0  0  0  0  0  0  0  0  0  0  0  0
   57.1020   27.6610   45.6150 C   0  0  0  0  0  0  0  0  0  0  0  0
   56.6843   27.0913   46.4582 H   0  0  0  0  0  0  0  0  0  0  0  0
   57.3355   26.9844   44.7797 H   0  0  0  0  0  0  0  0  0  0  0  0
   58.3670   28.3440   46.0570 C   0  0  0  0  0  0  0  0  0  0  0  0
   58.5690   28.6670   47.4110 C   0  0  0  0  0  0  0  0  0  0  0  0
   57.7887   28.4379   48.1517 H   0  0  0  0  0  0  0  0  0  0  0  0
   59.7580   29.2780   47.8180 C   0  0  0  0  0  0  0  0  0  0  0  0
   59.9119   29.5287   48.8779 H   0  0  0  0  0  0  0  0  0  0  0  0
   60.7520   29.5710   46.8800 C   0  0  0  0  0  0  0  0  0  0  0  0
   61.6868   30.0526   47.2027 H   0  0  0  0  0  0  0  0  0  0  0  0
   60.5600   29.2530   45.5330 C   0  0  0  0  0  0  0  0  0  0  0  0
   61.3419   29.4873   44.7956 H   0  0  0  0  0  0  0  0  0  0  0  0
   59.3720   28.6360   45.1220 C   0  0  0  0  0  0  0  0  0  0  0  0
   59.2260   28.3793   44.0624 H   0  0  0  0  0  0  0  0  0  0  0  0
   58.0880   31.7750   46.1500 C   0  0  0  0  0  0  0  0  0  0  0  0
   58.1480   30.7985   46.6528 H   0  0  0  0  0  0  0  0  0  0  0  0
   58.9970   32.7990   46.4810 C   0  0  0  0  0  0  0  0  0  0  0  0
   60.0020   32.6390   47.4500 O   0  0  0  0  0  0  0  0  0  0  0  0
   59.9880   33.1670   48.7770 C   0  0  0  0  0  0  0  0  0  0  0  0
   59.6377   34.2092   48.7436 H   0  0  0  0  0  0  0  0  0  0  0  0
   59.3150   32.5478   49.3884 H   0  0  0  0  0  0  0  0  0  0  0  0
   61.3960   33.1300   49.4150 C   0  0  0  0  0  0  0  0  0  0  0  0
   61.2780   33.3953   50.4760 H   0  0  0  0  0  0  0  0  0  0  0  0
   62.3210   34.1710   48.7560 C   0  0  0  0  0  0  0  0  0  0  0  0
   61.7810   35.1269   48.6874 H   0  0  0  0  0  0  0  0  0  0  0  0
   63.2225   34.2540   49.3808 H   0  0  0  0  0  0  0  0  0  0  0  0
   62.7760   33.7590   47.3380 C   0  0  0  0  0  0  0  0  0  0  0  0
   62.0454   34.1482   46.6136 H   0  0  0  0  0  0  0  0  0  0  0  0
   63.7822   34.1789   47.1921 H   0  0  0  0  0  0  0  0  0  0  0  0
   62.8900   32.2990   47.1440 N   0  0  0  0  0  0  0  0  0  0  0  0
   63.6550   32.1060   46.4570 H   0  0  0  0  0  0  0  0  0  0  0  0
   62.0010   31.9230   46.7370 H   0  0  0  0  0  0  0  0  0  0  0  0
   63.1900   31.5840   48.3920 C   0  0  0  0  0  0  0  0  0  0  0  0
   63.3578   30.5205   48.1666 H   0  0  0  0  0  0  0  0  0  0  0  0
   64.0897   32.0271   48.8438 H   0  0  0  0  0  0  0  0  0  0  0  0
   62.0260   31.7100   49.3890 C   0  0  0  0  0  0  0  0  0  0  0  0
   61.2462   30.9862   49.1098 H   0  0  0  0  0  0  0  0  0  0  0  0
   62.4312   31.5128   50.3925 H   0  0  0  0  0  0  0  0  0  0  0  0
   58.9010   34.0330   45.8280 C   0  0  0  0  0  0  0  0  0  0  0  0
   60.0110   35.3410   46.2070 Cl  0  0  0  0  0  0  0  0  0  0  0  0
  1  2  1  0
  2  3  1  0
  3  4  1  0
  4  5  2  0
  5  6  1  0
  6  7  2  0
  6  8  1  0
  8  9  1  0
  9 10  1  0
  9 11  1  0
  9 12  1  0
 12 13  2  0
 13 14  1  0
 13 15  1  0
 15 16  1  0
 15 17  2  0
 17 18  1  0
 17 19  1  0
 19 20  1  0
 19 21  2  0
 21 22  1  0
  4 23  1  0
 23 24  1  0
 23 25  2  0
 25 26  1  0
 26 27  1  0
 27 28  1  0
 27 29  1  0
 27 30  1  0
 30 31  1  0
 30 32  1  0
 32 33  1  0
 32 34  1  0
 32 35  1  0
 35 36  1  0
 35 37  1  0
 35 38  1  0
 38 39  1  0
 38 40  1  0
 38 41  1  0
 41 42  1  0
 41 43  1  0
 41 44  1  0
 44 45  1  0
 44 46  1  0
 25 47  1  0
 47 48  1  0
 47  2  2  0
 21 12  1  0
 44 30  1  0
M  CHG  3   3  -1   8  -1  38   1
M  END
>  <UniqueID>  (16) 
15

>  <SMILES>  (16) 
O=C(/N=c1\cc(OCC2CC[NH2+]CC2)c(Cl)c[n-]1)[N-]Cc1ccccc1

>  <Energy>  (16) 
58.56145369159689

>  <Genealogy>  (16) 
O=C(N=c1cc(OCC2CC[NH2+]CC2)c(Cl)c[n-]1)[N-]Cc1ccccc1 (protonated)
O=C(/N=c1\cc(OCC2CC[NH2+]CC2)c(Cl)c[n-]1)[N-]Cc1ccccc1 (cis-trans isomerization)
O=C(/N=c1\cc(OCC2CC[NH2+]CC2)c(Cl)c[n-]1)[N-]Cc1ccccc1 (3D coordinates assigned)
O=C(/N=c1\cc(OCC2CC[NH2+]CC2)c(Cl)c[n-]1)[N-]Cc1ccccc1 (nonaromatic ring conformer: 58.56145369159689 kcal/mol)

>  <smiles>  (16) 
O=C(N=c1cc(OCC2CCNCC2)c(Cl)c[nH]1)NCc1ccccc1

>  <score_type>  (16) 
oracle

>  <origin>  (16) 
adg

>  <m_score__min__energy>  (16) 
-8.9000000000000004

>  <m_primary>  (16) 
energy

$$$$
16:0
     RDKit          3D

 50 51  0  0  0  0  0  0  0  0999 V2000
   57.8560   33.6860   46.0270 C   0  0  0  0  0  0  0  0  0  0  0  0
   57.9860   33.2540   44.5700 C   0  0  0  0  0  0  0  0  0  0  0  0
   58.4030   31.7830   44.4640 C   0  0  0  0  0  0  0  0  0  0  0  0
   57.3180   30.8670   44.9660 C   0  0  0  0  0  0  0  0  0  0  0  0
   56.1110   31.2170   44.8530 O   0  0  0  0  0  0  0  0  0  0  0  0
   57.6390   29.5720   45.6130 C   0  0  0  0  0  0  0  0  0  0  0  0
   58.8350   29.4070   46.3380 C   0  0  0  0  0  0  0  0  0  0  0  0
   59.7180   30.4750   46.4790 O   0  0  0  0  0  0  0  0  0  0  0  0
   59.1300   28.1800   46.9560 C   0  0  0  0  0  0  0  0  0  0  0  0
   60.3710   28.0520   47.7430 C   0  0  0  0  0  0  0  0  0  0  0  0
   61.1030   27.0370   47.5850 O   0  0  0  0  0  0  0  0  0  0  0  0
   60.8110   29.1550   48.6650 C   0  0  0  0  0  0  0  0  0  0  0  0
   59.6680   29.6190   49.5920 C   0  0  0  0  0  0  0  0  0  0  0  0
   60.0060   29.2960   51.0530 C   0  0  0  0  0  0  0  0  0  0  0  0
   59.3880   31.1220   49.4390 C   0  0  0  0  0  0  0  0  0  0  0  0
   58.2320   27.0980   46.8340 C   0  0  0  0  0  0  0  0  0  0  0  0
   58.5310   25.8440   47.3780 O   0  0  0  0  0  0  0  0  0  0  0  0
   57.0280   27.2630   46.1270 C   0  0  0  0  0  0  0  0  0  0  0  0
   56.0770   26.1300   46.0160 C   0  0  0  0  0  0  0  0  0  0  0  0
   54.8590   26.3400   46.2640 O   0  0  0  0  0  0  0  0  0  0  0  0
   56.5180   24.7640   45.6340 C   0  0  0  0  0  0  0  0  0  0  0  0
   56.9610   24.4840   44.3260 C   0  0  0  0  0  0  0  0  0  0  0  0
   57.3770   23.1950   43.9810 C   0  0  0  0  0  0  0  0  0  0  0  0
   57.3620   22.1740   44.9340 C   0  0  0  0  0  0  0  0  0  0  0  0
   56.9380   22.4430   46.2370 C   0  0  0  0  0  0  0  0  0  0  0  0
   56.5210   23.7300   46.5890 C   0  0  0  0  0  0  0  0  0  0  0  0
   56.7270   28.5040   45.5330 C   0  0  0  0  0  0  0  0  0  0  0  0
   55.5200   28.6730   44.8570 O   0  0  0  0  0  0  0  0  0  0  0  0
   58.1102   32.8412   46.6840 H   0  0  0  0  0  0  0  0  0  0  0  0
   58.5421   34.5230   46.2239 H   0  0  0  0  0  0  0  0  0  0  0  0
   56.8220   34.0054   46.2239 H   0  0  0  0  0  0  0  0  0  0  0  0
   57.0169   33.3895   44.0676 H   0  0  0  0  0  0  0  0  0  0  0  0
   58.7603   33.8713   44.0911 H   0  0  0  0  0  0  0  0  0  0  0  0
   58.6130   31.5455   43.4107 H   0  0  0  0  0  0  0  0  0  0  0  0
   59.2987   31.6314   45.0843 H   0  0  0  0  0  0  0  0  0  0  0  0
   61.6448   28.7907   49.2831 H   0  0  0  0  0  0  0  0  0  0  0  0
   61.1199   30.0122   48.0487 H   0  0  0  0  0  0  0  0  0  0  0  0
   58.7589   29.0740   49.2978 H   0  0  0  0  0  0  0  0  0  0  0  0
   59.3727   29.9012   51.7183 H   0  0  0  0  0  0  0  0  0  0  0  0
   59.8233   28.2283   51.2442 H   0  0  0  0  0  0  0  0  0  0  0  0
   61.0644   29.5269   51.2442 H   0  0  0  0  0  0  0  0  0  0  0  0
   59.3023   31.5822   50.4344 H   0  0  0  0  0  0  0  0  0  0  0  0
   60.2136   31.5944   48.8865 H   0  0  0  0  0  0  0  0  0  0  0  0
   58.4477   31.2654   48.8865 H   0  0  0  0  0  0  0  0  0  0  0  0
   59.4500   25.5950   47.7210 H   0  0  0  0  0  0  0  0  0  0  0  0
   56.9795   25.2846   43.5719 H   0  0  0  0  0  0  0  0  0  0  0  0
   57.7171   22.9841   42.9564 H   0  0  0  0  0  0  0  0  0  0  0  0
   57.6839   21.1589   44.6584 H   0  0  0  0  0  0  0  0  0  0  0  0
   56.9321   21.6399   46.9886 H   0  0  0  0  0  0  0  0  0  0  0  0
   56.1932   23.9359   47.6186 H   0  0  0  0  0  0  0  0  0  0  0  0
  1  2  1  0
  2  3  1  0
  3  4  1  0
  4  5  2  0
  4  6  1  0
  6  7  2  0
  7  8  1  0
  7  9  1  0
  9 10  1  0
 10 11  2  0
 10 12  1  0
 12 13  1  0
 13 14  1  0
 13 15  1  0
  9 16  2  0
 16 17  1  0
 16 18  1  0
 18 19  1  0
 19 20  2  0
 19 21  1  0
 21 22  2  0
 22 23  1  0
 23 24  2  0
 24 25  1  0
 25 26  2  0
 18 27  2  0
 27 28  1  0
 27  6  1  0
 26 21  1  0
  1 29  1  0
  1 30  1  0
  1 31  1  0
  2 32  1  0
  2 33  1  0
  3 34  1  0
  3 35  1  0
 12 36  1  0
 12 37  1  0
 13 38  1  0
 14 39  1  0
 14 40  1  0
 14 41  1  0
 15 42  1  0
 15 43  1  0
 15 44  1  0
 17 45  1  0
 22 46  1  0
 23 47  1  0
 24 48  1  0
 25 49  1  0
 26 50  1  0
M  CHG  2   8  -1  28  -1
M  END
>  <UniqueID>  (17) 
16

>  <SMILES>  (17) 
CCCC(=O)c1c([O-])c(C(=O)CC(C)C)c(O)c(C(=O)c2ccccc2)c1[O-]

>  <Energy>  (17) 
61.098398528269456

>  <Genealogy>  (17) 
CCCC(=O)c1c([O-])c(C(=O)CC(C)C)c(O)c(C(=O)c2ccccc2)c1[O-] (protonated)
CCCC(=O)c1c([O-])c(C(=O)CC(C)C)c(O)c(C(=O)c2ccccc2)c1[O-] (3D coordinates assigned)
CCCC(=O)c1c([O-])c(C(=O)CC(C)C)c(O)c(C(=O)c2ccccc2)c1[O-] (optimized conformer: 61.098398528269456 kcal/mol)

>  <smiles>  (17) 
CCCC(=O)c1c(O)c(C(=O)CC(C)C)c(O)c(C(=O)c2ccccc2)c1O

>  <score_type>  (17) 
oracle

>  <origin>  (17) 
adg

>  <m_score__min__energy>  (17) 
-12.640000000000001

>  <m_primary>  (17) 
energy

$$$$
17:0
     RDKit          3D

 65 68  0  0  0  0  0  0  0  0999 V2000
   55.5580   26.4870   46.0140 N   0  0  0  0  0  0  0  0  0  0  0  0
   57.2780   26.6810   46.0420 S   0  0  0  0  0  0  0  0  0  0  0  0
   57.8970   25.6440   45.1570 O   0  0  0  0  0  0  0  0  0  0  0  0
   57.7610   26.4880   47.4520 O   0  0  0  0  0  0  0  0  0  0  0  0
   57.7190   28.3010   45.4690 C   0  0  0  0  0  0  0  0  0  0  0  0
   57.0940   28.8070   44.3150 C   0  0  0  0  0  0  0  0  0  0  0  0
   57.3530   30.1100   43.8740 C   0  0  0  0  0  0  0  0  0  0  0  0
   58.2330   30.9240   44.5820 C   0  0  0  0  0  0  0  0  0  0  0  0
   58.8720   30.4330   45.7240 C   0  0  0  0  0  0  0  0  0  0  0  0
   58.6360   29.1210   46.1710 C   0  0  0  0  0  0  0  0  0  0  0  0
   59.3870   28.6380   47.3500 C   0  0  0  0  0  0  0  0  0  0  0  0
   59.1620   29.2070   48.6110 C   0  0  0  0  0  0  0  0  0  0  0  0
   59.8340   28.7230   49.7370 C   0  0  0  0  0  0  0  0  0  0  0  0
   60.7230   27.6510   49.6280 C   0  0  0  0  0  0  0  0  0  0  0  0
   61.3340   27.1490   50.8270 N   0  0  0  0  0  0  0  0  0  0  0  0
   60.8460   27.2470   52.1680 C   0  0  0  0  0  0  0  0  0  0  0  0
   60.4580   26.2230   52.7900 O   0  0  0  0  0  0  0  0  0  0  0  0
   60.8180   28.5900   52.8330 C   0  0  0  0  0  0  0  0  0  0  0  0
   61.9700   29.4520   52.3920 C   0  0  0  0  0  0  0  0  0  0  0  0
   63.2840   29.1070   52.7340 C   0  0  0  0  0  0  0  0  0  0  0  0
   64.3540   29.8980   52.3090 C   0  0  0  0  0  0  0  0  0  0  0  0
   64.1200   31.0430   51.5370 C   0  0  0  0  0  0  0  0  0  0  0  0
   65.4510   32.0690   51.0130 S   0  0  0  0  0  0  0  0  0  0  0  0
   66.3800   31.2710   50.1410 O   0  0  0  0  0  0  0  0  0  0  0  0
   66.2190   32.5820   52.1970 O   0  0  0  0  0  0  0  0  0  0  0  0
   64.8150   33.4550   50.0920 C   0  0  0  0  0  0  0  0  0  0  0  0
   64.1630   32.9780   48.8320 C   0  0  0  0  0  0  0  0  0  0  0  0
   64.1240   31.7410   48.5870 O   0  0  0  0  0  0  0  0  0  0  0  0
   63.5230   33.9180   47.9560 N   0  0  0  0  0  0  0  0  0  0  0  0
   62.8030   33.5010   46.7520 C   0  0  0  0  0  0  0  0  0  0  0  0
   61.3180   33.4640   47.0160 C   0  0  0  0  0  0  0  0  0  0  0  0
   60.4440   34.2070   46.2130 C   0  0  0  0  0  0  0  0  0  0  0  0
   59.0670   34.1830   46.4540 C   0  0  0  0  0  0  0  0  0  0  0  0
   58.5510   33.4070   47.4930 C   0  0  0  0  0  0  0  0  0  0  0  0
   59.4130   32.6830   48.3160 C   0  0  0  0  0  0  0  0  0  0  0  0
   60.7950   32.7060   48.0760 C   0  0  0  0  0  0  0  0  0  0  0  0
   62.8080   31.4000   51.2090 C   0  0  0  0  0  0  0  0  0  0  0  0
   61.7370   30.6170   51.6420 C   0  0  0  0  0  0  0  0  0  0  0  0
   60.9120   27.0490   48.3690 C   0  0  0  0  0  0  0  0  0  0  0  0
   60.2520   27.5440   47.2400 C   0  0  0  0  0  0  0  0  0  0  0  0
   55.1390   27.4390   46.0610 H   0  0  0  0  0  0  0  0  0  0  0  0
   56.3938   28.1717   43.7528 H   0  0  0  0  0  0  0  0  0  0  0  0
   56.8607   30.4912   42.9671 H   0  0  0  0  0  0  0  0  0  0  0  0
   58.4252   31.9526   44.2429 H   0  0  0  0  0  0  0  0  0  0  0  0
   59.5671   31.0801   46.2791 H   0  0  0  0  0  0  0  0  0  0  0  0
   58.4516   30.0403   48.7152 H   0  0  0  0  0  0  0  0  0  0  0  0
   59.6613   29.1904   50.7177 H   0  0  0  0  0  0  0  0  0  0  0  0
   59.8754   29.0956   52.5763 H   0  0  0  0  0  0  0  0  0  0  0  0
   60.8994   28.4372   53.9193 H   0  0  0  0  0  0  0  0  0  0  0  0
   63.4740   28.2089   53.3401 H   0  0  0  0  0  0  0  0  0  0  0  0
   65.3831   29.6209   52.5813 H   0  0  0  0  0  0  0  0  0  0  0  0
   64.0749   33.9905   50.7047 H   0  0  0  0  0  0  0  0  0  0  0  0
   65.6455   34.1291   49.8354 H   0  0  0  0  0  0  0  0  0  0  0  0
   63.5830   34.9400   48.1710 H   0  0  0  0  0  0  0  0  0  0  0  0
   63.0096   34.2142   45.9404 H   0  0  0  0  0  0  0  0  0  0  0  0
   63.1403   32.4943   46.4642 H   0  0  0  0  0  0  0  0  0  0  0  0
   60.8435   34.8137   45.3870 H   0  0  0  0  0  0  0  0  0  0  0  0
   58.3890   34.7769   45.8235 H   0  0  0  0  0  0  0  0  0  0  0  0
   57.4649   33.3665   47.6626 H   0  0  0  0  0  0  0  0  0  0  0  0
   59.0095   32.0942   49.1530 H   0  0  0  0  0  0  0  0  0  0  0  0
   61.4723   32.1274   48.7214 H   0  0  0  0  0  0  0  0  0  0  0  0
   62.6196   32.3014   50.6074 H   0  0  0  0  0  0  0  0  0  0  0  0
   60.7067   30.9130   51.3952 H   0  0  0  0  0  0  0  0  0  0  0  0
   61.5836   26.1832   48.2730 H   0  0  0  0  0  0  0  0  0  0  0  0
   60.4138   27.0707   46.2603 H   0  0  0  0  0  0  0  0  0  0  0  0
  1  2  1  0
  2  3  2  0
  2  4  2  0
  2  5  1  0
  5  6  2  0
  6  7  1  0
  7  8  2  0
  8  9  1  0
  9 10  2  0
 10 11  1  0
 11 12  2  0
 12 13  1  0
 13 14  2  0
 14 15  1  0
 15 16  1  0
 16 17  2  0
 16 18  1  0
 18 19  1  0
 19 20  2  0
 20 21  1  0
 21 22  2  0
 22 23  1  0
 23 24  2  0
 23 25  2  0
 23 26  1  0
 26 27  1  0
 27 28  2  0
 27 29  1  0
 29 30  1  0
 30 31  1  0
 31 32  2  0
 32 33  1  0
 33 34  2  0
 34 35  1  0
 35 36  2  0
 22 37  1  0
 37 38  2  0
 14 39  1  0
 39 40  2  0
 10  5  1  0
 40 11  1  0
 38 19  1  0
 36 31  1  0
  1 41  1  0
  6 42  1  0
  7 43  1  0
  8 44  1  0
  9 45  1  0
 12 46  1  0
 13 47  1  0
 18 48  1  0
 18 49  1  0
 20 50  1  0
 21 51  1  0
 26 52  1  0
 26 53  1  0
 29 54  1  0
 30 55  1  0
 30 56  1  0
 32 57  1  0
 33 58  1  0
 34 59  1  0
 35 60  1  0
 36 61  1  0
 37 62  1  0
 38 63  1  0
 39 64  1  0
 40 65  1  0
M  CHG  2   1  -1  15  -1
M  END
>  <UniqueID>  (18) 
17

>  <SMILES>  (18) 
[NH-]S(=O)(=O)c1ccccc1-c1ccc([N-]C(=O)Cc2ccc(S(=O)(=O)CC(=O)NCc3ccccc3)cc2)cc1

>  <Energy>  (18) 
68.10380641452646

>  <Genealogy>  (18) 
[NH-]S(=O)(=O)c1ccccc1-c1ccc([N-]C(=O)Cc2ccc(S(=O)(=O)CC(=O)NCc3ccccc3)cc2)cc1 (protonated)
[NH-]S(=O)(=O)c1ccccc1-c1ccc([N-]C(=O)Cc2ccc(S(=O)(=O)CC(=O)NCc3ccccc3)cc2)cc1 (3D coordinates assigned)
[NH-]S(=O)(=O)c1ccccc1-c1ccc([N-]C(=O)Cc2ccc(S(=O)(=O)CC(=O)NCc3ccccc3)cc2)cc1 (optimized conformer: 68.10380641452646 kcal/mol)

>  <smiles>  (18) 
NS(=O)(=O)c1ccccc1-c1ccc(NC(=O)Cc2ccc(S(=O)(=O)CC(=O)NCc3ccccc3)cc2)cc1

>  <score_type>  (18) 
oracle

>  <origin>  (18) 
adg

>  <m_score__min__energy>  (18) 
-13.06

>  <m_primary>  (18) 
energy

$$$$
18:0
     RDKit          3D

 28 29  0  0  0  0  0  0  0  0999 V2000
   55.5170   28.9960   44.8670 N   0  0  0  0  0  0  0  0  0  0  0  0
   56.9160   28.9690   44.5870 C   0  0  0  0  0  0  0  0  0  0  0  0
   57.2900   28.7850   43.3980 O   0  0  0  0  0  0  0  0  0  0  0  0
   57.9070   29.1470   45.6850 C   0  0  0  0  0  0  0  0  0  0  0  0
   58.2850   30.4540   46.0590 C   0  0  0  0  0  0  0  0  0  0  0  0
   59.2110   30.6680   47.0820 C   0  0  0  0  0  0  0  0  0  0  0  0
   59.6640   32.3030   47.5290 Cl  0  0  0  0  0  0  0  0  0  0  0  0
   59.7840   29.5820   47.7420 C   0  0  0  0  0  0  0  0  0  0  0  0
   59.4270   28.2820   47.3890 C   0  0  0  0  0  0  0  0  0  0  0  0
   58.4770   28.0460   46.3760 C   0  0  0  0  0  0  0  0  0  0  0  0
   58.1440   26.7020   45.9910 N   0  0  0  0  0  0  0  0  0  0  0  0
   56.8290   26.1320   45.9160 C   0  0  0  0  0  0  0  0  0  0  0  0
   55.8620   26.6940   46.4980 O   0  0  0  0  0  0  0  0  0  0  0  0
   56.5960   24.9120   45.1080 C   0  0  0  0  0  0  0  0  0  0  0  0
   57.1060   24.8140   43.7990 C   0  0  0  0  0  0  0  0  0  0  0  0
   56.8850   23.6620   43.0370 C   0  0  0  0  0  0  0  0  0  0  0  0
   56.1540   22.5970   43.5700 C   0  0  0  0  0  0  0  0  0  0  0  0
   55.9370   21.4540   42.8110 O   0  0  0  0  0  0  0  0  0  0  0  0
   55.6440   22.6830   44.8680 C   0  0  0  0  0  0  0  0  0  0  0  0
   55.8610   23.8330   45.6340 C   0  0  0  0  0  0  0  0  0  0  0  0
   55.1370   28.5910   45.7510 H   0  0  0  0  0  0  0  0  0  0  0  0
   57.8441   31.3163   45.5374 H   0  0  0  0  0  0  0  0  0  0  0  0
   60.5190   29.7515   48.5426 H   0  0  0  0  0  0  0  0  0  0  0  0
   59.8923   27.4306   47.9072 H   0  0  0  0  0  0  0  0  0  0  0  0
   57.6819   25.6488   43.3730 H   0  0  0  0  0  0  0  0  0  0  0  0
   57.2877   23.5943   42.0156 H   0  0  0  0  0  0  0  0  0  0  0  0
   55.0703   21.8440   45.2886 H   0  0  0  0  0  0  0  0  0  0  0  0
   55.4545   23.8946   46.6543 H   0  0  0  0  0  0  0  0  0  0  0  0
  1  2  1  0
  2  3  2  0
  2  4  1  0
  4  5  2  0
  5  6  1  0
  6  7  1  0
  6  8  2  0
  8  9  1  0
  9 10  2  0
 10 11  1  0
 11 12  1  0
 12 13  2  0
 12 14  1  0
 14 15  2  0
 15 16  1  0
 16 17  2  0
 17 18  1  0
 17 19  1  0
 19 20  2  0
 10  4  1  0
 20 14  1  0
  1 21  1  0
  5 22  1  0
  8 23  1  0
  9 24  1  0
 15 25  1  0
 16 26  1  0
 19 27  1  0
 20 28  1  0
M  CHG  3   1  -1  11  -1  18  -1
M  END
>  <UniqueID>  (19) 
18

>  <SMILES>  (19) 
[NH-]C(=O)c1cc(Cl)ccc1[N-]C(=O)c1ccc([O-])cc1

>  <Energy>  (19) 
36.05138993624333

>  <Genealogy>  (19) 
[NH-]C(=O)c1cc(Cl)ccc1[N-]C(=O)c1ccc([O-])cc1 (protonated)
[NH-]C(=O)c1cc(Cl)ccc1[N-]C(=O)c1ccc([O-])cc1 (3D coordinates assigned)
[NH-]C(=O)c1cc(Cl)ccc1[N-]C(=O)c1ccc([O-])cc1 (optimized conformer: 36.05138993624333 kcal/mol)

>  <smiles>  (19) 
NC(=O)c1cc(Cl)ccc1NC(=O)c1ccc(O)cc1

>  <score_type>  (19) 
oracle

>  <origin>  (19) 
adg

>  <m_score__min__energy>  (19) 
-12.94

>  <m_primary>  (19) 
energy

$$$$
19:0
     RDKit          3D

 44 46  0  0  0  0  0  0  0  0999 V2000
   58.7180   32.5070   52.5740 C   0  0  0  0  0  0  0  0  0  0  0  0
   58.8290   31.2440   51.8520 N   0  0  0  0  0  0  0  0  0  0  0  0
   58.8690   29.9560   52.5010 C   0  0  0  0  0  0  0  0  0  0  0  0
   60.0630   29.2050   52.5520 C   0  0  0  0  0  0  0  0  0  0  0  0
   60.0920   27.9550   53.1760 C   0  0  0  0  0  0  0  0  0  0  0  0
   58.9360   27.4350   53.7570 C   0  0  0  0  0  0  0  0  0  0  0  0
   57.7470   28.1640   53.7190 C   0  0  0  0  0  0  0  0  0  0  0  0
   57.7030   29.4180   53.0970 C   0  0  0  0  0  0  0  0  0  0  0  0
   56.4650   30.1400   53.0870 N   0  0  0  0  0  0  0  0  0  0  0  0
   55.7720   30.4130   54.3490 C   0  0  0  0  0  0  0  0  0  0  0  0
   54.2400   30.2740   54.2020 C   0  0  0  0  0  0  0  0  0  0  0  0
   53.7730   30.3040   52.7920 N   0  0  0  0  0  0  0  0  0  0  0  0
   52.3330   30.6230   52.7090 C   0  0  0  0  0  0  0  0  0  0  0  0
   51.8950   30.7390   51.2680 C   0  0  0  0  0  0  0  0  0  0  0  0
   52.0910   29.6500   50.4030 C   0  0  0  0  0  0  0  0  0  0  0  0
   51.6720   29.7190   49.0720 C   0  0  0  0  0  0  0  0  0  0  0  0
   51.0490   30.8730   48.5930 C   0  0  0  0  0  0  0  0  0  0  0  0
   50.8390   31.9610   49.4460 C   0  0  0  0  0  0  0  0  0  0  0  0
   50.2130   33.1040   48.9620 O   0  0  0  0  0  0  0  0  0  0  0  0
   51.2570   31.8990   50.7820 C   0  0  0  0  0  0  0  0  0  0  0  0
   51.0330   32.9890   51.6180 O   0  0  0  0  0  0  0  0  0  0  0  0
   54.5640   31.2560   51.9920 C   0  0  0  0  0  0  0  0  0  0  0  0
   55.9760   30.6980   51.8230 C   0  0  0  0  0  0  0  0  0  0  0  0
   58.7350   32.3132   53.6567 H   0  0  0  0  0  0  0  0  0  0  0  0
   59.5623   33.1587   52.3048 H   0  0  0  0  0  0  0  0  0  0  0  0
   57.7729   33.0014   52.3048 H   0  0  0  0  0  0  0  0  0  0  0  0
   58.8810   31.3010   50.8110 H   0  0  0  0  0  0  0  0  0  0  0  0
   60.9796   29.6076   52.0961 H   0  0  0  0  0  0  0  0  0  0  0  0
   61.0291   27.3798   53.2089 H   0  0  0  0  0  0  0  0  0  0  0  0
   58.9615   26.4497   54.2454 H   0  0  0  0  0  0  0  0  0  0  0  0
   56.8380   27.7510   54.1807 H   0  0  0  0  0  0  0  0  0  0  0  0
   56.1231   29.7004   55.1098 H   0  0  0  0  0  0  0  0  0  0  0  0
   55.9953   31.4485   54.6456 H   0  0  0  0  0  0  0  0  0  0  0  0
   53.9330   29.3173   54.6498 H   0  0  0  0  0  0  0  0  0  0  0  0
   53.7873   31.1381   54.7104 H   0  0  0  0  0  0  0  0  0  0  0  0
   51.7571   29.8237   53.1984 H   0  0  0  0  0  0  0  0  0  0  0  0
   52.1538   31.5847   53.2120 H   0  0  0  0  0  0  0  0  0  0  0  0
   52.5776   28.7367   50.7760 H   0  0  0  0  0  0  0  0  0  0  0  0
   51.8332   28.8628   48.4004 H   0  0  0  0  0  0  0  0  0  0  0  0
   50.7231   30.9264   47.5437 H   0  0  0  0  0  0  0  0  0  0  0  0
   54.0972   31.3874   51.0047 H   0  0  0  0  0  0  0  0  0  0  0  0
   54.6042   32.2306   52.5006 H   0  0  0  0  0  0  0  0  0  0  0  0
   55.9628   29.9063   51.0594 H   0  0  0  0  0  0  0  0  0  0  0  0
   56.6451   31.5143   51.5133 H   0  0  0  0  0  0  0  0  0  0  0  0
  1  2  1  0
  2  3  1  0
  3  4  2  0
  4  5  1  0
  5  6  2  0
  6  7  1  0
  7  8  2  0
  8  9  1  0
  9 10  1  0
 10 11  1  0
 11 12  1  0
 12 13  1  0
 13 14  1  0
 14 15  2  0
 15 16  1  0
 16 17  2  0
 17 18  1  0
 18 19  1  0
 18 20  2  0
 20 21  1  0
 12 22  1  0
 22 23  1  0
  8  3  1  0
 23  9  1  0
 20 14  1  0
  1 24  1  0
  1 25  1  0
  1 26  1  0
  2 27  1  0
  4 28  1  0
  5 29  1  0
  6 30  1  0
  7 31  1  0
 10 32  1  0
 10 33  1  0
 11 34  1  0
 11 35  1  0
 13 36  1  0
 13 37  1  0
 15 38  1  0
 16 39  1  0
 17 40  1  0
 22 41  1  0
 22 42  1  0
 23 43  1  0
 23 44  1  0
M  CHG  2  19  -1  21  -1
M  END
>  <UniqueID>  (20) 
19

>  <SMILES>  (20) 
CNc1ccccc1N1CCN(Cc2cccc([O-])c2[O-])CC1

>  <Energy>  (20) 
57.00639860716989

>  <Genealogy>  (20) 
CNc1ccccc1N1CCN(Cc2cccc([O-])c2[O-])CC1 (protonated)
CNc1ccccc1N1CCN(Cc2cccc([O-])c2[O-])CC1 (3D coordinates assigned)
CNc1ccccc1N1CCN(Cc2cccc([O-])c2[O-])CC1 (nonaromatic ring conformer: 57.00639860716989 kcal/mol)

>  <smiles>  (20) 
CNc1ccccc1N1CCN(Cc2cccc(O)c2O)CC1

>  <score_type>  (20) 
oracle

>  <origin>  (20) 
adg

>  <m_score__min__energy>  (20) 
-14.92

>  <m_primary>  (20) 
energy

$$$$
20:0
     RDKit          3D

 47 49  0  0  0  0  0  0  0  0999 V2000
   55.8780   29.3390   44.5100 C   0  0  0  0  0  0  0  0  0  0  0  0
   55.8520   30.7700   44.7760 N   0  0  0  0  0  0  0  0  0  0  0  0
   56.9880   31.6360   44.6620 C   0  0  0  0  0  0  0  0  0  0  0  0
   56.9730   32.7410   45.2650 O   0  0  0  0  0  0  0  0  0  0  0  0
   58.1820   31.2740   43.8220 C   0  0  0  0  0  0  0  0  0  0  0  0
   59.2370   30.7550   44.6310 O   0  0  0  0  0  0  0  0  0  0  0  0
   59.0870   30.0330   45.8260 C   0  0  0  0  0  0  0  0  0  0  0  0
   58.8310   28.6460   45.8110 C   0  0  0  0  0  0  0  0  0  0  0  0
   58.7030   27.9210   47.0030 C   0  0  0  0  0  0  0  0  0  0  0  0
   58.4060   26.4700   46.9610 C   0  0  0  0  0  0  0  0  0  0  0  0
   59.3510   25.6510   46.8070 O   0  0  0  0  0  0  0  0  0  0  0  0
   57.0750   25.9580   47.1270 N   0  0  0  0  0  0  0  0  0  0  0  0
   56.1540   25.6480   46.0750 C   0  0  0  0  0  0  0  0  0  0  0  0
   55.0870   26.3110   45.9880 O   0  0  0  0  0  0  0  0  0  0  0  0
   56.3980   24.5530   45.1150 C   0  0  0  0  0  0  0  0  0  0  0  0
   55.4870   24.0850   44.1750 C   0  0  0  0  0  0  0  0  0  0  0  0
   55.9720   23.0130   43.4170 C   0  0  0  0  0  0  0  0  0  0  0  0
   57.2590   22.6220   43.7630 C   0  0  0  0  0  0  0  0  0  0  0  0
   57.7900   23.6090   45.0150 S   0  0  0  0  0  0  0  0  0  0  0  0
   58.8680   28.5850   48.2230 C   0  0  0  0  0  0  0  0  0  0  0  0
   59.1120   29.9560   48.2560 C   0  0  0  0  0  0  0  0  0  0  0  0
   59.2060   30.7070   47.0670 C   0  0  0  0  0  0  0  0  0  0  0  0
   59.4380   32.1390   47.1400 N   0  0  0  0  0  0  0  0  0  0  0  0
   58.6000   33.0520   47.9080 C   0  0  0  0  0  0  0  0  0  0  0  0
   59.2370   34.4250   47.7570 C   0  0  0  0  0  0  0  0  0  0  0  0
   60.0800   34.3370   46.4870 C   0  0  2  0  0  0  0  0  0  0  0  0
   59.3210   34.7330   45.3740 O   0  0  0  0  0  0  0  0  0  0  0  0
   60.4390   32.8610   46.3620 C   0  0  0  0  0  0  0  0  0  0  0  0
   55.8880   28.7891   45.4626 H   0  0  0  0  0  0  0  0  0  0  0  0
   54.9848   29.0570   43.9332 H   0  0  0  0  0  0  0  0  0  0  0  0
   56.7808   29.0896   43.9332 H   0  0  0  0  0  0  0  0  0  0  0  0
   57.8861   30.5130   43.0849 H   0  0  0  0  0  0  0  0  0  0  0  0
   58.5424   32.1813   43.3151 H   0  0  0  0  0  0  0  0  0  0  0  0
   58.7302   28.1249   44.8475 H   0  0  0  0  0  0  0  0  0  0  0  0
   54.4835   24.5150   44.0402 H   0  0  0  0  0  0  0  0  0  0  0  0
   55.3886   22.5259   42.6218 H   0  0  0  0  0  0  0  0  0  0  0  0
   57.8321   21.8066   43.2976 H   0  0  0  0  0  0  0  0  0  0  0  0
   58.8045   28.0196   49.1645 H   0  0  0  0  0  0  0  0  0  0  0  0
   59.2333   30.4608   49.2258 H   0  0  0  0  0  0  0  0  0  0  0  0
   57.5751   33.0591   47.5085 H   0  0  0  0  0  0  0  0  0  0  0  0
   58.5340   32.7501   48.9637 H   0  0  0  0  0  0  0  0  0  0  0  0
   58.4633   35.2000   47.6536 H   0  0  0  0  0  0  0  0  0  0  0  0
   59.8422   34.6965   48.6345 H   0  0  0  0  0  0  0  0  0  0  0  0
   60.9662   34.9871   46.5313 H   0  0  0  0  0  0  0  0  0  0  0  0
   58.7280   33.9690   45.1480 H   0  0  0  0  0  0  0  0  0  0  0  0
   60.4046   32.5467   45.3084 H   0  0  0  0  0  0  0  0  0  0  0  0
   61.4568   32.6604   46.7278 H   0  0  0  0  0  0  0  0  0  0  0  0
  1  2  1  0
  2  3  1  0
  3  4  2  0
  3  5  1  0
  5  6  1  0
  6  7  1  0
  7  8  2  0
  8  9  1  0
  9 10  1  0
 10 11  2  0
 10 12  1  0
 12 13  1  0
 13 14  2  0
 13 15  1  0
 15 16  2  0
 16 17  1  0
 17 18  2  0
 18 19  1  0
  9 20  2  0
 20 21  1  0
 21 22  2  0
 22 23  1  0
 23 24  1  0
 24 25  1  0
 25 26  1  0
 26 27  1  0
 26 28  1  0
 22  7  1  0
 28 23  1  0
 19 15  1  0
  1 29  1  0
  1 30  1  0
  1 31  1  0
  5 32  1  0
  5 33  1  0
  8 34  1  0
 16 35  1  0
 17 36  1  0
 18 37  1  0
 20 38  1  0
 21 39  1  0
 24 40  1  0
 24 41  1  0
 25 42  1  0
 25 43  1  0
 26 44  1  1
 27 45  1  0
 28 46  1  0
 28 47  1  0
M  CHG  2   2  -1  12  -1
M  END
>  <UniqueID>  (21) 
20

>  <SMILES>  (21) 
C[N-]C(=O)COc1cc(C(=O)[N-]C(=O)c2cccs2)ccc1N1CC[C@H](O)C1

>  <Energy>  (21) 
82.22493877337016

>  <Genealogy>  (21) 
C[N-]C(=O)COc1cc(C(=O)[N-]C(=O)c2cccs2)ccc1N1CCC(O)C1 (protonated)
C[N-]C(=O)COc1cc(C(=O)[N-]C(=O)c2cccs2)ccc1N1CC[C@H](O)C1 (chirality)
C[N-]C(=O)COc1cc(C(=O)[N-]C(=O)c2cccs2)ccc1N1CC[C@H](O)C1 (3D coordinates assigned)
C[N-]C(=O)COc1cc(C(=O)[N-]C(=O)c2cccs2)ccc1N1CC[C@H](O)C1 (nonaromatic ring conformer: 82.22493877337016 kcal/mol)

>  <smiles>  (21) 
CNC(=O)COc1cc(C(=O)NC(=O)c2cccs2)ccc1N1CCC(O)C1

>  <score_type>  (21) 
oracle

>  <origin>  (21) 
adg

>  <m_score__min__energy>  (21) 
-11.039999999999999

>  <m_primary>  (21) 
energy

$$$$
21:0
     RDKit          3D

 46 48  0  0  0  0  0  0  0  0999 V2000
   55.8240   28.7980   45.2150 O   0  0  0  0  0  0  0  0  0  0  0  0
   56.8410   29.5360   45.0980 C   0  0  0  0  0  0  0  0  0  0  0  0
   56.6730   30.9370   44.8770 N   0  0  0  0  0  0  0  0  0  0  0  0
   57.5690   31.9410   45.4350 C   0  0  0  0  0  0  0  0  0  0  0  0
   57.7570   33.0730   44.4330 C   0  0  0  0  0  0  0  0  0  0  0  0
   59.0820   33.5500   44.5200 O   0  0  0  0  0  0  0  0  0  0  0  0
   59.1120   34.7160   45.3170 C   0  0  0  0  0  0  0  0  0  0  0  0
   59.2900   34.3170   46.7780 C   0  0  0  0  0  0  0  0  0  0  0  0
   60.4620   33.4600   46.9300 N   0  0  0  0  0  0  0  0  0  0  0  0
   61.7460   33.8490   46.8220 C   0  0  0  0  0  0  0  0  0  0  0  0
   62.5500   32.7650   47.0980 C   0  0  0  0  0  0  0  0  0  0  0  0
   61.6700   31.7360   47.3780 C   0  0  0  0  0  0  0  0  0  0  0  0
   60.4040   32.1850   47.2770 N   0  0  0  0  0  0  0  0  0  0  0  0
   58.1970   28.9430   45.2290 C   0  0  0  0  0  0  0  0  0  0  0  0
   59.2450   29.5000   44.4710 C   0  0  0  0  0  0  0  0  0  0  0  0
   60.5340   28.9680   44.5320 C   0  0  0  0  0  0  0  0  0  0  0  0
   60.8000   27.8720   45.3510 C   0  0  0  0  0  0  0  0  0  0  0  0
   59.7800   27.3130   46.1200 C   0  0  0  0  0  0  0  0  0  0  0  0
   58.4820   27.8440   46.0830 C   0  0  0  0  0  0  0  0  0  0  0  0
   57.2540   27.1050   47.1770 S   0  0  0  0  0  0  0  0  0  0  0  0
   56.9070   25.7430   46.0570 C   0  0  0  0  0  0  0  0  0  0  0  0
   57.9440   24.8850   45.6650 C   0  0  0  0  0  0  0  0  0  0  0  0
   57.6880   23.8230   44.7940 C   0  0  0  0  0  0  0  0  0  0  0  0
   56.3920   23.6080   44.3160 C   0  0  0  0  0  0  0  0  0  0  0  0
   55.3500   24.4520   44.7130 C   0  0  0  0  0  0  0  0  0  0  0  0
   55.6030   25.5160   45.5870 C   0  0  0  0  0  0  0  0  0  0  0  0
   54.5550   26.3370   45.9860 O   0  0  0  0  0  0  0  0  0  0  0  0
   57.1363   32.3422   46.3633 H   0  0  0  0  0  0  0  0  0  0  0  0
   58.5439   31.4799   45.6518 H   0  0  0  0  0  0  0  0  0  0  0  0
   57.5655   32.7005   43.4159 H   0  0  0  0  0  0  0  0  0  0  0  0
   57.0537   33.8883   44.6580 H   0  0  0  0  0  0  0  0  0  0  0  0
   59.9516   35.3543   45.0045 H   0  0  0  0  0  0  0  0  0  0  0  0
   58.1703   35.2717   45.1966 H   0  0  0  0  0  0  0  0  0  0  0  0
   59.4212   35.2228   47.3881 H   0  0  0  0  0  0  0  0  0  0  0  0
   58.3979   33.7653   47.1095 H   0  0  0  0  0  0  0  0  0  0  0  0
   62.0936   34.8589   46.5586 H   0  0  0  0  0  0  0  0  0  0  0  0
   63.6493   32.7266   47.0961 H   0  0  0  0  0  0  0  0  0  0  0  0
   61.9593   30.7083   47.6427 H   0  0  0  0  0  0  0  0  0  0  0  0
   59.0452   30.3656   43.8224 H   0  0  0  0  0  0  0  0  0  0  0  0
   61.3412   29.4144   43.9327 H   0  0  0  0  0  0  0  0  0  0  0  0
   61.8143   27.4482   45.3907 H   0  0  0  0  0  0  0  0  0  0  0  0
   59.9954   26.4465   46.7625 H   0  0  0  0  0  0  0  0  0  0  0  0
   58.9634   25.0485   46.0447 H   0  0  0  0  0  0  0  0  0  0  0  0
   58.5061   23.1561   44.4844 H   0  0  0  0  0  0  0  0  0  0  0  0
   56.1917   22.7742   43.6270 H   0  0  0  0  0  0  0  0  0  0  0  0
   54.3303   24.2797   44.3381 H   0  0  0  0  0  0  0  0  0  0  0  0
  1  2  2  0
  2  3  1  0
  3  4  1  0
  4  5  1  0
  5  6  1  0
  6  7  1  0
  7  8  1  0
  8  9  1  0
  9 10  1  0
 10 11  2  0
 11 12  1  0
 12 13  2  0
  2 14  1  0
 14 15  2  0
 15 16  1  0
 16 17  2  0
 17 18  1  0
 18 19  2  0
 19 20  1  0
 20 21  1  0
 21 22  2  0
 22 23  1  0
 23 24  2  0
 24 25  1  0
 25 26  2  0
 26 27  1  0
 13  9  1  0
 19 14  1  0
 26 21  1  0
  4 28  1  0
  4 29  1  0
  5 30  1  0
  5 31  1  0
  7 32  1  0
  7 33  1  0
  8 34  1  0
  8 35  1  0
 10 36  1  0
 11 37  1  0
 12 38  1  0
 15 39  1  0
 16 40  1  0
 17 41  1  0
 18 42  1  0
 22 43  1  0
 23 44  1  0
 24 45  1  0
 25 46  1  0
M  CHG  2   3  -1  27  -1
M  END
>  <UniqueID>  (22) 
21

>  <SMILES>  (22) 
O=C([N-]CCOCCn1cccn1)c1ccccc1Sc1ccccc1[O-]

>  <Energy>  (22) 
70.75522304124267

>  <Genealogy>  (22) 
O=C([N-]CCOCCn1cccn1)c1ccccc1Sc1ccccc1[O-] (protonated)
O=C([N-]CCOCCn1cccn1)c1ccccc1Sc1ccccc1[O-] (3D coordinates assigned)
O=C([N-]CCOCCn1cccn1)c1ccccc1Sc1ccccc1[O-] (optimized conformer: 70.75522304124267 kcal/mol)

>  <smiles>  (22) 
O=C(NCCOCCn1cccn1)c1ccccc1Sc1ccccc1O

>  <score_type>  (22) 
oracle

>  <origin>  (22) 
adg

>  <m_score__min__energy>  (22) 
-13.06

>  <m_primary>  (22) 
energy

$$$$
22:0
     RDKit          3D

 51 53  0  0  0  0  0  0  0  0999 V2000
   59.7190   29.9650   50.0760 C   0  0  0  0  0  0  0  0  0  0  0  0
   58.9500   30.1690   48.7760 C   0  0  0  0  0  0  0  0  0  0  0  0
   59.5150   29.3590   47.6860 N   0  0  0  0  0  0  0  0  0  0  0  0
   60.7790   29.7580   47.0470 C   0  0  0  0  0  0  0  0  0  0  0  0
   60.7870   31.2500   46.6980 C   0  0  0  0  0  0  0  0  0  0  0  0
   61.9370   31.9860   47.3260 C   0  0  0  0  0  0  0  0  0  0  0  0
   62.4890   31.5630   48.5460 C   0  0  0  0  0  0  0  0  0  0  0  0
   63.5520   32.2790   49.1020 C   0  0  0  0  0  0  0  0  0  0  0  0
   64.0430   33.4120   48.4520 C   0  0  0  0  0  0  0  0  0  0  0  0
   63.4560   33.8180   47.2520 C   0  0  0  0  0  0  0  0  0  0  0  0
   62.4260   33.1040   46.7240 N   0  0  0  0  0  0  0  0  0  0  0  0
   58.6550   28.4410   46.9860 C   0  0  0  0  0  0  0  0  0  0  0  0
   58.5250   27.1260   47.4600 C   0  0  0  0  0  0  0  0  0  0  0  0
   57.6970   26.2160   46.8020 C   0  0  0  0  0  0  0  0  0  0  0  0
   57.0010   26.6060   45.6570 C   0  0  0  0  0  0  0  0  0  0  0  0
   57.1250   27.9100   45.1730 C   0  0  0  0  0  0  0  0  0  0  0  0
   57.9330   28.8450   45.8450 C   0  0  0  0  0  0  0  0  0  0  0  0
   58.1080   30.1720   45.3310 N   0  0  0  0  0  0  0  0  0  0  0  0
   57.0910   31.0250   44.7920 C   0  0  0  0  0  0  0  0  0  0  0  0
   55.9390   30.5520   44.6070 O   0  0  0  0  0  0  0  0  0  0  0  0
   57.3890   32.4320   44.3450 C   0  0  0  0  0  0  0  0  0  0  0  0
   58.1490   33.1670   45.4160 C   0  0  0  0  0  0  0  0  0  0  0  0
   58.9610   34.2640   45.0860 C   0  0  0  0  0  0  0  0  0  0  0  0
   59.6240   34.9790   46.0880 C   0  0  0  0  0  0  0  0  0  0  0  0
   59.4840   34.6030   47.4250 C   0  0  0  0  0  0  0  0  0  0  0  0
   58.6790   33.5120   47.7650 C   0  0  0  0  0  0  0  0  0  0  0  0
   58.5450   33.1460   49.0640 F   0  0  0  0  0  0  0  0  0  0  0  0
   58.0100   32.7980   46.7650 C   0  0  0  0  0  0  0  0  0  0  0  0
   59.0490   30.1427   50.9301 H   0  0  0  0  0  0  0  0  0  0  0  0
   60.1012   28.9344   50.1181 H   0  0  0  0  0  0  0  0  0  0  0  0
   60.5618   30.6706   50.1181 H   0  0  0  0  0  0  0  0  0  0  0  0
   57.9006   29.8780   48.9314 H   0  0  0  0  0  0  0  0  0  0  0  0
   59.0230   31.2295   48.4932 H   0  0  0  0  0  0  0  0  0  0  0  0
   61.6098   29.5481   47.7368 H   0  0  0  0  0  0  0  0  0  0  0  0
   60.8893   29.1854   46.1143 H   0  0  0  0  0  0  0  0  0  0  0  0
   60.8562   31.3555   45.6053 H   0  0  0  0  0  0  0  0  0  0  0  0
   59.8576   31.6882   47.0907 H   0  0  0  0  0  0  0  0  0  0  0  0
   62.0882   30.6763   49.0590 H   0  0  0  0  0  0  0  0  0  0  0  0
   64.0012   31.9501   50.0507 H   0  0  0  0  0  0  0  0  0  0  0  0
   64.8829   33.9788   48.8801 H   0  0  0  0  0  0  0  0  0  0  0  0
   63.8264   34.7149   46.7339 H   0  0  0  0  0  0  0  0  0  0  0  0
   59.0796   26.8110   48.3562 H   0  0  0  0  0  0  0  0  0  0  0  0
   57.5927   25.1905   47.1860 H   0  0  0  0  0  0  0  0  0  0  0  0
   56.3540   25.8855   45.1352 H   0  0  0  0  0  0  0  0  0  0  0  0
   56.5875   28.2078   44.2606 H   0  0  0  0  0  0  0  0  0  0  0  0
   57.9935   32.4012   43.4265 H   0  0  0  0  0  0  0  0  0  0  0  0
   56.4412   32.9562   44.1531 H   0  0  0  0  0  0  0  0  0  0  0  0
   59.0761   34.5624   44.0335 H   0  0  0  0  0  0  0  0  0  0  0  0
   60.2567   35.8388   45.8225 H   0  0  0  0  0  0  0  0  0  0  0  0
   60.0077   35.1658   48.2118 H   0  0  0  0  0  0  0  0  0  0  0  0
   57.3722   31.9437   47.0359 H   0  0  0  0  0  0  0  0  0  0  0  0
  1  2  1  0
  2  3  1  0
  3  4  1  0
  4  5  1  0
  5  6  1  0
  6  7  2  0
  7  8  1  0
  8  9  2  0
  9 10  1  0
 10 11  2  0
  3 12  1  0
 12 13  2  0
 13 14  1  0
 14 15  2  0
 15 16  1  0
 16 17  2  0
 17 18  1  0
 18 19  1  0
 19 20  2  0
 19 21  1  0
 21 22  1  0
 22 23  2  0
 23 24  1  0
 24 25  2  0
 25 26  1  0
 26 27  1  0
 26 28  2  0
 11  6  1  0
 17 12  1  0
 28 22  1  0
  1 29  1  0
  1 30  1  0
  1 31  1  0
  2 32  1  0
  2 33  1  0
  4 34  1  0
  4 35  1  0
  5 36  1  0
  5 37  1  0
  7 38  1  0
  8 39  1  0
  9 40  1  0
 10 41  1  0
 13 42  1  0
 14 43  1  0
 15 44  1  0
 16 45  1  0
 21 46  1  0
 21 47  1  0
 23 48  1  0
 24 49  1  0
 25 50  1  0
 28 51  1  0
M  CHG  1  18  -1
M  END
>  <UniqueID>  (23) 
22

>  <SMILES>  (23) 
CCN(CCc1ccccn1)c1ccccc1[N-]C(=O)Cc1cccc(F)c1

>  <Energy>  (23) 
53.327524415515256

>  <Genealogy>  (23) 
CCN(CCc1ccccn1)c1ccccc1[N-]C(=O)Cc1cccc(F)c1 (protonated)
CCN(CCc1ccccn1)c1ccccc1[N-]C(=O)Cc1cccc(F)c1 (3D coordinates assigned)
CCN(CCc1ccccn1)c1ccccc1[N-]C(=O)Cc1cccc(F)c1 (optimized conformer: 53.327524415515256 kcal/mol)

>  <smiles>  (23) 
CCN(CCc1ccccn1)c1ccccc1NC(=O)Cc1cccc(F)c1

>  <score_type>  (23) 
oracle

>  <origin>  (23) 
adg

>  <m_score__min__energy>  (23) 
-10.08

>  <m_primary>  (23) 
energy

$$$$
23:0
     RDKit          3D

 42 44  0  0  1  0  0  0  0  0999 V2000
   61.5230   31.1460   48.3200 C   0  0  0  0  0  0  0  0  0  0  0  0
   60.0810   30.7300   47.3880 S   0  0  0  0  0  0  0  0  0  0  0  0
   59.1000   30.0510   48.3070 O   0  0  0  0  0  0  0  0  0  0  0  0
   60.4520   29.7280   46.3290 O   0  0  0  0  0  0  0  0  0  0  0  0
   59.3990   32.0860   46.5830 N   0  0  0  0  0  0  0  0  0  0  0  0
   58.5020   32.8350   47.4120 C   0  0  0  0  0  0  0  0  0  0  0  0
   57.4720   33.5110   46.5200 C   0  0  0  0  0  0  0  0  0  0  0  0
   57.9850   33.5910   45.1460 N   0  0  0  0  0  0  0  0  0  0  0  0
   57.6080   32.6160   44.3580 C   0  0  0  0  0  0  0  0  0  0  0  0
   57.7780   32.6800   42.9860 C   0  0  0  0  0  0  0  0  0  0  0  0
   57.3710   31.6350   42.1660 C   0  0  0  0  0  0  0  0  0  0  0  0
   56.8030   30.5420   42.7290 N   0  0  0  0  0  0  0  0  0  0  0  0
   56.6470   30.4930   44.0530 C   0  0  0  0  0  0  0  0  0  0  0  0
   56.0500   29.3640   44.7240 N   0  0  0  0  0  0  0  0  0  0  0  0
   56.8590   28.6470   45.4320 C   0  0  0  0  0  0  0  0  0  0  0  0
   56.7910   27.2770   45.6110 C   0  0  0  0  0  0  0  0  0  0  0  0
   57.8480   26.9420   46.4330 C   0  0  0  0  0  0  0  0  0  0  0  0
   58.2240   25.5800   46.9340 C   0  0  0  0  0  0  0  0  0  0  0  0
   58.1420   24.4020   46.0450 C   0  0  0  0  0  0  0  0  0  0  0  0
   57.0200   24.6300   47.0650 C   0  0  0  0  0  0  0  0  0  0  0  0
   58.5130   28.0740   46.7250 N   0  0  0  0  0  0  0  0  0  0  0  0
   57.9350   29.1090   46.1320 N   0  0  0  0  0  0  0  0  0  0  0  0
   57.0370   31.5020   44.8530 N   0  0  0  0  0  0  0  0  0  0  0  0
   61.2966   31.0807   49.3945 H   0  0  0  0  0  0  0  0  0  0  0  0
   62.3341   30.4452   48.0729 H   0  0  0  0  0  0  0  0  0  0  0  0
   61.8362   32.1711   48.0729 H   0  0  0  0  0  0  0  0  0  0  0  0
   58.9150   31.7290   45.7390 H   0  0  0  0  0  0  0  0  0  0  0  0
   57.9959   32.1588   48.1168 H   0  0  0  0  0  0  0  0  0  0  0  0
   59.0597   33.5911   47.9841 H   0  0  0  0  0  0  0  0  0  0  0  0
   56.5402   32.9265   46.5292 H   0  0  0  0  0  0  0  0  0  0  0  0
   57.2745   34.5260   46.8953 H   0  0  0  0  0  0  0  0  0  0  0  0
   58.2421   33.5712   42.5383 H   0  0  0  0  0  0  0  0  0  0  0  0
   57.5080   31.6944   41.0762 H   0  0  0  0  0  0  0  0  0  0  0  0
   56.4930   29.7550   42.1520 H   0  0  0  0  0  0  0  0  0  0  0  0
   56.0441   26.5917   45.1838 H   0  0  0  0  0  0  0  0  0  0  0  0
   59.0379   25.9581   47.5700 H   0  0  0  0  0  0  0  0  0  0  0  0
   57.9411   24.5404   44.9724 H   0  0  0  0  0  0  0  0  0  0  0  0
   58.8150   23.5624   45.8165 H   0  0  0  0  0  0  0  0  0  0  0  0
   56.0210   24.9480   46.7320 H   0  0  0  0  0  0  0  0  0  0  0  0
   56.5546   24.0479   47.8740 H   0  0  0  0  0  0  0  0  0  0  0  0
   59.3590   28.1020   47.3320 H   0  0  0  0  0  0  0  0  0  0  0  0
   58.2200   30.1250   46.1690 H   0  0  0  0  0  0  0  0  0  0  0  0
  1  2  1  0
  2  3  2  0
  2  4  2  0
  2  5  1  0
  5  6  1  0
  6  7  1  0
  7  8  1  0
  8  9  2  0
  9 10  1  0
 10 11  2  0
 11 12  1  0
 12 13  1  0
 13 14  1  0
 14 15  2  0
 15 16  1  0
 16 17  2  0
 17 18  1  0
 18 19  1  0
 19 20  1  0
 17 21  1  0
 21 22  1  0
 13 23  2  0
 23  9  1  0
 22 15  1  0
 20 18  1  0
  1 24  1  0
  1 25  1  0
  1 26  1  0
  5 27  1  0
  6 28  1  0
  6 29  1  0
  7 30  1  0
  7 31  1  0
 10 32  1  0
 11 33  1  0
 12 34  1  0
 16 35  1  0
 18 36  1  0
 19 37  1  0
 19 38  1  0
 20 39  1  0
 20 40  1  0
 21 41  1  0
 22 42  1  0
M  END
>  <smiles>  (24) 
CS(=O)(=O)NCCN=c1cc[nH]c(N=c2cc(C3CC3)[nH][nH]2)n1

>  <score_type>  (24) 
oracle

>  <origin>  (24) 
adg

>  <m_score__min__energy>  (24) 
-5.9000000000000004

>  <m_primary>  (24) 
energy

$$$$
24:0
     RDKit          3D

 49 50  0  0  0  0  0  0  0  0999 V2000
   56.6730   20.7400   43.2800 C   0  0  0  0  0  0  0  0  0  0  0  0
   56.4370   22.1560   42.7610 C   0  0  0  0  0  0  0  0  0  0  0  0
   57.3410   23.1090   43.4460 N   0  0  0  0  0  0  0  0  0  0  0  0
   57.7020   22.6140   44.7970 C   0  0  0  0  0  0  0  0  0  0  0  0
   59.1960   22.3100   44.8770 C   0  0  0  0  0  0  0  0  0  0  0  0
   56.7330   24.4590   43.5280 C   0  0  0  0  0  0  0  0  0  0  0  0
   57.0440   25.1340   44.8720 C   0  0  0  0  0  0  0  0  0  0  0  0
   58.1850   26.0550   44.7580 N   0  0  0  0  0  0  0  0  0  0  0  0
   59.2420   26.0290   45.7740 C   0  0  0  0  0  0  0  0  0  0  0  0
   58.1620   27.1160   43.7820 C   0  0  0  0  0  0  0  0  0  0  0  0
   58.3850   26.8520   42.5690 O   0  0  0  0  0  0  0  0  0  0  0  0
   57.8580   28.5120   44.1640 C   0  0  0  0  0  0  0  0  0  0  0  0
   58.8820   29.4050   44.5060 C   0  0  0  0  0  0  0  0  0  0  0  0
   58.5770   30.7250   44.8490 C   0  0  0  0  0  0  0  0  0  0  0  0
   57.2460   31.1500   44.8330 C   0  0  0  0  0  0  0  0  0  0  0  0
   56.9450   32.4660   45.2050 O   0  0  0  0  0  0  0  0  0  0  0  0
   57.8690   33.4020   45.6910 C   0  0  0  0  0  0  0  0  0  0  0  0
   58.2190   33.4750   47.0530 C   0  0  0  0  0  0  0  0  0  0  0  0
   59.1370   34.4340   47.4930 C   0  0  0  0  0  0  0  0  0  0  0  0
   59.7030   35.3320   46.5840 C   0  0  0  0  0  0  0  0  0  0  0  0
   59.3440   35.2780   45.2340 C   0  0  0  0  0  0  0  0  0  0  0  0
   58.4250   34.3220   44.7910 C   0  0  0  0  0  0  0  0  0  0  0  0
   56.2640   30.2690   44.4900 N   0  0  0  0  0  0  0  0  0  0  0  0
   56.5360   28.9820   44.1480 C   0  0  0  0  0  0  0  0  0  0  0  0
   56.6717   20.7477   44.3800 H   0  0  0  0  0  0  0  0  0  0  0  0
   55.8727   20.0783   42.9170 H   0  0  0  0  0  0  0  0  0  0  0  0
   57.6446   20.3736   42.9170 H   0  0  0  0  0  0  0  0  0  0  0  0
   56.6323   22.1837   41.6788 H   0  0  0  0  0  0  0  0  0  0  0  0
   55.3942   22.4428   42.9617 H   0  0  0  0  0  0  0  0  0  0  0  0
   57.4490   23.3820   45.5428 H   0  0  0  0  0  0  0  0  0  0  0  0
   57.1409   21.6893   44.9972 H   0  0  0  0  0  0  0  0  0  0  0  0
   59.5016   22.2478   45.9319 H   0  0  0  0  0  0  0  0  0  0  0  0
   59.4024   21.3515   44.3784 H   0  0  0  0  0  0  0  0  0  0  0  0
   59.7605   23.1117   44.3784 H   0  0  0  0  0  0  0  0  0  0  0  0
   57.1330   25.0815   42.7140 H   0  0  0  0  0  0  0  0  0  0  0  0
   55.6418   24.3528   43.4387 H   0  0  0  0  0  0  0  0  0  0  0  0
   56.1596   25.6988   45.2021 H   0  0  0  0  0  0  0  0  0  0  0  0
   57.3017   24.3517   45.6011 H   0  0  0  0  0  0  0  0  0  0  0  0
   58.7879   26.0402   46.7759 H   0  0  0  0  0  0  0  0  0  0  0  0
   59.8434   25.1158   45.6542 H   0  0  0  0  0  0  0  0  0  0  0  0
   59.8876   26.9115   45.6542 H   0  0  0  0  0  0  0  0  0  0  0  0
   59.9286   29.0663   44.5045 H   0  0  0  0  0  0  0  0  0  0  0  0
   59.3786   31.4241   45.1294 H   0  0  0  0  0  0  0  0  0  0  0  0
   57.7690   32.7757   47.7730 H   0  0  0  0  0  0  0  0  0  0  0  0
   59.4140   34.4815   48.5565 H   0  0  0  0  0  0  0  0  0  0  0  0
   60.4305   36.0808   46.9305 H   0  0  0  0  0  0  0  0  0  0  0  0
   59.7851   35.9885   44.5194 H   0  0  0  0  0  0  0  0  0  0  0  0
   58.1365   34.2915   43.7300 H   0  0  0  0  0  0  0  0  0  0  0  0
   55.7174   28.3069   43.8578 H   0  0  0  0  0  0  0  0  0  0  0  0
  1  2  1  0
  2  3  1  0
  3  4  1  0
  4  5  1  0
  3  6  1  0
  6  7  1  0
  7  8  1  0
  8  9  1  0
  8 10  1  0
 10 11  2  0
 10 12  1  0
 12 13  2  0
 13 14  1  0
 14 15  2  0
 15 16  1  0
 16 17  1  0
 17 18  2  0
 18 19  1  0
 19 20  2  0
 20 21  1  0
 21 22  2  0
 15 23  1  0
 23 24  2  0
 24 12  1  0
 22 17  1  0
  1 25  1  0
  1 26  1  0
  1 27  1  0
  2 28  1  0
  2 29  1  0
  4 30  1  0
  4 31  1  0
  5 32  1  0
  5 33  1  0
  5 34  1  0
  6 35  1  0
  6 36  1  0
  7 37  1  0
  7 38  1  0
  9 39  1  0
  9 40  1  0
  9 41  1  0
 13 42  1  0
 14 43  1  0
 18 44  1  0
 19 45  1  0
 20 46  1  0
 21 47  1  0
 22 48  1  0
 24 49  1  0
M  END
>  <UniqueID>  (25) 
23

>  <SMILES>  (25) 
CCN(CC)CCN(C)C(=O)c1ccc(Oc2ccccc2)nc1

>  <Energy>  (25) 
53.27862513640342

>  <Genealogy>  (25) 
CCN(CC)CCN(C)C(=O)c1ccc(Oc2ccccc2)nc1 (3D coordinates assigned)
CCN(CC)CCN(C)C(=O)c1ccc(Oc2ccccc2)nc1 (optimized conformer: 53.27862513640342 kcal/mol)

>  <smiles>  (25) 
CCN(CC)CCN(C)C(=O)c1ccc(Oc2ccccc2)nc1

>  <score_type>  (25) 
oracle

>  <origin>  (25) 
adg

>  <m_score__min__energy>  (25) 
-6.9900000000000002

>  <m_primary>  (25) 
energy

$$$$
25:0
     RDKit          3D

 43 45  0  0  0  0  0  0  0  0999 V2000
   54.5104   30.4284   43.8626 H   0  0  0  0  0  0  0  0  0  0  0  0
   55.5460   30.1540   44.1120 C   0  0  0  0  0  0  0  0  0  0  0  0
   55.7890   29.1560   45.0030 N   0  0  0  0  0  0  0  0  0  0  0  0
   57.0510   28.7840   45.3560 C   0  0  0  0  0  0  0  0  0  0  0  0
   57.1870   27.8070   46.2100 N   0  0  0  0  0  0  0  0  0  0  0  0
   58.3260   27.4780   47.0170 C   0  0  0  0  0  0  0  0  0  0  0  0
   59.0340   26.4890   46.6870 O   0  0  0  0  0  0  0  0  0  0  0  0
   58.5880   28.1940   48.2380 N   0  0  0  0  0  0  0  0  0  0  0  0
   59.1340   29.3700   48.3580 C   0  0  0  0  0  0  0  0  0  0  0  0
   58.8070   30.3850   47.5140 N   0  0  0  0  0  0  0  0  0  0  0  0
   59.3590   31.6230   47.6230 C   0  0  0  0  0  0  0  0  0  0  0  0
   58.8710   32.6710   46.7030 C   0  0  0  0  0  0  0  0  0  0  0  0
   59.7880   33.4200   45.9480 C   0  0  0  0  0  0  0  0  0  0  0  0
   60.8677   33.2471   46.0681 H   0  0  0  0  0  0  0  0  0  0  0  0
   59.3330   34.3850   45.0440 C   0  0  0  0  0  0  0  0  0  0  0  0
   60.0554   34.9805   44.4666 H   0  0  0  0  0  0  0  0  0  0  0  0
   57.9610   34.5940   44.8730 C   0  0  0  0  0  0  0  0  0  0  0  0
   57.6053   35.3544   44.1622 H   0  0  0  0  0  0  0  0  0  0  0  0
   57.0420   33.8380   45.6040 C   0  0  0  0  0  0  0  0  0  0  0  0
   55.9630   34.0020   45.4668 H   0  0  0  0  0  0  0  0  0  0  0  0
   57.4920   32.8730   46.5100 C   0  0  0  0  0  0  0  0  0  0  0  0
   56.7655   32.2696   47.0739 H   0  0  0  0  0  0  0  0  0  0  0  0
   60.3230   31.8630   48.6310 C   0  0  0  0  0  0  0  0  0  0  0  0
   61.0560   33.1460   48.7650 C   0  0  0  0  0  0  0  0  0  0  0  0
   60.4160   34.2140   48.9720 O   0  0  0  0  0  0  0  0  0  0  0  0
   62.4550   33.1710   48.6940 O   0  0  0  0  0  0  0  0  0  0  0  0
   63.1970   32.7200   47.5630 C   0  0  0  0  0  0  0  0  0  0  0  0
   62.6858   31.8539   47.1174 H   0  0  0  0  0  0  0  0  0  0  0  0
   64.2080   32.4378   47.8921 H   0  0  0  0  0  0  0  0  0  0  0  0
   63.3110   33.8250   46.5200 C   0  0  0  0  0  0  0  0  0  0  0  0
   63.4113   34.7970   47.0251 H   0  0  0  0  0  0  0  0  0  0  0  0
   64.1954   33.6457   45.8910 H   0  0  0  0  0  0  0  0  0  0  0  0
   62.4086   33.8300   45.8910 H   0  0  0  0  0  0  0  0  0  0  0  0
   60.6260   30.8050   49.5020 C   0  0  0  0  0  0  0  0  0  0  0  0
   61.3512   30.9596   50.3145 H   0  0  0  0  0  0  0  0  0  0  0  0
   60.0330   29.5920   49.3520 N   0  0  0  0  0  0  0  0  0  0  0  0
   60.2870   28.8200   50.0100 H   0  0  0  0  0  0  0  0  0  0  0  0
   58.1490   29.4350   44.7530 C   0  0  0  0  0  0  0  0  0  0  0  0
   59.1777   29.1366   45.0035 H   0  0  0  0  0  0  0  0  0  0  0  0
   57.9160   30.4620   43.8350 C   0  0  0  0  0  0  0  0  0  0  0  0
   58.7642   30.9811   43.3647 H   0  0  0  0  0  0  0  0  0  0  0  0
   56.6100   30.8300   43.5140 C   0  0  0  0  0  0  0  0  0  0  0  0
   56.4208   31.6434   42.7980 H   0  0  0  0  0  0  0  0  0  0  0  0
  1  2  1  0
  2  3  1  0
  3  4  1  0
  4  5  2  3
  5  6  1  0
  6  7  2  0
  6  8  1  0
  8  9  2  0
  9 10  1  0
 10 11  2  0
 11 12  1  0
 12 13  2  0
 13 14  1  0
 13 15  1  0
 15 16  1  0
 15 17  2  0
 17 18  1  0
 17 19  1  0
 19 20  1  0
 19 21  2  0
 21 22  1  0
 11 23  1  0
 23 24  1  0
 24 25  2  0
 24 26  1  0
 26 27  1  0
 27 28  1  0
 27 29  1  0
 27 30  1  0
 30 31  1  0
 30 32  1  0
 30 33  1  0
 23 34  2  0
 34 35  1  0
 34 36  1  0
 36 37  1  0
  4 38  1  0
 38 39  1  0
 38 40  2  0
 40 41  1  0
 40 42  1  0
 42 43  1  0
 42  2  2  0
 36  9  1  0
 21 12  1  0
M  CHG  1   3  -1
M  END
>  <UniqueID>  (26) 
24

>  <SMILES>  (26) 
CCOC(=O)c1c[nH]/c(=N/C(=O)N=c2cccc[n-]2)nc1-c1ccccc1

>  <Energy>  (26) 
62.18451724139961

>  <Genealogy>  (26) 
CCOC(=O)c1c[nH]c(=NC(=O)N=c2cccc[n-]2)nc1-c1ccccc1 (protonated)
CCOC(=O)c1c[nH]/c(=N/C(=O)N=c2cccc[n-]2)nc1-c1ccccc1 (cis-trans isomerization)
CCOC(=O)c1c[nH]/c(=N/C(=O)N=c2cccc[n-]2)nc1-c1ccccc1 (3D coordinates assigned)
CCOC(=O)c1c[nH]/c(=N/C(=O)N=c2cccc[n-]2)nc1-c1ccccc1 (optimized conformer: 62.18451724139961 kcal/mol)

>  <smiles>  (26) 
CCOC(=O)c1c[nH]c(=NC(=O)N=c2cccc[nH]2)nc1-c1ccccc1

>  <score_type>  (26) 
oracle

>  <origin>  (26) 
adg

>  <m_score__min__energy>  (26) 
-9.7300000000000004

>  <m_primary>  (26) 
energy

$$$$
26:0
     RDKit          3D

 27 28  0  0  0  0  0  0  0  0999 V2000
   55.8835   30.4041   43.0066 H   0  0  0  0  0  0  0  0  0  0  0  0
   56.5940   30.6420   43.8120 C   0  0  0  0  0  0  0  0  0  0  0  0
   57.3730   31.8020   43.7350 C   0  0  0  0  0  0  0  0  0  0  0  0
   57.2852   32.4647   42.8614 H   0  0  0  0  0  0  0  0  0  0  0  0
   58.2630   32.1210   44.7660 C   0  0  0  0  0  0  0  0  0  0  0  0
   59.2630   33.6060   44.6630 S   0  0  0  0  0  0  0  0  0  0  0  0
   58.7550   34.2090   46.3030 C   0  0  0  0  0  0  0  0  0  0  0  0
   59.2548   33.6157   47.0828 H   0  0  0  0  0  0  0  0  0  0  0  0
   59.0384   35.2666   46.4088 H   0  0  0  0  0  0  0  0  0  0  0  0
   57.6647   34.1093   46.4088 H   0  0  0  0  0  0  0  0  0  0  0  0
   58.3680   31.2800   45.8790 C   0  0  0  0  0  0  0  0  0  0  0  0
   59.0643   31.5308   46.6928 H   0  0  0  0  0  0  0  0  0  0  0  0
   57.5900   30.1220   45.9590 C   0  0  0  0  0  0  0  0  0  0  0  0
   57.6633   29.4754   46.8459 H   0  0  0  0  0  0  0  0  0  0  0  0
   56.7170   29.7780   44.9180 C   0  0  0  0  0  0  0  0  0  0  0  0
   55.9090   28.5970   45.0570 N   0  0  0  0  0  0  0  0  0  0  0  0
   56.2530   27.4770   45.6210 C   0  0  0  0  0  0  0  0  0  0  0  0
   55.3260   26.5470   45.9810 N   0  0  0  0  0  0  0  0  0  0  0  0
   55.6920   25.3910   46.5350 N   0  0  0  0  0  0  0  0  0  0  0  0
   57.0000   25.0970   46.7550 C   0  0  0  0  0  0  0  0  0  0  0  0
   57.3760   23.7880   47.3780 C   0  0  0  0  0  0  0  0  0  0  0  0
   57.3490   23.8822   48.4736 H   0  0  0  0  0  0  0  0  0  0  0  0
   56.6644   23.0122   47.0590 H   0  0  0  0  0  0  0  0  0  0  0  0
   58.3908   23.5082   47.0590 H   0  0  0  0  0  0  0  0  0  0  0  0
   57.9660   26.0380   46.3780 C   0  0  0  0  0  0  0  0  0  0  0  0
   59.1930   25.8130   46.5510 O   0  0  0  0  0  0  0  0  0  0  0  0
   57.5700   27.2070   45.8150 N   0  0  0  0  0  0  0  0  0  0  0  0
  1  2  1  0
  2  3  2  0
  3  4  1  0
  3  5  1  0
  5  6  1  0
  6  7  1  0
  7  8  1  0
  7  9  1  0
  7 10  1  0
  5 11  2  0
 11 12  1  0
 11 13  1  0
 13 14  1  0
 13 15  2  0
 15 16  1  0
 16 17  2  0
 17 18  1  0
 18 19  1  0
 19 20  2  0
 20 21  1  0
 21 22  1  0
 21 23  1  0
 21 24  1  0
 20 25  1  0
 25 26  2  0
 25 27  1  0
 15  2  1  0
 27 17  1  0
M  CHG  2  18  -1  27  -1
M  END
>  <UniqueID>  (27) 
25

>  <SMILES>  (27) 
CSc1ccc(/N=c2\[n-]nc(C)c(=O)[n-]2)cc1

>  <Energy>  (27) 
31.18247449186682

>  <Genealogy>  (27) 
CSc1ccc(N=c2[n-]nc(C)c(=O)[n-]2)cc1 (protonated)
CSc1ccc(/N=c2\[n-]nc(C)c(=O)[n-]2)cc1 (cis-trans isomerization)
CSc1ccc(/N=c2\[n-]nc(C)c(=O)[n-]2)cc1 (3D coordinates assigned)
CSc1ccc(/N=c2\[n-]nc(C)c(=O)[n-]2)cc1 (optimized conformer: 31.18247449186682 kcal/mol)

>  <smiles>  (27) 
CSc1ccc(N=c2[nH]nc(C)c(=O)[nH]2)cc1

>  <score_type>  (27) 
oracle

>  <origin>  (27) 
adg

>  <m_score__min__energy>  (27) 
-10.029999999999999

>  <m_primary>  (27) 
energy

$$$$
27:0
     RDKit          3D

 59 62  0  0  0  0  0  0  0  0999 V2000
   54.3830   29.4930   52.3220 C   0  0  0  0  0  0  0  0  0  0  0  0
   55.7290   29.1360   52.6160 O   0  0  0  0  0  0  0  0  0  0  0  0
   56.8510   29.8850   52.2300 C   0  0  0  0  0  0  0  0  0  0  0  0
   56.7410   31.1490   51.6180 C   0  0  0  0  0  0  0  0  0  0  0  0
   57.8900   31.8560   51.2520 C   0  0  0  0  0  0  0  0  0  0  0  0
   59.1630   31.3130   51.4720 C   0  0  0  0  0  0  0  0  0  0  0  0
   60.3270   32.0780   51.1120 N   0  0  0  0  0  0  0  0  0  0  0  0
   60.4200   33.5040   51.2220 C   0  0  0  0  0  0  0  0  0  0  0  0
   59.6230   34.1430   51.9620 O   0  0  0  0  0  0  0  0  0  0  0  0
   61.4680   34.1910   50.5330 N   0  0  0  0  0  0  0  0  0  0  0  0
   62.1050   33.7150   49.3400 C   0  0  0  0  0  0  0  0  0  0  0  0
   63.5030   33.7700   49.2670 C   0  0  0  0  0  0  0  0  0  0  0  0
   64.1690   33.3320   48.1210 C   0  0  0  0  0  0  0  0  0  0  0  0
   63.4440   32.8250   47.0430 C   0  0  0  0  0  0  0  0  0  0  0  0
   62.0520   32.7340   47.1180 C   0  0  0  0  0  0  0  0  0  0  0  0
   61.3720   33.1480   48.2690 C   0  0  0  0  0  0  0  0  0  0  0  0
   59.5830   32.9110   48.3690 S   0  0  0  0  0  0  0  0  0  0  0  0
   59.5920   31.1500   47.9690 C   0  0  0  0  0  0  0  0  0  0  0  0
   60.4140   30.3000   48.7290 C   0  0  0  0  0  0  0  0  0  0  0  0
   60.4120   28.9220   48.5150 C   0  0  0  0  0  0  0  0  0  0  0  0
   59.5550   28.3650   47.5680 C   0  0  0  0  0  0  0  0  0  0  0  0
   59.5380   26.6300   47.3110 Cl  0  0  0  0  0  0  0  0  0  0  0  0
   58.6900   29.1870   46.8440 C   0  0  0  0  0  0  0  0  0  0  0  0
   58.6960   30.5780   47.0250 C   0  0  0  0  0  0  0  0  0  0  0  0
   57.7250   31.3110   46.3170 O   0  0  0  0  0  0  0  0  0  0  0  0
   57.7120   31.5390   44.9360 C   0  0  0  0  0  0  0  0  0  0  0  0
   58.2030   32.7660   44.4450 C   0  0  0  0  0  0  0  0  0  0  0  0
   58.6830   33.8260   45.3980 C   0  0  0  0  0  0  0  0  0  0  0  0
   58.2390   32.9990   43.0640 C   0  0  0  0  0  0  0  0  0  0  0  0
   57.7800   32.0290   42.1750 C   0  0  0  0  0  0  0  0  0  0  0  0
   57.2500   30.8330   42.6550 C   0  0  0  0  0  0  0  0  0  0  0  0
   57.1850   30.5800   44.0360 C   0  0  0  0  0  0  0  0  0  0  0  0
   56.5240   29.3430   44.5060 C   0  0  0  0  0  0  0  0  0  0  0  0
   55.1330   29.3340   44.8160 N   0  0  0  0  0  0  0  0  0  0  0  0
   57.1780   28.2680   44.5840 O   0  0  0  0  0  0  0  0  0  0  0  0
   59.2710   30.0610   52.1050 C   0  0  0  0  0  0  0  0  0  0  0  0
   58.1220   29.3530   52.4700 C   0  0  0  0  0  0  0  0  0  0  0  0
   53.8292   29.6399   53.2610 H   0  0  0  0  0  0  0  0  0  0  0  0
   54.3700   30.4256   51.7389 H   0  0  0  0  0  0  0  0  0  0  0  0
   53.9095   28.6894   51.7389 H   0  0  0  0  0  0  0  0  0  0  0  0
   55.7476   31.5812   51.4275 H   0  0  0  0  0  0  0  0  0  0  0  0
   57.7940   32.8482   50.7868 H   0  0  0  0  0  0  0  0  0  0  0  0
   61.1740   31.5650   50.7800 H   0  0  0  0  0  0  0  0  0  0  0  0
   64.0796   34.1609   50.1183 H   0  0  0  0  0  0  0  0  0  0  0  0
   65.2664   33.3868   48.0682 H   0  0  0  0  0  0  0  0  0  0  0  0
   63.9683   32.4967   46.1334 H   0  0  0  0  0  0  0  0  0  0  0  0
   61.4853   32.3333   46.2646 H   0  0  0  0  0  0  0  0  0  0  0  0
   61.0679   30.7277   49.5033 H   0  0  0  0  0  0  0  0  0  0  0  0
   61.0871   28.2746   49.0939 H   0  0  0  0  0  0  0  0  0  0  0  0
   57.9935   28.7375   46.1210 H   0  0  0  0  0  0  0  0  0  0  0  0
   58.5289   33.4858   46.4327 H   0  0  0  0  0  0  0  0  0  0  0  0
   59.7537   34.0132   45.2292 H   0  0  0  0  0  0  0  0  0  0  0  0
   58.1174   34.7542   45.2292 H   0  0  0  0  0  0  0  0  0  0  0  0
   58.6314   33.9520   42.6797 H   0  0  0  0  0  0  0  0  0  0  0  0
   57.8362   32.2080   41.0911 H   0  0  0  0  0  0  0  0  0  0  0  0
   56.8785   30.0789   41.9455 H   0  0  0  0  0  0  0  0  0  0  0  0
   54.8010   29.3320   45.8060 H   0  0  0  0  0  0  0  0  0  0  0  0
   60.2644   29.6372   52.3137 H   0  0  0  0  0  0  0  0  0  0  0  0
   58.2186   28.3682   52.9505 H   0  0  0  0  0  0  0  0  0  0  0  0
  1  2  1  0
  2  3  1  0
  3  4  2  0
  4  5  1  0
  5  6  2  0
  6  7  1  0
  7  8  1  0
  8  9  2  0
  8 10  1  0
 10 11  1  0
 11 12  2  0
 12 13  1  0
 13 14  2  0
 14 15  1  0
 15 16  2  0
 16 17  1  0
 17 18  1  0
 18 19  2  0
 19 20  1  0
 20 21  2  0
 21 22  1  0
 21 23  1  0
 23 24  2  0
 24 25  1  0
 25 26  1  0
 26 27  2  0
 27 28  1  0
 27 29  1  0
 29 30  2  0
 30 31  1  0
 31 32  2  0
 32 33  1  0
 33 34  1  0
 33 35  2  0
  6 36  1  0
 36 37  2  0
 37  3  1  0
 16 11  1  0
 24 18  1  0
 32 26  1  0
  1 38  1  0
  1 39  1  0
  1 40  1  0
  4 41  1  0
  5 42  1  0
  7 43  1  0
 12 44  1  0
 13 45  1  0
 14 46  1  0
 15 47  1  0
 19 48  1  0
 20 49  1  0
 23 50  1  0
 28 51  1  0
 28 52  1  0
 28 53  1  0
 29 54  1  0
 30 55  1  0
 31 56  1  0
 34 57  1  0
 36 58  1  0
 37 59  1  0
M  CHG  2  10  -1  34  -1
M  END
>  <UniqueID>  (28) 
26

>  <SMILES>  (28) 
COc1ccc(NC(=O)[N-]c2ccccc2Sc2ccc(Cl)cc2Oc2c(C)cccc2C([NH-])=O)cc1

>  <Energy>  (28) 
86.48999010214834

>  <Genealogy>  (28) 
COc1ccc(NC(=O)[N-]c2ccccc2Sc2ccc(Cl)cc2Oc2c(C)cccc2C([NH-])=O)cc1 (protonated)
COc1ccc(NC(=O)[N-]c2ccccc2Sc2ccc(Cl)cc2Oc2c(C)cccc2C([NH-])=O)cc1 (3D coordinates assigned)
COc1ccc(NC(=O)[N-]c2ccccc2Sc2ccc(Cl)cc2Oc2c(C)cccc2C([NH-])=O)cc1 (optimized conformer: 86.48999010214834 kcal/mol)

>  <smiles>  (28) 
COc1ccc(NC(=O)Nc2ccccc2Sc2ccc(Cl)cc2Oc2c(C)cccc2C(N)=O)cc1

>  <score_type>  (28) 
oracle

>  <origin>  (28) 
adg

>  <m_score__min__energy>  (28) 
-13.73

>  <m_primary>  (28) 
energy

$$$$
28:0
     RDKit          3D

 49 52  0  0  0  0  0  0  0  0999 V2000
   58.5490   32.4010   48.5230 C   0  0  0  0  0  0  0  0  0  0  0  0
   59.2260   33.7240   48.1820 C   0  0  0  0  0  0  0  0  0  0  0  0
   59.5660   33.7630   46.7390 N   0  0  0  0  0  0  0  0  0  0  0  0
   60.7600   34.5900   46.4520 C   0  0  0  0  0  0  0  0  0  0  0  0
   62.0650   33.7760   46.3550 C   0  0  0  0  0  0  0  0  0  0  0  0
   62.0870   32.7030   47.4010 C   0  0  0  0  0  0  0  0  0  0  0  0
   62.6960   32.8190   48.6620 C   0  0  0  0  0  0  0  0  0  0  0  0
   62.3950   31.3920   49.5780 S   0  0  0  0  0  0  0  0  0  0  0  0
   61.5190   30.7330   48.3120 C   0  0  0  0  0  0  0  0  0  0  0  0
   60.8180   29.6060   48.1460 N   0  0  0  0  0  0  0  0  0  0  0  0
   60.3070   29.7940   46.8890 C   0  0  0  0  0  0  0  0  0  0  0  0
   59.4280   28.8290   46.1870 C   0  0  0  0  0  0  0  0  0  0  0  0
   59.6400   28.5480   44.8240 C   0  0  0  0  0  0  0  0  0  0  0  0
   58.8250   27.6330   44.1510 C   0  0  0  0  0  0  0  0  0  0  0  0
   57.7900   26.9860   44.8300 C   0  0  0  0  0  0  0  0  0  0  0  0
   57.5690   27.2540   46.1830 C   0  0  0  0  0  0  0  0  0  0  0  0
   58.3820   28.1680   46.8600 C   0  0  0  0  0  0  0  0  0  0  0  0
   60.6850   30.9890   46.3420 N   0  0  0  0  0  0  0  0  0  0  0  0
   61.4430   31.5240   47.2760 N   0  0  0  0  0  0  0  0  0  0  0  0
   58.4170   34.1200   45.8780 C   0  0  0  0  0  0  0  0  0  0  0  0
   58.0550   32.9740   44.9740 C   0  0  0  0  0  0  0  0  0  0  0  0
   58.2190   33.0800   43.5820 C   0  0  0  0  0  0  0  0  0  0  0  0
   57.8620   32.0150   42.7500 C   0  0  0  0  0  0  0  0  0  0  0  0
   57.3360   30.8410   43.2990 C   0  0  0  0  0  0  0  0  0  0  0  0
   57.1670   30.7320   44.6820 C   0  0  0  0  0  0  0  0  0  0  0  0
   57.5240   31.7930   45.5170 C   0  0  0  0  0  0  0  0  0  0  0  0
   58.4919   32.2893   49.6158 H   0  0  0  0  0  0  0  0  0  0  0  0
   57.5338   32.3888   48.0996 H   0  0  0  0  0  0  0  0  0  0  0  0
   59.1329   31.5705   48.0996 H   0  0  0  0  0  0  0  0  0  0  0  0
   58.5435   34.5538   48.4179 H   0  0  0  0  0  0  0  0  0  0  0  0
   60.1488   33.8201   48.7730 H   0  0  0  0  0  0  0  0  0  0  0  0
   60.6018   35.1090   45.4951 H   0  0  0  0  0  0  0  0  0  0  0  0
   60.8777   35.2896   47.2927 H   0  0  0  0  0  0  0  0  0  0  0  0
   62.1312   33.3135   45.3591 H   0  0  0  0  0  0  0  0  0  0  0  0
   62.9199   34.4495   46.5149 H   0  0  0  0  0  0  0  0  0  0  0  0
   63.2753   33.6869   49.0102 H   0  0  0  0  0  0  0  0  0  0  0  0
   60.6840   28.8250   48.8240 H   0  0  0  0  0  0  0  0  0  0  0  0
   60.4543   29.0529   44.2836 H   0  0  0  0  0  0  0  0  0  0  0  0
   58.9990   27.4223   43.0855 H   0  0  0  0  0  0  0  0  0  0  0  0
   57.1494   26.2660   44.2997 H   0  0  0  0  0  0  0  0  0  0  0  0
   56.7533   26.7447   46.7171 H   0  0  0  0  0  0  0  0  0  0  0  0
   58.2035   28.3724   47.9260 H   0  0  0  0  0  0  0  0  0  0  0  0
   57.5529   34.3665   46.5125 H   0  0  0  0  0  0  0  0  0  0  0  0
   58.6943   34.9856   45.2585 H   0  0  0  0  0  0  0  0  0  0  0  0
   58.6292   34.0031   43.1464 H   0  0  0  0  0  0  0  0  0  0  0  0
   57.9950   32.1004   41.6614 H   0  0  0  0  0  0  0  0  0  0  0  0
   57.0555   30.0040   42.6426 H   0  0  0  0  0  0  0  0  0  0  0  0
   56.7522   29.8091   45.1135 H   0  0  0  0  0  0  0  0  0  0  0  0
   57.3886   31.7031   46.6049 H   0  0  0  0  0  0  0  0  0  0  0  0
  1  2  1  0
  2  3  1  0
  3  4  1  0
  4  5  1  0
  5  6  1  0
  6  7  2  0
  7  8  1  0
  8  9  1  0
  9 10  2  0
 10 11  1  0
 11 12  1  0
 12 13  2  0
 13 14  1  0
 14 15  2  0
 15 16  1  0
 16 17  2  0
 11 18  2  0
 18 19  1  0
  3 20  1  0
 20 21  1  0
 21 22  2  0
 22 23  1  0
 23 24  2  0
 24 25  1  0
 25 26  2  0
 19  6  1  0
 26 21  1  0
 19  9  1  0
 17 12  1  0
  1 27  1  0
  1 28  1  0
  1 29  1  0
  2 30  1  0
  2 31  1  0
  4 32  1  0
  4 33  1  0
  5 34  1  0
  5 35  1  0
  7 36  1  0
 10 37  1  0
 13 38  1  0
 14 39  1  0
 15 40  1  0
 16 41  1  0
 17 42  1  0
 20 43  1  0
 20 44  1  0
 22 45  1  0
 23 46  1  0
 24 47  1  0
 25 48  1  0
 26 49  1  0
M  CHG  1  10   1
M  END
>  <UniqueID>  (29) 
27

>  <SMILES>  (29) 
CCN(CCc1csc2[nH+]c(-c3ccccc3)nn12)Cc1ccccc1

>  <Energy>  (29) 
139.5420107436554

>  <Genealogy>  (29) 
CCN(CCc1csc2[nH+]c(-c3ccccc3)nn12)Cc1ccccc1 (protonated)
CCN(CCc1csc2[nH+]c(-c3ccccc3)nn12)Cc1ccccc1 (3D coordinates assigned)
CCN(CCc1csc2[nH+]c(-c3ccccc3)nn12)Cc1ccccc1 (optimized conformer: 139.5420107436554 kcal/mol)

>  <smiles>  (29) 
CCN(CCc1csc2nc(-c3ccccc3)nn12)Cc1ccccc1

>  <score_type>  (29) 
oracle

>  <origin>  (29) 
adg

>  <m_score__min__energy>  (29) 
-6.9199999999999999

>  <m_primary>  (29) 
energy

$$$$
29:0
     RDKit          3D

 57 60  0  0  0  0  0  0  0  0999 V2000
   58.6221   27.2517   43.5438 H   0  0  0  0  0  0  0  0  0  0  0  0
   58.7300   28.2270   44.0410 C   0  0  0  0  0  0  0  0  0  0  0  0
   58.5359   29.1540   43.4815 H   0  0  0  0  0  0  0  0  0  0  0  0
   59.0990   28.2860   45.3320 C   0  0  0  0  0  0  0  0  0  0  0  0
   59.2770   29.4520   46.0970 C   0  0  0  0  0  0  0  0  0  0  0  0
   59.3580   30.7450   45.7230 C   0  0  0  0  0  0  0  0  0  0  0  0
   59.1514   30.9837   44.6693 H   0  0  0  0  0  0  0  0  0  0  0  0
   59.7040   31.8670   46.6240 C   0  0  0  0  0  0  0  0  0  0  0  0
   58.8610   32.9740   46.7240 C   0  0  0  0  0  0  0  0  0  0  0  0
   57.6920   33.0480   45.9750 O   0  0  0  0  0  0  0  0  0  0  0  0
   59.1880   33.9970   47.5510 N   0  0  0  0  0  0  0  0  0  0  0  0
   60.3240   33.9780   48.2930 C   0  0  0  0  0  0  0  0  0  0  0  0
   60.5910   34.9750   49.0170 O   0  0  0  0  0  0  0  0  0  0  0  0
   61.1710   32.8980   48.2380 N   0  0  0  0  0  0  0  0  0  0  0  0
   62.4040   32.9000   48.9950 C   0  0  0  0  0  0  0  0  0  0  0  0
   62.5820   33.6050   50.1350 N   0  0  0  0  0  0  0  0  0  0  0  0
   63.8380   33.4640   50.6380 C   0  0  0  0  0  0  0  0  0  0  0  0
   64.2440   34.1620   51.8980 C   0  0  0  0  0  0  0  0  0  0  0  0
   63.9045   33.5782   52.7663 H   0  0  0  0  0  0  0  0  0  0  0  0
   65.3394   34.2588   51.9269 H   0  0  0  0  0  0  0  0  0  0  0  0
   63.7866   35.1620   51.9269 H   0  0  0  0  0  0  0  0  0  0  0  0
   64.6820   32.6370   49.8820 C   0  0  0  0  0  0  0  0  0  0  0  0
   66.0800   32.2620   50.1560 C   0  0  0  0  0  0  0  0  0  0  0  0
   66.3540   31.1500   50.6840 O   0  0  0  0  0  0  0  0  0  0  0  0
   67.1010   33.1580   49.8180 O   0  0  0  0  0  0  0  0  0  0  0  0
   67.8220   33.9280   50.7770 C   0  0  0  0  0  0  0  0  0  0  0  0
   68.5641   34.5513   50.2566 H   0  0  0  0  0  0  0  0  0  0  0  0
   67.1131   34.5629   51.3287 H   0  0  0  0  0  0  0  0  0  0  0  0
   68.5380   33.0160   51.7650 C   0  0  0  0  0  0  0  0  0  0  0  0
   68.2950   33.3255   52.7922 H   0  0  0  0  0  0  0  0  0  0  0  0
   68.2116   31.9773   51.6081 H   0  0  0  0  0  0  0  0  0  0  0  0
   69.6245   33.0866   51.6081 H   0  0  0  0  0  0  0  0  0  0  0  0
   63.8110   32.0850   48.5530 S   0  0  0  0  0  0  0  0  0  0  0  0
   60.8460   31.8250   47.4440 C   0  0  0  0  0  0  0  0  0  0  0  0
   61.5580   30.7820   47.4570 O   0  0  0  0  0  0  0  0  0  0  0  0
   59.4550   29.0370   47.4040 C   0  0  0  0  0  0  0  0  0  0  0  0
   59.5697   29.6822   48.2875 H   0  0  0  0  0  0  0  0  0  0  0  0
   59.4610   27.6580   47.3860 C   0  0  0  0  0  0  0  0  0  0  0  0
   59.7290   26.8010   48.5870 C   0  0  0  0  0  0  0  0  0  0  0  0
   59.5466   27.3842   49.5017 H   0  0  0  0  0  0  0  0  0  0  0  0
   59.0613   25.9270   48.5702 H   0  0  0  0  0  0  0  0  0  0  0  0
   60.7757   26.4631   48.5702 H   0  0  0  0  0  0  0  0  0  0  0  0
   59.2500   27.1950   46.1320 N   0  0  0  0  0  0  0  0  0  0  0  0
   59.2920   25.7760   45.7350 C   0  0  0  0  0  0  0  0  0  0  0  0
   59.7858   25.6884   44.7560 H   0  0  0  0  0  0  0  0  0  0  0  0
   59.8523   25.2105   46.4941 H   0  0  0  0  0  0  0  0  0  0  0  0
   57.8960   25.2130   45.6390 C   0  0  0  0  0  0  0  0  0  0  0  0
   57.6970   23.8590   45.3220 C   0  0  0  0  0  0  0  0  0  0  0  0
   58.5638   23.2046   45.1476 H   0  0  0  0  0  0  0  0  0  0  0  0
   56.4020   23.3390   45.2270 C   0  0  0  0  0  0  0  0  0  0  0  0
   56.2537   22.2783   44.9762 H   0  0  0  0  0  0  0  0  0  0  0  0
   55.2960   24.1640   45.4500 C   0  0  0  0  0  0  0  0  0  0  0  0
   54.2783   23.7542   45.3706 H   0  0  0  0  0  0  0  0  0  0  0  0
   55.4850   25.5100   45.7740 C   0  0  0  0  0  0  0  0  0  0  0  0
   54.3850   26.3300   45.9950 O   0  0  0  0  0  0  0  0  0  0  0  0
   56.7780   26.0330   45.8760 C   0  0  0  0  0  0  0  0  0  0  0  0
   56.9214   27.0905   46.1428 H   0  0  0  0  0  0  0  0  0  0  0  0
  1  2  1  0
  2  3  1  0
  2  4  2  0
  4  5  1  0
  5  6  2  0
  6  7  1  0
  6  8  1  0
  8  9  2  0
  9 10  1  0
  9 11  1  0
 11 12  1  0
 12 13  2  0
 12 14  1  0
 14 15  1  0
 15 16  2  0
 16 17  1  0
 17 18  1  0
 18 19  1  0
 18 20  1  0
 18 21  1  0
 17 22  2  0
 22 23  1  0
 23 24  2  0
 23 25  1  0
 25 26  1  0
 26 27  1  0
 26 28  1  0
 26 29  1  0
 29 30  1  0
 29 31  1  0
 29 32  1  0
 22 33  1  0
 14 34  1  0
 34 35  2  0
  5 36  1  0
 36 37  1  0
 36 38  2  0
 38 39  1  0
 39 40  1  0
 39 41  1  0
 39 42  1  0
 38 43  1  0
 43 44  1  0
 44 45  1  0
 44 46  1  0
 44 47  1  0
 47 48  2  0
 48 49  1  0
 48 50  1  0
 50 51  1  0
 50 52  2  0
 52 53  1  0
 52 54  1  0
 54 55  1  0
 54 56  2  0
 56 57  1  0
 43  4  1  0
 56 47  1  0
 34  8  1  0
 33 15  1  0
M  CHG  3  10  -1  11  -1  55  -1
M  END
>  <UniqueID>  (30) 
28

>  <SMILES>  (30) 
C=c1/c(=C\c2c([O-])[n-]c(=O)n(-c3nc(C)c(C(=O)OCC)s3)c2=O)cc(C)n1Cc1cccc([O-])c1

>  <Energy>  (30) 
135.4236981378605

>  <Genealogy>  (30) 
C=c1c(=Cc2c([O-])[n-]c(=O)n(-c3nc(C)c(C(=O)OCC)s3)c2=O)cc(C)n1Cc1cccc([O-])c1 (protonated)
C=c1/c(=C\c2c([O-])[n-]c(=O)n(-c3nc(C)c(C(=O)OCC)s3)c2=O)cc(C)n1Cc1cccc([O-])c1 (cis-trans isomerization)
C=c1/c(=C\c2c([O-])[n-]c(=O)n(-c3nc(C)c(C(=O)OCC)s3)c2=O)cc(C)n1Cc1cccc([O-])c1 (3D coordinates assigned)
C=c1/c(=C\c2c([O-])[n-]c(=O)n(-c3nc(C)c(C(=O)OCC)s3)c2=O)cc(C)n1Cc1cccc([O-])c1 (optimized conformer: 135.4236981378605 kcal/mol)

>  <smiles>  (30) 
C=c1c(=Cc2c(O)[nH]c(=O)n(-c3nc(C)c(C(=O)OCC)s3)c2=O)cc(C)n1Cc1cccc(O)c1

>  <score_type>  (30) 
oracle

>  <origin>  (30) 
adg

>  <m_score__min__energy>  (30) 
-14.300000000000001

>  <m_primary>  (30) 
energy

$$$$
30:0
     RDKit          3D

 64 67  0  0  0  0  0  0  0  0999 V2000
   53.2950   24.0870   45.1670 C   0  0  0  0  0  0  0  0  0  0  0  0
   54.3150   24.1790   46.1570 O   0  0  0  0  0  0  0  0  0  0  0  0
   55.5020   24.9090   46.0050 C   0  0  0  0  0  0  0  0  0  0  0  0
   56.7020   24.2060   45.8640 C   0  0  0  0  0  0  0  0  0  0  0  0
   57.9150   24.8900   45.7460 C   0  0  0  0  0  0  0  0  0  0  0  0
   57.9510   26.2960   45.7850 C   0  0  0  0  0  0  0  0  0  0  0  0
   59.2120   27.0020   45.7160 N   0  0  0  0  0  0  0  0  0  0  0  0
   60.2800   26.7520   46.6940 C   0  0  0  0  0  0  0  0  0  0  0  0
   60.2920   27.8050   47.7640 C   0  0  0  0  0  0  0  0  0  0  0  0
   60.1020   27.4690   48.9650 O   0  0  0  0  0  0  0  0  0  0  0  0
   60.5500   29.1770   47.4180 N   0  0  0  0  0  0  0  0  0  0  0  0
   60.4350   30.2760   48.3380 C   0  0  0  0  0  0  0  0  0  0  0  0
   61.4010   31.2940   48.3090 C   0  0  0  0  0  0  0  0  0  0  0  0
   61.2980   32.3990   49.1590 C   0  0  0  0  0  0  0  0  0  0  0  0
   60.2100   32.5140   50.0350 C   0  0  0  0  0  0  0  0  0  0  0  0
   60.0830   33.6320   50.8730 C   0  0  0  0  0  0  0  0  0  0  0  0
   58.9820   33.7440   51.7270 C   0  0  0  0  0  0  0  0  0  0  0  0
   58.0090   32.7410   51.7600 C   0  0  0  0  0  0  0  0  0  0  0  0
   58.1250   31.6220   50.9310 C   0  0  0  0  0  0  0  0  0  0  0  0
   59.2220   31.5000   50.0630 C   0  0  0  0  0  0  0  0  0  0  0  0
   59.3380   30.3920   49.2100 C   0  0  0  0  0  0  0  0  0  0  0  0
   59.5200   28.1310   44.4230 S   0  0  0  0  0  0  0  0  0  0  0  0
   60.9590   28.5650   44.4870 O   0  0  0  0  0  0  0  0  0  0  0  0
   59.2630   27.4750   43.0930 O   0  0  0  0  0  0  0  0  0  0  0  0
   58.4500   29.5240   44.5510 C   0  0  0  0  0  0  0  0  0  0  0  0
   57.2810   29.5940   43.7840 C   0  0  0  0  0  0  0  0  0  0  0  0
   56.4320   30.6970   43.9000 C   0  0  0  0  0  0  0  0  0  0  0  0
   56.7420   31.7330   44.7810 C   0  0  0  0  0  0  0  0  0  0  0  0
   57.9150   31.6830   45.5530 C   0  0  0  0  0  0  0  0  0  0  0  0
   58.2190   32.7710   46.5140 C   0  0  0  0  0  0  0  0  0  0  0  0
   57.7830   32.6850   47.6950 O   0  0  0  0  0  0  0  0  0  0  0  0
   59.0190   33.9090   46.1410 N   0  0  0  0  0  0  0  0  0  0  0  0
   59.9670   34.4670   47.1050 C   0  0  0  0  0  0  0  0  0  0  0  0
   58.8430   34.5720   44.8490 C   0  0  0  0  0  0  0  0  0  0  0  0
   58.7590   30.5630   45.4390 C   0  0  0  0  0  0  0  0  0  0  0  0
   56.7390   27.0000   45.8960 C   0  0  0  0  0  0  0  0  0  0  0  0
   55.5260   26.3150   46.0010 C   0  0  0  0  0  0  0  0  0  0  0  0
   52.3146   23.9986   45.6578 H   0  0  0  0  0  0  0  0  0  0  0  0
   53.3107   24.9902   44.5393 H   0  0  0  0  0  0  0  0  0  0  0  0
   53.4721   23.2012   44.5393 H   0  0  0  0  0  0  0  0  0  0  0  0
   56.6915   23.1062   45.8458 H   0  0  0  0  0  0  0  0  0  0  0  0
   58.8500   24.3241   45.6215 H   0  0  0  0  0  0  0  0  0  0  0  0
   60.1174   25.7688   47.1597 H   0  0  0  0  0  0  0  0  0  0  0  0
   61.2464   26.7769   46.1692 H   0  0  0  0  0  0  0  0  0  0  0  0
   60.9460   29.3750   46.4730 H   0  0  0  0  0  0  0  0  0  0  0  0
   62.2476   31.2215   47.6104 H   0  0  0  0  0  0  0  0  0  0  0  0
   62.0725   33.1799   49.1403 H   0  0  0  0  0  0  0  0  0  0  0  0
   60.8499   34.4205   50.8580 H   0  0  0  0  0  0  0  0  0  0  0  0
   58.8808   34.6260   52.3764 H   0  0  0  0  0  0  0  0  0  0  0  0
   57.1496   32.8328   52.4404 H   0  0  0  0  0  0  0  0  0  0  0  0
   57.3561   30.8359   50.9585 H   0  0  0  0  0  0  0  0  0  0  0  0
   58.5656   29.6089   49.2235 H   0  0  0  0  0  0  0  0  0  0  0  0
   57.0307   28.7791   43.0889 H   0  0  0  0  0  0  0  0  0  0  0  0
   55.5153   30.7489   43.2942 H   0  0  0  0  0  0  0  0  0  0  0  0
   56.0640   32.5944   44.8720 H   0  0  0  0  0  0  0  0  0  0  0  0
   59.6156   34.2602   48.1266 H   0  0  0  0  0  0  0  0  0  0  0  0
   60.9548   34.0062   46.9567 H   0  0  0  0  0  0  0  0  0  0  0  0
   60.0436   35.5543   46.9567 H   0  0  0  0  0  0  0  0  0  0  0  0
   58.5639   35.6235   45.0115 H   0  0  0  0  0  0  0  0  0  0  0  0
   59.7845   34.5260   44.2820 H   0  0  0  0  0  0  0  0  0  0  0  0
   58.0483   34.0651   44.2820 H   0  0  0  0  0  0  0  0  0  0  0  0
   59.6699   30.5024   46.0527 H   0  0  0  0  0  0  0  0  0  0  0  0
   56.7460   28.1000   45.9002 H   0  0  0  0  0  0  0  0  0  0  0  0
   54.5847   26.8785   46.0810 H   0  0  0  0  0  0  0  0  0  0  0  0
  1  2  1  0
  2  3  1  0
  3  4  2  0
  4  5  1  0
  5  6  2  0
  6  7  1  0
  7  8  1  0
  8  9  1  0
  9 10  2  0
  9 11  1  0
 11 12  1  0
 12 13  2  0
 13 14  1  0
 14 15  2  0
 15 16  1  0
 16 17  2  0
 17 18  1  0
 18 19  2  0
 19 20  1  0
 20 21  2  0
  7 22  1  0
 22 23  2  0
 22 24  2  0
 22 25  1  0
 25 26  2  0
 26 27  1  0
 27 28  2  0
 28 29  1  0
 29 30  1  0
 30 31  2  0
 30 32  1  0
 32 33  1  0
 32 34  1  0
 29 35  2  0
  6 36  1  0
 36 37  2  0
 37  3  1  0
 21 12  1  0
 35 25  1  0
 20 15  1  0
  1 38  1  0
  1 39  1  0
  1 40  1  0
  4 41  1  0
  5 42  1  0
  8 43  1  0
  8 44  1  0
 11 45  1  0
 13 46  1  0
 14 47  1  0
 16 48  1  0
 17 49  1  0
 18 50  1  0
 19 51  1  0
 21 52  1  0
 26 53  1  0
 27 54  1  0
 28 55  1  0
 33 56  1  0
 33 57  1  0
 33 58  1  0
 34 59  1  0
 34 60  1  0
 34 61  1  0
 35 62  1  0
 36 63  1  0
 37 64  1  0
M  END
>  <UniqueID>  (31) 
29

>  <SMILES>  (31) 
COc1ccc(N(CC(=O)Nc2ccc3ccccc3c2)S(=O)(=O)c2cccc(C(=O)N(C)C)c2)cc1

>  <Energy>  (31) 
77.93258735699382

>  <Genealogy>  (31) 
COc1ccc(N(CC(=O)Nc2ccc3ccccc3c2)S(=O)(=O)c2cccc(C(=O)N(C)C)c2)cc1 (3D coordinates assigned)
COc1ccc(N(CC(=O)Nc2ccc3ccccc3c2)S(=O)(=O)c2cccc(C(=O)N(C)C)c2)cc1 (optimized conformer: 77.93258735699382 kcal/mol)

>  <smiles>  (31) 
COc1ccc(N(CC(=O)Nc2ccc3ccccc3c2)S(=O)(=O)c2cccc(C(=O)N(C)C)c2)cc1

>  <score_type>  (31) 
oracle

>  <origin>  (31) 
adg

>  <m_score__min__energy>  (31) 
-10.44

>  <m_primary>  (31) 
energy

$$$$
31:0
     RDKit          3D

 47 50  0  0  0  0  0  0  0  0999 V2000
   60.0950   28.6500   45.4191 H   0  0  0  0  0  0  0  0  0  0  0  0
   59.0650   28.2850   45.5450 C   0  0  0  0  0  0  0  0  0  0  0  0
   58.0210   29.0270   45.0890 N   0  0  0  0  0  0  0  0  0  0  0  0
   56.7320   28.6120   45.2260 C   0  0  0  0  0  0  0  0  0  0  0  0
   55.4060   29.6470   44.6060 S   0  0  0  0  0  0  0  0  0  0  0  0
   56.5440   30.8490   43.9170 C   0  0  0  0  0  0  0  0  0  0  0  0
   56.9010   30.7920   42.5650 C   0  0  0  0  0  0  0  0  0  0  0  0
   56.4893   30.0011   41.9209 H   0  0  0  0  0  0  0  0  0  0  0  0
   57.7560   31.7130   42.0470 N   0  0  0  0  0  0  0  0  0  0  0  0
   58.2830   32.7080   42.8100 C   0  0  0  0  0  0  0  0  0  0  0  0
   58.9731   33.4380   42.3619 H   0  0  0  0  0  0  0  0  0  0  0  0
   57.9470   32.8030   44.1660 C   0  0  0  0  0  0  0  0  0  0  0  0
   58.6000   34.1380   45.1710 S   0  0  0  0  0  0  0  0  0  0  0  0
   59.0480   33.0180   46.4960 C   0  0  0  0  0  0  0  0  0  0  0  0
   60.1880   32.2170   46.3770 C   0  0  0  0  0  0  0  0  0  0  0  0
   60.8419   32.3203   45.4985 H   0  0  0  0  0  0  0  0  0  0  0  0
   60.4980   31.2870   47.3700 C   0  0  0  0  0  0  0  0  0  0  0  0
   61.3995   30.6640   47.2739 H   0  0  0  0  0  0  0  0  0  0  0  0
   59.6640   31.1420   48.4930 C   0  0  0  0  0  0  0  0  0  0  0  0
   59.9550   30.1170   49.5200 C   0  0  0  0  0  0  0  0  0  0  0  0
   61.1320   29.6840   49.6400 O   0  0  0  0  0  0  0  0  0  0  0  0
   58.9280   29.5610   50.3600 N   0  0  0  0  0  0  0  0  0  0  0  0
   58.2080   30.2150   51.2270 C   0  0  0  0  0  0  0  0  0  0  0  0
   57.0110   29.7270   51.6620 N   0  0  0  0  0  0  0  0  0  0  0  0
   56.2400   30.3990   52.5560 C   0  0  0  0  0  0  0  0  0  0  0  0
   55.2838   29.9694   52.8893 H   0  0  0  0  0  0  0  0  0  0  0  0
   56.6600   31.6340   53.0520 C   0  0  0  0  0  0  0  0  0  0  0  0
   56.0355   32.1849   53.7707 H   0  0  0  0  0  0  0  0  0  0  0  0
   57.8850   32.1660   52.6260 C   0  0  0  0  0  0  0  0  0  0  0  0
   58.3330   33.5140   53.1110 C   0  0  0  0  0  0  0  0  0  0  0  0
   58.3368   33.5253   54.2109 H   0  0  0  0  0  0  0  0  0  0  0  0
   59.3476   33.7190   52.7387 H   0  0  0  0  0  0  0  0  0  0  0  0
   57.6430   34.2856   52.7387 H   0  0  0  0  0  0  0  0  0  0  0  0
   58.6550   31.4580   51.6920 C   0  0  0  0  0  0  0  0  0  0  0  0
   59.6045   31.8765   51.3268 H   0  0  0  0  0  0  0  0  0  0  0  0
   58.5460   31.9830   48.6290 C   0  0  0  0  0  0  0  0  0  0  0  0
   57.9114   31.9095   49.5245 H   0  0  0  0  0  0  0  0  0  0  0  0
   58.2370   32.9120   47.6320 C   0  0  0  0  0  0  0  0  0  0  0  0
   57.3553   33.5608   47.7400 H   0  0  0  0  0  0  0  0  0  0  0  0
   57.0750   31.8620   44.7200 C   0  0  0  0  0  0  0  0  0  0  0  0
   56.8073   31.9185   45.7854 H   0  0  0  0  0  0  0  0  0  0  0  0
   56.4580   27.3840   45.8470 C   0  0  0  0  0  0  0  0  0  0  0  0
   55.1500   26.9350   45.9910 O   0  0  0  0  0  0  0  0  0  0  0  0
   57.5180   26.6090   46.3230 C   0  0  0  0  0  0  0  0  0  0  0  0
   57.3189   25.6455   46.8150 H   0  0  0  0  0  0  0  0  0  0  0  0
   58.8310   27.0600   46.1730 C   0  0  0  0  0  0  0  0  0  0  0  0
   59.6720   26.4567   46.5456 H   0  0  0  0  0  0  0  0  0  0  0  0
  1  2  1  0
  2  3  2  0
  3  4  1  0
  4  5  1  0
  5  6  1  0
  6  7  2  0
  7  8  1  0
  7  9  1  0
  9 10  2  0
 10 11  1  0
 10 12  1  0
 12 13  1  0
 13 14  1  0
 14 15  2  0
 15 16  1  0
 15 17  1  0
 17 18  1  0
 17 19  2  0
 19 20  1  0
 20 21  2  0
 20 22  1  0
 22 23  2  0
 23 24  1  0
 24 25  1  0
 25 26  1  0
 25 27  2  0
 27 28  1  0
 27 29  1  0
 29 30  1  0
 30 31  1  0
 30 32  1  0
 30 33  1  0
 29 34  2  0
 34 35  1  0
 19 36  1  0
 36 37  1  0
 36 38  2  0
 38 39  1  0
 12 40  2  0
 40 41  1  0
  4 42  2  0
 42 43  1  0
 42 44  1  0
 44 45  1  0
 44 46  2  0
 46 47  1  0
 46  2  1  0
 40  6  1  0
 38 14  1  0
 34 23  1  0
M  CHG  2  24  -1  43  -1
M  END
>  <UniqueID>  (32) 
30

>  <SMILES>  (32) 
Cc1cc[n-]/c(=N\C(=O)c2ccc(Sc3cncc(Sc4ncccc4[O-])c3)cc2)c1

>  <Energy>  (32) 
52.22097659231354

>  <Genealogy>  (32) 
Cc1cc[n-]c(=NC(=O)c2ccc(Sc3cncc(Sc4ncccc4[O-])c3)cc2)c1 (protonated)
Cc1cc[n-]/c(=N\C(=O)c2ccc(Sc3cncc(Sc4ncccc4[O-])c3)cc2)c1 (cis-trans isomerization)
Cc1cc[n-]/c(=N\C(=O)c2ccc(Sc3cncc(Sc4ncccc4[O-])c3)cc2)c1 (3D coordinates assigned)
Cc1cc[n-]/c(=N\C(=O)c2ccc(Sc3cncc(Sc4ncccc4[O-])c3)cc2)c1 (optimized conformer: 52.22097659231354 kcal/mol)

>  <smiles>  (32) 
Cc1cc[nH]c(=NC(=O)c2ccc(Sc3cncc(Sc4ncccc4O)c3)cc2)c1

>  <score_type>  (32) 
oracle

>  <origin>  (32) 
adg

>  <m_score__min__energy>  (32) 
-14.66

>  <m_primary>  (32) 
energy

$$$$
32:0
     RDKit          3D

 59 62  0  0  0  0  0  0  0  0999 V2000
   57.5510   25.0350   47.1630 C   0  0  0  0  0  0  0  0  0  0  0  0
   57.7170   26.4240   46.7570 N   0  0  0  0  0  0  0  0  0  0  0  0
   58.7640   27.2110   47.0570 C   0  0  0  0  0  0  0  0  0  0  0  0
   58.5830   28.4280   46.4290 C   0  0  0  0  0  0  0  0  0  0  0  0
   59.4720   29.6020   46.5480 C   0  0  0  0  0  0  0  0  0  0  0  0
   59.6380   30.3600   45.5590 O   0  0  0  0  0  0  0  0  0  0  0  0
   60.0740   29.9570   47.7990 N   0  0  0  0  0  0  0  0  0  0  0  0
   60.8820   31.1180   48.0420 C   0  0  0  0  0  0  0  0  0  0  0  0
   61.8530   31.5270   47.1100 C   0  0  0  0  0  0  0  0  0  0  0  0
   62.6000   32.6850   47.3290 C   0  0  0  0  0  0  0  0  0  0  0  0
   62.3770   33.4560   48.4700 C   0  0  0  0  0  0  0  0  0  0  0  0
   61.4030   33.0730   49.3930 C   0  0  0  0  0  0  0  0  0  0  0  0
   60.6480   31.9070   49.1890 C   0  0  0  0  0  0  0  0  0  0  0  0
   59.6650   31.5260   50.1680 N   0  0  0  0  0  0  0  0  0  0  0  0
   58.7690   32.5190   50.7650 C   0  0  0  0  0  0  0  0  0  0  0  0
   57.3920   31.8860   50.9890 C   0  0  0  0  0  0  0  0  0  0  0  0
   57.5070   30.6780   51.7190 O   0  0  0  0  0  0  0  0  0  0  0  0
   58.2200   29.7200   50.9580 C   0  0  0  0  0  0  0  0  0  0  0  0
   59.6650   30.1720   50.7270 C   0  0  0  0  0  0  0  0  0  0  0  0
   57.3780   28.2970   45.7390 C   0  0  0  0  0  0  0  0  0  0  0  0
   56.7400   29.2720   44.8340 C   0  0  0  0  0  0  0  0  0  0  0  0
   55.4990   29.4800   44.9020 O   0  0  0  0  0  0  0  0  0  0  0  0
   57.5370   30.0150   43.8980 N   0  0  0  0  0  0  0  0  0  0  0  0
   56.9570   30.9810   42.9670 C   0  0  0  0  0  0  0  0  0  0  0  0
   57.7770   32.2680   42.9420 C   0  0  0  0  0  0  0  0  0  0  0  0
   58.7940   32.2090   43.9420 O   0  0  0  0  0  0  0  0  0  0  0  0
   58.7910   32.9740   45.1190 C   0  0  0  0  0  0  0  0  0  0  0  0
   59.6590   34.0700   45.2030 C   0  0  0  0  0  0  0  0  0  0  0  0
   59.6930   34.8600   46.3570 C   0  0  0  0  0  0  0  0  0  0  0  0
   58.8580   34.5600   47.4360 C   0  0  0  0  0  0  0  0  0  0  0  0
   57.9880   33.4690   47.3630 C   0  0  0  0  0  0  0  0  0  0  0  0
   57.9510   32.6770   46.2120 C   0  0  0  0  0  0  0  0  0  0  0  0
   56.8820   27.0620   45.9520 N   0  0  0  0  0  0  0  0  0  0  0  0
   57.5435   24.9724   48.2612 H   0  0  0  0  0  0  0  0  0  0  0  0
   56.6003   24.6484   46.7672 H   0  0  0  0  0  0  0  0  0  0  0  0
   58.3839   24.4353   46.7672 H   0  0  0  0  0  0  0  0  0  0  0  0
   59.6178   26.9340   47.6929 H   0  0  0  0  0  0  0  0  0  0  0  0
   62.0246   30.9298   46.2023 H   0  0  0  0  0  0  0  0  0  0  0  0
   63.3659   32.9904   46.6009 H   0  0  0  0  0  0  0  0  0  0  0  0
   62.9695   34.3667   48.6423 H   0  0  0  0  0  0  0  0  0  0  0  0
   61.2255   33.6891   50.2868 H   0  0  0  0  0  0  0  0  0  0  0  0
   59.1809   32.8539   51.7284 H   0  0  0  0  0  0  0  0  0  0  0  0
   58.6731   33.3826   50.0905 H   0  0  0  0  0  0  0  0  0  0  0  0
   56.7593   32.5884   51.5513 H   0  0  0  0  0  0  0  0  0  0  0  0
   56.9419   31.6650   50.0099 H   0  0  0  0  0  0  0  0  0  0  0  0
   58.2243   28.7617   51.4980 H   0  0  0  0  0  0  0  0  0  0  0  0
   57.7261   29.6082   49.9815 H   0  0  0  0  0  0  0  0  0  0  0  0
   60.2082   30.1693   51.6835 H   0  0  0  0  0  0  0  0  0  0  0  0
   60.1588   29.4836   50.0254 H   0  0  0  0  0  0  0  0  0  0  0  0
   58.5750   29.8970   43.9000 H   0  0  0  0  0  0  0  0  0  0  0  0
   56.9404   30.5441   41.9576 H   0  0  0  0  0  0  0  0  0  0  0  0
   55.9353   31.2198   43.2972 H   0  0  0  0  0  0  0  0  0  0  0  0
   58.2432   32.3856   41.9526 H   0  0  0  0  0  0  0  0  0  0  0  0
   57.1171   33.1248   43.1431 H   0  0  0  0  0  0  0  0  0  0  0  0
   60.3182   34.3111   44.3561 H   0  0  0  0  0  0  0  0  0  0  0  0
   60.3782   35.7186   46.4149 H   0  0  0  0  0  0  0  0  0  0  0  0
   58.8854   35.1823   48.3426 H   0  0  0  0  0  0  0  0  0  0  0  0
   57.3310   33.2330   48.2131 H   0  0  0  0  0  0  0  0  0  0  0  0
   57.2644   31.8192   46.1586 H   0  0  0  0  0  0  0  0  0  0  0  0
  1  2  1  0
  2  3  1  0
  3  4  2  0
  4  5  1  0
  5  6  2  0
  5  7  1  0
  7  8  1  0
  8  9  2  0
  9 10  1  0
 10 11  2  0
 11 12  1  0
 12 13  2  0
 13 14  1  0
 14 15  1  0
 15 16  1  0
 16 17  1  0
 17 18  1  0
 18 19  1  0
  4 20  1  0
 20 21  1  0
 21 22  2  0
 21 23  1  0
 23 24  1  0
 24 25  1  0
 25 26  1  0
 26 27  1  0
 27 28  2  0
 28 29  1  0
 29 30  2  0
 30 31  1  0
 31 32  2  0
 20 33  2  0
 33  2  1  0
 13  8  1  0
 19 14  1  0
 32 27  1  0
  1 34  1  0
  1 35  1  0
  1 36  1  0
  3 37  1  0
  9 38  1  0
 10 39  1  0
 11 40  1  0
 12 41  1  0
 15 42  1  0
 15 43  1  0
 16 44  1  0
 16 45  1  0
 18 46  1  0
 18 47  1  0
 19 48  1  0
 19 49  1  0
 23 50  1  0
 24 51  1  0
 24 52  1  0
 25 53  1  0
 25 54  1  0
 28 55  1  0
 29 56  1  0
 30 57  1  0
 31 58  1  0
 32 59  1  0
M  CHG  1   7  -1
M  END
>  <UniqueID>  (33) 
31

>  <SMILES>  (33) 
Cn1cc(C(=O)[N-]c2ccccc2N2CCOCC2)c(C(=O)NCCOc2ccccc2)n1

>  <Energy>  (33) 
99.53517321492183

>  <Genealogy>  (33) 
Cn1cc(C(=O)[N-]c2ccccc2N2CCOCC2)c(C(=O)NCCOc2ccccc2)n1 (protonated)
Cn1cc(C(=O)[N-]c2ccccc2N2CCOCC2)c(C(=O)NCCOc2ccccc2)n1 (3D coordinates assigned)
Cn1cc(C(=O)[N-]c2ccccc2N2CCOCC2)c(C(=O)NCCOc2ccccc2)n1 (nonaromatic ring conformer: 99.53517321492183 kcal/mol)

>  <smiles>  (33) 
Cn1cc(C(=O)Nc2ccccc2N2CCOCC2)c(C(=O)NCCOc2ccccc2)n1

>  <score_type>  (33) 
oracle

>  <origin>  (33) 
adg

>  <m_score__min__energy>  (33) 
-10.880000000000001

>  <m_primary>  (33) 
energy

$$$$
33:0
     RDKit          3D

 48 50  0  0  0  0  0  0  0  0999 V2000
   64.8660   32.5630   49.7280 C   0  0  0  0  0  0  0  0  0  0  0  0
   63.7700   31.7780   50.1870 O   0  0  0  0  0  0  0  0  0  0  0  0
   62.7300   31.3130   49.3670 C   0  0  0  0  0  0  0  0  0  0  0  0
   62.7840   31.6000   47.9990 C   0  0  0  0  0  0  0  0  0  0  0  0
   61.7720   31.1590   47.1420 C   0  0  0  0  0  0  0  0  0  0  0  0
   60.6850   30.4340   47.6460 C   0  0  0  0  0  0  0  0  0  0  0  0
   59.4010   29.9180   46.5540 S   0  0  0  0  0  0  0  0  0  0  0  0
   58.0730   30.4060   47.0650 O   0  0  0  0  0  0  0  0  0  0  0  0
   59.6450   30.5380   45.2070 O   0  0  0  0  0  0  0  0  0  0  0  0
   59.3380   28.1530   46.3940 C   0  0  0  0  0  0  0  0  0  0  0  0
   60.4060   27.4000   46.9100 C   0  0  0  0  0  0  0  0  0  0  0  0
   60.4540   26.0170   46.7350 C   0  0  0  0  0  0  0  0  0  0  0  0
   59.4390   25.3640   46.0370 C   0  0  0  0  0  0  0  0  0  0  0  0
   58.3640   26.0920   45.5270 C   0  0  0  0  0  0  0  0  0  0  0  0
   58.2860   27.4840   45.7120 C   0  0  0  0  0  0  0  0  0  0  0  0
   57.0930   28.1860   45.1980 C   0  0  0  0  0  0  0  0  0  0  0  0
   55.9530   27.8540   45.6190 O   0  0  0  0  0  0  0  0  0  0  0  0
   57.2520   29.2810   44.2850 N   0  0  0  0  0  0  0  0  0  0  0  0
   56.6560   30.5850   44.3370 C   0  0  0  0  0  0  0  0  0  0  0  0
   55.4090   30.6670   44.4890 O   0  0  0  0  0  0  0  0  0  0  0  0
   57.4550   31.8550   44.2520 C   0  0  0  0  0  0  0  0  0  0  0  0
   56.6840   33.1850   45.2400 S   0  0  0  0  0  0  0  0  0  0  0  0
   58.1760   33.5800   46.1590 C   0  0  0  0  0  0  0  0  0  0  0  0
   58.2260   33.3780   47.5430 C   0  0  0  0  0  0  0  0  0  0  0  0
   59.3920   33.6820   48.2540 C   0  0  0  0  0  0  0  0  0  0  0  0
   60.5110   34.1860   47.5810 C   0  0  0  0  0  0  0  0  0  0  0  0
   60.4590   34.3960   46.1990 C   0  0  0  0  0  0  0  0  0  0  0  0
   59.2910   34.1000   45.4900 C   0  0  0  0  0  0  0  0  0  0  0  0
   60.6310   30.1340   49.0140 C   0  0  0  0  0  0  0  0  0  0  0  0
   61.6440   30.5730   49.8720 C   0  0  0  0  0  0  0  0  0  0  0  0
   65.4199   32.9597   50.5916 H   0  0  0  0  0  0  0  0  0  0  0  0
   65.5353   31.9376   49.1189 H   0  0  0  0  0  0  0  0  0  0  0  0
   64.4893   33.3980   49.1189 H   0  0  0  0  0  0  0  0  0  0  0  0
   63.6290   32.1769   47.5949 H   0  0  0  0  0  0  0  0  0  0  0  0
   61.8295   31.3824   46.0665 H   0  0  0  0  0  0  0  0  0  0  0  0
   61.2137   27.9070   47.4583 H   0  0  0  0  0  0  0  0  0  0  0  0
   61.2945   25.4403   47.1486 H   0  0  0  0  0  0  0  0  0  0  0  0
   59.4859   24.2751   45.8885 H   0  0  0  0  0  0  0  0  0  0  0  0
   57.5683   25.5715   44.9739 H   0  0  0  0  0  0  0  0  0  0  0  0
   58.4698   31.6671   44.6325 H   0  0  0  0  0  0  0  0  0  0  0  0
   57.4895   32.1762   43.2005 H   0  0  0  0  0  0  0  0  0  0  0  0
   57.3477   32.9798   48.0723 H   0  0  0  0  0  0  0  0  0  0  0  0
   59.4293   33.5249   49.3421 H   0  0  0  0  0  0  0  0  0  0  0  0
   61.4307   34.4168   48.1385 H   0  0  0  0  0  0  0  0  0  0  0  0
   61.3374   34.7942   45.6699 H   0  0  0  0  0  0  0  0  0  0  0  0
   59.2477   34.2758   44.4050 H   0  0  0  0  0  0  0  0  0  0  0  0
   59.7885   29.5509   49.4142 H   0  0  0  0  0  0  0  0  0  0  0  0
   61.5922   30.3393   50.9456 H   0  0  0  0  0  0  0  0  0  0  0  0
  1  2  1  0
  2  3  1  0
  3  4  2  0
  4  5  1  0
  5  6  2  0
  6  7  1  0
  7  8  2  0
  7  9  2  0
  7 10  1  0
 10 11  2  0
 11 12  1  0
 12 13  2  0
 13 14  1  0
 14 15  2  0
 15 16  1  0
 16 17  2  0
 16 18  1  0
 18 19  1  0
 19 20  2  0
 19 21  1  0
 21 22  1  0
 22 23  1  0
 23 24  2  0
 24 25  1  0
 25 26  2  0
 26 27  1  0
 27 28  2  0
  6 29  1  0
 29 30  2  0
 30  3  1  0
 15 10  1  0
 28 23  1  0
  1 31  1  0
  1 32  1  0
  1 33  1  0
  4 34  1  0
  5 35  1  0
 11 36  1  0
 12 37  1  0
 13 38  1  0
 14 39  1  0
 21 40  1  0
 21 41  1  0
 24 42  1  0
 25 43  1  0
 26 44  1  0
 27 45  1  0
 28 46  1  0
 29 47  1  0
 30 48  1  0
M  CHG  1  18  -1
M  END
>  <UniqueID>  (34) 
32

>  <SMILES>  (34) 
COc1ccc(S(=O)(=O)c2ccccc2C(=O)[N-]C(=O)CSc2ccccc2)cc1

>  <Energy>  (34) 
52.80250008744772

>  <Genealogy>  (34) 
COc1ccc(S(=O)(=O)c2ccccc2C(=O)[N-]C(=O)CSc2ccccc2)cc1 (protonated)
COc1ccc(S(=O)(=O)c2ccccc2C(=O)[N-]C(=O)CSc2ccccc2)cc1 (3D coordinates assigned)
COc1ccc(S(=O)(=O)c2ccccc2C(=O)[N-]C(=O)CSc2ccccc2)cc1 (optimized conformer: 52.80250008744772 kcal/mol)

>  <smiles>  (34) 
COc1ccc(S(=O)(=O)c2ccccc2C(=O)NC(=O)CSc2ccccc2)cc1

>  <score_type>  (34) 
oracle

>  <origin>  (34) 
adg

>  <m_score__min__energy>  (34) 
-11.369999999999999

>  <m_primary>  (34) 
energy

$$$$
34:0
     RDKit          3D

 47 49  0  0  0  0  0  0  0  0999 V2000
   62.6475   33.7606   45.3205 H   0  0  0  0  0  0  0  0  0  0  0  0
   62.3320   33.8300   46.3720 C   0  0  0  0  0  0  0  0  0  0  0  0
   63.2530   33.5830   47.3930 C   0  0  0  0  0  0  0  0  0  0  0  0
   64.2909   33.3227   47.1379 H   0  0  0  0  0  0  0  0  0  0  0  0
   62.8700   33.6630   48.7370 C   0  0  0  0  0  0  0  0  0  0  0  0
   63.8410   33.4050   49.7190 O   0  0  0  0  0  0  0  0  0  0  0  0
   64.7790   32.3290   49.7000 C   0  0  0  0  0  0  0  0  0  0  0  0
   64.8327   31.9150   48.6823 H   0  0  0  0  0  0  0  0  0  0  0  0
   64.4456   31.5573   50.4095 H   0  0  0  0  0  0  0  0  0  0  0  0
   66.1630   32.8120   50.1170 C   0  0  0  0  0  0  0  0  0  0  0  0
   66.2281   32.8347   51.2148 H   0  0  0  0  0  0  0  0  0  0  0  0
   66.9259   32.1270   49.7186 H   0  0  0  0  0  0  0  0  0  0  0  0
   66.3340   33.8229   49.7186 H   0  0  0  0  0  0  0  0  0  0  0  0
   61.5400   34.0040   49.0490 C   0  0  0  0  0  0  0  0  0  0  0  0
   61.2248   34.0749   50.1005 H   0  0  0  0  0  0  0  0  0  0  0  0
   60.6180   34.2530   48.0270 C   0  0  0  0  0  0  0  0  0  0  0  0
   59.5812   34.5187   48.2809 H   0  0  0  0  0  0  0  0  0  0  0  0
   61.0030   34.1670   46.6840 C   0  0  0  0  0  0  0  0  0  0  0  0
   60.0230   34.4300   45.6710 N   0  0  0  0  0  0  0  0  0  0  0  0
   58.3600   33.9410   45.7390 S   0  0  0  0  0  0  0  0  0  0  0  0
   57.5790   34.6560   44.6730 O   0  0  0  0  0  0  0  0  0  0  0  0
   57.8050   34.2720   47.0960 O   0  0  0  0  0  0  0  0  0  0  0  0
   58.2350   32.2060   45.4740 C   0  0  0  0  0  0  0  0  0  0  0  0
   57.5990   31.7020   44.3310 C   0  0  0  0  0  0  0  0  0  0  0  0
   57.1771   32.3949   43.5881 H   0  0  0  0  0  0  0  0  0  0  0  0
   57.4990   30.3220   44.1320 C   0  0  0  0  0  0  0  0  0  0  0  0
   57.0049   29.9359   43.2282 H   0  0  0  0  0  0  0  0  0  0  0  0
   58.0250   29.4220   45.0780 C   0  0  0  0  0  0  0  0  0  0  0  0
   57.9160   27.9590   44.8720 C   0  0  0  0  0  0  0  0  0  0  0  0
   58.3420   27.4430   43.8020 O   0  0  0  0  0  0  0  0  0  0  0  0
   57.3260   27.1330   45.8900 N   0  0  0  0  0  0  0  0  0  0  0  0
   56.4470   26.1990   45.6840 C   0  0  0  0  0  0  0  0  0  0  0  0
   55.1460   26.3320   46.0000 N   0  0  0  0  0  0  0  0  0  0  0  0
   54.5700   25.1920   45.6460 N   0  0  0  0  0  0  0  0  0  0  0  0
   55.5460   24.4150   45.1360 C   0  0  0  0  0  0  0  0  0  0  0  0
   55.3270   23.0410   44.5890 C   0  0  0  0  0  0  0  0  0  0  0  0
   55.6106   22.2993   45.3502 H   0  0  0  0  0  0  0  0  0  0  0  0
   54.2648   22.9288   44.3260 H   0  0  0  0  0  0  0  0  0  0  0  0
   56.1690   22.8220   43.3380 C   0  0  0  0  0  0  0  0  0  0  0  0
   57.1956   22.5550   43.6291 H   0  0  0  0  0  0  0  0  0  0  0  0
   55.7335   22.0072   42.7409 H   0  0  0  0  0  0  0  0  0  0  0  0
   56.1857   23.7457   42.7409 H   0  0  0  0  0  0  0  0  0  0  0  0
   56.7050   25.0300   45.1490 O   0  0  0  0  0  0  0  0  0  0  0  0
   58.6550   29.9370   46.2260 C   0  0  0  0  0  0  0  0  0  0  0  0
   59.0705   29.2479   46.9760 H   0  0  0  0  0  0  0  0  0  0  0  0
   58.7570   31.3180   46.4210 C   0  0  0  0  0  0  0  0  0  0  0  0
   59.2501   31.7082   47.3235 H   0  0  0  0  0  0  0  0  0  0  0  0
  1  2  1  0
  2  3  2  0
  3  4  1  0
  3  5  1  0
  5  6  1  0
  6  7  1  0
  7  8  1  0
  7  9  1  0
  7 10  1  0
 10 11  1  0
 10 12  1  0
 10 13  1  0
  5 14  2  0
 14 15  1  0
 14 16  1  0
 16 17  1  0
 16 18  2  0
 18 19  1  0
 19 20  1  0
 20 21  2  0
 20 22  2  0
 20 23  1  0
 23 24  2  0
 24 25  1  0
 24 26  1  0
 26 27  1  0
 26 28  2  0
 28 29  1  0
 29 30  2  0
 29 31  1  0
 31 32  2  0
 32 33  1  0
 33 34  1  0
 34 35  2  0
 35 36  1  0
 36 37  1  0
 36 38  1  0
 36 39  1  0
 39 40  1  0
 39 41  1  0
 39 42  1  0
 35 43  1  0
 28 44  1  0
 44 45  1  0
 44 46  2  0
 46 47  1  0
 18  2  1  0
 46 23  1  0
 43 32  1  0
M  CHG  2  19  -1  33  -1
M  END
>  <UniqueID>  (35) 
33

>  <SMILES>  (35) 
CCOc1ccc([N-]S(=O)(=O)c2ccc(C(=O)/N=c3/[n-]nc(CC)o3)cc2)cc1

>  <Energy>  (35) 
84.4153434642425

>  <Genealogy>  (35) 
CCOc1ccc([N-]S(=O)(=O)c2ccc(C(=O)N=c3[n-]nc(CC)o3)cc2)cc1 (protonated)
CCOc1ccc([N-]S(=O)(=O)c2ccc(C(=O)/N=c3/[n-]nc(CC)o3)cc2)cc1 (cis-trans isomerization)
CCOc1ccc([N-]S(=O)(=O)c2ccc(C(=O)/N=c3/[n-]nc(CC)o3)cc2)cc1 (3D coordinates assigned)
CCOc1ccc([N-]S(=O)(=O)c2ccc(C(=O)/N=c3/[n-]nc(CC)o3)cc2)cc1 (optimized conformer: 84.4153434642425 kcal/mol)

>  <smiles>  (35) 
CCOc1ccc(NS(=O)(=O)c2ccc(C(=O)N=c3[nH]nc(CC)o3)cc2)cc1

>  <score_type>  (35) 
oracle

>  <origin>  (35) 
adg

>  <m_score__min__energy>  (35) 
-11.4

>  <m_primary>  (35) 
energy

$$$$
35:0
     RDKit          3D

 46 49  0  0  0  0  0  0  0  0999 V2000
   57.9689   32.5074   41.7817 H   0  0  0  0  0  0  0  0  0  0  0  0
   57.8380   32.3470   42.8620 C   0  0  0  0  0  0  0  0  0  0  0  0
   57.3020   31.1850   43.3170 N   0  0  0  0  0  0  0  0  0  0  0  0
   57.1220   30.9680   44.6510 C   0  0  0  0  0  0  0  0  0  0  0  0
   56.6310   29.8480   45.0920 N   0  0  0  0  0  0  0  0  0  0  0  0
   57.0820   28.5250   44.7600 C   0  0  0  0  0  0  0  0  0  0  0  0
   56.7870   27.4730   45.6330 C   0  0  0  0  0  0  0  0  0  0  0  0
   56.2276   27.6676   46.5599 H   0  0  0  0  0  0  0  0  0  0  0  0
   57.2050   26.1690   45.3260 C   0  0  0  0  0  0  0  0  0  0  0  0
   56.8660   25.0210   46.2430 C   0  0  0  0  0  0  0  0  0  0  0  0
   55.4940   24.8460   46.3190 F   0  0  0  0  0  0  0  0  0  0  0  0
   57.3420   25.2580   47.5200 F   0  0  0  0  0  0  0  0  0  0  0  0
   57.4410   23.8630   45.7550 F   0  0  0  0  0  0  0  0  0  0  0  0
   57.8610   25.9390   44.1080 C   0  0  0  0  0  0  0  0  0  0  0  0
   58.1772   24.9216   43.8345 H   0  0  0  0  0  0  0  0  0  0  0  0
   58.1110   27.0070   43.2440 C   0  0  0  0  0  0  0  0  0  0  0  0
   58.6288   26.8297   42.2898 H   0  0  0  0  0  0  0  0  0  0  0  0
   57.7170   28.2660   43.5770 N   0  0  0  0  0  0  0  0  0  0  0  0
   57.8750   29.0280   42.8820 H   0  0  0  0  0  0  0  0  0  0  0  0
   57.5030   31.9210   45.5410 N   0  0  0  0  0  0  0  0  0  0  0  0
   58.0540   33.0970   45.1310 C   0  0  0  0  0  0  0  0  0  0  0  0
   58.4220   34.0860   46.0510 O   0  0  0  0  0  0  0  0  0  0  0  0
   59.4980   33.9970   46.9470 C   0  0  0  0  0  0  0  0  0  0  0  0
   59.2750   34.3250   48.2910 C   0  0  0  0  0  0  0  0  0  0  0  0
   58.2719   34.6381   48.6162 H   0  0  0  0  0  0  0  0  0  0  0  0
   60.3150   34.2580   49.2220 C   0  0  0  0  0  0  0  0  0  0  0  0
   60.1255   34.5068   50.2766 H   0  0  0  0  0  0  0  0  0  0  0  0
   61.5960   33.8750   48.8140 C   0  0  0  0  0  0  0  0  0  0  0  0
   62.6090   33.8110   49.7180 N   0  0  0  0  0  0  0  0  0  0  0  0
   63.8740   33.4520   49.3630 C   0  0  0  0  0  0  0  0  0  0  0  0
   64.9230   33.4020   50.3960 C   0  0  0  0  0  0  0  0  0  0  0  0
   64.7050   33.8580   51.5530 O   0  0  0  0  0  0  0  0  0  0  0  0
   66.1660   32.8420   50.0830 O   0  0  0  0  0  0  0  0  0  0  0  0
   66.6620   31.6680   50.7160 C   0  0  0  0  0  0  0  0  0  0  0  0
   66.6103   31.7905   51.8079 H   0  0  0  0  0  0  0  0  0  0  0  0
   66.0522   30.8035   50.4147 H   0  0  0  0  0  0  0  0  0  0  0  0
   67.7069   31.5026   50.4147 H   0  0  0  0  0  0  0  0  0  0  0  0
   64.1550   33.1380   48.0230 C   0  0  0  0  0  0  0  0  0  0  0  0
   65.1730   32.8475   47.7243 H   0  0  0  0  0  0  0  0  0  0  0  0
   63.1330   33.1970   47.0720 C   0  0  0  0  0  0  0  0  0  0  0  0
   63.3449   32.9554   46.0200 H   0  0  0  0  0  0  0  0  0  0  0  0
   61.8390   33.5640   47.4600 C   0  0  0  0  0  0  0  0  0  0  0  0
   60.7910   33.6330   46.5300 C   0  0  0  0  0  0  0  0  0  0  0  0
   60.9810   33.4017   45.4715 H   0  0  0  0  0  0  0  0  0  0  0  0
   58.2220   33.3360   43.7660 C   0  0  0  0  0  0  0  0  0  0  0  0
   58.6488   34.2856   43.4110 H   0  0  0  0  0  0  0  0  0  0  0  0
  1  2  1  0
  2  3  1  0
  3  4  1  0
  4  5  2  0
  5  6  1  0
  6  7  2  0
  7  8  1  0
  7  9  1  0
  9 10  1  0
 10 11  1  0
 10 12  1  0
 10 13  1  0
  9 14  2  0
 14 15  1  0
 14 16  1  0
 16 17  1  0
 16 18  2  0
 18 19  1  0
  4 20  1  0
 20 21  2  0
 21 22  1  0
 22 23  1  0
 23 24  2  0
 24 25  1  0
 24 26  1  0
 26 27  1  0
 26 28  2  0
 28 29  1  0
 29 30  2  0
 30 31  1  0
 31 32  2  0
 31 33  1  0
 33 34  1  0
 34 35  1  0
 34 36  1  0
 34 37  1  0
 30 38  1  0
 38 39  1  0
 38 40  2  0
 40 41  1  0
 40 42  1  0
 42 43  2  0
 43 44  1  0
 21 45  1  0
 45 46  1  0
 45  2  2  0
 18  6  1  0
 43 23  1  0
 42 28  1  0
M  CHG  2   3  -1  18   1
M  END
>  <UniqueID>  (36) 
34

>  <SMILES>  (36) 
COC(=O)c1ccc2cc(Oc3cc[n-]/c(=N\c4cc(C(F)(F)F)cc[nH+]4)n3)ccc2n1

>  <Energy>  (36) 
63.425834644675504

>  <Genealogy>  (36) 
COC(=O)c1ccc2cc(Oc3cc[n-]c(=Nc4cc(C(F)(F)F)cc[nH+]4)n3)ccc2n1 (protonated)
COC(=O)c1ccc2cc(Oc3cc[n-]/c(=N\c4cc(C(F)(F)F)cc[nH+]4)n3)ccc2n1 (cis-trans isomerization)
COC(=O)c1ccc2cc(Oc3cc[n-]/c(=N\c4cc(C(F)(F)F)cc[nH+]4)n3)ccc2n1 (3D coordinates assigned)
COC(=O)c1ccc2cc(Oc3cc[n-]/c(=N\c4cc(C(F)(F)F)cc[nH+]4)n3)ccc2n1 (optimized conformer: 63.425834644675504 kcal/mol)

>  <smiles>  (36) 
COC(=O)c1ccc2cc(Oc3cc[nH]c(=Nc4cc(C(F)(F)F)ccn4)n3)ccc2n1

>  <score_type>  (36) 
oracle

>  <origin>  (36) 
adg

>  <m_score__min__energy>  (36) 
-8.2300000000000004

>  <m_primary>  (36) 
energy

$$$$
36:0
     RDKit          3D

 38 39  0  0  0  0  0  0  0  0999 V2000
   55.1490   26.6850   45.9850 N   0  0  0  0  0  0  0  0  0  0  0  0
   56.2560   25.9940   46.5600 C   0  0  0  0  0  0  0  0  0  0  0  0
   56.0410   24.9420   47.2210 O   0  0  0  0  0  0  0  0  0  0  0  0
   57.6480   26.4750   46.3630 C   0  0  0  0  0  0  0  0  0  0  0  0
   58.7110   25.5700   46.5440 C   0  0  0  0  0  0  0  0  0  0  0  0
   60.0320   25.9710   46.3410 C   0  0  0  0  0  0  0  0  0  0  0  0
   60.3140   27.2830   45.9670 C   0  0  0  0  0  0  0  0  0  0  0  0
   59.2770   28.2000   45.8000 C   0  0  0  0  0  0  0  0  0  0  0  0
   57.9380   27.8070   45.9740 C   0  0  0  0  0  0  0  0  0  0  0  0
   56.8890   28.7820   45.8970 N   0  0  0  0  0  0  0  0  0  0  0  0
   56.2900   29.3070   44.7060 C   0  0  0  0  0  0  0  0  0  0  0  0
   55.0330   29.3560   44.6320 O   0  0  0  0  0  0  0  0  0  0  0  0
   57.1000   29.6540   43.4910 C   0  0  0  0  0  0  0  0  0  0  0  0
   58.0160   30.7450   43.8060 N   0  0  0  0  0  0  0  0  0  0  0  0
   57.8680   31.6510   44.9070 C   0  0  0  0  0  0  0  0  0  0  0  0
   56.7100   32.0400   45.2150 O   0  0  0  0  0  0  0  0  0  0  0  0
   59.0230   32.1100   45.7110 C   0  0  0  0  0  0  0  0  0  0  0  0
   59.7790   31.1850   46.4510 C   0  0  0  0  0  0  0  0  0  0  0  0
   60.8800   31.6090   47.2010 C   0  0  0  0  0  0  0  0  0  0  0  0
   61.2550   32.9590   47.2010 C   0  0  0  0  0  0  0  0  0  0  0  0
   62.6430   33.5030   48.1390 S   0  0  0  0  0  0  0  0  0  0  0  0
   62.1130   34.5590   49.3990 N   0  0  0  0  0  0  0  0  0  0  0  0
   63.6010   34.2330   47.2410 O   0  0  0  0  0  0  0  0  0  0  0  0
   63.3520   32.3230   48.7420 O   0  0  0  0  0  0  0  0  0  0  0  0
   60.5180   33.8810   46.4500 C   0  0  0  0  0  0  0  0  0  0  0  0
   59.4170   33.4590   45.6990 C   0  0  0  0  0  0  0  0  0  0  0  0
   55.2760   27.3060   45.1540 H   0  0  0  0  0  0  0  0  0  0  0  0
   58.4978   24.5348   46.8490 H   0  0  0  0  0  0  0  0  0  0  0  0
   60.8518   25.2502   46.4765 H   0  0  0  0  0  0  0  0  0  0  0  0
   61.3558   27.5958   45.8033 H   0  0  0  0  0  0  0  0  0  0  0  0
   59.5085   29.2408   45.5296 H   0  0  0  0  0  0  0  0  0  0  0  0
   57.6764   28.7731   43.1720 H   0  0  0  0  0  0  0  0  0  0  0  0
   56.4253   29.9672   42.6806 H   0  0  0  0  0  0  0  0  0  0  0  0
   59.5027   30.1203   46.4401 H   0  0  0  0  0  0  0  0  0  0  0  0
   61.4536   30.8806   47.7929 H   0  0  0  0  0  0  0  0  0  0  0  0
   62.9190   34.6800   50.0510 H   0  0  0  0  0  0  0  0  0  0  0  0
   60.8061   34.9426   46.4505 H   0  0  0  0  0  0  0  0  0  0  0  0
   58.8557   34.1871   45.0951 H   0  0  0  0  0  0  0  0  0  0  0  0
  1  2  1  0
  2  3  2  0
  2  4  1  0
  4  5  2  0
  5  6  1  0
  6  7  2  0
  7  8  1  0
  8  9  2  0
  9 10  1  0
 10 11  1  0
 11 12  2  0
 11 13  1  0
 13 14  1  0
 14 15  1  0
 15 16  2  0
 15 17  1  0
 17 18  2  0
 18 19  1  0
 19 20  2  0
 20 21  1  0
 21 22  1  0
 21 23  2  0
 21 24  2  0
 20 25  1  0
 25 26  2  0
  9  4  1  0
 26 17  1  0
  1 27  1  0
  5 28  1  0
  6 29  1  0
  7 30  1  0
  8 31  1  0
 13 32  1  0
 13 33  1  0
 18 34  1  0
 19 35  1  0
 22 36  1  0
 25 37  1  0
 26 38  1  0
M  CHG  4   1  -1  10  -1  14  -1  22  -1
M  END
>  <UniqueID>  (37) 
35

>  <SMILES>  (37) 
[NH-]C(=O)c1ccccc1[N-]C(=O)C[N-]C(=O)c1ccc(S([NH-])(=O)=O)cc1

>  <Energy>  (37) 
45.919082734256925

>  <Genealogy>  (37) 
[NH-]C(=O)c1ccccc1[N-]C(=O)C[N-]C(=O)c1ccc(S([NH-])(=O)=O)cc1 (protonated)
[NH-]C(=O)c1ccccc1[N-]C(=O)C[N-]C(=O)c1ccc(S([NH-])(=O)=O)cc1 (3D coordinates assigned)
[NH-]C(=O)c1ccccc1[N-]C(=O)C[N-]C(=O)c1ccc(S([NH-])(=O)=O)cc1 (optimized conformer: 45.919082734256925 kcal/mol)

>  <smiles>  (37) 
NC(=O)c1ccccc1NC(=O)CNC(=O)c1ccc(S(N)(=O)=O)cc1

>  <score_type>  (37) 
oracle

>  <origin>  (37) 
adg

>  <m_score__min__energy>  (37) 
-16.899999999999999

>  <m_primary>  (37) 
energy

$$$$
37:0
     RDKit          3D

 42 44  0  0  0  0  0  0  0  0999 V2000
   55.9910   28.5670   45.2630 O   0  0  0  0  0  0  0  0  0  0  0  0
   57.0260   28.4330   45.9700 C   0  0  0  0  0  0  0  0  0  0  0  0
   57.2750   27.1440   46.6890 C   0  0  0  0  0  0  0  0  0  0  0  0
   56.8490   26.0240   45.8510 N   0  0  0  0  0  0  0  0  0  0  0  0
   55.5900   25.6360   45.5970 C   0  0  0  0  0  0  0  0  0  0  0  0
   54.4540   26.3350   45.9880 O   0  0  0  0  0  0  0  0  0  0  0  0
   55.6160   24.4250   44.9420 C   0  0  0  0  0  0  0  0  0  0  0  0
   54.4320   23.5620   44.6400 C   0  0  0  0  0  0  0  0  0  0  0  0
   53.9550   22.9220   45.9050 C   0  0  0  0  0  0  0  0  0  0  0  0
   53.2310   21.8910   45.8460 O   0  0  0  0  0  0  0  0  0  0  0  0
   54.3400   23.4690   47.1760 N   0  0  0  0  0  0  0  0  0  0  0  0
   54.3310   22.7240   48.4050 C   0  0  0  0  0  0  0  0  0  0  0  0
   53.1380   22.5000   49.1170 C   0  0  0  0  0  0  0  0  0  0  0  0
   53.1530   21.7620   50.3040 C   0  0  0  0  0  0  0  0  0  0  0  0
   54.3530   21.2300   50.7840 C   0  0  0  0  0  0  0  0  0  0  0  0
   54.3650   20.5090   51.9320 F   0  0  0  0  0  0  0  0  0  0  0  0
   55.5370   21.4220   50.0660 C   0  0  0  0  0  0  0  0  0  0  0  0
   55.5260   22.1580   48.8780 C   0  0  0  0  0  0  0  0  0  0  0  0
   56.8970   24.0180   44.8060 N   0  0  0  0  0  0  0  0  0  0  0  0
   57.6110   25.0190   45.3680 C   0  0  0  0  0  0  0  0  0  0  0  0
   58.8670   24.9930   45.4620 O   0  0  0  0  0  0  0  0  0  0  0  0
   57.9520   29.5150   46.1280 N   0  0  0  0  0  0  0  0  0  0  0  0
   57.9210   30.7760   45.4430 C   0  0  0  0  0  0  0  0  0  0  0  0
   57.8020   30.8580   44.0420 C   0  0  0  0  0  0  0  0  0  0  0  0
   57.7880   32.1050   43.4110 C   0  0  0  0  0  0  0  0  0  0  0  0
   57.9040   33.2750   44.1650 C   0  0  0  0  0  0  0  0  0  0  0  0
   58.0530   33.1990   45.5520 C   0  0  0  0  0  0  0  0  0  0  0  0
   58.0730   31.9540   46.1880 C   0  0  0  0  0  0  0  0  0  0  0  0
   58.2290   31.8930   47.5350 F   0  0  0  0  0  0  0  0  0  0  0  0
   58.3486   27.0490   46.9088 H   0  0  0  0  0  0  0  0  0  0  0  0
   56.7041   27.1343   47.6292 H   0  0  0  0  0  0  0  0  0  0  0  0
   53.6269   24.1781   44.2130 H   0  0  0  0  0  0  0  0  0  0  0  0
   54.7165   22.7839   43.9164 H   0  0  0  0  0  0  0  0  0  0  0  0
   54.6100   24.4780   47.2130 H   0  0  0  0  0  0  0  0  0  0  0  0
   52.1893   22.9076   48.7377 H   0  0  0  0  0  0  0  0  0  0  0  0
   52.2187   21.5996   50.8614 H   0  0  0  0  0  0  0  0  0  0  0  0
   56.4794   20.9928   50.4369 H   0  0  0  0  0  0  0  0  0  0  0  0
   56.4583   22.2947   48.3104 H   0  0  0  0  0  0  0  0  0  0  0  0
   57.7199   29.9389   43.4433 H   0  0  0  0  0  0  0  0  0  0  0  0
   57.6853   32.1652   42.3175 H   0  0  0  0  0  0  0  0  0  0  0  0
   57.8781   34.2555   43.6671 H   0  0  0  0  0  0  0  0  0  0  0  0
   58.1547   34.1201   46.1447 H   0  0  0  0  0  0  0  0  0  0  0  0
  1  2  2  0
  2  3  1  0
  3  4  1  0
  4  5  1  0
  5  6  1  0
  5  7  2  0
  7  8  1  0
  8  9  1  0
  9 10  2  0
  9 11  1  0
 11 12  1  0
 12 13  2  0
 13 14  1  0
 14 15  2  0
 15 16  1  0
 15 17  1  0
 17 18  2  0
  7 19  1  0
 19 20  1  0
 20 21  2  0
  2 22  1  0
 22 23  1  0
 23 24  2  0
 24 25  1  0
 25 26  2  0
 26 27  1  0
 27 28  2  0
 28 29  1  0
 20  4  1  0
 28 23  1  0
 18 12  1  0
  3 30  1  0
  3 31  1  0
  8 32  1  0
  8 33  1  0
 11 34  1  0
 13 35  1  0
 14 36  1  0
 17 37  1  0
 18 38  1  0
 24 39  1  0
 25 40  1  0
 26 41  1  0
 27 42  1  0
M  CHG  3   6  -1  19  -1  22  -1
M  END
>  <UniqueID>  (38) 
36

>  <SMILES>  (38) 
O=C(Cn1c([O-])c(CC(=O)Nc2ccc(F)cc2)[n-]c1=O)[N-]c1ccccc1F

>  <Energy>  (38) 
74.45553729207296

>  <Genealogy>  (38) 
O=C(Cn1c([O-])c(CC(=O)Nc2ccc(F)cc2)[n-]c1=O)[N-]c1ccccc1F (protonated)
O=C(Cn1c([O-])c(CC(=O)Nc2ccc(F)cc2)[n-]c1=O)[N-]c1ccccc1F (3D coordinates assigned)
O=C(Cn1c([O-])c(CC(=O)Nc2ccc(F)cc2)[n-]c1=O)[N-]c1ccccc1F (optimized conformer: 74.45553729207296 kcal/mol)

>  <smiles>  (38) 
O=C(Cc1[nH]c(=O)n(CC(=O)Nc2ccccc2F)c1O)Nc1ccc(F)cc1

>  <score_type>  (38) 
oracle

>  <origin>  (38) 
adg

>  <m_score__min__energy>  (38) 
-14.25

>  <m_primary>  (38) 
energy

$$$$
38:0
     RDKit          3D

 60 63  0  0  0  0  0  0  0  0999 V2000
   64.4110   33.4500   48.1320 C   0  0  0  0  0  0  0  0  0  0  0  0
   62.9730   33.0350   48.1980 C   0  0  0  0  0  0  0  0  0  0  0  0
   62.0380   33.8550   48.8480 C   0  0  0  0  0  0  0  0  0  0  0  0
   60.6870   33.4970   48.8790 C   0  0  0  0  0  0  0  0  0  0  0  0
   60.2520   32.3250   48.2430 C   0  0  0  0  0  0  0  0  0  0  0  0
   58.5540   31.8660   48.2910 S   0  0  0  0  0  0  0  0  0  0  0  0
   57.7030   33.0950   48.1510 O   0  0  0  0  0  0  0  0  0  0  0  0
   58.2300   31.2140   49.6080 O   0  0  0  0  0  0  0  0  0  0  0  0
   58.1950   30.7740   47.0010 N   0  0  0  0  0  0  0  0  0  0  0  0
   57.9540   31.2470   45.6760 C   0  0  0  0  0  0  0  0  0  0  0  0
   57.6970   32.6110   45.4710 C   0  0  0  0  0  0  0  0  0  0  0  0
   57.5300   33.1130   44.1820 C   0  0  0  0  0  0  0  0  0  0  0  0
   57.6220   32.2580   43.0850 C   0  0  0  0  0  0  0  0  0  0  0  0
   57.8700   30.8930   43.2760 C   0  0  0  0  0  0  0  0  0  0  0  0
   58.0150   30.3660   44.5710 C   0  0  0  0  0  0  0  0  0  0  0  0
   58.2660   28.9130   44.7400 C   0  0  0  0  0  0  0  0  0  0  0  0
   59.4440   28.4690   44.6820 O   0  0  0  0  0  0  0  0  0  0  0  0
   57.1750   27.9970   44.9110 N   0  0  0  0  0  0  0  0  0  0  0  0
   57.2730   26.7580   45.6310 C   0  0  0  0  0  0  0  0  0  0  0  0
   58.5100   26.1000   45.6790 C   0  0  0  0  0  0  0  0  0  0  0  0
   58.6270   24.8600   46.3050 C   0  0  0  0  0  0  0  0  0  0  0  0
   57.5110   24.2560   46.8810 C   0  0  0  0  0  0  0  0  0  0  0  0
   56.2670   24.8970   46.8530 C   0  0  0  0  0  0  0  0  0  0  0  0
   55.1470   24.2430   47.4580 N   0  0  0  0  0  0  0  0  0  0  0  0
   54.6050   22.6490   47.0360 S   0  0  0  0  0  0  0  0  0  0  0  0
   53.5800   22.7720   45.9390 O   0  0  0  0  0  0  0  0  0  0  0  0
   53.9610   21.9990   48.2290 O   0  0  0  0  0  0  0  0  0  0  0  0
   55.9640   21.6350   46.4520 C   0  0  0  0  0  0  0  0  0  0  0  0
   56.2330   21.8690   44.9890 C   0  0  0  0  0  0  0  0  0  0  0  0
   56.8770   20.8840   44.2220 C   0  0  0  0  0  0  0  0  0  0  0  0
   57.0870   21.0810   42.8540 C   0  0  0  0  0  0  0  0  0  0  0  0
   56.6550   22.2640   42.2440 C   0  0  0  0  0  0  0  0  0  0  0  0
   56.0350   23.2550   43.0010 C   0  0  0  0  0  0  0  0  0  0  0  0
   55.8280   23.0660   44.3700 C   0  0  0  0  0  0  0  0  0  0  0  0
   56.1390   26.1360   46.1960 C   0  0  0  0  0  0  0  0  0  0  0  0
   54.8800   26.7160   46.0560 O   0  0  0  0  0  0  0  0  0  0  0  0
   61.1830   31.5110   47.5830 C   0  0  0  0  0  0  0  0  0  0  0  0
   62.5360   31.8660   47.5510 C   0  0  0  0  0  0  0  0  0  0  0  0
   64.8068   33.5642   49.1519 H   0  0  0  0  0  0  0  0  0  0  0  0
   64.9900   32.6823   47.5978 H   0  0  0  0  0  0  0  0  0  0  0  0
   64.4920   34.4082   47.5978 H   0  0  0  0  0  0  0  0  0  0  0  0
   62.3696   34.7837   49.3354 H   0  0  0  0  0  0  0  0  0  0  0  0
   59.9625   34.1368   49.4041 H   0  0  0  0  0  0  0  0  0  0  0  0
   57.6268   33.2891   46.3343 H   0  0  0  0  0  0  0  0  0  0  0  0
   57.3257   34.1832   44.0302 H   0  0  0  0  0  0  0  0  0  0  0  0
   57.4995   32.6563   42.0670 H   0  0  0  0  0  0  0  0  0  0  0  0
   57.9521   30.2270   42.4044 H   0  0  0  0  0  0  0  0  0  0  0  0
   56.2870   28.1990   44.3980 H   0  0  0  0  0  0  0  0  0  0  0  0
   59.3944   26.5655   45.2195 H   0  0  0  0  0  0  0  0  0  0  0  0
   59.6041   24.3563   46.3445 H   0  0  0  0  0  0  0  0  0  0  0  0
   57.6082   23.2706   47.3601 H   0  0  0  0  0  0  0  0  0  0  0  0
   56.8686   21.8830   47.0266 H   0  0  0  0  0  0  0  0  0  0  0  0
   55.6923   20.5780   46.5900 H   0  0  0  0  0  0  0  0  0  0  0  0
   57.2175   19.9536   44.6999 H   0  0  0  0  0  0  0  0  0  0  0  0
   57.5915   20.3066   42.2575 H   0  0  0  0  0  0  0  0  0  0  0  0
   56.8054   22.4115   41.1644 H   0  0  0  0  0  0  0  0  0  0  0  0
   55.7075   24.1886   42.5202 H   0  0  0  0  0  0  0  0  0  0  0  0
   55.3468   23.8556   44.9658 H   0  0  0  0  0  0  0  0  0  0  0  0
   60.8480   30.5879   47.0874 H   0  0  0  0  0  0  0  0  0  0  0  0
   63.2585   31.2297   47.0190 H   0  0  0  0  0  0  0  0  0  0  0  0
  1  2  1  0
  2  3  2  0
  3  4  1  0
  4  5  2  0
  5  6  1  0
  6  7  2  0
  6  8  2  0
  6  9  1  0
  9 10  1  0
 10 11  2  0
 11 12  1  0
 12 13  2  0
 13 14  1  0
 14 15  2  0
 15 16  1  0
 16 17  2  0
 16 18  1  0
 18 19  1  0
 19 20  2  0
 20 21  1  0
 21 22  2  0
 22 23  1  0
 23 24  1  0
 24 25  1  0
 25 26  2  0
 25 27  2  0
 25 28  1  0
 28 29  1  0
 29 30  2  0
 30 31  1  0
 31 32  2  0
 32 33  1  0
 33 34  2  0
 23 35  2  0
 35 36  1  0
  5 37  1  0
 37 38  2  0
 38  2  1  0
 15 10  1  0
 35 19  1  0
 34 29  1  0
  1 39  1  0
  1 40  1  0
  1 41  1  0
  3 42  1  0
  4 43  1  0
 11 44  1  0
 12 45  1  0
 13 46  1  0
 14 47  1  0
 18 48  1  0
 20 49  1  0
 21 50  1  0
 22 51  1  0
 28 52  1  0
 28 53  1  0
 30 54  1  0
 31 55  1  0
 32 56  1  0
 33 57  1  0
 34 58  1  0
 37 59  1  0
 38 60  1  0
M  CHG  3   9  -1  24  -1  36  -1
M  END
>  <UniqueID>  (39) 
37

>  <SMILES>  (39) 
Cc1ccc(S(=O)(=O)[N-]c2ccccc2C(=O)Nc2cccc([N-]S(=O)(=O)Cc3ccccc3)c2[O-])cc1

>  <Energy>  (39) 
82.29730940335584

>  <Genealogy>  (39) 
Cc1ccc(S(=O)(=O)[N-]c2ccccc2C(=O)Nc2cccc([N-]S(=O)(=O)Cc3ccccc3)c2[O-])cc1 (protonated)
Cc1ccc(S(=O)(=O)[N-]c2ccccc2C(=O)Nc2cccc([N-]S(=O)(=O)Cc3ccccc3)c2[O-])cc1 (3D coordinates assigned)
Cc1ccc(S(=O)(=O)[N-]c2ccccc2C(=O)Nc2cccc([N-]S(=O)(=O)Cc3ccccc3)c2[O-])cc1 (optimized conformer: 82.29730940335584 kcal/mol)

>  <smiles>  (39) 
Cc1ccc(S(=O)(=O)Nc2ccccc2C(=O)Nc2cccc(NS(=O)(=O)Cc3ccccc3)c2O)cc1

>  <score_type>  (39) 
oracle

>  <origin>  (39) 
adg

>  <m_score__min__energy>  (39) 
-16.710000000000001

>  <m_primary>  (39) 
energy

$$$$
39:0
     RDKit          3D

 42 44  0  0  0  0  0  0  0  0999 V2000
   57.7970   27.3270   47.1860 O   0  0  0  0  0  0  0  0  0  0  0  0
   56.9090   26.8760   46.4130 C   0  0  0  0  0  0  0  0  0  0  0  0
   56.6220   25.4030   46.4040 C   0  0  0  0  0  0  0  0  0  0  0  0
   55.2830   25.1230   45.8870 N   0  0  0  0  0  0  0  0  0  0  0  0
   54.8710   24.0060   45.0830 C   0  0  0  0  0  0  0  0  0  0  0  0
   53.6390   23.7760   44.9670 O   0  0  0  0  0  0  0  0  0  0  0  0
   55.8110   23.1440   44.3440 C   0  0  0  0  0  0  0  0  0  0  0  0
   57.0400   22.6750   44.7740 C   0  0  0  0  0  0  0  0  0  0  0  0
   57.5230   21.8960   43.7450 C   0  0  0  0  0  0  0  0  0  0  0  0
   56.5630   21.9280   42.7560 C   0  0  0  0  0  0  0  0  0  0  0  0
   55.5550   22.6720   43.1440 O   0  0  0  0  0  0  0  0  0  0  0  0
   56.1270   27.7710   45.6090 N   0  0  0  0  0  0  0  0  0  0  0  0
   56.6350   28.9840   45.0240 C   0  0  0  0  0  0  0  0  0  0  0  0
   55.8980   29.6180   44.0130 C   0  0  0  0  0  0  0  0  0  0  0  0
   56.4010   30.7540   43.3710 C   0  0  0  0  0  0  0  0  0  0  0  0
   57.6640   31.2630   43.7140 C   0  0  0  0  0  0  0  0  0  0  0  0
   58.2140   32.4360   42.9980 C   0  0  0  0  0  0  0  0  0  0  0  0
   58.3330   32.3950   41.7440 O   0  0  0  0  0  0  0  0  0  0  0  0
   58.5780   33.6420   43.6840 N   0  0  0  0  0  0  0  0  0  0  0  0
   58.7980   33.7790   45.0960 C   0  0  0  0  0  0  0  0  0  0  0  0
   60.0450   34.1780   45.6130 C   0  0  0  0  0  0  0  0  0  0  0  0
   60.2260   34.3100   46.9930 C   0  0  0  0  0  0  0  0  0  0  0  0
   59.1630   34.0610   47.8650 C   0  0  0  0  0  0  0  0  0  0  0  0
   57.9160   33.6870   47.3570 C   0  0  0  0  0  0  0  0  0  0  0  0
   57.7300   33.5530   45.9770 C   0  0  0  0  0  0  0  0  0  0  0  0
   56.5150   33.1890   45.4980 F   0  0  0  0  0  0  0  0  0  0  0  0
   58.3950   30.6410   44.7390 C   0  0  0  0  0  0  0  0  0  0  0  0
   57.8900   29.5090   45.3820 C   0  0  0  0  0  0  0  0  0  0  0  0
   57.3639   24.8978   45.7682 H   0  0  0  0  0  0  0  0  0  0  0  0
   56.6778   25.0333   47.4385 H   0  0  0  0  0  0  0  0  0  0  0  0
   57.5296   22.8812   45.7372 H   0  0  0  0  0  0  0  0  0  0  0  0
   58.4816   21.3571   43.7181 H   0  0  0  0  0  0  0  0  0  0  0  0
   56.6320   21.4086   41.7888 H   0  0  0  0  0  0  0  0  0  0  0  0
   55.1480   27.4860   45.3820 H   0  0  0  0  0  0  0  0  0  0  0  0
   54.9154   29.2180   43.7224 H   0  0  0  0  0  0  0  0  0  0  0  0
   55.8038   31.2517   42.5928 H   0  0  0  0  0  0  0  0  0  0  0  0
   60.8804   34.3868   44.9285 H   0  0  0  0  0  0  0  0  0  0  0  0
   61.2059   34.6101   47.3926 H   0  0  0  0  0  0  0  0  0  0  0  0
   59.3077   34.1593   48.9510 H   0  0  0  0  0  0  0  0  0  0  0  0
   57.0783   33.4974   48.0442 H   0  0  0  0  0  0  0  0  0  0  0  0
   59.3722   31.0483   45.0375 H   0  0  0  0  0  0  0  0  0  0  0  0
   58.4783   29.0239   46.1748 H   0  0  0  0  0  0  0  0  0  0  0  0
  1  2  2  0
  2  3  1  0
  3  4  1  0
  4  5  1  0
  5  6  2  0
  5  7  1  0
  7  8  2  0
  8  9  1  0
  9 10  2  0
 10 11  1  0
  2 12  1  0
 12 13  1  0
 13 14  2  0
 14 15  1  0
 15 16  2  0
 16 17  1  0
 17 18  2  0
 17 19  1  0
 19 20  1  0
 20 21  2  0
 21 22  1  0
 22 23  2  0
 23 24  1  0
 24 25  2  0
 25 26  1  0
 16 27  1  0
 27 28  2  0
 11  7  1  0
 28 13  1  0
 25 20  1  0
  3 29  1  0
  3 30  1  0
  8 31  1  0
  9 32  1  0
 10 33  1  0
 12 34  1  0
 14 35  1  0
 15 36  1  0
 21 37  1  0
 22 38  1  0
 23 39  1  0
 24 40  1  0
 27 41  1  0
 28 42  1  0
M  CHG  2   4  -1  19  -1
M  END
>  <UniqueID>  (40) 
38

>  <SMILES>  (40) 
O=C(C[N-]C(=O)c1ccco1)Nc1ccc(C(=O)[N-]c2ccccc2F)cc1

>  <Energy>  (40) 
79.71405856124407

>  <Genealogy>  (40) 
O=C(C[N-]C(=O)c1ccco1)Nc1ccc(C(=O)[N-]c2ccccc2F)cc1 (protonated)
O=C(C[N-]C(=O)c1ccco1)Nc1ccc(C(=O)[N-]c2ccccc2F)cc1 (3D coordinates assigned)
O=C(C[N-]C(=O)c1ccco1)Nc1ccc(C(=O)[N-]c2ccccc2F)cc1 (optimized conformer: 79.71405856124407 kcal/mol)

>  <smiles>  (40) 
O=C(CNC(=O)c1ccco1)Nc1ccc(C(=O)Nc2ccccc2F)cc1

>  <score_type>  (40) 
oracle

>  <origin>  (40) 
adg

>  <m_score__min__energy>  (40) 
-11.470000000000001

>  <m_primary>  (40) 
energy

$$$$
40:0
     RDKit          3D

 22 23  0  0  0  0  0  0  0  0999 V2000
   59.9110   26.0610   46.3210 C   0  0  0  0  0  0  0  0  0  0  0  0
   58.5820   25.9850   46.4380 C   0  0  0  0  0  0  0  0  0  0  0  0
   58.0110   25.2370   47.4090 N   0  0  0  0  0  0  0  0  0  0  0  0
   56.6820   25.4210   47.3050 C   0  0  0  0  0  0  0  0  0  0  0  0
   56.4060   26.2830   46.2730 C   0  0  0  0  0  0  0  0  0  0  0  0
   55.1340   26.6920   45.8850 O   0  0  0  0  0  0  0  0  0  0  0  0
   57.6000   26.6520   45.6870 C   0  0  0  0  0  0  0  0  0  0  0  0
   57.6910   27.4700   44.6190 C   0  0  0  0  0  0  0  0  0  0  0  0
   57.6590   28.9420   44.6690 C   0  0  0  0  0  0  0  0  0  0  0  0
   56.4470   29.6530   44.7950 C   0  0  0  0  0  0  0  0  0  0  0  0
   55.2140   29.0030   44.8560 O   0  0  0  0  0  0  0  0  0  0  0  0
   56.4720   31.0090   44.8600 N   0  0  0  0  0  0  0  0  0  0  0  0
   57.6400   31.6980   44.8240 C   0  0  0  0  0  0  0  0  0  0  0  0
   57.6310   32.9540   44.8840 O   0  0  0  0  0  0  0  0  0  0  0  0
   58.8190   31.0320   44.7270 N   0  0  0  0  0  0  0  0  0  0  0  0
   58.8550   29.6770   44.6560 C   0  0  0  0  0  0  0  0  0  0  0  0
   59.9680   29.0920   44.5700 O   0  0  0  0  0  0  0  0  0  0  0  0
   60.3589   26.6743   45.5252 H   0  0  0  0  0  0  0  0  0  0  0  0
   60.5571   25.5103   47.0205 H   0  0  0  0  0  0  0  0  0  0  0  0
   55.9275   24.9498   47.9521 H   0  0  0  0  0  0  0  0  0  0  0  0
   57.7978   27.0001   43.6302 H   0  0  0  0  0  0  0  0  0  0  0  0
   55.1270   27.9950   44.9090 H   0  0  0  0  0  0  0  0  0  0  0  0
  1  2  2  0
  2  3  1  0
  3  4  1  0
  4  5  2  0
  5  6  1  0
  5  7  1  0
  7  8  2  3
  8  9  1  0
  9 10  2  0
 10 11  1  0
 10 12  1  0
 12 13  1  0
 13 14  2  0
 13 15  1  0
 15 16  1  0
 16 17  2  0
  7  2  1  0
 16  9  1  0
  1 18  1  0
  1 19  1  0
  4 20  1  0
  8 21  1  0
 11 22  1  0
M  CHG  4   3  -1   6  -1  12  -1  15  -1
M  END
>  <UniqueID>  (41) 
39

>  <SMILES>  (41) 
C=c1[n-]cc([O-])c1=Cc1c(O)[n-]c(=O)[n-]c1=O

>  <Energy>  (41) 
65.4046817026779

>  <Genealogy>  (41) 
C=c1[n-]cc([O-])c1=Cc1c(O)[n-]c(=O)[n-]c1=O (protonated)
C=c1[n-]cc([O-])c1=Cc1c(O)[n-]c(=O)[n-]c1=O (3D coordinates assigned)
C=c1[n-]cc([O-])c1=Cc1c(O)[n-]c(=O)[n-]c1=O (optimized conformer: 65.4046817026779 kcal/mol)

>  <smiles>  (41) 
C=c1[nH]cc(O)c1=Cc1c(O)[nH]c(=O)[nH]c1=O

>  <score_type>  (41) 
oracle

>  <origin>  (41) 
adg

>  <m_score__min__energy>  (41) 
-14.779999999999999

>  <m_primary>  (41) 
energy

$$$$
41:0
     RDKit          3D

 41 42  0  0  0  0  0  0  0  0999 V2000
   55.9520   30.7500   52.0270 C   0  0  0  0  0  0  0  0  0  0  0  0
   56.9450   29.8180   51.6610 O   0  0  0  0  0  0  0  0  0  0  0  0
   58.0870   30.5080   51.1990 C   0  0  0  0  0  0  0  0  0  0  0  0
   57.7020   31.9350   50.8040 C   0  0  0  0  0  0  0  0  0  0  0  0
   58.7680   32.5870   49.9140 C   0  0  0  0  0  0  0  0  0  0  0  0
   58.5570   32.2350   48.5120 N   0  0  0  0  0  0  0  0  0  0  0  0
   58.6060   33.2250   47.4740 C   0  0  0  0  0  0  0  0  0  0  0  0
   58.9240   34.4140   47.7450 O   0  0  0  0  0  0  0  0  0  0  0  0
   58.2590   32.8570   46.0940 C   0  0  0  0  0  0  0  0  0  0  0  0
   58.5220   33.6000   44.9570 C   0  0  0  0  0  0  0  0  0  0  0  0
   57.9700   32.8880   43.9100 C   0  0  0  0  0  0  0  0  0  0  0  0
   57.4170   31.7560   44.4770 C   0  0  0  0  0  0  0  0  0  0  0  0
   56.6500   30.6920   43.7610 C   0  0  0  0  0  0  0  0  0  0  0  0
   56.2130   29.3280   44.8970 S   0  0  0  0  0  0  0  0  0  0  0  0
   57.8440   29.1990   45.6300 C   0  0  0  0  0  0  0  0  0  0  0  0
   58.9240   28.9350   44.8500 N   0  0  0  0  0  0  0  0  0  0  0  0
   60.1740   28.8730   45.3820 C   0  0  0  0  0  0  0  0  0  0  0  0
   61.3450   28.5760   44.5010 C   0  0  0  0  0  0  0  0  0  0  0  0
   60.3540   29.0760   46.7540 C   0  0  0  0  0  0  0  0  0  0  0  0
   59.2310   29.3380   47.5400 C   0  0  0  0  0  0  0  0  0  0  0  0
   59.3550   29.5280   48.7780 O   0  0  0  0  0  0  0  0  0  0  0  0
   58.0010   29.3930   46.9670 N   0  0  0  0  0  0  0  0  0  0  0  0
   57.6090   31.7630   45.7750 O   0  0  0  0  0  0  0  0  0  0  0  0
   55.8901   30.8081   53.1237 H   0  0  0  0  0  0  0  0  0  0  0  0
   56.2103   31.7393   51.6214 H   0  0  0  0  0  0  0  0  0  0  0  0
   54.9810   30.4296   51.6214 H   0  0  0  0  0  0  0  0  0  0  0  0
   58.8425   30.5409   51.9978 H   0  0  0  0  0  0  0  0  0  0  0  0
   58.4987   29.9858   50.3228 H   0  0  0  0  0  0  0  0  0  0  0  0
   56.7486   31.9078   50.2560 H   0  0  0  0  0  0  0  0  0  0  0  0
   57.6125   32.5320   51.7236 H   0  0  0  0  0  0  0  0  0  0  0  0
   58.7110   33.6800   50.0243 H   0  0  0  0  0  0  0  0  0  0  0  0
   59.7584   32.2228   50.2245 H   0  0  0  0  0  0  0  0  0  0  0  0
   58.3280   31.2470   48.2550 H   0  0  0  0  0  0  0  0  0  0  0  0
   59.0589   34.5583   44.8989 H   0  0  0  0  0  0  0  0  0  0  0  0
   57.9706   33.1649   42.8454 H   0  0  0  0  0  0  0  0  0  0  0  0
   55.7276   31.1278   43.3495 H   0  0  0  0  0  0  0  0  0  0  0  0
   57.2779   30.2892   42.9526 H   0  0  0  0  0  0  0  0  0  0  0  0
   62.2245   28.3529   45.1229 H   0  0  0  0  0  0  0  0  0  0  0  0
   61.1152   27.7077   43.8660 H   0  0  0  0  0  0  0  0  0  0  0  0
   61.5568   29.4489   43.8660 H   0  0  0  0  0  0  0  0  0  0  0  0
   61.3571   29.0302   47.2030 H   0  0  0  0  0  0  0  0  0  0  0  0
  1  2  1  0
  2  3  1  0
  3  4  1  0
  4  5  1  0
  5  6  1  0
  6  7  1  0
  7  8  2  0
  7  9  1  0
  9 10  2  0
 10 11  1  0
 11 12  2  0
 12 13  1  0
 13 14  1  0
 14 15  1  0
 15 16  2  0
 16 17  1  0
 17 18  1  0
 17 19  2  0
 19 20  1  0
 20 21  2  0
 20 22  1  0
 12 23  1  0
 23  9  1  0
 22 15  1  0
  1 24  1  0
  1 25  1  0
  1 26  1  0
  3 27  1  0
  3 28  1  0
  4 29  1  0
  4 30  1  0
  5 31  1  0
  5 32  1  0
  6 33  1  0
 10 34  1  0
 11 35  1  0
 13 36  1  0
 13 37  1  0
 18 38  1  0
 18 39  1  0
 18 40  1  0
 19 41  1  0
M  CHG  1  22  -1
M  END
>  <UniqueID>  (42) 
40

>  <SMILES>  (42) 
COCCCNC(=O)c1ccc(CSc2nc(C)cc(=O)[n-]2)o1

>  <Energy>  (42) 
52.931025495497735

>  <Genealogy>  (42) 
COCCCNC(=O)c1ccc(CSc2nc(C)cc(=O)[n-]2)o1 (protonated)
COCCCNC(=O)c1ccc(CSc2nc(C)cc(=O)[n-]2)o1 (3D coordinates assigned)
COCCCNC(=O)c1ccc(CSc2nc(C)cc(=O)[n-]2)o1 (optimized conformer: 52.931025495497735 kcal/mol)

>  <smiles>  (42) 
COCCCNC(=O)c1ccc(CSc2nc(C)cc(=O)[nH]2)o1

>  <score_type>  (42) 
oracle

>  <origin>  (42) 
adg

>  <m_score__min__energy>  (42) 
-8.2400000000000002

>  <m_primary>  (42) 
energy

$$$$
42:0
     RDKit          3D

 49 51  0  0  0  0  0  0  0  0999 V2000
   55.0660   26.2730   45.9520 N   0  0  0  0  0  0  0  0  0  0  0  0
   56.7940   26.2450   45.9600 S   0  0  0  0  0  0  0  0  0  0  0  0
   57.2690   25.3200   44.8730 O   0  0  0  0  0  0  0  0  0  0  0  0
   57.2890   25.7230   47.2790 O   0  0  0  0  0  0  0  0  0  0  0  0
   57.4130   27.8830   45.6840 C   0  0  0  0  0  0  0  0  0  0  0  0
   56.6290   28.7830   44.9440 C   0  0  0  0  0  0  0  0  0  0  0  0
   57.0800   30.0810   44.6940 C   0  0  0  0  0  0  0  0  0  0  0  0
   58.3190   30.4950   45.1770 C   0  0  0  0  0  0  0  0  0  0  0  0
   59.1100   29.6180   45.9190 C   0  0  0  0  0  0  0  0  0  0  0  0
   58.6650   28.3120   46.1980 C   0  0  0  0  0  0  0  0  0  0  0  0
   59.5730   27.3970   46.9790 C   0  0  0  0  0  0  0  0  0  0  0  0
   59.4780   27.7120   48.3650 O   0  0  0  0  0  0  0  0  0  0  0  0
   59.7480   28.9750   48.9120 C   0  0  0  0  0  0  0  0  0  0  0  0
   61.0210   29.5730   48.8420 C   0  0  0  0  0  0  0  0  0  0  0  0
   61.2350   30.8370   49.3990 C   0  0  0  0  0  0  0  0  0  0  0  0
   60.1880   31.5190   50.0290 C   0  0  0  0  0  0  0  0  0  0  0  0
   60.4780   33.1110   50.7210 S   0  0  0  0  0  0  0  0  0  0  0  0
   61.5690   32.9960   51.7490 O   0  0  0  0  0  0  0  0  0  0  0  0
   59.2290   33.6360   51.3700 O   0  0  0  0  0  0  0  0  0  0  0  0
   60.9630   34.1960   49.4560 N   0  0  0  0  0  0  0  0  0  0  0  0
   60.4160   34.1410   48.1260 C   0  0  0  0  0  0  0  0  0  0  0  0
   59.0310   34.2980   47.9260 C   0  0  0  0  0  0  0  0  0  0  0  0
   58.4830   34.2180   46.6450 C   0  0  0  0  0  0  0  0  0  0  0  0
   59.3050   33.9750   45.5470 C   0  0  0  0  0  0  0  0  0  0  0  0
   60.6790   33.8140   45.7250 C   0  0  0  0  0  0  0  0  0  0  0  0
   61.2490   33.8980   47.0060 C   0  0  0  0  0  0  0  0  0  0  0  0
   63.0020   33.7250   47.1750 S   0  0  0  0  0  0  0  0  0  0  0  0
   63.4230   32.0490   47.1480 N   0  0  0  0  0  0  0  0  0  0  0  0
   63.4480   34.3420   48.4720 O   0  0  0  0  0  0  0  0  0  0  0  0
   63.7060   34.4240   46.0450 O   0  0  0  0  0  0  0  0  0  0  0  0
   58.9210   30.9250   50.1040 C   0  0  0  0  0  0  0  0  0  0  0  0
   58.7060   29.6600   49.5470 C   0  0  0  0  0  0  0  0  0  0  0  0
   54.7700   27.0620   46.5690 H   0  0  0  0  0  0  0  0  0  0  0  0
   55.6502   28.4626   44.5575 H   0  0  0  0  0  0  0  0  0  0  0  0
   56.4558   30.7773   44.1148 H   0  0  0  0  0  0  0  0  0  0  0  0
   58.6745   31.5158   44.9729 H   0  0  0  0  0  0  0  0  0  0  0  0
   60.0910   29.9501   46.2897 H   0  0  0  0  0  0  0  0  0  0  0  0
   59.2691   26.3522   46.8178 H   0  0  0  0  0  0  0  0  0  0  0  0
   60.6111   27.5305   46.6406 H   0  0  0  0  0  0  0  0  0  0  0  0
   61.8491   29.0440   48.3477 H   0  0  0  0  0  0  0  0  0  0  0  0
   62.2320   31.2982   49.3418 H   0  0  0  0  0  0  0  0  0  0  0  0
   61.6360   34.9480   49.7160 H   0  0  0  0  0  0  0  0  0  0  0  0
   58.3743   34.4856   48.7883 H   0  0  0  0  0  0  0  0  0  0  0  0
   57.4000   34.3471   46.5021 H   0  0  0  0  0  0  0  0  0  0  0  0
   58.8702   33.9100   44.5387 H   0  0  0  0  0  0  0  0  0  0  0  0
   61.3222   33.6194   44.8541 H   0  0  0  0  0  0  0  0  0  0  0  0
   64.4620   31.9980   47.0530 H   0  0  0  0  0  0  0  0  0  0  0  0
   58.0947   31.4540   50.6014 H   0  0  0  0  0  0  0  0  0  0  0  0
   57.7089   29.1996   49.6087 H   0  0  0  0  0  0  0  0  0  0  0  0
  1  2  1  0
  2  3  2  0
  2  4  2  0
  2  5  1  0
  5  6  2  0
  6  7  1  0
  7  8  2  0
  8  9  1  0
  9 10  2  0
 10 11  1  0
 11 12  1  0
 12 13  1  0
 13 14  2  0
 14 15  1  0
 15 16  2  0
 16 17  1  0
 17 18  2  0
 17 19  2  0
 17 20  1  0
 20 21  1  0
 21 22  2  0
 22 23  1  0
 23 24  2  0
 24 25  1  0
 25 26  2  0
 26 27  1  0
 27 28  1  0
 27 29  2  0
 27 30  2  0
 16 31  1  0
 31 32  2  0
 10  5  1  0
 32 13  1  0
 26 21  1  0
  1 33  1  0
  6 34  1  0
  7 35  1  0
  8 36  1  0
  9 37  1  0
 11 38  1  0
 11 39  1  0
 14 40  1  0
 15 41  1  0
 20 42  1  0
 22 43  1  0
 23 44  1  0
 24 45  1  0
 25 46  1  0
 28 47  1  0
 31 48  1  0
 32 49  1  0
M  CHG  2   1  -1  28  -1
M  END
>  <UniqueID>  (43) 
41

>  <SMILES>  (43) 
[NH-]S(=O)(=O)c1ccccc1COc1ccc(S(=O)(=O)Nc2ccccc2S([NH-])(=O)=O)cc1

>  <Energy>  (43) 
58.49246408182383

>  <Genealogy>  (43) 
[NH-]S(=O)(=O)c1ccccc1COc1ccc(S(=O)(=O)Nc2ccccc2S([NH-])(=O)=O)cc1 (protonated)
[NH-]S(=O)(=O)c1ccccc1COc1ccc(S(=O)(=O)Nc2ccccc2S([NH-])(=O)=O)cc1 (3D coordinates assigned)
[NH-]S(=O)(=O)c1ccccc1COc1ccc(S(=O)(=O)Nc2ccccc2S([NH-])(=O)=O)cc1 (optimized conformer: 58.49246408182383 kcal/mol)

>  <smiles>  (43) 
NS(=O)(=O)c1ccccc1COc1ccc(S(=O)(=O)Nc2ccccc2S(N)(=O)=O)cc1

>  <score_type>  (43) 
oracle

>  <origin>  (43) 
adg

>  <m_score__min__energy>  (43) 
-14.32

>  <m_primary>  (43) 
energy

$$$$
43:0
     RDKit          3D

 53 55  0  0  0  0  0  0  0  0999 V2000
   61.2450   33.9070   50.3380 C   0  0  0  0  0  0  0  0  0  0  0  0
   60.2370   32.8590   50.5750 N   0  0  0  0  0  0  0  0  0  0  0  0
   60.4100   31.5870   50.0920 C   0  0  0  0  0  0  0  0  0  0  0  0
   61.5430   31.2410   49.2880 N   0  0  0  0  0  0  0  0  0  0  0  0
   61.7040   31.8790   47.6850 S   0  0  0  0  0  0  0  0  0  0  0  0
   62.1470   30.7800   46.7620 O   0  0  0  0  0  0  0  0  0  0  0  0
   62.7520   32.9570   47.7020 O   0  0  0  0  0  0  0  0  0  0  0  0
   60.1550   32.5390   47.1290 C   0  0  0  0  0  0  0  0  0  0  0  0
   59.9540   33.9270   47.1910 C   0  0  0  0  0  0  0  0  0  0  0  0
   58.7740   34.4990   46.7140 C   0  0  0  0  0  0  0  0  0  0  0  0
   57.7750   33.6920   46.1710 C   0  0  0  0  0  0  0  0  0  0  0  0
   57.9490   32.3080   46.1170 C   0  0  0  0  0  0  0  0  0  0  0  0
   59.1260   31.7160   46.6050 C   0  0  0  0  0  0  0  0  0  0  0  0
   59.2450   30.2450   46.5560 C   0  0  0  0  0  0  0  0  0  0  0  0
   59.6110   29.6100   45.3600 C   0  0  0  0  0  0  0  0  0  0  0  0
   59.7640   28.2220   45.3190 C   0  0  0  0  0  0  0  0  0  0  0  0
   59.5370   27.4500   46.4690 C   0  0  0  0  0  0  0  0  0  0  0  0
   59.7690   25.9640   46.4340 C   0  0  0  0  0  0  0  0  0  0  0  0
   58.5520   25.2770   46.0140 N   0  0  0  0  0  0  0  0  0  0  0  0
   57.2390   25.6730   46.4230 C   0  0  0  0  0  0  0  0  0  0  0  0
   56.7230   25.1930   47.4680 O   0  0  0  0  0  0  0  0  0  0  0  0
   56.4930   26.6890   45.6230 C   0  0  0  0  0  0  0  0  0  0  0  0
   55.1500   26.6970   46.0200 O   0  0  0  0  0  0  0  0  0  0  0  0
   59.1490   28.0850   47.6600 C   0  0  0  0  0  0  0  0  0  0  0  0
   58.9970   29.4740   47.7010 C   0  0  0  0  0  0  0  0  0  0  0  0
   59.4690   30.6030   50.3720 C   0  0  0  0  0  0  0  0  0  0  0  0
   58.3380   30.9330   51.1070 C   0  0  0  0  0  0  0  0  0  0  0  0
   57.4740   30.0410   51.3300 O   0  0  0  0  0  0  0  0  0  0  0  0
   58.1650   32.2100   51.5690 N   0  0  0  0  0  0  0  0  0  0  0  0
   56.9410   32.5660   52.3090 C   0  0  0  0  0  0  0  0  0  0  0  0
   59.0990   33.1740   51.2780 C   0  0  0  0  0  0  0  0  0  0  0  0
   58.9110   34.3650   51.6600 O   0  0  0  0  0  0  0  0  0  0  0  0
   61.6115   34.2881   51.3026 H   0  0  0  0  0  0  0  0  0  0  0  0
   62.0854   33.4851   49.7672 H   0  0  0  0  0  0  0  0  0  0  0  0
   60.7907   34.7303   49.7672 H   0  0  0  0  0  0  0  0  0  0  0  0
   62.0790   30.3770   49.5250 H   0  0  0  0  0  0  0  0  0  0  0  0
   60.7356   34.5710   47.6205 H   0  0  0  0  0  0  0  0  0  0  0  0
   58.6317   35.5885   46.7665 H   0  0  0  0  0  0  0  0  0  0  0  0
   56.8501   34.1457   45.7853 H   0  0  0  0  0  0  0  0  0  0  0  0
   57.1576   31.6753   45.6886 H   0  0  0  0  0  0  0  0  0  0  0  0
   59.7781   30.2070   44.4513 H   0  0  0  0  0  0  0  0  0  0  0  0
   60.0638   27.7318   44.3810 H   0  0  0  0  0  0  0  0  0  0  0  0
   60.5779   25.7385   45.7235 H   0  0  0  0  0  0  0  0  0  0  0  0
   60.0485   25.6191   47.4404 H   0  0  0  0  0  0  0  0  0  0  0  0
   56.9317   27.6835   45.7916 H   0  0  0  0  0  0  0  0  0  0  0  0
   56.5594   26.4371   44.5543 H   0  0  0  0  0  0  0  0  0  0  0  0
   55.1360   26.3400   46.9470 H   0  0  0  0  0  0  0  0  0  0  0  0
   58.9639   27.4869   48.5644 H   0  0  0  0  0  0  0  0  0  0  0  0
   58.6819   29.9638   48.6342 H   0  0  0  0  0  0  0  0  0  0  0  0
   59.6187   29.5734   50.0150 H   0  0  0  0  0  0  0  0  0  0  0  0
   57.1365   32.5091   53.3900 H   0  0  0  0  0  0  0  0  0  0  0  0
   56.6374   33.5897   52.0446 H   0  0  0  0  0  0  0  0  0  0  0  0
   56.1357   31.8649   52.0446 H   0  0  0  0  0  0  0  0  0  0  0  0
  1  2  1  0
  2  3  1  0
  3  4  1  0
  4  5  1  0
  5  6  2  0
  5  7  2  0
  5  8  1  0
  8  9  2  0
  9 10  1  0
 10 11  2  0
 11 12  1  0
 12 13  2  0
 13 14  1  0
 14 15  2  0
 15 16  1  0
 16 17  2  0
 17 18  1  0
 18 19  1  0
 19 20  1  0
 20 21  2  0
 20 22  1  0
 22 23  1  0
 17 24  1  0
 24 25  2  0
  3 26  2  0
 26 27  1  0
 27 28  2  0
 27 29  1  0
 29 30  1  0
 29 31  1  0
 31 32  2  0
 31  2  1  0
 13  8  1  0
 25 14  1  0
  1 33  1  0
  1 34  1  0
  1 35  1  0
  4 36  1  0
  9 37  1  0
 10 38  1  0
 11 39  1  0
 12 40  1  0
 15 41  1  0
 16 42  1  0
 18 43  1  0
 18 44  1  0
 22 45  1  0
 22 46  1  0
 23 47  1  0
 24 48  1  0
 25 49  1  0
 26 50  1  0
 30 51  1  0
 30 52  1  0
 30 53  1  0
M  CHG  1  19  -1
M  END
>  <UniqueID>  (44) 
42

>  <SMILES>  (44) 
Cn1c(NS(=O)(=O)c2ccccc2-c2ccc(C[N-]C(=O)CO)cc2)cc(=O)n(C)c1=O

>  <Energy>  (44) 
74.19148600568379

>  <Genealogy>  (44) 
Cn1c(NS(=O)(=O)c2ccccc2-c2ccc(C[N-]C(=O)CO)cc2)cc(=O)n(C)c1=O (protonated)
Cn1c(NS(=O)(=O)c2ccccc2-c2ccc(C[N-]C(=O)CO)cc2)cc(=O)n(C)c1=O (3D coordinates assigned)
Cn1c(NS(=O)(=O)c2ccccc2-c2ccc(C[N-]C(=O)CO)cc2)cc(=O)n(C)c1=O (optimized conformer: 74.19148600568379 kcal/mol)

>  <smiles>  (44) 
Cn1c(NS(=O)(=O)c2ccccc2-c2ccc(CNC(=O)CO)cc2)cc(=O)n(C)c1=O

>  <score_type>  (44) 
oracle

>  <origin>  (44) 
adg

>  <m_score__min__energy>  (44) 
-10.24

>  <m_primary>  (44) 
energy

$$$$
44:0
     RDKit          3D

 52 54  0  0  0  0  0  0  0  0999 V2000
   58.4120   21.9110   44.1070 C   0  0  0  0  0  0  0  0  0  0  0  0
   57.4280   22.9410   44.5890 C   0  0  0  0  0  0  0  0  0  0  0  0
   57.7640   23.8280   45.6200 C   0  0  0  0  0  0  0  0  0  0  0  0
   56.8740   24.7740   46.0480 N   0  0  0  0  0  0  0  0  0  0  0  0
   57.2510   25.6710   47.1530 C   0  0  0  0  0  0  0  0  0  0  0  0
   58.0490   26.8380   46.6340 C   0  0  0  0  0  0  0  0  0  0  0  0
   59.1730   27.2900   47.3400 C   0  0  0  0  0  0  0  0  0  0  0  0
   59.9070   28.3790   46.8690 C   0  0  0  0  0  0  0  0  0  0  0  0
   59.5230   29.0340   45.6960 C   0  0  0  0  0  0  0  0  0  0  0  0
   58.3910   28.6020   44.9800 C   0  0  0  0  0  0  0  0  0  0  0  0
   57.9640   29.2530   43.7690 N   0  0  0  0  0  0  0  0  0  0  0  0
   57.0260   30.7100   43.7390 S   0  0  0  0  0  0  0  0  0  0  0  0
   55.7740   30.5030   44.5460 O   0  0  0  0  0  0  0  0  0  0  0  0
   56.6490   31.0350   42.3200 O   0  0  0  0  0  0  0  0  0  0  0  0
   57.9540   32.0000   44.4360 N   0  0  0  0  0  0  0  0  0  0  0  0
   57.0910   32.8510   45.2530 C   0  0  0  0  0  0  0  0  0  0  0  0
   57.8800   34.0380   45.8330 C   0  0  2  0  0  0  0  0  0  0  0  0
   58.9000   34.5970   44.8280 C   0  0  0  0  0  0  0  0  0  0  0  0
   58.5130   33.6820   47.1690 C   0  0  0  0  0  0  0  0  0  0  0  0
   59.3960   34.5630   47.8280 C   0  0  0  0  0  0  0  0  0  0  0  0
   59.9930   34.1930   49.0370 C   0  0  0  0  0  0  0  0  0  0  0  0
   59.7270   32.9420   49.5990 C   0  0  0  0  0  0  0  0  0  0  0  0
   58.8640   32.0560   48.9500 C   0  0  0  0  0  0  0  0  0  0  0  0
   58.2650   32.4180   47.7410 C   0  0  0  0  0  0  0  0  0  0  0  0
   57.6590   27.5030   45.4590 C   0  0  0  0  0  0  0  0  0  0  0  0
   55.6330   24.8500   45.4680 C   0  0  0  0  0  0  0  0  0  0  0  0
   54.7890   25.7030   45.8570 O   0  0  0  0  0  0  0  0  0  0  0  0
   55.2960   24.0030   44.4600 N   0  0  0  0  0  0  0  0  0  0  0  0
   56.1590   23.0600   44.0080 C   0  0  0  0  0  0  0  0  0  0  0  0
   55.8090   22.3000   43.0650 O   0  0  0  0  0  0  0  0  0  0  0  0
   58.8815   21.4195   44.9719 H   0  0  0  0  0  0  0  0  0  0  0  0
   57.8877   21.1596   43.4983 H   0  0  0  0  0  0  0  0  0  0  0  0
   59.1865   22.4005   43.4983 H   0  0  0  0  0  0  0  0  0  0  0  0
   58.7559   23.7627   46.0911 H   0  0  0  0  0  0  0  0  0  0  0  0
   56.3399   26.0445   47.6434 H   0  0  0  0  0  0  0  0  0  0  0  0
   57.8657   25.1108   47.8730 H   0  0  0  0  0  0  0  0  0  0  0  0
   59.4771   26.7843   48.2683 H   0  0  0  0  0  0  0  0  0  0  0  0
   60.7922   28.7236   47.4237 H   0  0  0  0  0  0  0  0  0  0  0  0
   60.1080   29.8909   45.3306 H   0  0  0  0  0  0  0  0  0  0  0  0
   58.1760   28.8060   42.8500 H   0  0  0  0  0  0  0  0  0  0  0  0
   56.2696   33.2346   44.6300 H   0  0  0  0  0  0  0  0  0  0  0  0
   56.6942   32.2522   46.0861 H   0  0  0  0  0  0  0  0  0  0  0  0
   57.1629   34.8496   46.0254 H   0  0  0  0  0  0  0  0  0  0  0  0
   59.7379   35.0562   45.3730 H   0  0  0  0  0  0  0  0  0  0  0  0
   59.2777   33.7798   44.1959 H   0  0  0  0  0  0  0  0  0  0  0  0
   58.4144   35.3550   44.1959 H   0  0  0  0  0  0  0  0  0  0  0  0
   59.6161   35.5469   47.3881 H   0  0  0  0  0  0  0  0  0  0  0  0
   60.6745   34.8894   49.5474 H   0  0  0  0  0  0  0  0  0  0  0  0
   60.1966   32.6551   50.5514 H   0  0  0  0  0  0  0  0  0  0  0  0
   58.6555   31.0706   49.3921 H   0  0  0  0  0  0  0  0  0  0  0  0
   57.5943   31.7107   47.2313 H   0  0  0  0  0  0  0  0  0  0  0  0
   56.7709   27.1592   44.9085 H   0  0  0  0  0  0  0  0  0  0  0  0
  1  2  1  0
  2  3  2  0
  3  4  1  0
  4  5  1  0
  5  6  1  0
  6  7  2  0
  7  8  1  0
  8  9  2  0
  9 10  1  0
 10 11  1  0
 11 12  1  0
 12 13  2  0
 12 14  2  0
 12 15  1  0
 15 16  1  0
 16 17  1  0
 17 18  1  0
 17 19  1  0
 19 20  2  0
 20 21  1  0
 21 22  2  0
 22 23  1  0
 23 24  2  0
 10 25  2  0
  4 26  1  0
 26 27  2  0
 26 28  1  0
 28 29  1  0
 29 30  2  0
 29  2  1  0
 25  6  1  0
 24 19  1  0
  1 31  1  0
  1 32  1  0
  1 33  1  0
  3 34  1  0
  5 35  1  0
  5 36  1  0
  7 37  1  0
  8 38  1  0
  9 39  1  0
 11 40  1  0
 16 41  1  0
 16 42  1  0
 17 43  1  1
 18 44  1  0
 18 45  1  0
 18 46  1  0
 20 47  1  0
 21 48  1  0
 22 49  1  0
 23 50  1  0
 24 51  1  0
 25 52  1  0
M  CHG  2  15  -1  28  -1
M  END
>  <UniqueID>  (45) 
43

>  <SMILES>  (45) 
Cc1cn(Cc2cccc(NS(=O)(=O)[N-]C[C@H](C)c3ccccc3)c2)c(=O)[n-]c1=O

>  <Energy>  (45) 
53.37657895553596

>  <Genealogy>  (45) 
Cc1cn(Cc2cccc(NS(=O)(=O)[N-]CC(C)c3ccccc3)c2)c(=O)[n-]c1=O (protonated)
Cc1cn(Cc2cccc(NS(=O)(=O)[N-]C[C@H](C)c3ccccc3)c2)c(=O)[n-]c1=O (chirality)
Cc1cn(Cc2cccc(NS(=O)(=O)[N-]C[C@H](C)c3ccccc3)c2)c(=O)[n-]c1=O (3D coordinates assigned)
Cc1cn(Cc2cccc(NS(=O)(=O)[N-]C[C@H](C)c3ccccc3)c2)c(=O)[n-]c1=O (optimized conformer: 53.37657895553596 kcal/mol)

>  <smiles>  (45) 
Cc1cn(Cc2cccc(NS(=O)(=O)NCC(C)c3ccccc3)c2)c(=O)[nH]c1=O

>  <score_type>  (45) 
oracle

>  <origin>  (45) 
adg

>  <m_score__min__energy>  (45) 
-13.94

>  <m_primary>  (45) 
energy

$$$$
45:0
     RDKit          3D

 40 42  0  0  0  0  0  0  0  0999 V2000
   52.5770   22.9720   45.0750 O   0  0  0  0  0  0  0  0  0  0  0  0
   53.6300   23.6350   45.2630 C   0  0  0  0  0  0  0  0  0  0  0  0
   53.6270   24.9580   45.5290 N   0  0  0  0  0  0  0  0  0  0  0  0
   54.8940   25.4260   45.6890 C   0  0  0  0  0  0  0  0  0  0  0  0
   55.1530   26.7600   45.9850 O   0  0  0  0  0  0  0  0  0  0  0  0
   55.9040   24.4800   45.5290 C   0  0  0  0  0  0  0  0  0  0  0  0
   57.3400   24.7270   45.7490 C   0  0  0  0  0  0  0  0  0  0  0  0
   58.0810   25.6010   45.0550 C   0  0  0  0  0  0  0  0  0  0  0  0
   57.5370   26.7790   44.2870 C   0  0  0  0  0  0  0  0  0  0  0  0
   58.1860   28.0750   44.7140 C   0  0  0  0  0  0  0  0  0  0  0  0
   59.5750   28.1310   44.9080 C   0  0  0  0  0  0  0  0  0  0  0  0
   60.1870   29.3230   45.2910 C   0  0  0  0  0  0  0  0  0  0  0  0
   59.4220   30.4690   45.5080 C   0  0  0  0  0  0  0  0  0  0  0  0
   58.0260   30.4300   45.3450 C   0  0  0  0  0  0  0  0  0  0  0  0
   57.2050   31.5860   45.5660 N   0  0  0  0  0  0  0  0  0  0  0  0
   57.7020   33.2300   45.3270 S   0  0  0  0  0  0  0  0  0  0  0  0
   58.1380   33.4160   43.9000 O   0  0  0  0  0  0  0  0  0  0  0  0
   56.5400   34.1400   45.6000 O   0  0  0  0  0  0  0  0  0  0  0  0
   59.0070   33.6230   46.4410 C   0  0  0  0  0  0  0  0  0  0  0  0
   60.2960   33.9080   45.9670 C   0  0  0  0  0  0  0  0  0  0  0  0
   61.3250   34.2030   46.8660 C   0  0  0  0  0  0  0  0  0  0  0  0
   61.0730   34.2180   48.2400 C   0  0  0  0  0  0  0  0  0  0  0  0
   59.7890   33.9370   48.7170 C   0  0  0  0  0  0  0  0  0  0  0  0
   58.7570   33.6400   47.8190 C   0  0  0  0  0  0  0  0  0  0  0  0
   57.4130   29.2310   44.9510 C   0  0  0  0  0  0  0  0  0  0  0  0
   56.0290   29.1900   44.8010 O   0  0  0  0  0  0  0  0  0  0  0  0
   55.1810   22.9860   45.2240 S   0  0  0  0  0  0  0  0  0  0  0  0
   55.1330   27.4650   45.2560 H   0  0  0  0  0  0  0  0  0  0  0  0
   57.8404   24.1512   46.5415 H   0  0  0  0  0  0  0  0  0  0  0  0
   59.1702   25.4474   45.0446 H   0  0  0  0  0  0  0  0  0  0  0  0
   57.7256   26.6227   43.2146 H   0  0  0  0  0  0  0  0  0  0  0  0
   56.4588   26.8526   44.4921 H   0  0  0  0  0  0  0  0  0  0  0  0
   60.1846   27.2279   44.7567 H   0  0  0  0  0  0  0  0  0  0  0  0
   61.2784   29.3603   45.4228 H   0  0  0  0  0  0  0  0  0  0  0  0
   59.9127   31.4067   45.8078 H   0  0  0  0  0  0  0  0  0  0  0  0
   60.4976   33.8994   44.8857 H   0  0  0  0  0  0  0  0  0  0  0  0
   62.3352   34.4238   46.4908 H   0  0  0  0  0  0  0  0  0  0  0  0
   61.8839   34.4506   48.9459 H   0  0  0  0  0  0  0  0  0  0  0  0
   59.5897   33.9493   49.7987 H   0  0  0  0  0  0  0  0  0  0  0  0
   57.7476   33.4195   48.1964 H   0  0  0  0  0  0  0  0  0  0  0  0
  1  2  2  0
  2  3  1  0
  3  4  1  0
  4  5  1  0
  4  6  2  0
  6  7  1  0
  7  8  2  3
  8  9  1  0
  9 10  1  0
 10 11  2  0
 11 12  1  0
 12 13  2  0
 13 14  1  0
 14 15  1  0
 15 16  1  0
 16 17  2  0
 16 18  2  0
 16 19  1  0
 19 20  2  0
 20 21  1  0
 21 22  2  0
 22 23  1  0
 23 24  2  0
 14 25  2  0
 25 26  1  0
  6 27  1  0
 27  2  1  0
 25 10  1  0
 24 19  1  0
  5 28  1  0
  7 29  1  0
  8 30  1  0
  9 31  1  0
  9 32  1  0
 11 33  1  0
 12 34  1  0
 13 35  1  0
 20 36  1  0
 21 37  1  0
 22 38  1  0
 23 39  1  0
 24 40  1  0
M  CHG  3   3  -1  15  -1  26  -1
M  END
>  <UniqueID>  (46) 
44

>  <SMILES>  (46) 
O=c1[n-]c(O)c(C=CCc2cccc([N-]S(=O)(=O)c3ccccc3)c2[O-])s1

>  <Energy>  (46) 
80.06387059895191

>  <Genealogy>  (46) 
O=c1[n-]c(O)c(C=CCc2cccc([N-]S(=O)(=O)c3ccccc3)c2[O-])s1 (protonated)
O=c1[n-]c(O)c(C=CCc2cccc([N-]S(=O)(=O)c3ccccc3)c2[O-])s1 (3D coordinates assigned)
O=c1[n-]c(O)c(C=CCc2cccc([N-]S(=O)(=O)c3ccccc3)c2[O-])s1 (optimized conformer: 80.06387059895191 kcal/mol)

>  <smiles>  (46) 
O=c1[nH]c(O)c(C=CCc2cccc(NS(=O)(=O)c3ccccc3)c2O)s1

>  <score_type>  (46) 
oracle

>  <origin>  (46) 
adg

>  <m_score__min__energy>  (46) 
-15.51

>  <m_primary>  (46) 
energy

$$$$
46:0
     RDKit          3D

 43 44  0  0  0  0  0  0  0  0999 V2000
   62.8400   33.6800   46.7970 C   0  0  0  0  0  0  0  0  0  0  0  0
   61.6100   32.8340   47.1100 C   0  0  0  0  0  0  0  0  0  0  0  0
   60.3660   33.4990   46.5950 C   0  0  0  0  0  0  0  0  0  0  0  0
   60.3430   34.7750   46.1580 N   0  0  0  0  0  0  0  0  0  0  0  0
   59.1770   34.9760   45.6120 O   0  0  0  0  0  0  0  0  0  0  0  0
   58.4370   33.8910   45.6540 C   0  0  0  0  0  0  0  0  0  0  0  0
   57.0670   33.7860   45.0650 C   0  0  0  0  0  0  0  0  0  0  0  0
   59.1570   32.8930   46.2860 C   0  0  0  0  0  0  0  0  0  0  0  0
   58.7500   31.4930   46.5070 C   0  0  0  0  0  0  0  0  0  0  0  0
   58.1480   31.1950   47.5740 O   0  0  0  0  0  0  0  0  0  0  0  0
   59.0390   30.4660   45.5350 N   0  0  0  0  0  0  0  0  0  0  0  0
   60.2930   29.7050   45.6420 C   0  0  0  0  0  0  0  0  0  0  0  0
   60.3500   28.6040   44.5890 C   0  0  0  0  0  0  0  0  0  0  0  0
   58.1560   30.2550   44.3760 C   0  0  0  0  0  0  0  0  0  0  0  0
   56.7450   30.0290   44.8240 C   0  0  0  0  0  0  0  0  0  0  0  0
   55.9220   30.9850   44.8060 O   0  0  0  0  0  0  0  0  0  0  0  0
   56.3440   28.7170   45.2440 N   0  0  0  0  0  0  0  0  0  0  0  0
   57.1870   27.7000   45.8040 C   0  0  0  0  0  0  0  0  0  0  0  0
   57.8950   27.8930   47.0060 C   0  0  0  0  0  0  0  0  0  0  0  0
   58.7460   26.8930   47.4890 C   0  0  0  0  0  0  0  0  0  0  0  0
   58.9120   25.7050   46.7700 C   0  0  0  0  0  0  0  0  0  0  0  0
   58.2340   25.5190   45.5620 C   0  0  0  0  0  0  0  0  0  0  0  0
   58.4100   24.3750   44.8550 F   0  0  0  0  0  0  0  0  0  0  0  0
   57.3780   26.5150   45.0790 C   0  0  0  0  0  0  0  0  0  0  0  0
   63.3110   34.0040   47.7368 H   0  0  0  0  0  0  0  0  0  0  0  0
   63.5570   33.0831   46.2142 H   0  0  0  0  0  0  0  0  0  0  0  0
   62.5390   34.5631   46.2142 H   0  0  0  0  0  0  0  0  0  0  0  0
   61.7176   31.8490   46.6322 H   0  0  0  0  0  0  0  0  0  0  0  0
   61.5258   32.7207   48.2009 H   0  0  0  0  0  0  0  0  0  0  0  0
   56.3236   33.7290   45.8737 H   0  0  0  0  0  0  0  0  0  0  0  0
   56.8661   34.6714   44.4439 H   0  0  0  0  0  0  0  0  0  0  0  0
   57.0033   32.8803   44.4439 H   0  0  0  0  0  0  0  0  0  0  0  0
   61.1428   30.3880   45.4959 H   0  0  0  0  0  0  0  0  0  0  0  0
   60.3405   29.2422   46.6388 H   0  0  0  0  0  0  0  0  0  0  0  0
   60.4007   27.6238   45.0857 H   0  0  0  0  0  0  0  0  0  0  0  0
   59.4482   28.6504   43.9608 H   0  0  0  0  0  0  0  0  0  0  0  0
   61.2421   28.7433   43.9608 H   0  0  0  0  0  0  0  0  0  0  0  0
   58.1918   31.1429   43.7276 H   0  0  0  0  0  0  0  0  0  0  0  0
   58.4999   29.3676   43.8245 H   0  0  0  0  0  0  0  0  0  0  0  0
   57.7786   28.8323   47.5665 H   0  0  0  0  0  0  0  0  0  0  0  0
   59.2855   27.0415   48.4360 H   0  0  0  0  0  0  0  0  0  0  0  0
   59.5760   24.9171   47.1551 H   0  0  0  0  0  0  0  0  0  0  0  0
   56.8516   26.3674   44.1245 H   0  0  0  0  0  0  0  0  0  0  0  0
  1  2  1  0
  2  3  1  0
  3  4  2  0
  4  5  1  0
  5  6  1  0
  6  7  1  0
  6  8  2  0
  8  9  1  0
  9 10  2  0
  9 11  1  0
 11 12  1  0
 12 13  1  0
 11 14  1  0
 14 15  1  0
 15 16  2  0
 15 17  1  0
 17 18  1  0
 18 19  2  0
 19 20  1  0
 20 21  2  0
 21 22  1  0
 22 23  1  0
 22 24  2  0
  8  3  1  0
 24 18  1  0
  1 25  1  0
  1 26  1  0
  1 27  1  0
  2 28  1  0
  2 29  1  0
  7 30  1  0
  7 31  1  0
  7 32  1  0
 12 33  1  0
 12 34  1  0
 13 35  1  0
 13 36  1  0
 13 37  1  0
 14 38  1  0
 14 39  1  0
 19 40  1  0
 20 41  1  0
 21 42  1  0
 24 43  1  0
M  CHG  1  17  -1
M  END
>  <UniqueID>  (47) 
45

>  <SMILES>  (47) 
CCc1noc(C)c1C(=O)N(CC)CC(=O)[N-]c1cccc(F)c1

>  <Energy>  (47) 
70.16501564824053

>  <Genealogy>  (47) 
CCc1noc(C)c1C(=O)N(CC)CC(=O)[N-]c1cccc(F)c1 (protonated)
CCc1noc(C)c1C(=O)N(CC)CC(=O)[N-]c1cccc(F)c1 (3D coordinates assigned)
CCc1noc(C)c1C(=O)N(CC)CC(=O)[N-]c1cccc(F)c1 (optimized conformer: 70.16501564824053 kcal/mol)

>  <smiles>  (47) 
CCc1noc(C)c1C(=O)N(CC)CC(=O)Nc1cccc(F)c1

>  <score_type>  (47) 
oracle

>  <origin>  (47) 
adg

>  <m_score__min__energy>  (47) 
-9.2300000000000004

>  <m_primary>  (47) 
energy

$$$$
47:0
     RDKit          3D

 35 37  0  0  0  0  0  0  0  0999 V2000
   63.5430   33.1480   47.0740 C   0  0  0  0  0  0  0  0  0  0  0  0
   62.1370   33.5560   47.4010 C   0  0  0  0  0  0  0  0  0  0  0  0
   61.7450   33.7290   48.7360 C   0  0  0  0  0  0  0  0  0  0  0  0
   60.4540   34.1650   49.0390 C   0  0  0  0  0  0  0  0  0  0  0  0
   59.5450   34.4340   48.0130 C   0  0  0  0  0  0  0  0  0  0  0  0
   59.9160   34.2590   46.6750 C   0  0  0  0  0  0  0  0  0  0  0  0
   58.9610   34.5760   45.6510 N   0  0  0  0  0  0  0  0  0  0  0  0
   57.8250   33.7880   45.2630 C   0  0  0  0  0  0  0  0  0  0  0  0
   56.6610   34.1670   45.5580 O   0  0  0  0  0  0  0  0  0  0  0  0
   57.9810   32.5920   44.4860 N   0  0  0  0  0  0  0  0  0  0  0  0
   57.4350   31.4310   44.7100 C   0  0  0  0  0  0  0  0  0  0  0  0
   56.3550   30.9880   44.0030 N   0  0  0  0  0  0  0  0  0  0  0  0
   55.8060   29.7620   44.2630 C   0  0  0  0  0  0  0  0  0  0  0  0
   54.7830   29.3630   43.5800 N   0  0  0  0  0  0  0  0  0  0  0  0
   56.3340   28.9620   45.2370 N   0  0  0  0  0  0  0  0  0  0  0  0
   57.4050   29.4220   45.9240 C   0  0  0  0  0  0  0  0  0  0  0  0
   58.0470   28.7720   46.9090 N   0  0  0  0  0  0  0  0  0  0  0  0
   59.0100   29.6810   47.2190 C   0  0  0  0  0  0  0  0  0  0  0  0
   60.2010   29.4190   48.4780 S   0  0  0  0  0  0  0  0  0  0  0  0
   61.4610   30.5930   48.3370 N   0  0  0  0  0  0  0  0  0  0  0  0
   60.7810   28.0400   48.3370 O   0  0  0  0  0  0  0  0  0  0  0  0
   59.5410   29.5370   49.8230 O   0  0  0  0  0  0  0  0  0  0  0  0
   58.9570   30.8120   46.4750 N   0  0  0  0  0  0  0  0  0  0  0  0
   57.9340   30.6140   45.6680 N   0  0  0  0  0  0  0  0  0  0  0  0
   61.2270   33.8440   46.3710 C   0  0  0  0  0  0  0  0  0  0  0  0
   64.1038   32.9853   48.0062 H   0  0  0  0  0  0  0  0  0  0  0  0
   63.5278   32.2172   46.4880 H   0  0  0  0  0  0  0  0  0  0  0  0
   64.0284   33.9423   46.4880 H   0  0  0  0  0  0  0  0  0  0  0  0
   62.4575   33.5204   49.5477 H   0  0  0  0  0  0  0  0  0  0  0  0
   60.1517   34.2971   50.0884 H   0  0  0  0  0  0  0  0  0  0  0  0
   58.5319   34.7854   48.2581 H   0  0  0  0  0  0  0  0  0  0  0  0
   54.8860   28.9800   42.6140 H   0  0  0  0  0  0  0  0  0  0  0  0
   61.1440   31.2990   47.6350 H   0  0  0  0  0  0  0  0  0  0  0  0
   62.2880   30.1060   47.9230 H   0  0  0  0  0  0  0  0  0  0  0  0
   61.5398   33.7449   45.3211 H   0  0  0  0  0  0  0  0  0  0  0  0
  1  2  1  0
  2  3  2  0
  3  4  1  0
  4  5  2  0
  5  6  1  0
  6  7  1  0
  7  8  1  0
  8  9  2  0
  8 10  1  0
 10 11  2  3
 11 12  1  0
 12 13  1  0
 13 14  2  3
 13 15  1  0
 15 16  2  0
 16 17  1  0
 17 18  1  0
 18 19  1  0
 19 20  1  0
 19 21  2  0
 19 22  2  0
 18 23  2  0
 23 24  1  0
  6 25  2  0
 25  2  1  0
 24 11  1  0
 24 16  1  0
  1 26  1  0
  1 27  1  0
  1 28  1  0
  3 29  1  0
  4 30  1  0
  5 31  1  0
 14 32  1  0
 20 33  1  0
 20 34  1  0
 25 35  1  0
M  CHG  3   7  -1  12  -1  17  -1
M  END
>  <UniqueID>  (48) 
46

>  <SMILES>  (48) 
Cc1cccc([N-]C(=O)N=c2[n-]c(=N)nc3[n-]c(S(N)(=O)=O)nn23)c1

>  <Energy>  (48) 
81.40499721148016

>  <Genealogy>  (48) 
Cc1cccc([N-]C(=O)N=c2[n-]c(=N)nc3[n-]c(S(N)(=O)=O)nn23)c1 (protonated)
Cc1cccc([N-]C(=O)N=c2[n-]c(=N)nc3[n-]c(S(N)(=O)=O)nn23)c1 (3D coordinates assigned)
Cc1cccc([N-]C(=O)N=c2[n-]c(=N)nc3[n-]c(S(N)(=O)=O)nn23)c1 (optimized conformer: 81.40499721148016 kcal/mol)

>  <smiles>  (48) 
Cc1cccc(NC(=O)N=c2[nH]c(=N)nc3[nH]c(S(N)(=O)=O)nn23)c1

>  <score_type>  (48) 
oracle

>  <origin>  (48) 
adg

>  <m_score__min__energy>  (48) 
-10.67

>  <m_primary>  (48) 
energy

$$$$
48:0
     RDKit          3D

 36 38  0  0  0  0  0  0  0  0999 V2000
   55.1470   26.7120   46.2080 O   0  0  0  0  0  0  0  0  0  0  0  0
   55.8420   25.7660   45.7500 C   0  0  0  0  0  0  0  0  0  0  0  0
   55.2980   24.5190   45.3820 N   0  0  0  0  0  0  0  0  0  0  0  0
   56.4110   23.6890   44.9310 C   0  0  0  0  0  0  0  0  0  0  0  0
   57.6970   24.5240   45.1380 C   0  0  0  0  0  0  0  0  0  0  0  0
   57.2410   25.8350   45.5770 N   0  0  0  0  0  0  0  0  0  0  0  0
   58.0850   26.8840   46.0690 C   0  0  0  0  0  0  0  0  0  0  0  0
   58.8500   26.6650   47.2230 C   0  0  0  0  0  0  0  0  0  0  0  0
   59.6790   27.6680   47.7310 C   0  0  0  0  0  0  0  0  0  0  0  0
   60.6170   27.3450   49.1820 Cl  0  0  0  0  0  0  0  0  0  0  0  0
   59.7430   28.9100   47.0830 C   0  0  0  0  0  0  0  0  0  0  0  0
   60.7690   30.2030   47.6930 Cl  0  0  0  0  0  0  0  0  0  0  0  0
   58.9860   29.1360   45.9300 C   0  0  0  0  0  0  0  0  0  0  0  0
   58.1610   28.1260   45.3990 C   0  0  0  0  0  0  0  0  0  0  0  0
   57.4230   28.3390   44.1780 N   0  0  0  0  0  0  0  0  0  0  0  0
   56.3700   29.6950   43.9220 S   0  0  0  0  0  0  0  0  0  0  0  0
   55.1910   29.5830   44.8490 O   0  0  0  0  0  0  0  0  0  0  0  0
   55.8780   29.6810   42.5030 O   0  0  0  0  0  0  0  0  0  0  0  0
   57.2460   31.1960   44.2030 C   0  0  0  0  0  0  0  0  0  0  0  0
   57.7750   31.9070   43.1160 C   0  0  0  0  0  0  0  0  0  0  0  0
   58.4890   33.0890   43.3320 C   0  0  0  0  0  0  0  0  0  0  0  0
   58.6750   33.5680   44.6320 C   0  0  0  0  0  0  0  0  0  0  0  0
   58.1460   32.8650   45.7190 C   0  0  0  0  0  0  0  0  0  0  0  0
   57.4310   31.6810   45.5060 C   0  0  0  0  0  0  0  0  0  0  0  0
   56.4594   22.7640   45.5243 H   0  0  0  0  0  0  0  0  0  0  0  0
   56.2898   23.4019   43.8761 H   0  0  0  0  0  0  0  0  0  0  0  0
   58.3362   24.0623   45.9049 H   0  0  0  0  0  0  0  0  0  0  0  0
   58.2963   24.5867   44.2177 H   0  0  0  0  0  0  0  0  0  0  0  0
   58.7969   25.6925   47.7343 H   0  0  0  0  0  0  0  0  0  0  0  0
   59.0353   30.1151   45.4312 H   0  0  0  0  0  0  0  0  0  0  0  0
   57.6180   27.7500   43.3400 H   0  0  0  0  0  0  0  0  0  0  0  0
   57.6278   31.5338   42.0918 H   0  0  0  0  0  0  0  0  0  0  0  0
   58.9052   33.6431   42.4777 H   0  0  0  0  0  0  0  0  0  0  0  0
   59.2376   34.4982   44.8000 H   0  0  0  0  0  0  0  0  0  0  0  0
   58.2919   33.2428   46.7417 H   0  0  0  0  0  0  0  0  0  0  0  0
   57.0135   31.1300   46.3616 H   0  0  0  0  0  0  0  0  0  0  0  0
  1  2  2  0
  2  3  1  0
  3  4  1  0
  4  5  1  0
  5  6  1  0
  6  7  1  0
  7  8  2  0
  8  9  1  0
  9 10  1  0
  9 11  2  0
 11 12  1  0
 11 13  1  0
 13 14  2  0
 14 15  1  0
 15 16  1  0
 16 17  2  0
 16 18  2  0
 16 19  1  0
 19 20  2  0
 20 21  1  0
 21 22  2  0
 22 23  1  0
 23 24  2  0
  6  2  1  0
 14  7  1  0
 24 19  1  0
  4 25  1  0
  4 26  1  0
  5 27  1  0
  5 28  1  0
  8 29  1  0
 13 30  1  0
 15 31  1  0
 20 32  1  0
 21 33  1  0
 22 34  1  0
 23 35  1  0
 24 36  1  0
M  CHG  1   3  -1
M  END
>  <UniqueID>  (49) 
47

>  <SMILES>  (49) 
O=C1[N-]CCN1c1cc(Cl)c(Cl)cc1NS(=O)(=O)c1ccccc1

>  <Energy>  (49) 
61.8275737809556

>  <Genealogy>  (49) 
O=C1[N-]CCN1c1cc(Cl)c(Cl)cc1NS(=O)(=O)c1ccccc1 (protonated)
O=C1[N-]CCN1c1cc(Cl)c(Cl)cc1NS(=O)(=O)c1ccccc1 (3D coordinates assigned)
O=C1[N-]CCN1c1cc(Cl)c(Cl)cc1NS(=O)(=O)c1ccccc1 (nonaromatic ring conformer: 61.8275737809556 kcal/mol)

>  <smiles>  (49) 
O=C1NCCN1c1cc(Cl)c(Cl)cc1NS(=O)(=O)c1ccccc1

>  <score_type>  (49) 
oracle

>  <origin>  (49) 
adg

>  <m_score__min__energy>  (49) 
-10.59

>  <m_primary>  (49) 
energy

$$$$
49:0
     RDKit          3D

 45 47  0  0  0  0  0  0  0  0999 V2000
   58.7030   30.9630   47.2610 N   0  0  0  0  0  0  0  0  0  0  0  0
   58.4440   32.3780   46.3020 S   0  0  0  0  0  0  0  0  0  0  0  0
   57.4060   33.2520   46.9510 O   0  0  0  0  0  0  0  0  0  0  0  0
   59.7320   33.1510   46.2090 O   0  0  0  0  0  0  0  0  0  0  0  0
   57.8960   31.9080   44.6870 C   0  0  0  0  0  0  0  0  0  0  0  0
   58.1070   32.7780   43.6050 C   0  0  0  0  0  0  0  0  0  0  0  0
   57.6800   32.4270   42.3230 C   0  0  0  0  0  0  0  0  0  0  0  0
   57.0350   31.2110   42.1100 C   0  0  0  0  0  0  0  0  0  0  0  0
   56.8250   30.3340   43.1760 C   0  0  0  0  0  0  0  0  0  0  0  0
   57.2580   30.6700   44.4740 C   0  0  0  0  0  0  0  0  0  0  0  0
   57.0630   29.7770   45.5810 N   0  0  0  0  0  0  0  0  0  0  0  0
   58.1320   28.4910   46.0400 S   0  0  0  0  0  0  0  0  0  0  0  0
   58.2110   28.4260   47.5390 O   0  0  0  0  0  0  0  0  0  0  0  0
   59.5060   28.7660   45.4930 O   0  0  0  0  0  0  0  0  0  0  0  0
   57.5030   26.9610   45.4400 C   0  0  0  0  0  0  0  0  0  0  0  0
   56.5950   26.2340   46.2190 C   0  0  0  0  0  0  0  0  0  0  0  0
   56.0890   25.0160   45.7580 C   0  0  0  0  0  0  0  0  0  0  0  0
   56.4950   24.5040   44.5150 C   0  0  0  0  0  0  0  0  0  0  0  0
   55.9830   23.1690   44.0350 C   0  0  0  0  0  0  0  0  0  0  0  0
   54.5740   22.9870   44.3840 N   0  0  0  0  0  0  0  0  0  0  0  0
   54.0650   22.5070   45.6380 C   0  0  0  0  0  0  0  0  0  0  0  0
   52.8490   22.1900   45.7140 O   0  0  0  0  0  0  0  0  0  0  0  0
   54.9240   22.3180   46.8180 C   0  0  0  0  0  0  0  0  0  0  0  0
   54.4190   22.4340   48.1180 C   0  0  0  0  0  0  0  0  0  0  0  0
   55.2790   22.2610   49.2000 C   0  0  0  0  0  0  0  0  0  0  0  0
   56.6200   21.9610   48.9600 C   0  0  0  0  0  0  0  0  0  0  0  0
   57.4210   21.8060   49.9200 O   0  0  0  0  0  0  0  0  0  0  0  0
   57.0580   21.8290   47.6810 N   0  0  0  0  0  0  0  0  0  0  0  0
   56.2340   21.9970   46.6440 N   0  0  0  0  0  0  0  0  0  0  0  0
   57.3900   25.2450   43.7260 C   0  0  0  0  0  0  0  0  0  0  0  0
   57.8960   26.4640   44.1890 C   0  0  0  0  0  0  0  0  0  0  0  0
   57.7600   30.5780   47.4940 H   0  0  0  0  0  0  0  0  0  0  0  0
   59.1710   30.2560   46.6490 H   0  0  0  0  0  0  0  0  0  0  0  0
   58.6116   33.7416   43.7685 H   0  0  0  0  0  0  0  0  0  0  0  0
   57.8532   33.1118   41.4798 H   0  0  0  0  0  0  0  0  0  0  0  0
   56.6906   30.9412   41.1007 H   0  0  0  0  0  0  0  0  0  0  0  0
   56.3178   29.3737   43.0012 H   0  0  0  0  0  0  0  0  0  0  0  0
   56.2787   26.6233   47.1980 H   0  0  0  0  0  0  0  0  0  0  0  0
   55.3688   24.4552   46.3719 H   0  0  0  0  0  0  0  0  0  0  0  0
   56.0919   23.1148   42.9417 H   0  0  0  0  0  0  0  0  0  0  0  0
   56.5682   22.3754   44.5225 H   0  0  0  0  0  0  0  0  0  0  0  0
   53.3551   22.6592   48.2835 H   0  0  0  0  0  0  0  0  0  0  0  0
   54.9057   22.3596   50.2300 H   0  0  0  0  0  0  0  0  0  0  0  0
   57.6944   24.8650   42.7396 H   0  0  0  0  0  0  0  0  0  0  0  0
   58.6042   27.0344   43.5701 H   0  0  0  0  0  0  0  0  0  0  0  0
  1  2  1  0
  2  3  2  0
  2  4  2  0
  2  5  1  0
  5  6  2  0
  6  7  1  0
  7  8  2  0
  8  9  1  0
  9 10  2  0
 10 11  1  0
 11 12  1  0
 12 13  2  0
 12 14  2  0
 12 15  1  0
 15 16  2  0
 16 17  1  0
 17 18  2  0
 18 19  1  0
 19 20  1  0
 20 21  1  0
 21 22  2  0
 21 23  1  0
 23 24  1  0
 24 25  2  0
 25 26  1  0
 26 27  2  0
 26 28  1  0
 28 29  1  0
 18 30  1  0
 30 31  2  0
 10  5  1  0
 31 15  1  0
 29 23  2  0
  1 32  1  0
  1 33  1  0
  6 34  1  0
  7 35  1  0
  8 36  1  0
  9 37  1  0
 16 38  1  0
 17 39  1  0
 19 40  1  0
 19 41  1  0
 24 42  1  0
 25 43  1  0
 30 44  1  0
 31 45  1  0
M  CHG  3  11  -1  20  -1  28  -1
M  END
>  <UniqueID>  (50) 
48

>  <SMILES>  (50) 
NS(=O)(=O)c1ccccc1[N-]S(=O)(=O)c1ccc(C[N-]C(=O)c2ccc(=O)[n-]n2)cc1

>  <Energy>  (50) 
54.04562658375334

>  <Genealogy>  (50) 
NS(=O)(=O)c1ccccc1[N-]S(=O)(=O)c1ccc(C[N-]C(=O)c2ccc(=O)[n-]n2)cc1 (protonated)
NS(=O)(=O)c1ccccc1[N-]S(=O)(=O)c1ccc(C[N-]C(=O)c2ccc(=O)[n-]n2)cc1 (3D coordinates assigned)
NS(=O)(=O)c1ccccc1[N-]S(=O)(=O)c1ccc(C[N-]C(=O)c2ccc(=O)[n-]n2)cc1 (optimized conformer: 54.04562658375334 kcal/mol)

>  <smiles>  (50) 
NS(=O)(=O)c1ccccc1NS(=O)(=O)c1ccc(CNC(=O)c2ccc(=O)[nH]n2)cc1

>  <score_type>  (50) 
oracle

>  <origin>  (50) 
adg

>  <m_score__min__energy>  (50) 
-13.359999999999999

>  <m_primary>  (50) 
energy

$$$$
50:0
     RDKit          3D

 33 34  0  0  0  0  0  0  0  0999 V2000
   58.9390   34.5400   45.2810 C   0  0  0  0  0  0  0  0  0  0  0  0
   58.4270   33.2260   44.7490 C   0  0  0  0  0  0  0  0  0  0  0  0
   58.2530   33.0820   43.3630 C   0  0  0  0  0  0  0  0  0  0  0  0
   57.7590   31.8930   42.8300 C   0  0  0  0  0  0  0  0  0  0  0  0
   57.4590   30.8230   43.6680 C   0  0  0  0  0  0  0  0  0  0  0  0
   57.6510   30.9250   45.0500 C   0  0  0  0  0  0  0  0  0  0  0  0
   57.3780   29.7660   45.8520 N   0  0  0  0  0  0  0  0  0  0  0  0
   56.6420   28.6080   45.4300 C   0  0  0  0  0  0  0  0  0  0  0  0
   55.5240   28.7740   44.8760 O   0  0  0  0  0  0  0  0  0  0  0  0
   57.1770   27.2290   45.5900 C   0  0  0  0  0  0  0  0  0  0  0  0
   58.5580   26.9470   45.4940 C   0  0  0  0  0  0  0  0  0  0  0  0
   59.5740   28.0290   45.2380 C   0  0  0  0  0  0  0  0  0  0  0  0
   58.9860   25.6640   45.6610 N   0  0  0  0  0  0  0  0  0  0  0  0
   58.1020   24.6630   45.9090 C   0  0  0  0  0  0  0  0  0  0  0  0
   58.5120   23.4800   46.0450 O   0  0  0  0  0  0  0  0  0  0  0  0
   56.8090   24.9260   46.0200 O   0  0  0  0  0  0  0  0  0  0  0  0
   56.3210   26.1520   45.8840 C   0  0  0  0  0  0  0  0  0  0  0  0
   55.0870   26.3370   46.0520 O   0  0  0  0  0  0  0  0  0  0  0  0
   58.0730   32.1580   45.6150 C   0  0  0  0  0  0  0  0  0  0  0  0
   58.1240   32.3470   47.1110 C   0  0  0  0  0  0  0  0  0  0  0  0
   58.9307   34.5186   46.3808 H   0  0  0  0  0  0  0  0  0  0  0  0
   59.9669   34.7041   44.9252 H   0  0  0  0  0  0  0  0  0  0  0  0
   58.2931   35.3563   44.9252 H   0  0  0  0  0  0  0  0  0  0  0  0
   58.5089   33.9152   42.6920 H   0  0  0  0  0  0  0  0  0  0  0  0
   57.6058   31.7999   41.7447 H   0  0  0  0  0  0  0  0  0  0  0  0
   57.0673   29.8886   43.2397 H   0  0  0  0  0  0  0  0  0  0  0  0
   59.9420   28.4209   46.1977 H   0  0  0  0  0  0  0  0  0  0  0  0
   60.4157   27.6134   44.6647 H   0  0  0  0  0  0  0  0  0  0  0  0
   59.1063   28.8430   44.6647 H   0  0  0  0  0  0  0  0  0  0  0  0
   60.0060   25.4370   45.5940 H   0  0  0  0  0  0  0  0  0  0  0  0
   57.8685   31.4001   47.6091 H   0  0  0  0  0  0  0  0  0  0  0  0
   59.1375   32.6554   47.4073 H   0  0  0  0  0  0  0  0  0  0  0  0
   57.4032   33.1233   47.4073 H   0  0  0  0  0  0  0  0  0  0  0  0
  1  2  1  0
  2  3  2  0
  3  4  1  0
  4  5  2  0
  5  6  1  0
  6  7  1  0
  7  8  1  0
  8  9  2  0
  8 10  1  0
 10 11  2  0
 11 12  1  0
 11 13  1  0
 13 14  1  0
 14 15  2  0
 14 16  1  0
 16 17  1  0
 17 18  2  0
  6 19  2  0
 19 20  1  0
 19  2  1  0
 17 10  1  0
  1 21  1  0
  1 22  1  0
  1 23  1  0
  3 24  1  0
  4 25  1  0
  5 26  1  0
 12 27  1  0
 12 28  1  0
 12 29  1  0
 13 30  1  0
 20 31  1  0
 20 32  1  0
 20 33  1  0
M  CHG  1   7  -1
M  END
>  <UniqueID>  (51) 
49

>  <SMILES>  (51) 
Cc1cccc([N-]C(=O)c2c(C)[nH]c(=O)oc2=O)c1C

>  <Energy>  (51) 
48.87986769894111

>  <Genealogy>  (51) 
Cc1cccc([N-]C(=O)c2c(C)[nH]c(=O)oc2=O)c1C (protonated)
Cc1cccc([N-]C(=O)c2c(C)[nH]c(=O)oc2=O)c1C (3D coordinates assigned)
Cc1cccc([N-]C(=O)c2c(C)[nH]c(=O)oc2=O)c1C (optimized conformer: 48.87986769894111 kcal/mol)

>  <smiles>  (51) 
Cc1cccc(NC(=O)c2c(C)[nH]c(=O)oc2=O)c1C

>  <score_type>  (51) 
oracle

>  <origin>  (51) 
adg

>  <m_score__min__energy>  (51) 
-8.9700000000000006

>  <m_primary>  (51) 
energy

$$$$
51:0
     RDKit          3D

 27 28  0  0  0  0  0  0  0  0999 V2000
   56.9910   30.5880   44.0050 H   0  0  0  0  0  0  0  0  0  0  0  0
   57.7580   30.0520   44.3930 O   0  0  0  0  0  0  0  0  0  0  0  0
   57.5590   28.8270   45.0270 C   0  0  0  0  0  0  0  0  0  0  0  0
   58.6690   28.0850   45.4400 C   0  0  0  0  0  0  0  0  0  0  0  0
   59.6827   28.4765   45.2692 H   0  0  0  0  0  0  0  0  0  0  0  0
   58.4990   26.8500   46.0680 C   0  0  0  0  0  0  0  0  0  0  0  0
   59.3791   26.2832   46.4059 H   0  0  0  0  0  0  0  0  0  0  0  0
   57.2140   26.3270   46.2710 C   0  0  0  0  0  0  0  0  0  0  0  0
   57.0790   25.0100   46.9310 C   0  0  0  0  0  0  0  0  0  0  0  0
   56.4310   24.9470   47.8176 H   0  0  0  0  0  0  0  0  0  0  0  0
   57.6910   23.8860   46.5250 C   0  0  0  0  0  0  0  0  0  0  0  0
   58.7259   23.7164   46.8570 H   0  0  0  0  0  0  0  0  0  0  0  0
   57.0650   22.8580   45.6590 C   0  0  0  0  0  0  0  0  0  0  0  0
   56.7280   21.5960   46.1960 C   0  0  0  0  0  0  0  0  0  0  0  0
   56.9670   21.2880   47.5880 C   0  0  0  0  0  0  0  0  0  0  0  0
   57.1580   21.0410   48.7020 N   0  0  0  0  0  0  0  0  0  0  0  0
   56.1260   20.6380   45.3700 C   0  0  0  0  0  0  0  0  0  0  0  0
   55.7590   19.3950   45.8770 O   0  0  0  0  0  0  0  0  0  0  0  0
   55.8950   20.9140   44.0620 N   0  0  0  0  0  0  0  0  0  0  0  0
   56.2400   22.1030   43.5040 C   0  0  0  0  0  0  0  0  0  0  0  0
   56.0180   22.2990   42.2800 O   0  0  0  0  0  0  0  0  0  0  0  0
   56.8440   23.0990   44.2850 C   0  0  0  0  0  0  0  0  0  0  0  0
   57.3870   24.5880   43.5070 Cl  0  0  0  0  0  0  0  0  0  0  0  0
   56.0910   27.0940   45.8970 C   0  0  0  0  0  0  0  0  0  0  0  0
   54.8030   26.6510   46.1800 O   0  0  0  0  0  0  0  0  0  0  0  0
   56.2650   28.3310   45.2620 C   0  0  0  0  0  0  0  0  0  0  0  0
   55.1510   29.0690   44.8760 O   0  0  0  0  0  0  0  0  0  0  0  0
  1  2  1  0
  2  3  1  0
  3  4  2  0
  4  5  1  0
  4  6  1  0
  6  7  1  0
  6  8  2  0
  8  9  1  0
  9 10  1  0
  9 11  2  0
 11 12  1  0
 11 13  1  0
 13 14  1  0
 14 15  1  0
 15 16  3  0
 14 17  2  0
 17 18  1  0
 17 19  1  0
 19 20  1  0
 20 21  2  0
 20 22  1  0
 22 23  1  0
  8 24  1  0
 24 25  1  0
 24 26  2  0
 26 27  1  0
 26  3  1  0
 22 13  2  0
M  CHG  4  18  -1  19  -1  25  -1  27  -1
M  END
>  <UniqueID>  (52) 
50

>  <SMILES>  (52) 
N#Cc1c([O-])[n-]c(=O)c(Cl)c1/C=C\c1ccc(O)c([O-])c1[O-]

>  <Energy>  (52) 
44.88734705242201

>  <Genealogy>  (52) 
N#Cc1c([O-])[n-]c(=O)c(Cl)c1C=Cc1ccc(O)c([O-])c1[O-] (protonated)
N#Cc1c([O-])[n-]c(=O)c(Cl)c1/C=C\c1ccc(O)c([O-])c1[O-] (cis-trans isomerization)
N#Cc1c([O-])[n-]c(=O)c(Cl)c1/C=C\c1ccc(O)c([O-])c1[O-] (3D coordinates assigned)
N#Cc1c([O-])[n-]c(=O)c(Cl)c1/C=C\c1ccc(O)c([O-])c1[O-] (optimized conformer: 44.88734705242201 kcal/mol)

>  <smiles>  (52) 
N#Cc1c(O)[nH]c(=O)c(Cl)c1C=Cc1ccc(O)c(O)c1O

>  <score_type>  (52) 
oracle

>  <origin>  (52) 
adg

>  <m_score__min__energy>  (52) 
-15.31

>  <m_primary>  (52) 
energy

$$$$
52:0
     RDKit          3D

 29 30  0  0  0  0  0  0  0  0999 V2000
   59.8020   28.2040   46.2220 C   0  0  0  0  0  0  0  0  0  0  0  0
   58.6580   27.5180   46.2530 C   0  0  0  0  0  0  0  0  0  0  0  0
   58.6270   26.2040   46.5670 N   0  0  0  0  0  0  0  0  0  0  0  0
   57.3320   25.8320   46.5050 C   0  0  0  0  0  0  0  0  0  0  0  0
   56.8830   24.5920   46.7510 C   0  0  0  0  0  0  0  0  0  0  0  0
   56.1930   23.7550   45.7450 C   0  0  0  0  0  0  0  0  0  0  0  0
   56.7930   22.8280   44.9740 N   0  0  0  0  0  0  0  0  0  0  0  0
   55.7830   22.3340   44.2280 C   0  0  0  0  0  0  0  0  0  0  0  0
   55.9540   21.4280   43.3700 O   0  0  0  0  0  0  0  0  0  0  0  0
   54.5760   22.8850   44.4730 N   0  0  0  0  0  0  0  0  0  0  0  0
   54.8480   23.7830   45.4340 C   0  0  0  0  0  0  0  0  0  0  0  0
   53.8750   24.6020   46.0030 O   0  0  0  0  0  0  0  0  0  0  0  0
   56.5440   26.9070   46.1520 C   0  0  0  0  0  0  0  0  0  0  0  0
   55.1620   26.8920   45.9930 O   0  0  0  0  0  0  0  0  0  0  0  0
   57.3730   27.9990   45.9860 C   0  0  0  0  0  0  0  0  0  0  0  0
   56.9280   29.3580   45.6040 C   0  0  0  0  0  0  0  0  0  0  0  0
   57.6490   30.3640   45.8460 O   0  0  0  0  0  0  0  0  0  0  0  0
   55.6920   29.5220   44.9710 O   0  0  0  0  0  0  0  0  0  0  0  0
   55.5630   30.0790   43.6670 C   0  0  0  0  0  0  0  0  0  0  0  0
   56.5810   29.4370   42.7380 C   0  0  0  0  0  0  0  0  0  0  0  0
   59.7954   29.2730   45.9628 H   0  0  0  0  0  0  0  0  0  0  0  0
   60.7517   27.7005   46.4556 H   0  0  0  0  0  0  0  0  0  0  0  0
   57.0365   24.1742   47.7569 H   0  0  0  0  0  0  0  0  0  0  0  0
   54.0930   25.5180   46.3710 H   0  0  0  0  0  0  0  0  0  0  0  0
   54.5486   29.8895   43.2862 H   0  0  0  0  0  0  0  0  0  0  0  0
   55.7413   31.1635   43.7125 H   0  0  0  0  0  0  0  0  0  0  0  0
   57.3625   28.9441   43.3349 H   0  0  0  0  0  0  0  0  0  0  0  0
   56.0794   28.6915   42.1035 H   0  0  0  0  0  0  0  0  0  0  0  0
   57.0376   30.2109   42.1035 H   0  0  0  0  0  0  0  0  0  0  0  0
  1  2  2  0
  2  3  1  0
  3  4  1  0
  4  5  2  3
  5  6  1  0
  6  7  1  0
  7  8  1  0
  8  9  2  0
  8 10  1  0
 10 11  1  0
 11 12  1  0
  4 13  1  0
 13 14  1  0
 13 15  2  0
 15 16  1  0
 16 17  2  0
 16 18  1  0
 18 19  1  0
 19 20  1  0
 15  2  1  0
 11  6  2  0
  1 21  1  0
  1 22  1  0
  5 23  1  0
 12 24  1  0
 19 25  1  0
 19 26  1  0
 20 27  1  0
 20 28  1  0
 20 29  1  0
M  CHG  4   3  -1   7  -1  10  -1  14  -1
M  END
>  <UniqueID>  (53) 
51

>  <SMILES>  (53) 
C=c1[n-]c(=Cc2[n-]c(=O)[n-]c2O)c([O-])c1C(=O)OCC

>  <Energy>  (53) 
83.11112161414836

>  <Genealogy>  (53) 
C=c1[n-]c(=Cc2[n-]c(=O)[n-]c2O)c([O-])c1C(=O)OCC (protonated)
C=c1[n-]c(=Cc2[n-]c(=O)[n-]c2O)c([O-])c1C(=O)OCC (3D coordinates assigned)
C=c1[n-]c(=Cc2[n-]c(=O)[n-]c2O)c([O-])c1C(=O)OCC (optimized conformer: 83.11112161414836 kcal/mol)

>  <smiles>  (53) 
C=c1[nH]c(=Cc2[nH]c(=O)[nH]c2O)c(O)c1C(=O)OCC

>  <score_type>  (53) 
oracle

>  <origin>  (53) 
adg

>  <m_score__min__energy>  (53) 
-14.44

>  <m_primary>  (53) 
energy

$$$$
53:0
     RDKit          3D

 48 51  0  0  0  0  0  0  0  0999 V2000
   57.7570   20.8270   46.5690 O   0  0  0  0  0  0  0  0  0  0  0  0
   57.7790   22.0710   46.3710 C   0  0  0  0  0  0  0  0  0  0  0  0
   58.6830   22.6210   45.4670 C   0  0  0  0  0  0  0  0  0  0  0  0
   58.6770   24.0020   45.2790 C   0  0  0  0  0  0  0  0  0  0  0  0
   57.8040   24.7940   45.9700 N   0  0  0  0  0  0  0  0  0  0  0  0
   57.8320   26.2210   45.7590 C   0  0  0  0  0  0  0  0  0  0  0  0
   56.6390   26.9350   45.5990 C   0  0  0  0  0  0  0  0  0  0  0  0
   56.6610   28.3130   45.3800 C   0  0  0  0  0  0  0  0  0  0  0  0
   55.4770   28.9610   45.2490 F   0  0  0  0  0  0  0  0  0  0  0  0
   57.8830   29.0100   45.3030 C   0  0  0  0  0  0  0  0  0  0  0  0
   57.8650   30.7620   44.9760 S   0  0  0  0  0  0  0  0  0  0  0  0
   58.8380   31.0680   43.8700 O   0  0  0  0  0  0  0  0  0  0  0  0
   56.5080   31.1940   44.4990 O   0  0  0  0  0  0  0  0  0  0  0  0
   58.2980   31.6950   46.3940 N   0  0  0  0  0  0  0  0  0  0  0  0
   59.1130   32.8850   46.0500 C   0  0  0  0  0  0  0  0  0  0  0  0
   60.5920   32.7430   46.4340 C   0  0  0  0  0  0  0  0  0  0  0  0
   60.7120   32.4030   47.8590 N   0  0  0  0  0  0  0  0  0  0  0  0
   61.8850   32.7830   48.6120 C   0  0  0  0  0  0  0  0  0  0  0  0
   61.7750   33.6270   49.7350 C   0  0  0  0  0  0  0  0  0  0  0  0
   62.9130   33.9950   50.4590 C   0  0  0  0  0  0  0  0  0  0  0  0
   64.1710   33.5280   50.0740 C   0  0  0  0  0  0  0  0  0  0  0  0
   65.2730   33.8860   50.7780 F   0  0  0  0  0  0  0  0  0  0  0  0
   64.2940   32.6910   48.9620 C   0  0  0  0  0  0  0  0  0  0  0  0
   63.1600   32.3210   48.2340 C   0  0  0  0  0  0  0  0  0  0  0  0
   59.6400   31.6240   48.4930 C   0  0  0  0  0  0  0  0  0  0  0  0
   58.8810   30.8210   47.4330 C   0  0  0  0  0  0  0  0  0  0  0  0
   59.0900   28.2870   45.4770 C   0  0  0  0  0  0  0  0  0  0  0  0
   60.6800   29.0430   45.4260 Cl  0  0  0  0  0  0  0  0  0  0  0  0
   59.0530   26.9060   45.6970 C   0  0  0  0  0  0  0  0  0  0  0  0
   56.9180   24.2230   46.8490 C   0  0  0  0  0  0  0  0  0  0  0  0
   56.0860   24.9310   47.4790 O   0  0  0  0  0  0  0  0  0  0  0  0
   56.9180   22.8770   47.0390 N   0  0  0  0  0  0  0  0  0  0  0  0
   59.3858   21.9807   44.9138 H   0  0  0  0  0  0  0  0  0  0  0  0
   59.3814   24.4584   44.5680 H   0  0  0  0  0  0  0  0  0  0  0  0
   55.6760   26.4056   45.6463 H   0  0  0  0  0  0  0  0  0  0  0  0
   59.0490   33.0494   44.9642 H   0  0  0  0  0  0  0  0  0  0  0  0
   58.7087   33.7321   46.6235 H   0  0  0  0  0  0  0  0  0  0  0  0
   61.0502   31.9462   45.8297 H   0  0  0  0  0  0  0  0  0  0  0  0
   61.1066   33.6969   46.2462 H   0  0  0  0  0  0  0  0  0  0  0  0
   60.7870   33.9989   50.0441 H   0  0  0  0  0  0  0  0  0  0  0  0
   62.8169   34.6542   51.3343 H   0  0  0  0  0  0  0  0  0  0  0  0
   65.2852   32.3226   48.6591 H   0  0  0  0  0  0  0  0  0  0  0  0
   63.2644   31.6634   47.3584 H   0  0  0  0  0  0  0  0  0  0  0  0
   60.0775   30.9337   49.2292 H   0  0  0  0  0  0  0  0  0  0  0  0
   58.9423   32.3105   48.9949 H   0  0  0  0  0  0  0  0  0  0  0  0
   59.5768   30.1156   46.9552 H   0  0  0  0  0  0  0  0  0  0  0  0
   58.0581   30.2886   47.9324 H   0  0  0  0  0  0  0  0  0  0  0  0
   59.9942   26.3507   45.8229 H   0  0  0  0  0  0  0  0  0  0  0  0
  1  2  2  0
  2  3  1  0
  3  4  2  0
  4  5  1  0
  5  6  1  0
  6  7  2  0
  7  8  1  0
  8  9  1  0
  8 10  2  0
 10 11  1  0
 11 12  2  0
 11 13  2  0
 11 14  1  0
 14 15  1  0
 15 16  1  0
 16 17  1  0
 17 18  1  0
 18 19  2  0
 19 20  1  0
 20 21  2  0
 21 22  1  0
 21 23  1  0
 23 24  2  0
 17 25  1  0
 25 26  1  0
 10 27  1  0
 27 28  1  0
 27 29  2  0
  5 30  1  0
 30 31  2  0
 30 32  1  0
 32  2  1  0
 29  6  1  0
 26 14  1  0
 24 18  1  0
  3 33  1  0
  4 34  1  0
  7 35  1  0
 15 36  1  0
 15 37  1  0
 16 38  1  0
 16 39  1  0
 19 40  1  0
 20 41  1  0
 23 42  1  0
 24 43  1  0
 25 44  1  0
 25 45  1  0
 26 46  1  0
 26 47  1  0
 29 48  1  0
M  CHG  1  32  -1
M  END
>  <UniqueID>  (54) 
52

>  <SMILES>  (54) 
O=c1ccn(-c2cc(F)c(S(=O)(=O)N3CCN(c4ccc(F)cc4)CC3)c(Cl)c2)c(=O)[n-]1

>  <Energy>  (54) 
73.19289364760802

>  <Genealogy>  (54) 
O=c1ccn(-c2cc(F)c(S(=O)(=O)N3CCN(c4ccc(F)cc4)CC3)c(Cl)c2)c(=O)[n-]1 (protonated)
O=c1ccn(-c2cc(F)c(S(=O)(=O)N3CCN(c4ccc(F)cc4)CC3)c(Cl)c2)c(=O)[n-]1 (3D coordinates assigned)
O=c1ccn(-c2cc(F)c(S(=O)(=O)N3CCN(c4ccc(F)cc4)CC3)c(Cl)c2)c(=O)[n-]1 (nonaromatic ring conformer: 73.19289364760802 kcal/mol)

>  <smiles>  (54) 
O=c1ccn(-c2cc(F)c(S(=O)(=O)N3CCN(c4ccc(F)cc4)CC3)c(Cl)c2)c(=O)[nH]1

>  <score_type>  (54) 
oracle

>  <origin>  (54) 
adg

>  <m_score__min__energy>  (54) 
-10.33

>  <m_primary>  (54) 
energy

$$$$
54:0
     RDKit          3D

 52 54  0  0  0  0  0  0  0  0999 V2000
   64.2320   33.0690   49.1180 C   0  0  0  0  0  0  0  0  0  0  0  0
   62.9520   32.3750   49.0270 N   0  0  0  0  0  0  0  0  0  0  0  0
   62.5600   31.6600   47.8470 C   0  0  0  0  0  0  0  0  0  0  0  0
   63.3610   31.5470   46.8810 O   0  0  0  0  0  0  0  0  0  0  0  0
   61.3070   30.9640   47.7990 N   0  0  0  0  0  0  0  0  0  0  0  0
   60.9710   29.8440   48.3830 C   0  0  0  0  0  0  0  0  0  0  0  0
   60.3540   28.8660   47.5970 C   0  0  0  0  0  0  0  0  0  0  0  0
   60.0020   27.6370   48.1600 C   0  0  0  0  0  0  0  0  0  0  0  0
   59.3850   26.5680   47.3550 C   0  0  0  0  0  0  0  0  0  0  0  0
   58.5110   25.8290   47.8770 O   0  0  0  0  0  0  0  0  0  0  0  0
   59.7570   26.3840   45.9830 N   0  0  0  0  0  0  0  0  0  0  0  0
   58.8500   26.5960   44.8610 C   0  0  0  0  0  0  0  0  0  0  0  0
   58.3200   28.0030   44.8940 C   0  0  0  0  0  0  0  0  0  0  0  0
   59.1920   29.0920   44.7460 C   0  0  0  0  0  0  0  0  0  0  0  0
   58.6970   30.3990   44.7420 C   0  0  0  0  0  0  0  0  0  0  0  0
   57.3180   30.6360   44.8690 C   0  0  0  0  0  0  0  0  0  0  0  0
   56.7630   31.9600   44.8740 N   0  0  0  0  0  0  0  0  0  0  0  0
   57.6620   33.4430   44.9400 S   0  0  0  0  0  0  0  0  0  0  0  0
   58.6290   33.5180   43.7890 O   0  0  0  0  0  0  0  0  0  0  0  0
   56.7070   34.5990   44.8200 O   0  0  0  0  0  0  0  0  0  0  0  0
   58.5030   33.5520   46.4790 C   0  0  0  0  0  0  0  0  0  0  0  0
   58.1760   32.6620   47.5140 C   0  0  0  0  0  0  0  0  0  0  0  0
   58.8610   32.7230   48.7330 C   0  0  0  0  0  0  0  0  0  0  0  0
   59.8830   33.6600   48.9170 C   0  0  0  0  0  0  0  0  0  0  0  0
   60.2150   34.5470   47.8880 C   0  0  0  0  0  0  0  0  0  0  0  0
   59.5220   34.5000   46.6750 C   0  0  0  0  0  0  0  0  0  0  0  0
   56.4470   29.5470   44.9990 C   0  0  0  0  0  0  0  0  0  0  0  0
   56.9420   28.2390   45.0140 C   0  0  0  0  0  0  0  0  0  0  0  0
   60.2460   27.4230   49.4770 N   0  0  0  0  0  0  0  0  0  0  0  0
   60.8030   28.3480   50.2610 N   0  0  0  0  0  0  0  0  0  0  0  0
   61.0210   28.0250   51.6720 C   0  0  0  0  0  0  0  0  0  0  0  0
   61.1620   29.5720   49.7590 C   0  0  0  0  0  0  0  0  0  0  0  0
   61.6320   30.4480   50.5360 O   0  0  0  0  0  0  0  0  0  0  0  0
   64.4968   33.2126   50.1759 H   0  0  0  0  0  0  0  0  0  0  0  0
   65.0102   32.4693   48.6233 H   0  0  0  0  0  0  0  0  0  0  0  0
   64.1541   34.0484   48.6233 H   0  0  0  0  0  0  0  0  0  0  0  0
   62.3210   32.3730   49.8600 H   0  0  0  0  0  0  0  0  0  0  0  0
   60.1458   29.0644   46.5353 H   0  0  0  0  0  0  0  0  0  0  0  0
   59.3913   26.4316   43.9176 H   0  0  0  0  0  0  0  0  0  0  0  0
   58.0101   25.8894   44.9341 H   0  0  0  0  0  0  0  0  0  0  0  0
   60.2719   28.9161   44.6324 H   0  0  0  0  0  0  0  0  0  0  0  0
   59.3906   31.2465   44.6389 H   0  0  0  0  0  0  0  0  0  0  0  0
   57.3809   31.9162   47.3670 H   0  0  0  0  0  0  0  0  0  0  0  0
   58.5952   32.0331   49.5475 H   0  0  0  0  0  0  0  0  0  0  0  0
   60.4265   33.6993   49.8726 H   0  0  0  0  0  0  0  0  0  0  0  0
   61.0211   35.2813   48.0331 H   0  0  0  0  0  0  0  0  0  0  0  0
   59.7749   35.2072   45.8713 H   0  0  0  0  0  0  0  0  0  0  0  0
   55.3648   29.7218   45.0900 H   0  0  0  0  0  0  0  0  0  0  0  0
   56.2483   27.3919   45.1203 H   0  0  0  0  0  0  0  0  0  0  0  0
   60.5164   28.7727   52.3015 H   0  0  0  0  0  0  0  0  0  0  0  0
   60.6108   27.0273   51.8874 H   0  0  0  0  0  0  0  0  0  0  0  0
   62.0997   28.0322   51.8874 H   0  0  0  0  0  0  0  0  0  0  0  0
  1  2  1  0
  2  3  1  0
  3  4  2  0
  3  5  1  0
  5  6  2  3
  6  7  1  0
  7  8  2  0
  8  9  1  0
  9 10  2  0
  9 11  1  0
 11 12  1  0
 12 13  1  0
 13 14  2  0
 14 15  1  0
 15 16  2  0
 16 17  1  0
 17 18  1  0
 18 19  2  0
 18 20  2  0
 18 21  1  0
 21 22  2  0
 22 23  1  0
 23 24  2  0
 24 25  1  0
 25 26  2  0
 16 27  1  0
 27 28  2  0
  8 29  1  0
 29 30  1  0
 30 31  1  0
 30 32  1  0
 32 33  2  0
 32  6  1  0
 28 13  1  0
 26 21  1  0
  1 34  1  0
  1 35  1  0
  1 36  1  0
  2 37  1  0
  7 38  1  0
 12 39  1  0
 12 40  1  0
 14 41  1  0
 15 42  1  0
 22 43  1  0
 23 44  1  0
 24 45  1  0
 25 46  1  0
 26 47  1  0
 27 48  1  0
 28 49  1  0
 31 50  1  0
 31 51  1  0
 31 52  1  0
M  CHG  3  11  -1  17  -1  29  -1
M  END
>  <UniqueID>  (55) 
53

>  <SMILES>  (55) 
CNC(=O)N=c1cc(C(=O)[N-]Cc2ccc([N-]S(=O)(=O)c3ccccc3)cc2)[n-]n(C)c1=O

>  <Energy>  (55) 
66.9882040337124

>  <Genealogy>  (55) 
CNC(=O)N=c1cc(C(=O)[N-]Cc2ccc([N-]S(=O)(=O)c3ccccc3)cc2)[n-]n(C)c1=O (protonated)
CNC(=O)N=c1cc(C(=O)[N-]Cc2ccc([N-]S(=O)(=O)c3ccccc3)cc2)[n-]n(C)c1=O (3D coordinates assigned)
CNC(=O)N=c1cc(C(=O)[N-]Cc2ccc([N-]S(=O)(=O)c3ccccc3)cc2)[n-]n(C)c1=O (optimized conformer: 66.9882040337124 kcal/mol)

>  <smiles>  (55) 
CNC(=O)N=c1cc(C(=O)NCc2ccc(NS(=O)(=O)c3ccccc3)cc2)[nH]n(C)c1=O

>  <score_type>  (55) 
oracle

>  <origin>  (55) 
adg

>  <m_score__min__energy>  (55) 
-12.57

>  <m_primary>  (55) 
energy

$$$$
55:0
     RDKit          3D

 65 69  0  0  0  0  0  0  0  0999 V2000
   64.4940   32.2560   48.5580 N   0  0  0  0  0  0  0  0  0  0  0  0
   64.4780   33.0650   49.7420 C   0  0  0  0  0  0  0  0  0  0  0  0
   65.6600   33.2180   50.4840 C   0  0  0  0  0  0  0  0  0  0  0  0
   65.6870   34.0490   51.6070 C   0  0  0  0  0  0  0  0  0  0  0  0
   64.5380   34.7380   51.9990 C   0  0  0  0  0  0  0  0  0  0  0  0
   63.3550   34.5900   51.2730 C   0  0  0  0  0  0  0  0  0  0  0  0
   63.3080   33.7450   50.1530 C   0  0  0  0  0  0  0  0  0  0  0  0
   62.0780   33.6220   49.4290 N   0  0  0  0  0  0  0  0  0  0  0  0
   62.0060   33.8270   48.0060 C   0  0  0  0  0  0  0  0  0  0  0  0
   63.0400   34.1880   47.3790 O   0  0  0  0  0  0  0  0  0  0  0  0
   60.7350   33.6460   47.2580 C   0  0  0  0  0  0  0  0  0  0  0  0
   59.9020   32.5300   47.4750 C   0  0  0  0  0  0  0  0  0  0  0  0
   58.7010   32.3930   46.7730 C   0  0  0  0  0  0  0  0  0  0  0  0
   58.3180   33.3560   45.8270 C   0  0  0  0  0  0  0  0  0  0  0  0
   57.0400   33.1940   45.0480 C   0  0  0  0  0  0  0  0  0  0  0  0
   57.1270   32.0250   44.1750 N   0  0  0  0  0  0  0  0  0  0  0  0
   56.7510   30.6870   44.5330 C   0  0  0  0  0  0  0  0  0  0  0  0
   55.5300   30.3800   44.5220 O   0  0  0  0  0  0  0  0  0  0  0  0
   57.7450   29.6660   44.9200 C   0  0  0  0  0  0  0  0  0  0  0  0
   59.0750   29.7780   44.4830 C   0  0  0  0  0  0  0  0  0  0  0  0
   60.0220   28.8240   44.8610 C   0  0  0  0  0  0  0  0  0  0  0  0
   59.6500   27.7450   45.6670 C   0  0  0  0  0  0  0  0  0  0  0  0
   58.3160   27.5970   46.0800 C   0  0  0  0  0  0  0  0  0  0  0  0
   57.9050   26.4300   46.9420 C   0  0  0  0  0  0  0  0  0  0  0  0
   56.7600   25.6680   46.3200 C   0  0  0  0  0  0  0  0  0  0  0  0
   55.5150   26.2120   46.4090 N   0  0  0  0  0  0  0  0  0  0  0  0
   54.4520   25.6460   45.8430 N   0  0  0  0  0  0  0  0  0  0  0  0
   54.5540   24.5000   45.1270 C   0  0  0  0  0  0  0  0  0  0  0  0
   53.5170   23.9990   44.6160 O   0  0  0  0  0  0  0  0  0  0  0  0
   55.8080   23.8890   44.9620 C   0  0  0  0  0  0  0  0  0  0  0  0
   56.9380   24.4610   45.6000 C   0  0  0  0  0  0  0  0  0  0  0  0
   58.3220   23.8630   45.4140 C   0  0  0  0  0  0  0  0  0  0  0  0
   58.2930   22.4150   44.9190 C   0  0  0  0  0  0  0  0  0  0  0  0
   57.3370   22.2780   43.7380 C   0  0  0  0  0  0  0  0  0  0  0  0
   55.9070   22.5920   44.1830 C   0  0  0  0  0  0  0  0  0  0  0  0
   57.3680   28.5600   45.6980 C   0  0  0  0  0  0  0  0  0  0  0  0
   59.1610   34.4480   45.5790 C   0  0  0  0  0  0  0  0  0  0  0  0
   60.3540   34.5950   46.2910 C   0  0  0  0  0  0  0  0  0  0  0  0
   64.3800   31.2190   48.6000 H   0  0  0  0  0  0  0  0  0  0  0  0
   64.5690   32.6970   47.6150 H   0  0  0  0  0  0  0  0  0  0  0  0
   66.5702   32.6805   50.1795 H   0  0  0  0  0  0  0  0  0  0  0  0
   66.6168   34.1606   52.1841 H   0  0  0  0  0  0  0  0  0  0  0  0
   64.5648   35.3970   52.8793 H   0  0  0  0  0  0  0  0  0  0  0  0
   62.4531   35.1395   51.5807 H   0  0  0  0  0  0  0  0  0  0  0  0
   61.2500   33.2720   49.9580 H   0  0  0  0  0  0  0  0  0  0  0  0
   60.1994   31.7606   48.2027 H   0  0  0  0  0  0  0  0  0  0  0  0
   58.0524   31.5252   46.9633 H   0  0  0  0  0  0  0  0  0  0  0  0
   56.2016   33.0634   45.7480 H   0  0  0  0  0  0  0  0  0  0  0  0
   56.8782   34.0911   44.4323 H   0  0  0  0  0  0  0  0  0  0  0  0
   59.3717   30.6202   43.8407 H   0  0  0  0  0  0  0  0  0  0  0  0
   61.0642   28.9222   44.5232 H   0  0  0  0  0  0  0  0  0  0  0  0
   60.4051   27.0085   45.9793 H   0  0  0  0  0  0  0  0  0  0  0  0
   58.7635   25.7528   47.0620 H   0  0  0  0  0  0  0  0  0  0  0  0
   57.5764   26.8167   47.9180 H   0  0  0  0  0  0  0  0  0  0  0  0
   58.8701   24.4722   44.6802 H   0  0  0  0  0  0  0  0  0  0  0  0
   58.8119   23.8614   46.3989 H   0  0  0  0  0  0  0  0  0  0  0  0
   59.3044   22.1191   44.6034 H   0  0  0  0  0  0  0  0  0  0  0  0
   57.9477   21.7645   45.7361 H   0  0  0  0  0  0  0  0  0  0  0  0
   57.6343   22.9803   42.9453 H   0  0  0  0  0  0  0  0  0  0  0  0
   57.3785   21.2467   43.3576 H   0  0  0  0  0  0  0  0  0  0  0  0
   55.2693   22.6683   43.2900 H   0  0  0  0  0  0  0  0  0  0  0  0
   55.5800   21.7792   44.8481 H   0  0  0  0  0  0  0  0  0  0  0  0
   56.3197   28.4466   46.0115 H   0  0  0  0  0  0  0  0  0  0  0  0
   58.8817   35.1933   44.8197 H   0  0  0  0  0  0  0  0  0  0  0  0
   61.0023   35.4615   46.0938 H   0  0  0  0  0  0  0  0  0  0  0  0
  1  2  1  0
  2  3  2  0
  3  4  1  0
  4  5  2  0
  5  6  1  0
  6  7  2  0
  7  8  1  0
  8  9  1  0
  9 10  2  0
  9 11  1  0
 11 12  2  0
 12 13  1  0
 13 14  2  0
 14 15  1  0
 15 16  1  0
 16 17  1  0
 17 18  2  0
 17 19  1  0
 19 20  2  0
 20 21  1  0
 21 22  2  0
 22 23  1  0
 23 24  1  0
 24 25  1  0
 25 26  2  0
 26 27  1  0
 27 28  1  0
 28 29  2  0
 28 30  1  0
 30 31  2  0
 31 32  1  0
 32 33  1  0
 33 34  1  0
 34 35  1  0
 23 36  2  0
 14 37  1  0
 37 38  2  0
  7  2  1  0
 38 11  1  0
 36 19  1  0
 31 25  1  0
 35 30  1  0
  1 39  1  0
  1 40  1  0
  3 41  1  0
  4 42  1  0
  5 43  1  0
  6 44  1  0
  8 45  1  0
 12 46  1  0
 13 47  1  0
 15 48  1  0
 15 49  1  0
 20 50  1  0
 21 51  1  0
 22 52  1  0
 24 53  1  0
 24 54  1  0
 32 55  1  0
 32 56  1  0
 33 57  1  0
 33 58  1  0
 34 59  1  0
 34 60  1  0
 35 61  1  0
 35 62  1  0
 36 63  1  0
 37 64  1  0
 38 65  1  0
M  CHG  2  16  -1  27  -1
M  END
>  <UniqueID>  (56) 
54

>  <SMILES>  (56) 
Nc1ccccc1NC(=O)c1ccc(C[N-]C(=O)c2cccc(Cc3n[n-]c(=O)c4c3CCCC4)c2)cc1

>  <Energy>  (56) 
84.54914817388119

>  <Genealogy>  (56) 
Nc1ccccc1NC(=O)c1ccc(C[N-]C(=O)c2cccc(Cc3n[n-]c(=O)c4c3CCCC4)c2)cc1 (protonated)
Nc1ccccc1NC(=O)c1ccc(C[N-]C(=O)c2cccc(Cc3n[n-]c(=O)c4c3CCCC4)c2)cc1 (3D coordinates assigned)
Nc1ccccc1NC(=O)c1ccc(C[N-]C(=O)c2cccc(Cc3n[n-]c(=O)c4c3CCCC4)c2)cc1 (nonaromatic ring conformer: 84.54914817388119 kcal/mol)

>  <smiles>  (56) 
Nc1ccccc1NC(=O)c1ccc(CNC(=O)c2cccc(Cc3n[nH]c(=O)c4c3CCCC4)c2)cc1

>  <score_type>  (56) 
oracle

>  <origin>  (56) 
adg

>  <m_score__min__energy>  (56) 
-15.529999999999999

>  <m_primary>  (56) 
energy

$$$$
56:0
     RDKit          3D

 36 38  0  0  0  0  0  0  0  0999 V2000
   55.1680   29.3670   44.8590 N   0  0  0  0  0  0  0  0  0  0  0  0
   56.5050   28.9880   44.5410 C   0  0  0  0  0  0  0  0  0  0  0  0
   56.8480   28.8850   43.3330 O   0  0  0  0  0  0  0  0  0  0  0  0
   57.4750   28.6740   45.6050 C   0  0  0  0  0  0  0  0  0  0  0  0
   58.2190   29.5980   46.3140 C   0  0  0  0  0  0  0  0  0  0  0  0
   59.0780   28.9350   47.1180 N   0  0  0  0  0  0  0  0  0  0  0  0
   60.0540   29.5080   48.0120 C   0  0  0  0  0  0  0  0  0  0  0  0
   60.8110   30.6220   47.6050 C   0  0  0  0  0  0  0  0  0  0  0  0
   61.7620   31.1870   48.4600 C   0  0  0  0  0  0  0  0  0  0  0  0
   61.9710   30.6500   49.7350 C   0  0  0  0  0  0  0  0  0  0  0  0
   63.1800   31.3510   50.8060 S   0  0  0  0  0  0  0  0  0  0  0  0
   62.4330   32.5260   51.8290 N   0  0  0  0  0  0  0  0  0  0  0  0
   64.2620   32.0060   49.9950 O   0  0  0  0  0  0  0  0  0  0  0  0
   63.7990   30.2740   51.6540 O   0  0  0  0  0  0  0  0  0  0  0  0
   61.2340   29.5330   50.1440 C   0  0  0  0  0  0  0  0  0  0  0  0
   60.2820   28.9650   49.2920 C   0  0  0  0  0  0  0  0  0  0  0  0
   58.9150   27.6300   46.9540 N   0  0  0  0  0  0  0  0  0  0  0  0
   57.9410   27.4390   46.0430 C   0  0  0  0  0  0  0  0  0  0  0  0
   57.4520   26.0970   45.6630 C   0  0  0  0  0  0  0  0  0  0  0  0
   58.3570   25.1120   45.2320 C   0  0  0  0  0  0  0  0  0  0  0  0
   57.8960   23.8530   44.8380 C   0  0  0  0  0  0  0  0  0  0  0  0
   56.5270   23.5710   44.8570 C   0  0  0  0  0  0  0  0  0  0  0  0
   55.6180   24.5510   45.2640 C   0  0  0  0  0  0  0  0  0  0  0  0
   56.0730   25.8120   45.6630 C   0  0  0  0  0  0  0  0  0  0  0  0
   55.1500   26.7710   46.0670 O   0  0  0  0  0  0  0  0  0  0  0  0
   54.3890   29.2080   44.1820 H   0  0  0  0  0  0  0  0  0  0  0  0
   58.1269   30.6914   46.2364 H   0  0  0  0  0  0  0  0  0  0  0  0
   60.6532   31.0523   46.6050 H   0  0  0  0  0  0  0  0  0  0  0  0
   62.3481   32.0570   48.1291 H   0  0  0  0  0  0  0  0  0  0  0  0
   62.2760   33.3800   51.2480 H   0  0  0  0  0  0  0  0  0  0  0  0
   61.4045   29.0997   51.1406 H   0  0  0  0  0  0  0  0  0  0  0  0
   59.7069   28.0879   49.6234 H   0  0  0  0  0  0  0  0  0  0  0  0
   59.4342   25.3333   45.2046 H   0  0  0  0  0  0  0  0  0  0  0  0
   58.6111   23.0831   44.5126 H   0  0  0  0  0  0  0  0  0  0  0  0
   56.1655   22.5780   44.5517 H   0  0  0  0  0  0  0  0  0  0  0  0
   54.5405   24.3300   45.2706 H   0  0  0  0  0  0  0  0  0  0  0  0
  1  2  1  0
  2  3  2  0
  2  4  1  0
  4  5  2  0
  5  6  1  0
  6  7  1  0
  7  8  2  0
  8  9  1  0
  9 10  2  0
 10 11  1  0
 11 12  1  0
 11 13  2  0
 11 14  2  0
 10 15  1  0
 15 16  2  0
  6 17  1  0
 17 18  2  0
 18 19  1  0
 19 20  2  0
 20 21  1  0
 21 22  2  0
 22 23  1  0
 23 24  2  0
 24 25  1  0
 18  4  1  0
 24 19  1  0
 16  7  1  0
  1 26  1  0
  5 27  1  0
  8 28  1  0
  9 29  1  0
 12 30  1  0
 15 31  1  0
 16 32  1  0
 20 33  1  0
 21 34  1  0
 22 35  1  0
 23 36  1  0
M  CHG  3   1  -1  12  -1  25  -1
M  END
>  <UniqueID>  (57) 
55

>  <SMILES>  (57) 
[NH-]C(=O)c1cn(-c2ccc(S([NH-])(=O)=O)cc2)nc1-c1ccccc1[O-]

>  <Energy>  (57) 
77.43010040641767

>  <Genealogy>  (57) 
[NH-]C(=O)c1cn(-c2ccc(S([NH-])(=O)=O)cc2)nc1-c1ccccc1[O-] (protonated)
[NH-]C(=O)c1cn(-c2ccc(S([NH-])(=O)=O)cc2)nc1-c1ccccc1[O-] (3D coordinates assigned)
[NH-]C(=O)c1cn(-c2ccc(S([NH-])(=O)=O)cc2)nc1-c1ccccc1[O-] (optimized conformer: 77.43010040641767 kcal/mol)

>  <smiles>  (57) 
NC(=O)c1cn(-c2ccc(S(N)(=O)=O)cc2)nc1-c1ccccc1O

>  <score_type>  (57) 
oracle

>  <origin>  (57) 
adg

>  <m_score__min__energy>  (57) 
-13.9

>  <m_primary>  (57) 
energy

$$$$
57:0
     RDKit          3D

 21 22  0  0  0  0  0  0  0  0999 V2000
   55.5670   24.2580   46.7940 O   0  0  0  0  0  0  0  0  0  0  0  0
   55.9630   25.3630   46.3430 C   0  0  0  0  0  0  0  0  0  0  0  0
   55.1180   26.3770   46.0590 N   0  0  0  0  0  0  0  0  0  0  0  0
   55.9470   27.3340   45.6130 C   0  0  0  0  0  0  0  0  0  0  0  0
   55.5240   28.5840   45.1780 O   0  0  0  0  0  0  0  0  0  0  0  0
   57.2470   26.8900   45.6460 C   0  0  0  0  0  0  0  0  0  0  0  0
   58.4600   27.6300   45.1700 C   0  0  0  0  0  0  0  0  0  0  0  0
   58.5360   28.9770   45.8320 C   0  0  0  0  0  0  0  0  0  0  0  0
   58.8930   29.0820   47.1870 C   0  0  0  0  0  0  0  0  0  0  0  0
   58.9290   30.3340   47.8100 C   0  0  0  0  0  0  0  0  0  0  0  0
   58.6030   31.4850   47.0890 C   0  0  0  0  0  0  0  0  0  0  0  0
   58.2340   31.3880   45.7440 C   0  0  0  0  0  0  0  0  0  0  0  0
   57.7750   32.9620   44.7630 Br  0  0  0  0  0  0  0  0  0  0  0  0
   58.1970   30.1370   45.1170 C   0  0  0  0  0  0  0  0  0  0  0  0
   57.2670   25.6250   46.1010 N   0  0  0  0  0  0  0  0  0  0  0  0
   59.3610   27.0505   45.4198 H   0  0  0  0  0  0  0  0  0  0  0  0
   58.3934   27.7675   44.0807 H   0  0  0  0  0  0  0  0  0  0  0  0
   59.1449   28.1771   47.7595 H   0  0  0  0  0  0  0  0  0  0  0  0
   59.2145   30.4122   48.8694 H   0  0  0  0  0  0  0  0  0  0  0  0
   58.6366   32.4688   47.5799 H   0  0  0  0  0  0  0  0  0  0  0  0
   57.9012   30.0624   44.0601 H   0  0  0  0  0  0  0  0  0  0  0  0
  1  2  2  0
  2  3  1  0
  3  4  1  0
  4  5  1  0
  4  6  2  0
  6  7  1  0
  7  8  1  0
  8  9  2  0
  9 10  1  0
 10 11  2  0
 11 12  1  0
 12 13  1  0
 12 14  2  0
  6 15  1  0
 15  2  1  0
 14  8  1  0
  7 16  1  0
  7 17  1  0
  9 18  1  0
 10 19  1  0
 11 20  1  0
 14 21  1  0
M  CHG  3   3  -1   5  -1  15  -1
M  END
>  <UniqueID>  (58) 
56

>  <SMILES>  (58) 
O=c1[n-]c([O-])c(Cc2cccc(Br)c2)[n-]1

>  <Energy>  (58) 
49.018075880455555

>  <Genealogy>  (58) 
O=c1[n-]c([O-])c(Cc2cccc(Br)c2)[n-]1 (protonated)
O=c1[n-]c([O-])c(Cc2cccc(Br)c2)[n-]1 (3D coordinates assigned)
O=c1[n-]c([O-])c(Cc2cccc(Br)c2)[n-]1 (optimized conformer: 49.018075880455555 kcal/mol)

>  <smiles>  (58) 
O=c1[nH]c(O)c(Cc2cccc(Br)c2)[nH]1

>  <score_type>  (58) 
oracle

>  <origin>  (58) 
adg

>  <m_score__min__energy>  (58) 
-15.24

>  <m_primary>  (58) 
energy

$$$$
58:0
     RDKit          3D

 45 47  0  0  0  0  0  0  0  0999 V2000
   57.4020   29.5590   51.9050 O   0  0  0  0  0  0  0  0  0  0  0  0
   56.6490   30.5360   51.6400 C   0  0  0  0  0  0  0  0  0  0  0  0
   57.1730   31.6550   50.9040 N   0  0  0  0  0  0  0  0  0  0  0  0
   58.5180   31.6460   50.3330 C   0  0  0  0  0  0  0  0  0  0  0  0
   58.8970   33.0250   49.8580 C   0  0  0  0  0  0  0  0  0  0  0  0
   59.6380   33.2530   48.7540 C   0  0  0  0  0  0  0  0  0  0  0  0
   61.1160   33.1720   48.7900 C   0  0  0  0  0  0  0  0  0  0  0  0
   61.8510   33.8890   49.7510 C   0  0  0  0  0  0  0  0  0  0  0  0
   63.2470   33.8260   49.7590 C   0  0  0  0  0  0  0  0  0  0  0  0
   63.9190   33.0580   48.8030 C   0  0  0  0  0  0  0  0  0  0  0  0
   63.1960   32.3570   47.8340 C   0  0  0  0  0  0  0  0  0  0  0  0
   61.7990   32.4180   47.8240 C   0  0  0  0  0  0  0  0  0  0  0  0
   58.9780   33.5740   47.4580 C   0  0  0  0  0  0  0  0  0  0  0  0
   57.7100   33.0410   47.1620 C   0  0  0  0  0  0  0  0  0  0  0  0
   57.0760   33.3450   45.9530 C   0  0  0  0  0  0  0  0  0  0  0  0
   57.6970   34.1890   45.0300 C   0  0  0  0  0  0  0  0  0  0  0  0
   58.9510   34.7340   45.3160 C   0  0  0  0  0  0  0  0  0  0  0  0
   59.5890   34.4320   46.5220 C   0  0  0  0  0  0  0  0  0  0  0  0
   55.2430   30.5180   52.1110 C   0  0  0  0  0  0  0  0  0  0  0  0
   54.9250   30.1510   53.4310 C   0  0  0  0  0  0  0  0  0  0  0  0
   53.5970   30.1450   53.8620 C   0  0  0  0  0  0  0  0  0  0  0  0
   52.5720   30.5120   52.9880 C   0  0  0  0  0  0  0  0  0  0  0  0
   52.8650   30.8950   51.6680 C   0  0  0  0  0  0  0  0  0  0  0  0
   51.8100   31.2780   50.7650 N   0  0  0  0  0  0  0  0  0  0  0  0
   51.1590   32.3250   50.9540 O   0  0  0  0  0  0  0  0  0  0  0  0
   51.5040   30.4940   49.6760 O   0  0  0  0  0  0  0  0  0  0  0  0
   54.2050   30.8990   51.2410 C   0  0  0  0  0  0  0  0  0  0  0  0
   56.6100   32.5290   50.8100 H   0  0  0  0  0  0  0  0  0  0  0  0
   59.2349   31.3171   51.0997 H   0  0  0  0  0  0  0  0  0  0  0  0
   58.5371   30.9561   49.4765 H   0  0  0  0  0  0  0  0  0  0  0  0
   58.5514   33.8908   50.4419 H   0  0  0  0  0  0  0  0  0  0  0  0
   61.3254   34.5013   50.4986 H   0  0  0  0  0  0  0  0  0  0  0  0
   63.8178   34.3811   50.5180 H   0  0  0  0  0  0  0  0  0  0  0  0
   65.0177   33.0056   48.8137 H   0  0  0  0  0  0  0  0  0  0  0  0
   63.7258   31.7573   47.0792 H   0  0  0  0  0  0  0  0  0  0  0  0
   61.2328   31.8721   47.0549 H   0  0  0  0  0  0  0  0  0  0  0  0
   57.2133   32.3798   47.8873 H   0  0  0  0  0  0  0  0  0  0  0  0
   56.0870   32.9187   45.7289 H   0  0  0  0  0  0  0  0  0  0  0  0
   57.1989   34.4246   44.0780 H   0  0  0  0  0  0  0  0  0  0  0  0
   59.4373   35.4024   44.5902 H   0  0  0  0  0  0  0  0  0  0  0  0
   60.5750   34.8671   46.7422 H   0  0  0  0  0  0  0  0  0  0  0  0
   55.7273   29.8670   54.1279 H   0  0  0  0  0  0  0  0  0  0  0  0
   53.3574   29.8500   54.8942 H   0  0  0  0  0  0  0  0  0  0  0  0
   51.5282   30.5013   53.3349 H   0  0  0  0  0  0  0  0  0  0  0  0
   54.4450   31.2044   50.2119 H   0  0  0  0  0  0  0  0  0  0  0  0
  1  2  2  0
  2  3  1  0
  3  4  1  0
  4  5  1  0
  5  6  2  3
  6  7  1  0
  7  8  2  0
  8  9  1  0
  9 10  2  0
 10 11  1  0
 11 12  2  0
  6 13  1  0
 13 14  2  0
 14 15  1  0
 15 16  2  0
 16 17  1  0
 17 18  2  0
  2 19  1  0
 19 20  2  0
 20 21  1  0
 21 22  2  0
 22 23  1  0
 23 24  1  0
 24 25  2  0
 24 26  1  0
 23 27  2  0
 12  7  1  0
 18 13  1  0
 27 19  1  0
  3 28  1  0
  4 29  1  0
  4 30  1  0
  5 31  1  0
  8 32  1  0
  9 33  1  0
 10 34  1  0
 11 35  1  0
 12 36  1  0
 14 37  1  0
 15 38  1  0
 16 39  1  0
 17 40  1  0
 18 41  1  0
 20 42  1  0
 21 43  1  0
 22 44  1  0
 27 45  1  0
M  CHG  2  24   1  26  -1
M  END
>  <UniqueID>  (59) 
57

>  <SMILES>  (59) 
O=C(NCC=C(c1ccccc1)c1ccccc1)c1cccc([N+](=O)[O-])c1

>  <Energy>  (59) 
59.91527234506671

>  <Genealogy>  (59) 
O=C(NCC=C(c1ccccc1)c1ccccc1)c1cccc([N+](=O)[O-])c1 (3D coordinates assigned)
O=C(NCC=C(c1ccccc1)c1ccccc1)c1cccc([N+](=O)[O-])c1 (optimized conformer: 59.91527234506671 kcal/mol)

>  <smiles>  (59) 
O=C(NCC=C(c1ccccc1)c1ccccc1)c1cccc([N+](=O)[O-])c1

>  <score_type>  (59) 
oracle

>  <origin>  (59) 
adg

>  <m_score__min__energy>  (59) 
-10.1

>  <m_primary>  (59) 
energy

$$$$
59:0
     RDKit          3D

 50 53  0  0  0  0  0  0  0  0999 V2000
   54.3990   29.3560   45.1110 H   0  0  0  0  0  0  0  0  0  0  0  0
   55.4320   29.2910   44.9670 N   0  0  0  0  0  0  0  0  0  0  0  0
   56.0420   29.8110   43.7860 C   0  0  0  0  0  0  0  0  0  0  0  0
   55.8720   29.2070   42.6920 O   0  0  0  0  0  0  0  0  0  0  0  0
   56.8640   31.0430   43.8420 C   0  0  0  0  0  0  0  0  0  0  0  0
   57.4690   31.5520   42.6790 C   0  0  0  0  0  0  0  0  0  0  0  0
   57.3465   31.0223   41.7228 H   0  0  0  0  0  0  0  0  0  0  0  0
   58.2240   32.7250   42.7300 C   0  0  0  0  0  0  0  0  0  0  0  0
   58.6847   33.1211   41.8130 H   0  0  0  0  0  0  0  0  0  0  0  0
   58.3960   33.3970   43.9420 C   0  0  0  0  0  0  0  0  0  0  0  0
   58.9788   34.3295   43.9720 H   0  0  0  0  0  0  0  0  0  0  0  0
   57.8320   32.8920   45.1180 C   0  0  0  0  0  0  0  0  0  0  0  0
   58.0140   33.6290   46.3390 N   0  0  0  0  0  0  0  0  0  0  0  0
   59.1420   33.8520   46.9450 C   0  0  0  0  0  0  0  0  0  0  0  0
   59.2510   34.4480   48.1560 N   0  0  0  0  0  0  0  0  0  0  0  0
   60.5440   34.5030   48.5690 C   0  0  0  0  0  0  0  0  0  0  0  0
   60.8452   34.9592   49.5236 H   0  0  0  0  0  0  0  0  0  0  0  0
   61.4540   33.9360   47.6870 C   0  0  0  0  0  0  0  0  0  0  0  0
   63.2200   33.8120   47.9450 S   0  0  0  0  0  0  0  0  0  0  0  0
   63.0450   32.3990   49.0340 C   0  0  0  0  0  0  0  0  0  0  0  0
   63.9270   32.2300   50.1050 C   0  0  0  0  0  0  0  0  0  0  0  0
   64.7377   32.9549   50.2703 H   0  0  0  0  0  0  0  0  0  0  0  0
   63.7780   31.1400   50.9650 C   0  0  0  0  0  0  0  0  0  0  0  0
   64.4691   31.0111   51.8110 H   0  0  0  0  0  0  0  0  0  0  0  0
   62.7540   30.2120   50.7550 C   0  0  0  0  0  0  0  0  0  0  0  0
   62.6405   29.3591   51.4403 H   0  0  0  0  0  0  0  0  0  0  0  0
   61.8670   30.3620   49.6720 C   0  0  0  0  0  0  0  0  0  0  0  0
   60.7680   29.3960   49.4390 C   0  0  0  0  0  0  0  0  0  0  0  0
   60.7730   28.2940   50.0540 O   0  0  0  0  0  0  0  0  0  0  0  0
   59.6880   29.7000   48.5390 N   0  0  0  0  0  0  0  0  0  0  0  0
   59.5930   30.6630   48.1460 H   0  0  0  0  0  0  0  0  0  0  0  0
   58.6330   28.7370   48.2320 C   0  0  0  0  0  0  0  0  0  0  0  0
   58.7875   27.8263   48.8292 H   0  0  0  0  0  0  0  0  0  0  0  0
   57.6576   29.1843   48.4740 H   0  0  0  0  0  0  0  0  0  0  0  0
   58.6610   28.3830   46.7700 C   0  0  0  0  0  0  0  0  0  0  0  0
   57.8540   27.3490   46.2680 C   0  0  0  0  0  0  0  0  0  0  0  0
   57.2034   26.7812   46.9494 H   0  0  0  0  0  0  0  0  0  0  0  0
   57.8750   27.0390   44.9040 C   0  0  0  0  0  0  0  0  0  0  0  0
   57.2430   26.2268   44.5155 H   0  0  0  0  0  0  0  0  0  0  0  0
   58.6980   27.7600   44.0340 C   0  0  0  0  0  0  0  0  0  0  0  0
   58.7162   27.5121   42.9625 H   0  0  0  0  0  0  0  0  0  0  0  0
   59.4980   28.7960   44.5250 C   0  0  0  0  0  0  0  0  0  0  0  0
   60.1423   29.3651   43.8387 H   0  0  0  0  0  0  0  0  0  0  0  0
   59.4800   29.1100   45.8890 C   0  0  0  0  0  0  0  0  0  0  0  0
   60.1083   29.9276   46.2722 H   0  0  0  0  0  0  0  0  0  0  0  0
   62.0200   31.4700   48.8160 C   0  0  0  0  0  0  0  0  0  0  0  0
   61.3297   31.6065   47.9705 H   0  0  0  0  0  0  0  0  0  0  0  0
   60.6290   33.3470   46.3450 S   0  0  0  0  0  0  0  0  0  0  0  0
   57.0430   31.7260   45.0590 C   0  0  0  0  0  0  0  0  0  0  0  0
   56.5626   31.3463   45.9728 H   0  0  0  0  0  0  0  0  0  0  0  0
  1  2  1  0
  2  3  1  0
  3  4  2  0
  3  5  1  0
  5  6  2  0
  6  7  1  0
  6  8  1  0
  8  9  1  0
  8 10  2  0
 10 11  1  0
 10 12  1  0
 12 13  1  0
 13 14  2  0
 14 15  1  0
 15 16  1  0
 16 17  1  0
 16 18  2  0
 18 19  1  0
 19 20  1  0
 20 21  2  0
 21 22  1  0
 21 23  1  0
 23 24  1  0
 23 25  2  0
 25 26  1  0
 25 27  1  0
 27 28  1  0
 28 29  2  0
 28 30  1  0
 30 31  1  0
 30 32  1  0
 32 33  1  0
 32 34  1  0
 32 35  1  0
 35 36  2  0
 36 37  1  0
 36 38  1  0
 38 39  1  0
 38 40  2  0
 40 41  1  0
 40 42  1  0
 42 43  1  0
 42 44  2  0
 44 45  1  0
 27 46  2  0
 46 47  1  0
 18 48  1  0
 12 49  2  0
 49 50  1  0
 49  5  1  0
 48 14  1  0
 46 20  1  0
 44 35  1  0
M  CHG  2   2  -1  15  -1
M  END
>  <UniqueID>  (60) 
58

>  <SMILES>  (60) 
[NH-]C(=O)c1cccc(/N=c2\[n-]cc(Sc3cccc(C(=O)NCc4ccccc4)c3)s2)c1

>  <Energy>  (60) 
87.05504409831227

>  <Genealogy>  (60) 
[NH-]C(=O)c1cccc(N=c2[n-]cc(Sc3cccc(C(=O)NCc4ccccc4)c3)s2)c1 (protonated)
[NH-]C(=O)c1cccc(/N=c2\[n-]cc(Sc3cccc(C(=O)NCc4ccccc4)c3)s2)c1 (cis-trans isomerization)
[NH-]C(=O)c1cccc(/N=c2\[n-]cc(Sc3cccc(C(=O)NCc4ccccc4)c3)s2)c1 (3D coordinates assigned)
[NH-]C(=O)c1cccc(/N=c2\[n-]cc(Sc3cccc(C(=O)NCc4ccccc4)c3)s2)c1 (optimized conformer: 87.05504409831227 kcal/mol)

>  <smiles>  (60) 
NC(=O)c1cccc(N=c2[nH]cc(Sc3cccc(C(=O)NCc4ccccc4)c3)s2)c1

>  <score_type>  (60) 
oracle

>  <origin>  (60) 
adg

>  <m_score__min__energy>  (60) 
-15.210000000000001

>  <m_primary>  (60) 
energy

$$$$
60:0
     RDKit          3D

 49 52  0  0  0  0  0  0  0  0999 V2000
   51.5780   22.5580   47.2640 C   0  0  0  0  0  0  0  0  0  0  0  0
   52.5950   22.7880   45.8210 S   0  0  0  0  0  0  0  0  0  0  0  0
   53.5360   21.6230   45.7070 O   0  0  0  0  0  0  0  0  0  0  0  0
   51.7460   22.8440   44.5830 O   0  0  0  0  0  0  0  0  0  0  0  0
   53.5280   24.2430   45.9680 N   0  0  0  0  0  0  0  0  0  0  0  0
   54.8970   24.4100   45.5740 C   0  0  0  0  0  0  0  0  0  0  0  0
   55.6480   23.3560   45.0210 C   0  0  0  0  0  0  0  0  0  0  0  0
   56.9780   23.5590   44.6530 C   0  0  0  0  0  0  0  0  0  0  0  0
   57.5760   24.8080   44.8310 C   0  0  0  0  0  0  0  0  0  0  0  0
   56.8400   25.8740   45.3830 C   0  0  0  0  0  0  0  0  0  0  0  0
   57.3960   27.1490   45.5860 O   0  0  0  0  0  0  0  0  0  0  0  0
   57.0310   28.3300   44.8720 C   0  0  0  0  0  0  0  0  0  0  0  0
   57.7820   29.5150   45.3920 C   0  0  0  0  0  0  0  0  0  0  0  0
   58.9800   29.4050   46.0230 N   0  0  0  0  0  0  0  0  0  0  0  0
   59.2830   30.6820   46.2950 C   0  0  0  0  0  0  0  0  0  0  0  0
   60.4140   31.1680   46.9470 C   0  0  0  0  0  0  0  0  0  0  0  0
   60.5310   32.5700   47.1250 C   0  0  0  0  0  0  0  0  0  0  0  0
   61.7080   33.1730   47.8010 C   0  0  0  0  0  0  0  0  0  0  0  0
   62.4570   33.9450   47.1440 O   0  0  0  0  0  0  0  0  0  0  0  0
   62.0050   32.8980   49.1840 N   0  0  0  0  0  0  0  0  0  0  0  0
   63.2570   33.2300   49.8100 C   0  0  0  0  0  0  0  0  0  0  0  0
   64.4660   32.6530   49.3810 C   0  0  0  0  0  0  0  0  0  0  0  0
   65.6660   32.9660   50.0290 C   0  0  0  0  0  0  0  0  0  0  0  0
   65.6670   33.8450   51.1150 C   0  0  0  0  0  0  0  0  0  0  0  0
   64.4670   34.4060   51.5610 C   0  0  0  0  0  0  0  0  0  0  0  0
   63.2660   34.0940   50.9170 C   0  0  0  0  0  0  0  0  0  0  0  0
   59.4900   33.4160   46.6520 C   0  0  0  0  0  0  0  0  0  0  0  0
   58.3650   32.8830   45.9990 C   0  0  0  0  0  0  0  0  0  0  0  0
   58.3030   31.5050   45.8390 C   0  0  0  0  0  0  0  0  0  0  0  0
   57.3310   30.7900   45.2530 N   0  0  0  0  0  0  0  0  0  0  0  0
   55.5030   25.6640   45.7510 C   0  0  0  0  0  0  0  0  0  0  0  0
   54.7690   26.7130   46.2960 O   0  0  0  0  0  0  0  0  0  0  0  0
   52.1884   22.6961   48.1686 H   0  0  0  0  0  0  0  0  0  0  0  0
   50.7605   23.2939   47.2575 H   0  0  0  0  0  0  0  0  0  0  0  0
   51.1567   21.5419   47.2575 H   0  0  0  0  0  0  0  0  0  0  0  0
   55.1845   22.3687   44.8785 H   0  0  0  0  0  0  0  0  0  0  0  0
   57.5586   22.7309   44.2204 H   0  0  0  0  0  0  0  0  0  0  0  0
   58.6256   24.9598   44.5390 H   0  0  0  0  0  0  0  0  0  0  0  0
   57.2643   28.1940   43.8057 H   0  0  0  0  0  0  0  0  0  0  0  0
   55.9537   28.5066   45.0072 H   0  0  0  0  0  0  0  0  0  0  0  0
   61.1938   30.4840   47.3132 H   0  0  0  0  0  0  0  0  0  0  0  0
   61.2710   32.4780   49.7960 H   0  0  0  0  0  0  0  0  0  0  0  0
   64.4681   31.9528   48.5326 H   0  0  0  0  0  0  0  0  0  0  0  0
   66.6098   32.5194   49.6829 H   0  0  0  0  0  0  0  0  0  0  0  0
   66.6121   34.0955   51.6190 H   0  0  0  0  0  0  0  0  0  0  0  0
   64.4676   35.0937   52.4196 H   0  0  0  0  0  0  0  0  0  0  0  0
   62.3225   34.5279   51.2796 H   0  0  0  0  0  0  0  0  0  0  0  0
   59.5664   34.5034   46.7994 H   0  0  0  0  0  0  0  0  0  0  0  0
   57.5611   33.5354   45.6274 H   0  0  0  0  0  0  0  0  0  0  0  0
  1  2  1  0
  2  3  2  0
  2  4  2  0
  2  5  1  0
  5  6  1  0
  6  7  2  0
  7  8  1  0
  8  9  2  0
  9 10  1  0
 10 11  1  0
 11 12  1  0
 12 13  1  0
 13 14  2  0
 14 15  1  0
 15 16  2  0
 16 17  1  0
 17 18  1  0
 18 19  2  0
 18 20  1  0
 20 21  1  0
 21 22  2  0
 22 23  1  0
 23 24  2  0
 24 25  1  0
 25 26  2  0
 17 27  2  0
 27 28  1  0
 28 29  2  0
 29 30  1  0
 10 31  2  0
 31 32  1  0
 31  6  1  0
 30 13  1  0
 29 15  1  0
 26 21  1  0
  1 33  1  0
  1 34  1  0
  1 35  1  0
  7 36  1  0
  8 37  1  0
  9 38  1  0
 12 39  1  0
 12 40  1  0
 16 41  1  0
 20 42  1  0
 22 43  1  0
 23 44  1  0
 24 45  1  0
 25 46  1  0
 26 47  1  0
 27 48  1  0
 28 49  1  0
M  CHG  3   5  -1  30  -1  32  -1
M  END
>  <UniqueID>  (61) 
59

>  <SMILES>  (61) 
CS(=O)(=O)[N-]c1cccc(OCc2nc3cc(C(=O)Nc4ccccc4)ccc3[n-]2)c1[O-]

>  <Energy>  (61) 
93.92344374087125

>  <Genealogy>  (61) 
CS(=O)(=O)[N-]c1cccc(OCc2nc3cc(C(=O)Nc4ccccc4)ccc3[n-]2)c1[O-] (protonated)
CS(=O)(=O)[N-]c1cccc(OCc2nc3cc(C(=O)Nc4ccccc4)ccc3[n-]2)c1[O-] (3D coordinates assigned)
CS(=O)(=O)[N-]c1cccc(OCc2nc3cc(C(=O)Nc4ccccc4)ccc3[n-]2)c1[O-] (optimized conformer: 93.92344374087125 kcal/mol)

>  <smiles>  (61) 
CS(=O)(=O)Nc1cccc(OCc2nc3cc(C(=O)Nc4ccccc4)ccc3[nH]2)c1O

>  <score_type>  (61) 
oracle

>  <origin>  (61) 
adg

>  <m_score__min__energy>  (61) 
-16.739999999999998

>  <m_primary>  (61) 
energy

$$$$
61:0
     RDKit          3D

 35 36  0  0  0  0  0  0  0  0999 V2000
   59.6320   32.2370   54.1310 C   0  0  0  0  0  0  0  0  0  0  0  0
   59.9470   33.3260   53.2700 O   0  0  0  0  0  0  0  0  0  0  0  0
   59.0870   33.7650   52.2590 C   0  0  0  0  0  0  0  0  0  0  0  0
   58.1600   34.5760   52.5380 O   0  0  0  0  0  0  0  0  0  0  0  0
   59.2630   33.2970   50.8580 C   0  0  0  0  0  0  0  0  0  0  0  0
   60.3500   33.7840   50.1040 C   0  0  0  0  0  0  0  0  0  0  0  0
   60.5530   33.3640   48.7890 C   0  0  0  0  0  0  0  0  0  0  0  0
   59.6720   32.4600   48.1990 C   0  0  0  0  0  0  0  0  0  0  0  0
   58.5870   31.9690   48.9260 C   0  0  0  0  0  0  0  0  0  0  0  0
   58.3840   32.3590   50.2610 C   0  0  0  0  0  0  0  0  0  0  0  0
   57.2250   31.8940   50.9660 N   0  0  0  0  0  0  0  0  0  0  0  0
   57.1420   30.7070   51.7660 C   0  0  0  0  0  0  0  0  0  0  0  0
   57.4880   29.6100   51.2540 O   0  0  0  0  0  0  0  0  0  0  0  0
   56.4920   30.7130   53.1240 C   0  0  0  0  0  0  0  0  0  0  0  0
   55.0900   30.9570   53.0200 O   0  0  0  0  0  0  0  0  0  0  0  0
   54.2140   30.1310   52.3050 C   0  0  0  0  0  0  0  0  0  0  0  0
   54.4010   28.8830   52.2670 O   0  0  0  0  0  0  0  0  0  0  0  0
   53.0730   30.7340   51.5970 C   0  0  0  0  0  0  0  0  0  0  0  0
   52.6040   30.2080   50.3850 C   0  0  0  0  0  0  0  0  0  0  0  0
   51.5170   30.8280   49.7640 C   0  0  0  0  0  0  0  0  0  0  0  0
   51.0710   30.3830   48.6750 O   0  0  0  0  0  0  0  0  0  0  0  0
   50.9400   31.9160   50.3360 N   0  0  0  0  0  0  0  0  0  0  0  0
   51.4040   32.4150   51.5110 C   0  0  0  0  0  0  0  0  0  0  0  0
   50.8560   33.4230   52.0260 O   0  0  0  0  0  0  0  0  0  0  0  0
   52.4600   31.8260   52.1300 N   0  0  0  0  0  0  0  0  0  0  0  0
   59.7252   32.5591   55.1787 H   0  0  0  0  0  0  0  0  0  0  0  0
   58.6009   31.9048   53.9398 H   0  0  0  0  0  0  0  0  0  0  0  0
   60.3265   31.4057   53.9398 H   0  0  0  0  0  0  0  0  0  0  0  0
   61.0468   34.5040   50.5580 H   0  0  0  0  0  0  0  0  0  0  0  0
   61.4106   33.7475   48.2167 H   0  0  0  0  0  0  0  0  0  0  0  0
   59.8318   32.1336   47.1608 H   0  0  0  0  0  0  0  0  0  0  0  0
   57.8837   31.2700   48.4498 H   0  0  0  0  0  0  0  0  0  0  0  0
   56.6523   29.7361   53.6036 H   0  0  0  0  0  0  0  0  0  0  0  0
   56.9434   31.5165   53.7245 H   0  0  0  0  0  0  0  0  0  0  0  0
   53.0816   29.3262   49.9329 H   0  0  0  0  0  0  0  0  0  0  0  0
  1  2  1  0
  2  3  1  0
  3  4  2  0
  3  5  1  0
  5  6  2  0
  6  7  1  0
  7  8  2  0
  8  9  1  0
  9 10  2  0
 10 11  1  0
 11 12  1  0
 12 13  2  0
 12 14  1  0
 14 15  1  0
 15 16  1  0
 16 17  2  0
 16 18  1  0
 18 19  2  0
 19 20  1  0
 20 21  2  0
 20 22  1  0
 22 23  1  0
 23 24  2  0
 23 25  1  0
 10  5  1  0
 25 18  1  0
  1 26  1  0
  1 27  1  0
  1 28  1  0
  6 29  1  0
  7 30  1  0
  8 31  1  0
  9 32  1  0
 14 33  1  0
 14 34  1  0
 19 35  1  0
M  CHG  3  11  -1  22  -1  25  -1
M  END
>  <UniqueID>  (62) 
60

>  <SMILES>  (62) 
COC(=O)c1ccccc1[N-]C(=O)COC(=O)c1cc(=O)[n-]c(=O)[n-]1

>  <Energy>  (62) 
41.40801165897001

>  <Genealogy>  (62) 
COC(=O)c1ccccc1[N-]C(=O)COC(=O)c1cc(=O)[n-]c(=O)[n-]1 (protonated)
COC(=O)c1ccccc1[N-]C(=O)COC(=O)c1cc(=O)[n-]c(=O)[n-]1 (3D coordinates assigned)
COC(=O)c1ccccc1[N-]C(=O)COC(=O)c1cc(=O)[n-]c(=O)[n-]1 (optimized conformer: 41.40801165897001 kcal/mol)

>  <smiles>  (62) 
COC(=O)c1ccccc1NC(=O)COC(=O)c1cc(=O)[nH]c(=O)[nH]1

>  <score_type>  (62) 
oracle

>  <origin>  (62) 
adg

>  <m_score__min__energy>  (62) 
-12.42

>  <m_primary>  (62) 
energy

$$$$
62:0
     RDKit          3D

 45 48  0  0  0  0  0  0  0  0999 V2000
   59.3770   30.6610   49.4010 O   0  0  0  0  0  0  0  0  0  0  0  0
   58.6580   31.6890   49.2850 C   0  0  0  0  0  0  0  0  0  0  0  0
   57.7480   32.0570   50.3310 N   0  0  0  0  0  0  0  0  0  0  0  0
   57.7830   31.4900   51.6510 C   0  0  0  0  0  0  0  0  0  0  0  0
   56.7080   30.7320   52.1540 C   0  0  0  0  0  0  0  0  0  0  0  0
   56.7720   30.1850   53.4390 C   0  0  0  0  0  0  0  0  0  0  0  0
   57.9090   30.3800   54.2300 C   0  0  0  0  0  0  0  0  0  0  0  0
   57.9610   29.8610   55.4840 F   0  0  0  0  0  0  0  0  0  0  0  0
   58.9930   31.1080   53.7280 C   0  0  0  0  0  0  0  0  0  0  0  0
   58.9350   31.6520   52.4390 C   0  0  0  0  0  0  0  0  0  0  0  0
   58.7030   32.4460   48.0200 C   0  0  0  0  0  0  0  0  0  0  0  0
   58.2180   31.8510   46.8970 N   0  0  0  0  0  0  0  0  0  0  0  0
   58.2140   32.4690   45.6870 C   0  0  0  0  0  0  0  0  0  0  0  0
   57.6450   31.7620   44.5120 C   0  0  0  0  0  0  0  0  0  0  0  0
   57.8410   32.2840   43.2170 C   0  0  0  0  0  0  0  0  0  0  0  0
   57.3380   31.6190   42.0950 C   0  0  0  0  0  0  0  0  0  0  0  0
   56.6370   30.4210   42.2480 C   0  0  0  0  0  0  0  0  0  0  0  0
   56.4410   29.8850   43.5220 C   0  0  0  0  0  0  0  0  0  0  0  0
   56.9420   30.5480   44.6490 C   0  0  0  0  0  0  0  0  0  0  0  0
   58.7600   33.7610   45.5950 C   0  0  0  0  0  0  0  0  0  0  0  0
   59.2600   34.3590   46.7110 N   0  0  0  0  0  0  0  0  0  0  0  0
   59.2470   33.7450   47.9220 C   0  0  0  0  0  0  0  0  0  0  0  0
   60.0160   34.5810   49.3120 S   0  0  0  0  0  0  0  0  0  0  0  0
   61.6430   33.9370   48.9300 C   0  0  0  0  0  0  0  0  0  0  0  0
   62.0340   33.7430   47.5990 C   0  0  0  0  0  0  0  0  0  0  0  0
   63.3040   33.2350   47.3100 C   0  0  0  0  0  0  0  0  0  0  0  0
   64.1800   32.9110   48.3480 C   0  0  0  0  0  0  0  0  0  0  0  0
   63.7900   33.1000   49.6760 C   0  0  0  0  0  0  0  0  0  0  0  0
   62.5240   33.6180   49.9670 C   0  0  0  0  0  0  0  0  0  0  0  0
   56.9410   32.6740   50.0800 H   0  0  0  0  0  0  0  0  0  0  0  0
   55.8144   30.5697   51.5334 H   0  0  0  0  0  0  0  0  0  0  0  0
   55.9261   29.5998   53.8289 H   0  0  0  0  0  0  0  0  0  0  0  0
   59.8913   31.2532   54.3461 H   0  0  0  0  0  0  0  0  0  0  0  0
   59.7960   32.2092   52.0412 H   0  0  0  0  0  0  0  0  0  0  0  0
   58.3959   33.2250   43.0881 H   0  0  0  0  0  0  0  0  0  0  0  0
   57.4945   32.0397   41.0908 H   0  0  0  0  0  0  0  0  0  0  0  0
   56.2393   29.8997   41.3648 H   0  0  0  0  0  0  0  0  0  0  0  0
   55.8916   28.9395   43.6408 H   0  0  0  0  0  0  0  0  0  0  0  0
   56.7857   30.1180   45.6493 H   0  0  0  0  0  0  0  0  0  0  0  0
   58.7831   34.2851   44.6281 H   0  0  0  0  0  0  0  0  0  0  0  0
   61.3416   33.9904   46.7809 H   0  0  0  0  0  0  0  0  0  0  0  0
   63.6133   33.0905   46.2643 H   0  0  0  0  0  0  0  0  0  0  0  0
   65.1773   32.5069   48.1199 H   0  0  0  0  0  0  0  0  0  0  0  0
   64.4791   32.8412   50.4934 H   0  0  0  0  0  0  0  0  0  0  0  0
   62.2214   33.7745   51.0129 H   0  0  0  0  0  0  0  0  0  0  0  0
  1  2  2  0
  2  3  1  0
  3  4  1  0
  4  5  2  0
  5  6  1  0
  6  7  2  0
  7  8  1  0
  7  9  1  0
  9 10  2  0
  2 11  1  0
 11 12  2  0
 12 13  1  0
 13 14  1  0
 14 15  2  0
 15 16  1  0
 16 17  2  0
 17 18  1  0
 18 19  2  0
 13 20  2  0
 20 21  1  0
 21 22  2  0
 22 23  1  0
 23 24  1  0
 24 25  2  0
 25 26  1  0
 26 27  2  0
 27 28  1  0
 28 29  2  0
 10  4  1  0
 22 11  1  0
 29 24  1  0
 19 14  1  0
  3 30  1  0
  5 31  1  0
  6 32  1  0
  9 33  1  0
 10 34  1  0
 15 35  1  0
 16 36  1  0
 17 37  1  0
 18 38  1  0
 19 39  1  0
 20 40  1  0
 25 41  1  0
 26 42  1  0
 27 43  1  0
 28 44  1  0
 29 45  1  0
M  END
>  <UniqueID>  (63) 
61

>  <SMILES>  (63) 
O=C(Nc1ccc(F)cc1)c1nc(-c2ccccc2)cnc1Sc1ccccc1

>  <Energy>  (63) 
58.853180476569825

>  <Genealogy>  (63) 
O=C(Nc1ccc(F)cc1)c1nc(-c2ccccc2)cnc1Sc1ccccc1 (3D coordinates assigned)
O=C(Nc1ccc(F)cc1)c1nc(-c2ccccc2)cnc1Sc1ccccc1 (optimized conformer: 58.853180476569825 kcal/mol)

>  <smiles>  (63) 
O=C(Nc1ccc(F)cc1)c1nc(-c2ccccc2)cnc1Sc1ccccc1

>  <score_type>  (63) 
oracle

>  <origin>  (63) 
adg

>  <m_score__min__energy>  (63) 
-8.5099999999999998

>  <m_primary>  (63) 
energy

$$$$
63:0
     RDKit          3D

 55 58  0  0  0  0  0  0  0  0999 V2000
   56.2490   21.3630   49.5550 H   0  0  0  0  0  0  0  0  0  0  0  0
   57.0050   21.2760   48.8380 N   0  0  0  0  0  0  0  0  0  0  0  0
   56.7630   21.4390   47.5790 C   0  0  0  0  0  0  0  0  0  0  0  0
   57.5420   22.2730   46.8450 N   0  0  0  0  0  0  0  0  0  0  0  0
   57.3220   22.4640   45.5160 C   0  0  0  0  0  0  0  0  0  0  0  0
   58.1960   23.4290   44.7640 C   0  0  0  0  0  0  0  0  0  0  0  0
   59.2317   23.3348   45.1224 H   0  0  0  0  0  0  0  0  0  0  0  0
   58.1443   23.1946   43.6905 H   0  0  0  0  0  0  0  0  0  0  0  0
   57.7240   24.8420   44.9780 C   0  0  0  0  0  0  0  0  0  0  0  0
   58.1110   25.8560   44.0890 C   0  0  0  0  0  0  0  0  0  0  0  0
   58.7411   25.6123   43.2209 H   0  0  0  0  0  0  0  0  0  0  0  0
   57.6990   27.1750   44.3020 C   0  0  0  0  0  0  0  0  0  0  0  0
   58.0165   27.9650   43.6056 H   0  0  0  0  0  0  0  0  0  0  0  0
   56.8860   27.4980   45.3940 C   0  0  0  0  0  0  0  0  0  0  0  0
   56.5100   28.8680   45.5910 N   0  0  0  0  0  0  0  0  0  0  0  0
   56.2210   29.8260   44.5630 C   0  0  0  0  0  0  0  0  0  0  0  0
   55.1740   29.7230   43.8730 O   0  0  0  0  0  0  0  0  0  0  0  0
   57.1710   30.8450   44.2330 N   0  0  0  0  0  0  0  0  0  0  0  0
   57.4810   32.0000   45.0250 C   0  0  0  0  0  0  0  0  0  0  0  0
   57.5010   33.2950   44.4750 C   0  0  0  0  0  0  0  0  0  0  0  0
   57.2595   33.4436   43.4122 H   0  0  0  0  0  0  0  0  0  0  0  0
   57.8270   34.3930   45.2760 C   0  0  0  0  0  0  0  0  0  0  0  0
   57.8260   35.4053   44.8455 H   0  0  0  0  0  0  0  0  0  0  0  0
   58.1540   34.2090   46.6210 C   0  0  0  0  0  0  0  0  0  0  0  0
   58.3997   35.0764   47.2512 H   0  0  0  0  0  0  0  0  0  0  0  0
   58.1690   32.9200   47.1670 C   0  0  0  0  0  0  0  0  0  0  0  0
   58.6160   32.6800   48.8870 S   0  0  0  0  0  0  0  0  0  0  0  0
   60.3720   32.7940   48.5410 C   0  0  0  0  0  0  0  0  0  0  0  0
   60.8320   32.7320   47.2210 C   0  0  0  0  0  0  0  0  0  0  0  0
   60.1162   32.6060   46.3953 H   0  0  0  0  0  0  0  0  0  0  0  0
   62.2000   32.8300   46.9500 C   0  0  0  0  0  0  0  0  0  0  0  0
   62.5582   32.7839   45.9110 H   0  0  0  0  0  0  0  0  0  0  0  0
   63.1170   32.9870   48.0000 C   0  0  0  0  0  0  0  0  0  0  0  0
   64.5160   33.0900   47.7230 N   0  0  0  0  0  0  0  0  0  0  0  0
   65.2000   33.2770   48.4900 H   0  0  0  0  0  0  0  0  0  0  0  0
   64.8780   32.9750   46.7510 H   0  0  0  0  0  0  0  0  0  0  0  0
   62.6530   33.0440   49.3220 C   0  0  0  0  0  0  0  0  0  0  0  0
   63.3673   33.1677   50.1493 H   0  0  0  0  0  0  0  0  0  0  0  0
   61.2850   32.9440   49.5910 C   0  0  0  0  0  0  0  0  0  0  0  0
   60.9254   32.9833   50.6298 H   0  0  0  0  0  0  0  0  0  0  0  0
   57.8360   31.8200   46.3680 C   0  0  0  0  0  0  0  0  0  0  0  0
   57.8532   30.8075   46.7976 H   0  0  0  0  0  0  0  0  0  0  0  0
   56.5200   26.4880   46.3010 C   0  0  0  0  0  0  0  0  0  0  0  0
   55.9054   26.7366   47.1787 H   0  0  0  0  0  0  0  0  0  0  0  0
   56.9340   25.1690   46.0920 C   0  0  0  0  0  0  0  0  0  0  0  0
   56.6395   24.3836   46.8036 H   0  0  0  0  0  0  0  0  0  0  0  0
   56.2550   21.7990   44.8860 C   0  0  0  0  0  0  0  0  0  0  0  0
   56.0150   22.0090   43.5190 O   0  0  0  0  0  0  0  0  0  0  0  0
   55.5750   23.2410   42.9590 C   0  0  0  0  0  0  0  0  0  0  0  0
   55.3244   23.9428   43.7681 H   0  0  0  0  0  0  0  0  0  0  0  0
   56.3761   23.6683   42.3380 H   0  0  0  0  0  0  0  0  0  0  0  0
   54.6844   23.0642   42.3380 H   0  0  0  0  0  0  0  0  0  0  0  0
   55.4630   20.9410   45.6680 C   0  0  0  0  0  0  0  0  0  0  0  0
   54.6232   20.3988   45.2089 H   0  0  0  0  0  0  0  0  0  0  0  0
   55.7320   20.7800   46.9880 N   0  0  0  0  0  0  0  0  0  0  0  0
  1  2  1  0
  2  3  2  0
  3  4  1  0
  4  5  2  0
  5  6  1  0
  6  7  1  0
  6  8  1  0
  6  9  1  0
  9 10  2  0
 10 11  1  0
 10 12  1  0
 12 13  1  0
 12 14  2  0
 14 15  1  0
 15 16  1  0
 16 17  2  0
 16 18  1  0
 18 19  1  0
 19 20  2  0
 20 21  1  0
 20 22  1  0
 22 23  1  0
 22 24  2  0
 24 25  1  0
 24 26  1  0
 26 27  1  0
 27 28  1  0
 28 29  2  0
 29 30  1  0
 29 31  1  0
 31 32  1  0
 31 33  2  0
 33 34  1  0
 34 35  1  0
 34 36  1  0
 33 37  1  0
 37 38  1  0
 37 39  2  0
 39 40  1  0
 26 41  2  0
 41 42  1  0
 14 43  1  0
 43 44  1  0
 43 45  2  0
 45 46  1  0
  5 47  1  0
 47 48  1  0
 48 49  1  0
 49 50  1  0
 49 51  1  0
 49 52  1  0
 47 53  2  0
 53 54  1  0
 53 55  1  0
 55  3  1  0
 45  9  1  0
 41 19  1  0
 39 28  1  0
M  CHG  3  15  -1  18  -1  55  -1
M  END
>  <UniqueID>  (64) 
62

>  <SMILES>  (64) 
[H]/N=c1/nc(Cc2ccc([N-]C(=O)[N-]c3cccc(Sc4ccc(N)cc4)c3)cc2)c(OC)c[n-]1

>  <Energy>  (64) 
59.15450552808649

>  <Genealogy>  (64) 
COc1c[n-]c(=N)nc1Cc1ccc([N-]C(=O)[N-]c2cccc(Sc3ccc(N)cc3)c2)cc1 (protonated)
[H]/N=c1/nc(Cc2ccc([N-]C(=O)[N-]c3cccc(Sc4ccc(N)cc4)c3)cc2)c(OC)c[n-]1 (cis-trans isomerization)
[H]/N=c1/nc(Cc2ccc([N-]C(=O)[N-]c3cccc(Sc4ccc(N)cc4)c3)cc2)c(OC)c[n-]1 (3D coordinates assigned)
[H]/N=c1/nc(Cc2ccc([N-]C(=O)[N-]c3cccc(Sc4ccc(N)cc4)c3)cc2)c(OC)c[n-]1 (optimized conformer: 59.15450552808649 kcal/mol)

>  <smiles>  (64) 
COc1c[nH]c(=N)nc1Cc1ccc(NC(=O)Nc2cccc(Sc3ccc(N)cc3)c2)cc1

>  <score_type>  (64) 
oracle

>  <origin>  (64) 
adg

>  <m_score__min__energy>  (64) 
-14.06

>  <m_primary>  (64) 
energy

$$$$
64:0
     RDKit          3D

 42 44  0  0  0  0  0  0  0  0999 V2000
   57.8530   29.3950   46.7980 O   0  0  0  0  0  0  0  0  0  0  0  0
   58.2410   28.2000   46.9810 C   0  0  0  0  0  0  0  0  0  0  0  0
   58.9690   27.9640   48.1800 N   0  0  0  0  0  0  0  0  0  0  0  0
   59.3090   29.2220   49.3250 S   0  0  0  0  0  0  0  0  0  0  0  0
   60.5520   28.8220   50.0920 O   0  0  0  0  0  0  0  0  0  0  0  0
   58.1520   29.4290   50.2520 O   0  0  0  0  0  0  0  0  0  0  0  0
   59.6940   30.6540   48.3950 C   0  0  0  0  0  0  0  0  0  0  0  0
   58.9710   31.8050   48.7110 C   0  0  0  0  0  0  0  0  0  0  0  0
   59.1670   33.0040   48.0680 C   0  0  0  0  0  0  0  0  0  0  0  0
   60.1330   33.0290   47.0660 C   0  0  0  0  0  0  0  0  0  0  0  0
   60.3410   34.3270   46.3700 C   0  0  0  0  0  0  0  0  0  0  0  0
   58.7780   34.7630   45.5600 S   0  0  0  0  0  0  0  0  0  0  0  0
   58.1500   33.2650   44.7880 C   0  0  0  0  0  0  0  0  0  0  0  0
   57.5610   32.3170   45.5370 N   0  0  0  0  0  0  0  0  0  0  0  0
   57.0750   31.1790   45.0140 N   0  0  0  0  0  0  0  0  0  0  0  0
   57.2000   31.0110   43.6640 C   0  0  0  0  0  0  0  0  0  0  0  0
   56.7610   29.9690   43.1480 O   0  0  0  0  0  0  0  0  0  0  0  0
   57.8050   31.9770   42.8710 C   0  0  0  0  0  0  0  0  0  0  0  0
   57.9260   31.8360   41.6320 O   0  0  0  0  0  0  0  0  0  0  0  0
   58.2710   33.0940   43.4530 N   0  0  0  0  0  0  0  0  0  0  0  0
   60.8620   31.8890   46.7390 C   0  0  0  0  0  0  0  0  0  0  0  0
   60.6410   30.6870   47.4100 C   0  0  0  0  0  0  0  0  0  0  0  0
   57.9530   27.1460   46.0170 C   0  0  0  0  0  0  0  0  0  0  0  0
   58.0810   27.3230   44.6480 C   0  0  0  0  0  0  0  0  0  0  0  0
   57.7850   26.2670   43.7810 C   0  0  0  0  0  0  0  0  0  0  0  0
   57.3640   25.0460   44.2750 C   0  0  0  0  0  0  0  0  0  0  0  0
   57.2350   24.8700   45.6490 C   0  0  0  0  0  0  0  0  0  0  0  0
   57.5290   25.9150   46.5040 C   0  0  0  0  0  0  0  0  0  0  0  0
   59.3240   27.0230   48.4090 H   0  0  0  0  0  0  0  0  0  0  0  0
   58.2136   31.7506   49.5068 H   0  0  0  0  0  0  0  0  0  0  0  0
   58.5880   33.9011   48.3326 H   0  0  0  0  0  0  0  0  0  0  0  0
   60.6171   35.1042   47.0979 H   0  0  0  0  0  0  0  0  0  0  0  0
   61.1525   34.2467   45.6317 H   0  0  0  0  0  0  0  0  0  0  0  0
   56.6260   30.4680   45.6250 H   0  0  0  0  0  0  0  0  0  0  0  0
   58.7340   33.8630   42.9300 H   0  0  0  0  0  0  0  0  0  0  0  0
   61.6200   31.9370   45.9433 H   0  0  0  0  0  0  0  0  0  0  0  0
   61.2160   29.7853   47.1524 H   0  0  0  0  0  0  0  0  0  0  0  0
   58.4143   28.2909   44.2454 H   0  0  0  0  0  0  0  0  0  0  0  0
   57.8880   26.4088   42.6951 H   0  0  0  0  0  0  0  0  0  0  0  0
   57.1328   24.2198   43.5866 H   0  0  0  0  0  0  0  0  0  0  0  0
   56.9004   23.9031   46.0530 H   0  0  0  0  0  0  0  0  0  0  0  0
   57.4257   25.7701   47.5895 H   0  0  0  0  0  0  0  0  0  0  0  0
  1  2  2  0
  2  3  1  0
  3  4  1  0
  4  5  2  0
  4  6  2  0
  4  7  1  0
  7  8  2  0
  8  9  1  0
  9 10  2  0
 10 11  1  0
 11 12  1  0
 12 13  1  0
 13 14  2  0
 14 15  1  0
 15 16  1  0
 16 17  2  0
 16 18  1  0
 18 19  2  0
 18 20  1  0
 10 21  1  0
 21 22  2  0
  2 23  1  0
 23 24  2  0
 24 25  1  0
 25 26  2  0
 26 27  1  0
 27 28  2  0
 22  7  1  0
 28 23  1  0
 20 13  1  0
  3 29  1  0
  8 30  1  0
  9 31  1  0
 11 32  1  0
 11 33  1  0
 15 34  1  0
 20 35  1  0
 21 36  1  0
 22 37  1  0
 24 38  1  0
 25 39  1  0
 26 40  1  0
 27 41  1  0
 28 42  1  0
M  END
>  <smiles>  (65) 
O=C(NS(=O)(=O)c1ccc(CSc2n[nH]c(=O)c(=O)[nH]2)cc1)c1ccccc1

>  <score_type>  (65) 
oracle

>  <origin>  (65) 
adg

>  <m_score__min__energy>  (65) 
-9.5600000000000005

>  <m_primary>  (65) 
energy

$$$$
65:0
     RDKit          3D

 60 63  0  0  0  0  0  0  0  0999 V2000
   53.2774   25.1102   45.6576 H   0  0  0  0  0  0  0  0  0  0  0  0
   54.3700   24.9890   45.6190 C   0  0  0  0  0  0  0  0  0  0  0  0
   55.1740   25.8460   46.3020 N   0  0  0  0  0  0  0  0  0  0  0  0
   56.5300   25.7120   46.2730 C   0  0  0  0  0  0  0  0  0  0  0  0
   57.3030   26.5450   46.9030 N   0  0  0  0  0  0  0  0  0  0  0  0
   58.2690   27.4430   46.3220 C   0  0  0  0  0  0  0  0  0  0  0  0
   57.9740   28.8070   46.1280 C   0  0  0  0  0  0  0  0  0  0  0  0
   56.9774   29.1895   46.3933 H   0  0  0  0  0  0  0  0  0  0  0  0
   58.9340   29.6840   45.6010 C   0  0  0  0  0  0  0  0  0  0  0  0
   58.5960   31.0730   45.4330 N   0  0  0  0  0  0  0  0  0  0  0  0
   59.2610   31.7770   45.8180 H   0  0  0  0  0  0  0  0  0  0  0  0
   57.3730   31.5510   44.8450 C   0  0  0  0  0  0  0  0  0  0  0  0
   56.3520   30.8160   44.8150 O   0  0  0  0  0  0  0  0  0  0  0  0
   57.2810   32.8780   44.3140 N   0  0  0  0  0  0  0  0  0  0  0  0
   57.3520   34.0880   45.1240 C   0  0  0  0  0  0  0  0  0  0  0  0
   56.4327   34.1846   45.7203 H   0  0  0  0  0  0  0  0  0  0  0  0
   57.4563   34.9638   44.4666 H   0  0  0  0  0  0  0  0  0  0  0  0
   58.5380   34.0070   46.0420 C   0  0  0  0  0  0  0  0  0  0  0  0
   59.8270   34.2600   45.5490 C   0  0  0  0  0  0  0  0  0  0  0  0
   59.9678   34.5046   44.4858 H   0  0  0  0  0  0  0  0  0  0  0  0
   60.9310   34.2030   46.4000 C   0  0  0  0  0  0  0  0  0  0  0  0
   61.9389   34.3978   46.0047 H   0  0  0  0  0  0  0  0  0  0  0  0
   60.7600   33.8990   47.7540 C   0  0  0  0  0  0  0  0  0  0  0  0
   61.6360   33.8470   48.4172 H   0  0  0  0  0  0  0  0  0  0  0  0
   59.4740   33.6590   48.2740 C   0  0  0  0  0  0  0  0  0  0  0  0
   59.2980   33.3440   49.7130 C   0  0  0  0  0  0  0  0  0  0  0  0
   59.5950   34.2120   50.5810 O   0  0  0  0  0  0  0  0  0  0  0  0
   58.7070   32.0940   50.1110 N   0  0  0  0  0  0  0  0  0  0  0  0
   59.2100   30.8930   50.0220 C   0  0  0  0  0  0  0  0  0  0  0  0
   59.3920   30.1870   51.1700 N   0  0  0  0  0  0  0  0  0  0  0  0
   59.9160   28.9310   51.1780 C   0  0  0  0  0  0  0  0  0  0  0  0
   60.0427   28.3966   52.1311 H   0  0  0  0  0  0  0  0  0  0  0  0
   60.2940   28.3170   49.9800 C   0  0  0  0  0  0  0  0  0  0  0  0
   60.8290   26.9160   49.9760 C   0  0  0  0  0  0  0  0  0  0  0  0
   60.9608   26.5709   51.0121 H   0  0  0  0  0  0  0  0  0  0  0  0
   60.1203   26.2543   49.4565 H   0  0  0  0  0  0  0  0  0  0  0  0
   61.7984   26.8952   49.4565 H   0  0  0  0  0  0  0  0  0  0  0  0
   60.0790   29.0010   48.7820 C   0  0  0  0  0  0  0  0  0  0  0  0
   60.3357   28.5231   47.8251 H   0  0  0  0  0  0  0  0  0  0  0  0
   59.5400   30.2880   48.7930 C   0  0  0  0  0  0  0  0  0  0  0  0
   59.3738   30.8267   47.8485 H   0  0  0  0  0  0  0  0  0  0  0  0
   58.3640   33.7190   47.4080 C   0  0  0  0  0  0  0  0  0  0  0  0
   57.3533   33.5392   47.8032 H   0  0  0  0  0  0  0  0  0  0  0  0
   60.2240   29.2000   45.3250 C   0  0  0  0  0  0  0  0  0  0  0  0
   60.9948   29.8846   44.9414 H   0  0  0  0  0  0  0  0  0  0  0  0
   60.5320   27.8560   45.5350 C   0  0  0  0  0  0  0  0  0  0  0  0
   61.5445   27.4883   45.3124 H   0  0  0  0  0  0  0  0  0  0  0  0
   59.5620   26.9670   46.0280 C   0  0  0  0  0  0  0  0  0  0  0  0
   59.9180   25.5230   46.2660 C   0  0  0  0  0  0  0  0  0  0  0  0
   59.9654   25.3306   47.3480 H   0  0  0  0  0  0  0  0  0  0  0  0
   59.1522   24.8769   45.8119 H   0  0  0  0  0  0  0  0  0  0  0  0
   60.8963   25.3069   45.8119 H   0  0  0  0  0  0  0  0  0  0  0  0
   57.0900   24.7180   45.5340 N   0  0  0  0  0  0  0  0  0  0  0  0
   56.3260   23.8350   44.8350 C   0  0  0  0  0  0  0  0  0  0  0  0
   56.9740   22.7600   44.0120 C   0  0  0  0  0  0  0  0  0  0  0  0
   58.3480   22.8410   44.1470 F   0  0  0  0  0  0  0  0  0  0  0  0
   56.5550   21.5080   44.4270 F   0  0  0  0  0  0  0  0  0  0  0  0
   56.6390   22.9250   42.6800 F   0  0  0  0  0  0  0  0  0  0  0  0
   54.9310   23.9570   44.8700 C   0  0  0  0  0  0  0  0  0  0  0  0
   54.2918   23.2526   44.3176 H   0  0  0  0  0  0  0  0  0  0  0  0
  1  2  1  0
  2  3  1  0
  3  4  1  0
  4  5  2  0
  5  6  1  0
  6  7  2  0
  7  8  1  0
  7  9  1  0
  9 10  1  0
 10 11  1  0
 10 12  1  0
 12 13  2  0
 12 14  1  0
 14 15  1  0
 15 16  1  0
 15 17  1  0
 15 18  1  0
 18 19  2  0
 19 20  1  0
 19 21  1  0
 21 22  1  0
 21 23  2  0
 23 24  1  0
 23 25  1  0
 25 26  1  0
 26 27  2  0
 26 28  1  0
 28 29  2  3
 29 30  1  0
 30 31  1  0
 31 32  1  0
 31 33  2  0
 33 34  1  0
 34 35  1  0
 34 36  1  0
 34 37  1  0
 33 38  1  0
 38 39  1  0
 38 40  2  0
 40 41  1  0
 25 42  2  0
 42 43  1  0
  9 44  2  0
 44 45  1  0
 44 46  1  0
 46 47  1  0
 46 48  2  0
 48 49  1  0
 49 50  1  0
 49 51  1  0
 49 52  1  0
  4 53  1  0
 53 54  2  0
 54 55  1  0
 55 56  1  0
 55 57  1  0
 55 58  1  0
 54 59  1  0
 59 60  1  0
 59  2  2  0
 48  6  1  0
 42 18  1  0
 40 29  1  0
M  CHG  3   3  -1  14  -1  30  -1
M  END
>  <UniqueID>  (66) 
63

>  <SMILES>  (66) 
Cc1ccc(=NC(=O)c2cccc(C[N-]C(=O)Nc3ccc(C)c(/N=c4/nc(C(F)(F)F)cc[n-]4)c3)c2)[n-]c1

>  <Energy>  (66) 
81.36385335167815

>  <Genealogy>  (66) 
Cc1ccc(=NC(=O)c2cccc(C[N-]C(=O)Nc3ccc(C)c(N=c4nc(C(F)(F)F)cc[n-]4)c3)c2)[n-]c1 (protonated)
Cc1ccc(=NC(=O)c2cccc(C[N-]C(=O)Nc3ccc(C)c(/N=c4/nc(C(F)(F)F)cc[n-]4)c3)c2)[n-]c1 (cis-trans isomerization)
Cc1ccc(=NC(=O)c2cccc(C[N-]C(=O)Nc3ccc(C)c(/N=c4/nc(C(F)(F)F)cc[n-]4)c3)c2)[n-]c1 (3D coordinates assigned)
Cc1ccc(=NC(=O)c2cccc(C[N-]C(=O)Nc3ccc(C)c(/N=c4/nc(C(F)(F)F)cc[n-]4)c3)c2)[n-]c1 (optimized conformer: 81.36385335167815 kcal/mol)

>  <smiles>  (66) 
Cc1ccc(=NC(=O)c2cccc(CNC(=O)Nc3ccc(C)c(N=c4nc(C(F)(F)F)cc[nH]4)c3)c2)[nH]c1

>  <score_type>  (66) 
oracle

>  <origin>  (66) 
adg

>  <m_score__min__energy>  (66) 
-13.6

>  <m_primary>  (66) 
energy

$$$$
66:0
     RDKit          3D

 59 62  0  0  0  0  0  0  0  0999 V2000
   58.1650   21.8130   43.9520 C   0  0  0  0  0  0  0  0  0  0  0  0
   57.2460   22.8850   44.4670 C   0  0  0  0  0  0  0  0  0  0  0  0
   57.6300   23.7070   45.5350 C   0  0  0  0  0  0  0  0  0  0  0  0
   56.7840   24.6650   46.0220 N   0  0  0  0  0  0  0  0  0  0  0  0
   57.2330   25.5100   47.1430 C   0  0  0  0  0  0  0  0  0  0  0  0
   57.9640   26.7600   46.6320 C   0  0  0  0  0  0  0  0  0  0  0  0
   57.1430   27.5210   45.7430 O   0  0  0  0  0  0  0  0  0  0  0  0
   57.3960   28.8340   45.3170 C   0  0  0  0  0  0  0  0  0  0  0  0
   56.9650   29.3320   44.0740 C   0  0  0  0  0  0  0  0  0  0  0  0
   57.2770   30.6400   43.6870 C   0  0  0  0  0  0  0  0  0  0  0  0
   58.0150   31.4770   44.5410 C   0  0  0  0  0  0  0  0  0  0  0  0
   58.3620   32.8240   44.1720 N   0  0  0  0  0  0  0  0  0  0  0  0
   58.3590   34.1610   45.2810 S   0  0  0  0  0  0  0  0  0  0  0  0
   58.5410   35.4380   44.5120 O   0  0  0  0  0  0  0  0  0  0  0  0
   57.0360   34.2070   45.9940 O   0  0  0  0  0  0  0  0  0  0  0  0
   59.6810   33.9960   46.4340 C   0  0  0  0  0  0  0  0  0  0  0  0
   59.4850   34.2980   47.7830 C   0  0  0  0  0  0  0  0  0  0  0  0
   60.5420   34.2020   48.6930 C   0  0  0  0  0  0  0  0  0  0  0  0
   61.8330   33.8070   48.2690 C   0  0  0  0  0  0  0  0  0  0  0  0
   62.9480   33.7190   49.2100 N   0  0  0  0  0  0  0  0  0  0  0  0
   64.1370   32.9220   48.8440 C   0  0  0  0  0  0  0  0  0  0  0  0
   65.2820   33.0770   49.8390 C   0  0  0  0  0  0  0  0  0  0  0  0
   64.7930   32.9960   51.1550 O   0  0  0  0  0  0  0  0  0  0  0  0
   64.0650   34.1680   51.4350 C   0  0  0  0  0  0  0  0  0  0  0  0
   62.7970   34.2740   50.5730 C   0  0  0  0  0  0  0  0  0  0  0  0
   62.0100   33.5080   46.8970 C   0  0  0  0  0  0  0  0  0  0  0  0
   60.9480   33.6040   45.9940 C   0  0  0  0  0  0  0  0  0  0  0  0
   58.4110   30.9880   45.7970 C   0  0  0  0  0  0  0  0  0  0  0  0
   58.1090   29.6780   46.1760 C   0  0  0  0  0  0  0  0  0  0  0  0
   55.5480   24.8320   45.4510 C   0  0  0  0  0  0  0  0  0  0  0  0
   54.7560   25.7190   45.8690 O   0  0  0  0  0  0  0  0  0  0  0  0
   55.1560   24.0330   44.4240 N   0  0  0  0  0  0  0  0  0  0  0  0
   55.9660   23.0660   43.9280 C   0  0  0  0  0  0  0  0  0  0  0  0
   55.5570   22.3380   42.9830 O   0  0  0  0  0  0  0  0  0  0  0  0
   58.6205   21.2817   44.8007 H   0  0  0  0  0  0  0  0  0  0  0  0
   57.5917   21.1018   43.3392 H   0  0  0  0  0  0  0  0  0  0  0  0
   58.9554   22.2709   43.3392 H   0  0  0  0  0  0  0  0  0  0  0  0
   58.6246   23.5801   45.9875 H   0  0  0  0  0  0  0  0  0  0  0  0
   56.3576   25.8209   47.7321 H   0  0  0  0  0  0  0  0  0  0  0  0
   57.9286   24.9269   47.7644 H   0  0  0  0  0  0  0  0  0  0  0  0
   58.2391   27.3893   47.4912 H   0  0  0  0  0  0  0  0  0  0  0  0
   58.8593   26.4351   46.0816 H   0  0  0  0  0  0  0  0  0  0  0  0
   56.3786   28.6887   43.4015 H   0  0  0  0  0  0  0  0  0  0  0  0
   56.9426   31.0152   42.7085 H   0  0  0  0  0  0  0  0  0  0  0  0
   58.5380   33.0450   43.1660 H   0  0  0  0  0  0  0  0  0  0  0  0
   58.4910   34.6140   48.1326 H   0  0  0  0  0  0  0  0  0  0  0  0
   60.3677   34.4368   49.7534 H   0  0  0  0  0  0  0  0  0  0  0  0
   63.8495   31.8611   48.8017 H   0  0  0  0  0  0  0  0  0  0  0  0
   64.4934   33.2876   47.8697 H   0  0  0  0  0  0  0  0  0  0  0  0
   66.0179   32.2762   49.6744 H   0  0  0  0  0  0  0  0  0  0  0  0
   65.7570   34.0581   49.6912 H   0  0  0  0  0  0  0  0  0  0  0  0
   63.7744   34.1614   52.4959 H   0  0  0  0  0  0  0  0  0  0  0  0
   64.7068   35.0313   51.2054 H   0  0  0  0  0  0  0  0  0  0  0  0
   61.9872   33.7294   51.0805 H   0  0  0  0  0  0  0  0  0  0  0  0
   62.5791   35.3460   50.4578 H   0  0  0  0  0  0  0  0  0  0  0  0
   63.0005   33.1947   46.5354 H   0  0  0  0  0  0  0  0  0  0  0  0
   61.1102   33.3698   44.9315 H   0  0  0  0  0  0  0  0  0  0  0  0
   58.9634   31.6421   46.4876 H   0  0  0  0  0  0  0  0  0  0  0  0
   58.4346   29.3063   47.1587 H   0  0  0  0  0  0  0  0  0  0  0  0
  1  2  1  0
  2  3  2  0
  3  4  1  0
  4  5  1  0
  5  6  1  0
  6  7  1  0
  7  8  1  0
  8  9  2  0
  9 10  1  0
 10 11  2  0
 11 12  1  0
 12 13  1  0
 13 14  2  0
 13 15  2  0
 13 16  1  0
 16 17  2  0
 17 18  1  0
 18 19  2  0
 19 20  1  0
 20 21  1  0
 21 22  1  0
 22 23  1  0
 23 24  1  0
 24 25  1  0
 19 26  1  0
 26 27  2  0
 11 28  1  0
 28 29  2  0
  4 30  1  0
 30 31  2  0
 30 32  1  0
 32 33  1  0
 33 34  2  0
 33  2  1  0
 29  8  1  0
 27 16  1  0
 25 20  1  0
  1 35  1  0
  1 36  1  0
  1 37  1  0
  3 38  1  0
  5 39  1  0
  5 40  1  0
  6 41  1  0
  6 42  1  0
  9 43  1  0
 10 44  1  0
 12 45  1  0
 17 46  1  0
 18 47  1  0
 21 48  1  0
 21 49  1  0
 22 50  1  0
 22 51  1  0
 24 52  1  0
 24 53  1  0
 25 54  1  0
 25 55  1  0
 26 56  1  0
 27 57  1  0
 28 58  1  0
 29 59  1  0
M  CHG  1  32  -1
M  END
>  <UniqueID>  (67) 
64

>  <SMILES>  (67) 
Cc1cn(CCOc2ccc(NS(=O)(=O)c3ccc(N4CCOCC4)cc3)cc2)c(=O)[n-]c1=O

>  <Energy>  (67) 
74.09435995051305

>  <Genealogy>  (67) 
Cc1cn(CCOc2ccc(NS(=O)(=O)c3ccc(N4CCOCC4)cc3)cc2)c(=O)[n-]c1=O (protonated)
Cc1cn(CCOc2ccc(NS(=O)(=O)c3ccc(N4CCOCC4)cc3)cc2)c(=O)[n-]c1=O (3D coordinates assigned)
Cc1cn(CCOc2ccc(NS(=O)(=O)c3ccc(N4CCOCC4)cc3)cc2)c(=O)[n-]c1=O (nonaromatic ring conformer: 74.09435995051305 kcal/mol)

>  <smiles>  (67) 
Cc1cn(CCOc2ccc(NS(=O)(=O)c3ccc(N4CCOCC4)cc3)cc2)c(=O)[nH]c1=O

>  <score_type>  (67) 
oracle

>  <origin>  (67) 
adg

>  <m_score__min__energy>  (67) 
-11.609999999999999

>  <m_primary>  (67) 
energy

$$$$
67:0
     RDKit          3D

 61 64  0  0  0  0  0  0  0  0999 V2000
   65.2250   33.2880   51.0920 C   0  0  0  0  0  0  0  0  0  0  0  0
   63.5160   33.7770   51.1950 S   0  0  0  0  0  0  0  0  0  0  0  0
   63.3640   35.2350   50.8650 O   0  0  0  0  0  0  0  0  0  0  0  0
   63.0330   33.5490   52.6000 O   0  0  0  0  0  0  0  0  0  0  0  0
   62.5570   32.8180   50.1170 N   0  0  0  0  0  0  0  0  0  0  0  0
   62.0650   33.2240   48.8290 C   0  0  0  0  0  0  0  0  0  0  0  0
   62.9340   33.4730   47.7520 C   0  0  0  0  0  0  0  0  0  0  0  0
   62.4250   33.8300   46.5040 C   0  0  0  0  0  0  0  0  0  0  0  0
   61.0500   33.9540   46.3160 C   0  0  0  0  0  0  0  0  0  0  0  0
   60.1600   33.7360   47.3800 C   0  0  0  0  0  0  0  0  0  0  0  0
   58.6740   33.8680   47.1340 C   0  0  0  0  0  0  0  0  0  0  0  0
   58.1500   32.6820   46.4590 N   0  0  0  0  0  0  0  0  0  0  0  0
   57.3530   32.7640   45.2670 C   0  0  0  0  0  0  0  0  0  0  0  0
   57.2470   33.8570   44.6520 O   0  0  0  0  0  0  0  0  0  0  0  0
   56.7210   31.6000   44.7210 N   0  0  0  0  0  0  0  0  0  0  0  0
   57.2110   30.2560   44.8090 C   0  0  0  0  0  0  0  0  0  0  0  0
   58.5640   29.9490   44.5850 C   0  0  0  0  0  0  0  0  0  0  0  0
   59.0170   28.6310   44.7040 C   0  0  0  0  0  0  0  0  0  0  0  0
   58.1340   27.6080   45.0830 C   0  0  0  0  0  0  0  0  0  0  0  0
   56.7850   27.9210   45.3300 C   0  0  0  0  0  0  0  0  0  0  0  0
   56.3330   29.2390   45.1990 C   0  0  0  0  0  0  0  0  0  0  0  0
   55.8740   26.9020   45.7380 N   0  0  0  0  0  0  0  0  0  0  0  0
   56.3470   25.5930   46.0410 C   0  0  0  0  0  0  0  0  0  0  0  0
   55.5340   24.7210   46.4470 O   0  0  0  0  0  0  0  0  0  0  0  0
   57.7490   25.2940   45.9090 N   0  0  0  0  0  0  0  0  0  0  0  0
   58.2820   24.0020   46.3670 C   0  0  0  0  0  0  0  0  0  0  0  0
   58.9900   23.2610   45.2330 C   0  0  0  0  0  0  0  0  0  0  0  0
   60.2750   22.8780   45.6340 O   0  0  0  0  0  0  0  0  0  0  0  0
   58.6160   26.1760   45.1100 C   0  0  0  0  0  0  0  0  0  0  0  0
   60.6750   33.3560   48.6420 C   0  0  0  0  0  0  0  0  0  0  0  0
   59.7880   33.0650   49.7310 N   0  0  0  0  0  0  0  0  0  0  0  0
   59.7740   33.7720   50.9980 C   0  0  0  0  0  0  0  0  0  0  0  0
   58.7420   33.0400   51.8780 C   0  0  0  0  0  0  0  0  0  0  0  0
   58.2940   31.7830   51.1150 C   0  0  0  0  0  0  0  0  0  0  0  0
   58.9680   31.9180   49.8100 C   0  0  0  0  0  0  0  0  0  0  0  0
   58.8440   31.0920   48.8670 O   0  0  0  0  0  0  0  0  0  0  0  0
   65.6346   33.1708   52.1061 H   0  0  0  0  0  0  0  0  0  0  0  0
   65.3010   32.3321   50.5531 H   0  0  0  0  0  0  0  0  0  0  0  0
   65.7952   34.0590   50.5531 H   0  0  0  0  0  0  0  0  0  0  0  0
   64.0212   33.3857   47.8948 H   0  0  0  0  0  0  0  0  0  0  0  0
   63.1116   34.0145   45.6646 H   0  0  0  0  0  0  0  0  0  0  0  0
   60.6580   34.2252   45.3247 H   0  0  0  0  0  0  0  0  0  0  0  0
   58.1588   33.9909   48.0981 H   0  0  0  0  0  0  0  0  0  0  0  0
   58.5004   34.7438   46.4914 H   0  0  0  0  0  0  0  0  0  0  0  0
   58.3800   31.7440   46.8580 H   0  0  0  0  0  0  0  0  0  0  0  0
   59.2697   30.7485   44.3150 H   0  0  0  0  0  0  0  0  0  0  0  0
   60.0717   28.3948   44.4993 H   0  0  0  0  0  0  0  0  0  0  0  0
   55.2789   29.4772   45.4043 H   0  0  0  0  0  0  0  0  0  0  0  0
   58.9989   24.1787   47.1824 H   0  0  0  0  0  0  0  0  0  0  0  0
   57.4419   23.3832   46.7154 H   0  0  0  0  0  0  0  0  0  0  0  0
   58.4102   22.3649   44.9669 H   0  0  0  0  0  0  0  0  0  0  0  0
   59.0698   23.9289   44.3626 H   0  0  0  0  0  0  0  0  0  0  0  0
   60.7580   22.6260   44.8030 H   0  0  0  0  0  0  0  0  0  0  0  0
   59.6288   26.1547   45.5388 H   0  0  0  0  0  0  0  0  0  0  0  0
   58.6014   25.8035   44.0751 H   0  0  0  0  0  0  0  0  0  0  0  0
   60.7688   33.7382   51.4662 H   0  0  0  0  0  0  0  0  0  0  0  0
   59.5130   34.8324   50.8662 H   0  0  0  0  0  0  0  0  0  0  0  0
   59.2006   32.7544   52.8362 H   0  0  0  0  0  0  0  0  0  0  0  0
   57.8817   33.6918   52.0904 H   0  0  0  0  0  0  0  0  0  0  0  0
   58.6205   30.8699   51.6342 H   0  0  0  0  0  0  0  0  0  0  0  0
   57.2006   31.7002   51.0275 H   0  0  0  0  0  0  0  0  0  0  0  0
  1  2  1  0
  2  3  2  0
  2  4  2  0
  2  5  1  0
  5  6  1  0
  6  7  2  0
  7  8  1  0
  8  9  2  0
  9 10  1  0
 10 11  1  0
 11 12  1  0
 12 13  1  0
 13 14  2  0
 13 15  1  0
 15 16  1  0
 16 17  2  0
 17 18  1  0
 18 19  2  0
 19 20  1  0
 20 21  2  0
 20 22  1  0
 22 23  1  0
 23 24  2  0
 23 25  1  0
 25 26  1  0
 26 27  1  0
 27 28  1  0
 25 29  1  0
 10 30  2  0
 30 31  1  0
 31 32  1  0
 32 33  1  0
 33 34  1  0
 34 35  1  0
 35 36  2  0
 30  6  1  0
 35 31  1  0
 21 16  1  0
 29 19  1  0
  1 37  1  0
  1 38  1  0
  1 39  1  0
  7 40  1  0
  8 41  1  0
  9 42  1  0
 11 43  1  0
 11 44  1  0
 12 45  1  0
 17 46  1  0
 18 47  1  0
 21 48  1  0
 26 49  1  0
 26 50  1  0
 27 51  1  0
 27 52  1  0
 28 53  1  0
 29 54  1  0
 29 55  1  0
 32 56  1  0
 32 57  1  0
 33 58  1  0
 33 59  1  0
 34 60  1  0
 34 61  1  0
M  CHG  3   5  -1  15  -1  22  -1
M  END
>  <UniqueID>  (68) 
65

>  <SMILES>  (68) 
CS(=O)(=O)[N-]c1cccc(CNC(=O)[N-]c2ccc3c(c2)[N-]C(=O)N(CCO)C3)c1N1CCCC1=O

>  <Energy>  (68) 
76.93391577654623

>  <Genealogy>  (68) 
CS(=O)(=O)[N-]c1cccc(CNC(=O)[N-]c2ccc3c(c2)[N-]C(=O)N(CCO)C3)c1N1CCCC1=O (protonated)
CS(=O)(=O)[N-]c1cccc(CNC(=O)[N-]c2ccc3c(c2)[N-]C(=O)N(CCO)C3)c1N1CCCC1=O (3D coordinates assigned)
CS(=O)(=O)[N-]c1cccc(CNC(=O)[N-]c2ccc3c(c2)[N-]C(=O)N(CCO)C3)c1N1CCCC1=O (nonaromatic ring conformer: 76.93391577654623 kcal/mol)

>  <smiles>  (68) 
CS(=O)(=O)Nc1cccc(CNC(=O)Nc2ccc3c(c2)NC(=O)N(CCO)C3)c1N1CCCC1=O

>  <score_type>  (68) 
oracle

>  <origin>  (68) 
adg

>  <m_score__min__energy>  (68) 
-14.6

>  <m_primary>  (68) 
energy

$$$$
68:0
     RDKit          3D

 54 57  0  0  0  0  0  0  0  0999 V2000
   55.2800   21.4400   47.0790 C   0  0  0  0  0  0  0  0  0  0  0  0
   56.6190   22.5550   47.4340 S   0  0  0  0  0  0  0  0  0  0  0  0
   57.7360   22.3520   46.4650 O   0  0  0  0  0  0  0  0  0  0  0  0
   57.1280   22.2840   48.8160 O   0  0  0  0  0  0  0  0  0  0  0  0
   56.0720   24.1960   47.3600 N   0  0  0  0  0  0  0  0  0  0  0  0
   56.6840   25.2550   46.6030 C   0  0  0  0  0  0  0  0  0  0  0  0
   58.0180   25.1660   46.1040 C   0  0  0  0  0  0  0  0  0  0  0  0
   58.5800   26.2230   45.3640 C   0  0  0  0  0  0  0  0  0  0  0  0
   57.7940   27.3480   45.1360 C   0  0  0  0  0  0  0  0  0  0  0  0
   58.1080   28.4440   44.4320 N   0  0  0  0  0  0  0  0  0  0  0  0
   56.9650   29.1790   44.5100 C   0  0  0  0  0  0  0  0  0  0  0  0
   56.8170   30.5140   43.8510 C   0  0  0  0  0  0  0  0  0  0  0  0
   57.4870   31.5910   44.6690 C   0  0  0  0  0  0  0  0  0  0  0  0
   57.3990   32.9350   44.2740 C   0  0  0  0  0  0  0  0  0  0  0  0
   57.9450   33.9450   45.0730 C   0  0  0  0  0  0  0  0  0  0  0  0
   58.5950   33.6370   46.2870 C   0  0  0  0  0  0  0  0  0  0  0  0
   59.0240   34.7840   47.1400 C   0  0  0  0  0  0  0  0  0  0  0  0
   60.1070   34.9030   47.9260 C   0  0  0  0  0  0  0  0  0  0  0  0
   60.3990   34.1370   49.1410 C   0  0  0  0  0  0  0  0  0  0  0  0
   59.6380   34.2650   50.1360 O   0  0  0  0  0  0  0  0  0  0  0  0
   61.5940   33.3630   49.2730 N   0  0  0  0  0  0  0  0  0  0  0  0
   62.2450   32.3190   48.0530 S   0  0  0  0  0  0  0  0  0  0  0  0
   63.6480   31.9300   48.4250 O   0  0  0  0  0  0  0  0  0  0  0  0
   62.2800   33.0260   46.7340 O   0  0  0  0  0  0  0  0  0  0  0  0
   61.2520   30.8740   47.9770 C   0  0  0  0  0  0  0  0  0  0  0  0
   61.1840   30.1590   46.7730 C   0  0  0  0  0  0  0  0  0  0  0  0
   60.3940   29.0090   46.6810 C   0  0  0  0  0  0  0  0  0  0  0  0
   59.6710   28.5680   47.7910 C   0  0  0  0  0  0  0  0  0  0  0  0
   59.7620   29.2540   49.0080 C   0  0  0  0  0  0  0  0  0  0  0  0
   60.5450   30.4160   49.1010 C   0  0  0  0  0  0  0  0  0  0  0  0
   58.7200   32.2810   46.6520 C   0  0  0  0  0  0  0  0  0  0  0  0
   58.1840   31.2680   45.8430 C   0  0  0  0  0  0  0  0  0  0  0  0
   55.9640   28.5960   45.2140 N   0  0  0  0  0  0  0  0  0  0  0  0
   56.5190   27.4380   45.5990 C   0  0  0  0  0  0  0  0  0  0  0  0
   55.9230   26.4120   46.3380 C   0  0  0  0  0  0  0  0  0  0  0  0
   54.8448   21.0776   48.0220 H   0  0  0  0  0  0  0  0  0  0  0  0
   54.5087   21.9665   46.4977 H   0  0  0  0  0  0  0  0  0  0  0  0
   55.6582   20.5861   46.4977 H   0  0  0  0  0  0  0  0  0  0  0  0
   58.6132   24.2619   46.2998 H   0  0  0  0  0  0  0  0  0  0  0  0
   59.6083   26.1616   44.9781 H   0  0  0  0  0  0  0  0  0  0  0  0
   57.2800   30.4776   42.8538 H   0  0  0  0  0  0  0  0  0  0  0  0
   55.7458   30.7495   43.7666 H   0  0  0  0  0  0  0  0  0  0  0  0
   56.8976   33.1956   43.3303 H   0  0  0  0  0  0  0  0  0  0  0  0
   57.8666   34.9937   44.7505 H   0  0  0  0  0  0  0  0  0  0  0  0
   58.3569   35.6585   47.1226 H   0  0  0  0  0  0  0  0  0  0  0  0
   60.8528   35.6540   47.6263 H   0  0  0  0  0  0  0  0  0  0  0  0
   61.7541   30.5039   45.8977 H   0  0  0  0  0  0  0  0  0  0  0  0
   60.3421   28.4517   45.7340 H   0  0  0  0  0  0  0  0  0  0  0  0
   59.0281   27.6792   47.7091 H   0  0  0  0  0  0  0  0  0  0  0  0
   59.2206   28.8830   49.8907 H   0  0  0  0  0  0  0  0  0  0  0  0
   60.6045   30.9662   50.0517 H   0  0  0  0  0  0  0  0  0  0  0  0
   59.2438   32.0143   47.5818 H   0  0  0  0  0  0  0  0  0  0  0  0
   58.3110   30.2140   46.1309 H   0  0  0  0  0  0  0  0  0  0  0  0
   54.8893   26.5047   46.7026 H   0  0  0  0  0  0  0  0  0  0  0  0
  1  2  1  0
  2  3  2  0
  2  4  2  0
  2  5  1  0
  5  6  1  0
  6  7  2  0
  7  8  1  0
  8  9  2  0
  9 10  1  0
 10 11  1  0
 11 12  1  0
 12 13  1  0
 13 14  2  0
 14 15  1  0
 15 16  2  0
 16 17  1  0
 17 18  2  3
 18 19  1  0
 19 20  2  0
 19 21  1  0
 21 22  1  0
 22 23  2  0
 22 24  2  0
 22 25  1  0
 25 26  2  0
 26 27  1  0
 27 28  2  0
 28 29  1  0
 29 30  2  0
 16 31  1  0
 31 32  2  0
 11 33  2  0
 33 34  1  0
 34 35  2  0
 35  6  1  0
 34  9  1  0
 32 13  1  0
 30 25  1  0
  1 36  1  0
  1 37  1  0
  1 38  1  0
  7 39  1  0
  8 40  1  0
 12 41  1  0
 12 42  1  0
 14 43  1  0
 15 44  1  0
 17 45  1  0
 18 46  1  0
 26 47  1  0
 27 48  1  0
 28 49  1  0
 29 50  1  0
 30 51  1  0
 31 52  1  0
 32 53  1  0
 35 54  1  0
M  CHG  3   5  -1  10  -1  21  -1
M  END
>  <UniqueID>  (69) 
66

>  <SMILES>  (69) 
CS(=O)(=O)[N-]c1ccc2[n-]c(Cc3ccc(C=CC(=O)[N-]S(=O)(=O)c4ccccc4)cc3)nc2c1

>  <Energy>  (69) 
102.99416784589229

>  <Genealogy>  (69) 
CS(=O)(=O)[N-]c1ccc2[n-]c(Cc3ccc(C=CC(=O)[N-]S(=O)(=O)c4ccccc4)cc3)nc2c1 (protonated)
CS(=O)(=O)[N-]c1ccc2[n-]c(Cc3ccc(C=CC(=O)[N-]S(=O)(=O)c4ccccc4)cc3)nc2c1 (3D coordinates assigned)
CS(=O)(=O)[N-]c1ccc2[n-]c(Cc3ccc(C=CC(=O)[N-]S(=O)(=O)c4ccccc4)cc3)nc2c1 (optimized conformer: 102.99416784589229 kcal/mol)

>  <smiles>  (69) 
CS(=O)(=O)Nc1ccc2[nH]c(Cc3ccc(C=CC(=O)NS(=O)(=O)c4ccccc4)cc3)nc2c1

>  <score_type>  (69) 
oracle

>  <origin>  (69) 
adg

>  <m_score__min__energy>  (69) 
-14.050000000000001

>  <m_primary>  (69) 
energy

$$$$
69:0
     RDKit          3D

 34 35  0  0  0  0  0  0  0  0999 V2000
   59.6270   34.3770   45.9660 C   0  0  0  0  0  0  0  0  0  0  0  0
   60.0150   33.0250   46.3560 N   0  0  0  0  0  0  0  0  0  0  0  0
   61.1260   32.6770   47.0270 C   0  0  0  0  0  0  0  0  0  0  0  0
   61.1100   31.3120   47.2010 C   0  0  0  0  0  0  0  0  0  0  0  0
   59.9950   30.7960   46.6430 N   0  0  0  0  0  0  0  0  0  0  0  0
   59.3510   31.8680   46.1340 C   0  0  0  0  0  0  0  0  0  0  0  0
   58.0380   31.7550   45.4140 C   0  0  0  0  0  0  0  0  0  0  0  0
   57.5020   30.4030   45.5530 N   0  0  0  0  0  0  0  0  0  0  0  0
   56.3400   29.9590   44.8450 C   0  0  0  0  0  0  0  0  0  0  0  0
   55.7000   30.7620   44.1110 O   0  0  0  0  0  0  0  0  0  0  0  0
   55.8860   28.6120   45.0170 N   0  0  0  0  0  0  0  0  0  0  0  0
   56.6170   27.5380   45.6290 C   0  0  0  0  0  0  0  0  0  0  0  0
   58.0090   27.6120   45.8320 C   0  0  0  0  0  0  0  0  0  0  0  0
   58.6960   26.5530   46.4460 C   0  0  0  0  0  0  0  0  0  0  0  0
   60.1740   26.6510   46.6890 C   0  0  0  0  0  0  0  0  0  0  0  0
   60.4590   27.8610   47.3330 O   0  0  0  0  0  0  0  0  0  0  0  0
   57.9790   25.4340   46.8970 C   0  0  0  0  0  0  0  0  0  0  0  0
   56.5950   25.3680   46.7210 C   0  0  0  0  0  0  0  0  0  0  0  0
   55.9150   26.4170   46.0940 C   0  0  0  0  0  0  0  0  0  0  0  0
   54.5360   26.3380   45.9310 O   0  0  0  0  0  0  0  0  0  0  0  0
   59.4531   34.9830   46.8674 H   0  0  0  0  0  0  0  0  0  0  0  0
   60.4310   34.8312   45.3683 H   0  0  0  0  0  0  0  0  0  0  0  0
   58.7045   34.3357   45.3683 H   0  0  0  0  0  0  0  0  0  0  0  0
   61.9113   33.3635   47.3763 H   0  0  0  0  0  0  0  0  0  0  0  0
   61.8880   30.7299   47.7167 H   0  0  0  0  0  0  0  0  0  0  0  0
   57.3251   32.4745   45.8430 H   0  0  0  0  0  0  0  0  0  0  0  0
   58.1936   31.9719   44.3469 H   0  0  0  0  0  0  0  0  0  0  0  0
   57.9860   29.7340   46.1940 H   0  0  0  0  0  0  0  0  0  0  0  0
   58.5615   28.5059   45.5071 H   0  0  0  0  0  0  0  0  0  0  0  0
   60.4984   25.8124   47.3227 H   0  0  0  0  0  0  0  0  0  0  0  0
   60.7083   26.6107   45.7283 H   0  0  0  0  0  0  0  0  0  0  0  0
   60.1330   28.5770   46.7290 H   0  0  0  0  0  0  0  0  0  0  0  0
   58.5088   24.6061   47.3908 H   0  0  0  0  0  0  0  0  0  0  0  0
   56.0383   24.4884   47.0766 H   0  0  0  0  0  0  0  0  0  0  0  0
  1  2  1  0
  2  3  1  0
  3  4  2  0
  4  5  1  0
  5  6  2  0
  6  7  1  0
  7  8  1  0
  8  9  1  0
  9 10  2  0
  9 11  1  0
 11 12  1  0
 12 13  2  0
 13 14  1  0
 14 15  1  0
 15 16  1  0
 14 17  2  0
 17 18  1  0
 18 19  2  0
 19 20  1  0
  6  2  1  0
 19 12  1  0
  1 21  1  0
  1 22  1  0
  1 23  1  0
  3 24  1  0
  4 25  1  0
  7 26  1  0
  7 27  1  0
  8 28  1  0
 13 29  1  0
 15 30  1  0
 15 31  1  0
 16 32  1  0
 17 33  1  0
 18 34  1  0
M  CHG  2  11  -1  20  -1
M  END
>  <UniqueID>  (70) 
67

>  <SMILES>  (70) 
Cn1ccnc1CNC(=O)[N-]c1cc(CO)ccc1[O-]

>  <Energy>  (70) 
62.18742069691093

>  <Genealogy>  (70) 
Cn1ccnc1CNC(=O)[N-]c1cc(CO)ccc1[O-] (protonated)
Cn1ccnc1CNC(=O)[N-]c1cc(CO)ccc1[O-] (3D coordinates assigned)
Cn1ccnc1CNC(=O)[N-]c1cc(CO)ccc1[O-] (optimized conformer: 62.18742069691093 kcal/mol)

>  <smiles>  (70) 
Cn1ccnc1CNC(=O)Nc1cc(CO)ccc1O

>  <score_type>  (70) 
oracle

>  <origin>  (70) 
adg

>  <m_score__min__energy>  (70) 
-12.58

>  <m_primary>  (70) 
energy

$$$$
70:0
     RDKit          3D

 80 85  0  0  0  0  0  0  0  0999 V2000
   57.0480   34.5370   44.8230 O   0  0  0  0  0  0  0  0  0  0  0  0
   58.0730   33.8740   44.5180 C   0  0  0  0  0  0  0  0  0  0  0  0
   57.9750   32.8360   43.4390 C   0  0  0  0  0  0  0  0  0  0  0  0
   57.5600   31.4940   43.9840 C   0  0  0  0  0  0  0  0  0  0  0  0
   57.8180   31.1670   45.3270 C   0  0  0  0  0  0  0  0  0  0  0  0
   57.3880   29.9430   45.8480 C   0  0  0  0  0  0  0  0  0  0  0  0
   56.6630   29.0510   45.0510 C   0  0  0  0  0  0  0  0  0  0  0  0
   56.2680   27.7900   45.6010 N   0  0  0  0  0  0  0  0  0  0  0  0
   57.0890   26.6310   45.7670 C   0  0  0  0  0  0  0  0  0  0  0  0
   56.7820   25.5910   45.1260 O   0  0  0  0  0  0  0  0  0  0  0  0
   58.3840   26.6680   46.5550 C   0  0  0  0  0  0  0  0  0  0  0  0
   59.6170   26.8380   45.6280 C   0  0  0  0  0  0  0  0  0  0  0  0
   60.0390   28.3100   45.5200 C   0  0  0  0  0  0  0  0  0  0  0  0
   60.4160   28.8670   46.8410 N   0  0  0  0  0  0  0  0  0  0  0  0
   60.5030   30.3450   46.8560 C   0  0  0  0  0  0  0  0  0  0  0  0
   61.5970   30.8900   47.7570 C   0  0  0  0  0  0  0  0  0  0  0  0
   61.5840   30.6250   49.1400 C   0  0  0  0  0  0  0  0  0  0  0  0
   62.5890   31.1350   49.9660 C   0  0  0  0  0  0  0  0  0  0  0  0
   63.6310   31.8920   49.4200 C   0  0  0  0  0  0  0  0  0  0  0  0
   63.6750   32.1300   48.0440 C   0  0  0  0  0  0  0  0  0  0  0  0
   62.6650   31.6310   47.2170 C   0  0  0  0  0  0  0  0  0  0  0  0
   59.7060   28.2790   48.0040 C   0  0  0  0  0  0  0  0  0  0  0  0
   58.3060   27.7740   47.6340 C   0  0  0  0  0  0  0  0  0  0  0  0
   56.4160   29.3670   43.7050 C   0  0  0  0  0  0  0  0  0  0  0  0
   56.8510   30.5880   43.1770 C   0  0  0  0  0  0  0  0  0  0  0  0
   59.3220   34.1130   45.1890 N   0  0  0  0  0  0  0  0  0  0  0  0
   59.5720   33.9660   46.5940 C   0  0  0  0  0  0  0  0  0  0  0  0
   60.7430   34.4590   47.1940 C   0  0  0  0  0  0  0  0  0  0  0  0
   60.9590   34.2800   48.5620 C   0  0  0  0  0  0  0  0  0  0  0  0
   60.0190   33.5990   49.3390 C   0  0  0  0  0  0  0  0  0  0  0  0
   58.8560   33.0800   48.7510 C   0  0  0  0  0  0  0  0  0  0  0  0
   57.8530   32.3380   49.5960 C   0  0  0  0  0  0  0  0  0  0  0  0
   58.5500   31.4570   50.6020 C   0  0  0  0  0  0  0  0  0  0  0  0
   58.6570   30.1330   50.3060 N   0  0  0  0  0  0  0  0  0  0  0  0
   59.1900   29.2550   51.1550 N   0  0  0  0  0  0  0  0  0  0  0  0
   59.6460   29.6340   52.3740 C   0  0  0  0  0  0  0  0  0  0  0  0
   60.1260   28.7660   53.1510 O   0  0  0  0  0  0  0  0  0  0  0  0
   59.5700   30.9830   52.7520 C   0  0  0  0  0  0  0  0  0  0  0  0
   59.0250   31.9180   51.8550 C   0  0  0  0  0  0  0  0  0  0  0  0
   58.8790   33.3470   52.3370 C   0  0  0  0  0  0  0  0  0  0  0  0
   60.1200   33.8290   53.1150 C   0  0  0  0  0  0  0  0  0  0  0  0
   60.8190   32.7520   53.9780 C   0  0  0  0  0  0  0  0  0  0  0  0
   60.0110   31.4560   54.1140 C   0  0  0  0  0  0  0  0  0  0  0  0
   58.6450   33.2590   47.3730 C   0  0  0  0  0  0  0  0  0  0  0  0
   57.2316   33.1636   42.6973 H   0  0  0  0  0  0  0  0  0  0  0  0
   58.9696   32.7249   42.9825 H   0  0  0  0  0  0  0  0  0  0  0  0
   58.3599   31.8765   45.9697 H   0  0  0  0  0  0  0  0  0  0  0  0
   57.6211   29.6800   46.8904 H   0  0  0  0  0  0  0  0  0  0  0  0
   58.5169   25.7010   47.0621 H   0  0  0  0  0  0  0  0  0  0  0  0
   60.4551   26.2547   46.0369 H   0  0  0  0  0  0  0  0  0  0  0  0
   59.3461   26.4813   44.6233 H   0  0  0  0  0  0  0  0  0  0  0  0
   60.9014   28.3854   44.8413 H   0  0  0  0  0  0  0  0  0  0  0  0
   59.1847   28.8858   45.1345 H   0  0  0  0  0  0  0  0  0  0  0  0
   60.6960   30.6906   45.8297 H   0  0  0  0  0  0  0  0  0  0  0  0
   59.5475   30.7161   47.2552 H   0  0  0  0  0  0  0  0  0  0  0  0
   60.7784   30.0133   49.5723 H   0  0  0  0  0  0  0  0  0  0  0  0
   62.5608   30.9407   51.0483 H   0  0  0  0  0  0  0  0  0  0  0  0
   64.4158   32.2999   50.0741 H   0  0  0  0  0  0  0  0  0  0  0  0
   64.5040   32.7097   47.6119 H   0  0  0  0  0  0  0  0  0  0  0  0
   62.7050   31.8191   46.1339 H   0  0  0  0  0  0  0  0  0  0  0  0
   60.2965   27.4348   48.3896 H   0  0  0  0  0  0  0  0  0  0  0  0
   59.5908   29.0671   48.7627 H   0  0  0  0  0  0  0  0  0  0  0  0
   57.8212   27.3660   48.5332 H   0  0  0  0  0  0  0  0  0  0  0  0
   57.7241   28.6163   47.2317 H   0  0  0  0  0  0  0  0  0  0  0  0
   55.8790   28.6526   43.0638 H   0  0  0  0  0  0  0  0  0  0  0  0
   56.6373   30.8391   42.1276 H   0  0  0  0  0  0  0  0  0  0  0  0
   61.4913   34.9871   46.5848 H   0  0  0  0  0  0  0  0  0  0  0  0
   61.8724   34.6766   49.0292 H   0  0  0  0  0  0  0  0  0  0  0  0
   60.1916   33.4690   50.4176 H   0  0  0  0  0  0  0  0  0  0  0  0
   57.2219   33.0647   50.1286 H   0  0  0  0  0  0  0  0  0  0  0  0
   57.2371   31.7057   48.9396 H   0  0  0  0  0  0  0  0  0  0  0  0
   58.7311   34.0015   51.4654 H   0  0  0  0  0  0  0  0  0  0  0  0
   58.0166   33.3870   53.0186 H   0  0  0  0  0  0  0  0  0  0  0  0
   60.8517   34.2082   52.3864 H   0  0  0  0  0  0  0  0  0  0  0  0
   59.7599   34.5950   53.8175 H   0  0  0  0  0  0  0  0  0  0  0  0
   61.7879   32.5111   53.5162 H   0  0  0  0  0  0  0  0  0  0  0  0
   60.9305   33.1707   54.9891 H   0  0  0  0  0  0  0  0  0  0  0  0
   60.6370   30.6831   54.5838 H   0  0  0  0  0  0  0  0  0  0  0  0
   59.1245   31.6448   54.7372 H   0  0  0  0  0  0  0  0  0  0  0  0
   57.7439   32.8404   46.9011 H   0  0  0  0  0  0  0  0  0  0  0  0
  1  2  2  0
  2  3  1  0
  3  4  1  0
  4  5  2  0
  5  6  1  0
  6  7  2  0
  7  8  1  0
  8  9  1  0
  9 10  2  0
  9 11  1  0
 11 12  1  0
 12 13  1  0
 13 14  1  0
 14 15  1  0
 15 16  1  0
 16 17  2  0
 17 18  1  0
 18 19  2  0
 19 20  1  0
 20 21  2  0
 14 22  1  0
 22 23  1  0
  7 24  1  0
 24 25  2  0
  2 26  1  0
 26 27  1  0
 27 28  2  0
 28 29  1  0
 29 30  2  0
 30 31  1  0
 31 32  1  0
 32 33  1  0
 33 34  2  0
 34 35  1  0
 35 36  1  0
 36 37  2  0
 36 38  1  0
 38 39  2  0
 39 40  1  0
 40 41  1  0
 41 42  1  0
 42 43  1  0
 31 44  2  0
 25  4  1  0
 44 27  1  0
 23 11  1  0
 39 33  1  0
 21 16  1  0
 43 38  1  0
  3 45  1  0
  3 46  1  0
  5 47  1  0
  6 48  1  0
 11 49  1  0
 12 50  1  0
 12 51  1  0
 13 52  1  0
 13 53  1  0
 15 54  1  0
 15 55  1  0
 17 56  1  0
 18 57  1  0
 19 58  1  0
 20 59  1  0
 21 60  1  0
 22 61  1  0
 22 62  1  0
 23 63  1  0
 23 64  1  0
 24 65  1  0
 25 66  1  0
 28 67  1  0
 29 68  1  0
 30 69  1  0
 32 70  1  0
 32 71  1  0
 40 72  1  0
 40 73  1  0
 41 74  1  0
 41 75  1  0
 42 76  1  0
 42 77  1  0
 43 78  1  0
 43 79  1  0
 44 80  1  0
M  CHG  3   8  -1  26  -1  35  -1
M  END
>  <UniqueID>  (71) 
68

>  <SMILES>  (71) 
O=C(Cc1ccc([N-]C(=O)C2CCN(Cc3ccccc3)CC2)cc1)[N-]c1cccc(Cc2n[n-]c(=O)c3c2CCCC3)c1

>  <Energy>  (71) 
109.62569955551727

>  <Genealogy>  (71) 
O=C(Cc1ccc([N-]C(=O)C2CCN(Cc3ccccc3)CC2)cc1)[N-]c1cccc(Cc2n[n-]c(=O)c3c2CCCC3)c1 (protonated)
O=C(Cc1ccc([N-]C(=O)C2CCN(Cc3ccccc3)CC2)cc1)[N-]c1cccc(Cc2n[n-]c(=O)c3c2CCCC3)c1 (3D coordinates assigned)
O=C(Cc1ccc([N-]C(=O)C2CCN(Cc3ccccc3)CC2)cc1)[N-]c1cccc(Cc2n[n-]c(=O)c3c2CCCC3)c1 (nonaromatic ring conformer: 109.62569955551727 kcal/mol)

>  <smiles>  (71) 
O=C(Cc1ccc(NC(=O)C2CCN(Cc3ccccc3)CC2)cc1)Nc1cccc(Cc2n[nH]c(=O)c3c2CCCC3)c1

>  <score_type>  (71) 
oracle

>  <origin>  (71) 
adg

>  <m_score__min__energy>  (71) 
-16.82

>  <m_primary>  (71) 
energy

$$$$
71:0
     RDKit          3D

 39 40  0  0  0  0  0  0  0  0999 V2000
   55.5250   27.7650   45.1490 H   0  0  0  0  0  0  0  0  0  0  0  0
   55.8450   28.7550   45.2390 N   0  0  0  0  0  0  0  0  0  0  0  0
   55.6080   29.7010   44.1990 C   0  0  0  0  0  0  0  0  0  0  0  0
   54.6140   29.5490   43.4380 O   0  0  0  0  0  0  0  0  0  0  0  0
   56.5220   30.8440   44.0220 C   0  0  0  0  0  0  0  0  0  0  0  0
   56.8940   31.5750   45.1080 N   0  0  0  0  0  0  0  0  0  0  0  0
   57.7290   32.6480   45.0260 C   0  0  0  0  0  0  0  0  0  0  0  0
   58.0320   33.2750   46.1290 N   0  0  0  0  0  0  0  0  0  0  0  0
   59.1630   34.1160   46.4100 C   0  0  0  0  0  0  0  0  0  0  0  0
   59.0180   35.2270   46.9860 O   0  0  0  0  0  0  0  0  0  0  0  0
   60.4860   33.6570   46.1190 N   0  0  0  0  0  0  0  0  0  0  0  0
   61.4290   33.2090   47.1380 C   0  0  0  0  0  0  0  0  0  0  0  0
   62.4502   33.4739   46.8266 H   0  0  0  0  0  0  0  0  0  0  0  0
   61.1812   33.7006   48.0903 H   0  0  0  0  0  0  0  0  0  0  0  0
   61.3390   31.6950   47.3280 C   0  0  0  0  0  0  0  0  0  0  0  0
   62.2883   31.2313   47.0217 H   0  0  0  0  0  0  0  0  0  0  0  0
   61.1431   31.4727   48.3873 H   0  0  0  0  0  0  0  0  0  0  0  0
   60.2450   31.1550   46.5080 N   0  0  0  0  0  0  0  0  0  0  0  0
   59.7390   31.9500   46.0510 H   0  0  0  0  0  0  0  0  0  0  0  0
   59.2920   30.3750   47.3110 C   0  0  0  0  0  0  0  0  0  0  0  0
   59.7550   30.1395   48.2806 H   0  0  0  0  0  0  0  0  0  0  0  0
   58.3825   30.9804   47.4388 H   0  0  0  0  0  0  0  0  0  0  0  0
   58.8990   29.0840   46.6330 C   0  0  0  0  0  0  0  0  0  0  0  0
   59.0780   28.9250   45.2480 C   0  0  0  0  0  0  0  0  0  0  0  0
   59.4882   29.7519   44.6496 H   0  0  0  0  0  0  0  0  0  0  0  0
   58.7360   27.7180   44.6280 C   0  0  0  0  0  0  0  0  0  0  0  0
   58.9110   27.5710   43.2910 F   0  0  0  0  0  0  0  0  0  0  0  0
   58.2200   26.6630   45.3850 C   0  0  0  0  0  0  0  0  0  0  0  0
   57.9514   25.7151   44.8958 H   0  0  0  0  0  0  0  0  0  0  0  0
   58.0450   26.8120   46.7640 C   0  0  0  0  0  0  0  0  0  0  0  0
   57.5490   25.7860   47.4980 F   0  0  0  0  0  0  0  0  0  0  0  0
   58.3850   28.0160   47.3880 C   0  0  0  0  0  0  0  0  0  0  0  0
   58.2497   28.1277   48.4739 H   0  0  0  0  0  0  0  0  0  0  0  0
   58.2550   33.0060   43.7670 C   0  0  0  0  0  0  0  0  0  0  0  0
   58.9496   33.8542   43.6765 H   0  0  0  0  0  0  0  0  0  0  0  0
   57.8860   32.2740   42.6370 C   0  0  0  0  0  0  0  0  0  0  0  0
   58.2840   32.5514   41.6498 H   0  0  0  0  0  0  0  0  0  0  0  0
   57.0150   31.1930   42.7560 C   0  0  0  0  0  0  0  0  0  0  0  0
   56.7170   30.6191   41.8662 H   0  0  0  0  0  0  0  0  0  0  0  0
  1  2  1  0
  2  3  1  0
  3  4  2  0
  3  5  1  0
  5  6  1  0
  6  7  1  0
  7  8  2  0
  8  9  1  0
  9 10  2  0
  9 11  1  0
 11 12  1  0
 12 13  1  0
 12 14  1  0
 12 15  1  0
 15 16  1  0
 15 17  1  0
 15 18  1  0
 18 19  1  0
 18 20  1  0
 20 21  1  0
 20 22  1  0
 20 23  1  0
 23 24  2  0
 24 25  1  0
 24 26  1  0
 26 27  1  0
 26 28  2  0
 28 29  1  0
 28 30  1  0
 30 31  1  0
 30 32  2  0
 32 33  1  0
  7 34  1  0
 34 35  1  0
 34 36  2  0
 36 37  1  0
 36 38  1  0
 38 39  1  0
 38  5  2  0
 32 23  1  0
M  CHG  3   2  -1   6  -1  11  -1
M  END
>  <UniqueID>  (72) 
69

>  <SMILES>  (72) 
[NH-]C(=O)c1ccc/c(=N\C(=O)[N-]CCNCc2cc(F)cc(F)c2)[n-]1

>  <Energy>  (72) 
41.490557599679484

>  <Genealogy>  (72) 
[NH-]C(=O)c1cccc(=NC(=O)[N-]CCNCc2cc(F)cc(F)c2)[n-]1 (protonated)
[NH-]C(=O)c1ccc/c(=N\C(=O)[N-]CCNCc2cc(F)cc(F)c2)[n-]1 (cis-trans isomerization)
[NH-]C(=O)c1ccc/c(=N\C(=O)[N-]CCNCc2cc(F)cc(F)c2)[n-]1 (3D coordinates assigned)
[NH-]C(=O)c1ccc/c(=N\C(=O)[N-]CCNCc2cc(F)cc(F)c2)[n-]1 (optimized conformer: 41.490557599679484 kcal/mol)

>  <smiles>  (72) 
NC(=O)c1cccc(=NC(=O)NCCNCc2cc(F)cc(F)c2)[nH]1

>  <score_type>  (72) 
oracle

>  <origin>  (72) 
adg

>  <m_score__min__energy>  (72) 
-13.19

>  <m_primary>  (72) 
energy

$$$$
72:0
     RDKit          3D

 54 57  0  0  0  0  0  0  0  0999 V2000
   59.8330   28.2740   44.1200 O   0  0  0  0  0  0  0  0  0  0  0  0
   59.4450   28.6530   45.2580 C   0  0  0  0  0  0  0  0  0  0  0  0
   57.9830   28.8580   45.5130 C   0  0  0  0  0  0  0  0  0  0  0  0
   57.4770   27.9430   46.6370 C   0  0  0  0  0  0  0  0  0  0  0  0
   57.2470   26.5810   46.1480 N   0  0  0  0  0  0  0  0  0  0  0  0
   56.0510   26.0430   45.8160 C   0  0  0  0  0  0  0  0  0  0  0  0
   54.8290   26.6800   45.9990 O   0  0  0  0  0  0  0  0  0  0  0  0
   56.2210   24.7990   45.2490 C   0  0  0  0  0  0  0  0  0  0  0  0
   57.5700   24.5650   45.2200 C   0  0  0  0  0  0  0  0  0  0  0  0
   58.1800   25.6730   45.7720 C   0  0  0  0  0  0  0  0  0  0  0  0
   59.5570   25.8410   45.9030 O   0  0  0  0  0  0  0  0  0  0  0  0
   58.1960   23.3220   44.6700 C   0  0  0  0  0  0  0  0  0  0  0  0
   57.1520   22.3490   44.1560 C   0  0  0  0  0  0  0  0  0  0  0  0
   55.8220   22.5970   44.1530 C   0  0  0  0  0  0  0  0  0  0  0  0
   55.1960   23.8740   44.6780 C   0  0  0  0  0  0  0  0  0  0  0  0
   60.3620   28.7630   46.3550 N   0  0  0  0  0  0  0  0  0  0  0  0
   60.3530   29.7590   47.3830 C   0  0  0  0  0  0  0  0  0  0  0  0
   60.1700   29.3470   48.7090 C   0  0  0  0  0  0  0  0  0  0  0  0
   60.1570   30.2850   49.7430 C   0  0  0  0  0  0  0  0  0  0  0  0
   60.3100   31.6430   49.4590 C   0  0  0  0  0  0  0  0  0  0  0  0
   60.4760   32.0710   48.1350 C   0  0  0  0  0  0  0  0  0  0  0  0
   60.6330   33.7910   47.7870 S   0  0  0  0  0  0  0  0  0  0  0  0
   61.8800   34.0080   46.9750 O   0  0  0  0  0  0  0  0  0  0  0  0
   60.7480   34.5700   49.0720 O   0  0  0  0  0  0  0  0  0  0  0  0
   59.2370   34.3450   46.8940 N   0  0  0  0  0  0  0  0  0  0  0  0
   59.5930   34.6560   45.4880 C   0  0  0  0  0  0  0  0  0  0  0  0
   58.7630   33.8510   44.4740 C   0  0  0  0  0  0  0  0  0  0  0  0
   57.3750   33.9980   44.7150 O   0  0  0  0  0  0  0  0  0  0  0  0
   57.0030   33.6780   46.0540 C   0  0  0  0  0  0  0  0  0  0  0  0
   58.1630   33.3440   47.0100 C   0  0  0  0  0  0  0  0  0  0  0  0
   60.4840   31.1280   47.0970 C   0  0  0  0  0  0  0  0  0  0  0  0
   57.8134   29.9060   45.8009 H   0  0  0  0  0  0  0  0  0  0  0  0
   57.4331   28.6123   44.5925 H   0  0  0  0  0  0  0  0  0  0  0  0
   58.2271   27.9137   47.4410 H   0  0  0  0  0  0  0  0  0  0  0  0
   56.5236   28.3447   47.0107 H   0  0  0  0  0  0  0  0  0  0  0  0
   60.0120   26.7170   45.6720 H   0  0  0  0  0  0  0  0  0  0  0  0
   58.8660   23.5965   43.8419 H   0  0  0  0  0  0  0  0  0  0  0  0
   58.7533   22.8306   45.4811 H   0  0  0  0  0  0  0  0  0  0  0  0
   57.4976   21.3821   43.7614 H   0  0  0  0  0  0  0  0  0  0  0  0
   55.1538   21.8246   43.7445 H   0  0  0  0  0  0  0  0  0  0  0  0
   54.6779   24.3827   43.8517 H   0  0  0  0  0  0  0  0  0  0  0  0
   54.4922   23.6059   45.4797 H   0  0  0  0  0  0  0  0  0  0  0  0
   60.0359   28.2793   48.9369 H   0  0  0  0  0  0  0  0  0  0  0  0
   60.0259   29.9532   50.7835 H   0  0  0  0  0  0  0  0  0  0  0  0
   60.3002   32.3790   50.2764 H   0  0  0  0  0  0  0  0  0  0  0  0
   59.4222   35.7281   45.3105 H   0  0  0  0  0  0  0  0  0  0  0  0
   60.6489   34.3833   45.3443 H   0  0  0  0  0  0  0  0  0  0  0  0
   58.9907   34.2094   43.4592 H   0  0  0  0  0  0  0  0  0  0  0  0
   59.0233   32.7873   44.5778 H   0  0  0  0  0  0  0  0  0  0  0  0
   56.4612   34.5406   46.4691 H   0  0  0  0  0  0  0  0  0  0  0  0
   56.3990   32.7613   45.9854 H   0  0  0  0  0  0  0  0  0  0  0  0
   57.7878   33.3350   48.0440 H   0  0  0  0  0  0  0  0  0  0  0  0
   58.5687   32.3570   46.7430 H   0  0  0  0  0  0  0  0  0  0  0  0
   60.5933   31.4618   46.0546 H   0  0  0  0  0  0  0  0  0  0  0  0
  1  2  2  0
  2  3  1  0
  3  4  1  0
  4  5  1  0
  5  6  1  0
  6  7  1  0
  6  8  2  0
  8  9  1  0
  9 10  2  0
 10 11  1  0
  9 12  1  0
 12 13  1  0
 13 14  2  0
 14 15  1  0
  2 16  1  0
 16 17  1  0
 17 18  2  0
 18 19  1  0
 19 20  2  0
 20 21  1  0
 21 22  1  0
 22 23  2  0
 22 24  2  0
 22 25  1  0
 25 26  1  0
 26 27  1  0
 27 28  1  0
 28 29  1  0
 29 30  1  0
 21 31  2  0
 10  5  1  0
 31 17  1  0
 15  8  1  0
 30 25  1  0
  3 32  1  0
  3 33  1  0
  4 34  1  0
  4 35  1  0
 11 36  1  0
 12 37  1  0
 12 38  1  0
 13 39  1  0
 14 40  1  0
 15 41  1  0
 15 42  1  0
 18 43  1  0
 19 44  1  0
 20 45  1  0
 26 46  1  0
 26 47  1  0
 27 48  1  0
 27 49  1  0
 29 50  1  0
 29 51  1  0
 30 52  1  0
 30 53  1  0
 31 54  1  0
M  CHG  2   7  -1  16  -1
M  END
>  <UniqueID>  (73) 
70

>  <SMILES>  (73) 
O=C(CCn1c([O-])c2c(c1O)CC=CC2)[N-]c1cccc(S(=O)(=O)N2CCOCC2)c1

>  <Energy>  (73) 
98.04263342902141

>  <Genealogy>  (73) 
O=C(CCn1c([O-])c2c(c1O)CC=CC2)[N-]c1cccc(S(=O)(=O)N2CCOCC2)c1 (protonated)
O=C(CCn1c([O-])c2c(c1O)CC=CC2)[N-]c1cccc(S(=O)(=O)N2CCOCC2)c1 (3D coordinates assigned)
O=C(CCn1c([O-])c2c(c1O)CC=CC2)[N-]c1cccc(S(=O)(=O)N2CCOCC2)c1 (nonaromatic ring conformer: 98.04263342902141 kcal/mol)

>  <smiles>  (73) 
O=C(CCn1c(O)c2c(c1O)CC=CC2)Nc1cccc(S(=O)(=O)N2CCOCC2)c1

>  <score_type>  (73) 
oracle

>  <origin>  (73) 
adg

>  <m_score__min__energy>  (73) 
-14.869999999999999

>  <m_primary>  (73) 
energy

$$$$
73:0
     RDKit          3D

 47 49  0  0  0  0  0  0  0  0999 V2000
   56.5100   29.0540   42.6040 N   0  0  0  0  0  0  0  0  0  0  0  0
   56.4130   29.7810   44.1680 S   0  0  0  0  0  0  0  0  0  0  0  0
   56.3580   31.2760   44.0310 O   0  0  0  0  0  0  0  0  0  0  0  0
   55.1540   29.3210   44.8500 O   0  0  0  0  0  0  0  0  0  0  0  0
   57.8100   29.2930   45.1360 C   0  0  0  0  0  0  0  0  0  0  0  0
   57.8770   27.9650   45.5860 C   0  0  0  0  0  0  0  0  0  0  0  0
   58.9140   27.5480   46.4160 C   0  0  0  0  0  0  0  0  0  0  0  0
   59.8950   28.4500   46.8190 C   0  0  0  0  0  0  0  0  0  0  0  0
   59.8750   29.7780   46.3500 C   0  0  0  0  0  0  0  0  0  0  0  0
   60.8320   30.7410   46.8150 N   0  0  0  0  0  0  0  0  0  0  0  0
   60.9670   31.2410   48.0140 C   0  0  0  0  0  0  0  0  0  0  0  0
   62.2470   31.7120   48.5920 C   0  0  0  0  0  0  0  0  0  0  0  0
   62.9940   32.6690   47.8890 C   0  0  0  0  0  0  0  0  0  0  0  0
   64.2320   33.0980   48.3730 C   0  0  0  0  0  0  0  0  0  0  0  0
   64.7450   32.5600   49.5590 C   0  0  0  0  0  0  0  0  0  0  0  0
   66.3060   33.0890   50.1630 Cl  0  0  0  0  0  0  0  0  0  0  0  0
   64.0260   31.5760   50.2410 C   0  0  0  0  0  0  0  0  0  0  0  0
   62.7910   31.1430   49.7550 C   0  0  0  0  0  0  0  0  0  0  0  0
   58.8340   30.2000   45.4990 C   0  0  0  0  0  0  0  0  0  0  0  0
   58.8150   31.5610   45.0500 N   0  0  0  0  0  0  0  0  0  0  0  0
   59.2750   32.6720   45.8900 C   0  0  0  0  0  0  0  0  0  0  0  0
   58.4330   32.7980   47.1690 C   0  0  0  0  0  0  0  0  0  0  0  0
   58.5790   34.1740   47.8510 C   0  0  0  0  0  0  0  0  0  0  0  0
   59.7730   34.8950   47.4010 N   0  0  0  0  0  0  0  0  0  0  0  0
   59.7070   35.1870   45.9680 C   0  0  0  0  0  0  0  0  0  0  0  0
   59.2360   33.9850   45.1100 C   0  0  0  0  0  0  0  0  0  0  0  0
   57.3880   29.3830   42.1450 H   0  0  0  0  0  0  0  0  0  0  0  0
   55.7390   29.4560   42.0500 H   0  0  0  0  0  0  0  0  0  0  0  0
   57.1023   27.2466   45.2797 H   0  0  0  0  0  0  0  0  0  0  0  0
   58.9584   26.5023   46.7545 H   0  0  0  0  0  0  0  0  0  0  0  0
   60.6892   28.1241   47.5067 H   0  0  0  0  0  0  0  0  0  0  0  0
   60.0654   31.3179   48.6395 H   0  0  0  0  0  0  0  0  0  0  0  0
   62.6017   33.0848   46.9492 H   0  0  0  0  0  0  0  0  0  0  0  0
   64.8040   33.8590   47.8219 H   0  0  0  0  0  0  0  0  0  0  0  0
   64.4344   31.1404   51.1648 H   0  0  0  0  0  0  0  0  0  0  0  0
   62.2411   30.3519   50.2858 H   0  0  0  0  0  0  0  0  0  0  0  0
   58.5400   31.7350   44.0610 H   0  0  0  0  0  0  0  0  0  0  0  0
   60.3130   32.4567   46.1835 H   0  0  0  0  0  0  0  0  0  0  0  0
   57.3751   32.6456   46.9091 H   0  0  0  0  0  0  0  0  0  0  0  0
   58.7940   32.0384   47.8779 H   0  0  0  0  0  0  0  0  0  0  0  0
   57.6912   34.7801   47.6179 H   0  0  0  0  0  0  0  0  0  0  0  0
   58.6771   34.0039   48.9333 H   0  0  0  0  0  0  0  0  0  0  0  0
   60.6260   34.3260   47.6010 H   0  0  0  0  0  0  0  0  0  0  0  0
   59.0048   36.0197   45.8149 H   0  0  0  0  0  0  0  0  0  0  0  0
   60.7280   35.4350   45.6423 H   0  0  0  0  0  0  0  0  0  0  0  0
   58.2039   34.1694   44.7774 H   0  0  0  0  0  0  0  0  0  0  0  0
   59.9204   33.8910   44.2540 H   0  0  0  0  0  0  0  0  0  0  0  0
  1  2  1  0
  2  3  2  0
  2  4  2  0
  2  5  1  0
  5  6  2  0
  6  7  1  0
  7  8  2  0
  8  9  1  0
  9 10  1  0
 10 11  2  3
 11 12  1  0
 12 13  2  0
 13 14  1  0
 14 15  2  0
 15 16  1  0
 15 17  1  0
 17 18  2  0
  9 19  2  0
 19 20  1  0
 20 21  1  0
 21 22  1  0
 22 23  1  0
 23 24  1  0
 24 25  1  0
 25 26  1  0
 19  5  1  0
 26 21  1  0
 18 12  1  0
  1 27  1  0
  1 28  1  0
  6 29  1  0
  7 30  1  0
  8 31  1  0
 11 32  1  0
 13 33  1  0
 14 34  1  0
 17 35  1  0
 18 36  1  0
 20 37  1  0
 21 38  1  0
 22 39  1  0
 22 40  1  0
 23 41  1  0
 23 42  1  0
 24 43  1  0
 25 44  1  0
 25 45  1  0
 26 46  1  0
 26 47  1  0
M  END
>  <UniqueID>  (74) 
71

>  <SMILES>  (74) 
NS(=O)(=O)c1cccc(N=Cc2ccc(Cl)cc2)c1NC1CCNCC1

>  <Energy>  (74) 
69.1955162375233

>  <Genealogy>  (74) 
NS(=O)(=O)c1cccc(N=Cc2ccc(Cl)cc2)c1NC1CCNCC1 (3D coordinates assigned)
NS(=O)(=O)c1cccc(N=Cc2ccc(Cl)cc2)c1NC1CCNCC1 (nonaromatic ring conformer: 69.1955162375233 kcal/mol)

>  <smiles>  (74) 
NS(=O)(=O)c1cccc(N=Cc2ccc(Cl)cc2)c1NC1CCNCC1

>  <score_type>  (74) 
oracle

>  <origin>  (74) 
adg

>  <m_score__min__energy>  (74) 
-9.4299999999999997

>  <m_primary>  (74) 
energy

$$$$
74:0
     RDKit          3D

 53 56  0  0  0  0  0  0  0  0999 V2000
   55.8240   25.8340   46.3560 O   0  0  0  0  0  0  0  0  0  0  0  0
   56.9140   26.4240   46.1350 C   0  0  0  0  0  0  0  0  0  0  0  0
   57.4790   26.3430   44.7400 C   0  0  0  0  0  0  0  0  0  0  0  0
   58.5130   27.4100   44.3560 C   0  0  0  0  0  0  0  0  0  0  0  0
   58.1860   28.7980   44.9370 C   0  0  2  0  0  0  0  0  0  0  0  0
   58.5330   29.8200   43.9350 N   0  0  0  0  0  0  0  0  0  0  0  0
   57.3920   31.1380   43.8950 S   0  0  0  0  0  0  0  0  0  0  0  0
   57.1450   31.6070   42.4880 O   0  0  0  0  0  0  0  0  0  0  0  0
   56.0860   30.6880   44.4880 O   0  0  0  0  0  0  0  0  0  0  0  0
   58.0450   32.4710   44.8390 C   0  0  0  0  0  0  0  0  0  0  0  0
   58.8200   33.4650   44.2240 C   0  0  0  0  0  0  0  0  0  0  0  0
   59.3220   34.5320   44.9770 C   0  0  0  0  0  0  0  0  0  0  0  0
   59.0480   34.6120   46.3460 C   0  0  0  0  0  0  0  0  0  0  0  0
   59.5340   35.6460   47.0750 F   0  0  0  0  0  0  0  0  0  0  0  0
   58.2690   33.6280   46.9620 C   0  0  0  0  0  0  0  0  0  0  0  0
   57.7660   32.5600   46.2110 C   0  0  0  0  0  0  0  0  0  0  0  0
   58.9070   28.9390   46.2780 C   0  0  0  0  0  0  0  0  0  0  0  0
   59.9130   29.9130   46.5000 C   0  0  0  0  0  0  0  0  0  0  0  0
   60.6020   29.9860   47.7180 C   0  0  0  0  0  0  0  0  0  0  0  0
   61.9040   31.1630   47.9510 S   0  0  0  0  0  0  0  0  0  0  0  0
   62.6740   30.7740   49.1810 O   0  0  0  0  0  0  0  0  0  0  0  0
   62.8470   31.0880   46.7810 O   0  0  0  0  0  0  0  0  0  0  0  0
   61.3480   32.8160   48.1450 N   0  0  0  0  0  0  0  0  0  0  0  0
   62.3980   33.8400   47.9510 C   0  0  0  0  0  0  0  0  0  0  0  0
   62.7070   34.6690   49.2040 C   0  0  0  0  0  0  0  0  0  0  0  0
   62.8910   33.5930   50.6560 S   0  0  0  0  0  0  0  0  0  0  0  0
   61.1740   32.9520   50.6540 C   0  0  0  0  0  0  0  0  0  0  0  0
   60.4550   33.0240   49.2970 C   0  0  0  0  0  0  0  0  0  0  0  0
   60.3060   29.0670   48.7270 C   0  0  0  0  0  0  0  0  0  0  0  0
   59.3120   28.1140   48.5370 C   0  0  0  0  0  0  0  0  0  0  0  0
   58.6160   28.0250   47.3260 C   0  0  0  0  0  0  0  0  0  0  0  0
   57.5880   27.0220   47.2510 N   0  0  0  0  0  0  0  0  0  0  0  0
   57.9580   25.3589   44.6303 H   0  0  0  0  0  0  0  0  0  0  0  0
   56.6236   26.5126   44.0696 H   0  0  0  0  0  0  0  0  0  0  0  0
   59.4979   27.0955   44.7316 H   0  0  0  0  0  0  0  0  0  0  0  0
   58.5026   27.5003   43.2598 H   0  0  0  0  0  0  0  0  0  0  0  0
   57.1147   28.9323   45.1475 H   0  0  0  0  0  0  0  0  0  0  0  0
   59.5180   30.1580   44.0190 H   0  0  0  0  0  0  0  0  0  0  0  0
   59.0338   33.4056   43.1466 H   0  0  0  0  0  0  0  0  0  0  0  0
   59.9323   35.3081   44.4921 H   0  0  0  0  0  0  0  0  0  0  0  0
   58.0513   33.6935   48.0383 H   0  0  0  0  0  0  0  0  0  0  0  0
   57.1506   31.7887   46.6972 H   0  0  0  0  0  0  0  0  0  0  0  0
   60.1578   30.6264   45.6993 H   0  0  0  0  0  0  0  0  0  0  0  0
   63.3217   33.3318   47.6372 H   0  0  0  0  0  0  0  0  0  0  0  0
   62.0191   34.5417   47.1933 H   0  0  0  0  0  0  0  0  0  0  0  0
   63.6422   35.2264   49.0467 H   0  0  0  0  0  0  0  0  0  0  0  0
   61.8737   35.3646   49.3824 H   0  0  0  0  0  0  0  0  0  0  0  0
   61.2027   31.8986   50.9695 H   0  0  0  0  0  0  0  0  0  0  0  0
   60.6041   33.5976   51.3384 H   0  0  0  0  0  0  0  0  0  0  0  0
   59.6739   32.2497   49.2758 H   0  0  0  0  0  0  0  0  0  0  0  0
   60.0407   34.0388   49.2049 H   0  0  0  0  0  0  0  0  0  0  0  0
   60.8616   29.0974   49.6759 H   0  0  0  0  0  0  0  0  0  0  0  0
   59.0682   27.4176   49.3528 H   0  0  0  0  0  0  0  0  0  0  0  0
  1  2  2  0
  2  3  1  0
  3  4  1  0
  4  5  1  0
  5  6  1  0
  6  7  1  0
  7  8  2  0
  7  9  2  0
  7 10  1  0
 10 11  2  0
 11 12  1  0
 12 13  2  0
 13 14  1  0
 13 15  1  0
 15 16  2  0
  5 17  1  0
 17 18  2  0
 18 19  1  0
 19 20  1  0
 20 21  2  0
 20 22  2  0
 20 23  1  0
 23 24  1  0
 24 25  1  0
 25 26  1  0
 26 27  1  0
 27 28  1  0
 19 29  2  0
 29 30  1  0
 30 31  2  0
 31 32  1  0
 32  2  1  0
 16 10  1  0
 31 17  1  0
 28 23  1  0
  3 33  1  0
  3 34  1  0
  4 35  1  0
  4 36  1  0
  5 37  1  1
  6 38  1  0
 11 39  1  0
 12 40  1  0
 15 41  1  0
 16 42  1  0
 18 43  1  0
 24 44  1  0
 24 45  1  0
 25 46  1  0
 25 47  1  0
 27 48  1  0
 27 49  1  0
 28 50  1  0
 28 51  1  0
 29 52  1  0
 30 53  1  0
M  CHG  1  32  -1
M  END
>  <UniqueID>  (75) 
72

>  <SMILES>  (75) 
O=C1CC[C@H](NS(=O)(=O)c2ccc(F)cc2)c2cc(S(=O)(=O)N3CCSCC3)ccc2[N-]1

>  <Energy>  (75) 
81.1494769325325

>  <Genealogy>  (75) 
O=C1CCC(NS(=O)(=O)c2ccc(F)cc2)c2cc(S(=O)(=O)N3CCSCC3)ccc2[N-]1 (protonated)
O=C1CC[C@H](NS(=O)(=O)c2ccc(F)cc2)c2cc(S(=O)(=O)N3CCSCC3)ccc2[N-]1 (chirality)
O=C1CC[C@H](NS(=O)(=O)c2ccc(F)cc2)c2cc(S(=O)(=O)N3CCSCC3)ccc2[N-]1 (3D coordinates assigned)
O=C1CC[C@H](NS(=O)(=O)c2ccc(F)cc2)c2cc(S(=O)(=O)N3CCSCC3)ccc2[N-]1 (nonaromatic ring conformer: 81.1494769325325 kcal/mol)

>  <smiles>  (75) 
O=C1CCC(NS(=O)(=O)c2ccc(F)cc2)c2cc(S(=O)(=O)N3CCSCC3)ccc2N1

>  <score_type>  (75) 
oracle

>  <origin>  (75) 
adg

>  <m_score__min__energy>  (75) 
-10.01

>  <m_primary>  (75) 
energy

$$$$
75:0
     RDKit          3D

 39 40  0  0  0  0  0  0  0  0999 V2000
   56.9790   25.0100   44.6330 C   0  0  0  0  0  0  0  0  0  0  0  0
   55.9010   25.7640   45.8330 S   0  0  0  0  0  0  0  0  0  0  0  0
   54.5110   25.2340   45.6310 O   0  0  0  0  0  0  0  0  0  0  0  0
   56.3500   25.4300   47.2290 O   0  0  0  0  0  0  0  0  0  0  0  0
   55.8770   27.4850   45.6160 N   0  0  0  0  0  0  0  0  0  0  0  0
   57.0260   28.3280   45.4620 C   0  0  0  0  0  0  0  0  0  0  0  0
   57.3670   28.9130   44.2300 C   0  0  0  0  0  0  0  0  0  0  0  0
   58.4940   29.7310   44.1300 C   0  0  0  0  0  0  0  0  0  0  0  0
   59.2920   29.9700   45.2510 C   0  0  0  0  0  0  0  0  0  0  0  0
   58.9720   29.3930   46.4830 C   0  0  0  0  0  0  0  0  0  0  0  0
   59.7990   29.6680   47.5820 O   0  0  0  0  0  0  0  0  0  0  0  0
   61.0010   30.4320   47.5170 C   0  0  0  0  0  0  0  0  0  0  0  0
   60.8150   31.7760   48.2330 C   0  0  0  0  0  0  0  0  0  0  0  0
   59.4030   32.1970   48.3080 N   0  0  0  0  0  0  0  0  0  0  0  0
   59.0280   33.0140   47.1780 C   0  0  0  0  0  0  0  0  0  0  0  0
   57.8170   32.7770   46.5020 C   0  0  0  0  0  0  0  0  0  0  0  0
   57.4680   33.5490   45.3890 C   0  0  0  0  0  0  0  0  0  0  0  0
   58.3210   34.5640   44.9430 C   0  0  0  0  0  0  0  0  0  0  0  0
   59.5250   34.8070   45.6090 C   0  0  0  0  0  0  0  0  0  0  0  0
   59.8780   34.0380   46.7220 C   0  0  0  0  0  0  0  0  0  0  0  0
   57.8350   28.5670   46.5810 C   0  0  0  0  0  0  0  0  0  0  0  0
   57.7737   24.4541   45.1521 H   0  0  0  0  0  0  0  0  0  0  0  0
   56.3998   24.3190   44.0028 H   0  0  0  0  0  0  0  0  0  0  0  0
   57.4294   25.7910   44.0028 H   0  0  0  0  0  0  0  0  0  0  0  0
   56.7444   28.7258   43.3427 H   0  0  0  0  0  0  0  0  0  0  0  0
   58.7545   30.1891   43.1644 H   0  0  0  0  0  0  0  0  0  0  0  0
   60.1778   30.6163   45.1637 H   0  0  0  0  0  0  0  0  0  0  0  0
   61.8141   29.8717   48.0017 H   0  0  0  0  0  0  0  0  0  0  0  0
   61.2502   30.6192   46.4621 H   0  0  0  0  0  0  0  0  0  0  0  0
   61.2090   31.6860   49.2561 H   0  0  0  0  0  0  0  0  0  0  0  0
   61.3555   32.5371   47.6511 H   0  0  0  0  0  0  0  0  0  0  0  0
   58.8010   31.3410   48.3190 H   0  0  0  0  0  0  0  0  0  0  0  0
   59.2250   32.7030   49.2060 H   0  0  0  0  0  0  0  0  0  0  0  0
   57.1419   31.9814   46.8502 H   0  0  0  0  0  0  0  0  0  0  0  0
   56.5209   33.3576   44.8634 H   0  0  0  0  0  0  0  0  0  0  0  0
   58.0440   35.1707   44.0682 H   0  0  0  0  0  0  0  0  0  0  0  0
   60.1961   35.6044   45.2572 H   0  0  0  0  0  0  0  0  0  0  0  0
   60.8259   34.2348   47.2442 H   0  0  0  0  0  0  0  0  0  0  0  0
   57.5796   28.1048   47.5460 H   0  0  0  0  0  0  0  0  0  0  0  0
  1  2  1  0
  2  3  2  0
  2  4  2  0
  2  5  1  0
  5  6  1  0
  6  7  2  0
  7  8  1  0
  8  9  2  0
  9 10  1  0
 10 11  1  0
 11 12  1  0
 12 13  1  0
 13 14  1  0
 14 15  1  0
 15 16  2  0
 16 17  1  0
 17 18  2  0
 18 19  1  0
 19 20  2  0
 10 21  2  0
 21  6  1  0
 20 15  1  0
  1 22  1  0
  1 23  1  0
  1 24  1  0
  7 25  1  0
  8 26  1  0
  9 27  1  0
 12 28  1  0
 12 29  1  0
 13 30  1  0
 13 31  1  0
 14 32  1  0
 14 33  1  0
 16 34  1  0
 17 35  1  0
 18 36  1  0
 19 37  1  0
 20 38  1  0
 21 39  1  0
M  CHG  2   5  -1  14   1
M  END
>  <UniqueID>  (76) 
73

>  <SMILES>  (76) 
CS(=O)(=O)[N-]c1cccc(OCC[NH2+]c2ccccc2)c1

>  <Energy>  (76) 
37.02279974751476

>  <Genealogy>  (76) 
CS(=O)(=O)[N-]c1cccc(OCC[NH2+]c2ccccc2)c1 (protonated)
CS(=O)(=O)[N-]c1cccc(OCC[NH2+]c2ccccc2)c1 (3D coordinates assigned)
CS(=O)(=O)[N-]c1cccc(OCC[NH2+]c2ccccc2)c1 (optimized conformer: 37.02279974751476 kcal/mol)

>  <smiles>  (76) 
CS(=O)(=O)Nc1cccc(OCCNc2ccccc2)c1

>  <score_type>  (76) 
oracle

>  <origin>  (76) 
adg

>  <m_score__min__energy>  (76) 
-7.6699999999999999

>  <m_primary>  (76) 
energy

$$$$
76:0
     RDKit          3D

 43 47  0  0  0  0  0  0  0  0999 V2000
   58.3360   30.1180   50.5010 O   0  0  0  0  0  0  0  0  0  0  0  0
   58.9160   30.1340   49.3840 C   0  0  0  0  0  0  0  0  0  0  0  0
   58.5230   29.2900   48.3880 N   0  0  0  0  0  0  0  0  0  0  0  0
   59.1340   29.2890   47.1600 C   0  0  0  0  0  0  0  0  0  0  0  0
   58.6930   28.3560   46.0860 C   0  0  0  0  0  0  0  0  0  0  0  0
   58.3920   27.0190   46.4200 C   0  0  0  0  0  0  0  0  0  0  0  0
   57.9810   26.1130   45.4400 C   0  0  0  0  0  0  0  0  0  0  0  0
   57.8600   26.5210   44.1140 C   0  0  0  0  0  0  0  0  0  0  0  0
   58.1570   27.8380   43.7610 C   0  0  0  0  0  0  0  0  0  0  0  0
   58.5870   28.7560   44.7300 C   0  0  0  0  0  0  0  0  0  0  0  0
   58.9060   30.0900   44.3270 N   0  0  0  0  0  0  0  0  0  0  0  0
   57.7210   31.3520   44.3260 S   0  0  0  0  0  0  0  0  0  0  0  0
   56.4200   30.8120   44.8520 O   0  0  0  0  0  0  0  0  0  0  0  0
   57.5050   31.8200   42.9150 O   0  0  0  0  0  0  0  0  0  0  0  0
   58.2540   32.7090   45.3110 C   0  0  0  0  0  0  0  0  0  0  0  0
   58.0780   32.6840   46.7020 C   0  0  0  0  0  0  0  0  0  0  0  0
   58.5320   33.7490   47.4870 C   0  0  0  0  0  0  0  0  0  0  0  0
   59.1650   34.8410   46.8860 C   0  0  0  0  0  0  0  0  0  0  0  0
   59.3470   34.8680   45.5010 C   0  0  0  0  0  0  0  0  0  0  0  0
   58.8950   33.8050   44.7130 C   0  0  0  0  0  0  0  0  0  0  0  0
   60.1700   30.1530   46.9340 N   0  0  0  0  0  0  0  0  0  0  0  0
   60.5460   30.9710   47.9120 N   0  0  0  0  0  0  0  0  0  0  0  0
   59.9660   31.0020   49.1230 C   0  0  0  0  0  0  0  0  0  0  0  0
   60.5690   31.9590   49.9410 C   0  0  0  0  0  0  0  0  0  0  0  0
   61.5630   32.5140   49.1410 C   0  0  0  0  0  0  0  0  0  0  0  0
   62.4970   33.5120   49.3910 C   0  0  0  0  0  0  0  0  0  0  0  0
   63.3800   33.8490   48.3490 C   0  0  0  0  0  0  0  0  0  0  0  0
   63.2950   33.1770   47.1050 C   0  0  0  0  0  0  0  0  0  0  0  0
   62.3600   32.2000   46.9040 N   0  0  0  0  0  0  0  0  0  0  0  0
   61.5170   31.8900   47.9190 C   0  0  0  0  0  0  0  0  0  0  0  0
   58.4821   26.6862   47.4646 H   0  0  0  0  0  0  0  0  0  0  0  0
   57.7520   25.0732   45.7165 H   0  0  0  0  0  0  0  0  0  0  0  0
   57.5307   25.8059   43.3457 H   0  0  0  0  0  0  0  0  0  0  0  0
   58.0530   28.1587   42.7140 H   0  0  0  0  0  0  0  0  0  0  0  0
   57.5817   31.8248   47.1769 H   0  0  0  0  0  0  0  0  0  0  0  0
   58.3909   33.7273   48.5777 H   0  0  0  0  0  0  0  0  0  0  0  0
   59.5199   35.6792   47.5037 H   0  0  0  0  0  0  0  0  0  0  0  0
   59.8468   35.7271   45.0296 H   0  0  0  0  0  0  0  0  0  0  0  0
   59.0420   33.8278   43.6231 H   0  0  0  0  0  0  0  0  0  0  0  0
   60.3162   32.2157   50.9803 H   0  0  0  0  0  0  0  0  0  0  0  0
   62.5441   34.0190   50.3661 H   0  0  0  0  0  0  0  0  0  0  0  0
   64.1359   34.6337   48.5002 H   0  0  0  0  0  0  0  0  0  0  0  0
   63.9877   33.4437   46.2932 H   0  0  0  0  0  0  0  0  0  0  0  0
  1  2  2  0
  2  3  1  0
  3  4  2  0
  4  5  1  0
  5  6  2  0
  6  7  1  0
  7  8  2  0
  8  9  1  0
  9 10  2  0
 10 11  1  0
 11 12  1  0
 12 13  2  0
 12 14  2  0
 12 15  1  0
 15 16  2  0
 16 17  1  0
 17 18  2  0
 18 19  1  0
 19 20  2  0
  4 21  1  0
 21 22  1  0
 22 23  1  0
 23 24  2  0
 24 25  1  0
 25 26  2  0
 26 27  1  0
 27 28  2  0
 28 29  1  0
 29 30  2  0
 23  2  1  0
 30 25  1  0
 10  5  1  0
 20 15  1  0
 30 22  1  0
  6 31  1  0
  7 32  1  0
  8 33  1  0
  9 34  1  0
 16 35  1  0
 17 36  1  0
 18 37  1  0
 19 38  1  0
 20 39  1  0
 24 40  1  0
 26 41  1  0
 27 42  1  0
 28 43  1  0
M  CHG  2  11  -1  21  -1
M  END
>  <UniqueID>  (77) 
74

>  <SMILES>  (77) 
O=c1nc(-c2ccccc2[N-]S(=O)(=O)c2ccccc2)[n-]n2c1cc1cccnc12

>  <Energy>  (77) 
107.34761648130039

>  <Genealogy>  (77) 
O=c1nc(-c2ccccc2[N-]S(=O)(=O)c2ccccc2)[n-]n2c1cc1cccnc12 (protonated)
O=c1nc(-c2ccccc2[N-]S(=O)(=O)c2ccccc2)[n-]n2c1cc1cccnc12 (3D coordinates assigned)
O=c1nc(-c2ccccc2[N-]S(=O)(=O)c2ccccc2)[n-]n2c1cc1cccnc12 (optimized conformer: 107.34761648130039 kcal/mol)

>  <smiles>  (77) 
O=c1nc(-c2ccccc2NS(=O)(=O)c2ccccc2)[nH]n2c1cc1cccnc12

>  <score_type>  (77) 
oracle

>  <origin>  (77) 
adg

>  <m_score__min__energy>  (77) 
-11.279999999999999

>  <m_primary>  (77) 
energy

$$$$
77:0
     RDKit          3D

 31 32  0  0  0  0  0  0  0  0999 V2000
   57.0250   29.3120   43.0620 C   0  0  0  0  0  0  0  0  0  0  0  0
   56.3290   29.5420   44.6820 S   0  0  0  0  0  0  0  0  0  0  0  0
   55.8820   28.2130   45.2210 O   0  0  0  0  0  0  0  0  0  0  0  0
   55.1600   30.4790   44.5830 O   0  0  0  0  0  0  0  0  0  0  0  0
   57.5420   30.2210   45.7180 N   0  0  0  0  0  0  0  0  0  0  0  0
   58.0230   31.5720   45.6600 C   0  0  0  0  0  0  0  0  0  0  0  0
   57.2440   32.6110   45.1190 C   0  0  0  0  0  0  0  0  0  0  0  0
   57.7440   33.9150   45.0670 C   0  0  0  0  0  0  0  0  0  0  0  0
   59.0240   34.1960   45.5530 C   0  0  0  0  0  0  0  0  0  0  0  0
   59.6490   35.8330   45.4840 Cl  0  0  0  0  0  0  0  0  0  0  0  0
   59.8050   33.1710   46.0940 C   0  0  0  0  0  0  0  0  0  0  0  0
   59.3110   31.8620   46.1470 C   0  0  0  0  0  0  0  0  0  0  0  0
   60.3480   30.5660   46.8400 S   0  0  0  0  0  0  0  0  0  0  0  0
   59.4690   30.5770   48.4000 C   0  0  0  0  0  0  0  0  0  0  0  0
   58.9180   31.7620   48.8920 C   0  0  0  0  0  0  0  0  0  0  0  0
   58.2470   31.7480   50.1160 C   0  0  0  0  0  0  0  0  0  0  0  0
   58.1260   30.5510   50.8420 C   0  0  0  0  0  0  0  0  0  0  0  0
   57.4390   30.5170   52.1060 N   0  0  0  0  0  0  0  0  0  0  0  0
   57.6740   31.3760   52.9810 O   0  0  0  0  0  0  0  0  0  0  0  0
   56.5110   29.5350   52.3710 O   0  0  0  0  0  0  0  0  0  0  0  0
   58.6940   29.3840   50.3030 C   0  0  0  0  0  0  0  0  0  0  0  0
   59.3430   29.4250   49.1090 N   0  0  0  0  0  0  0  0  0  0  0  0
   58.0657   28.9681   43.1555 H   0  0  0  0  0  0  0  0  0  0  0  0
   56.4381   28.5600   42.5142 H   0  0  0  0  0  0  0  0  0  0  0  0
   57.0018   30.2656   42.5142 H   0  0  0  0  0  0  0  0  0  0  0  0
   56.2360   32.3959   44.7349 H   0  0  0  0  0  0  0  0  0  0  0  0
   57.1288   34.7221   44.6426 H   0  0  0  0  0  0  0  0  0  0  0  0
   60.8110   33.3934   46.4794 H   0  0  0  0  0  0  0  0  0  0  0  0
   59.0118   32.6973   48.3207 H   0  0  0  0  0  0  0  0  0  0  0  0
   57.8117   32.6768   50.5134 H   0  0  0  0  0  0  0  0  0  0  0  0
   58.6131   28.4329   50.8497 H   0  0  0  0  0  0  0  0  0  0  0  0
  1  2  1  0
  2  3  2  0
  2  4  2  0
  2  5  1  0
  5  6  1  0
  6  7  2  0
  7  8  1  0
  8  9  2  0
  9 10  1  0
  9 11  1  0
 11 12  2  0
 12 13  1  0
 13 14  1  0
 14 15  2  0
 15 16  1  0
 16 17  2  0
 17 18  1  0
 18 19  2  0
 18 20  1  0
 17 21  1  0
 21 22  2  0
 12  6  1  0
 22 14  1  0
  1 23  1  0
  1 24  1  0
  1 25  1  0
  7 26  1  0
  8 27  1  0
 11 28  1  0
 15 29  1  0
 16 30  1  0
 21 31  1  0
M  CHG  3   5  -1  18   1  20  -1
M  END
>  <UniqueID>  (78) 
75

>  <SMILES>  (78) 
CS(=O)(=O)[N-]c1ccc(Cl)cc1Sc1ccc([N+](=O)[O-])cn1

>  <Energy>  (78) 
27.817457815229133

>  <Genealogy>  (78) 
CS(=O)(=O)[N-]c1ccc(Cl)cc1Sc1ccc([N+](=O)[O-])cn1 (protonated)
CS(=O)(=O)[N-]c1ccc(Cl)cc1Sc1ccc([N+](=O)[O-])cn1 (3D coordinates assigned)
CS(=O)(=O)[N-]c1ccc(Cl)cc1Sc1ccc([N+](=O)[O-])cn1 (optimized conformer: 27.817457815229133 kcal/mol)

>  <smiles>  (78) 
CS(=O)(=O)Nc1ccc(Cl)cc1Sc1ccc([N+](=O)[O-])cn1

>  <score_type>  (78) 
oracle

>  <origin>  (78) 
adg

>  <m_score__min__energy>  (78) 
-9.8900000000000006

>  <m_primary>  (78) 
energy

$$$$
78:0
     RDKit          3D

 34 35  0  0  0  0  0  0  0  0999 V2000
   57.7890   32.5790   42.9690 C   0  0  0  0  0  0  0  0  0  0  0  0
   57.6600   31.3510   43.8270 C   0  0  0  0  0  0  0  0  0  0  0  0
   57.0610   30.1920   43.3060 C   0  0  0  0  0  0  0  0  0  0  0  0
   56.9350   29.0430   44.0910 C   0  0  0  0  0  0  0  0  0  0  0  0
   57.4050   29.0310   45.4170 C   0  0  0  0  0  0  0  0  0  0  0  0
   57.2900   27.8630   46.2520 N   0  0  0  0  0  0  0  0  0  0  0  0
   58.4330   27.0230   46.6190 C   0  0  0  0  0  0  0  0  0  0  0  0
   57.9790   25.6500   47.1160 C   0  0  0  0  0  0  0  0  0  0  0  0
   56.5220   25.5930   47.1570 N   0  0  0  0  0  0  0  0  0  0  0  0
   55.6670   25.4850   46.0110 C   0  0  0  0  0  0  0  0  0  0  0  0
   54.7520   26.3360   45.8580 O   0  0  0  0  0  0  0  0  0  0  0  0
   55.8510   24.4500   44.9790 C   0  0  0  0  0  0  0  0  0  0  0  0
   56.7940   24.5930   43.9530 C   0  0  0  0  0  0  0  0  0  0  0  0
   56.9430   23.5730   43.0160 C   0  0  0  0  0  0  0  0  0  0  0  0
   56.1620   22.4230   43.1350 C   0  0  0  0  0  0  0  0  0  0  0  0
   56.2760   21.4860   42.3030 O   0  0  0  0  0  0  0  0  0  0  0  0
   55.2790   22.3170   44.1610 N   0  0  0  0  0  0  0  0  0  0  0  0
   55.1340   23.2960   45.0570 N   0  0  0  0  0  0  0  0  0  0  0  0
   58.0030   30.1900   45.9360 C   0  0  0  0  0  0  0  0  0  0  0  0
   58.1330   31.3430   45.1540 C   0  0  0  0  0  0  0  0  0  0  0  0
   58.8920   32.7630   45.8660 Cl  0  0  0  0  0  0  0  0  0  0  0  0
   57.8823   33.4670   43.6114 H   0  0  0  0  0  0  0  0  0  0  0  0
   58.6828   32.4903   42.3339 H   0  0  0  0  0  0  0  0  0  0  0  0
   56.8963   32.6780   42.3339 H   0  0  0  0  0  0  0  0  0  0  0  0
   56.6880   30.1890   42.2712 H   0  0  0  0  0  0  0  0  0  0  0  0
   56.4653   28.1420   43.6695 H   0  0  0  0  0  0  0  0  0  0  0  0
   56.3410   27.6070   46.6090 H   0  0  0  0  0  0  0  0  0  0  0  0
   59.0769   26.8896   45.7372 H   0  0  0  0  0  0  0  0  0  0  0  0
   58.9823   27.5212   47.4314 H   0  0  0  0  0  0  0  0  0  0  0  0
   58.3553   24.8728   46.4345 H   0  0  0  0  0  0  0  0  0  0  0  0
   58.3763   25.4819   48.1279 H   0  0  0  0  0  0  0  0  0  0  0  0
   57.4106   25.5016   43.8879 H   0  0  0  0  0  0  0  0  0  0  0  0
   57.6665   23.6729   42.1935 H   0  0  0  0  0  0  0  0  0  0  0  0
   58.3744   30.1919   46.9714 H   0  0  0  0  0  0  0  0  0  0  0  0
  1  2  1  0
  2  3  2  0
  3  4  1  0
  4  5  2  0
  5  6  1  0
  6  7  1  0
  7  8  1  0
  8  9  1  0
  9 10  1  0
 10 11  2  0
 10 12  1  0
 12 13  1  0
 13 14  2  0
 14 15  1  0
 15 16  2  0
 15 17  1  0
 17 18  1  0
  5 19  1  0
 19 20  2  0
 20 21  1  0
 20  2  1  0
 18 12  2  0
  1 22  1  0
  1 23  1  0
  1 24  1  0
  3 25  1  0
  4 26  1  0
  6 27  1  0
  7 28  1  0
  7 29  1  0
  8 30  1  0
  8 31  1  0
 13 32  1  0
 14 33  1  0
 19 34  1  0
M  CHG  2   9  -1  17  -1
M  END
>  <UniqueID>  (79) 
76

>  <SMILES>  (79) 
Cc1ccc(NCC[N-]C(=O)c2ccc(=O)[n-]n2)cc1Cl

>  <Energy>  (79) 
37.10643098683968

>  <Genealogy>  (79) 
Cc1ccc(NCC[N-]C(=O)c2ccc(=O)[n-]n2)cc1Cl (protonated)
Cc1ccc(NCC[N-]C(=O)c2ccc(=O)[n-]n2)cc1Cl (3D coordinates assigned)
Cc1ccc(NCC[N-]C(=O)c2ccc(=O)[n-]n2)cc1Cl (optimized conformer: 37.10643098683968 kcal/mol)

>  <smiles>  (79) 
Cc1ccc(NCCNC(=O)c2ccc(=O)[nH]n2)cc1Cl

>  <score_type>  (79) 
oracle

>  <origin>  (79) 
adg

>  <m_score__min__energy>  (79) 
-11.6

>  <m_primary>  (79) 
energy

$$$$
79:0
     RDKit          3D

 35 37  0  0  0  0  0  0  0  0999 V2000
   53.3590   23.5520   44.6170 N   0  0  0  0  0  0  0  0  0  0  0  0
   54.2150   24.5560   45.1570 C   0  0  0  0  0  0  0  0  0  0  0  0
   53.7060   25.5860   45.6730 O   0  0  0  0  0  0  0  0  0  0  0  0
   55.6850   24.4000   45.0910 C   0  0  0  0  0  0  0  0  0  0  0  0
   56.3220   23.2510   44.5850 C   0  0  0  0  0  0  0  0  0  0  0  0
   55.6310   22.1200   44.1550 O   0  0  0  0  0  0  0  0  0  0  0  0
   57.7090   23.3430   44.5210 C   0  0  0  0  0  0  0  0  0  0  0  0
   58.1630   24.8570   45.0920 S   0  0  0  0  0  0  0  0  0  0  0  0
   56.6100   25.3920   45.4420 C   0  0  0  0  0  0  0  0  0  0  0  0
   56.3270   26.6740   46.0200 N   0  0  0  0  0  0  0  0  0  0  0  0
   57.1170   27.8520   45.7790 C   0  0  0  0  0  0  0  0  0  0  0  0
   58.4960   27.8690   46.0590 C   0  0  0  0  0  0  0  0  0  0  0  0
   59.2500   29.0180   45.8220 C   0  0  0  0  0  0  0  0  0  0  0  0
   58.6450   30.1590   45.2930 C   0  0  0  0  0  0  0  0  0  0  0  0
   57.2770   30.1570   44.9810 C   0  0  0  0  0  0  0  0  0  0  0  0
   56.6340   31.4110   44.4490 C   0  0  0  0  0  0  0  0  0  0  0  0
   57.3610   32.6150   44.9570 C   0  0  0  0  0  0  0  0  0  0  0  0
   57.2740   33.1390   46.2420 C   0  0  0  0  0  0  0  0  0  0  0  0
   58.1300   34.2260   46.4510 C   0  0  0  0  0  0  0  0  0  0  0  0
   58.9000   34.5530   45.3420 C   0  0  0  0  0  0  0  0  0  0  0  0
   58.5170   33.4860   44.0990 S   0  0  0  0  0  0  0  0  0  0  0  0
   56.5120   28.9990   45.2310 C   0  0  0  0  0  0  0  0  0  0  0  0
   55.1490   28.9910   44.9520 O   0  0  0  0  0  0  0  0  0  0  0  0
   53.6590   22.9740   43.8000 H   0  0  0  0  0  0  0  0  0  0  0  0
   54.7150   22.1950   43.7300 H   0  0  0  0  0  0  0  0  0  0  0  0
   58.3910   22.5595   44.1589 H   0  0  0  0  0  0  0  0  0  0  0  0
   55.4190   26.7770   46.5260 H   0  0  0  0  0  0  0  0  0  0  0  0
   58.9821   26.9706   46.4672 H   0  0  0  0  0  0  0  0  0  0  0  0
   60.3255   29.0250   46.0528 H   0  0  0  0  0  0  0  0  0  0  0  0
   59.2441   31.0651   45.1196 H   0  0  0  0  0  0  0  0  0  0  0  0
   56.6705   31.4006   43.3497 H   0  0  0  0  0  0  0  0  0  0  0  0
   55.5883   31.4516   44.7878 H   0  0  0  0  0  0  0  0  0  0  0  0
   56.6011   32.7398   47.0152 H   0  0  0  0  0  0  0  0  0  0  0  0
   58.1878   34.7709   47.4048 H   0  0  0  0  0  0  0  0  0  0  0  0
   59.6345   35.3699   45.2861 H   0  0  0  0  0  0  0  0  0  0  0  0
  1  2  1  0
  2  3  2  0
  2  4  1  0
  4  5  1  0
  5  6  1  0
  5  7  2  0
  7  8  1  0
  8  9  1  0
  9 10  1  0
 10 11  1  0
 11 12  2  0
 12 13  1  0
 13 14  2  0
 14 15  1  0
 15 16  1  0
 16 17  1  0
 17 18  2  0
 18 19  1  0
 19 20  2  0
 20 21  1  0
 15 22  2  0
 22 23  1  0
  9  4  2  0
 22 11  1  0
 21 17  1  0
  1 24  1  0
  6 25  1  0
  7 26  1  0
 10 27  1  0
 12 28  1  0
 13 29  1  0
 14 30  1  0
 16 31  1  0
 16 32  1  0
 18 33  1  0
 19 34  1  0
 20 35  1  0
M  CHG  2   1  -1  23  -1
M  END
>  <UniqueID>  (80) 
77

>  <SMILES>  (80) 
[NH-]C(=O)c1c(O)csc1Nc1cccc(Cc2cccs2)c1[O-]

>  <Energy>  (80) 
96.2199667551901

>  <Genealogy>  (80) 
[NH-]C(=O)c1c(O)csc1Nc1cccc(Cc2cccs2)c1[O-] (protonated)
[NH-]C(=O)c1c(O)csc1Nc1cccc(Cc2cccs2)c1[O-] (3D coordinates assigned)
[NH-]C(=O)c1c(O)csc1Nc1cccc(Cc2cccs2)c1[O-] (optimized conformer: 96.2199667551901 kcal/mol)

>  <smiles>  (80) 
NC(=O)c1c(O)csc1Nc1cccc(Cc2cccs2)c1O

>  <score_type>  (80) 
oracle

>  <origin>  (80) 
adg

>  <m_score__min__energy>  (80) 
-14.57

>  <m_primary>  (80) 
energy

$$$$
80:0
     RDKit          3D

 43 45  0  0  0  0  0  0  0  0999 V2000
   54.4540   23.7490   46.4750 N   0  0  0  0  0  0  0  0  0  0  0  0
   55.8310   23.9410   46.8120 C   0  0  0  0  0  0  0  0  0  0  0  0
   56.4360   23.0330   47.4440 O   0  0  0  0  0  0  0  0  0  0  0  0
   56.5500   25.1830   46.4300 C   0  0  0  0  0  0  0  0  0  0  0  0
   57.9550   25.2200   46.4640 C   0  0  0  0  0  0  0  0  0  0  0  0
   58.6410   26.3820   46.1090 C   0  0  0  0  0  0  0  0  0  0  0  0
   57.9400   27.5180   45.7030 C   0  0  0  0  0  0  0  0  0  0  0  0
   56.5370   27.4940   45.6330 C   0  0  0  0  0  0  0  0  0  0  0  0
   55.7820   28.6530   45.2440 N   0  0  0  0  0  0  0  0  0  0  0  0
   56.3110   29.9330   44.8700 C   0  0  0  0  0  0  0  0  0  0  0  0
   55.7080   30.6520   44.0300 O   0  0  0  0  0  0  0  0  0  0  0  0
   57.4660   30.4590   45.5290 N   0  0  0  0  0  0  0  0  0  0  0  0
   57.8320   31.8440   45.6110 C   0  0  0  0  0  0  0  0  0  0  0  0
   57.1630   32.8230   44.8510 C   0  0  0  0  0  0  0  0  0  0  0  0
   57.4980   34.1720   44.9860 C   0  0  0  0  0  0  0  0  0  0  0  0
   58.4870   34.5620   45.8890 C   0  0  0  0  0  0  0  0  0  0  0  0
   59.1410   33.6030   46.6660 C   0  0  0  0  0  0  0  0  0  0  0  0
   58.8180   32.2450   46.5340 C   0  0  0  0  0  0  0  0  0  0  0  0
   59.5060   31.2720   47.3360 N   0  0  0  0  0  0  0  0  0  0  0  0
   58.9370   30.8960   48.6370 C   0  0  0  0  0  0  0  0  0  0  0  0
   59.8180   29.8880   49.3770 C   0  0  0  0  0  0  0  0  0  0  0  0
   60.0520   28.3510   48.4090 S   0  0  0  0  0  0  0  0  0  0  0  0
   60.4290   29.0750   46.7630 C   0  0  0  0  0  0  0  0  0  0  0  0
   60.6770   30.5800   46.7900 C   0  0  0  0  0  0  0  0  0  0  0  0
   55.8440   26.3340   46.0160 C   0  0  0  0  0  0  0  0  0  0  0  0
   54.4530   26.3390   45.9920 O   0  0  0  0  0  0  0  0  0  0  0  0
   53.9500   24.4090   45.8450 H   0  0  0  0  0  0  0  0  0  0  0  0
   53.9520   22.8920   46.7990 H   0  0  0  0  0  0  0  0  0  0  0  0
   58.5175   24.3265   46.7727 H   0  0  0  0  0  0  0  0  0  0  0  0
   59.7401   26.4026   46.1494 H   0  0  0  0  0  0  0  0  0  0  0  0
   58.4871   28.4345   45.4371 H   0  0  0  0  0  0  0  0  0  0  0  0
   56.3724   32.5234   44.1473 H   0  0  0  0  0  0  0  0  0  0  0  0
   56.9805   34.9291   44.3785 H   0  0  0  0  0  0  0  0  0  0  0  0
   58.7519   35.6249   45.9892 H   0  0  0  0  0  0  0  0  0  0  0  0
   59.9131   33.9147   47.3849 H   0  0  0  0  0  0  0  0  0  0  0  0
   58.8355   31.8002   49.2551 H   0  0  0  0  0  0  0  0  0  0  0  0
   57.9590   30.4255   48.4574 H   0  0  0  0  0  0  0  0  0  0  0  0
   60.8013   30.3443   49.5641 H   0  0  0  0  0  0  0  0  0  0  0  0
   59.3184   29.6251   50.3211 H   0  0  0  0  0  0  0  0  0  0  0  0
   61.3294   28.5830   46.3666 H   0  0  0  0  0  0  0  0  0  0  0  0
   59.5435   28.9093   46.1317 H   0  0  0  0  0  0  0  0  0  0  0  0
   61.5528   30.7935   47.4203 H   0  0  0  0  0  0  0  0  0  0  0  0
   60.8597   30.9340   45.7647 H   0  0  0  0  0  0  0  0  0  0  0  0
  1  2  1  0
  2  3  2  0
  2  4  1  0
  4  5  2  0
  5  6  1  0
  6  7  2  0
  7  8  1  0
  8  9  1  0
  9 10  1  0
 10 11  2  0
 10 12  1  0
 12 13  1  0
 13 14  2  0
 14 15  1  0
 15 16  2  0
 16 17  1  0
 17 18  2  0
 18 19  1  0
 19 20  1  0
 20 21  1  0
 21 22  1  0
 22 23  1  0
 23 24  1  0
  8 25  2  0
 25 26  1  0
 25  4  1  0
 18 13  1  0
 24 19  1  0
  1 27  1  0
  1 28  1  0
  5 29  1  0
  6 30  1  0
  7 31  1  0
 14 32  1  0
 15 33  1  0
 16 34  1  0
 17 35  1  0
 20 36  1  0
 20 37  1  0
 21 38  1  0
 21 39  1  0
 23 40  1  0
 23 41  1  0
 24 42  1  0
 24 43  1  0
M  CHG  3   9  -1  12  -1  26  -1
M  END
>  <UniqueID>  (81) 
78

>  <SMILES>  (81) 
NC(=O)c1cccc([N-]C(=O)[N-]c2ccccc2N2CCSCC2)c1[O-]

>  <Energy>  (81) 
60.08316918900993

>  <Genealogy>  (81) 
NC(=O)c1cccc([N-]C(=O)[N-]c2ccccc2N2CCSCC2)c1[O-] (protonated)
NC(=O)c1cccc([N-]C(=O)[N-]c2ccccc2N2CCSCC2)c1[O-] (3D coordinates assigned)
NC(=O)c1cccc([N-]C(=O)[N-]c2ccccc2N2CCSCC2)c1[O-] (nonaromatic ring conformer: 60.08316918900993 kcal/mol)

>  <smiles>  (81) 
NC(=O)c1cccc(NC(=O)Nc2ccccc2N2CCSCC2)c1O

>  <score_type>  (81) 
oracle

>  <origin>  (81) 
adg

>  <m_score__min__energy>  (81) 
-15.48

>  <m_primary>  (81) 
energy

$$$$
81:0
     RDKit          3D

 37 39  0  0  0  0  0  0  0  0999 V2000
   56.3260   31.2750   44.7320 O   0  0  0  0  0  0  0  0  0  0  0  0
   57.5640   31.2770   44.9710 C   0  0  0  0  0  0  0  0  0  0  0  0
   58.2810   30.0410   44.8460 N   0  0  0  0  0  0  0  0  0  0  0  0
   57.9370   28.7640   45.4070 C   0  0  0  0  0  0  0  0  0  0  0  0
   56.6080   28.2990   45.3930 C   0  0  0  0  0  0  0  0  0  0  0  0
   56.2720   27.0930   46.0130 C   0  0  0  0  0  0  0  0  0  0  0  0
   54.9600   26.6350   45.9770 O   0  0  0  0  0  0  0  0  0  0  0  0
   57.2490   26.3530   46.6790 C   0  0  0  0  0  0  0  0  0  0  0  0
   58.5630   26.8220   46.7350 C   0  0  0  0  0  0  0  0  0  0  0  0
   58.9210   28.0120   46.0920 C   0  0  0  0  0  0  0  0  0  0  0  0
   60.2750   28.4730   46.2170 N   0  0  0  0  0  0  0  0  0  0  0  0
   60.7030   29.6110   46.9750 C   0  0  0  0  0  0  0  0  0  0  0  0
   61.4880   30.4380   46.4450 O   0  0  0  0  0  0  0  0  0  0  0  0
   60.2080   29.8660   48.3380 C   0  0  0  0  0  0  0  0  0  0  0  0
   58.8930   29.8110   48.7590 C   0  0  0  0  0  0  0  0  0  0  0  0
   58.9170   30.1470   50.0960 C   0  0  0  0  0  0  0  0  0  0  0  0
   60.2390   30.3910   50.4070 C   0  0  0  0  0  0  0  0  0  0  0  0
   60.9830   30.2200   49.3380 O   0  0  0  0  0  0  0  0  0  0  0  0
   58.2060   32.5340   45.4280 C   0  0  0  0  0  0  0  0  0  0  0  0
   58.3660   33.6240   44.5580 C   0  0  0  0  0  0  0  0  0  0  0  0
   58.9850   34.7940   44.9940 C   0  0  0  0  0  0  0  0  0  0  0  0
   59.4630   34.8920   46.3020 C   0  0  0  0  0  0  0  0  0  0  0  0
   59.3270   33.8110   47.1910 C   0  0  0  0  0  0  0  0  0  0  0  0
   59.8210   33.9040   48.5400 N   0  0  0  0  0  0  0  0  0  0  0  0
   59.1800   33.4070   49.4880 O   0  0  0  0  0  0  0  0  0  0  0  0
   61.0090   34.5440   48.8080 O   0  0  0  0  0  0  0  0  0  0  0  0
   58.7010   32.6340   46.7420 C   0  0  0  0  0  0  0  0  0  0  0  0
   55.8283   28.8899   44.8900 H   0  0  0  0  0  0  0  0  0  0  0  0
   56.9843   25.3999   47.1601 H   0  0  0  0  0  0  0  0  0  0  0  0
   59.3228   26.2513   47.2891 H   0  0  0  0  0  0  0  0  0  0  0  0
   58.0113   29.5531   48.1539 H   0  0  0  0  0  0  0  0  0  0  0  0
   58.0557   30.2082   50.7775 H   0  0  0  0  0  0  0  0  0  0  0  0
   60.6129   30.6841   51.3991 H   0  0  0  0  0  0  0  0  0  0  0  0
   57.9996   33.5540   43.5232 H   0  0  0  0  0  0  0  0  0  0  0  0
   59.0974   35.6438   44.3047 H   0  0  0  0  0  0  0  0  0  0  0  0
   59.9486   35.8197   46.6390 H   0  0  0  0  0  0  0  0  0  0  0  0
   58.5968   31.7798   47.4272 H   0  0  0  0  0  0  0  0  0  0  0  0
  1  2  2  0
  2  3  1  0
  3  4  1  0
  4  5  2  0
  5  6  1  0
  6  7  1  0
  6  8  2  0
  8  9  1  0
  9 10  2  0
 10 11  1  0
 11 12  1  0
 12 13  2  0
 12 14  1  0
 14 15  2  0
 15 16  1  0
 16 17  2  0
 17 18  1  0
  2 19  1  0
 19 20  2  0
 20 21  1  0
 21 22  2  0
 22 23  1  0
 23 24  1  0
 24 25  2  0
 24 26  1  0
 23 27  2  0
 10  4  1  0
 18 14  1  0
 27 19  1  0
  5 28  1  0
  8 29  1  0
  9 30  1  0
 15 31  1  0
 16 32  1  0
 17 33  1  0
 20 34  1  0
 21 35  1  0
 22 36  1  0
 27 37  1  0
M  CHG  5   3  -1   7  -1  11  -1  24   1  26  -1
M  END
>  <UniqueID>  (82) 
79

>  <SMILES>  (82) 
O=C([N-]c1cc([O-])ccc1[N-]C(=O)c1ccco1)c1cccc([N+](=O)[O-])c1

>  <Energy>  (82) 
79.96049436417977

>  <Genealogy>  (82) 
O=C([N-]c1cc([O-])ccc1[N-]C(=O)c1ccco1)c1cccc([N+](=O)[O-])c1 (protonated)
O=C([N-]c1cc([O-])ccc1[N-]C(=O)c1ccco1)c1cccc([N+](=O)[O-])c1 (3D coordinates assigned)
O=C([N-]c1cc([O-])ccc1[N-]C(=O)c1ccco1)c1cccc([N+](=O)[O-])c1 (optimized conformer: 79.96049436417977 kcal/mol)

>  <smiles>  (82) 
O=C(Nc1cc(O)ccc1NC(=O)c1ccco1)c1cccc([N+](=O)[O-])c1

>  <score_type>  (82) 
oracle

>  <origin>  (82) 
adg

>  <m_score__min__energy>  (82) 
-14.08

>  <m_primary>  (82) 
energy

$$$$
82:0
     RDKit          3D

 31 33  0  0  1  0  0  0  0  0999 V2000
   58.2830   34.6340   46.1120 O   0  0  0  0  0  0  0  0  0  0  0  0
   59.0570   33.6380   45.8460 C   0  0  0  0  0  0  0  0  0  0  0  0
   60.4290   33.9290   45.8220 N   0  0  0  0  0  0  0  0  0  0  0  0
   61.3560   33.3670   46.5040 C   0  0  0  0  0  0  0  0  0  0  0  0
   62.6460   33.8200   46.6470 C   0  0  0  0  0  0  0  0  0  0  0  0
   63.2650   32.9090   47.4720 C   0  0  0  0  0  0  0  0  0  0  0  0
   62.3590   31.9780   47.7860 N   0  0  0  0  0  0  0  0  0  0  0  0
   61.1910   32.2290   47.2110 N   0  0  0  0  0  0  0  0  0  0  0  0
   58.4060   32.3830   45.6170 C   0  0  0  0  0  0  0  0  0  0  0  0
   57.2340   32.1210   44.9620 N   0  0  0  0  0  0  0  0  0  0  0  0
   57.0260   30.8400   44.9690 O   0  0  0  0  0  0  0  0  0  0  0  0
   58.0020   30.2490   45.5960 C   0  0  0  0  0  0  0  0  0  0  0  0
   58.1520   28.7970   45.8240 C   0  0  0  0  0  0  0  0  0  0  0  0
   59.4110   28.2010   45.8790 C   0  0  0  0  0  0  0  0  0  0  0  0
   59.5060   26.8170   46.0830 C   0  0  0  0  0  0  0  0  0  0  0  0
   58.3390   26.0570   46.2270 C   0  0  0  0  0  0  0  0  0  0  0  0
   58.4600   24.6900   46.4280 O   0  0  0  0  0  0  0  0  0  0  0  0
   57.0880   26.6430   46.1740 C   0  0  0  0  0  0  0  0  0  0  0  0
   55.9240   25.8230   46.3200 N   0  0  0  0  0  0  0  0  0  0  0  0
   54.8310   26.3100   45.9850 O   0  0  0  0  0  0  0  0  0  0  0  0
   55.9660   24.5600   46.8070 O   0  0  0  0  0  0  0  0  0  0  0  0
   57.0270   28.0030   45.9720 C   0  0  0  0  0  0  0  0  0  0  0  0
   58.8990   31.1750   46.0260 N   0  0  0  0  0  0  0  0  0  0  0  0
   63.0897   34.7204   46.1971 H   0  0  0  0  0  0  0  0  0  0  0  0
   64.3112   32.9411   47.8102 H   0  0  0  0  0  0  0  0  0  0  0  0
   62.5200   31.1470   48.4010 H   0  0  0  0  0  0  0  0  0  0  0  0
   60.3310   31.6370   47.3090 H   0  0  0  0  0  0  0  0  0  0  0  0
   60.3199   28.8097   45.7636 H   0  0  0  0  0  0  0  0  0  0  0  0
   60.4918   26.3311   46.1296 H   0  0  0  0  0  0  0  0  0  0  0  0
   57.5980   24.1650   46.5160 H   0  0  0  0  0  0  0  0  0  0  0  0
   56.0378   28.4820   45.9259 H   0  0  0  0  0  0  0  0  0  0  0  0
  1  2  2  0
  2  3  1  0
  3  4  2  0
  4  5  1  0
  5  6  2  0
  6  7  1  0
  7  8  1  0
  2  9  1  0
  9 10  2  0
 10 11  1  0
 11 12  1  0
 12 13  1  0
 13 14  2  0
 14 15  1  0
 15 16  2  0
 16 17  1  0
 16 18  1  0
 18 19  1  0
 19 20  2  0
 19 21  1  0
 18 22  2  0
 12 23  2  0
  8  4  1  0
 23  9  1  0
 22 13  1  0
  5 24  1  0
  6 25  1  0
  7 26  1  0
  8 27  1  0
 14 28  1  0
 15 29  1  0
 17 30  1  0
 22 31  1  0
M  CHG  2  19   1  21  -1
M  END
>  <smiles>  (83) 
O=C(N=c1cc[nH][nH]1)c1noc(-c2ccc(O)c([N+](=O)[O-])c2)n1

>  <score_type>  (83) 
oracle

>  <origin>  (83) 
adg

>  <m_score__min__energy>  (83) 
-7.6900000000000004

>  <m_primary>  (83) 
energy

$$$$
83:0
     RDKit          3D

 53 56  0  0  0  0  0  0  0  0999 V2000
   59.6939   27.1888   46.0952 H   0  0  0  0  0  0  0  0  0  0  0  0
   58.6090   27.0070   46.0900 C   0  0  0  0  0  0  0  0  0  0  0  0
   57.7660   27.9420   45.5790 N   0  0  0  0  0  0  0  0  0  0  0  0
   56.4140   27.7800   45.5510 C   0  0  0  0  0  0  0  0  0  0  0  0
   55.7020   28.7510   45.0440 N   0  0  0  0  0  0  0  0  0  0  0  0
   56.0660   29.7670   44.0980 C   0  0  0  0  0  0  0  0  0  0  0  0
   55.9710   29.5470   42.8620 O   0  0  0  0  0  0  0  0  0  0  0  0
   56.2550   31.1150   44.5390 N   0  0  0  0  0  0  0  0  0  0  0  0
   57.3660   31.7770   44.7070 C   0  0  0  0  0  0  0  0  0  0  0  0
   57.9510   31.9560   45.9390 C   0  0  0  0  0  0  0  0  0  0  0  0
   57.6006   31.5815   46.9121 H   0  0  0  0  0  0  0  0  0  0  0  0
   59.0820   32.7150   45.6780 C   0  0  0  0  0  0  0  0  0  0  0  0
   60.1350   33.1360   46.7110 C   0  0  2  0  0  0  0  0  0  0  0  0
   61.2460   32.0250   46.8270 C   0  0  0  0  0  0  0  0  0  0  0  0
   61.8484   32.2462   47.7204 H   0  0  0  0  0  0  0  0  0  0  0  0
   61.8030   32.0689   45.8795 H   0  0  0  0  0  0  0  0  0  0  0  0
   60.7500   30.5670   46.9440 C   0  0  0  0  0  0  0  0  0  0  0  0
   61.5095   29.9916   47.4937 H   0  0  0  0  0  0  0  0  0  0  0  0
   60.5930   30.2129   45.9144 H   0  0  0  0  0  0  0  0  0  0  0  0
   59.3990   30.3920   47.6700 C   0  0  0  0  0  0  0  0  0  0  0  0
   59.2725   29.3267   47.9132 H   0  0  0  0  0  0  0  0  0  0  0  0
   58.6208   30.7663   46.9886 H   0  0  0  0  0  0  0  0  0  0  0  0
   59.2830   31.1720   48.9220 N   0  0  0  0  0  0  0  0  0  0  0  0
   60.6200   31.3920   49.4970 C   0  0  0  0  0  0  0  0  0  0  0  0
   60.5533   31.3810   50.5949 H   0  0  0  0  0  0  0  0  0  0  0  0
   61.2988   30.5935   49.1629 H   0  0  0  0  0  0  0  0  0  0  0  0
   61.0071   32.3659   49.1629 H   0  0  0  0  0  0  0  0  0  0  0  0
   58.5910   32.4670   48.7340 C   0  0  0  0  0  0  0  0  0  0  0  0
   58.2587   32.8401   49.7140 H   0  0  0  0  0  0  0  0  0  0  0  0
   57.7332   32.3055   48.0646 H   0  0  0  0  0  0  0  0  0  0  0  0
   59.5240   33.5220   48.0830 C   0  0  2  0  0  0  0  0  0  0  0  0
   60.3115   33.5581   48.8502 H   0  0  0  0  0  0  0  0  0  0  0  0
   58.8930   34.9000   47.8710 C   0  0  0  0  0  0  0  0  0  0  0  0
   58.9527   35.4974   48.7927 H   0  0  0  0  0  0  0  0  0  0  0  0
   57.8273   34.8280   47.6080 H   0  0  0  0  0  0  0  0  0  0  0  0
   59.7150   35.5510   46.7550 C   0  0  0  0  0  0  0  0  0  0  0  0
   60.2557   36.4263   47.1443 H   0  0  0  0  0  0  0  0  0  0  0  0
   59.0661   35.8948   45.9360 H   0  0  0  0  0  0  0  0  0  0  0  0
   60.7090   34.4930   46.2620 C   0  0  0  0  0  0  0  0  0  0  0  0
   61.6989   34.6581   46.7125 H   0  0  0  0  0  0  0  0  0  0  0  0
   60.8383   34.5366   45.1705 H   0  0  0  0  0  0  0  0  0  0  0  0
   59.1500   32.9700   44.3530 N   0  0  0  0  0  0  0  0  0  0  0  0
   58.1010   32.4190   43.7630 N   0  0  0  0  0  0  0  0  0  0  0  0
   57.8280   32.6280   42.3450 C   0  0  0  0  0  0  0  0  0  0  0  0
   56.9591   33.2932   42.2330 H   0  0  0  0  0  0  0  0  0  0  0  0
   58.7055   33.0873   41.8665 H   0  0  0  0  0  0  0  0  0  0  0  0
   57.6136   31.6610   41.8665 H   0  0  0  0  0  0  0  0  0  0  0  0
   55.8680   26.5570   46.0270 C   0  0  0  0  0  0  0  0  0  0  0  0
   54.5190   26.2470   45.9220 O   0  0  0  0  0  0  0  0  0  0  0  0
   56.7260   25.5950   46.5710 C   0  0  0  0  0  0  0  0  0  0  0  0
   56.3134   24.6575   46.9721 H   0  0  0  0  0  0  0  0  0  0  0  0
   58.1000   25.8190   46.6070 C   0  0  0  0  0  0  0  0  0  0  0  0
   58.7753   25.0658   47.0390 H   0  0  0  0  0  0  0  0  0  0  0  0
  1  2  1  0
  2  3  1  0
  3  4  1  0
  4  5  2  3
  5  6  1  0
  6  7  2  0
  6  8  1  0
  8  9  2  0
  9 10  1  0
 10 11  1  0
 10 12  2  0
 13 12  1  6
 13 14  1  0
 14 15  1  0
 14 16  1  0
 14 17  1  0
 17 18  1  0
 17 19  1  0
 17 20  1  0
 20 21  1  0
 20 22  1  0
 20 23  1  0
 23 24  1  0
 24 25  1  0
 24 26  1  0
 24 27  1  0
 23 28  1  0
 28 29  1  0
 28 30  1  0
 28 31  1  0
 31 32  1  1
 31 33  1  0
 33 34  1  0
 33 35  1  0
 33 36  1  0
 36 37  1  0
 36 38  1  0
 36 39  1  0
 39 40  1  0
 39 41  1  0
 12 42  1  0
 42 43  1  0
 43 44  1  0
 44 45  1  0
 44 46  1  0
 44 47  1  0
  4 48  1  0
 48 49  1  0
 48 50  2  0
 50 51  1  0
 50 52  1  0
 52 53  1  0
 52  2  2  0
 43  9  1  0
 31 13  1  0
 39 13  1  0
M  CHG  3   3  -1  42  -1  49  -1
M  END
>  <UniqueID>  (84) 
80

>  <SMILES>  (84) 
CN1CCC[C@]2(c3c/c(=N/C(=O)N=c4[n-]cccc4[O-])n(C)[n-]3)CCC[C@H]2C1

>  <Energy>  (84) 
130.76747573006568

>  <Genealogy>  (84) 
CN1CCCC2(c3cc(=NC(=O)N=c4[n-]cccc4[O-])n(C)[n-]3)CCCC2C1 (protonated)
CN1CCC[C@]2(c3cc(=NC(=O)N=c4[n-]cccc4[O-])n(C)[n-]3)CCC[C@H]2C1 (chirality)
CN1CCC[C@]2(c3c/c(=N/C(=O)N=c4[n-]cccc4[O-])n(C)[n-]3)CCC[C@H]2C1 (cis-trans isomerization)
CN1CCC[C@]2(c3c/c(=N/C(=O)N=c4[n-]cccc4[O-])n(C)[n-]3)CCC[C@H]2C1 (3D coordinates assigned)
CN1CCC[C@]2(c3c/c(=N/C(=O)N=c4[n-]cccc4[O-])n(C)[n-]3)CCC[C@H]2C1 (nonaromatic ring conformer: 130.76747573006568 kcal/mol)

>  <smiles>  (84) 
CN1CCCC2(c3cc(=NC(=O)N=c4[nH]cccc4O)n(C)[nH]3)CCCC2C1

>  <score_type>  (84) 
oracle

>  <origin>  (84) 
adg

>  <m_score__min__energy>  (84) 
-12.859999999999999

>  <m_primary>  (84) 
energy

$$$$
84:0
     RDKit          3D

 56 59  0  0  0  0  0  0  0  0999 V2000
   53.9710   24.8430   45.6180 C   0  0  0  0  0  0  0  0  0  0  0  0
   54.6260   26.0520   45.9880 O   0  0  0  0  0  0  0  0  0  0  0  0
   56.0190   26.2140   46.0720 C   0  0  0  0  0  0  0  0  0  0  0  0
   56.6510   27.4000   45.6490 C   0  0  0  0  0  0  0  0  0  0  0  0
   58.0420   27.5570   45.7850 C   0  0  0  0  0  0  0  0  0  0  0  0
   58.7050   28.7620   45.3810 N   0  0  0  0  0  0  0  0  0  0  0  0
   58.0730   29.9370   44.8560 C   0  0  0  0  0  0  0  0  0  0  0  0
   57.6090   29.9050   43.6860 O   0  0  0  0  0  0  0  0  0  0  0  0
   57.9120   31.1130   45.6650 N   0  0  0  0  0  0  0  0  0  0  0  0
   57.3020   32.3380   45.1540 C   0  0  0  0  0  0  0  0  0  0  0  0
   58.1040   33.5310   45.5940 C   0  0  0  0  0  0  0  0  0  0  0  0
   58.5090   34.4910   44.6540 C   0  0  0  0  0  0  0  0  0  0  0  0
   59.2910   35.5770   45.0500 C   0  0  0  0  0  0  0  0  0  0  0  0
   59.6780   35.7140   46.3860 C   0  0  0  0  0  0  0  0  0  0  0  0
   59.2740   34.7710   47.3390 C   0  0  0  0  0  0  0  0  0  0  0  0
   59.7060   34.9260   48.6970 N   0  0  0  0  0  0  0  0  0  0  0  0
   60.7400   34.1730   49.3440 C   0  0  0  0  0  0  0  0  0  0  0  0
   60.7810   34.1560   50.6020 O   0  0  0  0  0  0  0  0  0  0  0  0
   61.7100   33.3640   48.5790 C   0  0  0  0  0  0  0  0  0  0  0  0
   61.4790   32.0900   48.0720 C   0  0  0  0  0  0  0  0  0  0  0  0
   62.5600   31.5760   47.3460 C   0  0  0  0  0  0  0  0  0  0  0  0
   63.6410   32.4440   47.2640 C   0  0  0  0  0  0  0  0  0  0  0  0
   63.2480   33.8520   48.0950 S   0  0  0  0  0  0  0  0  0  0  0  0
   58.5090   33.6620   46.9320 C   0  0  0  0  0  0  0  0  0  0  0  0
   58.7880   26.5510   46.4040 C   0  0  0  0  0  0  0  0  0  0  0  0
   58.1720   25.3710   46.8210 C   0  0  0  0  0  0  0  0  0  0  0  0
   56.7990   25.1770   46.6250 C   0  0  0  0  0  0  0  0  0  0  0  0
   56.2160   23.9410   47.0610 N   0  0  0  0  0  0  0  0  0  0  0  0
   56.6040   22.6380   46.6060 C   0  0  0  0  0  0  0  0  0  0  0  0
   56.9050   21.7440   47.4440 O   0  0  0  0  0  0  0  0  0  0  0  0
   56.6020   22.3250   45.1580 C   0  0  0  0  0  0  0  0  0  0  0  0
   57.3450   21.2410   44.6600 C   0  0  0  0  0  0  0  0  0  0  0  0
   57.3290   20.9610   43.2910 C   0  0  0  0  0  0  0  0  0  0  0  0
   56.5990   21.7330   42.4440 N   0  0  0  0  0  0  0  0  0  0  0  0
   55.8710   22.7900   42.8930 C   0  0  0  0  0  0  0  0  0  0  0  0
   55.8590   23.1050   44.2540 C   0  0  0  0  0  0  0  0  0  0  0  0
   53.6740   24.2947   46.5242 H   0  0  0  0  0  0  0  0  0  0  0  0
   53.0768   25.0780   45.0220 H   0  0  0  0  0  0  0  0  0  0  0  0
   54.6562   24.2223   45.0220 H   0  0  0  0  0  0  0  0  0  0  0  0
   56.0513   28.2102   45.2086 H   0  0  0  0  0  0  0  0  0  0  0  0
   58.1010   31.0560   46.6900 H   0  0  0  0  0  0  0  0  0  0  0  0
   57.2757   32.3014   44.0549 H   0  0  0  0  0  0  0  0  0  0  0  0
   56.2785   32.4245   45.5477 H   0  0  0  0  0  0  0  0  0  0  0  0
   58.2089   34.3871   43.6008 H   0  0  0  0  0  0  0  0  0  0  0  0
   59.6036   36.3271   44.3087 H   0  0  0  0  0  0  0  0  0  0  0  0
   60.3029   36.5666   46.6902 H   0  0  0  0  0  0  0  0  0  0  0  0
   60.5390   31.5399   48.2263 H   0  0  0  0  0  0  0  0  0  0  0  0
   62.5538   30.5779   46.8837 H   0  0  0  0  0  0  0  0  0  0  0  0
   64.5903   32.2449   46.7451 H   0  0  0  0  0  0  0  0  0  0  0  0
   58.2267   32.8933   47.6665 H   0  0  0  0  0  0  0  0  0  0  0  0
   59.8674   26.6902   46.5635 H   0  0  0  0  0  0  0  0  0  0  0  0
   58.7697   24.5863   47.3079 H   0  0  0  0  0  0  0  0  0  0  0  0
   57.9366   20.6157   45.3448 H   0  0  0  0  0  0  0  0  0  0  0  0
   57.9091   20.1131   42.8979 H   0  0  0  0  0  0  0  0  0  0  0  0
   55.2906   23.3980   42.1835 H   0  0  0  0  0  0  0  0  0  0  0  0
   55.2704   23.9603   44.6173 H   0  0  0  0  0  0  0  0  0  0  0  0
  1  2  1  0
  2  3  1  0
  3  4  2  0
  4  5  1  0
  5  6  1  0
  6  7  1  0
  7  8  2  0
  7  9  1  0
  9 10  1  0
 10 11  1  0
 11 12  2  0
 12 13  1  0
 13 14  2  0
 14 15  1  0
 15 16  1  0
 16 17  1  0
 17 18  2  0
 17 19  1  0
 19 20  2  0
 20 21  1  0
 21 22  2  0
 22 23  1  0
 15 24  2  0
  5 25  2  0
 25 26  1  0
 26 27  2  0
 27 28  1  0
 28 29  1  0
 29 30  2  0
 29 31  1  0
 31 32  2  0
 32 33  1  0
 33 34  2  0
 34 35  1  0
 35 36  2  0
 27  3  1  0
 36 31  1  0
 24 11  1  0
 23 19  1  0
  1 37  1  0
  1 38  1  0
  1 39  1  0
  4 40  1  0
  9 41  1  0
 10 42  1  0
 10 43  1  0
 12 44  1  0
 13 45  1  0
 14 46  1  0
 20 47  1  0
 21 48  1  0
 22 49  1  0
 24 50  1  0
 25 51  1  0
 26 52  1  0
 32 53  1  0
 33 54  1  0
 35 55  1  0
 36 56  1  0
M  CHG  3   6  -1  16  -1  28  -1
M  END
>  <UniqueID>  (85) 
81

>  <SMILES>  (85) 
COc1cc([N-]C(=O)NCc2cccc([N-]C(=O)c3cccs3)c2)ccc1[N-]C(=O)c1ccncc1

>  <Energy>  (85) 
99.67659575116735

>  <Genealogy>  (85) 
COc1cc([N-]C(=O)NCc2cccc([N-]C(=O)c3cccs3)c2)ccc1[N-]C(=O)c1ccncc1 (protonated)
COc1cc([N-]C(=O)NCc2cccc([N-]C(=O)c3cccs3)c2)ccc1[N-]C(=O)c1ccncc1 (3D coordinates assigned)
COc1cc([N-]C(=O)NCc2cccc([N-]C(=O)c3cccs3)c2)ccc1[N-]C(=O)c1ccncc1 (optimized conformer: 99.67659575116735 kcal/mol)

>  <smiles>  (85) 
COc1cc(NC(=O)NCc2cccc(NC(=O)c3cccs3)c2)ccc1NC(=O)c1ccncc1

>  <score_type>  (85) 
oracle

>  <origin>  (85) 
adg

>  <m_score__min__energy>  (85) 
-13.94

>  <m_primary>  (85) 
energy

$$$$
85:0
     RDKit          3D

 55 56  0  0  0  0  0  0  0  0999 V2000
   57.3130   31.3000   44.3130 C   0  0  0  0  0  0  0  0  0  0  0  0
   57.4020   31.8480   45.6230 O   0  0  0  0  0  0  0  0  0  0  0  0
   58.1770   32.9680   45.9680 C   0  0  0  0  0  0  0  0  0  0  0  0
   58.6590   33.8650   44.9920 C   0  0  0  0  0  0  0  0  0  0  0  0
   59.3710   35.0060   45.3690 C   0  0  0  0  0  0  0  0  0  0  0  0
   59.6120   35.2670   46.7170 C   0  0  0  0  0  0  0  0  0  0  0  0
   59.1520   34.3810   47.6930 C   0  0  0  0  0  0  0  0  0  0  0  0
   58.4580   33.2200   47.3290 C   0  0  0  0  0  0  0  0  0  0  0  0
   58.0060   32.3440   48.3700 N   0  0  0  0  0  0  0  0  0  0  0  0
   58.8520   31.5380   49.1990 C   0  0  0  0  0  0  0  0  0  0  0  0
   58.7770   31.6090   50.4550 O   0  0  0  0  0  0  0  0  0  0  0  0
   59.8020   30.5600   48.5610 C   0  0  0  0  0  0  0  0  0  0  0  0
   60.0300   30.7940   47.1130 N   0  0  1  0  0  0  0  0  0  0  0  0
   61.1830   31.6800   46.8090 C   0  0  0  0  0  0  0  0  0  0  0  0
   62.1600   31.8790   47.9900 C   0  0  0  0  0  0  0  0  0  0  0  0
   63.4410   32.6780   47.6160 C   0  0  0  0  0  0  0  0  0  0  0  0
   63.1220   33.8420   46.6670 C   0  0  0  0  0  0  0  0  0  0  0  0
   64.1330   33.2210   48.8740 C   0  0  0  0  0  0  0  0  0  0  0  0
   60.1640   29.5310   46.4130 C   0  0  0  0  0  0  0  0  0  0  0  0
   61.1490   29.3310   45.6480 O   0  0  0  0  0  0  0  0  0  0  0  0
   59.2390   28.4070   46.6660 C   0  0  0  0  0  0  0  0  0  0  0  0
   58.0710   28.1730   45.9690 C   0  0  0  0  0  0  0  0  0  0  0  0
   57.5270   27.0360   46.5290 C   0  0  0  0  0  0  0  0  0  0  0  0
   56.2760   26.3540   46.0840 C   0  0  0  0  0  0  0  0  0  0  0  0
   58.2870   26.6010   47.5080 O   0  0  0  0  0  0  0  0  0  0  0  0
   59.3160   27.4080   47.6300 C   0  0  0  0  0  0  0  0  0  0  0  0
   60.3660   27.2340   48.6790 C   0  0  0  0  0  0  0  0  0  0  0  0
   57.1370   30.2162   44.3801 H   0  0  0  0  0  0  0  0  0  0  0  0
   56.4801   31.7740   43.7731 H   0  0  0  0  0  0  0  0  0  0  0  0
   58.2531   31.4861   43.7731 H   0  0  0  0  0  0  0  0  0  0  0  0
   58.4729   33.6646   43.9265 H   0  0  0  0  0  0  0  0  0  0  0  0
   59.7423   35.7001   44.6006 H   0  0  0  0  0  0  0  0  0  0  0  0
   60.1647   36.1712   47.0118 H   0  0  0  0  0  0  0  0  0  0  0  0
   59.3360   34.5963   48.7559 H   0  0  0  0  0  0  0  0  0  0  0  0
   60.7698   30.6304   49.0790 H   0  0  0  0  0  0  0  0  0  0  0  0
   59.3424   29.5649   48.6532 H   0  0  0  0  0  0  0  0  0  0  0  0
   59.1730   31.2630   46.7550 H   0  0  0  0  0  0  0  0  0  0  0  0
   61.7422   31.2419   45.9691 H   0  0  0  0  0  0  0  0  0  0  0  0
   60.7662   32.6705   46.5742 H   0  0  0  0  0  0  0  0  0  0  0  0
   61.6331   32.4220   48.7885 H   0  0  0  0  0  0  0  0  0  0  0  0
   62.4875   30.8780   48.3075 H   0  0  0  0  0  0  0  0  0  0  0  0
   64.1179   31.9806   47.1008 H   0  0  0  0  0  0  0  0  0  0  0  0
   62.8764   34.7382   47.2556 H   0  0  0  0  0  0  0  0  0  0  0  0
   63.9967   34.0483   46.0327 H   0  0  0  0  0  0  0  0  0  0  0  0
   62.2643   33.5735   46.0327 H   0  0  0  0  0  0  0  0  0  0  0  0
   63.6296   32.8260   49.7688 H   0  0  0  0  0  0  0  0  0  0  0  0
   65.1871   32.9065   48.8774 H   0  0  0  0  0  0  0  0  0  0  0  0
   64.0782   34.3196   48.8774 H   0  0  0  0  0  0  0  0  0  0  0  0
   57.6600   28.7685   45.1405 H   0  0  0  0  0  0  0  0  0  0  0  0
   55.6973   26.0385   46.9646 H   0  0  0  0  0  0  0  0  0  0  0  0
   55.6745   27.0490   45.4797 H   0  0  0  0  0  0  0  0  0  0  0  0
   56.5343   25.4719   45.4797 H   0  0  0  0  0  0  0  0  0  0  0  0
   59.9054   27.3103   49.6750 H   0  0  0  0  0  0  0  0  0  0  0  0
   60.8359   26.2457   48.5671 H   0  0  0  0  0  0  0  0  0  0  0  0
   61.1296   28.0179   48.5671 H   0  0  0  0  0  0  0  0  0  0  0  0
  1  2  1  0
  2  3  1  0
  3  4  2  0
  4  5  1  0
  5  6  2  0
  6  7  1  0
  7  8  2  0
  8  9  1  0
  9 10  1  0
 10 11  2  0
 10 12  1  0
 12 13  1  0
 13 14  1  0
 14 15  1  0
 15 16  1  0
 16 17  1  0
 16 18  1  0
 13 19  1  0
 19 20  2  0
 19 21  1  0
 21 22  1  0
 22 23  2  0
 23 24  1  0
 23 25  1  0
 25 26  1  0
 26 27  1  0
  8  3  1  0
 26 21  2  0
  1 28  1  0
  1 29  1  0
  1 30  1  0
  4 31  1  0
  5 32  1  0
  6 33  1  0
  7 34  1  0
 12 35  1  0
 12 36  1  0
 13 37  1  6
 14 38  1  0
 14 39  1  0
 15 40  1  0
 15 41  1  0
 16 42  1  0
 17 43  1  0
 17 44  1  0
 17 45  1  0
 18 46  1  0
 18 47  1  0
 18 48  1  0
 22 49  1  0
 24 50  1  0
 24 51  1  0
 24 52  1  0
 27 53  1  0
 27 54  1  0
 27 55  1  0
M  CHG  2   9  -1  13   1
M  END
>  <UniqueID>  (86) 
82

>  <SMILES>  (86) 
COc1ccccc1[N-]C(=O)C[N@@H+](CCC(C)C)C(=O)c1cc(C)oc1C

>  <Energy>  (86) 
88.57436432759762

>  <Genealogy>  (86) 
COc1ccccc1[N-]C(=O)C[NH+](CCC(C)C)C(=O)c1cc(C)oc1C (protonated)
COc1ccccc1[N-]C(=O)C[N@@H+](CCC(C)C)C(=O)c1cc(C)oc1C (chirality)
COc1ccccc1[N-]C(=O)C[N@@H+](CCC(C)C)C(=O)c1cc(C)oc1C (3D coordinates assigned)
COc1ccccc1[N-]C(=O)C[N@@H+](CCC(C)C)C(=O)c1cc(C)oc1C (optimized conformer: 88.57436432759762 kcal/mol)

>  <smiles>  (86) 
COc1ccccc1NC(=O)CN(CCC(C)C)C(=O)c1cc(C)oc1C

>  <score_type>  (86) 
oracle

>  <origin>  (86) 
adg

>  <m_score__min__energy>  (86) 
-7.79

>  <m_primary>  (86) 
energy

$$$$
86:0
     RDKit          3D

 30 31  0  0  0  0  0  0  0  0999 V2000
   56.2850   25.4950   47.0480 O   0  0  0  0  0  0  0  0  0  0  0  0
   55.8030   26.3440   46.2530 C   0  0  0  0  0  0  0  0  0  0  0  0
   54.4380   26.3350   45.9920 O   0  0  0  0  0  0  0  0  0  0  0  0
   56.6610   27.3670   45.6320 C   0  0  0  0  0  0  0  0  0  0  0  0
   57.8670   27.0920   45.3980 O   0  0  0  0  0  0  0  0  0  0  0  0
   56.1500   28.6420   45.2190 N   0  0  0  0  0  0  0  0  0  0  0  0
   56.8940   29.8650   45.1280 C   0  0  0  0  0  0  0  0  0  0  0  0
   57.8640   30.1410   46.0980 C   0  0  0  0  0  0  0  0  0  0  0  0
   58.5880   31.3360   46.0540 C   0  0  0  0  0  0  0  0  0  0  0  0
   58.3340   32.2860   45.0490 C   0  0  0  0  0  0  0  0  0  0  0  0
   59.1030   33.5030   44.9840 N   0  0  0  0  0  0  0  0  0  0  0  0
   59.7630   33.7260   46.2460 C   0  0  0  0  0  0  0  0  0  0  0  0
   61.1410   33.4730   46.3830 C   0  0  0  0  0  0  0  0  0  0  0  0
   61.7860   33.7210   47.5990 C   0  0  0  0  0  0  0  0  0  0  0  0
   61.0660   34.2270   48.6840 C   0  0  0  0  0  0  0  0  0  0  0  0
   59.6990   34.4910   48.5540 C   0  0  0  0  0  0  0  0  0  0  0  0
   59.0490   34.2450   47.3410 C   0  0  0  0  0  0  0  0  0  0  0  0
   57.3460   32.0150   44.0880 C   0  0  0  0  0  0  0  0  0  0  0  0
   56.6230   30.8200   44.1320 C   0  0  0  0  0  0  0  0  0  0  0  0
   58.0580   29.4134   46.8998 H   0  0  0  0  0  0  0  0  0  0  0  0
   59.3615   31.5344   46.8106 H   0  0  0  0  0  0  0  0  0  0  0  0
   58.4790   34.3120   44.7560 H   0  0  0  0  0  0  0  0  0  0  0  0
   59.8100   33.4410   44.2140 H   0  0  0  0  0  0  0  0  0  0  0  0
   61.7129   33.0786   45.5301 H   0  0  0  0  0  0  0  0  0  0  0  0
   62.8621   33.5173   47.7012 H   0  0  0  0  0  0  0  0  0  0  0  0
   61.5745   34.4177   49.6406 H   0  0  0  0  0  0  0  0  0  0  0  0
   59.1340   34.8930   49.4079 H   0  0  0  0  0  0  0  0  0  0  0  0
   57.9744   34.4583   47.2425 H   0  0  0  0  0  0  0  0  0  0  0  0
   57.1399   32.7489   43.2949 H   0  0  0  0  0  0  0  0  0  0  0  0
   55.8392   30.6257   43.3850 H   0  0  0  0  0  0  0  0  0  0  0  0
  1  2  2  0
  2  3  1  0
  2  4  1  0
  4  5  2  0
  4  6  1  0
  6  7  1  0
  7  8  2  0
  8  9  1  0
  9 10  2  0
 10 11  1  0
 11 12  1  0
 12 13  2  0
 13 14  1  0
 14 15  2  0
 15 16  1  0
 16 17  2  0
 10 18  1  0
 18 19  2  0
 19  7  1  0
 17 12  1  0
  8 20  1  0
  9 21  1  0
 11 22  1  0
 11 23  1  0
 13 24  1  0
 14 25  1  0
 15 26  1  0
 16 27  1  0
 17 28  1  0
 18 29  1  0
 19 30  1  0
M  CHG  3   3  -1   6  -1  11   1
M  END
>  <UniqueID>  (87) 
83

>  <SMILES>  (87) 
O=C([O-])C(=O)[N-]c1ccc([NH2+]c2ccccc2)cc1

>  <Energy>  (87) 
37.23227378265162

>  <Genealogy>  (87) 
O=C([O-])C(=O)[N-]c1ccc([NH2+]c2ccccc2)cc1 (protonated)
O=C([O-])C(=O)[N-]c1ccc([NH2+]c2ccccc2)cc1 (3D coordinates assigned)
O=C([O-])C(=O)[N-]c1ccc([NH2+]c2ccccc2)cc1 (optimized conformer: 37.23227378265162 kcal/mol)

>  <smiles>  (87) 
O=C(O)C(=O)Nc1ccc(Nc2ccccc2)cc1

>  <score_type>  (87) 
oracle

>  <origin>  (87) 
adg

>  <m_score__min__energy>  (87) 
-9.7200000000000006

>  <m_primary>  (87) 
energy

$$$$
87:0
     RDKit          3D

 26 27  0  0  0  0  0  0  0  0999 V2000
   58.8040   28.2500   46.8470 O   0  0  0  0  0  0  0  0  0  0  0  0
   57.7120   28.3690   46.2320 C   0  0  0  0  0  0  0  0  0  0  0  0
   56.6750   27.4060   46.4750 N   0  0  0  0  0  0  0  0  0  0  0  0
   56.5410   26.1230   45.8470 C   0  0  0  0  0  0  0  0  0  0  0  0
   57.6650   25.3500   45.4990 C   0  0  0  0  0  0  0  0  0  0  0  0
   57.5010   24.0980   44.9010 C   0  0  0  0  0  0  0  0  0  0  0  0
   56.2190   23.5990   44.6590 C   0  0  0  0  0  0  0  0  0  0  0  0
   55.0980   24.3480   45.0240 C   0  0  0  0  0  0  0  0  0  0  0  0
   55.2550   25.6040   45.6220 C   0  0  0  0  0  0  0  0  0  0  0  0
   54.1310   26.3370   45.9840 O   0  0  0  0  0  0  0  0  0  0  0  0
   57.5340   29.4990   45.2950 C   0  0  0  0  0  0  0  0  0  0  0  0
   58.6210   30.3600   45.0640 C   0  0  0  0  0  0  0  0  0  0  0  0
   58.5180   31.4000   44.1380 C   0  0  0  0  0  0  0  0  0  0  0  0
   57.3290   31.5980   43.4360 C   0  0  0  0  0  0  0  0  0  0  0  0
   56.2320   30.7670   43.6740 C   0  0  0  0  0  0  0  0  0  0  0  0
   56.3140   29.7300   44.6120 C   0  0  0  0  0  0  0  0  0  0  0  0
   55.1670   28.9740   44.8600 O   0  0  0  0  0  0  0  0  0  0  0  0
   58.6765   25.7333   45.6987 H   0  0  0  0  0  0  0  0  0  0  0  0
   58.3832   23.5040   44.6202 H   0  0  0  0  0  0  0  0  0  0  0  0
   56.0923   22.6164   44.1811 H   0  0  0  0  0  0  0  0  0  0  0  0
   54.0890   23.9499   44.8411 H   0  0  0  0  0  0  0  0  0  0  0  0
   59.5603   30.2132   45.6172 H   0  0  0  0  0  0  0  0  0  0  0  0
   59.3765   32.0647   43.9617 H   0  0  0  0  0  0  0  0  0  0  0  0
   57.2554   32.4081   42.6955 H   0  0  0  0  0  0  0  0  0  0  0  0
   55.2955   30.9283   43.1200 H   0  0  0  0  0  0  0  0  0  0  0  0
   55.1490   28.1930   45.5030 H   0  0  0  0  0  0  0  0  0  0  0  0
  1  2  2  0
  2  3  1  0
  3  4  1  0
  4  5  2  0
  5  6  1  0
  6  7  2  0
  7  8  1  0
  8  9  2  0
  9 10  1  0
  2 11  1  0
 11 12  2  0
 12 13  1  0
 13 14  2  0
 14 15  1  0
 15 16  2  0
 16 17  1  0
  9  4  1  0
 16 11  1  0
  5 18  1  0
  6 19  1  0
  7 20  1  0
  8 21  1  0
 12 22  1  0
 13 23  1  0
 14 24  1  0
 15 25  1  0
 17 26  1  0
M  CHG  2   3  -1  10  -1
M  END
>  <UniqueID>  (88) 
84

>  <SMILES>  (88) 
O=C([N-]c1ccccc1[O-])c1ccccc1O

>  <Energy>  (88) 
36.89918555488718

>  <Genealogy>  (88) 
O=C([N-]c1ccccc1[O-])c1ccccc1O (protonated)
O=C([N-]c1ccccc1[O-])c1ccccc1O (3D coordinates assigned)
O=C([N-]c1ccccc1[O-])c1ccccc1O (optimized conformer: 36.89918555488718 kcal/mol)

>  <smiles>  (88) 
O=C(Nc1ccccc1O)c1ccccc1O

>  <score_type>  (88) 
oracle

>  <origin>  (88) 
adg

>  <m_score__min__energy>  (88) 
-12.57

>  <m_primary>  (88) 
energy

$$$$
88:0
     RDKit          3D

 42 44  0  0  0  0  0  0  0  0999 V2000
   55.8990   20.3690   44.1780 N   0  0  0  0  0  0  0  0  0  0  0  0
   56.6110   21.8940   43.7900 S   0  0  0  0  0  0  0  0  0  0  0  0
   58.0440   21.6910   43.3860 O   0  0  0  0  0  0  0  0  0  0  0  0
   55.8690   22.5200   42.6420 O   0  0  0  0  0  0  0  0  0  0  0  0
   56.5280   22.9500   45.1970 C   0  0  0  0  0  0  0  0  0  0  0  0
   56.0190   22.4690   46.4090 C   0  0  0  0  0  0  0  0  0  0  0  0
   55.9330   23.3150   47.5170 C   0  0  0  0  0  0  0  0  0  0  0  0
   56.3510   24.6440   47.4200 C   0  0  0  0  0  0  0  0  0  0  0  0
   56.8680   25.1420   46.2110 C   0  0  0  0  0  0  0  0  0  0  0  0
   57.2940   26.5580   46.1110 C   0  0  0  0  0  0  0  0  0  0  0  0
   57.8550   27.1110   47.0970 O   0  0  0  0  0  0  0  0  0  0  0  0
   57.0880   27.3080   44.9010 N   0  0  0  0  0  0  0  0  0  0  0  0
   57.2580   28.7330   44.8510 C   0  0  0  0  0  0  0  0  0  0  0  0
   56.1330   29.5440   44.6210 C   0  0  0  0  0  0  0  0  0  0  0  0
   54.8720   28.9720   44.4920 O   0  0  0  0  0  0  0  0  0  0  0  0
   56.2710   30.9280   44.5010 C   0  0  0  0  0  0  0  0  0  0  0  0
   57.5320   31.5190   44.6070 C   0  0  0  0  0  0  0  0  0  0  0  0
   57.7000   33.2570   44.4470 Cl  0  0  0  0  0  0  0  0  0  0  0  0
   58.6560   30.7280   44.8560 C   0  0  0  0  0  0  0  0  0  0  0  0
   58.5360   29.3340   45.0010 C   0  0  0  0  0  0  0  0  0  0  0  0
   59.7390   28.5460   45.3590 C   0  0  0  0  0  0  0  0  0  0  0  0
   59.9860   27.4660   44.7540 O   0  0  0  0  0  0  0  0  0  0  0  0
   60.5950   29.0040   46.4200 N   0  0  0  0  0  0  0  0  0  0  0  0
   60.4410   30.0740   47.1450 C   0  0  0  0  0  0  0  0  0  0  0  0
   61.4430   31.0530   47.1410 C   0  0  0  0  0  0  0  0  0  0  0  0
   61.2860   32.2020   47.9190 C   0  0  0  0  0  0  0  0  0  0  0  0
   60.1360   32.3660   48.6940 C   0  0  0  0  0  0  0  0  0  0  0  0
   59.9250   33.8030   49.6770 Cl  0  0  0  0  0  0  0  0  0  0  0  0
   59.1560   31.3710   48.6770 C   0  0  0  0  0  0  0  0  0  0  0  0
   59.3280   30.2600   47.9110 N   0  0  0  0  0  0  0  0  0  0  0  0
   56.9430   24.2850   45.0970 C   0  0  0  0  0  0  0  0  0  0  0  0
   56.6320   19.6410   44.0200 H   0  0  0  0  0  0  0  0  0  0  0  0
   55.6864   21.4235   46.4889 H   0  0  0  0  0  0  0  0  0  0  0  0
   55.5349   22.9334   48.4688 H   0  0  0  0  0  0  0  0  0  0  0  0
   56.2753   25.3057   48.2954 H   0  0  0  0  0  0  0  0  0  0  0  0
   57.0210   26.7900   43.9970 H   0  0  0  0  0  0  0  0  0  0  0  0
   55.3846   31.5545   44.3226 H   0  0  0  0  0  0  0  0  0  0  0  0
   59.6459   31.2004   44.9396 H   0  0  0  0  0  0  0  0  0  0  0  0
   62.3472   30.9176   46.5293 H   0  0  0  0  0  0  0  0  0  0  0  0
   62.0670   32.9766   47.9213 H   0  0  0  0  0  0  0  0  0  0  0  0
   58.2451   31.4857   49.2830 H   0  0  0  0  0  0  0  0  0  0  0  0
   57.3303   24.6659   44.1405 H   0  0  0  0  0  0  0  0  0  0  0  0
  1  2  1  0
  2  3  2  0
  2  4  2  0
  2  5  1  0
  5  6  2  0
  6  7  1  0
  7  8  2  0
  8  9  1  0
  9 10  1  0
 10 11  2  0
 10 12  1  0
 12 13  1  0
 13 14  2  0
 14 15  1  0
 14 16  1  0
 16 17  2  0
 17 18  1  0
 17 19  1  0
 19 20  2  0
 20 21  1  0
 21 22  2  0
 21 23  1  0
 23 24  2  3
 24 25  1  0
 25 26  2  0
 26 27  1  0
 27 28  1  0
 27 29  2  0
 29 30  1  0
  9 31  2  0
 31  5  1  0
 20 13  1  0
 30 24  1  0
  1 32  1  0
  6 33  1  0
  7 34  1  0
  8 35  1  0
 12 36  1  0
 16 37  1  0
 19 38  1  0
 25 39  1  0
 26 40  1  0
 29 41  1  0
 31 42  1  0
M  CHG  3   1  -1  15  -1  30  -1
M  END
>  <UniqueID>  (89) 
85

>  <SMILES>  (89) 
[NH-]S(=O)(=O)c1cccc(C(=O)Nc2c([O-])cc(Cl)cc2C(=O)N=c2ccc(Cl)c[n-]2)c1

>  <Energy>  (89) 
59.30134421413717

>  <Genealogy>  (89) 
[NH-]S(=O)(=O)c1cccc(C(=O)Nc2c([O-])cc(Cl)cc2C(=O)N=c2ccc(Cl)c[n-]2)c1 (protonated)
[NH-]S(=O)(=O)c1cccc(C(=O)Nc2c([O-])cc(Cl)cc2C(=O)N=c2ccc(Cl)c[n-]2)c1 (3D coordinates assigned)
[NH-]S(=O)(=O)c1cccc(C(=O)Nc2c([O-])cc(Cl)cc2C(=O)N=c2ccc(Cl)c[n-]2)c1 (optimized conformer: 59.30134421413717 kcal/mol)

>  <smiles>  (89) 
NS(=O)(=O)c1cccc(C(=O)Nc2c(O)cc(Cl)cc2C(=O)N=c2ccc(Cl)c[nH]2)c1

>  <score_type>  (89) 
oracle

>  <origin>  (89) 
adg

>  <m_score__min__energy>  (89) 
-14.35

>  <m_primary>  (89) 
energy

$$$$
89:0
     RDKit          3D

 46 48  0  0  0  0  0  0  0  0999 V2000
   58.9060   34.8890   45.1680 C   0  0  0  0  0  0  0  0  0  0  0  0
   58.5140   33.4440   45.0490 C   0  0  0  0  0  0  0  0  0  0  0  0
   57.9660   32.9630   43.8600 C   0  0  0  0  0  0  0  0  0  0  0  0
   57.6060   31.6130   43.7210 C   0  0  0  0  0  0  0  0  0  0  0  0
   57.0230   31.1720   42.3980 C   0  0  0  0  0  0  0  0  0  0  0  0
   57.8300   30.7050   44.7950 C   0  0  0  0  0  0  0  0  0  0  0  0
   57.2580   29.0130   44.6410 S   0  0  0  0  0  0  0  0  0  0  0  0
   57.1820   28.5510   43.2170 O   0  0  0  0  0  0  0  0  0  0  0  0
   55.8720   28.9290   45.2170 O   0  0  0  0  0  0  0  0  0  0  0  0
   58.2890   27.9260   45.5320 N   0  0  0  0  0  0  0  0  0  0  0  0
   57.9530   26.5620   45.8320 C   0  0  0  0  0  0  0  0  0  0  0  0
   57.6830   26.2120   47.1600 C   0  0  0  0  0  0  0  0  0  0  0  0
   57.4470   24.8770   47.5050 C   0  0  0  0  0  0  0  0  0  0  0  0
   57.4650   23.8840   46.5210 C   0  0  0  0  0  0  0  0  0  0  0  0
   57.7040   24.2250   45.1770 C   0  0  0  0  0  0  0  0  0  0  0  0
   57.9250   25.5700   44.8360 C   0  0  0  0  0  0  0  0  0  0  0  0
   57.7980   23.1460   44.1330 C   0  0  0  0  0  0  0  0  0  0  0  0
   56.2480   22.2690   43.9440 S   0  0  0  0  0  0  0  0  0  0  0  0
   56.2910   21.4670   42.6730 O   0  0  0  0  0  0  0  0  0  0  0  0
   55.1350   23.2730   43.8530 O   0  0  0  0  0  0  0  0  0  0  0  0
   55.9140   21.1690   45.3150 C   0  0  0  0  0  0  0  0  0  0  0  0
   56.0010   21.8840   46.6700 C   0  0  0  0  0  0  0  0  0  0  0  0
   57.2470   22.5490   46.8740 O   0  0  0  0  0  0  0  0  0  0  0  0
   58.4380   31.1940   45.9880 C   0  0  0  0  0  0  0  0  0  0  0  0
   58.7470   30.3100   47.1700 C   0  0  0  0  0  0  0  0  0  0  0  0
   58.7690   32.5560   46.0940 C   0  0  0  0  0  0  0  0  0  0  0  0
   58.9802   35.1625   46.2309 H   0  0  0  0  0  0  0  0  0  0  0  0
   59.8793   35.0463   44.6801 H   0  0  0  0  0  0  0  0  0  0  0  0
   58.1456   35.5166   44.6801 H   0  0  0  0  0  0  0  0  0  0  0  0
   57.8133   33.6529   43.0170 H   0  0  0  0  0  0  0  0  0  0  0  0
   56.1576   30.5174   42.5786 H   0  0  0  0  0  0  0  0  0  0  0  0
   56.7017   32.0551   41.8263 H   0  0  0  0  0  0  0  0  0  0  0  0
   57.7854   30.6225   41.8263 H   0  0  0  0  0  0  0  0  0  0  0  0
   57.6562   26.9907   47.9365 H   0  0  0  0  0  0  0  0  0  0  0  0
   57.2468   24.6080   48.5527 H   0  0  0  0  0  0  0  0  0  0  0  0
   58.0771   25.8487   43.7828 H   0  0  0  0  0  0  0  0  0  0  0  0
   58.0678   23.6044   43.1701 H   0  0  0  0  0  0  0  0  0  0  0  0
   58.5631   22.4240   44.4545 H   0  0  0  0  0  0  0  0  0  0  0  0
   54.9016   20.7550   45.1978 H   0  0  0  0  0  0  0  0  0  0  0  0
   56.6762   20.3759   45.3035 H   0  0  0  0  0  0  0  0  0  0  0  0
   55.1936   22.6291   46.7250 H   0  0  0  0  0  0  0  0  0  0  0  0
   55.9075   21.1162   47.4522 H   0  0  0  0  0  0  0  0  0  0  0  0
   58.5539   30.8624   48.1014 H   0  0  0  0  0  0  0  0  0  0  0  0
   58.1084   29.4150   47.1354 H   0  0  0  0  0  0  0  0  0  0  0  0
   59.8041   30.0077   47.1354 H   0  0  0  0  0  0  0  0  0  0  0  0
   59.2373   32.9281   47.0172 H   0  0  0  0  0  0  0  0  0  0  0  0
  1  2  1  0
  2  3  2  0
  3  4  1  0
  4  5  1  0
  4  6  2  0
  6  7  1  0
  7  8  2  0
  7  9  2  0
  7 10  1  0
 10 11  1  0
 11 12  2  0
 12 13  1  0
 13 14  2  0
 14 15  1  0
 15 16  2  0
 15 17  1  0
 17 18  1  0
 18 19  2  0
 18 20  2  0
 18 21  1  0
 21 22  1  0
 22 23  1  0
  6 24  1  0
 24 25  1  0
 24 26  2  0
 26  2  1  0
 16 11  1  0
 23 14  1  0
  1 27  1  0
  1 28  1  0
  1 29  1  0
  3 30  1  0
  5 31  1  0
  5 32  1  0
  5 33  1  0
 12 34  1  0
 13 35  1  0
 16 36  1  0
 17 37  1  0
 17 38  1  0
 21 39  1  0
 21 40  1  0
 22 41  1  0
 22 42  1  0
 25 43  1  0
 25 44  1  0
 25 45  1  0
 26 46  1  0
M  CHG  1  10  -1
M  END
>  <UniqueID>  (90) 
86

>  <SMILES>  (90) 
Cc1cc(C)c(S(=O)(=O)[N-]c2ccc3c(c2)CS(=O)(=O)CCO3)c(C)c1

>  <Energy>  (90) 
63.64927351295443

>  <Genealogy>  (90) 
Cc1cc(C)c(S(=O)(=O)[N-]c2ccc3c(c2)CS(=O)(=O)CCO3)c(C)c1 (protonated)
Cc1cc(C)c(S(=O)(=O)[N-]c2ccc3c(c2)CS(=O)(=O)CCO3)c(C)c1 (3D coordinates assigned)
Cc1cc(C)c(S(=O)(=O)[N-]c2ccc3c(c2)CS(=O)(=O)CCO3)c(C)c1 (nonaromatic ring conformer: 63.64927351295443 kcal/mol)

>  <smiles>  (90) 
Cc1cc(C)c(S(=O)(=O)Nc2ccc3c(c2)CS(=O)(=O)CCO3)c(C)c1

>  <score_type>  (90) 
oracle

>  <origin>  (90) 
adg

>  <m_score__min__energy>  (90) 
-9.1600000000000001

>  <m_primary>  (90) 
energy

$$$$
90:0
     RDKit          3D

 44 46  0  0  0  0  0  0  0  0999 V2000
   56.6340   29.4220   42.7650 C   0  0  0  0  0  0  0  0  0  0  0  0
   57.2150   30.0970   43.9720 C   0  0  0  0  0  0  0  0  0  0  0  0
   56.9910   31.4730   44.0650 C   0  0  0  0  0  0  0  0  0  0  0  0
   57.4920   32.2030   45.1470 C   0  0  0  0  0  0  0  0  0  0  0  0
   57.2120   33.6480   45.1610 C   0  0  0  0  0  0  0  0  0  0  0  0
   58.7090   34.6450   45.1540 S   0  0  0  0  0  0  0  0  0  0  0  0
   59.7750   34.3300   46.5440 C   0  0  0  0  0  0  0  0  0  0  0  0
   60.8180   33.5050   46.6760 N   0  0  0  0  0  0  0  0  0  0  0  0
   61.3370   33.5890   47.9170 C   0  0  0  0  0  0  0  0  0  0  0  0
   60.5570   34.5200   48.5680 C   0  0  0  0  0  0  0  0  0  0  0  0
   59.6100   34.9690   47.7370 N   0  0  0  0  0  0  0  0  0  0  0  0
   58.2060   31.5290   46.1100 C   0  0  0  0  0  0  0  0  0  0  0  0
   58.4170   30.1510   45.9930 C   0  0  0  0  0  0  0  0  0  0  0  0
   57.9240   29.4290   44.9260 C   0  0  0  0  0  0  0  0  0  0  0  0
   58.1330   27.9830   44.7910 C   0  0  0  0  0  0  0  0  0  0  0  0
   58.8420   27.4910   43.8760 O   0  0  0  0  0  0  0  0  0  0  0  0
   57.5140   27.1110   45.7230 N   0  0  0  0  0  0  0  0  0  0  0  0
   57.6450   25.6970   45.6900 C   0  0  0  0  0  0  0  0  0  0  0  0
   58.9290   25.1670   45.6650 C   0  0  0  0  0  0  0  0  0  0  0  0
   59.1330   23.7890   45.6330 C   0  0  0  0  0  0  0  0  0  0  0  0
   58.0270   22.9920   45.6290 C   0  0  0  0  0  0  0  0  0  0  0  0
   56.7420   23.4660   45.6530 C   0  0  0  0  0  0  0  0  0  0  0  0
   56.5620   24.8460   45.6850 C   0  0  0  0  0  0  0  0  0  0  0  0
   55.1810   25.3860   45.7070 C   0  0  0  0  0  0  0  0  0  0  0  0
   55.1190   26.7050   46.1630 O   0  0  0  0  0  0  0  0  0  0  0  0
   55.9476   28.6245   43.0857 H   0  0  0  0  0  0  0  0  0  0  0  0
   56.0835   30.1592   42.1621 H   0  0  0  0  0  0  0  0  0  0  0  0
   57.4449   28.9873   42.1621 H   0  0  0  0  0  0  0  0  0  0  0  0
   56.4157   31.9862   43.2804 H   0  0  0  0  0  0  0  0  0  0  0  0
   56.6172   33.8999   44.2706 H   0  0  0  0  0  0  0  0  0  0  0  0
   56.6678   33.8721   46.0903 H   0  0  0  0  0  0  0  0  0  0  0  0
   62.1965   33.0348   48.3222 H   0  0  0  0  0  0  0  0  0  0  0  0
   60.6923   34.8440   49.6105 H   0  0  0  0  0  0  0  0  0  0  0  0
   58.8680   35.6920   47.9690 H   0  0  0  0  0  0  0  0  0  0  0  0
   58.6122   32.0748   46.9744 H   0  0  0  0  0  0  0  0  0  0  0  0
   58.9914   29.6293   46.7727 H   0  0  0  0  0  0  0  0  0  0  0  0
   56.9080   27.4920   46.5090 H   0  0  0  0  0  0  0  0  0  0  0  0
   59.7959   25.8441   45.6705 H   0  0  0  0  0  0  0  0  0  0  0  0
   60.1462   23.3612   45.6118 H   0  0  0  0  0  0  0  0  0  0  0  0
   58.1754   21.9023   45.6051 H   0  0  0  0  0  0  0  0  0  0  0  0
   55.8822   22.7799   45.6472 H   0  0  0  0  0  0  0  0  0  0  0  0
   54.7734   25.3483   44.6860 H   0  0  0  0  0  0  0  0  0  0  0  0
   54.5967   24.7683   46.4048 H   0  0  0  0  0  0  0  0  0  0  0  0
   54.7590   26.7220   47.1070 H   0  0  0  0  0  0  0  0  0  0  0  0
  1  2  1  0
  2  3  2  0
  3  4  1  0
  4  5  1  0
  5  6  1  0
  6  7  1  0
  7  8  2  0
  8  9  1  0
  9 10  2  0
 10 11  1  0
  4 12  2  0
 12 13  1  0
 13 14  2  0
 14 15  1  0
 15 16  2  0
 15 17  1  0
 17 18  1  0
 18 19  2  0
 19 20  1  0
 20 21  2  0
 21 22  1  0
 22 23  2  0
 23 24  1  0
 24 25  1  0
 14  2  1  0
 23 18  1  0
 11  7  1  0
  1 26  1  0
  1 27  1  0
  1 28  1  0
  3 29  1  0
  5 30  1  0
  5 31  1  0
  9 32  1  0
 10 33  1  0
 11 34  1  0
 12 35  1  0
 13 36  1  0
 17 37  1  0
 19 38  1  0
 20 39  1  0
 21 40  1  0
 22 41  1  0
 24 42  1  0
 24 43  1  0
 25 44  1  0
M  END
>  <smiles>  (91) 
Cc1cc(CSc2ncc[nH]2)ccc1C(=O)Nc1ccccc1CO

>  <score_type>  (91) 
oracle

>  <origin>  (91) 
adg

>  <m_score__min__energy>  (91) 
-8.5999999999999996

>  <m_primary>  (91) 
energy

$$$$
91:0
     RDKit          3D

 51 53  0  0  1  0  0  0  0  0999 V2000
   51.7720   24.1280   44.0200 C   0  0  0  0  0  0  0  0  0  0  0  0
   53.3570   23.7220   44.6990 S   0  0  0  0  0  0  0  0  0  0  0  0
   53.8310   24.8860   45.5170 O   0  0  0  0  0  0  0  0  0  0  0  0
   53.2020   22.4970   45.5750 O   0  0  0  0  0  0  0  0  0  0  0  0
   54.5240   23.3470   43.4950 N   0  0  0  0  0  0  0  0  0  0  0  0
   55.8670   22.9940   43.8340 C   0  0  0  0  0  0  0  0  0  0  0  0
   56.4070   21.7770   43.4760 C   0  0  0  0  0  0  0  0  0  0  0  0
   57.7120   21.4600   43.8160 C   0  0  0  0  0  0  0  0  0  0  0  0
   58.4790   22.3770   44.5220 C   0  0  0  0  0  0  0  0  0  0  0  0
   57.9580   23.6200   44.8990 C   0  0  0  0  0  0  0  0  0  0  0  0
   58.8150   24.5540   45.6490 C   0  0  0  0  0  0  0  0  0  0  0  0
   58.5320   25.9340   45.4030 N   0  0  0  0  0  0  0  0  0  0  0  0
   57.3470   26.6020   45.7890 C   0  0  0  0  0  0  0  0  0  0  0  0
   56.4060   26.0390   46.3970 O   0  0  0  0  0  0  0  0  0  0  0  0
   57.1740   28.0320   45.4760 C   0  0  0  0  0  0  0  0  0  0  0  0
   58.1470   29.0040   45.5740 C   0  0  0  0  0  0  0  0  0  0  0  0
   57.6020   30.2130   45.1950 C   0  0  0  0  0  0  0  0  0  0  0  0
   58.2190   31.3520   45.1610 N   0  0  0  0  0  0  0  0  0  0  0  0
   57.5300   32.6010   45.1710 C   0  0  0  0  0  0  0  0  0  0  0  0
   56.2770   32.6920   45.2370 O   0  0  0  0  0  0  0  0  0  0  0  0
   58.4100   33.8220   45.0980 C   0  0  0  0  0  0  0  0  0  0  0  0
   59.3740   33.8760   46.2230 C   0  0  0  0  0  0  0  0  0  0  0  0
   58.8340   34.1600   47.4790 C   0  0  0  0  0  0  0  0  0  0  0  0
   59.6510   34.2350   48.6100 C   0  0  0  0  0  0  0  0  0  0  0  0
   61.0130   34.0160   48.4360 C   0  0  0  0  0  0  0  0  0  0  0  0
   61.5520   33.7320   47.1860 C   0  0  0  0  0  0  0  0  0  0  0  0
   63.2910   33.4670   47.0380 Cl  0  0  0  0  0  0  0  0  0  0  0  0
   60.7330   33.6590   46.0600 C   0  0  0  0  0  0  0  0  0  0  0  0
   56.3080   29.9500   44.8750 N   0  0  0  0  0  0  0  0  0  0  0  0
   56.0690   28.6620   45.0460 N   0  0  0  0  0  0  0  0  0  0  0  0
   56.6540   23.8840   44.5350 C   0  0  0  0  0  0  0  0  0  0  0  0
   51.0588   24.3107   44.8373 H   0  0  0  0  0  0  0  0  0  0  0  0
   51.8593   25.0328   43.4005 H   0  0  0  0  0  0  0  0  0  0  0  0
   51.4136   23.2927   43.4005 H   0  0  0  0  0  0  0  0  0  0  0  0
   54.3050   23.3610   42.4550 H   0  0  0  0  0  0  0  0  0  0  0  0
   55.7972   21.0525   42.9163 H   0  0  0  0  0  0  0  0  0  0  0  0
   58.1380   20.4875   43.5283 H   0  0  0  0  0  0  0  0  0  0  0  0
   59.5149   22.1219   44.7899 H   0  0  0  0  0  0  0  0  0  0  0  0
   58.6795   24.3600   46.7232 H   0  0  0  0  0  0  0  0  0  0  0  0
   59.8469   24.3774   45.3115 H   0  0  0  0  0  0  0  0  0  0  0  0
   59.2500   26.5320   44.8920 H   0  0  0  0  0  0  0  0  0  0  0  0
   59.1850   28.8422   45.9001 H   0  0  0  0  0  0  0  0  0  0  0  0
   58.9692   33.8013   44.1510 H   0  0  0  0  0  0  0  0  0  0  0  0
   57.7653   34.7113   45.1581 H   0  0  0  0  0  0  0  0  0  0  0  0
   57.7514   34.3268   47.5793 H   0  0  0  0  0  0  0  0  0  0  0  0
   59.2319   34.4592   49.6020 H   0  0  0  0  0  0  0  0  0  0  0  0
   61.6806   34.0687   49.3087 H   0  0  0  0  0  0  0  0  0  0  0  0
   61.1543   33.4352   45.0688 H   0  0  0  0  0  0  0  0  0  0  0  0
   55.6610   30.7080   44.5520 H   0  0  0  0  0  0  0  0  0  0  0  0
   55.1410   28.1860   44.8680 H   0  0  0  0  0  0  0  0  0  0  0  0
   56.2194   24.8540   44.8182 H   0  0  0  0  0  0  0  0  0  0  0  0
  1  2  1  0
  2  3  2  0
  2  4  2  0
  2  5  1  0
  5  6  1  0
  6  7  2  0
  7  8  1  0
  8  9  2  0
  9 10  1  0
 10 11  1  0
 11 12  1  0
 12 13  1  0
 13 14  2  0
 13 15  1  0
 15 16  2  0
 16 17  1  0
 17 18  2  0
 18 19  1  0
 19 20  2  0
 19 21  1  0
 21 22  1  0
 22 23  2  0
 23 24  1  0
 24 25  2  0
 25 26  1  0
 26 27  1  0
 26 28  2  0
 17 29  1  0
 29 30  1  0
 10 31  2  0
 31  6  1  0
 30 15  1  0
 28 22  1  0
  1 32  1  0
  1 33  1  0
  1 34  1  0
  5 35  1  0
  7 36  1  0
  8 37  1  0
  9 38  1  0
 11 39  1  0
 11 40  1  0
 12 41  1  0
 16 42  1  0
 21 43  1  0
 21 44  1  0
 23 45  1  0
 24 46  1  0
 25 47  1  0
 28 48  1  0
 29 49  1  0
 30 50  1  0
 31 51  1  0
M  END
>  <smiles>  (92) 
CS(=O)(=O)Nc1cccc(CNC(=O)c2cc(=NC(=O)Cc3cccc(Cl)c3)[nH][nH]2)c1

>  <score_type>  (92) 
oracle

>  <origin>  (92) 
adg

>  <m_score__min__energy>  (92) 
-10.32

>  <m_primary>  (92) 
energy

$$$$
92:0
     RDKit          3D

 35 37  0  0  0  0  0  0  0  0999 V2000
   59.3018   31.9711   48.3379 H   0  0  0  0  0  0  0  0  0  0  0  0
   58.8740   32.1690   47.3440 C   0  0  0  0  0  0  0  0  0  0  0  0
   58.3090   31.1570   46.6330 N   0  0  0  0  0  0  0  0  0  0  0  0
   57.7700   31.3520   45.3970 C   0  0  0  0  0  0  0  0  0  0  0  0
   57.2230   30.3780   44.7290 N   0  0  0  0  0  0  0  0  0  0  0  0
   56.6700   29.1490   45.2330 C   0  0  0  0  0  0  0  0  0  0  0  0
   55.5240   28.8060   44.8400 O   0  0  0  0  0  0  0  0  0  0  0  0
   57.4210   28.2170   46.1510 C   0  0  0  0  0  0  0  0  0  0  0  0
   58.4949   28.4490   46.0962 H   0  0  0  0  0  0  0  0  0  0  0  0
   57.0427   28.3594   47.1740 H   0  0  0  0  0  0  0  0  0  0  0  0
   57.2160   26.8150   45.7740 N   0  0  0  0  0  0  0  0  0  0  0  0
   58.1780   25.8990   45.5210 C   0  0  0  0  0  0  0  0  0  0  0  0
   59.5410   26.1760   45.5130 O   0  0  0  0  0  0  0  0  0  0  0  0
   57.6180   24.6610   45.2850 C   0  0  0  0  0  0  0  0  0  0  0  0
   56.2550   24.8230   45.3850 C   0  0  0  0  0  0  0  0  0  0  0  0
   56.0410   26.1440   45.7240 C   0  0  0  0  0  0  0  0  0  0  0  0
   54.8020   26.7100   45.9940 O   0  0  0  0  0  0  0  0  0  0  0  0
   55.2690   23.7000   45.2830 C   0  0  0  0  0  0  0  0  0  0  0  0
   54.9562   23.3986   46.2936 H   0  0  0  0  0  0  0  0  0  0  0  0
   54.3972   24.0402   44.7049 H   0  0  0  0  0  0  0  0  0  0  0  0
   55.9070   22.4920   44.5660 C   0  0  0  0  0  0  0  0  0  0  0  0
   55.2709   21.6083   44.7224 H   0  0  0  0  0  0  0  0  0  0  0  0
   55.9907   22.7340   43.4962 H   0  0  0  0  0  0  0  0  0  0  0  0
   57.3240   22.1900   45.1030 C   0  0  0  0  0  0  0  0  0  0  0  0
   57.2579   21.9736   46.1795 H   0  0  0  0  0  0  0  0  0  0  0  0
   57.7221   21.3269   44.5492 H   0  0  0  0  0  0  0  0  0  0  0  0
   58.2840   23.3790   44.8910 C   0  0  0  0  0  0  0  0  0  0  0  0
   59.1837   23.2333   45.5068 H   0  0  0  0  0  0  0  0  0  0  0  0
   58.5598   23.4311   43.8274 H   0  0  0  0  0  0  0  0  0  0  0  0
   57.7770   32.6390   44.8420 C   0  0  0  0  0  0  0  0  0  0  0  0
   57.3301   32.8180   43.8529 H   0  0  0  0  0  0  0  0  0  0  0  0
   58.3550   33.6920   45.5530 C   0  0  0  0  0  0  0  0  0  0  0  0
   58.3723   34.7037   45.1215 H   0  0  0  0  0  0  0  0  0  0  0  0
   58.9110   33.4600   46.8120 C   0  0  0  0  0  0  0  0  0  0  0  0
   59.6420   34.7710   47.7170 Cl  0  0  0  0  0  0  0  0  0  0  0  0
  1  2  1  0
  2  3  1  0
  3  4  1  0
  4  5  2  0
  5  6  1  0
  6  7  2  0
  6  8  1  0
  8  9  1  0
  8 10  1  0
  8 11  1  0
 11 12  1  0
 12 13  1  0
 12 14  2  0
 14 15  1  0
 15 16  2  0
 16 17  1  0
 15 18  1  0
 18 19  1  0
 18 20  1  0
 18 21  1  0
 21 22  1  0
 21 23  1  0
 21 24  1  0
 24 25  1  0
 24 26  1  0
 24 27  1  0
 27 28  1  0
 27 29  1  0
  4 30  1  0
 30 31  1  0
 30 32  2  0
 32 33  1  0
 32 34  1  0
 34 35  1  0
 34  2  2  0
 16 11  1  0
 27 14  1  0
M  CHG  3   3  -1  13  -1  17  -1
M  END
>  <UniqueID>  (93) 
87

>  <SMILES>  (93) 
O=C(Cn1c([O-])c2c(c1[O-])CCCC2)/N=c1/ccc(Cl)c[n-]1

>  <Energy>  (93) 
69.37969189310796

>  <Genealogy>  (93) 
O=C(Cn1c([O-])c2c(c1[O-])CCCC2)N=c1ccc(Cl)c[n-]1 (protonated)
O=C(Cn1c([O-])c2c(c1[O-])CCCC2)/N=c1/ccc(Cl)c[n-]1 (cis-trans isomerization)
O=C(Cn1c([O-])c2c(c1[O-])CCCC2)/N=c1/ccc(Cl)c[n-]1 (3D coordinates assigned)
O=C(Cn1c([O-])c2c(c1[O-])CCCC2)/N=c1/ccc(Cl)c[n-]1 (nonaromatic ring conformer: 69.37969189310796 kcal/mol)

>  <smiles>  (93) 
O=C(Cn1c(O)c2c(c1O)CCCC2)N=c1ccc(Cl)c[nH]1

>  <score_type>  (93) 
oracle

>  <origin>  (93) 
adg

>  <m_score__min__energy>  (93) 
-13.550000000000001

>  <m_primary>  (93) 
energy

$$$$
93:0
     RDKit          3D

 68 72  0  0  0  0  0  0  0  0999 V2000
   55.1110   25.8240   45.9850 O   0  0  0  0  0  0  0  0  0  0  0  0
   56.1440   25.1900   45.6410 C   0  0  0  0  0  0  0  0  0  0  0  0
   57.4040   25.5770   46.1450 C   0  0  0  0  0  0  0  0  0  0  0  0
   57.5810   26.6990   46.9710 O   0  0  0  0  0  0  0  0  0  0  0  0
   57.7600   28.0370   46.4970 C   0  0  0  0  0  0  0  0  0  0  0  0
   56.7990   28.3240   45.3290 C   0  0  0  0  0  0  0  0  0  0  0  0
   56.9240   29.7920   44.8900 C   0  0  0  0  0  0  0  0  0  0  0  0
   58.3170   30.2580   44.9730 N   0  0  0  0  0  0  0  0  0  0  0  0
   58.5950   31.6570   45.1610 C   0  0  0  0  0  0  0  0  0  0  0  0
   57.7540   32.6260   44.6020 C   0  0  0  0  0  0  0  0  0  0  0  0
   58.0300   33.9680   44.8430 C   0  0  0  0  0  0  0  0  0  0  0  0
   59.0930   34.3150   45.6120 N   0  0  0  0  0  0  0  0  0  0  0  0
   59.9090   33.3710   46.1530 C   0  0  0  0  0  0  0  0  0  0  0  0
   60.9980   33.7760   47.0030 N   0  0  0  0  0  0  0  0  0  0  0  0
   60.7230   34.1180   48.4060 C   0  0  0  0  0  0  0  0  0  0  0  0
   62.0070   34.1060   49.2500 C   0  0  0  0  0  0  0  0  0  0  0  0
   62.8860   32.8950   48.8700 C   0  0  0  0  0  0  0  0  0  0  0  0
   64.1390   32.8150   49.7610 C   0  0  0  0  0  0  0  0  0  0  0  0
   65.2600   33.3410   49.1000 O   0  0  0  0  0  0  0  0  0  0  0  0
   63.2790   32.9130   47.3640 C   0  0  0  0  0  0  0  0  0  0  0  0
   62.3800   33.8220   46.5120 C   0  0  0  0  0  0  0  0  0  0  0  0
   59.6530   32.0480   45.9270 N   0  0  0  0  0  0  0  0  0  0  0  0
   59.4070   29.2750   44.9490 C   0  0  0  0  0  0  0  0  0  0  0  0
   59.2310   28.2330   46.0690 C   0  0  0  0  0  0  0  0  0  0  0  0
   58.5220   24.8010   45.8360 C   0  0  0  0  0  0  0  0  0  0  0  0
   58.3950   23.6930   45.0030 C   0  0  0  0  0  0  0  0  0  0  0  0
   57.1440   23.3620   44.4870 C   0  0  0  0  0  0  0  0  0  0  0  0
   56.0360   24.0980   44.8130 N   0  0  0  0  0  0  0  0  0  0  0  0
   54.7400   23.7140   44.2280 C   0  0  0  0  0  0  0  0  0  0  0  0
   53.8440   23.1460   45.2900 C   0  0  0  0  0  0  0  0  0  0  0  0
   54.3620   22.7660   46.5380 C   0  0  0  0  0  0  0  0  0  0  0  0
   53.4940   22.2740   47.5170 C   0  0  0  0  0  0  0  0  0  0  0  0
   52.1270   22.1710   47.2450 C   0  0  0  0  0  0  0  0  0  0  0  0
   51.6450   22.5680   45.9950 C   0  0  0  0  0  0  0  0  0  0  0  0
   52.5040   23.0460   45.0550 N   0  0  0  0  0  0  0  0  0  0  0  0
   57.5276   28.7485   47.3031 H   0  0  0  0  0  0  0  0  0  0  0  0
   57.0499   27.6684   44.4821 H   0  0  0  0  0  0  0  0  0  0  0  0
   55.7666   28.1332   45.6572 H   0  0  0  0  0  0  0  0  0  0  0  0
   56.5760   29.8861   43.8507 H   0  0  0  0  0  0  0  0  0  0  0  0
   56.3108   30.4091   45.5631 H   0  0  0  0  0  0  0  0  0  0  0  0
   56.8922   32.3324   43.9846 H   0  0  0  0  0  0  0  0  0  0  0  0
   57.3865   34.7481   44.4102 H   0  0  0  0  0  0  0  0  0  0  0  0
   60.2767   35.1225   48.4483 H   0  0  0  0  0  0  0  0  0  0  0  0
   60.0331   33.3657   48.8160 H   0  0  0  0  0  0  0  0  0  0  0  0
   62.5693   35.0338   49.0686 H   0  0  0  0  0  0  0  0  0  0  0  0
   61.7358   34.0319   50.3135 H   0  0  0  0  0  0  0  0  0  0  0  0
   62.2826   31.9917   49.0432 H   0  0  0  0  0  0  0  0  0  0  0  0
   63.9625   33.3891   50.6826 H   0  0  0  0  0  0  0  0  0  0  0  0
   64.3347   31.7586   49.9970 H   0  0  0  0  0  0  0  0  0  0  0  0
   65.4480   32.7340   48.3370 H   0  0  0  0  0  0  0  0  0  0  0  0
   64.3164   33.2685   47.2781 H   0  0  0  0  0  0  0  0  0  0  0  0
   63.1593   31.8877   46.9838 H   0  0  0  0  0  0  0  0  0  0  0  0
   62.7512   34.8559   46.5691 H   0  0  0  0  0  0  0  0  0  0  0  0
   62.4013   33.4710   45.4697 H   0  0  0  0  0  0  0  0  0  0  0  0
   60.2330   31.3200   46.3980 H   0  0  0  0  0  0  0  0  0  0  0  0
   59.4078   28.7616   43.9762 H   0  0  0  0  0  0  0  0  0  0  0  0
   60.3596   29.8022   45.1056 H   0  0  0  0  0  0  0  0  0  0  0  0
   59.6223   27.2686   45.7129 H   0  0  0  0  0  0  0  0  0  0  0  0
   59.7788   28.6042   46.9477 H   0  0  0  0  0  0  0  0  0  0  0  0
   59.5056   25.0654   46.2515 H   0  0  0  0  0  0  0  0  0  0  0  0
   59.2760   23.0832   44.7540 H   0  0  0  0  0  0  0  0  0  0  0  0
   57.0451   22.5003   43.8105 H   0  0  0  0  0  0  0  0  0  0  0  0
   54.2632   24.6011   43.7856 H   0  0  0  0  0  0  0  0  0  0  0  0
   54.9063   22.9527   43.4516 H   0  0  0  0  0  0  0  0  0  0  0  0
   55.4390   22.8544   46.7433 H   0  0  0  0  0  0  0  0  0  0  0  0
   53.8857   21.9688   48.4985 H   0  0  0  0  0  0  0  0  0  0  0  0
   51.4370   21.7811   48.0078 H   0  0  0  0  0  0  0  0  0  0  0  0
   50.5706   22.4939   45.7711 H   0  0  0  0  0  0  0  0  0  0  0  0
  1  2  2  0
  2  3  1  0
  3  4  1  0
  4  5  1  0
  5  6  1  0
  6  7  1  0
  7  8  1  0
  8  9  1  0
  9 10  2  0
 10 11  1  0
 11 12  2  0
 12 13  1  0
 13 14  1  0
 14 15  1  0
 15 16  1  0
 16 17  1  0
 17 18  1  0
 18 19  1  0
 17 20  1  0
 20 21  1  0
 13 22  2  0
  8 23  1  0
 23 24  1  0
  3 25  2  0
 25 26  1  0
 26 27  2  0
 27 28  1  0
 28 29  1  0
 29 30  1  0
 30 31  2  0
 31 32  1  0
 32 33  2  0
 33 34  1  0
 34 35  2  0
 28  2  1  0
 35 30  1  0
 24  5  1  0
 22  9  1  0
 21 14  1  0
  5 36  1  0
  6 37  1  0
  6 38  1  0
  7 39  1  0
  7 40  1  0
 10 41  1  0
 11 42  1  0
 15 43  1  0
 15 44  1  0
 16 45  1  0
 16 46  1  0
 17 47  1  0
 18 48  1  0
 18 49  1  0
 19 50  1  0
 20 51  1  0
 20 52  1  0
 21 53  1  0
 21 54  1  0
 22 55  1  0
 23 56  1  0
 23 57  1  0
 24 58  1  0
 24 59  1  0
 25 60  1  0
 26 61  1  0
 27 62  1  0
 29 63  1  0
 29 64  1  0
 31 65  1  0
 32 66  1  0
 33 67  1  0
 34 68  1  0
M  CHG  1  22   1
M  END
>  <UniqueID>  (94) 
88

>  <SMILES>  (94) 
O=c1c(OC2CCN(c3ccnc(N4CCC(CO)CC4)[nH+]3)CC2)cccn1Cc1ccccn1

>  <Energy>  (94) 
88.88857694622156

>  <Genealogy>  (94) 
O=c1c(OC2CCN(c3ccnc(N4CCC(CO)CC4)[nH+]3)CC2)cccn1Cc1ccccn1 (protonated)
O=c1c(OC2CCN(c3ccnc(N4CCC(CO)CC4)[nH+]3)CC2)cccn1Cc1ccccn1 (3D coordinates assigned)
O=c1c(OC2CCN(c3ccnc(N4CCC(CO)CC4)[nH+]3)CC2)cccn1Cc1ccccn1 (nonaromatic ring conformer: 88.88857694622156 kcal/mol)

>  <smiles>  (94) 
O=c1c(OC2CCN(c3ccnc(N4CCC(CO)CC4)n3)CC2)cccn1Cc1ccccn1

>  <score_type>  (94) 
oracle

>  <origin>  (94) 
adg

>  <m_score__min__energy>  (94) 
-8.6099999999999994

>  <m_primary>  (94) 
energy

$$$$
94:0
     RDKit          3D

 47 49  0  0  0  0  0  0  0  0999 V2000
   56.3530   20.4290   43.3770 N   0  0  0  0  0  0  0  0  0  0  0  0
   56.2760   21.3950   44.0100 C   0  0  0  0  0  0  0  0  0  0  0  0
   56.1800   22.5990   44.7970 C   0  0  0  0  0  0  0  0  0  0  0  0
   57.2940   23.4270   44.9590 C   0  0  0  0  0  0  0  0  0  0  0  0
   57.2170   24.5580   45.7240 N   0  0  0  0  0  0  0  0  0  0  0  0
   58.4100   25.4090   45.8630 C   0  0  0  0  0  0  0  0  0  0  0  0
   58.1510   26.7780   45.2930 C   0  0  0  0  0  0  0  0  0  0  0  0
   58.0310   26.9620   43.9060 C   0  0  0  0  0  0  0  0  0  0  0  0
   57.7580   28.2300   43.3830 C   0  0  0  0  0  0  0  0  0  0  0  0
   57.5960   29.3260   44.2410 C   0  0  0  0  0  0  0  0  0  0  0  0
   57.2690   30.9320   43.6010 S   0  0  0  0  0  0  0  0  0  0  0  0
   58.5530   31.5050   43.0690 O   0  0  0  0  0  0  0  0  0  0  0  0
   56.2670   30.8770   42.4810 O   0  0  0  0  0  0  0  0  0  0  0  0
   56.6730   31.9650   44.8610 N   0  0  0  0  0  0  0  0  0  0  0  0
   57.2520   33.2100   45.2770 C   0  0  0  0  0  0  0  0  0  0  0  0
   56.7390   33.8100   46.2610 O   0  0  0  0  0  0  0  0  0  0  0  0
   58.3880   33.7940   44.6110 N   0  0  0  0  0  0  0  0  0  0  0  0
   58.9020   34.9340   45.3800 C   0  0  0  0  0  0  0  0  0  0  0  0
   59.7620   34.4520   46.5220 C   0  0  0  0  0  0  0  0  0  0  0  0
   59.3210   34.5960   47.8480 C   0  0  0  0  0  0  0  0  0  0  0  0
   60.0900   34.0970   48.9040 C   0  0  0  0  0  0  0  0  0  0  0  0
   61.2980   33.4420   48.6440 C   0  0  0  0  0  0  0  0  0  0  0  0
   61.7380   33.2870   47.3250 C   0  0  0  0  0  0  0  0  0  0  0  0
   60.9750   33.7930   46.2690 C   0  0  0  0  0  0  0  0  0  0  0  0
   57.7190   29.1460   45.6230 C   0  0  0  0  0  0  0  0  0  0  0  0
   57.9930   27.8810   46.1470 C   0  0  0  0  0  0  0  0  0  0  0  0
   56.0270   24.8910   46.3220 C   0  0  0  0  0  0  0  0  0  0  0  0
   55.9260   25.9290   47.0300 O   0  0  0  0  0  0  0  0  0  0  0  0
   54.9360   24.0980   46.1640 N   0  0  0  0  0  0  0  0  0  0  0  0
   54.9840   22.9650   45.4190 C   0  0  0  0  0  0  0  0  0  0  0  0
   53.9490   22.2550   45.3010 O   0  0  0  0  0  0  0  0  0  0  0  0
   58.2423   23.1665   44.4663 H   0  0  0  0  0  0  0  0  0  0  0  0
   58.6652   25.5031   46.9288 H   0  0  0  0  0  0  0  0  0  0  0  0
   59.2427   24.9465   45.3128 H   0  0  0  0  0  0  0  0  0  0  0  0
   58.1523   26.1046   43.2276 H   0  0  0  0  0  0  0  0  0  0  0  0
   57.6702   28.3674   42.2951 H   0  0  0  0  0  0  0  0  0  0  0  0
   58.1430   34.1030   43.6450 H   0  0  0  0  0  0  0  0  0  0  0  0
   59.1310   33.0620   44.5350 H   0  0  0  0  0  0  0  0  0  0  0  0
   59.5032   35.5757   44.7191 H   0  0  0  0  0  0  0  0  0  0  0  0
   58.0527   35.5021   45.7874 H   0  0  0  0  0  0  0  0  0  0  0  0
   58.3674   35.1031   48.0564 H   0  0  0  0  0  0  0  0  0  0  0  0
   59.7442   34.2199   49.9410 H   0  0  0  0  0  0  0  0  0  0  0  0
   61.9015   33.0492   49.4756 H   0  0  0  0  0  0  0  0  0  0  0  0
   62.6850   32.7666   47.1190 H   0  0  0  0  0  0  0  0  0  0  0  0
   61.3272   33.6741   45.2337 H   0  0  0  0  0  0  0  0  0  0  0  0
   57.5993   30.0048   46.2998 H   0  0  0  0  0  0  0  0  0  0  0  0
   58.0856   27.7480   47.2350 H   0  0  0  0  0  0  0  0  0  0  0  0
  1  2  3  0
  2  3  1  0
  3  4  2  0
  4  5  1  0
  5  6  1  0
  6  7  1  0
  7  8  2  0
  8  9  1  0
  9 10  2  0
 10 11  1  0
 11 12  2  0
 11 13  2  0
 11 14  1  0
 14 15  1  0
 15 16  2  0
 15 17  1  0
 17 18  1  0
 18 19  1  0
 19 20  2  0
 20 21  1  0
 21 22  2  0
 22 23  1  0
 23 24  2  0
 10 25  1  0
 25 26  2  0
  5 27  1  0
 27 28  2  0
 27 29  1  0
 29 30  1  0
 30 31  2  0
 30  3  1  0
 26  7  1  0
 24 19  1  0
  4 32  1  0
  6 33  1  0
  6 34  1  0
  8 35  1  0
  9 36  1  0
 17 37  1  0
 17 38  1  0
 18 39  1  0
 18 40  1  0
 20 41  1  0
 21 42  1  0
 22 43  1  0
 23 44  1  0
 24 45  1  0
 25 46  1  0
 26 47  1  0
M  CHG  3  14  -1  17   1  29  -1
M  END
>  <UniqueID>  (95) 
89

>  <SMILES>  (95) 
N#Cc1cn(Cc2ccc(S(=O)(=O)[N-]C(=O)[NH2+]Cc3ccccc3)cc2)c(=O)[n-]c1=O

>  <Energy>  (95) 
49.18291225334887

>  <Genealogy>  (95) 
N#Cc1cn(Cc2ccc(S(=O)(=O)[N-]C(=O)[NH2+]Cc3ccccc3)cc2)c(=O)[n-]c1=O (protonated)
N#Cc1cn(Cc2ccc(S(=O)(=O)[N-]C(=O)[NH2+]Cc3ccccc3)cc2)c(=O)[n-]c1=O (3D coordinates assigned)
N#Cc1cn(Cc2ccc(S(=O)(=O)[N-]C(=O)[NH2+]Cc3ccccc3)cc2)c(=O)[n-]c1=O (optimized conformer: 49.18291225334887 kcal/mol)

>  <smiles>  (95) 
N#Cc1cn(Cc2ccc(S(=O)(=O)NC(=O)NCc3ccccc3)cc2)c(=O)[nH]c1=O

>  <score_type>  (95) 
oracle

>  <origin>  (95) 
adg

>  <m_score__min__energy>  (95) 
-10.67

>  <m_primary>  (95) 
energy

$$$$
