0:0
     RDKit          3D

 42 44  0  0  0  0  0  0  0  0999 V2000
   55.7520   30.3320   43.9640 O   0  0  0  0  0  0  0  0  0  0  0  0
   56.8890   30.3390   44.5060 C   0  0  0  0  0  0  0  0  0  0  0  0
   58.0470   30.9290   43.7560 C   0  0  0  0  0  0  0  0  0  0  0  0
   57.7840   32.7190   43.5180 S   0  0  0  0  0  0  0  0  0  0  0  0
   58.4070   33.1490   45.1440 C   0  0  0  0  0  0  0  0  0  0  0  0
   57.6910   32.7810   46.2900 C   0  0  0  0  0  0  0  0  0  0  0  0
   58.1780   33.1210   47.5570 C   0  0  0  0  0  0  0  0  0  0  0  0
   59.3790   33.8280   47.6810 C   0  0  0  0  0  0  0  0  0  0  0  0
   59.9870   34.2560   49.2700 Cl  0  0  0  0  0  0  0  0  0  0  0  0
   60.0950   34.1940   46.5360 C   0  0  0  0  0  0  0  0  0  0  0  0
   59.6110   33.8530   45.2680 C   0  0  0  0  0  0  0  0  0  0  0  0
   57.0500   29.7140   45.7860 N   0  0  0  0  0  0  0  0  0  0  0  0
   57.6260   28.4230   46.0320 C   0  0  0  0  0  0  0  0  0  0  0  0
   57.0150   27.2610   45.5310 C   0  0  0  0  0  0  0  0  0  0  0  0
   57.6060   26.0110   45.7250 C   0  0  0  0  0  0  0  0  0  0  0  0
   58.8230   25.9110   46.3990 C   0  0  0  0  0  0  0  0  0  0  0  0
   59.4550   27.0610   46.8760 C   0  0  0  0  0  0  0  0  0  0  0  0
   58.8670   28.3230   46.6960 C   0  0  0  0  0  0  0  0  0  0  0  0
   59.5280   29.4880   47.2200 N   0  0  0  0  0  0  0  0  0  0  0  0
   60.3950   30.2960   46.3610 C   0  0  0  0  0  0  0  0  0  0  0  0
   61.5740   30.8260   47.1820 C   0  0  0  0  0  0  0  0  0  0  0  0
   61.1190   31.4820   48.3520 O   0  0  0  0  0  0  0  0  0  0  0  0
   60.4760   30.5530   49.2050 C   0  0  0  0  0  0  0  0  0  0  0  0
   59.2040   30.0050   48.5520 C   0  0  0  0  0  0  0  0  0  0  0  0
   58.9723   30.7691   44.3289 H   0  0  0  0  0  0  0  0  0  0  0  0
   58.1294   30.4408   42.7737 H   0  0  0  0  0  0  0  0  0  0  0  0
   56.7466   32.2252   46.1942 H   0  0  0  0  0  0  0  0  0  0  0  0
   57.6156   32.8319   48.4571 H   0  0  0  0  0  0  0  0  0  0  0  0
   61.0391   34.7502   46.6326 H   0  0  0  0  0  0  0  0  0  0  0  0
   60.1765   34.1381   44.3686 H   0  0  0  0  0  0  0  0  0  0  0  0
   56.0647   27.3367   44.9823 H   0  0  0  0  0  0  0  0  0  0  0  0
   57.1115   25.1045   45.3460 H   0  0  0  0  0  0  0  0  0  0  0  0
   59.2854   24.9251   46.5549 H   0  0  0  0  0  0  0  0  0  0  0  0
   60.4205   26.9776   47.3965 H   0  0  0  0  0  0  0  0  0  0  0  0
   60.7727   29.6765   45.5342 H   0  0  0  0  0  0  0  0  0  0  0  0
   59.8222   31.1417   45.9526 H   0  0  0  0  0  0  0  0  0  0  0  0
   62.2206   29.9838   47.4693 H   0  0  0  0  0  0  0  0  0  0  0  0
   62.1339   31.5475   46.5689 H   0  0  0  0  0  0  0  0  0  0  0  0
   61.1626   29.7191   49.4129 H   0  0  0  0  0  0  0  0  0  0  0  0
   60.2005   31.0643   50.1392 H   0  0  0  0  0  0  0  0  0  0  0  0
   58.7932   29.1939   49.1711 H   0  0  0  0  0  0  0  0  0  0  0  0
   58.4589   30.8094   48.4640 H   0  0  0  0  0  0  0  0  0  0  0  0
  1  2  2  0
  2  3  1  0
  3  4  1  0
  4  5  1  0
  5  6  2  0
  6  7  1  0
  7  8  2  0
  8  9  1  0
  8 10  1  0
 10 11  2  0
  2 12  1  0
 12 13  1  0
 13 14  2  0
 14 15  1  0
 15 16  2  0
 16 17  1  0
 17 18  2  0
 18 19  1  0
 19 20  1  0
 20 21  1  0
 21 22  1  0
 22 23  1  0
 23 24  1  0
 11  5  1  0
 18 13  1  0
 24 19  1  0
  3 25  1  0
  3 26  1  0
  6 27  1  0
  7 28  1  0
 10 29  1  0
 11 30  1  0
 14 31  1  0
 15 32  1  0
 16 33  1  0
 17 34  1  0
 20 35  1  0
 20 36  1  0
 21 37  1  0
 21 38  1  0
 23 39  1  0
 23 40  1  0
 24 41  1  0
 24 42  1  0
M  CHG  1  12  -1
M  END
>  <UniqueID>  (1) 
1

>  <SMILES>  (1) 
O=C(CSc1ccc(Cl)cc1)[N-]c1ccccc1N1CCOCC1

>  <Energy>  (1) 
49.010693773722046

>  <Genealogy>  (1) 
O=C(CSc1ccc(Cl)cc1)[N-]c1ccccc1N1CCOCC1 (protonated)
O=C(CSc1ccc(Cl)cc1)[N-]c1ccccc1N1CCOCC1 (3D coordinates assigned)
O=C(CSc1ccc(Cl)cc1)[N-]c1ccccc1N1CCOCC1 (nonaromatic ring conformer: 49.010693773722046 kcal/mol)

>  <smiles>  (1) 
O=C(CSc1ccc(Cl)cc1)Nc1ccccc1N1CCOCC1

>  <score_type>  (1) 
oracle

>  <origin>  (1) 
adg

>  <m_score__min__energy>  (1) 
-10.08

>  <m_primary>  (1) 
energy

$$$$
1:0
     RDKit          3D

 24 25  0  0  0  0  0  0  0  0999 V2000
   54.6960   26.1200   45.9880 N   0  0  0  0  0  0  0  0  0  0  0  0
   56.2490   25.3820   46.1580 S   0  0  0  0  0  0  0  0  0  0  0  0
   56.3560   24.7370   47.5120 O   0  0  0  0  0  0  0  0  0  0  0  0
   56.4090   24.3230   45.1030 O   0  0  0  0  0  0  0  0  0  0  0  0
   57.5040   26.6100   45.9940 C   0  0  0  0  0  0  0  0  0  0  0  0
   57.1590   27.9530   45.7820 C   0  0  0  0  0  0  0  0  0  0  0  0
   58.1570   28.9320   45.6450 C   0  0  0  0  0  0  0  0  0  0  0  0
   57.8040   30.3520   45.4480 C   0  0  0  0  0  0  0  0  0  0  0  0
   56.6340   30.7440   44.9020 N   0  0  0  0  0  0  0  0  0  0  0  0
   56.6550   32.0440   44.8310 O   0  0  0  0  0  0  0  0  0  0  0  0
   57.7790   32.5220   45.3070 C   0  0  0  0  0  0  0  0  0  0  0  0
   58.1310   34.1180   45.3880 S   0  0  0  0  0  0  0  0  0  0  0  0
   58.5730   31.4760   45.7320 C   0  0  0  0  0  0  0  0  0  0  0  0
   59.8670   31.5780   46.4310 C   0  0  0  0  0  0  0  0  0  0  0  0
   60.0130   31.1410   47.6020 O   0  0  0  0  0  0  0  0  0  0  0  0
   59.5050   28.5600   45.7690 C   0  0  0  0  0  0  0  0  0  0  0  0
   59.8510   27.2250   45.9860 C   0  0  0  0  0  0  0  0  0  0  0  0
   58.8560   26.2500   46.0940 C   0  0  0  0  0  0  0  0  0  0  0  0
   59.2120   24.9580   46.3090 F   0  0  0  0  0  0  0  0  0  0  0  0
   54.7690   27.0790   46.3930 H   0  0  0  0  0  0  0  0  0  0  0  0
   56.0992   28.2416   45.7226 H   0  0  0  0  0  0  0  0  0  0  0  0
   60.7213   32.0451   45.9191 H   0  0  0  0  0  0  0  0  0  0  0  0
   60.2926   29.3243   45.6948 H   0  0  0  0  0  0  0  0  0  0  0  0
   60.9099   26.9399   46.0722 H   0  0  0  0  0  0  0  0  0  0  0  0
  1  2  1  0
  2  3  2  0
  2  4  2  0
  2  5  1  0
  5  6  2  0
  6  7  1  0
  7  8  1  0
  8  9  1  0
  9 10  1  0
 10 11  1  0
 11 12  2  0
 11 13  1  0
 13 14  1  0
 14 15  2  0
  7 16  2  0
 16 17  1  0
 17 18  2  0
 18 19  1  0
 18  5  1  0
 13  8  2  0
  1 20  1  0
  6 21  1  0
 14 22  1  0
 16 23  1  0
 17 24  1  0
M  CHG  2   1  -1   9  -1
M  END
>  <UniqueID>  (2) 
2

>  <SMILES>  (2) 
[NH-]S(=O)(=O)c1cc(-c2[n-]oc(=S)c2C=O)ccc1F

>  <Energy>  (2) 
62.702526342613226

>  <Genealogy>  (2) 
[NH-]S(=O)(=O)c1cc(-c2[n-]oc(=S)c2C=O)ccc1F (protonated)
[NH-]S(=O)(=O)c1cc(-c2[n-]oc(=S)c2C=O)ccc1F (3D coordinates assigned)
[NH-]S(=O)(=O)c1cc(-c2[n-]oc(=S)c2C=O)ccc1F (optimized conformer: 62.702526342613226 kcal/mol)

>  <smiles>  (2) 
NS(=O)(=O)c1cc(-c2[nH]oc(=S)c2C=O)ccc1F

>  <score_type>  (2) 
oracle

>  <origin>  (2) 
adg

>  <m_score__min__energy>  (2) 
-11.619999999999999

>  <m_primary>  (2) 
energy

$$$$
2:0
     RDKit          3D

 36 38  0  0  0  0  0  0  0  0999 V2000
   59.9830   34.5990   48.7080 C   0  0  0  0  0  0  0  0  0  0  0  0
   60.1830   34.2990   47.3310 O   0  0  0  0  0  0  0  0  0  0  0  0
   59.2470   33.6500   46.5060 C   0  0  0  0  0  0  0  0  0  0  0  0
   58.3490   34.3860   45.7090 C   0  0  0  0  0  0  0  0  0  0  0  0
   57.4230   33.7390   44.8940 C   0  0  0  0  0  0  0  0  0  0  0  0
   57.3730   32.3480   44.8560 C   0  0  0  0  0  0  0  0  0  0  0  0
   58.2540   31.5840   45.6360 C   0  0  0  0  0  0  0  0  0  0  0  0
   58.1920   30.2210   45.5870 N   0  0  0  0  0  0  0  0  0  0  0  0
   59.0240   29.4330   46.3290 C   0  0  0  0  0  0  0  0  0  0  0  0
   58.9290   27.9540   46.2410 C   0  0  0  0  0  0  0  0  0  0  0  0
   60.0890   27.1640   46.1520 C   0  0  0  0  0  0  0  0  0  0  0  0
   59.9940   25.7730   46.0780 C   0  0  0  0  0  0  0  0  0  0  0  0
   58.7420   25.1540   46.0860 C   0  0  0  0  0  0  0  0  0  0  0  0
   57.5760   25.9260   46.1650 C   0  0  0  0  0  0  0  0  0  0  0  0
   55.9980   25.1470   46.1850 S   0  0  0  0  0  0  0  0  0  0  0  0
   54.7670   26.3430   45.9840 N   0  0  0  0  0  0  0  0  0  0  0  0
   55.9130   24.1440   45.0680 O   0  0  0  0  0  0  0  0  0  0  0  0
   55.7960   24.4330   47.4910 O   0  0  0  0  0  0  0  0  0  0  0  0
   57.6720   27.3220   46.2490 C   0  0  0  0  0  0  0  0  0  0  0  0
   59.9730   30.0320   47.1680 C   0  0  0  0  0  0  0  0  0  0  0  0
   60.0670   31.4220   47.2430 C   0  0  0  0  0  0  0  0  0  0  0  0
   60.9340   31.9280   48.0050 O   0  0  0  0  0  0  0  0  0  0  0  0
   59.2010   32.2310   46.4720 C   0  0  0  0  0  0  0  0  0  0  0  0
   60.4880   33.8415   49.3254 H   0  0  0  0  0  0  0  0  0  0  0  0
   60.4005   35.5919   48.9314 H   0  0  0  0  0  0  0  0  0  0  0  0
   58.9059   34.5955   48.9314 H   0  0  0  0  0  0  0  0  0  0  0  0
   58.3792   35.4854   45.7303 H   0  0  0  0  0  0  0  0  0  0  0  0
   56.7286   34.3292   44.2780 H   0  0  0  0  0  0  0  0  0  0  0  0
   56.6381   31.8450   44.2103 H   0  0  0  0  0  0  0  0  0  0  0  0
   57.4710   29.7680   44.9810 H   0  0  0  0  0  0  0  0  0  0  0  0
   61.0781   27.6453   46.1406 H   0  0  0  0  0  0  0  0  0  0  0  0
   60.9072   25.1632   46.0133 H   0  0  0  0  0  0  0  0  0  0  0  0
   58.6715   24.0577   46.0301 H   0  0  0  0  0  0  0  0  0  0  0  0
   55.1510   27.0700   45.3400 H   0  0  0  0  0  0  0  0  0  0  0  0
   56.7571   27.9283   46.3218 H   0  0  0  0  0  0  0  0  0  0  0  0
   60.6464   29.4040   47.7698 H   0  0  0  0  0  0  0  0  0  0  0  0
  1  2  1  0
  2  3  1  0
  3  4  2  0
  4  5  1  0
  5  6  2  0
  6  7  1  0
  7  8  1  0
  8  9  1  0
  9 10  1  0
 10 11  2  0
 11 12  1  0
 12 13  2  0
 13 14  1  0
 14 15  1  0
 15 16  1  0
 15 17  2  0
 15 18  2  0
 14 19  2  0
  9 20  2  0
 20 21  1  0
 21 22  2  0
 21 23  1  0
 23  3  1  0
 23  7  2  0
 19 10  1  0
  1 24  1  0
  1 25  1  0
  1 26  1  0
  4 27  1  0
  5 28  1  0
  6 29  1  0
  8 30  1  0
 11 31  1  0
 12 32  1  0
 13 33  1  0
 16 34  1  0
 19 35  1  0
 20 36  1  0
M  CHG  1  16  -1
M  END
>  <UniqueID>  (3) 
3

>  <SMILES>  (3) 
COc1cccc2[nH]c(-c3cccc(S([NH-])(=O)=O)c3)cc(=O)c12

>  <Energy>  (3) 
49.62712798377643

>  <Genealogy>  (3) 
COc1cccc2[nH]c(-c3cccc(S([NH-])(=O)=O)c3)cc(=O)c12 (protonated)
COc1cccc2[nH]c(-c3cccc(S([NH-])(=O)=O)c3)cc(=O)c12 (3D coordinates assigned)
COc1cccc2[nH]c(-c3cccc(S([NH-])(=O)=O)c3)cc(=O)c12 (optimized conformer: 49.62712798377643 kcal/mol)

>  <smiles>  (3) 
COc1cccc2[nH]c(-c3cccc(S(N)(=O)=O)c3)cc(=O)c12

>  <score_type>  (3) 
oracle

>  <origin>  (3) 
adg

>  <m_score__min__energy>  (3) 
-10.529999999999999

>  <m_primary>  (3) 
energy

$$$$
3:0
     RDKit          3D

 45 48  0  0  0  0  0  0  0  0999 V2000
   63.0500   31.6350   50.2550 O   0  0  0  0  0  0  0  0  0  0  0  0
   63.9510   32.1170   49.5170 C   0  0  0  0  0  0  0  0  0  0  0  0
   63.6710   32.4450   48.1470 N   0  0  0  0  0  0  0  0  0  0  0  0
   62.3470   32.5140   47.5900 C   0  0  0  0  0  0  0  0  0  0  0  0
   61.7690   33.7410   47.2210 C   0  0  0  0  0  0  0  0  0  0  0  0
   60.4890   33.7790   46.6610 C   0  0  0  0  0  0  0  0  0  0  0  0
   59.7690   32.5920   46.4540 C   0  0  0  0  0  0  0  0  0  0  0  0
   58.3770   32.6330   45.8730 C   0  0  0  0  0  0  0  0  0  0  0  0
   58.2750   31.8620   44.5460 C   0  0  0  0  0  0  0  0  0  0  0  0
   56.9920   31.0240   44.4120 C   0  0  0  0  0  0  0  0  0  0  0  0
   57.1810   29.6140   44.9000 C   0  0  0  0  0  0  0  0  0  0  0  0
   58.4840   29.0670   45.0480 C   0  0  0  0  0  0  0  0  0  0  0  0
   58.6410   27.7480   45.5100 C   0  0  0  0  0  0  0  0  0  0  0  0
   57.4870   27.0330   45.7990 C   0  0  0  0  0  0  0  0  0  0  0  0
   57.3750   25.7740   46.2460 N   0  0  0  0  0  0  0  0  0  0  0  0
   56.0260   25.6270   46.3370 C   0  0  0  0  0  0  0  0  0  0  0  0
   55.4910   24.5580   46.7290 O   0  0  0  0  0  0  0  0  0  0  0  0
   55.2950   26.7140   45.9730 N   0  0  0  0  0  0  0  0  0  0  0  0
   56.2580   27.5830   45.6380 C   0  0  0  0  0  0  0  0  0  0  0  0
   56.0810   28.8520   45.1970 N   0  0  0  0  0  0  0  0  0  0  0  0
   60.3570   31.3650   46.7970 C   0  0  0  0  0  0  0  0  0  0  0  0
   61.6380   31.3260   47.3530 C   0  0  0  0  0  0  0  0  0  0  0  0
   65.3070   32.3030   50.0560 C   0  0  0  0  0  0  0  0  0  0  0  0
   66.0040   31.3930   50.8330 C   0  0  0  0  0  0  0  0  0  0  0  0
   67.2200   31.9830   51.1090 C   0  0  0  0  0  0  0  0  0  0  0  0
   67.1780   33.2130   50.4820 C   0  0  0  0  0  0  0  0  0  0  0  0
   68.2230   34.1880   50.4890 N   0  0  0  0  0  0  0  0  0  0  0  0
   69.0030   34.2910   49.5200 O   0  0  0  0  0  0  0  0  0  0  0  0
   68.3750   35.0210   51.5730 O   0  0  0  0  0  0  0  0  0  0  0  0
   66.0330   33.3800   49.8640 O   0  0  0  0  0  0  0  0  0  0  0  0
   64.4820   32.5550   47.4950 H   0  0  0  0  0  0  0  0  0  0  0  0
   62.3272   34.6765   47.3738 H   0  0  0  0  0  0  0  0  0  0  0  0
   60.0432   34.7448   46.3808 H   0  0  0  0  0  0  0  0  0  0  0  0
   57.6787   32.1864   46.5961 H   0  0  0  0  0  0  0  0  0  0  0  0
   58.1278   33.6851   45.6707 H   0  0  0  0  0  0  0  0  0  0  0  0
   58.3029   32.5880   43.7201 H   0  0  0  0  0  0  0  0  0  0  0  0
   59.1210   31.1595   44.5178 H   0  0  0  0  0  0  0  0  0  0  0  0
   56.1950   31.4995   45.0026 H   0  0  0  0  0  0  0  0  0  0  0  0
   56.7275   30.9796   43.3452 H   0  0  0  0  0  0  0  0  0  0  0  0
   59.3679   29.6738   44.8018 H   0  0  0  0  0  0  0  0  0  0  0  0
   59.6380   27.3011   45.6372 H   0  0  0  0  0  0  0  0  0  0  0  0
   59.8060   30.4282   46.6271 H   0  0  0  0  0  0  0  0  0  0  0  0
   62.0941   30.3577   47.6068 H   0  0  0  0  0  0  0  0  0  0  0  0
   65.6586   30.4021   51.1628 H   0  0  0  0  0  0  0  0  0  0  0  0
   68.0464   31.5636   51.7017 H   0  0  0  0  0  0  0  0  0  0  0  0
  1  2  2  0
  2  3  1  0
  3  4  1  0
  4  5  2  0
  5  6  1  0
  6  7  2  0
  7  8  1  0
  8  9  1  0
  9 10  1  0
 10 11  1  0
 11 12  2  0
 12 13  1  0
 13 14  2  0
 14 15  1  0
 15 16  1  0
 16 17  2  0
 16 18  1  0
 18 19  1  0
 19 20  2  0
  7 21  1  0
 21 22  2  0
  2 23  1  0
 23 24  2  0
 24 25  1  0
 25 26  2  0
 26 27  1  0
 27 28  2  0
 27 29  1  0
 26 30  1  0
 22  4  1  0
 30 23  1  0
 20 11  1  0
 19 14  1  0
  3 31  1  0
  5 32  1  0
  6 33  1  0
  8 34  1  0
  8 35  1  0
  9 36  1  0
  9 37  1  0
 10 38  1  0
 10 39  1  0
 12 40  1  0
 13 41  1  0
 21 42  1  0
 22 43  1  0
 24 44  1  0
 25 45  1  0
M  CHG  4  15  -1  18  -1  27   1  29  -1
M  END
>  <UniqueID>  (4) 
4

>  <SMILES>  (4) 
O=C(Nc1ccc(CCCc2ccc3[n-]c(=O)[n-]c3n2)cc1)c1ccc([N+](=O)[O-])o1

>  <Energy>  (4) 
110.36759861521087

>  <Genealogy>  (4) 
O=C(Nc1ccc(CCCc2ccc3[n-]c(=O)[n-]c3n2)cc1)c1ccc([N+](=O)[O-])o1 (protonated)
O=C(Nc1ccc(CCCc2ccc3[n-]c(=O)[n-]c3n2)cc1)c1ccc([N+](=O)[O-])o1 (3D coordinates assigned)
O=C(Nc1ccc(CCCc2ccc3[n-]c(=O)[n-]c3n2)cc1)c1ccc([N+](=O)[O-])o1 (optimized conformer: 110.36759861521087 kcal/mol)

>  <smiles>  (4) 
O=C(Nc1ccc(CCCc2ccc3[nH]c(=O)[nH]c3n2)cc1)c1ccc([N+](=O)[O-])o1

>  <score_type>  (4) 
oracle

>  <origin>  (4) 
adg

>  <m_score__min__energy>  (4) 
-13

>  <m_primary>  (4) 
energy

$$$$
4:0
     RDKit          3D

 52 55  0  0  0  0  0  0  0  0999 V2000
   55.9750   28.3870   45.2390 N   0  0  0  0  0  0  0  0  0  0  0  0
   56.3320   27.1970   45.9410 C   0  0  0  0  0  0  0  0  0  0  0  0
   55.4450   26.3340   46.1760 O   0  0  0  0  0  0  0  0  0  0  0  0
   57.6930   26.9740   46.3630 N   0  0  0  0  0  0  0  0  0  0  0  0
   58.2370   25.6120   46.4610 C   0  0  0  0  0  0  0  0  0  0  0  0
   57.5500   24.7070   45.4740 C   0  0  0  0  0  0  0  0  0  0  0  0
   57.6380   24.9690   44.0970 C   0  0  0  0  0  0  0  0  0  0  0  0
   56.9730   24.1510   43.1800 C   0  0  0  0  0  0  0  0  0  0  0  0
   56.2110   23.0700   43.6310 C   0  0  0  0  0  0  0  0  0  0  0  0
   56.1090   22.8080   45.0000 C   0  0  0  0  0  0  0  0  0  0  0  0
   56.7720   23.6260   45.9210 C   0  0  0  0  0  0  0  0  0  0  0  0
   58.5790   28.0940   46.5520 C   0  0  0  0  0  0  0  0  0  0  0  0
   58.7590   28.6500   47.8280 C   0  0  0  0  0  0  0  0  0  0  0  0
   59.6290   29.7290   48.0100 C   0  0  0  0  0  0  0  0  0  0  0  0
   60.3230   30.2730   46.9190 C   0  0  0  0  0  0  0  0  0  0  0  0
   61.2210   31.4360   47.1170 C   0  0  0  0  0  0  0  0  0  0  0  0
   62.4890   31.2240   47.5790 N   0  0  0  0  0  0  0  0  0  0  0  0
   63.3780   32.2430   47.7040 C   0  0  0  0  0  0  0  0  0  0  0  0
   62.9960   33.5360   47.3580 C   0  0  0  0  0  0  0  0  0  0  0  0
   61.7330   33.7650   46.9210 N   0  0  0  0  0  0  0  0  0  0  0  0
   60.8220   32.7600   46.8030 C   0  0  0  0  0  0  0  0  0  0  0  0
   59.4500   33.1070   46.3650 C   0  0  0  0  0  0  0  0  0  0  0  0
   59.2390   33.6630   45.1580 C   0  0  0  0  0  0  0  0  0  0  0  0
   57.8730   34.1200   44.7180 C   0  0  0  0  0  0  0  0  0  0  0  0
   56.7910   33.3920   45.3950 N   0  0  0  0  0  0  0  0  0  0  0  0
   56.9940   33.4070   46.8490 C   0  0  0  0  0  0  0  0  0  0  0  0
   58.2880   32.6730   47.2230 C   0  0  0  0  0  0  0  0  0  0  0  0
   60.1600   29.7010   45.6470 C   0  0  0  0  0  0  0  0  0  0  0  0
   59.2920   28.6230   45.4650 C   0  0  0  0  0  0  0  0  0  0  0  0
   55.7590   28.3640   44.2170 H   0  0  0  0  0  0  0  0  0  0  0  0
   59.3152   25.6347   46.2442 H   0  0  0  0  0  0  0  0  0  0  0  0
   58.0671   25.2294   47.4782 H   0  0  0  0  0  0  0  0  0  0  0  0
   58.2331   25.8220   43.7388 H   0  0  0  0  0  0  0  0  0  0  0  0
   57.0494   24.3581   42.1024 H   0  0  0  0  0  0  0  0  0  0  0  0
   55.6909   22.4246   42.9078 H   0  0  0  0  0  0  0  0  0  0  0  0
   55.5070   21.9580   45.3535 H   0  0  0  0  0  0  0  0  0  0  0  0
   56.6839   23.4222   46.9984 H   0  0  0  0  0  0  0  0  0  0  0  0
   58.2133   28.2351   48.6883 H   0  0  0  0  0  0  0  0  0  0  0  0
   59.7702   30.1540   49.0147 H   0  0  0  0  0  0  0  0  0  0  0  0
   62.8050   30.2560   47.8160 H   0  0  0  0  0  0  0  0  0  0  0  0
   64.3944   32.0476   48.0766 H   0  0  0  0  0  0  0  0  0  0  0  0
   63.7134   34.3659   47.4385 H   0  0  0  0  0  0  0  0  0  0  0  0
   60.0898   33.7875   44.4720 H   0  0  0  0  0  0  0  0  0  0  0  0
   57.7707   35.1921   44.9417 H   0  0  0  0  0  0  0  0  0  0  0  0
   57.7855   33.9217   43.6396 H   0  0  0  0  0  0  0  0  0  0  0  0
   56.7910   32.3990   45.0610 H   0  0  0  0  0  0  0  0  0  0  0  0
   57.0575   34.4495   47.1941 H   0  0  0  0  0  0  0  0  0  0  0  0
   56.1463   32.8970   47.3299 H   0  0  0  0  0  0  0  0  0  0  0  0
   58.5251   32.8848   48.2761 H   0  0  0  0  0  0  0  0  0  0  0  0
   58.1281   31.5969   47.0607 H   0  0  0  0  0  0  0  0  0  0  0  0
   60.7190   30.1043   44.7898 H   0  0  0  0  0  0  0  0  0  0  0  0
   59.1661   28.1855   44.4636 H   0  0  0  0  0  0  0  0  0  0  0  0
  1  2  1  0
  2  3  2  0
  2  4  1  0
  4  5  1  0
  5  6  1  0
  6  7  2  0
  7  8  1  0
  8  9  2  0
  9 10  1  0
 10 11  2  0
  4 12  1  0
 12 13  2  0
 13 14  1  0
 14 15  2  0
 15 16  1  0
 16 17  2  0
 17 18  1  0
 18 19  2  0
 19 20  1  0
 20 21  2  0
 21 22  1  0
 22 23  2  0
 23 24  1  0
 24 25  1  0
 25 26  1  0
 26 27  1  0
 15 28  1  0
 28 29  2  0
 11  6  1  0
 29 12  1  0
 21 16  1  0
 27 22  1  0
  1 30  1  0
  5 31  1  0
  5 32  1  0
  7 33  1  0
  8 34  1  0
  9 35  1  0
 10 36  1  0
 11 37  1  0
 13 38  1  0
 14 39  1  0
 17 40  1  0
 18 41  1  0
 19 42  1  0
 23 43  1  0
 24 44  1  0
 24 45  1  0
 25 46  1  0
 26 47  1  0
 26 48  1  0
 27 49  1  0
 27 50  1  0
 28 51  1  0
 29 52  1  0
M  CHG  2   1  -1  17   1
M  END
>  <UniqueID>  (5) 
5

>  <SMILES>  (5) 
[NH-]C(=O)N(Cc1ccccc1)c1ccc(-c2[nH+]ccnc2C2=CCNCC2)cc1

>  <Energy>  (5) 
72.09500313077672

>  <Genealogy>  (5) 
[NH-]C(=O)N(Cc1ccccc1)c1ccc(-c2[nH+]ccnc2C2=CCNCC2)cc1 (protonated)
[NH-]C(=O)N(Cc1ccccc1)c1ccc(-c2[nH+]ccnc2C2=CCNCC2)cc1 (3D coordinates assigned)
[NH-]C(=O)N(Cc1ccccc1)c1ccc(-c2[nH+]ccnc2C2=CCNCC2)cc1 (nonaromatic ring conformer: 72.09500313077672 kcal/mol)

>  <smiles>  (5) 
NC(=O)N(Cc1ccccc1)c1ccc(-c2nccnc2C2=CCNCC2)cc1

>  <score_type>  (5) 
oracle

>  <origin>  (5) 
adg

>  <m_score__min__energy>  (5) 
-9.4000000000000004

>  <m_primary>  (5) 
energy

$$$$
5:0
     RDKit          3D

 51 54  0  0  1  0  0  0  0  0999 V2000
   62.4540   30.0990   51.2510 C   0  0  0  0  0  0  0  0  0  0  0  0
   59.0770   32.8250   48.6300 N   0  0  0  0  0  0  0  0  0  0  0  0
   59.4560   31.6080   48.6980 C   0  0  0  0  0  0  0  0  0  0  0  0
   60.5190   31.2050   49.4180 N   0  0  0  0  0  0  0  0  0  0  0  0
   60.8580   29.8950   49.4430 C   0  0  0  0  0  0  0  0  0  0  0  0
   61.8640   29.4720   50.1160 N   0  0  0  0  0  0  0  0  0  0  0  0
   59.0290   33.4920   47.3690 C   0  0  0  0  0  0  0  0  0  0  0  0
   59.6890   34.7150   47.2120 C   0  0  0  0  0  0  0  0  0  0  0  0
   59.6590   35.3830   46.0040 C   0  0  0  0  0  0  0  0  0  0  0  0
   58.9640   34.8110   44.9630 C   0  0  0  0  0  0  0  0  0  0  0  0
   58.3050   33.6260   45.0550 C   0  0  0  0  0  0  0  0  0  0  0  0
   57.5750   32.9890   44.0320 N   0  0  0  0  0  0  0  0  0  0  0  0
   57.3110   31.2960   43.9130 S   0  0  0  0  0  0  0  0  0  0  0  0
   58.7580   30.3810   44.3780 C   0  0  0  0  0  0  0  0  0  0  0  0
   56.1950   30.8450   44.8140 O   0  0  0  0  0  0  0  0  0  0  0  0
   57.0170   30.9460   42.4710 O   0  0  0  0  0  0  0  0  0  0  0  0
   58.3480   32.9670   46.2890 C   0  0  0  0  0  0  0  0  0  0  0  0
   58.7320   30.6970   48.0020 N   0  0  0  0  0  0  0  0  0  0  0  0
   59.0340   29.3850   47.9980 C   0  0  0  0  0  0  0  0  0  0  0  0
   58.2580   28.5050   47.2700 C   0  0  0  0  0  0  0  0  0  0  0  0
   58.6370   27.1640   47.3170 C   0  0  0  0  0  0  0  0  0  0  0  0
   57.8270   26.2290   46.5540 C   0  0  0  0  0  0  0  0  0  0  0  0
   58.4040   25.1350   45.9390 C   0  0  0  0  0  0  0  0  0  0  0  0
   57.5970   24.2730   45.2250 C   0  0  0  0  0  0  0  0  0  0  0  0
   56.2210   24.4860   45.1150 C   0  0  0  0  0  0  0  0  0  0  0  0
   55.6390   25.5780   45.7270 C   0  0  0  0  0  0  0  0  0  0  0  0
   54.2690   25.8040   45.6260 O   0  0  0  0  0  0  0  0  0  0  0  0
   56.4590   26.4520   46.4510 C   0  0  0  0  0  0  0  0  0  0  0  0
   59.7340   26.7880   48.0670 C   0  0  0  0  0  0  0  0  0  0  0  0
   60.4600   27.6830   48.7620 N   0  0  0  0  0  0  0  0  0  0  0  0
   60.1280   28.9710   48.7390 C   0  0  0  0  0  0  0  0  0  0  0  0
   62.0396   29.6586   52.1699 H   0  0  0  0  0  0  0  0  0  0  0  0
   63.5431   29.9458   51.2297 H   0  0  0  0  0  0  0  0  0  0  0  0
   62.2349   31.1767   51.2297 H   0  0  0  0  0  0  0  0  0  0  0  0
   61.0580   31.9050   49.9400 H   0  0  0  0  0  0  0  0  0  0  0  0
   60.2381   35.1496   48.0603 H   0  0  0  0  0  0  0  0  0  0  0  0
   60.1762   36.3455   45.8772 H   0  0  0  0  0  0  0  0  0  0  0  0
   58.9405   35.3437   44.0009 H   0  0  0  0  0  0  0  0  0  0  0  0
   57.1690   33.6360   43.2880 H   0  0  0  0  0  0  0  0  0  0  0  0
   58.8273   30.3372   45.4749 H   0  0  0  0  0  0  0  0  0  0  0  0
   58.6919   29.3601   43.9737 H   0  0  0  0  0  0  0  0  0  0  0  0
   59.6520   30.8784   43.9737 H   0  0  0  0  0  0  0  0  0  0  0  0
   57.8255   32.0056   46.4012 H   0  0  0  0  0  0  0  0  0  0  0  0
   57.9050   30.9890   47.4380 H   0  0  0  0  0  0  0  0  0  0  0  0
   57.3895   28.8429   46.6857 H   0  0  0  0  0  0  0  0  0  0  0  0
   59.4863   24.9544   46.0169 H   0  0  0  0  0  0  0  0  0  0  0  0
   58.0472   23.3990   44.7317 H   0  0  0  0  0  0  0  0  0  0  0  0
   55.6004   23.7829   44.5401 H   0  0  0  0  0  0  0  0  0  0  0  0
   53.7790   25.3340   44.8870 H   0  0  0  0  0  0  0  0  0  0  0  0
   56.0140   27.3280   46.9455 H   0  0  0  0  0  0  0  0  0  0  0  0
   60.0225   25.7269   48.0972 H   0  0  0  0  0  0  0  0  0  0  0  0
  1  2  1  0
  2  3  2  0
  3  4  1  0
  4  5  1  0
  5  6  2  0
  6  7  1  0
  7  8  2  0
  8  9  1  0
  9 10  2  0
 10 11  1  0
 11 12  1  0
 12 13  1  0
 13 14  1  0
 13 15  2  0
 13 16  2  0
 11 17  2  0
  5 18  1  0
 18 19  1  0
 19 20  2  0
 20 21  1  0
 21 22  1  0
 22 23  2  0
 23 24  1  0
 24 25  2  0
 25 26  1  0
 26 27  1  0
 26 28  2  0
 21 29  2  0
 29 30  1  0
 30 31  2  0
 31  3  1  0
 17  7  1  0
 31 19  1  0
 28 22  1  0
  1 32  1  0
  1 33  1  0
  1 34  1  0
  4 35  1  0
  8 36  1  0
  9 37  1  0
 10 38  1  0
 12 39  1  0
 14 40  1  0
 14 41  1  0
 14 42  1  0
 17 43  1  0
 18 44  1  0
 20 45  1  0
 23 46  1  0
 24 47  1  0
 25 48  1  0
 27 49  1  0
 28 50  1  0
 29 51  1  0
M  END
>  <smiles>  (6) 
CN=c1[nH]c(=Nc2cccc(NS(C)(=O)=O)c2)[nH]c2cc(-c3cccc(O)c3)cnc12

>  <score_type>  (6) 
oracle

>  <origin>  (6) 
adg

>  <m_score__min__energy>  (6) 
-9.5500000000000007

>  <m_primary>  (6) 
energy

$$$$
6:0
     RDKit          3D

 42 44  0  0  0  0  0  0  0  0999 V2000
   59.0460   30.1090   47.7900 C   0  0  0  0  0  0  0  0  0  0  0  0
   58.4260   29.1880   46.7870 C   0  0  0  0  0  0  0  0  0  0  0  0
   58.5350   27.8380   46.9290 N   0  0  0  0  0  0  0  0  0  0  0  0
   57.8670   27.1620   45.9670 C   0  0  0  0  0  0  0  0  0  0  0  0
   57.9040   25.6910   45.8380 C   0  0  0  0  0  0  0  0  0  0  0  0
   59.1580   25.0630   45.7820 C   0  0  0  0  0  0  0  0  0  0  0  0
   59.2510   23.6920   45.5410 C   0  0  0  0  0  0  0  0  0  0  0  0
   58.0860   22.9530   45.3580 C   0  0  0  0  0  0  0  0  0  0  0  0
   56.8740   23.5600   45.4480 N   0  0  0  0  0  0  0  0  0  0  0  0
   56.7400   24.8930   45.6960 C   0  0  0  0  0  0  0  0  0  0  0  0
   55.3730   25.4200   45.8780 C   0  0  0  0  0  0  0  0  0  0  0  0
   54.4050   24.6230   45.9960 O   0  0  0  0  0  0  0  0  0  0  0  0
   55.1410   26.7850   46.0030 O   0  0  0  0  0  0  0  0  0  0  0  0
   57.1560   28.2180   44.8670 S   0  0  0  0  0  0  0  0  0  0  0  0
   57.6980   29.5990   45.6610 C   0  0  0  0  0  0  0  0  0  0  0  0
   57.3940   30.9720   45.2160 C   0  0  0  0  0  0  0  0  0  0  0  0
   56.3500   31.1760   44.5400 O   0  0  0  0  0  0  0  0  0  0  0  0
   58.2850   32.0600   45.4970 N   0  0  0  0  0  0  0  0  0  0  0  0
   57.8860   33.4470   45.2600 C   0  0  0  0  0  0  0  0  0  0  0  0
   59.1090   34.3690   45.2310 C   0  0  0  0  0  0  0  0  0  0  0  0
   59.8960   34.2460   46.5070 C   0  0  0  0  0  0  0  0  0  0  0  0
   59.2720   34.4510   47.7480 C   0  0  0  0  0  0  0  0  0  0  0  0
   59.9970   34.3040   48.9350 C   0  0  0  0  0  0  0  0  0  0  0  0
   61.3470   33.9440   48.8910 C   0  0  0  0  0  0  0  0  0  0  0  0
   61.9720   33.7260   47.6600 C   0  0  0  0  0  0  0  0  0  0  0  0
   61.2490   33.8710   46.4710 C   0  0  0  0  0  0  0  0  0  0  0  0
   58.8097   29.7580   48.8054 H   0  0  0  0  0  0  0  0  0  0  0  0
   60.1371   30.1215   47.6510 H   0  0  0  0  0  0  0  0  0  0  0  0
   58.6470   31.1246   47.6510 H   0  0  0  0  0  0  0  0  0  0  0  0
   60.0731   25.6555   45.9290 H   0  0  0  0  0  0  0  0  0  0  0  0
   60.2341   23.2006   45.4961 H   0  0  0  0  0  0  0  0  0  0  0  0
   58.1466   21.8765   45.1403 H   0  0  0  0  0  0  0  0  0  0  0  0
   59.2510   31.8510   45.8320 H   0  0  0  0  0  0  0  0  0  0  0  0
   57.3630   33.5116   44.2944 H   0  0  0  0  0  0  0  0  0  0  0  0
   57.2232   33.7671   46.0774 H   0  0  0  0  0  0  0  0  0  0  0  0
   59.7511   34.0910   44.3822 H   0  0  0  0  0  0  0  0  0  0  0  0
   58.7664   35.4089   45.1249 H   0  0  0  0  0  0  0  0  0  0  0  0
   58.2083   34.7284   47.7869 H   0  0  0  0  0  0  0  0  0  0  0  0
   59.5044   34.4718   49.9041 H   0  0  0  0  0  0  0  0  0  0  0  0
   61.9173   33.8323   49.8250 H   0  0  0  0  0  0  0  0  0  0  0  0
   63.0336   33.4401   47.6260 H   0  0  0  0  0  0  0  0  0  0  0  0
   61.7421   33.6906   45.5044 H   0  0  0  0  0  0  0  0  0  0  0  0
  1  2  1  0
  2  3  1  0
  3  4  2  0
  4  5  1  0
  5  6  2  0
  6  7  1  0
  7  8  2  0
  8  9  1  0
  9 10  2  0
 10 11  1  0
 11 12  2  0
 11 13  1  0
  4 14  1  0
 14 15  1  0
 15 16  1  0
 16 17  2  0
 16 18  1  0
 18 19  1  0
 19 20  1  0
 20 21  1  0
 21 22  2  0
 22 23  1  0
 23 24  2  0
 24 25  1  0
 25 26  2  0
 15  2  2  0
 26 21  1  0
 10  5  1  0
  1 27  1  0
  1 28  1  0
  1 29  1  0
  6 30  1  0
  7 31  1  0
  8 32  1  0
 18 33  1  0
 19 34  1  0
 19 35  1  0
 20 36  1  0
 20 37  1  0
 22 38  1  0
 23 39  1  0
 24 40  1  0
 25 41  1  0
 26 42  1  0
M  CHG  1  13  -1
M  END
>  <UniqueID>  (7) 
6

>  <SMILES>  (7) 
Cc1nc(-c2cccnc2C(=O)[O-])sc1C(=O)NCCc1ccccc1

>  <Energy>  (7) 
81.17614946673055

>  <Genealogy>  (7) 
Cc1nc(-c2cccnc2C(=O)[O-])sc1C(=O)NCCc1ccccc1 (protonated)
Cc1nc(-c2cccnc2C(=O)[O-])sc1C(=O)NCCc1ccccc1 (3D coordinates assigned)
Cc1nc(-c2cccnc2C(=O)[O-])sc1C(=O)NCCc1ccccc1 (optimized conformer: 81.17614946673055 kcal/mol)

>  <smiles>  (7) 
Cc1nc(-c2cccnc2C(=O)O)sc1C(=O)NCCc1ccccc1

>  <score_type>  (7) 
oracle

>  <origin>  (7) 
adg

>  <m_score__min__energy>  (7) 
-11.18

>  <m_primary>  (7) 
energy

$$$$
7:0
     RDKit          3D

 46 48  0  0  0  0  0  0  0  0999 V2000
   67.5260   33.1840   50.5010 C   0  0  0  0  0  0  0  0  0  0  0  0
   66.2380   33.1560   51.1070 O   0  0  0  0  0  0  0  0  0  0  0  0
   65.1000   32.5740   50.5280 C   0  0  0  0  0  0  0  0  0  0  0  0
   64.4330   31.4840   51.1100 C   0  0  0  0  0  0  0  0  0  0  0  0
   63.2880   30.9340   50.5020 C   0  0  0  0  0  0  0  0  0  0  0  0
   62.5890   29.8650   51.0890 O   0  0  0  0  0  0  0  0  0  0  0  0
   63.1000   29.0240   52.1170 C   0  0  0  0  0  0  0  0  0  0  0  0
   62.8150   31.4760   49.2870 C   0  0  0  0  0  0  0  0  0  0  0  0
   61.5690   30.9390   48.6920 C   0  0  0  0  0  0  0  0  0  0  0  0
   60.6460   30.5270   49.4470 O   0  0  0  0  0  0  0  0  0  0  0  0
   61.3850   30.9500   47.2670 N   0  0  0  0  0  0  0  0  0  0  0  0
   60.3570   30.2070   46.5890 C   0  0  0  0  0  0  0  0  0  0  0  0
   60.4000   28.8060   46.5930 C   0  0  0  0  0  0  0  0  0  0  0  0
   59.4090   28.0670   45.9400 C   0  0  0  0  0  0  0  0  0  0  0  0
   58.3600   28.7210   45.2900 C   0  0  0  0  0  0  0  0  0  0  0  0
   58.2860   30.1200   45.3060 C   0  0  0  0  0  0  0  0  0  0  0  0
   56.9620   30.9440   44.4880 S   0  0  0  0  0  0  0  0  0  0  0  0
   55.7250   30.0900   44.5030 O   0  0  0  0  0  0  0  0  0  0  0  0
   57.3410   31.2000   43.0570 O   0  0  0  0  0  0  0  0  0  0  0  0
   56.6400   32.4590   45.2680 N   0  0  0  0  0  0  0  0  0  0  0  0
   57.5730   33.2480   45.7040 C   0  0  0  0  0  0  0  0  0  0  0  0
   57.8250   33.4720   47.0130 N   0  0  0  0  0  0  0  0  0  0  0  0
   58.8570   34.3400   47.1790 C   0  0  0  0  0  0  0  0  0  0  0  0
   59.4280   34.8110   46.0000 C   0  0  0  0  0  0  0  0  0  0  0  0
   58.6080   34.1110   44.7050 S   0  0  0  0  0  0  0  0  0  0  0  0
   59.2800   30.8590   45.9610 C   0  0  0  0  0  0  0  0  0  0  0  0
   63.5060   32.5560   48.6830 C   0  0  0  0  0  0  0  0  0  0  0  0
   63.1160   33.0770   47.3990 N   0  0  0  0  0  0  0  0  0  0  0  0
   63.7810   32.7980   46.3800 O   0  0  0  0  0  0  0  0  0  0  0  0
   61.9090   33.7200   47.2490 O   0  0  0  0  0  0  0  0  0  0  0  0
   64.6290   33.1010   49.3260 C   0  0  0  0  0  0  0  0  0  0  0  0
   68.2990   33.2008   51.2834 H   0  0  0  0  0  0  0  0  0  0  0  0
   67.6566   32.2885   49.8757 H   0  0  0  0  0  0  0  0  0  0  0  0
   67.6175   34.0843   49.8757 H   0  0  0  0  0  0  0  0  0  0  0  0
   64.8088   31.0552   52.0507 H   0  0  0  0  0  0  0  0  0  0  0  0
   62.8426   29.4476   53.0990 H   0  0  0  0  0  0  0  0  0  0  0  0
   62.6586   28.0208   52.0233 H   0  0  0  0  0  0  0  0  0  0  0  0
   64.1937   28.9536   52.0233 H   0  0  0  0  0  0  0  0  0  0  0  0
   61.9780   31.6020   46.7030 H   0  0  0  0  0  0  0  0  0  0  0  0
   61.2178   28.2852   47.1127 H   0  0  0  0  0  0  0  0  0  0  0  0
   59.4556   26.9680   45.9382 H   0  0  0  0  0  0  0  0  0  0  0  0
   57.5904   28.1366   44.7645 H   0  0  0  0  0  0  0  0  0  0  0  0
   59.2151   34.6481   48.1724 H   0  0  0  0  0  0  0  0  0  0  0  0
   60.2682   35.5172   45.9265 H   0  0  0  0  0  0  0  0  0  0  0  0
   59.2179   31.9570   45.9844 H   0  0  0  0  0  0  0  0  0  0  0  0
   65.1467   33.9595   48.8732 H   0  0  0  0  0  0  0  0  0  0  0  0
  1  2  1  0
  2  3  1  0
  3  4  2  0
  4  5  1  0
  5  6  1  0
  6  7  1  0
  5  8  2  0
  8  9  1  0
  9 10  2  0
  9 11  1  0
 11 12  1  0
 12 13  2  0
 13 14  1  0
 14 15  2  0
 15 16  1  0
 16 17  1  0
 17 18  2  0
 17 19  2  0
 17 20  1  0
 20 21  2  3
 21 22  1  0
 22 23  1  0
 23 24  2  0
 24 25  1  0
 16 26  2  0
  8 27  1  0
 27 28  1  0
 28 29  2  0
 28 30  1  0
 27 31  2  0
 31  3  1  0
 26 12  1  0
 25 21  1  0
  1 32  1  0
  1 33  1  0
  1 34  1  0
  4 35  1  0
  7 36  1  0
  7 37  1  0
  7 38  1  0
 11 39  1  0
 13 40  1  0
 14 41  1  0
 15 42  1  0
 23 43  1  0
 24 44  1  0
 26 45  1  0
 31 46  1  0
M  CHG  3  22  -1  28   1  30  -1
M  END
>  <UniqueID>  (8) 
7

>  <SMILES>  (8) 
COc1cc(OC)c(C(=O)Nc2cccc(S(=O)(=O)N=c3[n-]ccs3)c2)c([N+](=O)[O-])c1

>  <Energy>  (8) 
92.9837980237992

>  <Genealogy>  (8) 
COc1cc(OC)c(C(=O)Nc2cccc(S(=O)(=O)N=c3[n-]ccs3)c2)c([N+](=O)[O-])c1 (protonated)
COc1cc(OC)c(C(=O)Nc2cccc(S(=O)(=O)N=c3[n-]ccs3)c2)c([N+](=O)[O-])c1 (3D coordinates assigned)
COc1cc(OC)c(C(=O)Nc2cccc(S(=O)(=O)N=c3[n-]ccs3)c2)c([N+](=O)[O-])c1 (optimized conformer: 92.9837980237992 kcal/mol)

>  <smiles>  (8) 
COc1cc(OC)c(C(=O)Nc2cccc(S(=O)(=O)N=c3[nH]ccs3)c2)c([N+](=O)[O-])c1

>  <score_type>  (8) 
oracle

>  <origin>  (8) 
adg

>  <m_score__min__energy>  (8) 
-10.140000000000001

>  <m_primary>  (8) 
energy

$$$$
8:0
     RDKit          3D

 30 32  0  0  0  0  0  0  0  0999 V2000
   58.3980   34.4340   46.0910 O   0  0  0  0  0  0  0  0  0  0  0  0
   59.4980   33.8540   46.2980 C   0  0  0  0  0  0  0  0  0  0  0  0
   60.5690   34.5940   46.8920 N   0  0  0  0  0  0  0  0  0  0  0  0
   61.7190   34.0260   47.5340 C   0  0  0  0  0  0  0  0  0  0  0  0
   62.8110   33.6430   46.7440 C   0  0  0  0  0  0  0  0  0  0  0  0
   63.9550   33.0990   47.3350 C   0  0  0  0  0  0  0  0  0  0  0  0
   64.0240   32.9540   48.7230 C   0  0  0  0  0  0  0  0  0  0  0  0
   62.9540   33.3630   49.5230 C   0  0  0  0  0  0  0  0  0  0  0  0
   61.8060   33.9070   48.9360 C   0  0  0  0  0  0  0  0  0  0  0  0
   60.8100   34.3610   49.7390 F   0  0  0  0  0  0  0  0  0  0  0  0
   59.7000   32.5040   45.8500 N   0  0  0  0  0  0  0  0  0  0  0  0
   58.6320   31.5890   45.5460 C   0  0  0  0  0  0  0  0  0  0  0  0
   57.5280   31.9830   44.7420 C   0  0  0  0  0  0  0  0  0  0  0  0
   56.4780   31.0870   44.4740 C   0  0  0  0  0  0  0  0  0  0  0  0
   56.5480   29.8120   45.0290 C   0  0  0  0  0  0  0  0  0  0  0  0
   55.6440   28.8240   44.8920 N   0  0  0  0  0  0  0  0  0  0  0  0
   56.1630   27.8090   45.6220 C   0  0  0  0  0  0  0  0  0  0  0  0
   55.5380   26.5760   45.7530 O   0  0  0  0  0  0  0  0  0  0  0  0
   57.3720   28.1380   46.2160 C   0  0  0  0  0  0  0  0  0  0  0  0
   57.6010   29.4330   45.8200 C   0  0  0  0  0  0  0  0  0  0  0  0
   58.6560   30.2940   46.1070 C   0  0  0  0  0  0  0  0  0  0  0  0
   62.7678   33.7712   45.6523 H   0  0  0  0  0  0  0  0  0  0  0  0
   64.8016   32.7848   46.7069 H   0  0  0  0  0  0  0  0  0  0  0  0
   64.9212   32.5176   49.1862 H   0  0  0  0  0  0  0  0  0  0  0  0
   63.0141   33.2572   50.6162 H   0  0  0  0  0  0  0  0  0  0  0  0
   60.6800   32.1970   45.6560 H   0  0  0  0  0  0  0  0  0  0  0  0
   57.4947   33.0003   44.3248 H   0  0  0  0  0  0  0  0  0  0  0  0
   55.6264   31.3846   43.8445 H   0  0  0  0  0  0  0  0  0  0  0  0
   58.0035   27.5061   46.8578 H   0  0  0  0  0  0  0  0  0  0  0  0
   59.4863   29.9739   46.7537 H   0  0  0  0  0  0  0  0  0  0  0  0
  1  2  2  0
  2  3  1  0
  3  4  1  0
  4  5  2  0
  5  6  1  0
  6  7  2  0
  7  8  1  0
  8  9  2  0
  9 10  1  0
  2 11  1  0
 11 12  1  0
 12 13  2  0
 13 14  1  0
 14 15  2  0
 15 16  1  0
 16 17  1  0
 17 18  1  0
 17 19  2  0
 19 20  1  0
 20 21  2  0
  9  4  1  0
 21 12  1  0
 20 15  1  0
  5 22  1  0
  6 23  1  0
  7 24  1  0
  8 25  1  0
 11 26  1  0
 13 27  1  0
 14 28  1  0
 19 29  1  0
 21 30  1  0
M  CHG  3   3  -1  16  -1  18  -1
M  END
>  <UniqueID>  (9) 
8

>  <SMILES>  (9) 
O=C([N-]c1ccccc1F)Nc1ccc2[n-]c([O-])cc2c1

>  <Energy>  (9) 
73.05295891437312

>  <Genealogy>  (9) 
O=C([N-]c1ccccc1F)Nc1ccc2[n-]c([O-])cc2c1 (protonated)
O=C([N-]c1ccccc1F)Nc1ccc2[n-]c([O-])cc2c1 (3D coordinates assigned)
O=C([N-]c1ccccc1F)Nc1ccc2[n-]c([O-])cc2c1 (optimized conformer: 73.05295891437312 kcal/mol)

>  <smiles>  (9) 
O=C(Nc1ccc2[nH]c(O)cc2c1)Nc1ccccc1F

>  <score_type>  (9) 
oracle

>  <origin>  (9) 
adg

>  <m_score__min__energy>  (9) 
-12.890000000000001

>  <m_primary>  (9) 
energy

$$$$
9:0
     RDKit          3D

 44 46  0  0  0  0  0  0  0  0999 V2000
   54.8990   25.0190   45.6510 C   0  0  0  0  0  0  0  0  0  0  0  0
   55.1570   26.4100   46.0090 N   0  0  0  0  0  0  0  0  0  0  0  0
   56.8430   26.7670   45.7940 S   0  0  0  0  0  0  0  0  0  0  0  0
   57.5860   26.4290   47.0550 O   0  0  0  0  0  0  0  0  0  0  0  0
   57.3920   25.9340   44.6700 O   0  0  0  0  0  0  0  0  0  0  0  0
   57.0590   28.4820   45.4480 C   0  0  0  0  0  0  0  0  0  0  0  0
   56.2620   29.1260   44.4890 C   0  0  0  0  0  0  0  0  0  0  0  0
   56.4430   30.4860   44.2230 C   0  0  0  0  0  0  0  0  0  0  0  0
   57.4200   31.2120   44.9100 C   0  0  0  0  0  0  0  0  0  0  0  0
   57.5920   32.5310   44.6510 N   0  0  0  0  0  0  0  0  0  0  0  0
   58.5350   33.2590   45.2990 C   0  0  0  0  0  0  0  0  0  0  0  0
   59.3480   32.6770   46.2320 N   0  0  0  0  0  0  0  0  0  0  0  0
   60.3370   33.5170   46.9280 C   0  0  0  0  0  0  0  0  0  0  0  0
   59.8740   33.8050   48.3240 C   0  0  0  0  0  0  0  0  0  0  0  0
   59.3940   34.9400   48.5930 O   0  0  0  0  0  0  0  0  0  0  0  0
   59.9510   32.7880   49.3340 N   0  0  0  0  0  0  0  0  0  0  0  0
   59.3330   32.9170   50.6250 C   0  0  0  0  0  0  0  0  0  0  0  0
   59.2770   34.1820   51.2400 C   0  0  0  0  0  0  0  0  0  0  0  0
   58.6050   34.3550   52.4500 C   0  0  0  0  0  0  0  0  0  0  0  0
   57.9780   33.2730   53.0620 C   0  0  0  0  0  0  0  0  0  0  0  0
   58.0230   32.0090   52.4670 C   0  0  0  0  0  0  0  0  0  0  0  0
   58.7000   31.8090   51.2480 C   0  0  0  0  0  0  0  0  0  0  0  0
   58.7690   30.4370   50.6830 C   0  0  0  0  0  0  0  0  0  0  0  0
   59.9440   30.0010   49.9980 N   0  0  0  0  0  0  0  0  0  0  0  0
   57.7830   29.6570   50.7660 O   0  0  0  0  0  0  0  0  0  0  0  0
   59.2000   31.3470   46.5380 C   0  0  0  0  0  0  0  0  0  0  0  0
   59.9370   30.8090   47.4120 O   0  0  0  0  0  0  0  0  0  0  0  0
   58.2270   30.5760   45.8750 C   0  0  0  0  0  0  0  0  0  0  0  0
   58.0390   29.2080   46.1410 C   0  0  0  0  0  0  0  0  0  0  0  0
   54.7878   24.4194   46.5665 H   0  0  0  0  0  0  0  0  0  0  0  0
   53.9743   24.9584   45.0584 H   0  0  0  0  0  0  0  0  0  0  0  0
   55.7405   24.6308   45.0584 H   0  0  0  0  0  0  0  0  0  0  0  0
   55.4925   28.5586   43.9450 H   0  0  0  0  0  0  0  0  0  0  0  0
   55.8150   30.9863   43.4711 H   0  0  0  0  0  0  0  0  0  0  0  0
   58.6472   34.3294   45.0716 H   0  0  0  0  0  0  0  0  0  0  0  0
   61.3012   32.9888   46.9658 H   0  0  0  0  0  0  0  0  0  0  0  0
   60.4520   34.4656   46.3831 H   0  0  0  0  0  0  0  0  0  0  0  0
   60.4980   31.9220   49.1270 H   0  0  0  0  0  0  0  0  0  0  0  0
   59.7679   35.0424   50.7617 H   0  0  0  0  0  0  0  0  0  0  0  0
   58.5704   35.3482   52.9216 H   0  0  0  0  0  0  0  0  0  0  0  0
   57.4466   33.4130   54.0149 H   0  0  0  0  0  0  0  0  0  0  0  0
   57.5236   31.1600   52.9567 H   0  0  0  0  0  0  0  0  0  0  0  0
   59.8980   29.6900   49.0020 H   0  0  0  0  0  0  0  0  0  0  0  0
   58.6626   28.7055   46.8951 H   0  0  0  0  0  0  0  0  0  0  0  0
  1  2  1  0
  2  3  1  0
  3  4  2  0
  3  5  2  0
  3  6  1  0
  6  7  2  0
  7  8  1  0
  8  9  2  0
  9 10  1  0
 10 11  2  0
 11 12  1  0
 12 13  1  0
 13 14  1  0
 14 15  2  0
 14 16  1  0
 16 17  1  0
 17 18  2  0
 18 19  1  0
 19 20  2  0
 20 21  1  0
 21 22  2  0
 22 23  1  0
 23 24  1  0
 23 25  2  0
 12 26  1  0
 26 27  2  0
 26 28  1  0
 28 29  2  0
 29  6  1  0
 28  9  1  0
 22 17  1  0
  1 30  1  0
  1 31  1  0
  1 32  1  0
  7 33  1  0
  8 34  1  0
 11 35  1  0
 13 36  1  0
 13 37  1  0
 16 38  1  0
 18 39  1  0
 19 40  1  0
 20 41  1  0
 21 42  1  0
 24 43  1  0
 29 44  1  0
M  CHG  2   2  -1  24  -1
M  END
>  <UniqueID>  (10) 
9

>  <SMILES>  (10) 
C[N-]S(=O)(=O)c1ccc2ncn(CC(=O)Nc3ccccc3C([NH-])=O)c(=O)c2c1

>  <Energy>  (10) 
56.657457574408795

>  <Genealogy>  (10) 
C[N-]S(=O)(=O)c1ccc2ncn(CC(=O)Nc3ccccc3C([NH-])=O)c(=O)c2c1 (protonated)
C[N-]S(=O)(=O)c1ccc2ncn(CC(=O)Nc3ccccc3C([NH-])=O)c(=O)c2c1 (3D coordinates assigned)
C[N-]S(=O)(=O)c1ccc2ncn(CC(=O)Nc3ccccc3C([NH-])=O)c(=O)c2c1 (optimized conformer: 56.657457574408795 kcal/mol)

>  <smiles>  (10) 
CNS(=O)(=O)c1ccc2ncn(CC(=O)Nc3ccccc3C(N)=O)c(=O)c2c1

>  <score_type>  (10) 
oracle

>  <origin>  (10) 
adg

>  <m_score__min__energy>  (10) 
-12.09

>  <m_primary>  (10) 
energy

$$$$
10:0
     RDKit          3D

 59 63  0  0  1  0  0  0  0  0999 V2000
   55.3230   29.3710   45.1130 O   0  0  0  0  0  0  0  0  0  0  0  0
   56.5220   29.6470   44.9920 C   0  0  0  0  0  0  0  0  0  0  0  0
   58.6990   33.9850   47.1770 N   0  0  0  0  0  0  0  0  0  0  0  0
   58.3910   33.3880   46.0980 C   0  0  0  0  0  0  0  0  0  0  0  0
   57.8070   26.7300   46.8530 C   0  0  0  0  0  0  0  0  0  0  0  0
   57.0060   25.6070   47.0020 C   0  0  0  0  0  0  0  0  0  0  0  0
   55.8810   25.8300   46.3680 O   0  0  0  0  0  0  0  0  0  0  0  0
   55.9140   27.0150   45.8300 N   0  0  0  0  0  0  0  0  0  0  0  0
   57.0530   30.7380   44.1780 C   0  0  0  0  0  0  0  0  0  0  0  0
   57.0030   30.6710   42.7850 C   0  0  0  0  0  0  0  0  0  0  0  0
   57.4930   31.6800   41.9810 C   0  0  0  0  0  0  0  0  0  0  0  0
   58.0450   32.7760   42.6100 C   0  0  0  0  0  0  0  0  0  0  0  0
   58.0790   32.8080   43.9880 C   0  0  0  0  0  0  0  0  0  0  0  0
   58.5700   33.7770   44.8140 N   0  0  0  0  0  0  0  0  0  0  0  0
   57.0740   27.6270   46.0900 C   0  0  0  0  0  0  0  0  0  0  0  0
   57.4530   28.8180   45.7140 N   0  0  0  0  0  0  0  0  0  0  0  0
   59.9400   33.7410   47.8310 C   0  0  0  0  0  0  0  0  0  0  0  0
   60.2720   34.4910   48.9410 C   0  0  0  0  0  0  0  0  0  0  0  0
   61.4760   34.2340   49.5540 C   0  0  0  0  0  0  0  0  0  0  0  0
   62.2980   33.2420   49.0400 C   0  0  0  0  0  0  0  0  0  0  0  0
   63.8590   32.8830   49.7990 S   0  0  0  0  0  0  0  0  0  0  0  0
   63.8770   31.4150   50.0700 O   0  0  0  0  0  0  0  0  0  0  0  0
   64.9960   33.1930   48.8880 O   0  0  0  0  0  0  0  0  0  0  0  0
   64.0450   33.8150   51.2410 N   0  0  0  0  0  0  0  0  0  0  0  0
   65.4220   34.2130   51.4630 C   0  0  0  0  0  0  0  0  0  0  0  0
   65.9950   33.2550   52.4840 C   0  0  0  0  0  0  0  0  0  0  0  0
   67.3360   32.8420   52.1910 N   0  0  0  0  0  0  0  0  0  0  0  0
   67.6630   31.5830   52.8150 C   0  0  0  0  0  0  0  0  0  0  0  0
   67.2310   30.5030   51.8400 C   0  0  0  0  0  0  0  0  0  0  0  0
   66.7790   31.2540   50.6100 C   0  0  0  0  0  0  0  0  0  0  0  0
   67.4540   32.5940   50.7720 C   0  0  0  0  0  0  0  0  0  0  0  0
   61.9720   32.4920   47.9350 C   0  0  0  0  0  0  0  0  0  0  0  0
   60.7520   32.7550   47.3170 C   0  0  0  0  0  0  0  0  0  0  0  0
   57.7840   32.1670   46.0520 N   0  0  0  0  0  0  0  0  0  0  0  0
   57.5990   31.8250   44.7700 N   0  0  0  0  0  0  0  0  0  0  0  0
   58.8188   26.8789   47.2581 H   0  0  0  0  0  0  0  0  0  0  0  0
   57.2685   24.6924   47.5540 H   0  0  0  0  0  0  0  0  0  0  0  0
   55.1430   27.4510   45.2650 H   0  0  0  0  0  0  0  0  0  0  0  0
   56.5578   29.7835   42.3116 H   0  0  0  0  0  0  0  0  0  0  0  0
   57.4452   31.6128   40.8841 H   0  0  0  0  0  0  0  0  0  0  0  0
   58.4518   33.6116   42.0216 H   0  0  0  0  0  0  0  0  0  0  0  0
   59.5952   35.2694   49.3232 H   0  0  0  0  0  0  0  0  0  0  0  0
   61.7832   34.8079   50.4407 H   0  0  0  0  0  0  0  0  0  0  0  0
   63.4290   34.6450   51.1470 H   0  0  0  0  0  0  0  0  0  0  0  0
   65.9906   34.1497   50.5235 H   0  0  0  0  0  0  0  0  0  0  0  0
   65.4798   35.2517   51.8205 H   0  0  0  0  0  0  0  0  0  0  0  0
   65.9898   33.7493   53.4667 H   0  0  0  0  0  0  0  0  0  0  0  0
   65.3675   32.3517   52.4681 H   0  0  0  0  0  0  0  0  0  0  0  0
   68.7454   31.5189   53.0002 H   0  0  0  0  0  0  0  0  0  0  0  0
   67.1570   31.4730   53.7855 H   0  0  0  0  0  0  0  0  0  0  0  0
   68.0734   29.8376   51.6002 H   0  0  0  0  0  0  0  0  0  0  0  0
   66.4362   29.8641   52.2526 H   0  0  0  0  0  0  0  0  0  0  0  0
   67.1143   30.7495   49.6918 H   0  0  0  0  0  0  0  0  0  0  0  0
   65.6850   31.3247   50.5195 H   0  0  0  0  0  0  0  0  0  0  0  0
   68.5090   32.5460   50.4645 H   0  0  0  0  0  0  0  0  0  0  0  0
   67.0061   33.3851   50.1527 H   0  0  0  0  0  0  0  0  0  0  0  0
   62.6491   31.7136   47.5534 H   0  0  0  0  0  0  0  0  0  0  0  0
   60.4414   32.1828   46.4304 H   0  0  0  0  0  0  0  0  0  0  0  0
   57.5180   31.6130   46.9090 H   0  0  0  0  0  0  0  0  0  0  0  0
  1  2  2  0
  2  3  1  0
  3  4  2  0
  4  5  1  0
  5  6  2  0
  6  7  1  0
  7  8  1  0
  2  9  1  0
  9 10  2  0
 10 11  1  0
 11 12  2  0
 12 13  1  0
 13 14  2  0
 14 15  1  0
 15 16  2  0
 16 17  1  0
 17 18  2  0
 18 19  1  0
 19 20  2  0
 20 21  1  0
 21 22  2  0
 21 23  2  0
 21 24  1  0
 24 25  1  0
 25 26  1  0
 26 27  1  0
 27 28  1  0
 28 29  1  0
 29 30  1  0
 30 31  1  0
 20 32  1  0
 32 33  2  0
 15 34  1  0
 34 35  1  0
  8  4  1  0
 35  9  1  0
 35 13  1  0
 33 17  1  0
 31 27  1  0
  5 36  1  0
  6 37  1  0
  8 38  1  0
 10 39  1  0
 11 40  1  0
 12 41  1  0
 18 42  1  0
 19 43  1  0
 24 44  1  0
 25 45  1  0
 25 46  1  0
 26 47  1  0
 26 48  1  0
 28 49  1  0
 28 50  1  0
 29 51  1  0
 29 52  1  0
 30 53  1  0
 30 54  1  0
 31 55  1  0
 31 56  1  0
 32 57  1  0
 33 58  1  0
 34 59  1  0
M  END
>  <smiles>  (11) 
O=C(N=c1cco[nH]1)c1cccc2nc(=Nc3ccc(S(=O)(=O)NCCN4CCCC4)cc3)[nH]n12

>  <score_type>  (11) 
oracle

>  <origin>  (11) 
adg

>  <m_score__min__energy>  (11) 
-10.35

>  <m_primary>  (11) 
energy

$$$$
11:0
     RDKit          3D

 51 54  0  0  0  0  0  0  0  0999 V2000
   63.7830   33.7180   49.6760 C   0  0  0  0  0  0  0  0  0  0  0  0
   62.8040   32.8850   48.9030 C   0  0  0  0  0  0  0  0  0  0  0  0
   63.2520   32.0450   47.8700 C   0  0  0  0  0  0  0  0  0  0  0  0
   62.3390   31.2900   47.1320 C   0  0  0  0  0  0  0  0  0  0  0  0
   60.9710   31.3780   47.4050 C   0  0  0  0  0  0  0  0  0  0  0  0
   60.5060   32.2400   48.4100 C   0  0  0  0  0  0  0  0  0  0  0  0
   59.0390   32.3180   48.7210 C   0  0  0  0  0  0  0  0  0  0  0  0
   58.7930   31.7300   50.0330 N   0  0  0  0  0  0  0  0  0  0  0  0
   58.4260   30.3620   50.2400 C   0  0  0  0  0  0  0  0  0  0  0  0
   57.3830   30.1010   50.8940 O   0  0  0  0  0  0  0  0  0  0  0  0
   59.2350   29.2520   49.6970 C   0  0  0  0  0  0  0  0  0  0  0  0
   60.1370   28.5990   50.5490 C   0  0  0  0  0  0  0  0  0  0  0  0
   60.8940   27.5270   50.0720 C   0  0  0  0  0  0  0  0  0  0  0  0
   61.7050   26.9380   50.8340 O   0  0  0  0  0  0  0  0  0  0  0  0
   60.7540   27.1130   48.7870 N   0  0  0  0  0  0  0  0  0  0  0  0
   59.8920   27.7160   47.9270 C   0  0  0  0  0  0  0  0  0  0  0  0
   59.7860   27.2480   46.6130 C   0  0  0  0  0  0  0  0  0  0  0  0
   58.9120   27.8630   45.7170 C   0  0  0  0  0  0  0  0  0  0  0  0
   58.1410   28.9600   46.1220 C   0  0  0  0  0  0  0  0  0  0  0  0
   57.0250   29.7150   44.9850 S   0  0  0  0  0  0  0  0  0  0  0  0
   57.4560   29.4310   43.5740 O   0  0  0  0  0  0  0  0  0  0  0  0
   55.6510   29.1390   45.1860 O   0  0  0  0  0  0  0  0  0  0  0  0
   56.9660   31.4330   45.2480 N   0  0  0  0  0  0  0  0  0  0  0  0
   58.0730   32.0800   44.5420 C   0  0  0  0  0  0  0  0  0  0  0  0
   58.5180   33.2850   45.3050 C   0  0  0  0  0  0  0  0  0  0  0  0
   59.5420   34.1360   44.9420 C   0  0  0  0  0  0  0  0  0  0  0  0
   59.6140   35.0770   45.9470 C   0  0  0  0  0  0  0  0  0  0  0  0
   58.6340   34.7380   46.8600 C   0  0  0  0  0  0  0  0  0  0  0  0
   58.0010   33.6630   46.4510 O   0  0  0  0  0  0  0  0  0  0  0  0
   58.2360   29.4300   47.4390 C   0  0  0  0  0  0  0  0  0  0  0  0
   59.1040   28.8100   48.3600 C   0  0  0  0  0  0  0  0  0  0  0  0
   61.4290   32.9860   49.1620 C   0  0  0  0  0  0  0  0  0  0  0  0
   63.6153   33.5753   50.7537 H   0  0  0  0  0  0  0  0  0  0  0  0
   64.8079   33.4108   49.4206 H   0  0  0  0  0  0  0  0  0  0  0  0
   63.6438   34.7788   49.4206 H   0  0  0  0  0  0  0  0  0  0  0  0
   64.3262   31.9820   47.6419 H   0  0  0  0  0  0  0  0  0  0  0  0
   62.6971   30.6238   46.3333 H   0  0  0  0  0  0  0  0  0  0  0  0
   60.2569   30.7698   46.8304 H   0  0  0  0  0  0  0  0  0  0  0  0
   58.7194   33.3705   48.7242 H   0  0  0  0  0  0  0  0  0  0  0  0
   58.4704   31.7669   47.9575 H   0  0  0  0  0  0  0  0  0  0  0  0
   60.2482   28.9308   51.5919 H   0  0  0  0  0  0  0  0  0  0  0  0
   60.3941   26.3919   46.2853 H   0  0  0  0  0  0  0  0  0  0  0  0
   58.8277   27.4848   44.6875 H   0  0  0  0  0  0  0  0  0  0  0  0
   57.1000   31.5850   46.2740 H   0  0  0  0  0  0  0  0  0  0  0  0
   58.9116   31.3740   44.4510 H   0  0  0  0  0  0  0  0  0  0  0  0
   57.7383   32.3854   43.5396 H   0  0  0  0  0  0  0  0  0  0  0  0
   60.1690   34.0761   44.0402 H   0  0  0  0  0  0  0  0  0  0  0  0
   60.3107   35.9259   46.0094 H   0  0  0  0  0  0  0  0  0  0  0  0
   58.4170   35.2858   47.7889 H   0  0  0  0  0  0  0  0  0  0  0  0
   57.6280   30.2900   47.7564 H   0  0  0  0  0  0  0  0  0  0  0  0
   61.0710   33.6539   49.9594 H   0  0  0  0  0  0  0  0  0  0  0  0
  1  2  1  0
  2  3  2  0
  3  4  1  0
  4  5  2  0
  5  6  1  0
  6  7  1  0
  7  8  1  0
  8  9  1  0
  9 10  2  0
  9 11  1  0
 11 12  2  0
 12 13  1  0
 13 14  2  0
 13 15  1  0
 15 16  1  0
 16 17  2  0
 17 18  1  0
 18 19  2  0
 19 20  1  0
 20 21  2  0
 20 22  2  0
 20 23  1  0
 23 24  1  0
 24 25  1  0
 25 26  2  0
 26 27  1  0
 27 28  2  0
 28 29  1  0
 19 30  1  0
 30 31  2  0
  6 32  2  0
 32  2  1  0
 31 11  1  0
 31 16  1  0
 29 25  1  0
  1 33  1  0
  1 34  1  0
  1 35  1  0
  3 36  1  0
  4 37  1  0
  5 38  1  0
  7 39  1  0
  7 40  1  0
 12 41  1  0
 17 42  1  0
 18 43  1  0
 23 44  1  0
 24 45  1  0
 24 46  1  0
 26 47  1  0
 27 48  1  0
 28 49  1  0
 30 50  1  0
 32 51  1  0
M  CHG  2   8  -1  15  -1
M  END
>  <UniqueID>  (12) 
10

>  <SMILES>  (12) 
Cc1cccc(C[N-]C(=O)c2cc(=O)[n-]c3ccc(S(=O)(=O)NCc4ccco4)cc23)c1

>  <Energy>  (12) 
85.44602008714674

>  <Genealogy>  (12) 
Cc1cccc(C[N-]C(=O)c2cc(=O)[n-]c3ccc(S(=O)(=O)NCc4ccco4)cc23)c1 (protonated)
Cc1cccc(C[N-]C(=O)c2cc(=O)[n-]c3ccc(S(=O)(=O)NCc4ccco4)cc23)c1 (3D coordinates assigned)
Cc1cccc(C[N-]C(=O)c2cc(=O)[n-]c3ccc(S(=O)(=O)NCc4ccco4)cc23)c1 (optimized conformer: 85.44602008714674 kcal/mol)

>  <smiles>  (12) 
Cc1cccc(CNC(=O)c2cc(=O)[nH]c3ccc(S(=O)(=O)NCc4ccco4)cc23)c1

>  <score_type>  (12) 
oracle

>  <origin>  (12) 
adg

>  <m_score__min__energy>  (12) 
-12.75

>  <m_primary>  (12) 
energy

$$$$
12:0
     RDKit          3D

 36 37  0  0  0  0  0  0  0  0999 V2000
   54.8220   26.1420   45.9320 N   0  0  0  0  0  0  0  0  0  0  0  0
   56.4770   25.6490   46.0030 S   0  0  0  0  0  0  0  0  0  0  0  0
   56.7970   25.1560   47.3860 O   0  0  0  0  0  0  0  0  0  0  0  0
   56.6940   24.5340   45.0190 O   0  0  0  0  0  0  0  0  0  0  0  0
   57.5130   27.0180   45.6160 C   0  0  0  0  0  0  0  0  0  0  0  0
   58.8320   26.7960   45.1990 C   0  0  0  0  0  0  0  0  0  0  0  0
   59.6670   27.8780   44.9010 C   0  0  0  0  0  0  0  0  0  0  0  0
   59.1810   29.1860   44.9970 C   0  0  0  0  0  0  0  0  0  0  0  0
   57.8540   29.4160   45.3750 C   0  0  0  0  0  0  0  0  0  0  0  0
   57.3760   30.7600   45.4840 N   0  0  0  0  0  0  0  0  0  0  0  0
   57.1720   31.6490   44.3790 C   0  0  0  0  0  0  0  0  0  0  0  0
   56.7810   31.1750   43.2800 O   0  0  0  0  0  0  0  0  0  0  0  0
   57.3250   33.1410   44.5220 C   0  0  0  0  0  0  0  0  0  0  0  0
   58.2840   33.5180   45.6230 C   0  0  0  0  0  0  0  0  0  0  0  0
   57.9960   33.2070   46.9620 C   0  0  0  0  0  0  0  0  0  0  0  0
   58.8870   33.5650   47.9770 C   0  0  0  0  0  0  0  0  0  0  0  0
   60.0860   34.2210   47.6760 C   0  0  0  0  0  0  0  0  0  0  0  0
   60.9390   34.5660   48.7370 O   0  0  0  0  0  0  0  0  0  0  0  0
   62.2150   33.9820   48.9920 C   0  0  0  0  0  0  0  0  0  0  0  0
   63.0460   34.1520   47.8990 F   0  0  0  0  0  0  0  0  0  0  0  0
   62.0730   32.6350   49.2730 F   0  0  0  0  0  0  0  0  0  0  0  0
   62.7830   34.6070   50.0850 F   0  0  0  0  0  0  0  0  0  0  0  0
   60.3900   34.5070   46.3310 C   0  0  0  0  0  0  0  0  0  0  0  0
   59.5000   34.1520   45.3160 C   0  0  0  0  0  0  0  0  0  0  0  0
   57.0310   28.3310   45.7160 C   0  0  0  0  0  0  0  0  0  0  0  0
   54.7640   27.0810   46.3850 H   0  0  0  0  0  0  0  0  0  0  0  0
   59.2120   25.7680   45.1057 H   0  0  0  0  0  0  0  0  0  0  0  0
   60.7072   27.6999   44.5908 H   0  0  0  0  0  0  0  0  0  0  0  0
   59.8436   30.0355   44.7748 H   0  0  0  0  0  0  0  0  0  0  0  0
   57.6993   33.5503   43.5721 H   0  0  0  0  0  0  0  0  0  0  0  0
   56.3393   33.5559   44.7794 H   0  0  0  0  0  0  0  0  0  0  0  0
   57.0642   32.6789   47.2129 H   0  0  0  0  0  0  0  0  0  0  0  0
   58.6435   33.3288   49.0234 H   0  0  0  0  0  0  0  0  0  0  0  0
   61.3337   35.0128   46.0790 H   0  0  0  0  0  0  0  0  0  0  0  0
   59.7524   34.3702   44.2678 H   0  0  0  0  0  0  0  0  0  0  0  0
   56.0030   28.5117   46.0633 H   0  0  0  0  0  0  0  0  0  0  0  0
  1  2  1  0
  2  3  2  0
  2  4  2  0
  2  5  1  0
  5  6  2  0
  6  7  1  0
  7  8  2  0
  8  9  1  0
  9 10  1  0
 10 11  1  0
 11 12  2  0
 11 13  1  0
 13 14  1  0
 14 15  2  0
 15 16  1  0
 16 17  2  0
 17 18  1  0
 18 19  1  0
 19 20  1  0
 19 21  1  0
 19 22  1  0
 17 23  1  0
 23 24  2  0
  9 25  2  0
 25  5  1  0
 24 14  1  0
  1 26  1  0
  6 27  1  0
  7 28  1  0
  8 29  1  0
 13 30  1  0
 13 31  1  0
 15 32  1  0
 16 33  1  0
 23 34  1  0
 24 35  1  0
 25 36  1  0
M  CHG  2   1  -1  10  -1
M  END
>  <UniqueID>  (13) 
11

>  <SMILES>  (13) 
[NH-]S(=O)(=O)c1cccc([N-]C(=O)Cc2ccc(OC(F)(F)F)cc2)c1

>  <Energy>  (13) 
39.07724273536273

>  <Genealogy>  (13) 
[NH-]S(=O)(=O)c1cccc([N-]C(=O)Cc2ccc(OC(F)(F)F)cc2)c1 (protonated)
[NH-]S(=O)(=O)c1cccc([N-]C(=O)Cc2ccc(OC(F)(F)F)cc2)c1 (3D coordinates assigned)
[NH-]S(=O)(=O)c1cccc([N-]C(=O)Cc2ccc(OC(F)(F)F)cc2)c1 (optimized conformer: 39.07724273536273 kcal/mol)

>  <smiles>  (13) 
NS(=O)(=O)c1cccc(NC(=O)Cc2ccc(OC(F)(F)F)cc2)c1

>  <score_type>  (13) 
oracle

>  <origin>  (13) 
adg

>  <m_score__min__energy>  (13) 
-12.25

>  <m_primary>  (13) 
energy

$$$$
13:0
     RDKit          3D

 63 66  0  0  0  0  0  0  0  0999 V2000
   67.9070   27.9950   50.1190 C   0  0  0  0  0  0  0  0  0  0  0  0
   67.5160   28.6510   51.4420 C   0  0  0  0  0  0  0  0  0  0  0  0
   67.3670   27.5860   52.5320 C   0  0  0  0  0  0  0  0  0  0  0  0
   66.2830   29.3480   51.2560 O   0  0  0  0  0  0  0  0  0  0  0  0
   66.1450   30.7160   50.9660 C   0  0  0  0  0  0  0  0  0  0  0  0
   67.2480   31.5700   50.7710 C   0  0  0  0  0  0  0  0  0  0  0  0
   67.0460   32.9300   50.5180 C   0  0  0  0  0  0  0  0  0  0  0  0
   65.7510   33.4470   50.4410 C   0  0  0  0  0  0  0  0  0  0  0  0
   64.6420   32.5970   50.5830 C   0  0  0  0  0  0  0  0  0  0  0  0
   63.3010   33.1080   50.5840 N   0  0  0  0  0  0  0  0  0  0  0  0
   62.5740   33.4550   49.5580 C   0  0  0  0  0  0  0  0  0  0  0  0
   63.1430   33.4350   48.3300 N   0  0  0  0  0  0  0  0  0  0  0  0
   62.4400   33.7860   47.2280 C   0  0  0  0  0  0  0  0  0  0  0  0
   63.0180   33.7680   46.1070 O   0  0  0  0  0  0  0  0  0  0  0  0
   61.1260   34.1620   47.3390 N   0  0  0  0  0  0  0  0  0  0  0  0
   60.3360   34.5310   46.1460 C   0  0  0  0  0  0  0  0  0  0  0  0
   59.3930   33.4250   45.7310 C   0  0  0  0  0  0  0  0  0  0  0  0
   59.1990   32.2920   46.5390 C   0  0  0  0  0  0  0  0  0  0  0  0
   58.2910   31.2990   46.1590 C   0  0  0  0  0  0  0  0  0  0  0  0
   57.5400   31.4300   44.9780 C   0  0  0  0  0  0  0  0  0  0  0  0
   56.5700   30.3830   44.5810 C   0  0  0  0  0  0  0  0  0  0  0  0
   55.3810   30.7060   44.3040 O   0  0  0  0  0  0  0  0  0  0  0  0
   57.0130   29.0240   44.4190 N   0  0  0  0  0  0  0  0  0  0  0  0
   57.3100   28.1340   45.3250 C   0  0  0  0  0  0  0  0  0  0  0  0
   58.5580   28.0890   45.9860 C   0  0  0  0  0  0  0  0  0  0  0  0
   58.8060   27.0920   46.9460 C   0  0  0  0  0  0  0  0  0  0  0  0
   60.1180   27.0580   47.6990 C   0  0  0  0  0  0  0  0  0  0  0  0
   60.5750   28.4760   48.0270 C   0  0  0  0  0  0  0  0  0  0  0  0
   59.9790   26.3430   48.8780 F   0  0  0  0  0  0  0  0  0  0  0  0
   61.0920   26.4330   46.9380 F   0  0  0  0  0  0  0  0  0  0  0  0
   57.7900   26.1710   47.2480 C   0  0  0  0  0  0  0  0  0  0  0  0
   56.5810   26.2300   46.5600 C   0  0  0  0  0  0  0  0  0  0  0  0
   56.3740   27.1920   45.6250 N   0  0  0  0  0  0  0  0  0  0  0  0
   57.7190   32.5770   44.1840 C   0  0  0  0  0  0  0  0  0  0  0  0
   58.6320   33.5650   44.5610 C   0  0  0  0  0  0  0  0  0  0  0  0
   60.5590   34.2160   48.5860 C   0  0  0  0  0  0  0  0  0  0  0  0
   59.3620   34.5940   48.7280 O   0  0  0  0  0  0  0  0  0  0  0  0
   61.2830   33.8740   49.6860 N   0  0  0  0  0  0  0  0  0  0  0  0
   64.8500   31.2430   50.8710 C   0  0  0  0  0  0  0  0  0  0  0  0
   68.4607   27.0660   50.3199 H   0  0  0  0  0  0  0  0  0  0  0  0
   66.9994   27.7635   49.5422 H   0  0  0  0  0  0  0  0  0  0  0  0
   68.5424   28.6832   49.5422 H   0  0  0  0  0  0  0  0  0  0  0  0
   68.2976   29.3578   51.7575 H   0  0  0  0  0  0  0  0  0  0  0  0
   67.4336   28.0621   53.5214 H   0  0  0  0  0  0  0  0  0  0  0  0
   66.3907   27.0898   52.4288 H   0  0  0  0  0  0  0  0  0  0  0  0
   68.1697   26.8409   52.4288 H   0  0  0  0  0  0  0  0  0  0  0  0
   68.2701   31.1661   50.8179 H   0  0  0  0  0  0  0  0  0  0  0  0
   67.9107   33.5956   50.3790 H   0  0  0  0  0  0  0  0  0  0  0  0
   65.5991   34.5228   50.2687 H   0  0  0  0  0  0  0  0  0  0  0  0
   59.7485   35.4328   46.3733 H   0  0  0  0  0  0  0  0  0  0  0  0
   61.0353   34.7123   45.3165 H   0  0  0  0  0  0  0  0  0  0  0  0
   59.7649   32.1856   47.4762 H   0  0  0  0  0  0  0  0  0  0  0  0
   58.1632   30.4071   46.7900 H   0  0  0  0  0  0  0  0  0  0  0  0
   59.3338   28.8323   45.7501 H   0  0  0  0  0  0  0  0  0  0  0  0
   60.6164   28.6046   49.1187 H   0  0  0  0  0  0  0  0  0  0  0  0
   61.5739   28.6474   47.5994 H   0  0  0  0  0  0  0  0  0  0  0  0
   59.8642   29.1985   47.5994 H   0  0  0  0  0  0  0  0  0  0  0  0
   57.9484   25.4073   48.0237 H   0  0  0  0  0  0  0  0  0  0  0  0
   55.7913   25.4949   46.7748 H   0  0  0  0  0  0  0  0  0  0  0  0
   57.1357   32.6971   43.2591 H   0  0  0  0  0  0  0  0  0  0  0  0
   58.7552   34.4608   43.9346 H   0  0  0  0  0  0  0  0  0  0  0  0
   60.8340   33.9790   50.6220 H   0  0  0  0  0  0  0  0  0  0  0  0
   63.9838   30.5827   51.0251 H   0  0  0  0  0  0  0  0  0  0  0  0
  1  2  1  0
  2  3  1  0
  2  4  1  0
  4  5  1  0
  5  6  2  0
  6  7  1  0
  7  8  2  0
  8  9  1  0
  9 10  1  0
 10 11  2  3
 11 12  1  0
 12 13  1  0
 13 14  2  0
 13 15  1  0
 15 16  1  0
 16 17  1  0
 17 18  2  0
 18 19  1  0
 19 20  2  0
 20 21  1  0
 21 22  2  0
 21 23  1  0
 23 24  2  3
 24 25  1  0
 25 26  2  0
 26 27  1  0
 27 28  1  0
 27 29  1  0
 27 30  1  0
 26 31  1  0
 31 32  2  0
 32 33  1  0
 20 34  1  0
 34 35  2  0
 15 36  1  0
 36 37  2  0
 36 38  1  0
  9 39  2  0
 39  5  1  0
 38 11  1  0
 35 17  1  0
 33 24  1  0
  1 40  1  0
  1 41  1  0
  1 42  1  0
  2 43  1  0
  3 44  1  0
  3 45  1  0
  3 46  1  0
  6 47  1  0
  7 48  1  0
  8 49  1  0
 16 50  1  0
 16 51  1  0
 18 52  1  0
 19 53  1  0
 25 54  1  0
 28 55  1  0
 28 56  1  0
 28 57  1  0
 31 58  1  0
 32 59  1  0
 34 60  1  0
 35 61  1  0
 38 62  1  0
 39 63  1  0
M  CHG  2  12  -1  33  -1
M  END
>  <UniqueID>  (14) 
12

>  <SMILES>  (14) 
CC(C)Oc1cccc(N=c2[n-]c(=O)n(Cc3ccc(C(=O)N=c4cc(C(C)(F)F)cc[n-]4)cc3)c(=O)[nH]2)c1

>  <Energy>  (14) 
84.3394409451381

>  <Genealogy>  (14) 
CC(C)Oc1cccc(N=c2[n-]c(=O)n(Cc3ccc(C(=O)N=c4cc(C(C)(F)F)cc[n-]4)cc3)c(=O)[nH]2)c1 (protonated)
CC(C)Oc1cccc(N=c2[n-]c(=O)n(Cc3ccc(C(=O)N=c4cc(C(C)(F)F)cc[n-]4)cc3)c(=O)[nH]2)c1 (3D coordinates assigned)
CC(C)Oc1cccc(N=c2[n-]c(=O)n(Cc3ccc(C(=O)N=c4cc(C(C)(F)F)cc[n-]4)cc3)c(=O)[nH]2)c1 (optimized conformer: 84.3394409451381 kcal/mol)

>  <smiles>  (14) 
CC(C)Oc1cccc(N=c2[nH]c(=O)n(Cc3ccc(C(=O)N=c4cc(C(C)(F)F)cc[nH]4)cc3)c(=O)[nH]2)c1

>  <score_type>  (14) 
oracle

>  <origin>  (14) 
adg

>  <m_score__min__energy>  (14) 
-12.58

>  <m_primary>  (14) 
energy

$$$$
14:0
     RDKit          3D

 53 56  0  0  0  0  0  0  0  0999 V2000
   59.8260   34.9650   49.1650 N   0  0  0  0  0  0  0  0  0  0  0  0
   59.2750   33.9870   48.5770 C   0  0  0  0  0  0  0  0  0  0  0  0
   58.9500   32.7910   49.1170 N   0  0  0  0  0  0  0  0  0  0  0  0
   58.3960   32.0360   48.1830 N   0  0  0  0  0  0  0  0  0  0  0  0
   58.3550   32.7380   47.0290 C   0  0  0  0  0  0  0  0  0  0  0  0
   57.8800   32.4080   45.7710 C   0  0  0  0  0  0  0  0  0  0  0  0
   57.9440   33.3060   44.7050 C   0  0  0  0  0  0  0  0  0  0  0  0
   57.4010   32.8290   43.4160 C   0  0  0  0  0  0  0  0  0  0  0  0
   57.5250   31.4110   43.2760 N   0  0  0  0  0  0  0  0  0  0  0  0
   56.6210   30.4510   43.7920 C   0  0  0  0  0  0  0  0  0  0  0  0
   55.5920   30.8250   44.4540 O   0  0  0  0  0  0  0  0  0  0  0  0
   56.7770   28.9870   43.6220 C   0  0  0  0  0  0  0  0  0  0  0  0
   57.7750   28.5030   44.5480 N   0  0  0  0  0  0  0  0  0  0  0  0
   57.4720   27.3850   45.2390 C   0  0  0  0  0  0  0  0  0  0  0  0
   58.3210   26.7940   46.1510 C   0  0  0  0  0  0  0  0  0  0  0  0
   59.5380   27.3960   46.3480 C   0  0  0  0  0  0  0  0  0  0  0  0
   59.8450   28.5440   45.6370 C   0  0  0  0  0  0  0  0  0  0  0  0
   61.1450   29.1010   45.9060 N   0  0  0  0  0  0  0  0  0  0  0  0
   61.1400   30.2170   46.8190 C   0  0  0  0  0  0  0  0  0  0  0  0
   60.0190   30.5550   47.2550 O   0  0  0  0  0  0  0  0  0  0  0  0
   62.3490   30.8550   47.1740 N   0  0  0  0  0  0  0  0  0  0  0  0
   62.4760   31.9390   48.0680 C   0  0  0  0  0  0  0  0  0  0  0  0
   62.9120   33.1870   47.7730 C   0  0  0  0  0  0  0  0  0  0  0  0
   63.0200   34.2190   48.7180 C   0  0  0  0  0  0  0  0  0  0  0  0
   62.6580   33.9560   50.0480 C   0  0  0  0  0  0  0  0  0  0  0  0
   62.2230   32.6960   50.3260 C   0  0  0  0  0  0  0  0  0  0  0  0
   62.1210   31.6960   49.3990 C   0  0  0  0  0  0  0  0  0  0  0  0
   58.9750   29.1150   44.7280 C   0  0  0  0  0  0  0  0  0  0  0  0
   59.2680   30.1460   44.1000 O   0  0  0  0  0  0  0  0  0  0  0  0
   58.4900   34.5370   44.9300 C   0  0  0  0  0  0  0  0  0  0  0  0
   58.9700   34.8700   46.2010 C   0  0  0  0  0  0  0  0  0  0  0  0
   58.8970   33.9670   47.2350 C   0  0  0  0  0  0  0  0  0  0  0  0
   59.2830   35.7730   49.4890 H   0  0  0  0  0  0  0  0  0  0  0  0
   59.1000   32.4850   50.1000 H   0  0  0  0  0  0  0  0  0  0  0  0
   58.0390   31.0510   48.3000 H   0  0  0  0  0  0  0  0  0  0  0  0
   57.4411   31.4127   45.6078 H   0  0  0  0  0  0  0  0  0  0  0  0
   56.3367   33.1003   43.3565 H   0  0  0  0  0  0  0  0  0  0  0  0
   57.9773   33.3026   42.6076 H   0  0  0  0  0  0  0  0  0  0  0  0
   58.3660   31.0620   42.7390 H   0  0  0  0  0  0  0  0  0  0  0  0
   55.8169   28.4892   43.8231 H   0  0  0  0  0  0  0  0  0  0  0  0
   57.0926   28.7670   42.5915 H   0  0  0  0  0  0  0  0  0  0  0  0
   56.4914   26.9178   45.0651 H   0  0  0  0  0  0  0  0  0  0  0  0
   58.0356   25.8818   46.6955 H   0  0  0  0  0  0  0  0  0  0  0  0
   60.2603   26.9724   47.0613 H   0  0  0  0  0  0  0  0  0  0  0  0
   62.0160   28.7290   45.4780 H   0  0  0  0  0  0  0  0  0  0  0  0
   63.2190   30.4580   46.7150 H   0  0  0  0  0  0  0  0  0  0  0  0
   63.1978   33.4041   46.7332 H   0  0  0  0  0  0  0  0  0  0  0  0
   63.3814   35.2148   48.4218 H   0  0  0  0  0  0  0  0  0  0  0  0
   62.7225   34.7295   50.8275 H   0  0  0  0  0  0  0  0  0  0  0  0
   61.9352   32.4679   51.3629 H   0  0  0  0  0  0  0  0  0  0  0  0
   61.7601   30.7013   49.6997 H   0  0  0  0  0  0  0  0  0  0  0  0
   58.5525   35.2681   44.1105 H   0  0  0  0  0  0  0  0  0  0  0  0
   59.4098   35.8632   46.3747 H   0  0  0  0  0  0  0  0  0  0  0  0
  1  2  2  3
  2  3  1  0
  3  4  1  0
  4  5  1  0
  5  6  2  0
  6  7  1  0
  7  8  1  0
  8  9  1  0
  9 10  1  0
 10 11  2  0
 10 12  1  0
 12 13  1  0
 13 14  1  0
 14 15  2  0
 15 16  1  0
 16 17  2  0
 17 18  1  0
 18 19  1  0
 19 20  2  0
 19 21  1  0
 21 22  1  0
 22 23  2  0
 23 24  1  0
 24 25  2  0
 25 26  1  0
 26 27  2  0
 17 28  1  0
 28 29  2  0
  7 30  2  0
 30 31  1  0
 31 32  2  0
 32  2  1  0
 32  5  1  0
 28 13  1  0
 27 22  1  0
  1 33  1  0
  3 34  1  0
  4 35  1  0
  6 36  1  0
  8 37  1  0
  8 38  1  0
  9 39  1  0
 12 40  1  0
 12 41  1  0
 14 42  1  0
 15 43  1  0
 16 44  1  0
 18 45  1  0
 21 46  1  0
 23 47  1  0
 24 48  1  0
 25 49  1  0
 26 50  1  0
 27 51  1  0
 30 52  1  0
 31 53  1  0
M  END
>  <smiles>  (15) 
N=c1[nH][nH]c2cc(CNC(=O)Cn3cccc(NC(=O)Nc4ccccc4)c3=O)ccc12

>  <score_type>  (15) 
oracle

>  <origin>  (15) 
adg

>  <m_score__min__energy>  (15) 
-9.3699999999999992

>  <m_primary>  (15) 
energy

$$$$
15:0
     RDKit          3D

 59 62  0  0  1  0  0  0  0  0999 V2000
   64.7520   35.7180   52.5420 C   0  0  0  0  0  0  0  0  0  0  0  0
   64.4140   34.7910   51.5420 O   0  0  0  0  0  0  0  0  0  0  0  0
   65.2510   33.7810   51.1630 C   0  0  0  0  0  0  0  0  0  0  0  0
   66.6000   33.9400   51.4940 C   0  0  0  0  0  0  0  0  0  0  0  0
   67.5300   32.9910   51.1650 C   0  0  0  0  0  0  0  0  0  0  0  0
   67.0820   31.8770   50.4970 C   0  0  0  0  0  0  0  0  0  0  0  0
   65.7370   31.7170   50.1670 C   0  0  0  0  0  0  0  0  0  0  0  0
   64.7820   32.6710   50.4930 C   0  0  0  0  0  0  0  0  0  0  0  0
   63.3950   32.4550   50.1270 C   0  0  0  0  0  0  0  0  0  0  0  0
   63.0050   31.2290   49.5970 C   0  0  0  0  0  0  0  0  0  0  0  0
   61.1220   33.1070   49.8950 C   0  0  0  0  0  0  0  0  0  0  0  0
   60.2190   34.0160   50.0410 N   0  0  0  0  0  0  0  0  0  0  0  0
   60.3160   29.7240   47.7440 C   0  0  0  0  0  0  0  0  0  0  0  0
   60.2910   30.5250   46.6210 C   0  0  0  0  0  0  0  0  0  0  0  0
   59.2620   30.3780   45.6840 C   0  0  0  0  0  0  0  0  0  0  0  0
   58.2760   29.4200   45.8990 C   0  0  0  0  0  0  0  0  0  0  0  0
   56.9570   29.1670   44.7830 S   0  0  0  0  0  0  0  0  0  0  0  0
   57.5200   28.5720   43.2640 N   0  0  0  0  0  0  0  0  0  0  0  0
   55.9500   28.1950   45.3320 O   0  0  0  0  0  0  0  0  0  0  0  0
   56.2620   30.4810   44.5050 O   0  0  0  0  0  0  0  0  0  0  0  0
   58.3350   28.6370   47.0350 C   0  0  0  0  0  0  0  0  0  0  0  0
   59.3330   28.7550   47.9800 C   0  0  0  0  0  0  0  0  0  0  0  0
   60.7310   31.9330   49.3840 N   0  0  0  0  0  0  0  0  0  0  0  0
   61.6730   30.9900   49.2330 C   0  0  0  0  0  0  0  0  0  0  0  0
   61.3420   29.8280   48.7390 N   0  0  0  0  0  0  0  0  0  0  0  0
   59.5630   34.6210   48.9000 C   0  0  0  0  0  0  0  0  0  0  0  0
   60.2540   34.3500   47.5890 C   0  0  0  0  0  0  0  0  0  0  0  0
   59.2340   33.9690   46.5760 C   0  0  0  0  0  0  0  0  0  0  0  0
   57.9800   33.5090   46.9150 C   0  0  0  0  0  0  0  0  0  0  0  0
   57.1190   33.1860   45.8850 C   0  0  0  0  0  0  0  0  0  0  0  0
   57.4810   33.3110   44.5520 C   0  0  0  0  0  0  0  0  0  0  0  0
   58.7480   33.7760   44.2180 C   0  0  0  0  0  0  0  0  0  0  0  0
   59.6260   34.1060   45.2390 C   0  0  0  0  0  0  0  0  0  0  0  0
   62.4150   33.3580   50.2540 N   0  0  0  0  0  0  0  0  0  0  0  0
   64.5873   35.2664   53.5314 H   0  0  0  0  0  0  0  0  0  0  0  0
   65.8105   35.9991   52.4388 H   0  0  0  0  0  0  0  0  0  0  0  0
   64.1229   36.6144   52.4388 H   0  0  0  0  0  0  0  0  0  0  0  0
   66.9204   34.8458   52.0295 H   0  0  0  0  0  0  0  0  0  0  0  0
   68.5917   33.1151   51.4246 H   0  0  0  0  0  0  0  0  0  0  0  0
   67.8011   31.0934   50.2162 H   0  0  0  0  0  0  0  0  0  0  0  0
   65.4230   30.8083   49.6326 H   0  0  0  0  0  0  0  0  0  0  0  0
   63.7540   30.4349   49.4616 H   0  0  0  0  0  0  0  0  0  0  0  0
   61.0778   31.2772   46.4625 H   0  0  0  0  0  0  0  0  0  0  0  0
   59.2329   31.0134   44.7865 H   0  0  0  0  0  0  0  0  0  0  0  0
   57.7490   29.3760   42.6260 H   0  0  0  0  0  0  0  0  0  0  0  0
   56.7020   28.0670   42.8290 H   0  0  0  0  0  0  0  0  0  0  0  0
   57.5492   27.8838   47.1938 H   0  0  0  0  0  0  0  0  0  0  0  0
   59.3556   28.1180   48.8765 H   0  0  0  0  0  0  0  0  0  0  0  0
   59.7670   31.6930   49.0960 H   0  0  0  0  0  0  0  0  0  0  0  0
   58.5377   34.2270   48.8399 H   0  0  0  0  0  0  0  0  0  0  0  0
   59.5864   35.7096   49.0562 H   0  0  0  0  0  0  0  0  0  0  0  0
   60.7839   35.2550   47.2570 H   0  0  0  0  0  0  0  0  0  0  0  0
   60.9798   33.5327   47.7125 H   0  0  0  0  0  0  0  0  0  0  0  0
   57.6763   33.4031   47.9669 H   0  0  0  0  0  0  0  0  0  0  0  0
   56.1121   32.8171   46.1299 H   0  0  0  0  0  0  0  0  0  0  0  0
   56.7665   33.0425   43.7599 H   0  0  0  0  0  0  0  0  0  0  0  0
   59.0478   33.8800   43.1648 H   0  0  0  0  0  0  0  0  0  0  0  0
   60.6333   34.4765   44.9979 H   0  0  0  0  0  0  0  0  0  0  0  0
   62.5790   34.2970   50.6330 H   0  0  0  0  0  0  0  0  0  0  0  0
  1  2  1  0
  2  3  1  0
  3  4  2  0
  4  5  1  0
  5  6  2  0
  6  7  1  0
  7  8  2  0
  8  9  1  0
  9 10  2  0
 10 11  1  0
 11 12  2  0
 12 13  1  0
 13 14  2  0
 14 15  1  0
 15 16  2  0
 16 17  1  0
 17 18  1  0
 17 19  2  0
 17 20  2  0
 16 21  1  0
 21 22  2  0
 11 23  1  0
 23 24  1  0
 24 25  2  0
 25 26  1  0
 26 27  1  0
 27 28  1  0
 28 29  2  0
 29 30  1  0
 30 31  2  0
 31 32  1  0
 32 33  2  0
 24 34  1  0
  8  3  1  0
 34  9  1  0
 22 13  1  0
 33 28  1  0
  1 35  1  0
  1 36  1  0
  1 37  1  0
  4 38  1  0
  5 39  1  0
  6 40  1  0
  7 41  1  0
 10 42  1  0
 14 43  1  0
 15 44  1  0
 18 45  1  0
 18 46  1  0
 21 47  1  0
 22 48  1  0
 23 49  1  0
 26 50  1  0
 26 51  1  0
 27 52  1  0
 27 53  1  0
 29 54  1  0
 30 55  1  0
 31 56  1  0
 32 57  1  0
 33 58  1  0
 34 59  1  0
M  END
>  <smiles>  (16) 
COc1ccccc1-c1cc(=Nc2ccc(S(N)(=O)=O)cc2)[nH]c(=NCCc2ccccc2)[nH]1

>  <score_type>  (16) 
oracle

>  <origin>  (16) 
adg

>  <m_score__min__energy>  (16) 
-10.369999999999999

>  <m_primary>  (16) 
energy

$$$$
16:0
     RDKit          3D

 53 56  0  0  1  0  0  0  0  0999 V2000
   56.6310   29.6930   42.8200 N   0  0  0  0  0  0  0  0  0  0  0  0
   56.4620   30.2730   44.1070 C   0  0  0  0  0  0  0  0  0  0  0  0
   55.5310   29.8110   44.8170 O   0  0  0  0  0  0  0  0  0  0  0  0
   57.3460   31.3490   44.5440 C   0  0  0  0  0  0  0  0  0  0  0  0
   57.3910   32.5400   43.8180 C   0  0  0  0  0  0  0  0  0  0  0  0
   58.2280   33.4920   44.2720 N   0  0  0  0  0  0  0  0  0  0  0  0
   58.9860   33.3030   45.3760 C   0  0  0  0  0  0  0  0  0  0  0  0
   59.7500   34.2880   45.7130 N   0  0  0  0  0  0  0  0  0  0  0  0
   60.7160   34.1220   46.7450 C   0  0  0  0  0  0  0  0  0  0  0  0
   60.4130   34.2240   48.0880 C   0  0  0  0  0  0  0  0  0  0  0  0
   61.4000   34.0490   49.0450 C   0  0  0  0  0  0  0  0  0  0  0  0
   62.7150   33.7690   48.7050 C   0  0  0  0  0  0  0  0  0  0  0  0
   63.7370   33.5860   49.6860 N   0  0  0  0  0  0  0  0  0  0  0  0
   63.7410   34.1950   50.9760 C   0  0  0  0  0  0  0  0  0  0  0  0
   64.4090   33.4120   52.0540 C   0  0  0  0  0  0  0  0  0  0  0  0
   65.4200   32.5770   51.6610 O   0  0  0  0  0  0  0  0  0  0  0  0
   65.9170   32.7840   50.4000 C   0  0  0  0  0  0  0  0  0  0  0  0
   64.8480   32.7190   49.3310 C   0  0  0  0  0  0  0  0  0  0  0  0
   62.9870   33.6730   47.3580 C   0  0  0  0  0  0  0  0  0  0  0  0
   62.0250   33.8420   46.3770 C   0  0  0  0  0  0  0  0  0  0  0  0
   58.9500   32.1500   46.0860 N   0  0  0  0  0  0  0  0  0  0  0  0
   58.1280   31.1600   45.6760 C   0  0  0  0  0  0  0  0  0  0  0  0
   58.0640   30.0460   46.3250 N   0  0  0  0  0  0  0  0  0  0  0  0
   58.9680   28.9560   46.0020 C   0  0  1  0  0  0  0  0  0  0  0  0
   58.1760   27.6630   46.0710 C   0  0  0  0  0  0  0  0  0  0  0  0
   57.8200   27.4120   44.6230 C   0  0  0  0  0  0  0  0  0  0  0  0
   58.8970   27.9610   43.8370 N   0  0  0  0  0  0  0  0  0  0  0  0
   59.4560   29.0620   44.5950 C   0  0  0  0  0  0  0  0  0  0  0  0
   57.5250   29.1740   42.6140 H   0  0  0  0  0  0  0  0  0  0  0  0
   55.9160   29.7550   42.0680 H   0  0  0  0  0  0  0  0  0  0  0  0
   56.7740   32.6933   42.9204 H   0  0  0  0  0  0  0  0  0  0  0  0
   58.2690   34.3860   43.7380 H   0  0  0  0  0  0  0  0  0  0  0  0
   59.3818   34.4455   48.4004 H   0  0  0  0  0  0  0  0  0  0  0  0
   61.1318   34.1349   50.1083 H   0  0  0  0  0  0  0  0  0  0  0  0
   64.2560   35.1633   50.8919 H   0  0  0  0  0  0  0  0  0  0  0  0
   62.6853   34.2782   51.2736 H   0  0  0  0  0  0  0  0  0  0  0  0
   64.8275   34.1273   52.7773 H   0  0  0  0  0  0  0  0  0  0  0  0
   63.6288   32.7541   52.4644 H   0  0  0  0  0  0  0  0  0  0  0  0
   66.3878   33.7776   50.3664 H   0  0  0  0  0  0  0  0  0  0  0  0
   66.6414   31.9823   50.1935 H   0  0  0  0  0  0  0  0  0  0  0  0
   65.2729   33.0461   48.3705 H   0  0  0  0  0  0  0  0  0  0  0  0
   64.4854   31.6840   49.2453 H   0  0  0  0  0  0  0  0  0  0  0  0
   64.0185   33.4513   47.0468 H   0  0  0  0  0  0  0  0  0  0  0  0
   62.2956   33.7551   45.3144 H   0  0  0  0  0  0  0  0  0  0  0  0
   59.5560   32.0290   46.9470 H   0  0  0  0  0  0  0  0  0  0  0  0
   59.8160   28.9876   46.7019 H   0  0  0  0  0  0  0  0  0  0  0  0
   58.7885   26.8441   46.4763 H   0  0  0  0  0  0  0  0  0  0  0  0
   57.2985   27.7240   46.7315 H   0  0  0  0  0  0  0  0  0  0  0  0
   57.7252   26.3321   44.4364 H   0  0  0  0  0  0  0  0  0  0  0  0
   56.8586   27.8787   44.3624 H   0  0  0  0  0  0  0  0  0  0  0  0
   58.5330   28.3000   42.9310 H   0  0  0  0  0  0  0  0  0  0  0  0
   60.5545   29.0066   44.5768 H   0  0  0  0  0  0  0  0  0  0  0  0
   59.1447   30.0216   44.1565 H   0  0  0  0  0  0  0  0  0  0  0  0
  1  2  1  0
  2  3  2  0
  2  4  1  0
  4  5  2  0
  5  6  1  0
  6  7  1  0
  7  8  2  0
  8  9  1  0
  9 10  2  0
 10 11  1  0
 11 12  2  0
 12 13  1  0
 13 14  1  0
 14 15  1  0
 15 16  1  0
 16 17  1  0
 17 18  1  0
 12 19  1  0
 19 20  2  0
  7 21  1  0
 21 22  1  0
 22 23  2  0
 23 24  1  0
 24 25  1  0
 25 26  1  0
 26 27  1  0
 27 28  1  0
 22  4  1  0
 28 24  1  0
 20  9  1  0
 18 13  1  0
  1 29  1  0
  1 30  1  0
  5 31  1  0
  6 32  1  0
 10 33  1  0
 11 34  1  0
 14 35  1  0
 14 36  1  0
 15 37  1  0
 15 38  1  0
 17 39  1  0
 17 40  1  0
 18 41  1  0
 18 42  1  0
 19 43  1  0
 20 44  1  0
 21 45  1  0
 24 46  1  1
 25 47  1  0
 25 48  1  0
 26 49  1  0
 26 50  1  0
 27 51  1  0
 28 52  1  0
 28 53  1  0
M  END
>  <smiles>  (17) 
NC(=O)c1c[nH]c(=Nc2ccc(N3CCOCC3)cc2)[nH]c1=NC1CCNC1

>  <score_type>  (17) 
oracle

>  <origin>  (17) 
adg

>  <m_score__min__energy>  (17) 
-8.5899999999999999

>  <m_primary>  (17) 
energy

$$$$
17:0
     RDKit          3D

 35 36  0  0  0  0  0  0  0  0999 V2000
   56.2000   23.0680   43.0590 C   0  0  0  0  0  0  0  0  0  0  0  0
   55.3480   23.6970   44.1560 C   0  0  0  0  0  0  0  0  0  0  0  0
   56.1550   24.5810   44.9930 N   0  0  0  0  0  0  0  0  0  0  0  0
   55.5750   25.6320   45.7830 C   0  0  0  0  0  0  0  0  0  0  0  0
   54.3620   25.9340   45.6390 O   0  0  0  0  0  0  0  0  0  0  0  0
   56.3650   26.3700   46.7250 N   0  0  0  0  0  0  0  0  0  0  0  0
   57.7040   26.8390   46.5130 C   0  0  0  0  0  0  0  0  0  0  0  0
   58.7100   26.3680   47.3670 C   0  0  0  0  0  0  0  0  0  0  0  0
   60.0170   26.8480   47.2560 C   0  0  0  0  0  0  0  0  0  0  0  0
   60.3310   27.8010   46.2860 C   0  0  0  0  0  0  0  0  0  0  0  0
   59.3470   28.2540   45.4060 C   0  0  0  0  0  0  0  0  0  0  0  0
   58.0390   27.7540   45.4820 C   0  0  0  0  0  0  0  0  0  0  0  0
   57.0870   28.2000   44.5080 N   0  0  0  0  0  0  0  0  0  0  0  0
   56.3400   29.4200   44.5930 C   0  0  0  0  0  0  0  0  0  0  0  0
   55.1420   29.3940   44.9910 O   0  0  0  0  0  0  0  0  0  0  0  0
   56.9670   30.7030   44.2070 C   0  0  0  0  0  0  0  0  0  0  0  0
   57.1450   31.0400   42.8530 C   0  0  0  0  0  0  0  0  0  0  0  0
   57.7390   32.2150   42.5110 N   0  0  0  0  0  0  0  0  0  0  0  0
   58.1770   33.0950   43.4480 C   0  0  0  0  0  0  0  0  0  0  0  0
   58.0230   32.8070   44.8050 C   0  0  0  0  0  0  0  0  0  0  0  0
   58.6390   34.0380   46.1280 Br  0  0  0  0  0  0  0  0  0  0  0  0
   57.4170   31.6070   45.1840 C   0  0  0  0  0  0  0  0  0  0  0  0
   57.0052   22.4736   43.5155 H   0  0  0  0  0  0  0  0  0  0  0  0
   55.5713   22.4158   42.4350 H   0  0  0  0  0  0  0  0  0  0  0  0
   56.6382   23.8609   42.4350 H   0  0  0  0  0  0  0  0  0  0  0  0
   54.5364   24.2784   43.6942 H   0  0  0  0  0  0  0  0  0  0  0  0
   54.9331   22.8956   44.7850 H   0  0  0  0  0  0  0  0  0  0  0  0
   57.1820   24.4030   45.0470 H   0  0  0  0  0  0  0  0  0  0  0  0
   58.4686   25.6142   48.1309 H   0  0  0  0  0  0  0  0  0  0  0  0
   60.7991   26.4747   47.9334 H   0  0  0  0  0  0  0  0  0  0  0  0
   61.3553   28.1956   46.2149 H   0  0  0  0  0  0  0  0  0  0  0  0
   59.5994   29.0091   44.6469 H   0  0  0  0  0  0  0  0  0  0  0  0
   56.8024   30.3505   42.0674 H   0  0  0  0  0  0  0  0  0  0  0  0
   58.6539   34.0362   43.1370 H   0  0  0  0  0  0  0  0  0  0  0  0
   57.2917   31.3689   46.2506 H   0  0  0  0  0  0  0  0  0  0  0  0
  1  2  1  0
  2  3  1  0
  3  4  1  0
  4  5  2  0
  4  6  1  0
  6  7  1  0
  7  8  2  0
  8  9  1  0
  9 10  2  0
 10 11  1  0
 11 12  2  0
 12 13  1  0
 13 14  1  0
 14 15  2  0
 14 16  1  0
 16 17  2  0
 17 18  1  0
 18 19  2  0
 19 20  1  0
 20 21  1  0
 20 22  2  0
 12  7  1  0
 22 16  1  0
  1 23  1  0
  1 24  1  0
  1 25  1  0
  2 26  1  0
  2 27  1  0
  3 28  1  0
  8 29  1  0
  9 30  1  0
 10 31  1  0
 11 32  1  0
 17 33  1  0
 19 34  1  0
 22 35  1  0
M  CHG  2   6  -1  13  -1
M  END
>  <UniqueID>  (18) 
13

>  <SMILES>  (18) 
CCNC(=O)[N-]c1ccccc1[N-]C(=O)c1cncc(Br)c1

>  <Energy>  (18) 
42.01296318695221

>  <Genealogy>  (18) 
CCNC(=O)[N-]c1ccccc1[N-]C(=O)c1cncc(Br)c1 (protonated)
CCNC(=O)[N-]c1ccccc1[N-]C(=O)c1cncc(Br)c1 (3D coordinates assigned)
CCNC(=O)[N-]c1ccccc1[N-]C(=O)c1cncc(Br)c1 (optimized conformer: 42.01296318695221 kcal/mol)

>  <smiles>  (18) 
CCNC(=O)Nc1ccccc1NC(=O)c1cncc(Br)c1

>  <score_type>  (18) 
oracle

>  <origin>  (18) 
adg

>  <m_score__min__energy>  (18) 
-11.85

>  <m_primary>  (18) 
energy

$$$$
18:0
     RDKit          3D

 40 42  0  0  0  0  0  0  0  0999 V2000
   64.5774   33.3893   46.3122 H   0  0  0  0  0  0  0  0  0  0  0  0
   63.6850   33.4920   46.9470 C   0  0  0  0  0  0  0  0  0  0  0  0
   62.4530   33.2650   46.4260 N   0  0  0  0  0  0  0  0  0  0  0  0
   61.3150   33.3920   47.1620 C   0  0  0  0  0  0  0  0  0  0  0  0
   60.0210   33.1110   46.4990 C   0  0  0  0  0  0  0  0  0  0  0  0
   59.2860   34.1340   45.8760 C   0  0  0  0  0  0  0  0  0  0  0  0
   59.6713   35.1643   45.8798 H   0  0  0  0  0  0  0  0  0  0  0  0
   58.0690   33.8500   45.2520 C   0  0  0  0  0  0  0  0  0  0  0  0
   57.4905   34.6588   44.7816 H   0  0  0  0  0  0  0  0  0  0  0  0
   57.5860   32.5390   45.2250 C   0  0  0  0  0  0  0  0  0  0  0  0
   56.6181   32.3231   44.7490 H   0  0  0  0  0  0  0  0  0  0  0  0
   58.3260   31.4980   45.8000 C   0  0  0  0  0  0  0  0  0  0  0  0
   57.7990   30.1610   45.7720 N   0  0  0  0  0  0  0  0  0  0  0  0
   58.3440   29.4260   46.2730 H   0  0  0  0  0  0  0  0  0  0  0  0
   56.5520   29.8050   45.1450 C   0  0  0  0  0  0  0  0  0  0  0  0
   55.8930   30.6680   44.5090 O   0  0  0  0  0  0  0  0  0  0  0  0
   56.0540   28.4600   45.1920 N   0  0  0  0  0  0  0  0  0  0  0  0
   56.6450   27.4310   45.7270 C   0  0  0  0  0  0  0  0  0  0  0  0
   57.9940   27.4160   45.9300 N   0  0  0  0  0  0  0  0  0  0  0  0
   58.6270   26.3620   46.5090 C   0  0  0  0  0  0  0  0  0  0  0  0
   59.7180   26.3840   46.6473 H   0  0  0  0  0  0  0  0  0  0  0  0
   57.8930   25.2520   46.9280 C   0  0  0  0  0  0  0  0  0  0  0  0
   58.3995   24.3931   47.3924 H   0  0  0  0  0  0  0  0  0  0  0  0
   56.5080   25.2440   46.7510 C   0  0  0  0  0  0  0  0  0  0  0  0
   55.9157   24.3782   47.0820 H   0  0  0  0  0  0  0  0  0  0  0  0
   55.8750   26.3370   46.1530 C   0  0  0  0  0  0  0  0  0  0  0  0
   54.4950   26.3300   45.9830 O   0  0  0  0  0  0  0  0  0  0  0  0
   59.5390   31.7930   46.4480 C   0  0  0  0  0  0  0  0  0  0  0  0
   60.1157   30.9835   46.9194 H   0  0  0  0  0  0  0  0  0  0  0  0
   61.4100   33.7490   48.5280 C   0  0  0  0  0  0  0  0  0  0  0  0
   60.2390   33.8150   49.3720 C   0  0  0  0  0  0  0  0  0  0  0  0
   59.3010   33.8700   50.0490 N   0  0  0  0  0  0  0  0  0  0  0  0
   62.6770   33.9870   49.0910 C   0  0  0  0  0  0  0  0  0  0  0  0
   62.7640   34.3460   50.4470 O   0  0  0  0  0  0  0  0  0  0  0  0
   63.8840   34.0780   51.2840 C   0  0  0  0  0  0  0  0  0  0  0  0
   63.5795   34.1509   52.3385 H   0  0  0  0  0  0  0  0  0  0  0  0
   64.2599   33.0645   51.0801 H   0  0  0  0  0  0  0  0  0  0  0  0
   64.6780   34.8115   51.0801 H   0  0  0  0  0  0  0  0  0  0  0  0
   63.8210   33.8550   48.2850 C   0  0  0  0  0  0  0  0  0  0  0  0
   64.8194   34.0376   48.7090 H   0  0  0  0  0  0  0  0  0  0  0  0
  1  2  1  0
  2  3  2  0
  3  4  1  0
  4  5  1  0
  5  6  2  0
  6  7  1  0
  6  8  1  0
  8  9  1  0
  8 10  2  0
 10 11  1  0
 10 12  1  0
 12 13  1  0
 13 14  1  0
 13 15  1  0
 15 16  2  0
 15 17  1  0
 17 18  2  0
 18 19  1  0
 19 20  1  0
 20 21  1  0
 20 22  2  0
 22 23  1  0
 22 24  1  0
 24 25  1  0
 24 26  2  0
 26 27  1  0
 12 28  2  0
 28 29  1  0
  4 30  2  0
 30 31  1  0
 31 32  3  0
 30 33  1  0
 33 34  1  0
 34 35  1  0
 35 36  1  0
 35 37  1  0
 35 38  1  0
 33 39  2  0
 39 40  1  0
 39  2  1  0
 28  5  1  0
 26 18  1  0
M  CHG  2  19  -1  27  -1
M  END
>  <UniqueID>  (19) 
14

>  <SMILES>  (19) 
COc1ccnc(-c2cccc(NC(=O)/N=c3\[n-]cccc3[O-])c2)c1C#N

>  <Energy>  (19) 
60.62662128955133

>  <Genealogy>  (19) 
COc1ccnc(-c2cccc(NC(=O)N=c3[n-]cccc3[O-])c2)c1C#N (protonated)
COc1ccnc(-c2cccc(NC(=O)/N=c3\[n-]cccc3[O-])c2)c1C#N (cis-trans isomerization)
COc1ccnc(-c2cccc(NC(=O)/N=c3\[n-]cccc3[O-])c2)c1C#N (3D coordinates assigned)
COc1ccnc(-c2cccc(NC(=O)/N=c3\[n-]cccc3[O-])c2)c1C#N (optimized conformer: 60.62662128955133 kcal/mol)

>  <smiles>  (19) 
COc1ccnc(-c2cccc(NC(=O)N=c3[nH]cccc3O)c2)c1C#N

>  <score_type>  (19) 
oracle

>  <origin>  (19) 
adg

>  <m_score__min__energy>  (19) 
-13.84

>  <m_primary>  (19) 
energy

$$$$
19:0
     RDKit          3D

 26 28  0  0  0  0  0  0  0  0999 V2000
   55.6280   29.3520   44.8700 O   0  0  0  0  0  0  0  0  0  0  0  0
   56.8270   29.4830   45.2340 C   0  0  0  0  0  0  0  0  0  0  0  0
   57.3130   30.7580   45.3440 N   0  0  0  0  0  0  0  0  0  0  0  0
   58.5630   31.1370   45.7160 C   0  0  0  0  0  0  0  0  0  0  0  0
   58.9180   32.5880   45.7800 C   0  0  0  0  0  0  0  0  0  0  0  0
   59.6770   33.0590   46.8730 C   0  0  0  0  0  0  0  0  0  0  0  0
   60.0310   34.4070   46.9750 C   0  0  0  0  0  0  0  0  0  0  0  0
   59.6360   35.3110   45.9890 C   0  0  0  0  0  0  0  0  0  0  0  0
   58.8860   34.8680   44.9000 C   0  0  0  0  0  0  0  0  0  0  0  0
   58.5250   33.5210   44.7870 C   0  0  0  0  0  0  0  0  0  0  0  0
   57.7960   33.1540   43.7050 F   0  0  0  0  0  0  0  0  0  0  0  0
   59.6560   29.9010   46.0890 S   0  0  0  0  0  0  0  0  0  0  0  0
   58.9500   28.3830   45.9190 C   0  0  0  0  0  0  0  0  0  0  0  0
   59.6880   27.2240   46.1810 C   0  0  0  0  0  0  0  0  0  0  0  0
   59.0920   25.9710   46.0360 C   0  0  0  0  0  0  0  0  0  0  0  0
   57.7600   25.8760   45.6300 C   0  0  0  0  0  0  0  0  0  0  0  0
   57.0180   27.0320   45.3670 C   0  0  0  0  0  0  0  0  0  0  0  0
   57.6000   28.3130   45.5070 C   0  0  0  0  0  0  0  0  0  0  0  0
   59.9945   32.3546   47.6560 H   0  0  0  0  0  0  0  0  0  0  0  0
   60.6223   34.7558   47.8345 H   0  0  0  0  0  0  0  0  0  0  0  0
   59.9157   36.3717   46.0703 H   0  0  0  0  0  0  0  0  0  0  0  0
   58.5758   35.5831   44.1238 H   0  0  0  0  0  0  0  0  0  0  0  0
   60.7376   27.3005   46.5012 H   0  0  0  0  0  0  0  0  0  0  0  0
   59.6713   25.0587   46.2415 H   0  0  0  0  0  0  0  0  0  0  0  0
   57.2916   24.8872   45.5163 H   0  0  0  0  0  0  0  0  0  0  0  0
   55.9692   26.9436   45.0474 H   0  0  0  0  0  0  0  0  0  0  0  0
  1  2  2  0
  2  3  1  0
  3  4  2  0
  4  5  1  0
  5  6  2  0
  6  7  1  0
  7  8  2  0
  8  9  1  0
  9 10  2  0
 10 11  1  0
  4 12  1  0
 12 13  1  0
 13 14  2  0
 14 15  1  0
 15 16  2  0
 16 17  1  0
 17 18  2  0
 18  2  1  0
 10  5  1  0
 18 13  1  0
  6 19  1  0
  7 20  1  0
  8 21  1  0
  9 22  1  0
 14 23  1  0
 15 24  1  0
 16 25  1  0
 17 26  1  0
M  END
>  <UniqueID>  (20) 
15

>  <SMILES>  (20) 
O=c1nc(-c2ccccc2F)sc2ccccc12

>  <Energy>  (20) 
42.21034226972401

>  <Genealogy>  (20) 
O=c1nc(-c2ccccc2F)sc2ccccc12 (3D coordinates assigned)
O=c1nc(-c2ccccc2F)sc2ccccc12 (optimized conformer: 42.21034226972401 kcal/mol)

>  <smiles>  (20) 
O=c1nc(-c2ccccc2F)sc2ccccc12

>  <score_type>  (20) 
oracle

>  <origin>  (20) 
adg

>  <m_score__min__energy>  (20) 
-7.2800000000000002

>  <m_primary>  (20) 
energy

$$$$
20:0
     RDKit          3D

 47 50  0  0  0  0  0  0  0  0999 V2000
   57.3575   34.1195   43.5520 H   0  0  0  0  0  0  0  0  0  0  0  0
   57.8380   34.0890   44.5410 C   0  0  0  0  0  0  0  0  0  0  0  0
   59.2220   34.2510   44.6510 C   0  0  0  0  0  0  0  0  0  0  0  0
   59.8285   34.4174   43.7485 H   0  0  0  0  0  0  0  0  0  0  0  0
   59.8370   34.2020   45.9050 C   0  0  0  0  0  0  0  0  0  0  0  0
   60.9257   34.3361   45.9873 H   0  0  0  0  0  0  0  0  0  0  0  0
   59.0690   33.9820   47.0610 C   0  0  0  0  0  0  0  0  0  0  0  0
   59.7280   33.9230   48.4150 C   0  0  0  0  0  0  0  0  0  0  0  0
   58.9543   34.0258   49.1901 H   0  0  0  0  0  0  0  0  0  0  0  0
   60.4610   34.7414   48.4692 H   0  0  0  0  0  0  0  0  0  0  0  0
   60.4670   32.6240   48.6350 C   0  0  0  0  0  0  0  0  0  0  0  0
   61.7270   32.6270   48.6880 O   0  0  0  0  0  0  0  0  0  0  0  0
   59.7860   31.3640   48.7730 N   0  0  0  0  0  0  0  0  0  0  0  0
   59.3550   30.5810   47.8270 C   0  0  0  0  0  0  0  0  0  0  0  0
   59.7600   29.2890   47.7340 N   0  0  0  0  0  0  0  0  0  0  0  0
   59.2470   28.4740   46.7810 C   0  0  0  0  0  0  0  0  0  0  0  0
   59.7410   26.7540   46.7210 S   0  0  0  0  0  0  0  0  0  0  0  0
   58.2320   26.1380   47.5470 C   0  0  0  0  0  0  0  0  0  0  0  0
   58.5135   25.3901   48.3029 H   0  0  0  0  0  0  0  0  0  0  0  0
   57.7175   26.9857   48.0231 H   0  0  0  0  0  0  0  0  0  0  0  0
   57.3070   25.5090   46.5540 C   0  0  0  0  0  0  0  0  0  0  0  0
   55.9590   25.4780   46.7240 N   0  0  0  0  0  0  0  0  0  0  0  0
   55.5470   24.7880   45.6530 C   0  0  0  0  0  0  0  0  0  0  0  0
   54.2430   24.4350   45.3180 C   0  0  0  0  0  0  0  0  0  0  0  0
   53.3932   24.7231   45.9542 H   0  0  0  0  0  0  0  0  0  0  0  0
   54.0510   23.6950   44.1340 C   0  0  0  0  0  0  0  0  0  0  0  0
   53.0357   23.3956   43.8348 H   0  0  0  0  0  0  0  0  0  0  0  0
   55.1570   23.3350   43.3280 C   0  0  0  0  0  0  0  0  0  0  0  0
   54.9965   22.7640   42.4016 H   0  0  0  0  0  0  0  0  0  0  0  0
   56.4640   23.7050   43.7070 C   0  0  0  0  0  0  0  0  0  0  0  0
   57.3343   23.4290   43.0936 H   0  0  0  0  0  0  0  0  0  0  0  0
   56.6140   24.4320   44.8850 C   0  0  0  0  0  0  0  0  0  0  0  0
   57.7520   24.8730   45.4370 N   0  0  0  0  0  0  0  0  0  0  0  0
   58.3290   28.9540   45.9040 N   0  0  0  0  0  0  0  0  0  0  0  0
   57.9200   30.2460   45.9810 C   0  0  0  0  0  0  0  0  0  0  0  0
   57.0340   30.6760   45.1270 N   0  0  0  0  0  0  0  0  0  0  0  0
   56.1290   29.9200   44.3010 C   0  0  0  0  0  0  0  0  0  0  0  0
   55.1400   29.3660   44.8500 O   0  0  0  0  0  0  0  0  0  0  0  0
   56.3030   29.7640   42.8190 C   0  0  0  0  0  0  0  0  0  0  0  0
   57.1083   29.0420   42.6184 H   0  0  0  0  0  0  0  0  0  0  0  0
   55.3646   29.3991   42.3760 H   0  0  0  0  0  0  0  0  0  0  0  0
   56.5637   30.7365   42.3760 H   0  0  0  0  0  0  0  0  0  0  0  0
   58.4310   31.0520   46.9490 N   0  0  0  0  0  0  0  0  0  0  0  0
   57.6760   33.8370   46.9460 C   0  0  0  0  0  0  0  0  0  0  0  0
   57.0647   33.6829   47.8474 H   0  0  0  0  0  0  0  0  0  0  0  0
   57.0640   33.8880   45.6890 C   0  0  0  0  0  0  0  0  0  0  0  0
   55.9737   33.7700   45.6032 H   0  0  0  0  0  0  0  0  0  0  0  0
  1  2  1  0
  2  3  2  0
  3  4  1  0
  3  5  1  0
  5  6  1  0
  5  7  2  0
  7  8  1  0
  8  9  1  0
  8 10  1  0
  8 11  1  0
 11 12  2  0
 11 13  1  0
 13 14  2  0
 14 15  1  0
 15 16  2  0
 16 17  1  0
 17 18  1  0
 18 19  1  0
 18 20  1  0
 18 21  1  0
 21 22  2  0
 22 23  1  0
 23 24  2  0
 24 25  1  0
 24 26  1  0
 26 27  1  0
 26 28  2  0
 28 29  1  0
 28 30  1  0
 30 31  1  0
 30 32  2  0
 32 33  1  0
 16 34  1  0
 34 35  1  0
 35 36  2  3
 36 37  1  0
 37 38  2  0
 37 39  1  0
 39 40  1  0
 39 41  1  0
 39 42  1  0
 35 43  1  0
  7 44  1  0
 44 45  1  0
 44 46  2  0
 46 47  1  0
 46  2  1  0
 43 14  1  0
 33 21  1  0
 32 23  1  0
M  CHG  3  33  -1  34  -1  43  -1
M  END
>  <UniqueID>  (21) 
16

>  <SMILES>  (21) 
CC(=O)N=c1[n-]c(SCc2nc3ccccc3[n-]2)n/c(=N\C(=O)Cc2ccccc2)[n-]1

>  <Energy>  (21) 
84.84444646778076

>  <Genealogy>  (21) 
CC(=O)N=c1[n-]c(SCc2nc3ccccc3[n-]2)nc(=NC(=O)Cc2ccccc2)[n-]1 (protonated)
CC(=O)N=c1[n-]c(SCc2nc3ccccc3[n-]2)n/c(=N\C(=O)Cc2ccccc2)[n-]1 (cis-trans isomerization)
CC(=O)N=c1[n-]c(SCc2nc3ccccc3[n-]2)n/c(=N\C(=O)Cc2ccccc2)[n-]1 (3D coordinates assigned)
CC(=O)N=c1[n-]c(SCc2nc3ccccc3[n-]2)n/c(=N\C(=O)Cc2ccccc2)[n-]1 (optimized conformer: 84.84444646778076 kcal/mol)

>  <smiles>  (21) 
CC(=O)N=c1[nH]c(SCc2nc3ccccc3[nH]2)nc(=NC(=O)Cc2ccccc2)[nH]1

>  <score_type>  (21) 
oracle

>  <origin>  (21) 
adg

>  <m_score__min__energy>  (21) 
-13.93

>  <m_primary>  (21) 
energy

$$$$
21:0
     RDKit          3D

 43 45  0  0  0  0  0  0  0  0999 V2000
   60.1380   27.4670   47.2040 N   0  0  0  0  0  0  0  0  0  0  0  0
   59.0760   27.1140   46.9080 C   0  0  0  0  0  0  0  0  0  0  0  0
   57.7500   26.6710   46.5390 C   0  0  0  0  0  0  0  0  0  0  0  0
   56.8380   27.5190   45.8720 C   0  0  0  0  0  0  0  0  0  0  0  0
   57.1890   28.8880   45.4280 C   0  0  0  0  0  0  0  0  0  0  0  0
   57.8570   29.7550   46.3100 C   0  0  0  0  0  0  0  0  0  0  0  0
   58.1640   31.0620   45.9210 C   0  0  0  0  0  0  0  0  0  0  0  0
   57.7930   31.5220   44.6530 C   0  0  0  0  0  0  0  0  0  0  0  0
   58.2100   33.3090   44.1250 Br  0  0  0  0  0  0  0  0  0  0  0  0
   57.1090   30.6740   43.7780 C   0  0  0  0  0  0  0  0  0  0  0  0
   56.7990   29.3670   44.1640 C   0  0  0  0  0  0  0  0  0  0  0  0
   55.5760   27.0730   45.6340 N   0  0  0  0  0  0  0  0  0  0  0  0
   55.1740   25.8250   45.9940 C   0  0  0  0  0  0  0  0  0  0  0  0
   53.9650   25.4170   45.7510 N   0  0  0  0  0  0  0  0  0  0  0  0
   53.6180   24.3790   44.7780 C   0  0  0  0  0  0  0  0  0  0  0  0
   53.9650   22.9890   45.3210 C   0  0  0  0  0  0  0  0  0  0  0  0
   55.4440   22.7360   45.2130 C   0  0  0  0  0  0  0  0  0  0  0  0
   56.1050   21.9800   46.1950 C   0  0  0  0  0  0  0  0  0  0  0  0
   57.4850   21.7710   46.1140 C   0  0  0  0  0  0  0  0  0  0  0  0
   58.2200   22.3200   45.0560 C   0  0  0  0  0  0  0  0  0  0  0  0
   59.9610   22.0730   44.9660 S   0  0  0  0  0  0  0  0  0  0  0  0
   60.3870   21.5070   43.3890 N   0  0  0  0  0  0  0  0  0  0  0  0
   60.3860   21.0610   45.9930 O   0  0  0  0  0  0  0  0  0  0  0  0
   60.6730   23.3660   45.2440 O   0  0  0  0  0  0  0  0  0  0  0  0
   57.5670   23.0930   44.0860 C   0  0  0  0  0  0  0  0  0  0  0  0
   56.1870   23.3020   44.1650 C   0  0  0  0  0  0  0  0  0  0  0  0
   56.0450   24.9940   46.6190 N   0  0  0  0  0  0  0  0  0  0  0  0
   57.3140   25.3860   46.9010 C   0  0  0  0  0  0  0  0  0  0  0  0
   58.0890   24.5880   47.4950 O   0  0  0  0  0  0  0  0  0  0  0  0
   58.1400   29.4026   47.3129 H   0  0  0  0  0  0  0  0  0  0  0  0
   58.6981   31.7298   46.6129 H   0  0  0  0  0  0  0  0  0  0  0  0
   56.8136   31.0363   42.7823 H   0  0  0  0  0  0  0  0  0  0  0  0
   56.2473   28.7095   43.4760 H   0  0  0  0  0  0  0  0  0  0  0  0
   52.5390   24.4260   44.5694 H   0  0  0  0  0  0  0  0  0  0  0  0
   54.1931   24.5521   43.8564 H   0  0  0  0  0  0  0  0  0  0  0  0
   53.6632   22.9270   46.3770 H   0  0  0  0  0  0  0  0  0  0  0  0
   53.4301   22.2318   44.7290 H   0  0  0  0  0  0  0  0  0  0  0  0
   55.5343   21.5504   47.0316 H   0  0  0  0  0  0  0  0  0  0  0  0
   57.9951   21.1734   46.8838 H   0  0  0  0  0  0  0  0  0  0  0  0
   59.5290   21.0740   42.9800 H   0  0  0  0  0  0  0  0  0  0  0  0
   61.0800   20.7370   43.5180 H   0  0  0  0  0  0  0  0  0  0  0  0
   58.1423   23.5366   43.2600 H   0  0  0  0  0  0  0  0  0  0  0  0
   55.6811   23.9126   43.4026 H   0  0  0  0  0  0  0  0  0  0  0  0
  1  2  3  0
  2  3  1  0
  3  4  2  0
  4  5  1  0
  5  6  2  0
  6  7  1  0
  7  8  2  0
  8  9  1  0
  8 10  1  0
 10 11  2  0
  4 12  1  0
 12 13  1  0
 13 14  2  3
 14 15  1  0
 15 16  1  0
 16 17  1  0
 17 18  2  0
 18 19  1  0
 19 20  2  0
 20 21  1  0
 21 22  1  0
 21 23  2  0
 21 24  2  0
 20 25  1  0
 25 26  2  0
 13 27  1  0
 27 28  1  0
 28 29  2  0
 28  3  1  0
 11  5  1  0
 26 17  1  0
  6 30  1  0
  7 31  1  0
 10 32  1  0
 11 33  1  0
 15 34  1  0
 15 35  1  0
 16 36  1  0
 16 37  1  0
 18 38  1  0
 19 39  1  0
 22 40  1  0
 22 41  1  0
 25 42  1  0
 26 43  1  0
M  CHG  2  12  -1  27  -1
M  END
>  <UniqueID>  (22) 
17

>  <SMILES>  (22) 
N#Cc1c(-c2ccc(Br)cc2)[n-]c(=NCCc2ccc(S(N)(=O)=O)cc2)[n-]c1=O

>  <Energy>  (22) 
48.66594332313582

>  <Genealogy>  (22) 
N#Cc1c(-c2ccc(Br)cc2)[n-]c(=NCCc2ccc(S(N)(=O)=O)cc2)[n-]c1=O (protonated)
N#Cc1c(-c2ccc(Br)cc2)[n-]c(=NCCc2ccc(S(N)(=O)=O)cc2)[n-]c1=O (3D coordinates assigned)
N#Cc1c(-c2ccc(Br)cc2)[n-]c(=NCCc2ccc(S(N)(=O)=O)cc2)[n-]c1=O (optimized conformer: 48.66594332313582 kcal/mol)

>  <smiles>  (22) 
N#Cc1c(-c2ccc(Br)cc2)[nH]c(=NCCc2ccc(S(N)(=O)=O)cc2)[nH]c1=O

>  <score_type>  (22) 
oracle

>  <origin>  (22) 
adg

>  <m_score__min__energy>  (22) 
-11.880000000000001

>  <m_primary>  (22) 
energy

$$$$
22:0
     RDKit          3D

 40 41  0  0  0  0  0  0  0  0999 V2000
   63.4140   33.1550   49.1010 C   0  0  0  0  0  0  0  0  0  0  0  0
   62.4690   33.7320   48.1400 N   0  0  0  0  0  0  0  0  0  0  0  0
   62.8120   33.8350   46.7200 C   0  0  0  0  0  0  0  0  0  0  0  0
   61.1910   34.2120   48.5920 C   0  0  0  0  0  0  0  0  0  0  0  0
   60.8750   34.1070   49.8090 O   0  0  0  0  0  0  0  0  0  0  0  0
   60.2820   34.7410   47.6640 O   0  0  0  0  0  0  0  0  0  0  0  0
   59.5900   34.0040   46.6930 C   0  0  0  0  0  0  0  0  0  0  0  0
   59.1830   34.6580   45.5240 C   0  0  0  0  0  0  0  0  0  0  0  0
   58.4830   33.9670   44.5310 C   0  0  0  0  0  0  0  0  0  0  0  0
   58.1600   32.6130   44.7030 C   0  0  0  0  0  0  0  0  0  0  0  0
   57.4390   31.8610   43.6190 C   0  0  0  0  0  0  0  0  0  0  0  0
   57.0560   30.4970   44.1050 C   0  0  0  0  0  0  0  0  0  0  0  0
   55.9550   30.3420   44.6990 O   0  0  0  0  0  0  0  0  0  0  0  0
   57.8970   29.3700   43.8130 N   0  0  0  0  0  0  0  0  0  0  0  0
   57.6860   28.0510   44.3460 C   0  0  0  0  0  0  0  0  0  0  0  0
   57.2660   27.8610   45.6770 C   0  0  0  0  0  0  0  0  0  0  0  0
   57.0890   26.5690   46.1840 C   0  0  0  0  0  0  0  0  0  0  0  0
   57.3400   25.4590   45.3740 C   0  0  0  0  0  0  0  0  0  0  0  0
   57.7760   25.6370   44.0600 C   0  0  0  0  0  0  0  0  0  0  0  0
   57.9570   26.9260   43.5470 C   0  0  0  0  0  0  0  0  0  0  0  0
   58.3780   27.0800   42.2660 F   0  0  0  0  0  0  0  0  0  0  0  0
   58.5580   31.9560   45.8790 C   0  0  0  0  0  0  0  0  0  0  0  0
   59.2590   32.6470   46.8710 C   0  0  0  0  0  0  0  0  0  0  0  0
   63.0701   33.3649   50.1246 H   0  0  0  0  0  0  0  0  0  0  0  0
   63.4724   32.0670   48.9497 H   0  0  0  0  0  0  0  0  0  0  0  0
   64.4085   33.6001   48.9497 H   0  0  0  0  0  0  0  0  0  0  0  0
   63.8610   34.1500   46.6181 H   0  0  0  0  0  0  0  0  0  0  0  0
   62.6746   32.8560   46.2377 H   0  0  0  0  0  0  0  0  0  0  0  0
   62.1580   34.5764   46.2377 H   0  0  0  0  0  0  0  0  0  0  0  0
   59.4160   35.7241   45.3859 H   0  0  0  0  0  0  0  0  0  0  0  0
   58.1838   34.4879   43.6095 H   0  0  0  0  0  0  0  0  0  0  0  0
   56.5315   32.4138   43.3347 H   0  0  0  0  0  0  0  0  0  0  0  0
   58.1038   31.7591   42.7486 H   0  0  0  0  0  0  0  0  0  0  0  0
   58.6560   29.4990   43.1070 H   0  0  0  0  0  0  0  0  0  0  0  0
   57.0763   28.7325   46.3208 H   0  0  0  0  0  0  0  0  0  0  0  0
   56.7519   26.4272   47.2214 H   0  0  0  0  0  0  0  0  0  0  0  0
   57.1940   24.4439   45.7719 H   0  0  0  0  0  0  0  0  0  0  0  0
   57.9779   24.7611   43.4259 H   0  0  0  0  0  0  0  0  0  0  0  0
   58.3166   30.8921   46.0198 H   0  0  0  0  0  0  0  0  0  0  0  0
   59.5536   32.1284   47.7952 H   0  0  0  0  0  0  0  0  0  0  0  0
  1  2  1  0
  2  3  1  0
  2  4  1  0
  4  5  2  0
  4  6  1  0
  6  7  1  0
  7  8  2  0
  8  9  1  0
  9 10  2  0
 10 11  1  0
 11 12  1  0
 12 13  2  0
 12 14  1  0
 14 15  1  0
 15 16  2  0
 16 17  1  0
 17 18  2  0
 18 19  1  0
 19 20  2  0
 20 21  1  0
 10 22  1  0
 22 23  2  0
 23  7  1  0
 20 15  1  0
  1 24  1  0
  1 25  1  0
  1 26  1  0
  3 27  1  0
  3 28  1  0
  3 29  1  0
  8 30  1  0
  9 31  1  0
 11 32  1  0
 11 33  1  0
 14 34  1  0
 16 35  1  0
 17 36  1  0
 18 37  1  0
 19 38  1  0
 22 39  1  0
 23 40  1  0
M  END
>  <UniqueID>  (23) 
18

>  <SMILES>  (23) 
CN(C)C(=O)Oc1ccc(CC(=O)Nc2ccccc2F)cc1

>  <Energy>  (23) 
42.50440833759724

>  <Genealogy>  (23) 
CN(C)C(=O)Oc1ccc(CC(=O)Nc2ccccc2F)cc1 (3D coordinates assigned)
CN(C)C(=O)Oc1ccc(CC(=O)Nc2ccccc2F)cc1 (optimized conformer: 42.50440833759724 kcal/mol)

>  <smiles>  (23) 
CN(C)C(=O)Oc1ccc(CC(=O)Nc2ccccc2F)cc1

>  <score_type>  (23) 
oracle

>  <origin>  (23) 
adg

>  <m_score__min__energy>  (23) 
-7.7400000000000002

>  <m_primary>  (23) 
energy

$$$$
23:0
     RDKit          3D

 34 35  0  0  0  0  0  0  0  0999 V2000
   55.3110   29.7290   43.6040 C   0  0  0  0  0  0  0  0  0  0  0  0
   55.8220   29.4640   44.9050 O   0  0  0  0  0  0  0  0  0  0  0  0
   57.1890   29.3330   45.1720 C   0  0  0  0  0  0  0  0  0  0  0  0
   57.7840   28.1060   45.1510 N   0  0  0  0  0  0  0  0  0  0  0  0
   59.1070   27.9450   45.4080 C   0  0  0  0  0  0  0  0  0  0  0  0
   59.9010   29.0530   45.7030 C   0  0  0  0  0  0  0  0  0  0  0  0
   59.3220   30.3220   45.7300 C   0  0  0  0  0  0  0  0  0  0  0  0
   57.9500   30.4740   45.4650 C   0  0  0  0  0  0  0  0  0  0  0  0
   57.3040   31.7560   45.4910 N   0  0  0  0  0  0  0  0  0  0  0  0
   58.1080   33.2830   45.3220 S   0  0  0  0  0  0  0  0  0  0  0  0
   57.0920   34.3850   45.4230 O   0  0  0  0  0  0  0  0  0  0  0  0
   58.7670   33.3440   43.9720 O   0  0  0  0  0  0  0  0  0  0  0  0
   59.3010   33.4870   46.6010 C   0  0  0  0  0  0  0  0  0  0  0  0
   58.9070   33.9470   47.8660 C   0  0  0  0  0  0  0  0  0  0  0  0
   59.8570   34.1150   48.8760 C   0  0  0  0  0  0  0  0  0  0  0  0
   61.2020   33.8310   48.6300 C   0  0  0  0  0  0  0  0  0  0  0  0
   61.6050   33.3760   47.3680 C   0  0  0  0  0  0  0  0  0  0  0  0
   63.3010   33.0120   47.0630 S   0  0  0  0  0  0  0  0  0  0  0  0
   64.2440   33.4230   48.4520 N   0  0  0  0  0  0  0  0  0  0  0  0
   63.4650   31.5480   46.7650 O   0  0  0  0  0  0  0  0  0  0  0  0
   63.7820   33.8020   45.8770 O   0  0  0  0  0  0  0  0  0  0  0  0
   60.6500   33.1920   46.3590 C   0  0  0  0  0  0  0  0  0  0  0  0
   54.3374   30.2339   43.6883 H   0  0  0  0  0  0  0  0  0  0  0  0
   56.0137   30.3763   43.0589 H   0  0  0  0  0  0  0  0  0  0  0  0
   55.1868   28.7817   43.0589 H   0  0  0  0  0  0  0  0  0  0  0  0
   59.5533   26.9399   45.3836 H   0  0  0  0  0  0  0  0  0  0  0  0
   60.9736   28.9275   45.9124 H   0  0  0  0  0  0  0  0  0  0  0  0
   59.9391   31.2035   45.9586 H   0  0  0  0  0  0  0  0  0  0  0  0
   57.8492   34.1756   48.0628 H   0  0  0  0  0  0  0  0  0  0  0  0
   59.5447   34.4722   49.8684 H   0  0  0  0  0  0  0  0  0  0  0  0
   61.9464   33.9649   49.4288 H   0  0  0  0  0  0  0  0  0  0  0  0
   65.2210   33.1070   48.2630 H   0  0  0  0  0  0  0  0  0  0  0  0
   63.8870   32.8460   49.2460 H   0  0  0  0  0  0  0  0  0  0  0  0
   60.9601   32.8147   45.3734 H   0  0  0  0  0  0  0  0  0  0  0  0
  1  2  1  0
  2  3  1  0
  3  4  2  0
  4  5  1  0
  5  6  2  0
  6  7  1  0
  7  8  2  0
  8  9  1  0
  9 10  1  0
 10 11  2  0
 10 12  2  0
 10 13  1  0
 13 14  2  0
 14 15  1  0
 15 16  2  0
 16 17  1  0
 17 18  1  0
 18 19  1  0
 18 20  2  0
 18 21  2  0
 17 22  2  0
  8  3  1  0
 22 13  1  0
  1 23  1  0
  1 24  1  0
  1 25  1  0
  5 26  1  0
  6 27  1  0
  7 28  1  0
 14 29  1  0
 15 30  1  0
 16 31  1  0
 19 32  1  0
 19 33  1  0
 22 34  1  0
M  CHG  1   9  -1
M  END
>  <UniqueID>  (24) 
19

>  <SMILES>  (24) 
COc1ncccc1[N-]S(=O)(=O)c1cccc(S(N)(=O)=O)c1

>  <Energy>  (24) 
34.41907329301938

>  <Genealogy>  (24) 
COc1ncccc1[N-]S(=O)(=O)c1cccc(S(N)(=O)=O)c1 (protonated)
COc1ncccc1[N-]S(=O)(=O)c1cccc(S(N)(=O)=O)c1 (3D coordinates assigned)
COc1ncccc1[N-]S(=O)(=O)c1cccc(S(N)(=O)=O)c1 (optimized conformer: 34.41907329301938 kcal/mol)

>  <smiles>  (24) 
COc1ncccc1NS(=O)(=O)c1cccc(S(N)(=O)=O)c1

>  <score_type>  (24) 
oracle

>  <origin>  (24) 
adg

>  <m_score__min__energy>  (24) 
-9.7300000000000004

>  <m_primary>  (24) 
energy

$$$$
24:0
     RDKit          3D

 39 41  0  0  0  0  0  0  0  0999 V2000
   58.1190   32.0160   43.1240 O   0  0  0  0  0  0  0  0  0  0  0  0
   57.6130   31.7810   44.2530 C   0  0  0  0  0  0  0  0  0  0  0  0
   56.9290   32.8400   44.9390 N   0  0  0  0  0  0  0  0  0  0  0  0
   57.4710   34.1700   45.2160 C   0  0  0  0  0  0  0  0  0  0  0  0
   58.6760   34.0870   46.1170 C   0  0  0  0  0  0  0  0  0  0  0  0
   58.5250   33.8490   47.4940 C   0  0  0  0  0  0  0  0  0  0  0  0
   59.6460   33.8030   48.3270 C   0  0  0  0  0  0  0  0  0  0  0  0
   60.9250   33.9860   47.7940 C   0  0  0  0  0  0  0  0  0  0  0  0
   62.3290   33.9330   48.8440 Cl  0  0  0  0  0  0  0  0  0  0  0  0
   61.0840   34.2110   46.4240 C   0  0  0  0  0  0  0  0  0  0  0  0
   59.9650   34.2590   45.5860 C   0  0  0  0  0  0  0  0  0  0  0  0
   57.6990   30.4180   44.8070 C   0  0  0  0  0  0  0  0  0  0  0  0
   57.3260   29.3190   44.0210 C   0  0  0  0  0  0  0  0  0  0  0  0
   57.3550   28.0280   44.5560 C   0  0  0  0  0  0  0  0  0  0  0  0
   57.7600   27.8170   45.8800 C   0  0  0  0  0  0  0  0  0  0  0  0
   57.7350   26.4830   46.4030 N   0  0  0  0  0  0  0  0  0  0  0  0
   56.3690   25.4190   46.3240 S   0  0  0  0  0  0  0  0  0  0  0  0
   55.1350   26.2100   45.9950 O   0  0  0  0  0  0  0  0  0  0  0  0
   56.1830   24.7470   47.6540 O   0  0  0  0  0  0  0  0  0  0  0  0
   56.6550   24.1940   45.1020 C   0  0  0  0  0  0  0  0  0  0  0  0
   55.9600   24.0710   43.9100 C   0  0  0  0  0  0  0  0  0  0  0  0
   56.3620   22.9640   43.1550 C   0  0  0  0  0  0  0  0  0  0  0  0
   57.3690   22.2180   43.7550 C   0  0  0  0  0  0  0  0  0  0  0  0
   57.7590   22.9340   45.2270 S   0  0  0  0  0  0  0  0  0  0  0  0
   58.1740   28.9160   46.6540 C   0  0  0  0  0  0  0  0  0  0  0  0
   58.1480   30.2050   46.1180 C   0  0  0  0  0  0  0  0  0  0  0  0
   57.7636   34.6436   44.2673 H   0  0  0  0  0  0  0  0  0  0  0  0
   56.6963   34.7649   45.7219 H   0  0  0  0  0  0  0  0  0  0  0  0
   57.5210   33.6984   47.9174 H   0  0  0  0  0  0  0  0  0  0  0  0
   59.5215   33.6223   49.4049 H   0  0  0  0  0  0  0  0  0  0  0  0
   62.0909   34.3506   46.0038 H   0  0  0  0  0  0  0  0  0  0  0  0
   60.0949   34.4320   44.5075 H   0  0  0  0  0  0  0  0  0  0  0  0
   57.0092   29.4731   42.9789 H   0  0  0  0  0  0  0  0  0  0  0  0
   57.0576   27.1717   43.9328 H   0  0  0  0  0  0  0  0  0  0  0  0
   55.1739   24.7709   43.5904 H   0  0  0  0  0  0  0  0  0  0  0  0
   55.9228   22.7085   42.1794 H   0  0  0  0  0  0  0  0  0  0  0  0
   57.8331   21.3120   43.3380 H   0  0  0  0  0  0  0  0  0  0  0  0
   58.5199   28.7593   47.6864 H   0  0  0  0  0  0  0  0  0  0  0  0
   58.4815   31.0578   46.7275 H   0  0  0  0  0  0  0  0  0  0  0  0
  1  2  2  0
  2  3  1  0
  3  4  1  0
  4  5  1  0
  5  6  2  0
  6  7  1  0
  7  8  2  0
  8  9  1  0
  8 10  1  0
 10 11  2  0
  2 12  1  0
 12 13  2  0
 13 14  1  0
 14 15  2  0
 15 16  1  0
 16 17  1  0
 17 18  2  0
 17 19  2  0
 17 20  1  0
 20 21  2  0
 21 22  1  0
 22 23  2  0
 23 24  1  0
 15 25  1  0
 25 26  2  0
 11  5  1  0
 26 12  1  0
 24 20  1  0
  4 27  1  0
  4 28  1  0
  6 29  1  0
  7 30  1  0
 10 31  1  0
 11 32  1  0
 13 33  1  0
 14 34  1  0
 21 35  1  0
 22 36  1  0
 23 37  1  0
 25 38  1  0
 26 39  1  0
M  CHG  2   3  -1  16  -1
M  END
>  <UniqueID>  (25) 
20

>  <SMILES>  (25) 
O=C([N-]Cc1ccc(Cl)cc1)c1ccc([N-]S(=O)(=O)c2cccs2)cc1

>  <Energy>  (25) 
70.64695807867759

>  <Genealogy>  (25) 
O=C([N-]Cc1ccc(Cl)cc1)c1ccc([N-]S(=O)(=O)c2cccs2)cc1 (protonated)
O=C([N-]Cc1ccc(Cl)cc1)c1ccc([N-]S(=O)(=O)c2cccs2)cc1 (3D coordinates assigned)
O=C([N-]Cc1ccc(Cl)cc1)c1ccc([N-]S(=O)(=O)c2cccs2)cc1 (optimized conformer: 70.64695807867759 kcal/mol)

>  <smiles>  (25) 
O=C(NCc1ccc(Cl)cc1)c1ccc(NS(=O)(=O)c2cccs2)cc1

>  <score_type>  (25) 
oracle

>  <origin>  (25) 
adg

>  <m_score__min__energy>  (25) 
-11.32

>  <m_primary>  (25) 
energy

$$$$
25:0
     RDKit          3D

 40 42  0  0  0  0  0  0  0  0999 V2000
   59.1920   27.1320   46.6790 N   0  0  0  0  0  0  0  0  0  0  0  0
   58.3180   27.9880   45.9260 C   0  0  0  0  0  0  0  0  0  0  0  0
   56.9780   27.6570   45.6580 C   0  0  0  0  0  0  0  0  0  0  0  0
   56.2640   26.4000   45.9510 C   0  0  0  0  0  0  0  0  0  0  0  0
   55.0080   26.3830   46.0410 O   0  0  0  0  0  0  0  0  0  0  0  0
   57.0180   25.1930   46.1190 N   0  0  0  0  0  0  0  0  0  0  0  0
   57.0980   24.0970   45.1960 C   0  0  0  0  0  0  0  0  0  0  0  0
   58.0310   23.0810   45.4380 C   0  0  0  0  0  0  0  0  0  0  0  0
   58.1260   21.9850   44.5740 C   0  0  0  0  0  0  0  0  0  0  0  0
   57.2760   21.8900   43.4690 C   0  0  0  0  0  0  0  0  0  0  0  0
   57.3660   20.8260   42.6330 F   0  0  0  0  0  0  0  0  0  0  0  0
   56.3240   22.8860   43.2330 C   0  0  0  0  0  0  0  0  0  0  0  0
   56.2270   23.9830   44.0940 C   0  0  0  0  0  0  0  0  0  0  0  0
   56.2710   28.9560   44.8580 S   0  0  0  0  0  0  0  0  0  0  0  0
   57.6670   29.8790   44.8660 C   0  0  0  0  0  0  0  0  0  0  0  0
   57.7350   31.3920   44.2360 S   0  0  0  0  0  0  0  0  0  0  0  0
   58.7000   29.2310   45.4720 N   0  0  0  0  0  0  0  0  0  0  0  0
   60.0230   29.8440   45.6910 C   0  0  0  0  0  0  0  0  0  0  0  0
   60.0970   30.5480   47.0540 C   0  0  0  0  0  0  0  0  0  0  0  0
   59.7550   32.0110   46.9520 C   0  0  0  0  0  0  0  0  0  0  0  0
   58.4340   32.4470   47.1510 C   0  0  0  0  0  0  0  0  0  0  0  0
   58.1290   33.8100   47.1090 C   0  0  0  0  0  0  0  0  0  0  0  0
   59.1370   34.7470   46.8700 C   0  0  0  0  0  0  0  0  0  0  0  0
   60.4540   34.3220   46.6740 C   0  0  0  0  0  0  0  0  0  0  0  0
   60.7640   32.9590   46.7170 C   0  0  0  0  0  0  0  0  0  0  0  0
   60.1260   27.4610   47.0000 H   0  0  0  0  0  0  0  0  0  0  0  0
   58.9710   26.1320   46.8650 H   0  0  0  0  0  0  0  0  0  0  0  0
   58.6937   23.1453   46.3136 H   0  0  0  0  0  0  0  0  0  0  0  0
   58.8701   21.1976   44.7645 H   0  0  0  0  0  0  0  0  0  0  0  0
   55.6496   22.8064   42.3677 H   0  0  0  0  0  0  0  0  0  0  0  0
   55.4691   24.7590   43.9109 H   0  0  0  0  0  0  0  0  0  0  0  0
   60.7921   29.0585   45.6519 H   0  0  0  0  0  0  0  0  0  0  0  0
   60.1906   30.5947   44.9046 H   0  0  0  0  0  0  0  0  0  0  0  0
   59.3882   30.0646   47.7424 H   0  0  0  0  0  0  0  0  0  0  0  0
   61.1297   30.4652   47.4238 H   0  0  0  0  0  0  0  0  0  0  0  0
   57.6372   31.7127   47.3405 H   0  0  0  0  0  0  0  0  0  0  0  0
   57.0931   34.1457   47.2645 H   0  0  0  0  0  0  0  0  0  0  0  0
   58.8943   35.8194   46.8360 H   0  0  0  0  0  0  0  0  0  0  0  0
   61.2474   35.0603   46.4857 H   0  0  0  0  0  0  0  0  0  0  0  0
   61.8022   32.6282   46.5662 H   0  0  0  0  0  0  0  0  0  0  0  0
  1  2  1  0
  2  3  2  0
  3  4  1  0
  4  5  2  0
  4  6  1  0
  6  7  1  0
  7  8  2  0
  8  9  1  0
  9 10  2  0
 10 11  1  0
 10 12  1  0
 12 13  2  0
  3 14  1  0
 14 15  1  0
 15 16  2  0
 15 17  1  0
 17 18  1  0
 18 19  1  0
 19 20  1  0
 20 21  2  0
 21 22  1  0
 22 23  2  0
 23 24  1  0
 24 25  2  0
 17  2  1  0
 25 20  1  0
 13  7  1  0
  1 26  1  0
  1 27  1  0
  8 28  1  0
  9 29  1  0
 12 30  1  0
 13 31  1  0
 18 32  1  0
 18 33  1  0
 19 34  1  0
 19 35  1  0
 21 36  1  0
 22 37  1  0
 23 38  1  0
 24 39  1  0
 25 40  1  0
M  CHG  1   6  -1
M  END
>  <UniqueID>  (26) 
21

>  <SMILES>  (26) 
Nc1c(C(=O)[N-]c2ccc(F)cc2)sc(=S)n1CCc1ccccc1

>  <Energy>  (26) 
76.76489294051746

>  <Genealogy>  (26) 
Nc1c(C(=O)[N-]c2ccc(F)cc2)sc(=S)n1CCc1ccccc1 (protonated)
Nc1c(C(=O)[N-]c2ccc(F)cc2)sc(=S)n1CCc1ccccc1 (3D coordinates assigned)
Nc1c(C(=O)[N-]c2ccc(F)cc2)sc(=S)n1CCc1ccccc1 (optimized conformer: 76.76489294051746 kcal/mol)

>  <smiles>  (26) 
Nc1c(C(=O)Nc2ccc(F)cc2)sc(=S)n1CCc1ccccc1

>  <score_type>  (26) 
oracle

>  <origin>  (26) 
adg

>  <m_score__min__energy>  (26) 
-10.539999999999999

>  <m_primary>  (26) 
energy

$$$$
26:0
     RDKit          3D

 36 37  0  0  0  0  0  0  0  0999 V2000
   59.2540   34.9890   44.8970 C   0  0  0  0  0  0  0  0  0  0  0  0
   59.8530   34.7880   46.2560 C   0  0  0  0  0  0  0  0  0  0  0  0
   59.6960   35.6940   47.1200 O   0  0  0  0  0  0  0  0  0  0  0  0
   60.6170   33.5590   46.6060 C   0  0  0  0  0  0  0  0  0  0  0  0
   62.0060   33.6030   46.8390 C   0  0  0  0  0  0  0  0  0  0  0  0
   62.7040   32.4430   47.1850 C   0  0  0  0  0  0  0  0  0  0  0  0
   62.0330   31.2250   47.2910 C   0  0  0  0  0  0  0  0  0  0  0  0
   60.6580   31.1490   47.0390 C   0  0  0  0  0  0  0  0  0  0  0  0
   59.9870   29.8850   47.1780 N   0  0  0  0  0  0  0  0  0  0  0  0
   59.2120   29.2680   46.1340 C   0  0  0  0  0  0  0  0  0  0  0  0
   59.2190   29.7460   44.9670 O   0  0  0  0  0  0  0  0  0  0  0  0
   58.4200   28.0480   46.4110 C   0  0  0  0  0  0  0  0  0  0  0  0
   57.0760   27.9310   45.9800 C   0  0  0  0  0  0  0  0  0  0  0  0
   56.3930   29.0600   45.2440 C   0  0  0  0  0  0  0  0  0  0  0  0
   56.3790   26.7320   46.2220 C   0  0  0  0  0  0  0  0  0  0  0  0
   55.0680   26.5710   45.7790 O   0  0  0  0  0  0  0  0  0  0  0  0
   57.0100   25.6900   46.9170 C   0  0  0  0  0  0  0  0  0  0  0  0
   56.2900   24.4080   47.1990 C   0  0  0  0  0  0  0  0  0  0  0  0
   58.2950   25.8350   47.3290 N   0  0  0  0  0  0  0  0  0  0  0  0
   59.0100   26.9660   47.0950 C   0  0  0  0  0  0  0  0  0  0  0  0
   60.2090   27.0200   47.4770 O   0  0  0  0  0  0  0  0  0  0  0  0
   59.9520   32.3210   46.7170 C   0  0  0  0  0  0  0  0  0  0  0  0
   58.2159   35.3373   45.0017 H   0  0  0  0  0  0  0  0  0  0  0  0
   59.8390   35.7401   44.3459 H   0  0  0  0  0  0  0  0  0  0  0  0
   59.2675   34.0371   44.3459 H   0  0  0  0  0  0  0  0  0  0  0  0
   62.5449   34.5576   46.7478 H   0  0  0  0  0  0  0  0  0  0  0  0
   63.7865   32.4907   47.3744 H   0  0  0  0  0  0  0  0  0  0  0  0
   62.5876   30.3183   47.5744 H   0  0  0  0  0  0  0  0  0  0  0  0
   60.1150   29.3640   48.0740 H   0  0  0  0  0  0  0  0  0  0  0  0
   55.9658   29.7662   45.9711 H   0  0  0  0  0  0  0  0  0  0  0  0
   57.1265   29.5828   44.6125 H   0  0  0  0  0  0  0  0  0  0  0  0
   55.5895   28.6530   44.6125 H   0  0  0  0  0  0  0  0  0  0  0  0
   56.2093   24.2644   48.2866 H   0  0  0  0  0  0  0  0  0  0  0  0
   55.2827   24.4487   46.7588 H   0  0  0  0  0  0  0  0  0  0  0  0
   56.8489   23.5691   46.7588 H   0  0  0  0  0  0  0  0  0  0  0  0
   58.8660   32.2715   46.5494 H   0  0  0  0  0  0  0  0  0  0  0  0
  1  2  1  0
  2  3  2  0
  2  4  1  0
  4  5  2  0
  5  6  1  0
  6  7  2  0
  7  8  1  0
  8  9  1  0
  9 10  1  0
 10 11  2  0
 10 12  1  0
 12 13  2  0
 13 14  1  0
 13 15  1  0
 15 16  1  0
 15 17  2  0
 17 18  1  0
 17 19  1  0
 19 20  1  0
 20 21  2  0
  8 22  2  0
 22  4  1  0
 20 12  1  0
  1 23  1  0
  1 24  1  0
  1 25  1  0
  5 26  1  0
  6 27  1  0
  7 28  1  0
  9 29  1  0
 14 30  1  0
 14 31  1  0
 14 32  1  0
 18 33  1  0
 18 34  1  0
 18 35  1  0
 22 36  1  0
M  CHG  2  16  -1  19  -1
M  END
>  <UniqueID>  (27) 
22

>  <SMILES>  (27) 
CC(=O)c1cccc(NC(=O)c2c(C)c([O-])c(C)[n-]c2=O)c1

>  <Energy>  (27) 
48.5979378633132

>  <Genealogy>  (27) 
CC(=O)c1cccc(NC(=O)c2c(C)c([O-])c(C)[n-]c2=O)c1 (protonated)
CC(=O)c1cccc(NC(=O)c2c(C)c([O-])c(C)[n-]c2=O)c1 (3D coordinates assigned)
CC(=O)c1cccc(NC(=O)c2c(C)c([O-])c(C)[n-]c2=O)c1 (optimized conformer: 48.5979378633132 kcal/mol)

>  <smiles>  (27) 
CC(=O)c1cccc(NC(=O)c2c(C)c(O)c(C)[nH]c2=O)c1

>  <score_type>  (27) 
oracle

>  <origin>  (27) 
adg

>  <m_score__min__energy>  (27) 
-11.630000000000001

>  <m_primary>  (27) 
energy

$$$$
27:0
     RDKit          3D

 39 41  0  0  0  0  0  0  0  0999 V2000
   54.8630   26.2800   45.9850 N   0  0  0  0  0  0  0  0  0  0  0  0
   56.1510   25.9820   46.5190 C   0  0  0  0  0  0  0  0  0  0  0  0
   56.2530   25.0700   47.3840 O   0  0  0  0  0  0  0  0  0  0  0  0
   57.3620   26.7310   46.0820 C   0  0  0  0  0  0  0  0  0  0  0  0
   58.6330   26.1800   46.3240 C   0  0  0  0  0  0  0  0  0  0  0  0
   59.7910   26.8660   45.9600 C   0  0  0  0  0  0  0  0  0  0  0  0
   59.7020   28.1090   45.3400 C   0  0  0  0  0  0  0  0  0  0  0  0
   58.4530   28.6750   45.0560 C   0  0  0  0  0  0  0  0  0  0  0  0
   58.4090   29.9770   44.4430 N   0  0  0  0  0  0  0  0  0  0  0  0
   58.0960   31.1820   45.1550 C   0  0  0  0  0  0  0  0  0  0  0  0
   57.3190   32.1760   44.5450 C   0  0  0  0  0  0  0  0  0  0  0  0
   57.0270   33.3540   45.2320 C   0  0  0  0  0  0  0  0  0  0  0  0
   57.5140   33.5280   46.5280 C   0  0  0  0  0  0  0  0  0  0  0  0
   58.2590   32.5520   47.1120 N   0  0  0  0  0  0  0  0  0  0  0  0
   58.5690   31.3930   46.4670 C   0  0  0  0  0  0  0  0  0  0  0  0
   59.3280   30.3270   47.2150 C   0  0  0  0  0  0  0  0  0  0  0  0
   60.6090   30.8850   47.7900 C   0  0  0  0  0  0  0  0  0  0  0  0
   61.2890   31.9040   47.0970 C   0  0  0  0  0  0  0  0  0  0  0  0
   62.4410   32.4840   47.6370 C   0  0  0  0  0  0  0  0  0  0  0  0
   63.2610   33.7730   46.7770 Cl  0  0  0  0  0  0  0  0  0  0  0  0
   62.9310   32.0450   48.8710 C   0  0  0  0  0  0  0  0  0  0  0  0
   62.2750   31.0220   49.5590 C   0  0  0  0  0  0  0  0  0  0  0  0
   61.1220   30.4380   49.0260 C   0  0  0  0  0  0  0  0  0  0  0  0
   60.4930   29.4190   49.7340 O   0  0  0  0  0  0  0  0  0  0  0  0
   57.2770   27.9920   45.4420 C   0  0  0  0  0  0  0  0  0  0  0  0
   56.0360   28.5750   45.2060 O   0  0  0  0  0  0  0  0  0  0  0  0
   54.7590   26.7190   45.0430 H   0  0  0  0  0  0  0  0  0  0  0  0
   58.7147   25.1950   46.8068 H   0  0  0  0  0  0  0  0  0  0  0  0
   60.7774   26.4237   46.1633 H   0  0  0  0  0  0  0  0  0  0  0  0
   60.6204   28.6513   45.0709 H   0  0  0  0  0  0  0  0  0  0  0  0
   58.5490   30.0470   43.4100 H   0  0  0  0  0  0  0  0  0  0  0  0
   56.9391   32.0270   43.5235 H   0  0  0  0  0  0  0  0  0  0  0  0
   56.4190   34.1380   44.7570 H   0  0  0  0  0  0  0  0  0  0  0  0
   57.2950   34.4554   47.0776 H   0  0  0  0  0  0  0  0  0  0  0  0
   58.7010   29.9453   48.0343 H   0  0  0  0  0  0  0  0  0  0  0  0
   59.5790   29.5159   46.5156 H   0  0  0  0  0  0  0  0  0  0  0  0
   60.9111   32.2469   46.1225 H   0  0  0  0  0  0  0  0  0  0  0  0
   63.8333   32.5055   49.2998 H   0  0  0  0  0  0  0  0  0  0  0  0
   62.6677   30.6737   50.5257 H   0  0  0  0  0  0  0  0  0  0  0  0
  1  2  1  0
  2  3  2  0
  2  4  1  0
  4  5  2  0
  5  6  1  0
  6  7  2  0
  7  8  1  0
  8  9  1  0
  9 10  1  0
 10 11  2  0
 11 12  1  0
 12 13  2  0
 13 14  1  0
 14 15  2  0
 15 16  1  0
 16 17  1  0
 17 18  2  0
 18 19  1  0
 19 20  1  0
 19 21  2  0
 21 22  1  0
 22 23  2  0
 23 24  1  0
  8 25  2  0
 25 26  1  0
 25  4  1  0
 15 10  1  0
 23 17  1  0
  1 27  1  0
  5 28  1  0
  6 29  1  0
  7 30  1  0
  9 31  1  0
 11 32  1  0
 12 33  1  0
 13 34  1  0
 16 35  1  0
 16 36  1  0
 18 37  1  0
 21 38  1  0
 22 39  1  0
M  CHG  3   1  -1  24  -1  26  -1
M  END
>  <UniqueID>  (28) 
23

>  <SMILES>  (28) 
[NH-]C(=O)c1cccc(Nc2cccnc2Cc2cc(Cl)ccc2[O-])c1[O-]

>  <Energy>  (28) 
50.962425828187996

>  <Genealogy>  (28) 
[NH-]C(=O)c1cccc(Nc2cccnc2Cc2cc(Cl)ccc2[O-])c1[O-] (protonated)
[NH-]C(=O)c1cccc(Nc2cccnc2Cc2cc(Cl)ccc2[O-])c1[O-] (3D coordinates assigned)
[NH-]C(=O)c1cccc(Nc2cccnc2Cc2cc(Cl)ccc2[O-])c1[O-] (optimized conformer: 50.962425828187996 kcal/mol)

>  <smiles>  (28) 
NC(=O)c1cccc(Nc2cccnc2Cc2cc(Cl)ccc2O)c1O

>  <score_type>  (28) 
oracle

>  <origin>  (28) 
adg

>  <m_score__min__energy>  (28) 
-16.27

>  <m_primary>  (28) 
energy

$$$$
28:0
     RDKit          3D

 38 40  0  0  1  0  0  0  0  0999 V2000
   65.2090   33.0610   49.4330 N   0  0  0  0  0  0  0  0  0  0  0  0
   64.1950   33.2760   48.9520 C   0  0  0  0  0  0  0  0  0  0  0  0
   62.9240   33.5670   48.3380 C   0  0  0  0  0  0  0  0  0  0  0  0
   62.8200   33.5360   46.9490 C   0  0  0  0  0  0  0  0  0  0  0  0
   61.5860   33.8210   46.3940 C   0  0  0  0  0  0  0  0  0  0  0  0
   60.4870   34.1280   47.1830 C   0  0  0  0  0  0  0  0  0  0  0  0
   59.2280   34.4170   46.5870 N   0  0  0  0  0  0  0  0  0  0  0  0
   58.7240   33.5530   45.7910 C   0  0  0  0  0  0  0  0  0  0  0  0
   58.6160   33.9140   44.4880 N   0  0  0  0  0  0  0  0  0  0  0  0
   58.1020   33.0930   43.5520 C   0  0  0  0  0  0  0  0  0  0  0  0
   57.6720   31.8430   43.9440 C   0  0  0  0  0  0  0  0  0  0  0  0
   57.0060   30.7670   42.7530 Cl  0  0  0  0  0  0  0  0  0  0  0  0
   57.7910   31.4930   45.2820 C   0  0  0  0  0  0  0  0  0  0  0  0
   57.3780   30.3170   45.6040 N   0  0  0  0  0  0  0  0  0  0  0  0
   58.1800   29.4590   46.4080 C   0  0  0  0  0  0  0  0  0  0  0  0
   59.5870   29.5040   45.7890 C   0  0  0  0  0  0  0  0  0  0  0  0
   59.4670   28.7160   44.5030 C   0  0  0  0  0  0  0  0  0  0  0  0
   58.1780   27.9410   44.6260 C   0  0  0  0  0  0  0  0  0  0  0  0
   57.8230   28.0250   46.1060 C   0  0  0  0  0  0  0  0  0  0  0  0
   58.3100   32.3380   46.1930 N   0  0  0  0  0  0  0  0  0  0  0  0
   60.5930   34.1590   48.5770 C   0  0  0  0  0  0  0  0  0  0  0  0
   61.8200   33.8770   49.1320 C   0  0  0  0  0  0  0  0  0  0  0  0
   63.6874   33.2938   46.3173 H   0  0  0  0  0  0  0  0  0  0  0  0
   61.4730   33.8039   45.3000 H   0  0  0  0  0  0  0  0  0  0  0  0
   58.9350   34.8510   44.1820 H   0  0  0  0  0  0  0  0  0  0  0  0
   58.0272   33.4116   42.5018 H   0  0  0  0  0  0  0  0  0  0  0  0
   58.0762   29.7473   47.4645 H   0  0  0  0  0  0  0  0  0  0  0  0
   59.8863   30.5419   45.5813 H   0  0  0  0  0  0  0  0  0  0  0  0
   60.3510   29.0877   46.4621 H   0  0  0  0  0  0  0  0  0  0  0  0
   59.4269   29.3947   43.6382 H   0  0  0  0  0  0  0  0  0  0  0  0
   60.3302   28.0519   44.3484 H   0  0  0  0  0  0  0  0  0  0  0  0
   57.3892   28.3978   44.0103 H   0  0  0  0  0  0  0  0  0  0  0  0
   58.2791   26.9024   44.2780 H   0  0  0  0  0  0  0  0  0  0  0  0
   56.7538   27.8306   46.2764 H   0  0  0  0  0  0  0  0  0  0  0  0
   58.3387   27.2871   46.7381 H   0  0  0  0  0  0  0  0  0  0  0  0
   58.3890   32.0520   47.1930 H   0  0  0  0  0  0  0  0  0  0  0  0
   59.7251   34.4006   49.2082 H   0  0  0  0  0  0  0  0  0  0  0  0
   61.9328   33.8965   50.2260 H   0  0  0  0  0  0  0  0  0  0  0  0
  1  2  3  0
  2  3  1  0
  3  4  2  0
  4  5  1  0
  5  6  2  0
  6  7  1  0
  7  8  2  0
  8  9  1  0
  9 10  1  0
 10 11  2  0
 11 12  1  0
 11 13  1  0
 13 14  2  0
 14 15  1  0
 15 16  1  0
 16 17  1  0
 17 18  1  0
 18 19  1  0
 13 20  1  0
  6 21  1  0
 21 22  2  0
 22  3  1  0
 20  8  1  0
 19 15  1  0
  4 23  1  0
  5 24  1  0
  9 25  1  0
 10 26  1  0
 15 27  1  0
 16 28  1  0
 16 29  1  0
 17 30  1  0
 17 31  1  0
 18 32  1  0
 18 33  1  0
 19 34  1  0
 19 35  1  0
 20 36  1  0
 21 37  1  0
 22 38  1  0
M  END
>  <smiles>  (29) 
N#Cc1ccc(N=c2[nH]cc(Cl)c(=NC3CCCC3)[nH]2)cc1

>  <score_type>  (29) 
oracle

>  <origin>  (29) 
adg

>  <m_score__min__energy>  (29) 
-7.9699999999999998

>  <m_primary>  (29) 
energy

$$$$
29:0
     RDKit          3D

 46 48  0  0  0  0  0  0  0  0999 V2000
   56.4640   30.8940   44.7470 O   0  0  0  0  0  0  0  0  0  0  0  0
   56.3130   29.6770   44.4590 C   0  0  0  0  0  0  0  0  0  0  0  0
   55.1490   29.0200   44.8390 O   0  0  0  0  0  0  0  0  0  0  0  0
   57.3970   28.9310   43.7510 C   0  0  0  0  0  0  0  0  0  0  0  0
   58.2750   28.3080   44.6870 O   0  0  0  0  0  0  0  0  0  0  0  0
   57.9370   27.2460   45.5450 C   0  0  0  0  0  0  0  0  0  0  0  0
   56.6470   26.6810   45.5700 C   0  0  0  0  0  0  0  0  0  0  0  0
   56.3580   25.6210   46.4350 C   0  0  0  0  0  0  0  0  0  0  0  0
   57.3440   25.1250   47.2890 C   0  0  0  0  0  0  0  0  0  0  0  0
   58.6220   25.6850   47.2810 C   0  0  0  0  0  0  0  0  0  0  0  0
   58.9250   26.7350   46.4040 C   0  0  0  0  0  0  0  0  0  0  0  0
   60.5790   27.4450   46.4100 S   0  0  0  0  0  0  0  0  0  0  0  0
   60.3120   28.5130   47.8720 C   0  0  0  0  0  0  0  0  0  0  0  0
   59.6930   29.8340   47.5010 C   0  0  0  0  0  0  0  0  0  0  0  0
   59.7130   30.2770   46.1690 C   0  0  0  0  0  0  0  0  0  0  0  0
   59.1590   31.5150   45.8290 C   0  0  0  0  0  0  0  0  0  0  0  0
   58.5500   32.3120   46.8110 C   0  0  0  0  0  0  0  0  0  0  0  0
   57.9760   33.6530   46.4450 C   0  0  0  0  0  0  0  0  0  0  0  0
   59.2510   34.7040   45.6660 S   0  0  0  0  0  0  0  0  0  0  0  0
   60.5430   34.2960   46.8450 C   0  0  0  0  0  0  0  0  0  0  0  0
   61.7380   33.7160   46.4040 C   0  0  0  0  0  0  0  0  0  0  0  0
   62.7420   33.3930   47.3240 C   0  0  0  0  0  0  0  0  0  0  0  0
   62.5500   33.6470   48.6860 C   0  0  0  0  0  0  0  0  0  0  0  0
   61.3550   34.2210   49.1300 C   0  0  0  0  0  0  0  0  0  0  0  0
   60.3520   34.5410   48.2100 C   0  0  0  0  0  0  0  0  0  0  0  0
   58.5200   31.8640   48.1400 C   0  0  0  0  0  0  0  0  0  0  0  0
   59.0940   30.6380   48.4840 C   0  0  0  0  0  0  0  0  0  0  0  0
   56.9452   28.1590   43.1107 H   0  0  0  0  0  0  0  0  0  0  0  0
   57.9756   29.6414   43.1422 H   0  0  0  0  0  0  0  0  0  0  0  0
   55.8635   27.0753   44.9062 H   0  0  0  0  0  0  0  0  0  0  0  0
   55.3515   25.1772   46.4423 H   0  0  0  0  0  0  0  0  0  0  0  0
   57.1135   24.2918   47.9691 H   0  0  0  0  0  0  0  0  0  0  0  0
   59.3935   25.3013   47.9648 H   0  0  0  0  0  0  0  0  0  0  0  0
   59.6441   27.9928   48.5744 H   0  0  0  0  0  0  0  0  0  0  0  0
   61.2922   28.7140   48.3290 H   0  0  0  0  0  0  0  0  0  0  0  0
   60.1665   29.6474   45.3893 H   0  0  0  0  0  0  0  0  0  0  0  0
   59.2006   31.8659   44.7873 H   0  0  0  0  0  0  0  0  0  0  0  0
   57.1441   33.5103   45.7396 H   0  0  0  0  0  0  0  0  0  0  0  0
   57.6173   34.1479   47.3595 H   0  0  0  0  0  0  0  0  0  0  0  0
   61.8882   33.5138   45.3332 H   0  0  0  0  0  0  0  0  0  0  0  0
   63.6818   32.9395   46.9761 H   0  0  0  0  0  0  0  0  0  0  0  0
   63.3401   33.3948   49.4086 H   0  0  0  0  0  0  0  0  0  0  0  0
   61.2042   34.4205   50.2012 H   0  0  0  0  0  0  0  0  0  0  0  0
   59.4093   34.9869   48.5600 H   0  0  0  0  0  0  0  0  0  0  0  0
   58.0421   32.4812   48.9150 H   0  0  0  0  0  0  0  0  0  0  0  0
   59.0767   30.3005   49.5308 H   0  0  0  0  0  0  0  0  0  0  0  0
  1  2  2  0
  2  3  1  0
  2  4  1  0
  4  5  1  0
  5  6  1  0
  6  7  2  0
  7  8  1  0
  8  9  2  0
  9 10  1  0
 10 11  2  0
 11 12  1  0
 12 13  1  0
 13 14  1  0
 14 15  2  0
 15 16  1  0
 16 17  2  0
 17 18  1  0
 18 19  1  0
 19 20  1  0
 20 21  2  0
 21 22  1  0
 22 23  2  0
 23 24  1  0
 24 25  2  0
 17 26  1  0
 26 27  2  0
 11  6  1  0
 27 14  1  0
 25 20  1  0
  4 28  1  0
  4 29  1  0
  7 30  1  0
  8 31  1  0
  9 32  1  0
 10 33  1  0
 13 34  1  0
 13 35  1  0
 15 36  1  0
 16 37  1  0
 18 38  1  0
 18 39  1  0
 21 40  1  0
 22 41  1  0
 23 42  1  0
 24 43  1  0
 25 44  1  0
 26 45  1  0
 27 46  1  0
M  CHG  1   3  -1
M  END
>  <UniqueID>  (30) 
24

>  <SMILES>  (30) 
O=C([O-])COc1ccccc1SCc1ccc(CSc2ccccc2)cc1

>  <Energy>  (30) 
34.59125247694054

>  <Genealogy>  (30) 
O=C([O-])COc1ccccc1SCc1ccc(CSc2ccccc2)cc1 (protonated)
O=C([O-])COc1ccccc1SCc1ccc(CSc2ccccc2)cc1 (3D coordinates assigned)
O=C([O-])COc1ccccc1SCc1ccc(CSc2ccccc2)cc1 (optimized conformer: 34.59125247694054 kcal/mol)

>  <smiles>  (30) 
O=C(O)COc1ccccc1SCc1ccc(CSc2ccccc2)cc1

>  <score_type>  (30) 
oracle

>  <origin>  (30) 
adg

>  <m_score__min__energy>  (30) 
-11.52

>  <m_primary>  (30) 
energy

$$$$
30:0
     RDKit          3D

 65 69  0  0  0  0  0  0  0  0999 V2000
   60.6550   28.9230   44.8270 O   0  0  0  0  0  0  0  0  0  0  0  0
   59.8070   29.6940   45.3510 C   0  0  0  0  0  0  0  0  0  0  0  0
   60.2060   30.5980   46.3870 N   0  0  0  0  0  0  0  0  0  0  0  0
   59.2930   31.4270   47.1710 C   0  0  1  0  0  0  0  0  0  0  0  0
   59.9740   31.8240   48.4900 C   0  0  0  0  0  0  0  0  0  0  0  0
   61.3630   32.3550   48.2420 C   0  0  0  0  0  0  0  0  0  0  0  0
   61.6380   33.7230   48.4160 C   0  0  0  0  0  0  0  0  0  0  0  0
   62.9400   34.2060   48.2420 C   0  0  0  0  0  0  0  0  0  0  0  0
   63.9750   33.3280   47.9040 C   0  0  0  0  0  0  0  0  0  0  0  0
   63.7110   31.9660   47.7370 C   0  0  0  0  0  0  0  0  0  0  0  0
   62.4100   31.4780   47.9060 C   0  0  0  0  0  0  0  0  0  0  0  0
   58.9070   32.6640   46.3930 C   0  0  0  0  0  0  0  0  0  0  0  0
   59.8930   33.4170   45.7340 C   0  0  0  0  0  0  0  0  0  0  0  0
   59.5370   34.5380   44.9760 C   0  0  0  0  0  0  0  0  0  0  0  0
   58.1950   34.9120   44.8670 C   0  0  0  0  0  0  0  0  0  0  0  0
   57.2050   34.1650   45.5100 C   0  0  0  0  0  0  0  0  0  0  0  0
   57.5550   33.0400   46.2630 C   0  0  0  0  0  0  0  0  0  0  0  0
   58.4120   29.7220   44.8520 C   0  0  0  0  0  0  0  0  0  0  0  0
   57.9920   30.7430   43.9830 C   0  0  0  0  0  0  0  0  0  0  0  0
   56.6550   30.8270   43.5900 C   0  0  0  0  0  0  0  0  0  0  0  0
   55.7430   29.8860   44.0660 C   0  0  0  0  0  0  0  0  0  0  0  0
   56.1610   28.8870   44.8860 N   0  0  0  0  0  0  0  0  0  0  0  0
   57.4590   28.7760   45.2860 C   0  0  0  0  0  0  0  0  0  0  0  0
   57.8590   27.6910   46.0770 O   0  0  0  0  0  0  0  0  0  0  0  0
   58.7170   27.7610   47.1810 C   0  0  0  0  0  0  0  0  0  0  0  0
   58.5190   28.6810   48.2260 C   0  0  0  0  0  0  0  0  0  0  0  0
   59.4470   28.7700   49.2650 C   0  0  0  0  0  0  0  0  0  0  0  0
   60.5770   27.9420   49.2840 C   0  0  0  0  0  0  0  0  0  0  0  0
   61.5160   28.0830   50.3610 N   0  0  0  0  0  0  0  0  0  0  0  0
   61.1560   28.7440   51.9220 S   0  0  0  0  0  0  0  0  0  0  0  0
   59.8180   28.2330   52.3830 O   0  0  0  0  0  0  0  0  0  0  0  0
   62.2320   28.3300   52.8880 O   0  0  0  0  0  0  0  0  0  0  0  0
   61.1050   30.5110   51.8340 C   0  0  0  0  0  0  0  0  0  0  0  0
   59.8900   31.1810   52.0570 C   0  0  0  0  0  0  0  0  0  0  0  0
   59.8330   32.5790   52.0200 C   0  0  0  0  0  0  0  0  0  0  0  0
   58.1750   33.4740   52.3370 Br  0  0  0  0  0  0  0  0  0  0  0  0
   60.9870   33.3200   51.7590 C   0  0  0  0  0  0  0  0  0  0  0  0
   62.1980   32.6650   51.5260 C   0  0  0  0  0  0  0  0  0  0  0  0
   62.2680   31.2670   51.5630 C   0  0  0  0  0  0  0  0  0  0  0  0
   63.9760   30.4500   51.2520 Br  0  0  0  0  0  0  0  0  0  0  0  0
   60.7670   27.0130   48.2460 C   0  0  0  0  0  0  0  0  0  0  0  0
   59.8460   26.9340   47.1990 C   0  0  0  0  0  0  0  0  0  0  0  0
   58.3793   30.8541   47.3878 H   0  0  0  0  0  0  0  0  0  0  0  0
   59.3743   32.6023   48.9845 H   0  0  0  0  0  0  0  0  0  0  0  0
   60.0487   30.9314   49.1285 H   0  0  0  0  0  0  0  0  0  0  0  0
   60.8279   34.4151   48.6895 H   0  0  0  0  0  0  0  0  0  0  0  0
   63.1497   35.2781   48.3713 H   0  0  0  0  0  0  0  0  0  0  0  0
   64.9977   33.7100   47.7695 H   0  0  0  0  0  0  0  0  0  0  0  0
   64.5264   31.2767   47.4725 H   0  0  0  0  0  0  0  0  0  0  0  0
   62.2058   30.4050   47.7756 H   0  0  0  0  0  0  0  0  0  0  0  0
   60.9502   33.1239   45.8143 H   0  0  0  0  0  0  0  0  0  0  0  0
   60.3143   35.1254   44.4654 H   0  0  0  0  0  0  0  0  0  0  0  0
   57.9177   35.7960   44.2740 H   0  0  0  0  0  0  0  0  0  0  0  0
   56.1494   34.4620   45.4239 H   0  0  0  0  0  0  0  0  0  0  0  0
   56.7716   32.4458   46.7561 H   0  0  0  0  0  0  0  0  0  0  0  0
   58.7196   31.4792   43.6108 H   0  0  0  0  0  0  0  0  0  0  0  0
   56.3245   31.6274   42.9117 H   0  0  0  0  0  0  0  0  0  0  0  0
   54.6837   29.9526   43.7772 H   0  0  0  0  0  0  0  0  0  0  0  0
   57.6318   29.3313   48.2247 H   0  0  0  0  0  0  0  0  0  0  0  0
   59.2897   29.4965   50.0758 H   0  0  0  0  0  0  0  0  0  0  0  0
   58.9771   30.6026   52.2621 H   0  0  0  0  0  0  0  0  0  0  0  0
   60.9423   34.4189   51.7369 H   0  0  0  0  0  0  0  0  0  0  0  0
   63.1036   33.2515   51.3118 H   0  0  0  0  0  0  0  0  0  0  0  0
   61.6425   26.3472   48.2585 H   0  0  0  0  0  0  0  0  0  0  0  0
   60.0093   26.2159   46.3819 H   0  0  0  0  0  0  0  0  0  0  0  0
  1  2  2  0
  2  3  1  0
  3  4  1  0
  4  5  1  0
  5  6  1  0
  6  7  2  0
  7  8  1  0
  8  9  2  0
  9 10  1  0
 10 11  2  0
  4 12  1  0
 12 13  2  0
 13 14  1  0
 14 15  2  0
 15 16  1  0
 16 17  2  0
  2 18  1  0
 18 19  2  0
 19 20  1  0
 20 21  2  0
 21 22  1  0
 22 23  2  0
 23 24  1  0
 24 25  1  0
 25 26  2  0
 26 27  1  0
 27 28  2  0
 28 29  1  0
 29 30  1  0
 30 31  2  0
 30 32  2  0
 30 33  1  0
 33 34  2  0
 34 35  1  0
 35 36  1  0
 35 37  2  0
 37 38  1  0
 38 39  2  0
 39 40  1  0
 28 41  1  0
 41 42  2  0
 11  6  1  0
 17 12  1  0
 23 18  1  0
 42 25  1  0
 39 33  1  0
  4 43  1  1
  5 44  1  0
  5 45  1  0
  7 46  1  0
  8 47  1  0
  9 48  1  0
 10 49  1  0
 11 50  1  0
 13 51  1  0
 14 52  1  0
 15 53  1  0
 16 54  1  0
 17 55  1  0
 19 56  1  0
 20 57  1  0
 21 58  1  0
 26 59  1  0
 27 60  1  0
 34 61  1  0
 37 62  1  0
 38 63  1  0
 41 64  1  0
 42 65  1  0
M  CHG  2   3  -1  29  -1
M  END
>  <UniqueID>  (31) 
25

>  <SMILES>  (31) 
O=C([N-][C@@H](Cc1ccccc1)c1ccccc1)c1cccnc1Oc1ccc([N-]S(=O)(=O)c2cc(Br)ccc2Br)cc1

>  <Energy>  (31) 
79.80111863808335

>  <Genealogy>  (31) 
O=C([N-]C(Cc1ccccc1)c1ccccc1)c1cccnc1Oc1ccc([N-]S(=O)(=O)c2cc(Br)ccc2Br)cc1 (protonated)
O=C([N-][C@@H](Cc1ccccc1)c1ccccc1)c1cccnc1Oc1ccc([N-]S(=O)(=O)c2cc(Br)ccc2Br)cc1 (chirality)
O=C([N-][C@@H](Cc1ccccc1)c1ccccc1)c1cccnc1Oc1ccc([N-]S(=O)(=O)c2cc(Br)ccc2Br)cc1 (3D coordinates assigned)
O=C([N-][C@@H](Cc1ccccc1)c1ccccc1)c1cccnc1Oc1ccc([N-]S(=O)(=O)c2cc(Br)ccc2Br)cc1 (optimized conformer: 79.80111863808335 kcal/mol)

>  <smiles>  (31) 
O=C(NC(Cc1ccccc1)c1ccccc1)c1cccnc1Oc1ccc(NS(=O)(=O)c2cc(Br)ccc2Br)cc1

>  <score_type>  (31) 
oracle

>  <origin>  (31) 
adg

>  <m_score__min__energy>  (31) 
-12.73

>  <m_primary>  (31) 
energy

$$$$
31:0
     RDKit          3D

 26 27  0  0  0  0  0  0  0  0999 V2000
   64.2110   31.9080   46.9860 H   0  0  0  0  0  0  0  0  0  0  0  0
   63.4120   32.0770   47.6370 N   0  0  0  0  0  0  0  0  0  0  0  0
   62.1940   32.1620   47.2050 C   0  0  0  0  0  0  0  0  0  0  0  0
   61.6740   33.3710   46.8700 N   0  0  0  0  0  0  0  0  0  0  0  0
   60.4010   33.4880   46.4170 C   0  0  0  0  0  0  0  0  0  0  0  0
   59.9490   34.6270   46.1270 O   0  0  0  0  0  0  0  0  0  0  0  0
   59.5970   32.3490   46.2830 C   0  0  0  0  0  0  0  0  0  0  0  0
   57.7650   32.5420   45.7270 Br  0  0  0  0  0  0  0  0  0  0  0  0
   60.1530   31.0990   46.6210 C   0  0  0  0  0  0  0  0  0  0  0  0
   59.3740   29.8470   46.4980 C   0  0  0  0  0  0  0  0  0  0  0  0
   58.9710   29.3960   45.2320 C   0  0  0  0  0  0  0  0  0  0  0  0
   59.2509   29.9651   44.3332 H   0  0  0  0  0  0  0  0  0  0  0  0
   58.2150   28.2260   45.1080 C   0  0  0  0  0  0  0  0  0  0  0  0
   57.9130   27.8714   44.1115 H   0  0  0  0  0  0  0  0  0  0  0  0
   57.8410   27.5040   46.2490 C   0  0  0  0  0  0  0  0  0  0  0  0
   56.9020   26.0230   46.0890 S   0  0  0  0  0  0  0  0  0  0  0  0
   57.3100   25.2940   44.8390 O   0  0  0  0  0  0  0  0  0  0  0  0
   57.1560   25.1290   47.2710 O   0  0  0  0  0  0  0  0  0  0  0  0
   55.2220   26.4100   46.0060 N   0  0  0  0  0  0  0  0  0  0  0  0
   55.1490   27.4530   45.9920 H   0  0  0  0  0  0  0  0  0  0  0  0
   58.2350   27.9570   47.5150 C   0  0  0  0  0  0  0  0  0  0  0  0
   57.9488   27.3906   48.4135 H   0  0  0  0  0  0  0  0  0  0  0  0
   58.9910   29.1270   47.6400 C   0  0  0  0  0  0  0  0  0  0  0  0
   59.2866   29.4843   48.6375 H   0  0  0  0  0  0  0  0  0  0  0  0
   61.4350   31.0390   47.0850 N   0  0  0  0  0  0  0  0  0  0  0  0
   61.8500   30.1130   47.3400 H   0  0  0  0  0  0  0  0  0  0  0  0
  1  2  1  0
  2  3  2  0
  3  4  1  0
  4  5  1  0
  5  6  2  0
  5  7  1  0
  7  8  1  0
  7  9  2  0
  9 10  1  0
 10 11  2  0
 11 12  1  0
 11 13  1  0
 13 14  1  0
 13 15  2  0
 15 16  1  0
 16 17  2  0
 16 18  2  0
 16 19  1  0
 19 20  1  0
 15 21  1  0
 21 22  1  0
 21 23  2  0
 23 24  1  0
  9 25  1  0
 25 26  1  0
 25  3  1  0
 23 10  1  0
M  CHG  2   4  -1  19  -1
M  END
>  <UniqueID>  (32) 
26

>  <SMILES>  (32) 
[H]/N=c1\[n-]c(=O)c(Br)c(-c2ccc(S([NH-])(=O)=O)cc2)[nH]1

>  <Energy>  (32) 
35.24322655671165

>  <Genealogy>  (32) 
N=c1[n-]c(=O)c(Br)c(-c2ccc(S([NH-])(=O)=O)cc2)[nH]1 (protonated)
[H]/N=c1\[n-]c(=O)c(Br)c(-c2ccc(S([NH-])(=O)=O)cc2)[nH]1 (cis-trans isomerization)
[H]/N=c1\[n-]c(=O)c(Br)c(-c2ccc(S([NH-])(=O)=O)cc2)[nH]1 (3D coordinates assigned)
[H]/N=c1\[n-]c(=O)c(Br)c(-c2ccc(S([NH-])(=O)=O)cc2)[nH]1 (optimized conformer: 35.24322655671165 kcal/mol)

>  <smiles>  (32) 
N=c1[nH]c(-c2ccc(S(N)(=O)=O)cc2)c(Br)c(=O)[nH]1

>  <score_type>  (32) 
oracle

>  <origin>  (32) 
adg

>  <m_score__min__energy>  (32) 
-10.449999999999999

>  <m_primary>  (32) 
energy

$$$$
32:0
     RDKit          3D

 55 58  0  0  0  0  0  0  0  0999 V2000
   59.2270   33.4730   51.5980 C   0  0  0  0  0  0  0  0  0  0  0  0
   60.4160   33.8530   50.7230 C   0  0  0  0  0  0  0  0  0  0  0  0
   61.6340   33.7750   51.4630 O   0  0  0  0  0  0  0  0  0  0  0  0
   62.8900   33.4150   50.9440 C   0  0  0  0  0  0  0  0  0  0  0  0
   64.0710   34.1060   51.2880 C   0  0  0  0  0  0  0  0  0  0  0  0
   65.2890   33.7630   50.6980 C   0  0  0  0  0  0  0  0  0  0  0  0
   65.3470   32.7340   49.7580 C   0  0  0  0  0  0  0  0  0  0  0  0
   64.1890   32.0360   49.4160 C   0  0  0  0  0  0  0  0  0  0  0  0
   62.9630   32.3500   50.0190 C   0  0  0  0  0  0  0  0  0  0  0  0
   61.7900   31.6150   49.6340 N   0  0  0  0  0  0  0  0  0  0  0  0
   61.3900   31.4380   48.2670 C   0  0  0  0  0  0  0  0  0  0  0  0
   61.9560   32.0940   47.3490 O   0  0  0  0  0  0  0  0  0  0  0  0
   60.2990   30.5130   47.9260 C   0  0  0  0  0  0  0  0  0  0  0  0
   60.3800   29.4480   47.0540 C   0  0  0  0  0  0  0  0  0  0  0  0
   59.1090   28.9020   47.0810 C   0  0  0  0  0  0  0  0  0  0  0  0
   58.6330   27.7130   46.3330 C   0  0  0  0  0  0  0  0  0  0  0  0
   59.3240   26.4920   46.4680 C   0  0  0  0  0  0  0  0  0  0  0  0
   58.8720   25.3410   45.8200 C   0  0  0  0  0  0  0  0  0  0  0  0
   57.7270   25.3890   45.0260 C   0  0  0  0  0  0  0  0  0  0  0  0
   57.0320   26.5880   44.8750 C   0  0  0  0  0  0  0  0  0  0  0  0
   57.4710   27.7560   45.5200 C   0  0  0  0  0  0  0  0  0  0  0  0
   56.7380   29.0120   45.2700 C   0  0  0  0  0  0  0  0  0  0  0  0
   55.5480   28.9590   44.8670 O   0  0  0  0  0  0  0  0  0  0  0  0
   57.3500   30.2900   45.4700 N   0  0  0  0  0  0  0  0  0  0  0  0
   57.0900   31.4560   44.6340 C   0  0  0  0  0  0  0  0  0  0  0  0
   57.8120   32.6430   45.2010 C   0  0  0  0  0  0  0  0  0  0  0  0
   57.8410   32.8520   46.5900 C   0  0  0  0  0  0  0  0  0  0  0  0
   58.5450   33.9350   47.1240 C   0  0  0  0  0  0  0  0  0  0  0  0
   59.2320   34.8110   46.2780 C   0  0  0  0  0  0  0  0  0  0  0  0
   59.2170   34.6040   44.8950 C   0  0  0  0  0  0  0  0  0  0  0  0
   58.5150   33.5200   44.3560 C   0  0  0  0  0  0  0  0  0  0  0  0
   58.3730   29.6100   47.9090 O   0  0  0  0  0  0  0  0  0  0  0  0
   59.0540   30.5850   48.4370 N   0  0  0  0  0  0  0  0  0  0  0  0
   59.5080   33.5628   52.6577 H   0  0  0  0  0  0  0  0  0  0  0  0
   58.3841   34.1465   51.3839 H   0  0  0  0  0  0  0  0  0  0  0  0
   58.9309   32.4355   51.3839 H   0  0  0  0  0  0  0  0  0  0  0  0
   60.4690   33.1640   49.8672 H   0  0  0  0  0  0  0  0  0  0  0  0
   60.2809   34.8872   50.3735 H   0  0  0  0  0  0  0  0  0  0  0  0
   64.0319   34.9206   52.0261 H   0  0  0  0  0  0  0  0  0  0  0  0
   66.2050   34.3054   50.9751 H   0  0  0  0  0  0  0  0  0  0  0  0
   66.3060   32.4731   49.2865 H   0  0  0  0  0  0  0  0  0  0  0  0
   64.2381   31.2322   48.6667 H   0  0  0  0  0  0  0  0  0  0  0  0
   61.1230   31.3280   50.3870 H   0  0  0  0  0  0  0  0  0  0  0  0
   61.2512   29.1113   46.4729 H   0  0  0  0  0  0  0  0  0  0  0  0
   60.2295   26.4455   47.0908 H   0  0  0  0  0  0  0  0  0  0  0  0
   59.4203   24.3945   45.9361 H   0  0  0  0  0  0  0  0  0  0  0  0
   57.3717   24.4801   44.5183 H   0  0  0  0  0  0  0  0  0  0  0  0
   56.1311   26.6197   44.2446 H   0  0  0  0  0  0  0  0  0  0  0  0
   57.4472   31.2624   43.6118 H   0  0  0  0  0  0  0  0  0  0  0  0
   56.0091   31.6588   44.6099 H   0  0  0  0  0  0  0  0  0  0  0  0
   57.3079   32.1610   47.2595 H   0  0  0  0  0  0  0  0  0  0  0  0
   58.5586   34.0984   48.2117 H   0  0  0  0  0  0  0  0  0  0  0  0
   59.7845   35.6633   46.7004 H   0  0  0  0  0  0  0  0  0  0  0  0
   59.7575   35.2939   44.2302 H   0  0  0  0  0  0  0  0  0  0  0  0
   58.5131   33.3536   43.2687 H   0  0  0  0  0  0  0  0  0  0  0  0
  1  2  1  0
  2  3  1  0
  3  4  1  0
  4  5  2  0
  5  6  1  0
  6  7  2  0
  7  8  1  0
  8  9  2  0
  9 10  1  0
 10 11  1  0
 11 12  2  0
 11 13  1  0
 13 14  1  0
 14 15  2  0
 15 16  1  0
 16 17  2  0
 17 18  1  0
 18 19  2  0
 19 20  1  0
 20 21  2  0
 21 22  1  0
 22 23  2  0
 22 24  1  0
 24 25  1  0
 25 26  1  0
 26 27  2  0
 27 28  1  0
 28 29  2  0
 29 30  1  0
 30 31  2  0
 15 32  1  0
 32 33  1  0
  9  4  1  0
 33 13  2  0
 21 16  1  0
 31 26  1  0
  1 34  1  0
  1 35  1  0
  1 36  1  0
  2 37  1  0
  2 38  1  0
  5 39  1  0
  6 40  1  0
  7 41  1  0
  8 42  1  0
 10 43  1  0
 14 44  1  0
 17 45  1  0
 18 46  1  0
 19 47  1  0
 20 48  1  0
 25 49  1  0
 25 50  1  0
 27 51  1  0
 28 52  1  0
 29 53  1  0
 30 54  1  0
 31 55  1  0
M  CHG  1  24  -1
M  END
>  <UniqueID>  (33) 
27

>  <SMILES>  (33) 
CCOc1ccccc1NC(=O)c1cc(-c2ccccc2C(=O)[N-]Cc2ccccc2)on1

>  <Energy>  (33) 
99.31460831988751

>  <Genealogy>  (33) 
CCOc1ccccc1NC(=O)c1cc(-c2ccccc2C(=O)[N-]Cc2ccccc2)on1 (protonated)
CCOc1ccccc1NC(=O)c1cc(-c2ccccc2C(=O)[N-]Cc2ccccc2)on1 (3D coordinates assigned)
CCOc1ccccc1NC(=O)c1cc(-c2ccccc2C(=O)[N-]Cc2ccccc2)on1 (optimized conformer: 99.31460831988751 kcal/mol)

>  <smiles>  (33) 
CCOc1ccccc1NC(=O)c1cc(-c2ccccc2C(=O)NCc2ccccc2)on1

>  <score_type>  (33) 
oracle

>  <origin>  (33) 
adg

>  <m_score__min__energy>  (33) 
-10.66

>  <m_primary>  (33) 
energy

$$$$
33:0
     RDKit          3D

 33 34  0  0  0  0  0  0  0  0999 V2000
   61.0880   34.5370   48.7140 N   0  0  0  0  0  0  0  0  0  0  0  0
   61.6000   33.4430   47.4770 S   0  0  0  0  0  0  0  0  0  0  0  0
   62.4080   34.1870   46.4520 O   0  0  0  0  0  0  0  0  0  0  0  0
   62.4610   32.3700   48.0820 O   0  0  0  0  0  0  0  0  0  0  0  0
   60.1920   32.7140   46.7120 C   0  0  0  0  0  0  0  0  0  0  0  0
   59.9330   31.3460   46.8690 C   0  0  0  0  0  0  0  0  0  0  0  0
   58.8090   30.7690   46.2720 C   0  0  0  0  0  0  0  0  0  0  0  0
   57.9390   31.5520   45.4950 C   0  0  0  0  0  0  0  0  0  0  0  0
   56.7710   30.9920   44.8810 N   0  0  0  0  0  0  0  0  0  0  0  0
   56.3920   29.6080   44.8710 C   0  0  0  0  0  0  0  0  0  0  0  0
   55.1680   29.3140   44.8500 O   0  0  0  0  0  0  0  0  0  0  0  0
   57.4060   28.5040   44.7950 C   0  0  0  0  0  0  0  0  0  0  0  0
   57.4650   27.6040   46.3800 S   0  0  0  0  0  0  0  0  0  0  0  0
   56.4880   26.2310   45.7740 C   0  0  0  0  0  0  0  0  0  0  0  0
   57.0840   25.2320   44.9980 C   0  0  0  0  0  0  0  0  0  0  0  0
   56.3010   24.1720   44.5310 C   0  0  0  0  0  0  0  0  0  0  0  0
   56.8200   23.2660   43.8270 O   0  0  0  0  0  0  0  0  0  0  0  0
   54.9410   24.1240   44.8470 C   0  0  0  0  0  0  0  0  0  0  0  0
   54.3840   25.1400   45.6280 C   0  0  0  0  0  0  0  0  0  0  0  0
   55.1620   26.1630   46.0720 N   0  0  0  0  0  0  0  0  0  0  0  0
   58.1780   32.9260   45.3730 C   0  0  0  0  0  0  0  0  0  0  0  0
   59.3020   33.5040   45.9720 C   0  0  0  0  0  0  0  0  0  0  0  0
   60.4400   34.0060   49.3390 H   0  0  0  0  0  0  0  0  0  0  0  0
   61.9320   34.7690   49.2840 H   0  0  0  0  0  0  0  0  0  0  0  0
   60.6172   30.7237   47.4646 H   0  0  0  0  0  0  0  0  0  0  0  0
   58.6045   29.6971   46.4110 H   0  0  0  0  0  0  0  0  0  0  0  0
   57.1272   27.8076   43.9905 H   0  0  0  0  0  0  0  0  0  0  0  0
   58.3961   28.9358   44.5870 H   0  0  0  0  0  0  0  0  0  0  0  0
   58.1564   25.2796   44.7578 H   0  0  0  0  0  0  0  0  0  0  0  0
   54.3152   23.2950   44.4848 H   0  0  0  0  0  0  0  0  0  0  0  0
   53.3146   25.1122   45.8840 H   0  0  0  0  0  0  0  0  0  0  0  0
   57.4780   33.5545   44.8029 H   0  0  0  0  0  0  0  0  0  0  0  0
   59.4880   34.5825   45.8618 H   0  0  0  0  0  0  0  0  0  0  0  0
  1  2  1  0
  2  3  2  0
  2  4  2  0
  2  5  1  0
  5  6  2  0
  6  7  1  0
  7  8  2  0
  8  9  1  0
  9 10  1  0
 10 11  2  0
 10 12  1  0
 12 13  1  0
 13 14  1  0
 14 15  2  0
 15 16  1  0
 16 17  2  0
 16 18  1  0
 18 19  2  0
 19 20  1  0
  8 21  1  0
 21 22  2  0
 22  5  1  0
 20 14  1  0
  1 23  1  0
  1 24  1  0
  6 25  1  0
  7 26  1  0
 12 27  1  0
 12 28  1  0
 15 29  1  0
 18 30  1  0
 19 31  1  0
 21 32  1  0
 22 33  1  0
M  CHG  2   9  -1  20  -1
M  END
>  <UniqueID>  (34) 
28

>  <SMILES>  (34) 
NS(=O)(=O)c1ccc([N-]C(=O)CSc2cc(=O)cc[n-]2)cc1

>  <Energy>  (34) 
32.59322718026547

>  <Genealogy>  (34) 
NS(=O)(=O)c1ccc([N-]C(=O)CSc2cc(=O)cc[n-]2)cc1 (protonated)
NS(=O)(=O)c1ccc([N-]C(=O)CSc2cc(=O)cc[n-]2)cc1 (3D coordinates assigned)
NS(=O)(=O)c1ccc([N-]C(=O)CSc2cc(=O)cc[n-]2)cc1 (optimized conformer: 32.59322718026547 kcal/mol)

>  <smiles>  (34) 
NS(=O)(=O)c1ccc(NC(=O)CSc2cc(=O)cc[nH]2)cc1

>  <score_type>  (34) 
oracle

>  <origin>  (34) 
adg

>  <m_score__min__energy>  (34) 
-11.23

>  <m_primary>  (34) 
energy

$$$$
34:0
     RDKit          3D

 47 49  0  0  0  0  0  0  0  0999 V2000
   59.2200   31.0430   47.7400 C   0  0  0  0  0  0  0  0  0  0  0  0
   59.5870   29.5690   47.6100 C   0  0  0  0  0  0  0  0  0  0  0  0
   58.4140   28.7660   47.4760 O   0  0  0  0  0  0  0  0  0  0  0  0
   58.2820   27.6240   46.6660 C   0  0  0  0  0  0  0  0  0  0  0  0
   58.5320   26.3260   47.1550 C   0  0  0  0  0  0  0  0  0  0  0  0
   58.4070   25.2180   46.3170 C   0  0  0  0  0  0  0  0  0  0  0  0
   58.0270   25.3840   44.9860 C   0  0  0  0  0  0  0  0  0  0  0  0
   57.7680   26.6620   44.4890 C   0  0  0  0  0  0  0  0  0  0  0  0
   57.8920   27.7910   45.3190 C   0  0  0  0  0  0  0  0  0  0  0  0
   57.5660   29.0960   44.8010 N   0  0  0  0  0  0  0  0  0  0  0  0
   58.4500   30.0660   44.4930 C   0  0  0  0  0  0  0  0  0  0  0  0
   57.7780   31.2290   44.1600 C   0  0  0  0  0  0  0  0  0  0  0  0
   58.3890   32.5410   43.8910 C   0  0  0  0  0  0  0  0  0  0  0  0
   58.5140   32.9390   42.7020 O   0  0  0  0  0  0  0  0  0  0  0  0
   58.8050   33.3820   44.9760 N   0  0  0  0  0  0  0  0  0  0  0  0
   58.9050   34.8350   44.8510 C   0  0  0  0  0  0  0  0  0  0  0  0
   59.6300   35.4480   46.0240 C   0  0  0  0  0  0  0  0  0  0  0  0
   59.9760   36.6550   45.9490 O   0  0  0  0  0  0  0  0  0  0  0  0
   59.9100   34.7300   47.2370 N   0  0  0  0  0  0  0  0  0  0  0  0
   61.1570   34.1480   47.6420 C   0  0  0  0  0  0  0  0  0  0  0  0
   62.0620   33.6130   46.7100 C   0  0  0  0  0  0  0  0  0  0  0  0
   63.2680   33.0510   47.1440 C   0  0  0  0  0  0  0  0  0  0  0  0
   63.5880   33.0410   48.5050 C   0  0  0  0  0  0  0  0  0  0  0  0
   64.7510   32.4840   48.9250 F   0  0  0  0  0  0  0  0  0  0  0  0
   62.7090   33.6070   49.4320 C   0  0  0  0  0  0  0  0  0  0  0  0
   61.5030   34.1700   49.0010 C   0  0  0  0  0  0  0  0  0  0  0  0
   56.4240   30.9580   44.2570 C   0  0  0  0  0  0  0  0  0  0  0  0
   56.3400   29.6400   44.6540 C   0  0  0  0  0  0  0  0  0  0  0  0
   55.1480   28.9570   44.8720 O   0  0  0  0  0  0  0  0  0  0  0  0
   59.1531   31.3117   48.8046 H   0  0  0  0  0  0  0  0  0  0  0  0
   59.9926   31.6574   47.2546 H   0  0  0  0  0  0  0  0  0  0  0  0
   58.2495   31.2234   47.2546 H   0  0  0  0  0  0  0  0  0  0  0  0
   60.2216   29.4320   46.7220 H   0  0  0  0  0  0  0  0  0  0  0  0
   60.1264   29.2579   48.5168 H   0  0  0  0  0  0  0  0  0  0  0  0
   58.8278   26.1857   48.2051 H   0  0  0  0  0  0  0  0  0  0  0  0
   58.6090   24.2097   46.7077 H   0  0  0  0  0  0  0  0  0  0  0  0
   57.9314   24.5079   44.3278 H   0  0  0  0  0  0  0  0  0  0  0  0
   57.4643   26.7876   43.4392 H   0  0  0  0  0  0  0  0  0  0  0  0
   59.5438   29.9502   44.5046 H   0  0  0  0  0  0  0  0  0  0  0  0
   59.0170   32.9550   45.9040 H   0  0  0  0  0  0  0  0  0  0  0  0
   59.4524   35.0765   43.9280 H   0  0  0  0  0  0  0  0  0  0  0  0
   57.8857   35.2476   44.8245 H   0  0  0  0  0  0  0  0  0  0  0  0
   61.8221   33.6359   45.6367 H   0  0  0  0  0  0  0  0  0  0  0  0
   63.9655   32.6163   46.4129 H   0  0  0  0  0  0  0  0  0  0  0  0
   62.9655   33.6099   50.5017 H   0  0  0  0  0  0  0  0  0  0  0  0
   60.8228   34.6322   49.7315 H   0  0  0  0  0  0  0  0  0  0  0  0
   55.5908   31.6484   44.0591 H   0  0  0  0  0  0  0  0  0  0  0  0
  1  2  1  0
  2  3  1  0
  3  4  1  0
  4  5  2  0
  5  6  1  0
  6  7  2  0
  7  8  1  0
  8  9  2  0
  9 10  1  0
 10 11  1  0
 11 12  2  0
 12 13  1  0
 13 14  2  0
 13 15  1  0
 15 16  1  0
 16 17  1  0
 17 18  2  0
 17 19  1  0
 19 20  1  0
 20 21  2  0
 21 22  1  0
 22 23  2  0
 23 24  1  0
 23 25  1  0
 25 26  2  0
 12 27  1  0
 27 28  2  0
 28 29  1  0
  9  4  1  0
 28 10  1  0
 26 20  1  0
  1 30  1  0
  1 31  1  0
  1 32  1  0
  2 33  1  0
  2 34  1  0
  5 35  1  0
  6 36  1  0
  7 37  1  0
  8 38  1  0
 11 39  1  0
 15 40  1  0
 16 41  1  0
 16 42  1  0
 21 43  1  0
 22 44  1  0
 25 45  1  0
 26 46  1  0
 27 47  1  0
M  CHG  2  19  -1  29  -1
M  END
>  <UniqueID>  (35) 
29

>  <SMILES>  (35) 
CCOc1ccccc1-n1cc(C(=O)NCC(=O)[N-]c2ccc(F)cc2)cc1[O-]

>  <Energy>  (35) 
78.91922814301266

>  <Genealogy>  (35) 
CCOc1ccccc1-n1cc(C(=O)NCC(=O)[N-]c2ccc(F)cc2)cc1[O-] (protonated)
CCOc1ccccc1-n1cc(C(=O)NCC(=O)[N-]c2ccc(F)cc2)cc1[O-] (3D coordinates assigned)
CCOc1ccccc1-n1cc(C(=O)NCC(=O)[N-]c2ccc(F)cc2)cc1[O-] (optimized conformer: 78.91922814301266 kcal/mol)

>  <smiles>  (35) 
CCOc1ccccc1-n1cc(C(=O)NCC(=O)Nc2ccc(F)cc2)cc1O

>  <score_type>  (35) 
oracle

>  <origin>  (35) 
adg

>  <m_score__min__energy>  (35) 
-11.859999999999999

>  <m_primary>  (35) 
energy

$$$$
35:0
     RDKit          3D

 57 60  0  0  0  0  0  0  0  0999 V2000
   63.1500   33.7690   46.3020 O   0  0  0  0  0  0  0  0  0  0  0  0
   62.7320   33.8930   47.4840 C   0  0  0  0  0  0  0  0  0  0  0  0
   63.6890   33.9980   48.5460 N   0  0  0  0  0  0  0  0  0  0  0  0
   63.8710   33.0660   49.6240 C   0  0  0  0  0  0  0  0  0  0  0  0
   65.0730   32.3520   49.7870 C   0  0  0  0  0  0  0  0  0  0  0  0
   65.2160   31.4440   50.8390 C   0  0  0  0  0  0  0  0  0  0  0  0
   64.1760   31.2580   51.7520 C   0  0  0  0  0  0  0  0  0  0  0  0
   62.9930   31.9880   51.6210 C   0  0  0  0  0  0  0  0  0  0  0  0
   62.8320   32.8930   50.5550 C   0  0  0  0  0  0  0  0  0  0  0  0
   61.6670   33.6660   50.4210 O   0  0  0  0  0  0  0  0  0  0  0  0
   60.3690   33.2340   50.7330 C   0  0  0  0  0  0  0  0  0  0  0  0
   59.6060   33.8380   51.7510 C   0  0  0  0  0  0  0  0  0  0  0  0
   58.3210   33.3700   52.0410 C   0  0  0  0  0  0  0  0  0  0  0  0
   57.7960   32.2870   51.3290 C   0  0  0  0  0  0  0  0  0  0  0  0
   58.5550   31.6710   50.3310 C   0  0  0  0  0  0  0  0  0  0  0  0
   59.8390   32.1400   50.0370 C   0  0  0  0  0  0  0  0  0  0  0  0
   61.3260   34.0270   47.7390 N   0  0  0  0  0  0  0  0  0  0  0  0
   60.2960   33.4790   46.8960 C   0  0  0  0  0  0  0  0  0  0  0  0
   60.1410   32.0890   46.8140 C   0  0  0  0  0  0  0  0  0  0  0  0
   59.1700   31.5290   45.9800 C   0  0  0  0  0  0  0  0  0  0  0  0
   58.3390   32.3520   45.2000 C   0  0  0  0  0  0  0  0  0  0  0  0
   57.3100   31.7620   44.3160 C   0  0  0  0  0  0  0  0  0  0  0  0
   57.3580   31.9540   43.0700 O   0  0  0  0  0  0  0  0  0  0  0  0
   56.2610   30.9610   44.8710 N   0  0  0  0  0  0  0  0  0  0  0  0
   55.8880   29.6550   44.3430 C   0  0  0  0  0  0  0  0  0  0  0  0
   57.1110   28.9680   43.7310 C   0  0  0  0  0  0  0  0  0  0  0  0
   58.1110   28.5830   44.7930 C   0  0  0  0  0  0  0  0  0  0  0  0
   59.4840   28.5710   44.5000 C   0  0  0  0  0  0  0  0  0  0  0  0
   60.4150   28.2470   45.4940 C   0  0  0  0  0  0  0  0  0  0  0  0
   59.9800   27.9430   46.7870 C   0  0  0  0  0  0  0  0  0  0  0  0
   58.6160   27.9650   47.0910 C   0  0  0  0  0  0  0  0  0  0  0  0
   57.6840   28.2890   46.0990 C   0  0  0  0  0  0  0  0  0  0  0  0
   58.5050   33.7460   45.2700 C   0  0  0  0  0  0  0  0  0  0  0  0
   59.4800   34.3050   46.1020 C   0  0  0  0  0  0  0  0  0  0  0  0
   65.9034   32.5096   49.0830 H   0  0  0  0  0  0  0  0  0  0  0  0
   66.1504   30.8740   50.9484 H   0  0  0  0  0  0  0  0  0  0  0  0
   64.2887   30.5363   52.5745 H   0  0  0  0  0  0  0  0  0  0  0  0
   62.1835   31.8553   52.3539 H   0  0  0  0  0  0  0  0  0  0  0  0
   60.0230   34.6817   52.3205 H   0  0  0  0  0  0  0  0  0  0  0  0
   57.7236   33.8531   52.8283 H   0  0  0  0  0  0  0  0  0  0  0  0
   56.7841   31.9197   51.5550 H   0  0  0  0  0  0  0  0  0  0  0  0
   58.1420   30.8159   49.7758 H   0  0  0  0  0  0  0  0  0  0  0  0
   60.4359   31.6474   49.2553 H   0  0  0  0  0  0  0  0  0  0  0  0
   61.0350   34.5990   48.5640 H   0  0  0  0  0  0  0  0  0  0  0  0
   60.7900   31.4323   47.4119 H   0  0  0  0  0  0  0  0  0  0  0  0
   59.0549   30.4360   45.9334 H   0  0  0  0  0  0  0  0  0  0  0  0
   55.4907   29.0326   45.1583 H   0  0  0  0  0  0  0  0  0  0  0  0
   55.1211   29.7860   43.5654 H   0  0  0  0  0  0  0  0  0  0  0  0
   56.7848   28.0614   43.2003 H   0  0  0  0  0  0  0  0  0  0  0  0
   57.5942   29.6718   43.0374 H   0  0  0  0  0  0  0  0  0  0  0  0
   59.8296   28.8172   43.4852 H   0  0  0  0  0  0  0  0  0  0  0  0
   61.4891   28.2317   45.2574 H   0  0  0  0  0  0  0  0  0  0  0  0
   60.7123   27.6860   47.5666 H   0  0  0  0  0  0  0  0  0  0  0  0
   58.2754   27.7277   48.1097 H   0  0  0  0  0  0  0  0  0  0  0  0
   56.6116   28.3137   46.3427 H   0  0  0  0  0  0  0  0  0  0  0  0
   57.8625   34.4028   44.6652 H   0  0  0  0  0  0  0  0  0  0  0  0
   59.6096   35.3968   46.1358 H   0  0  0  0  0  0  0  0  0  0  0  0
  1  2  2  0
  2  3  1  0
  3  4  1  0
  4  5  2  0
  5  6  1  0
  6  7  2  0
  7  8  1  0
  8  9  2  0
  9 10  1  0
 10 11  1  0
 11 12  2  0
 12 13  1  0
 13 14  2  0
 14 15  1  0
 15 16  2  0
  2 17  1  0
 17 18  1  0
 18 19  2  0
 19 20  1  0
 20 21  2  0
 21 22  1  0
 22 23  2  0
 22 24  1  0
 24 25  1  0
 25 26  1  0
 26 27  1  0
 27 28  2  0
 28 29  1  0
 29 30  2  0
 30 31  1  0
 31 32  2  0
 21 33  1  0
 33 34  2  0
  9  4  1  0
 16 11  1  0
 34 18  1  0
 32 27  1  0
  5 35  1  0
  6 36  1  0
  7 37  1  0
  8 38  1  0
 12 39  1  0
 13 40  1  0
 14 41  1  0
 15 42  1  0
 16 43  1  0
 17 44  1  0
 19 45  1  0
 20 46  1  0
 25 47  1  0
 25 48  1  0
 26 49  1  0
 26 50  1  0
 28 51  1  0
 29 52  1  0
 30 53  1  0
 31 54  1  0
 32 55  1  0
 33 56  1  0
 34 57  1  0
M  CHG  2   3  -1  24  -1
M  END
>  <UniqueID>  (36) 
30

>  <SMILES>  (36) 
O=C([N-]c1ccccc1Oc1ccccc1)Nc1ccc(C(=O)[N-]CCc2ccccc2)cc1

>  <Energy>  (36) 
71.37440438761368

>  <Genealogy>  (36) 
O=C([N-]c1ccccc1Oc1ccccc1)Nc1ccc(C(=O)[N-]CCc2ccccc2)cc1 (protonated)
O=C([N-]c1ccccc1Oc1ccccc1)Nc1ccc(C(=O)[N-]CCc2ccccc2)cc1 (3D coordinates assigned)
O=C([N-]c1ccccc1Oc1ccccc1)Nc1ccc(C(=O)[N-]CCc2ccccc2)cc1 (optimized conformer: 71.37440438761368 kcal/mol)

>  <smiles>  (36) 
O=C(Nc1ccc(C(=O)NCCc2ccccc2)cc1)Nc1ccccc1Oc1ccccc1

>  <score_type>  (36) 
oracle

>  <origin>  (36) 
adg

>  <m_score__min__energy>  (36) 
-11.98

>  <m_primary>  (36) 
energy

$$$$
36:0
     RDKit          3D

 46 49  0  0  0  0  0  0  0  0999 V2000
   53.6390   25.9330   46.3640 H   0  0  0  0  0  0  0  0  0  0  0  0
   54.4030   25.9570   45.6990 O   0  0  0  0  0  0  0  0  0  0  0  0
   55.6280   25.3430   45.9690 C   0  0  0  0  0  0  0  0  0  0  0  0
   55.6710   23.9680   46.2290 C   0  0  0  0  0  0  0  0  0  0  0  0
   54.7413   23.3801   46.2180 H   0  0  0  0  0  0  0  0  0  0  0  0
   56.8860   23.3390   46.5020 C   0  0  0  0  0  0  0  0  0  0  0  0
   56.9109   22.2583   46.7059 H   0  0  0  0  0  0  0  0  0  0  0  0
   58.0700   24.0780   46.5170 C   0  0  0  0  0  0  0  0  0  0  0  0
   59.0244   23.5763   46.7349 H   0  0  0  0  0  0  0  0  0  0  0  0
   58.0510   25.4620   46.2550 C   0  0  0  0  0  0  0  0  0  0  0  0
   59.2330   26.2260   46.2640 C   0  0  0  0  0  0  0  0  0  0  0  0
   60.3330   25.6650   46.5270 O   0  0  0  0  0  0  0  0  0  0  0  0
   59.1920   27.5720   45.9890 N   0  0  0  0  0  0  0  0  0  0  0  0
   58.0050   28.2140   45.7460 C   0  0  0  0  0  0  0  0  0  0  0  0
   56.8060   27.4750   45.7310 C   0  0  0  0  0  0  0  0  0  0  0  0
   55.8530   27.9826   45.5210 H   0  0  0  0  0  0  0  0  0  0  0  0
   56.8210   26.0980   45.9820 C   0  0  0  0  0  0  0  0  0  0  0  0
   58.0510   29.7270   45.4930 C   0  0  2  0  0  0  0  0  0  0  0  0
   58.3680   30.4290   46.6770 O   0  0  0  0  0  0  0  0  0  0  0  0
   59.3540   30.5240   46.7370 H   0  0  0  0  0  0  0  0  0  0  0  0
   56.7630   30.3390   44.8640 C   0  0  0  0  0  0  0  0  0  0  0  0
   56.2848   29.5685   44.2415 H   0  0  0  0  0  0  0  0  0  0  0  0
   56.1304   30.6674   45.7018 H   0  0  0  0  0  0  0  0  0  0  0  0
   57.0060   31.5590   44.0030 C   0  0  0  0  0  0  0  0  0  0  0  0
   56.8588   31.4692   42.9166 H   0  0  0  0  0  0  0  0  0  0  0  0
   57.3930   32.7480   44.4990 C   0  0  0  0  0  0  0  0  0  0  0  0
   56.6207   33.4022   44.9299 H   0  0  0  0  0  0  0  0  0  0  0  0
   58.8170   33.2410   44.5020 C   0  0  0  0  0  0  0  0  0  0  0  0
   59.4054   32.6437   43.7899 H   0  0  0  0  0  0  0  0  0  0  0  0
   58.8198   34.3020   44.2118 H   0  0  0  0  0  0  0  0  0  0  0  0
   59.4120   33.1220   45.8300 N   0  0  0  0  0  0  0  0  0  0  0  0
   60.3410   32.2330   46.1460 N   0  0  0  0  0  0  0  0  0  0  0  0
   60.6760   32.4330   47.4360 C   0  0  0  0  0  0  0  0  0  0  0  0
   61.4194   31.8509   48.0004 H   0  0  0  0  0  0  0  0  0  0  0  0
   59.9360   33.4860   47.9350 C   0  0  0  0  0  0  0  0  0  0  0  0
   60.0020   34.1550   49.5520 Cl  0  0  0  0  0  0  0  0  0  0  0  0
   59.1460   33.9080   46.8920 C   0  0  0  0  0  0  0  0  0  0  0  0
   58.4255   34.7388   46.9194 H   0  0  0  0  0  0  0  0  0  0  0  0
   59.2140   29.9470   44.4970 C   0  0  0  0  0  0  0  0  0  0  0  0
   59.3777   31.0299   44.3942 H   0  0  0  0  0  0  0  0  0  0  0  0
   58.9135   29.4652   43.5549 H   0  0  0  0  0  0  0  0  0  0  0  0
   60.4930   29.3230   44.8980 N   0  0  0  0  0  0  0  0  0  0  0  0
   61.1770   30.0760   45.1440 H   0  0  0  0  0  0  0  0  0  0  0  0
   60.4210   28.3880   46.0340 C   0  0  0  0  0  0  0  0  0  0  0  0
   60.4333   28.9635   46.9714 H   0  0  0  0  0  0  0  0  0  0  0  0
   61.2859   27.7107   45.9775 H   0  0  0  0  0  0  0  0  0  0  0  0
  1  2  1  0
  2  3  1  0
  3  4  2  0
  4  5  1  0
  4  6  1  0
  6  7  1  0
  6  8  2  0
  8  9  1  0
  8 10  1  0
 10 11  1  0
 11 12  2  0
 11 13  1  0
 13 14  1  0
 14 15  2  0
 15 16  1  0
 15 17  1  0
 14 18  1  0
 18 19  1  1
 19 20  1  0
 18 21  1  0
 21 22  1  0
 21 23  1  0
 21 24  1  0
 24 25  1  0
 24 26  2  0
 26 27  1  0
 26 28  1  0
 28 29  1  0
 28 30  1  0
 28 31  1  0
 31 32  1  0
 32 33  2  0
 33 34  1  0
 33 35  1  0
 35 36  1  0
 35 37  2  0
 37 38  1  0
 18 39  1  0
 39 40  1  0
 39 41  1  0
 39 42  1  0
 42 43  1  0
 42 44  1  0
 44 45  1  0
 44 46  1  0
 17  3  1  0
 37 31  1  0
 17 10  2  0
 44 13  1  0
M  END
>  <UniqueID>  (37) 
31

>  <SMILES>  (37) 
O=c1c2cccc(O)c2cc2n1CNC[C@@]2(O)C/C=C\Cn1cc(Cl)cn1

>  <Energy>  (37) 
99.15926125630895

>  <Genealogy>  (37) 
O=c1c2cccc(O)c2cc2n1CNC[C@@]2(O)CC=CCn1cc(Cl)cn1 (chirality)
O=c1c2cccc(O)c2cc2n1CNC[C@@]2(O)C/C=C\Cn1cc(Cl)cn1 (cis-trans isomerization)
O=c1c2cccc(O)c2cc2n1CNC[C@@]2(O)C/C=C\Cn1cc(Cl)cn1 (3D coordinates assigned)
O=c1c2cccc(O)c2cc2n1CNC[C@@]2(O)C/C=C\Cn1cc(Cl)cn1 (nonaromatic ring conformer: 99.15926125630895 kcal/mol)

>  <smiles>  (37) 
O=c1c2cccc(O)c2cc2n1CNCC2(O)CC=CCn1cc(Cl)cn1

>  <score_type>  (37) 
oracle

>  <origin>  (37) 
adg

>  <m_score__min__energy>  (37) 
-8.3100000000000005

>  <m_primary>  (37) 
energy

$$$$
37:0
     RDKit          3D

 39 41  0  0  1  0  0  0  0  0999 V2000
   63.7480   33.4490   48.4240 C   0  0  0  0  0  0  0  0  0  0  0  0
   62.3650   33.7430   47.9110 C   0  0  0  0  0  0  0  0  0  0  0  0
   61.9490   33.5670   46.6050 C   0  0  0  0  0  0  0  0  0  0  0  0
   60.6240   33.9430   46.5190 C   0  0  0  0  0  0  0  0  0  0  0  0
   59.8490   33.9420   45.5040 N   0  0  0  0  0  0  0  0  0  0  0  0
   58.2270   33.4290   45.6090 S   0  0  0  0  0  0  0  0  0  0  0  0
   57.8380   33.5890   47.0750 O   0  0  0  0  0  0  0  0  0  0  0  0
   57.2580   34.2920   44.8640 O   0  0  0  0  0  0  0  0  0  0  0  0
   58.0190   31.7190   45.2490 C   0  0  0  0  0  0  0  0  0  0  0  0
   56.9610   31.2800   44.4550 C   0  0  0  0  0  0  0  0  0  0  0  0
   56.7710   29.9480   44.1540 C   0  0  0  0  0  0  0  0  0  0  0  0
   57.6560   28.9940   44.6530 C   0  0  0  0  0  0  0  0  0  0  0  0
   57.3930   27.6410   44.2990 N   0  0  0  0  0  0  0  0  0  0  0  0
   57.4260   26.5690   45.2270 C   0  0  0  0  0  0  0  0  0  0  0  0
   57.6940   26.7460   46.4470 O   0  0  0  0  0  0  0  0  0  0  0  0
   57.1310   25.2210   44.7170 C   0  0  0  0  0  0  0  0  0  0  0  0
   56.9240   24.1780   45.6000 C   0  0  0  0  0  0  0  0  0  0  0  0
   56.6480   22.9170   45.0750 C   0  0  0  0  0  0  0  0  0  0  0  0
   56.5800   22.6920   43.7120 C   0  0  0  0  0  0  0  0  0  0  0  0
   56.3320   21.5580   43.2420 O   0  0  0  0  0  0  0  0  0  0  0  0
   56.7930   23.7510   42.9090 N   0  0  0  0  0  0  0  0  0  0  0  0
   57.0560   24.9550   43.4010 N   0  0  0  0  0  0  0  0  0  0  0  0
   58.6910   29.4070   45.4290 C   0  0  0  0  0  0  0  0  0  0  0  0
   58.8700   30.7520   45.7220 C   0  0  0  0  0  0  0  0  0  0  0  0
   60.3020   34.3320   47.7850 N   0  0  0  0  0  0  0  0  0  0  0  0
   61.3350   34.2020   48.5640 O   0  0  0  0  0  0  0  0  0  0  0  0
   63.7392   33.4509   49.5240 H   0  0  0  0  0  0  0  0  0  0  0  0
   64.0714   32.4620   48.0616 H   0  0  0  0  0  0  0  0  0  0  0  0
   64.4449   34.2191   48.0616 H   0  0  0  0  0  0  0  0  0  0  0  0
   62.5676   33.1917   45.7765 H   0  0  0  0  0  0  0  0  0  0  0  0
   56.2536   32.0213   44.0550 H   0  0  0  0  0  0  0  0  0  0  0  0
   55.9246   29.6396   43.5227 H   0  0  0  0  0  0  0  0  0  0  0  0
   57.1650   27.4490   43.2950 H   0  0  0  0  0  0  0  0  0  0  0  0
   56.9757   24.3388   46.6869 H   0  0  0  0  0  0  0  0  0  0  0  0
   56.4794   22.0765   45.7643 H   0  0  0  0  0  0  0  0  0  0  0  0
   56.7510   23.6270   41.8570 H   0  0  0  0  0  0  0  0  0  0  0  0
   59.3972   28.6656   45.8309 H   0  0  0  0  0  0  0  0  0  0  0  0
   59.7200   31.0518   46.3526 H   0  0  0  0  0  0  0  0  0  0  0  0
   59.3890   34.6820   48.1220 H   0  0  0  0  0  0  0  0  0  0  0  0
  1  2  1  0
  2  3  2  0
  3  4  1  0
  4  5  2  0
  5  6  1  0
  6  7  2  0
  6  8  2  0
  6  9  1  0
  9 10  2  0
 10 11  1  0
 11 12  2  0
 12 13  1  0
 13 14  1  0
 14 15  2  0
 14 16  1  0
 16 17  1  0
 17 18  2  0
 18 19  1  0
 19 20  2  0
 19 21  1  0
 21 22  1  0
 12 23  1  0
 23 24  2  0
  4 25  1  0
 25 26  1  0
 26  2  1  0
 24  9  1  0
 22 16  2  0
  1 27  1  0
  1 28  1  0
  1 29  1  0
  3 30  1  0
 10 31  1  0
 11 32  1  0
 13 33  1  0
 17 34  1  0
 18 35  1  0
 21 36  1  0
 23 37  1  0
 24 38  1  0
 25 39  1  0
M  END
>  <smiles>  (38) 
Cc1cc(=NS(=O)(=O)c2ccc(NC(=O)c3ccc(=O)[nH]n3)cc2)[nH]o1

>  <score_type>  (38) 
oracle

>  <origin>  (38) 
adg

>  <m_score__min__energy>  (38) 
-8.8699999999999992

>  <m_primary>  (38) 
energy

$$$$
38:0
     RDKit          3D

 45 47  0  0  0  0  0  0  0  0999 V2000
   59.9960   34.5840   47.2480 C   0  0  0  0  0  0  0  0  0  0  0  0
   60.2030   33.2820   46.7110 O   0  0  0  0  0  0  0  0  0  0  0  0
   59.2330   32.5390   46.0180 C   0  0  0  0  0  0  0  0  0  0  0  0
   58.3390   33.1500   45.1210 C   0  0  0  0  0  0  0  0  0  0  0  0
   57.3750   32.3950   44.4510 C   0  0  0  0  0  0  0  0  0  0  0  0
   57.2700   31.0130   44.6710 C   0  0  0  0  0  0  0  0  0  0  0  0
   56.2380   30.2260   43.9520 C   0  0  0  0  0  0  0  0  0  0  0  0
   56.4530   29.7530   42.6190 N   0  0  0  0  0  0  0  0  0  0  0  0
   55.1510   29.9520   44.5270 O   0  0  0  0  0  0  0  0  0  0  0  0
   58.1700   30.3970   45.5580 C   0  0  0  0  0  0  0  0  0  0  0  0
   59.1560   31.1450   46.2230 C   0  0  0  0  0  0  0  0  0  0  0  0
   60.1010   30.4360   47.1660 C   0  0  0  0  0  0  0  0  0  0  0  0
   60.4950   29.1700   46.6350 O   0  0  0  0  0  0  0  0  0  0  0  0
   59.6350   28.0810   46.4170 C   0  0  0  0  0  0  0  0  0  0  0  0
   59.3820   27.5590   45.1340 C   0  0  0  0  0  0  0  0  0  0  0  0
   58.5050   26.4810   44.9720 C   0  0  0  0  0  0  0  0  0  0  0  0
   57.8630   25.9150   46.0870 C   0  0  0  0  0  0  0  0  0  0  0  0
   56.9860   24.8280   45.9660 O   0  0  0  0  0  0  0  0  0  0  0  0
   57.1260   23.7760   45.0480 C   0  0  0  0  0  0  0  0  0  0  0  0
   56.1440   23.6090   44.0630 C   0  0  0  0  0  0  0  0  0  0  0  0
   56.2500   22.5760   43.1270 C   0  0  0  0  0  0  0  0  0  0  0  0
   57.3470   21.7100   43.1620 C   0  0  0  0  0  0  0  0  0  0  0  0
   58.3440   21.8840   44.1240 C   0  0  0  0  0  0  0  0  0  0  0  0
   58.2430   22.9160   45.0630 C   0  0  0  0  0  0  0  0  0  0  0  0
   59.2510   23.1020   45.9520 F   0  0  0  0  0  0  0  0  0  0  0  0
   58.1380   26.4180   47.3630 C   0  0  0  0  0  0  0  0  0  0  0  0
   59.0130   27.4960   47.5250 C   0  0  0  0  0  0  0  0  0  0  0  0
   60.0041   34.5330   48.3468 H   0  0  0  0  0  0  0  0  0  0  0  0
   60.7990   35.2536   46.9061 H   0  0  0  0  0  0  0  0  0  0  0  0
   59.0250   34.9715   46.9061 H   0  0  0  0  0  0  0  0  0  0  0  0
   58.4000   34.2342   44.9455 H   0  0  0  0  0  0  0  0  0  0  0  0
   56.6913   32.8878   43.7441 H   0  0  0  0  0  0  0  0  0  0  0  0
   55.6870   29.2540   42.1150 H   0  0  0  0  0  0  0  0  0  0  0  0
   57.3880   29.8110   42.1590 H   0  0  0  0  0  0  0  0  0  0  0  0
   58.1012   29.3134   45.7340 H   0  0  0  0  0  0  0  0  0  0  0  0
   60.9956   31.0584   47.3150 H   0  0  0  0  0  0  0  0  0  0  0  0
   59.5847   30.2708   48.1231 H   0  0  0  0  0  0  0  0  0  0  0  0
   59.8757   28.0004   44.2557 H   0  0  0  0  0  0  0  0  0  0  0  0
   58.3170   26.0745   43.9673 H   0  0  0  0  0  0  0  0  0  0  0  0
   55.2846   24.2946   44.0258 H   0  0  0  0  0  0  0  0  0  0  0  0
   55.4699   22.4445   42.3627 H   0  0  0  0  0  0  0  0  0  0  0  0
   57.4247   20.8913   42.4315 H   0  0  0  0  0  0  0  0  0  0  0  0
   59.2113   21.2077   44.1435 H   0  0  0  0  0  0  0  0  0  0  0  0
   57.6628   25.9624   48.2443 H   0  0  0  0  0  0  0  0  0  0  0  0
   59.2143   27.8879   48.5329 H   0  0  0  0  0  0  0  0  0  0  0  0
  1  2  1  0
  2  3  1  0
  3  4  2  0
  4  5  1  0
  5  6  2  0
  6  7  1  0
  7  8  1  0
  7  9  2  0
  6 10  1  0
 10 11  2  0
 11 12  1  0
 12 13  1  0
 13 14  1  0
 14 15  2  0
 15 16  1  0
 16 17  2  0
 17 18  1  0
 18 19  1  0
 19 20  2  0
 20 21  1  0
 21 22  2  0
 22 23  1  0
 23 24  2  0
 24 25  1  0
 17 26  1  0
 26 27  2  0
 11  3  1  0
 27 14  1  0
 24 19  1  0
  1 28  1  0
  1 29  1  0
  1 30  1  0
  4 31  1  0
  5 32  1  0
  8 33  1  0
  8 34  1  0
 10 35  1  0
 12 36  1  0
 12 37  1  0
 15 38  1  0
 16 39  1  0
 20 40  1  0
 21 41  1  0
 22 42  1  0
 23 43  1  0
 26 44  1  0
 27 45  1  0
M  END
>  <UniqueID>  (39) 
32

>  <SMILES>  (39) 
COc1ccc(C(N)=O)cc1COc1ccc(Oc2ccccc2F)cc1

>  <Energy>  (39) 
56.2336891204778

>  <Genealogy>  (39) 
COc1ccc(C(N)=O)cc1COc1ccc(Oc2ccccc2F)cc1 (3D coordinates assigned)
COc1ccc(C(N)=O)cc1COc1ccc(Oc2ccccc2F)cc1 (optimized conformer: 56.2336891204778 kcal/mol)

>  <smiles>  (39) 
COc1ccc(C(N)=O)cc1COc1ccc(Oc2ccccc2F)cc1

>  <score_type>  (39) 
oracle

>  <origin>  (39) 
adg

>  <m_score__min__energy>  (39) 
-7.96

>  <m_primary>  (39) 
energy

$$$$
39:0
     RDKit          3D

 26 27  0  0  0  0  0  0  0  0999 V2000
   55.2920   29.4020   44.8670 N   0  0  0  0  0  0  0  0  0  0  0  0
   56.4770   28.6100   45.0320 C   0  0  0  0  0  0  0  0  0  0  0  0
   56.3880   27.3290   45.6130 C   0  0  0  0  0  0  0  0  0  0  0  0
   55.1530   26.8030   45.9790 O   0  0  0  0  0  0  0  0  0  0  0  0
   57.5430   26.5750   45.8370 C   0  0  0  0  0  0  0  0  0  0  0  0
   58.7950   27.0890   45.4980 C   0  0  0  0  0  0  0  0  0  0  0  0
   58.8970   28.3540   44.9160 C   0  0  0  0  0  0  0  0  0  0  0  0
   57.7460   29.1120   44.6570 C   0  0  0  0  0  0  0  0  0  0  0  0
   57.8920   30.3950   44.0320 N   0  0  0  0  0  0  0  0  0  0  0  0
   57.8900   31.6420   44.7530 C   0  0  0  0  0  0  0  0  0  0  0  0
   57.6980   32.8740   44.0980 C   0  0  0  0  0  0  0  0  0  0  0  0
   57.7080   34.0680   44.8250 C   0  0  0  0  0  0  0  0  0  0  0  0
   57.9170   34.0470   46.2060 C   0  0  0  0  0  0  0  0  0  0  0  0
   58.1200   32.8310   46.8620 C   0  0  0  0  0  0  0  0  0  0  0  0
   58.1110   31.6340   46.1400 C   0  0  0  0  0  0  0  0  0  0  0  0
   54.4080   28.9800   44.5060 H   0  0  0  0  0  0  0  0  0  0  0  0
   55.2600   30.4040   45.1530 H   0  0  0  0  0  0  0  0  0  0  0  0
   57.4648   25.5722   46.2824 H   0  0  0  0  0  0  0  0  0  0  0  0
   59.7023   26.4972   45.6894 H   0  0  0  0  0  0  0  0  0  0  0  0
   59.8870   28.7588   44.6589 H   0  0  0  0  0  0  0  0  0  0  0  0
   57.8600   30.4270   42.9870 H   0  0  0  0  0  0  0  0  0  0  0  0
   57.5395   32.8968   43.0097 H   0  0  0  0  0  0  0  0  0  0  0  0
   57.5509   35.0263   44.3083 H   0  0  0  0  0  0  0  0  0  0  0  0
   57.9217   34.9876   46.7763 H   0  0  0  0  0  0  0  0  0  0  0  0
   58.2873   32.8150   47.9491 H   0  0  0  0  0  0  0  0  0  0  0  0
   58.2780   30.6799   46.6614 H   0  0  0  0  0  0  0  0  0  0  0  0
  1  2  1  0
  2  3  2  0
  3  4  1  0
  3  5  1  0
  5  6  2  0
  6  7  1  0
  7  8  2  0
  8  9  1  0
  9 10  1  0
 10 11  2  0
 11 12  1  0
 12 13  2  0
 13 14  1  0
 14 15  2  0
  8  2  1  0
 15 10  1  0
  1 16  1  0
  1 17  1  0
  5 18  1  0
  6 19  1  0
  7 20  1  0
  9 21  1  0
 11 22  1  0
 12 23  1  0
 13 24  1  0
 14 25  1  0
 15 26  1  0
M  CHG  1   4  -1
M  END
>  <UniqueID>  (40) 
33

>  <SMILES>  (40) 
Nc1c([O-])cccc1Nc1ccccc1

>  <Energy>  (40) 
34.447526637048355

>  <Genealogy>  (40) 
Nc1c([O-])cccc1Nc1ccccc1 (protonated)
Nc1c([O-])cccc1Nc1ccccc1 (3D coordinates assigned)
Nc1c([O-])cccc1Nc1ccccc1 (optimized conformer: 34.447526637048355 kcal/mol)

>  <smiles>  (40) 
Nc1c(O)cccc1Nc1ccccc1

>  <score_type>  (40) 
oracle

>  <origin>  (40) 
adg

>  <m_score__min__energy>  (40) 
-10.93

>  <m_primary>  (40) 
energy

$$$$
40:0
     RDKit          3D

 28 29  0  0  0  0  0  0  0  0999 V2000
   54.3800   25.9550   45.6170 O   0  0  0  0  0  0  0  0  0  0  0  0
   55.4970   25.4050   45.8180 C   0  0  0  0  0  0  0  0  0  0  0  0
   56.4190   25.9660   46.7560 N   0  0  0  0  0  0  0  0  0  0  0  0
   57.8680   25.8210   46.6550 C   0  0  0  0  0  0  0  0  0  0  0  0
   58.3710   26.2540   45.2740 C   0  0  0  0  0  0  0  0  0  0  0  0
   58.0180   27.6910   44.9900 C   0  0  0  0  0  0  0  0  0  0  0  0
   59.0320   28.6370   44.7730 C   0  0  0  0  0  0  0  0  0  0  0  0
   58.6900   29.9710   44.5500 C   0  0  0  0  0  0  0  0  0  0  0  0
   57.3490   30.3530   44.5490 C   0  0  0  0  0  0  0  0  0  0  0  0
   56.3620   29.3890   44.7770 C   0  0  0  0  0  0  0  0  0  0  0  0
   55.1480   29.7260   44.7840 O   0  0  0  0  0  0  0  0  0  0  0  0
   56.7120   28.0900   44.9950 N   0  0  0  0  0  0  0  0  0  0  0  0
   55.8570   24.1860   45.0830 C   0  0  0  0  0  0  0  0  0  0  0  0
   56.2220   24.1150   43.7430 C   0  0  0  0  0  0  0  0  0  0  0  0
   56.5240   22.8140   43.3230 C   0  0  0  0  0  0  0  0  0  0  0  0
   56.4020   21.8610   44.3260 C   0  0  0  0  0  0  0  0  0  0  0  0
   55.9170   22.6370   45.7360 S   0  0  0  0  0  0  0  0  0  0  0  0
   58.3460   26.4461   47.4236 H   0  0  0  0  0  0  0  0  0  0  0  0
   58.1242   24.7616   46.8037 H   0  0  0  0  0  0  0  0  0  0  0  0
   59.4645   26.1397   45.2386 H   0  0  0  0  0  0  0  0  0  0  0  0
   57.8894   25.6209   44.5142 H   0  0  0  0  0  0  0  0  0  0  0  0
   60.0880   28.3290   44.7787 H   0  0  0  0  0  0  0  0  0  0  0  0
   59.4766   30.7199   44.3753 H   0  0  0  0  0  0  0  0  0  0  0  0
   57.0703   31.4021   44.3707 H   0  0  0  0  0  0  0  0  0  0  0  0
   55.9600   27.3860   45.1730 H   0  0  0  0  0  0  0  0  0  0  0  0
   56.2687   24.9918   43.0804 H   0  0  0  0  0  0  0  0  0  0  0  0
   56.8293   22.5695   42.2949 H   0  0  0  0  0  0  0  0  0  0  0  0
   56.5905   20.7828   44.2164 H   0  0  0  0  0  0  0  0  0  0  0  0
  1  2  2  0
  2  3  1  0
  3  4  1  0
  4  5  1  0
  5  6  1  0
  6  7  2  0
  7  8  1  0
  8  9  2  0
  9 10  1  0
 10 11  2  0
 10 12  1  0
  2 13  1  0
 13 14  2  0
 14 15  1  0
 15 16  2  0
 16 17  1  0
 12  6  1  0
 17 13  1  0
  4 18  1  0
  4 19  1  0
  5 20  1  0
  5 21  1  0
  7 22  1  0
  8 23  1  0
  9 24  1  0
 12 25  1  0
 14 26  1  0
 15 27  1  0
 16 28  1  0
M  CHG  1   3  -1
M  END
>  <UniqueID>  (41) 
34

>  <SMILES>  (41) 
O=C([N-]CCc1cccc(=O)[nH]1)c1cccs1

>  <Energy>  (41) 
48.895018896409624

>  <Genealogy>  (41) 
O=C([N-]CCc1cccc(=O)[nH]1)c1cccs1 (protonated)
O=C([N-]CCc1cccc(=O)[nH]1)c1cccs1 (3D coordinates assigned)
O=C([N-]CCc1cccc(=O)[nH]1)c1cccs1 (optimized conformer: 48.895018896409624 kcal/mol)

>  <smiles>  (41) 
O=C(NCCc1cccc(=O)[nH]1)c1cccs1

>  <score_type>  (41) 
oracle

>  <origin>  (41) 
adg

>  <m_score__min__energy>  (41) 
-8.0899999999999999

>  <m_primary>  (41) 
energy

$$$$
41:0
     RDKit          3D

 63 66  0  0  0  0  0  0  0  0999 V2000
   56.4110   31.1870   52.2270 C   0  0  0  0  0  0  0  0  0  0  0  0
   57.0040   29.9490   51.8450 O   0  0  0  0  0  0  0  0  0  0  0  0
   58.2580   29.8230   51.2230 C   0  0  0  0  0  0  0  0  0  0  0  0
   58.5740   30.4750   50.0160 C   0  0  0  0  0  0  0  0  0  0  0  0
   59.8080   30.3290   49.4340 N   0  0  0  0  0  0  0  0  0  0  0  0
   60.1160   31.0910   48.2010 C   0  0  2  0  0  0  0  0  0  0  0  0
   59.8430   32.6060   48.3620 C   0  0  0  0  0  0  0  0  0  0  0  0
   59.1420   33.1790   47.1520 C   0  0  0  0  0  0  0  0  0  0  0  0
   59.8860   33.6130   46.0420 C   0  0  0  0  0  0  0  0  0  0  0  0
   59.2340   34.1140   44.9100 C   0  0  0  0  0  0  0  0  0  0  0  0
   57.8380   34.1770   44.8740 C   0  0  0  0  0  0  0  0  0  0  0  0
   57.0900   33.7370   45.9700 C   0  0  0  0  0  0  0  0  0  0  0  0
   57.7370   33.2390   47.1050 C   0  0  0  0  0  0  0  0  0  0  0  0
   59.4030   30.4770   47.0170 C   0  0  0  0  0  0  0  0  0  0  0  0
   58.1430   30.4190   47.0290 O   0  0  0  0  0  0  0  0  0  0  0  0
   60.1270   29.9940   45.8740 N   0  0  0  0  0  0  0  0  0  0  0  0
   59.4580   29.6170   44.6320 C   0  0  0  0  0  0  0  0  0  0  0  0
   59.0600   28.1670   44.6820 C   0  0  0  0  0  0  0  0  0  0  0  0
   59.5200   27.3350   45.7170 C   0  0  0  0  0  0  0  0  0  0  0  0
   59.1070   26.0010   45.7830 C   0  0  0  0  0  0  0  0  0  0  0  0
   58.2210   25.4880   44.8240 C   0  0  0  0  0  0  0  0  0  0  0  0
   57.7650   24.0870   44.9100 C   0  0  0  0  0  0  0  0  0  0  0  0
   58.4250   23.1180   44.1360 C   0  0  0  0  0  0  0  0  0  0  0  0
   58.0130   21.7840   44.1750 C   0  0  0  0  0  0  0  0  0  0  0  0
   56.9390   21.4060   44.9850 C   0  0  0  0  0  0  0  0  0  0  0  0
   56.2850   22.3570   45.7730 C   0  0  0  0  0  0  0  0  0  0  0  0
   56.6930   23.7010   45.7550 C   0  0  0  0  0  0  0  0  0  0  0  0
   55.8950   24.8580   46.8320 S   0  0  0  0  0  0  0  0  0  0  0  0
   54.8140   25.8500   45.9150 N   0  0  0  0  0  0  0  0  0  0  0  0
   55.1360   24.1200   47.8970 O   0  0  0  0  0  0  0  0  0  0  0  0
   56.9180   25.7450   47.4890 O   0  0  0  0  0  0  0  0  0  0  0  0
   57.7740   26.3130   43.7820 C   0  0  0  0  0  0  0  0  0  0  0  0
   58.1860   27.6460   43.7150 C   0  0  0  0  0  0  0  0  0  0  0  0
   60.7580   29.5490   50.0420 C   0  0  0  0  0  0  0  0  0  0  0  0
   60.4840   28.8900   51.2370 C   0  0  0  0  0  0  0  0  0  0  0  0
   59.2310   29.0280   51.8280 C   0  0  0  0  0  0  0  0  0  0  0  0
   58.9820   28.4390   52.9130 O   0  0  0  0  0  0  0  0  0  0  0  0
   56.3785   31.2548   53.3244 H   0  0  0  0  0  0  0  0  0  0  0  0
   57.0084   32.0190   51.8257 H   0  0  0  0  0  0  0  0  0  0  0  0
   55.3883   31.2430   51.8257 H   0  0  0  0  0  0  0  0  0  0  0  0
   57.8193   31.1119   49.5315 H   0  0  0  0  0  0  0  0  0  0  0  0
   61.1963   31.0170   48.0076 H   0  0  0  0  0  0  0  0  0  0  0  0
   59.2099   32.7620   49.2479 H   0  0  0  0  0  0  0  0  0  0  0  0
   60.8098   33.1189   48.4732 H   0  0  0  0  0  0  0  0  0  0  0  0
   60.9845   33.5587   46.0630 H   0  0  0  0  0  0  0  0  0  0  0  0
   59.8213   34.4591   44.0463 H   0  0  0  0  0  0  0  0  0  0  0  0
   57.3281   34.5728   43.9833 H   0  0  0  0  0  0  0  0  0  0  0  0
   55.9914   33.7826   45.9394 H   0  0  0  0  0  0  0  0  0  0  0  0
   57.1450   32.8926   47.9650 H   0  0  0  0  0  0  0  0  0  0  0  0
   61.1690   29.9430   45.8970 H   0  0  0  0  0  0  0  0  0  0  0  0
   58.5592   30.2372   44.4995 H   0  0  0  0  0  0  0  0  0  0  0  0
   60.1467   29.7737   43.7887 H   0  0  0  0  0  0  0  0  0  0  0  0
   60.2071   27.7346   46.4774 H   0  0  0  0  0  0  0  0  0  0  0  0
   59.4780   25.3515   46.5896 H   0  0  0  0  0  0  0  0  0  0  0  0
   59.2703   23.4113   43.4962 H   0  0  0  0  0  0  0  0  0  0  0  0
   58.5347   21.0300   43.5673 H   0  0  0  0  0  0  0  0  0  0  0  0
   56.6075   20.3573   45.0025 H   0  0  0  0  0  0  0  0  0  0  0  0
   55.4440   22.0506   46.4124 H   0  0  0  0  0  0  0  0  0  0  0  0
   54.7790   26.7830   46.3840 H   0  0  0  0  0  0  0  0  0  0  0  0
   57.0968   25.9092   43.0150 H   0  0  0  0  0  0  0  0  0  0  0  0
   57.8238   28.2906   42.9005 H   0  0  0  0  0  0  0  0  0  0  0  0
   61.7501   29.4427   49.5790 H   0  0  0  0  0  0  0  0  0  0  0  0
   61.2534   28.2635   51.7119 H   0  0  0  0  0  0  0  0  0  0  0  0
  1  2  1  0
  2  3  1  0
  3  4  2  0
  4  5  1  0
  5  6  1  0
  6  7  1  0
  7  8  1  0
  8  9  2  0
  9 10  1  0
 10 11  2  0
 11 12  1  0
 12 13  2  0
  6 14  1  0
 14 15  2  0
 14 16  1  0
 16 17  1  0
 17 18  1  0
 18 19  2  0
 19 20  1  0
 20 21  2  0
 21 22  1  0
 22 23  2  0
 23 24  1  0
 24 25  2  0
 25 26  1  0
 26 27  2  0
 27 28  1  0
 28 29  1  0
 28 30  2  0
 28 31  2  0
 21 32  1  0
 32 33  2  0
  5 34  1  0
 34 35  2  0
 35 36  1  0
 36 37  2  0
 36  3  1  0
 13  8  1  0
 33 18  1  0
 27 22  1  0
  1 38  1  0
  1 39  1  0
  1 40  1  0
  4 41  1  0
  6 42  1  6
  7 43  1  0
  7 44  1  0
  9 45  1  0
 10 46  1  0
 11 47  1  0
 12 48  1  0
 13 49  1  0
 16 50  1  0
 17 51  1  0
 17 52  1  0
 19 53  1  0
 20 54  1  0
 23 55  1  0
 24 56  1  0
 25 57  1  0
 26 58  1  0
 29 59  1  0
 32 60  1  0
 33 61  1  0
 34 62  1  0
 35 63  1  0
M  CHG  1  29  -1
M  END
>  <UniqueID>  (42) 
35

>  <SMILES>  (42) 
COc1cn([C@H](Cc2ccccc2)C(=O)NCc2ccc(-c3ccccc3S([NH-])(=O)=O)cc2)ccc1=O

>  <Energy>  (42) 
70.40343782774484

>  <Genealogy>  (42) 
COc1cn(C(Cc2ccccc2)C(=O)NCc2ccc(-c3ccccc3S([NH-])(=O)=O)cc2)ccc1=O (protonated)
COc1cn([C@H](Cc2ccccc2)C(=O)NCc2ccc(-c3ccccc3S([NH-])(=O)=O)cc2)ccc1=O (chirality)
COc1cn([C@H](Cc2ccccc2)C(=O)NCc2ccc(-c3ccccc3S([NH-])(=O)=O)cc2)ccc1=O (3D coordinates assigned)
COc1cn([C@H](Cc2ccccc2)C(=O)NCc2ccc(-c3ccccc3S([NH-])(=O)=O)cc2)ccc1=O (optimized conformer: 70.40343782774484 kcal/mol)

>  <smiles>  (42) 
COc1cn(C(Cc2ccccc2)C(=O)NCc2ccc(-c3ccccc3S(N)(=O)=O)cc2)ccc1=O

>  <score_type>  (42) 
oracle

>  <origin>  (42) 
adg

>  <m_score__min__energy>  (42) 
-11.93

>  <m_primary>  (42) 
energy

$$$$
42:0
     RDKit          3D

 46 48  0  0  0  0  0  0  0  0999 V2000
   56.2630   31.6160   44.8510 O   0  0  0  0  0  0  0  0  0  0  0  0
   57.3410   31.4990   44.2080 C   0  0  0  0  0  0  0  0  0  0  0  0
   58.0840   32.7330   43.7940 C   0  0  0  0  0  0  0  0  0  0  0  0
   58.4940   33.5210   45.0070 C   0  0  0  0  0  0  0  0  0  0  0  0
   59.2590   34.6900   44.8730 C   0  0  0  0  0  0  0  0  0  0  0  0
   59.6600   35.3840   46.0170 C   0  0  0  0  0  0  0  0  0  0  0  0
   59.3190   34.9240   47.2510 N   0  0  0  0  0  0  0  0  0  0  0  0
   58.5840   33.7910   47.4100 C   0  0  0  0  0  0  0  0  0  0  0  0
   58.1610   33.0670   46.2920 C   0  0  0  0  0  0  0  0  0  0  0  0
   57.8850   30.2010   43.9130 N   0  0  0  0  0  0  0  0  0  0  0  0
   57.2600   28.9620   44.2870 C   0  0  0  0  0  0  0  0  0  0  0  0
   56.1270   28.9630   44.8420 O   0  0  0  0  0  0  0  0  0  0  0  0
   57.9140   27.7210   43.9820 N   0  0  0  0  0  0  0  0  0  0  0  0
   57.5010   26.4420   44.4950 C   0  0  0  0  0  0  0  0  0  0  0  0
   57.7100   25.2560   43.7670 C   0  0  0  0  0  0  0  0  0  0  0  0
   57.2810   24.0280   44.2810 C   0  0  0  0  0  0  0  0  0  0  0  0
   56.6230   23.9700   45.5170 C   0  0  0  0  0  0  0  0  0  0  0  0
   56.0640   22.4320   46.1670 S   0  0  0  0  0  0  0  0  0  0  0  0
   55.9800   21.3890   45.0880 O   0  0  0  0  0  0  0  0  0  0  0  0
   57.0340   21.9680   47.2160 O   0  0  0  0  0  0  0  0  0  0  0  0
   54.5010   22.6350   46.8880 N   0  0  0  0  0  0  0  0  0  0  0  0
   53.3080   23.0030   46.1840 C   0  0  0  0  0  0  0  0  0  0  0  0
   53.3400   23.7620   45.0000 C   0  0  0  0  0  0  0  0  0  0  0  0
   52.1490   24.0990   44.3480 C   0  0  0  0  0  0  0  0  0  0  0  0
   50.9220   23.6810   44.8690 C   0  0  0  0  0  0  0  0  0  0  0  0
   50.8830   22.9250   46.0420 C   0  0  0  0  0  0  0  0  0  0  0  0
   52.0710   22.5870   46.6960 C   0  0  0  0  0  0  0  0  0  0  0  0
   56.3930   25.1510   46.2320 C   0  0  0  0  0  0  0  0  0  0  0  0
   56.8230   26.3790   45.7220 C   0  0  0  0  0  0  0  0  0  0  0  0
   58.9815   32.4443   43.2273 H   0  0  0  0  0  0  0  0  0  0  0  0
   57.4284   33.3542   43.1660 H   0  0  0  0  0  0  0  0  0  0  0  0
   59.5406   35.0568   43.8749 H   0  0  0  0  0  0  0  0  0  0  0  0
   60.2533   36.3052   45.9198 H   0  0  0  0  0  0  0  0  0  0  0  0
   58.3220   33.4438   48.4203 H   0  0  0  0  0  0  0  0  0  0  0  0
   57.5709   32.1473   46.4187 H   0  0  0  0  0  0  0  0  0  0  0  0
   58.8030   30.1550   43.4150 H   0  0  0  0  0  0  0  0  0  0  0  0
   58.6920   27.7420   43.2830 H   0  0  0  0  0  0  0  0  0  0  0  0
   58.2129   25.2949   42.7895 H   0  0  0  0  0  0  0  0  0  0  0  0
   57.4609   23.1036   43.7126 H   0  0  0  0  0  0  0  0  0  0  0  0
   54.3042   24.0915   44.5857 H   0  0  0  0  0  0  0  0  0  0  0  0
   52.1787   24.6942   43.4234 H   0  0  0  0  0  0  0  0  0  0  0  0
   49.9867   23.9475   44.3550 H   0  0  0  0  0  0  0  0  0  0  0  0
   49.9169   22.5952   46.4517 H   0  0  0  0  0  0  0  0  0  0  0  0
   52.0352   21.9901   47.6193 H   0  0  0  0  0  0  0  0  0  0  0  0
   55.8714   25.1124   47.1997 H   0  0  0  0  0  0  0  0  0  0  0  0
   56.6286   27.3029   46.2865 H   0  0  0  0  0  0  0  0  0  0  0  0
  1  2  2  0
  2  3  1  0
  3  4  1  0
  4  5  2  0
  5  6  1  0
  6  7  2  0
  7  8  1  0
  8  9  2  0
  2 10  1  0
 10 11  1  0
 11 12  2  0
 11 13  1  0
 13 14  1  0
 14 15  2  0
 15 16  1  0
 16 17  2  0
 17 18  1  0
 18 19  2  0
 18 20  2  0
 18 21  1  0
 21 22  1  0
 22 23  2  0
 23 24  1  0
 24 25  2  0
 25 26  1  0
 26 27  2  0
 17 28  1  0
 28 29  2  0
  9  4  1  0
 29 14  1  0
 27 22  1  0
  3 30  1  0
  3 31  1  0
  5 32  1  0
  6 33  1  0
  8 34  1  0
  9 35  1  0
 10 36  1  0
 13 37  1  0
 15 38  1  0
 16 39  1  0
 23 40  1  0
 24 41  1  0
 25 42  1  0
 26 43  1  0
 27 44  1  0
 28 45  1  0
 29 46  1  0
M  CHG  1  21  -1
M  END
>  <UniqueID>  (43) 
36

>  <SMILES>  (43) 
O=C(Cc1ccncc1)NC(=O)Nc1ccc(S(=O)(=O)[N-]c2ccccc2)cc1

>  <Energy>  (43) 
53.63222759915482

>  <Genealogy>  (43) 
O=C(Cc1ccncc1)NC(=O)Nc1ccc(S(=O)(=O)[N-]c2ccccc2)cc1 (protonated)
O=C(Cc1ccncc1)NC(=O)Nc1ccc(S(=O)(=O)[N-]c2ccccc2)cc1 (3D coordinates assigned)
O=C(Cc1ccncc1)NC(=O)Nc1ccc(S(=O)(=O)[N-]c2ccccc2)cc1 (optimized conformer: 53.63222759915482 kcal/mol)

>  <smiles>  (43) 
O=C(Cc1ccncc1)NC(=O)Nc1ccc(S(=O)(=O)Nc2ccccc2)cc1

>  <score_type>  (43) 
oracle

>  <origin>  (43) 
adg

>  <m_score__min__energy>  (43) 
-10.18

>  <m_primary>  (43) 
energy

$$$$
43:0
     RDKit          3D

 60 62  0  0  0  0  0  0  0  0999 V2000
   59.4120   24.7820   46.0170 O   0  0  0  0  0  0  0  0  0  0  0  0
   58.7290   25.5760   46.7200 C   0  0  0  0  0  0  0  0  0  0  0  0
   57.5280   25.0730   47.4500 C   0  0  0  0  0  0  0  0  0  0  0  0
   56.3350   25.7490   46.9550 N   0  0  0  0  0  0  0  0  0  0  0  0
   55.5170   25.2770   45.8770 C   0  0  0  0  0  0  0  0  0  0  0  0
   54.4280   25.8640   45.6400 O   0  0  0  0  0  0  0  0  0  0  0  0
   55.8970   24.1110   45.0560 C   0  0  0  0  0  0  0  0  0  0  0  0
   56.3740   24.2890   43.7460 C   0  0  0  0  0  0  0  0  0  0  0  0
   56.7230   23.1830   42.9660 C   0  0  0  0  0  0  0  0  0  0  0  0
   56.5860   21.8920   43.4800 C   0  0  0  0  0  0  0  0  0  0  0  0
   56.9260   20.8200   42.7210 F   0  0  0  0  0  0  0  0  0  0  0  0
   56.0910   21.7040   44.7730 C   0  0  0  0  0  0  0  0  0  0  0  0
   55.7410   22.8070   45.5600 C   0  0  0  0  0  0  0  0  0  0  0  0
   55.2720   22.6040   46.8170 F   0  0  0  0  0  0  0  0  0  0  0  0
   59.0740   26.9650   46.7940 N   0  0  0  0  0  0  0  0  0  0  0  0
   58.6030   27.9960   45.9130 C   0  0  0  0  0  0  0  0  0  0  0  0
   57.7130   27.6480   44.9000 C   0  0  0  0  0  0  0  0  0  0  0  0
   57.2390   28.6160   44.0240 C   0  0  0  0  0  0  0  0  0  0  0  0
   57.6400   29.9450   44.1740 C   0  0  0  0  0  0  0  0  0  0  0  0
   57.0330   31.1140   42.9990 Cl  0  0  0  0  0  0  0  0  0  0  0  0
   58.4790   30.3070   45.2030 N   0  0  0  0  0  0  0  0  0  0  0  0
   58.9080   31.7140   45.3440 C   0  0  0  0  0  0  0  0  0  0  0  0
   58.3830   32.3100   46.6200 C   0  0  0  0  0  0  0  0  0  0  0  0
   57.3510   33.0350   46.5980 O   0  0  0  0  0  0  0  0  0  0  0  0
   59.0850   32.0940   47.8500 N   0  0  0  0  0  0  0  0  0  0  0  0
   58.5360   32.5520   49.1270 C   0  0  0  0  0  0  0  0  0  0  0  0
   59.5080   33.4820   49.8670 C   0  0  0  0  0  0  0  0  0  0  0  0
   60.5730   34.1360   48.9680 C   0  0  0  0  0  0  0  0  0  0  0  0
   61.4560   33.1140   48.3580 N   0  0  0  0  0  0  0  0  0  0  0  0
   61.6380   33.3060   46.8960 C   0  0  0  0  0  0  0  0  0  0  0  0
   63.0380   33.8410   46.5510 C   0  0  0  0  0  0  0  0  0  0  0  0
   64.0860   32.9890   46.9890 O   0  0  0  0  0  0  0  0  0  0  0  0
   63.8020   32.3130   48.2090 C   0  0  0  0  0  0  0  0  0  0  0  0
   62.7430   33.0090   49.0790 C   0  0  0  0  0  0  0  0  0  0  0  0
   58.9580   29.3530   46.0730 C   0  0  0  0  0  0  0  0  0  0  0  0
   59.7000   29.6880   47.0360 O   0  0  0  0  0  0  0  0  0  0  0  0
   57.4285   23.9896   47.2879 H   0  0  0  0  0  0  0  0  0  0  0  0
   57.6429   25.2760   48.5250 H   0  0  0  0  0  0  0  0  0  0  0  0
   56.4731   25.3036   43.3326 H   0  0  0  0  0  0  0  0  0  0  0  0
   57.1063   23.3298   41.9454 H   0  0  0  0  0  0  0  0  0  0  0  0
   55.9761   20.6860   45.1735 H   0  0  0  0  0  0  0  0  0  0  0  0
   57.3845   26.6036   44.7933 H   0  0  0  0  0  0  0  0  0  0  0  0
   56.5493   28.3363   43.2140 H   0  0  0  0  0  0  0  0  0  0  0  0
   60.0072   31.7562   45.3524 H   0  0  0  0  0  0  0  0  0  0  0  0
   58.5077   32.2899   44.4966 H   0  0  0  0  0  0  0  0  0  0  0  0
   59.9990   31.5890   47.8200 H   0  0  0  0  0  0  0  0  0  0  0  0
   57.5988   33.0956   48.9368 H   0  0  0  0  0  0  0  0  0  0  0  0
   58.3607   31.6691   49.7592 H   0  0  0  0  0  0  0  0  0  0  0  0
   58.9226   34.2818   50.3441 H   0  0  0  0  0  0  0  0  0  0  0  0
   60.0504   32.8564   50.5912 H   0  0  0  0  0  0  0  0  0  0  0  0
   60.0709   34.7005   48.1685 H   0  0  0  0  0  0  0  0  0  0  0  0
   61.1887   34.8061   49.5860 H   0  0  0  0  0  0  0  0  0  0  0  0
   61.4936   32.3395   46.3909 H   0  0  0  0  0  0  0  0  0  0  0  0
   60.8998   34.0481   46.5580 H   0  0  0  0  0  0  0  0  0  0  0  0
   63.1107   33.9516   45.4590 H   0  0  0  0  0  0  0  0  0  0  0  0
   63.1584   34.8020   47.0726 H   0  0  0  0  0  0  0  0  0  0  0  0
   63.4415   31.3020   47.9682 H   0  0  0  0  0  0  0  0  0  0  0  0
   64.7351   32.3031   48.7914 H   0  0  0  0  0  0  0  0  0  0  0  0
   62.5937   32.4265   50.0001 H   0  0  0  0  0  0  0  0  0  0  0  0
   63.0957   34.0228   49.3195 H   0  0  0  0  0  0  0  0  0  0  0  0
  1  2  2  0
  2  3  1  0
  3  4  1  0
  4  5  1  0
  5  6  2  0
  5  7  1  0
  7  8  2  0
  8  9  1  0
  9 10  2  0
 10 11  1  0
 10 12  1  0
 12 13  2  0
 13 14  1  0
  2 15  1  0
 15 16  1  0
 16 17  2  0
 17 18  1  0
 18 19  2  0
 19 20  1  0
 19 21  1  0
 21 22  1  0
 22 23  1  0
 23 24  2  0
 23 25  1  0
 25 26  1  0
 26 27  1  0
 27 28  1  0
 28 29  1  0
 29 30  1  0
 30 31  1  0
 31 32  1  0
 32 33  1  0
 33 34  1  0
 21 35  1  0
 35 36  2  0
 13  7  1  0
 35 16  1  0
 34 29  1  0
  3 37  1  0
  3 38  1  0
  8 39  1  0
  9 40  1  0
 12 41  1  0
 17 42  1  0
 18 43  1  0
 22 44  1  0
 22 45  1  0
 25 46  1  0
 26 47  1  0
 26 48  1  0
 27 49  1  0
 27 50  1  0
 28 51  1  0
 28 52  1  0
 30 53  1  0
 30 54  1  0
 31 55  1  0
 31 56  1  0
 33 57  1  0
 33 58  1  0
 34 59  1  0
 34 60  1  0
M  CHG  2   4  -1  15  -1
M  END
>  <UniqueID>  (44) 
37

>  <SMILES>  (44) 
O=C(C[N-]C(=O)c1ccc(F)cc1F)[N-]c1ccc(Cl)n(CC(=O)NCCCN2CCOCC2)c1=O

>  <Energy>  (44) 
84.31018138860222

>  <Genealogy>  (44) 
O=C(C[N-]C(=O)c1ccc(F)cc1F)[N-]c1ccc(Cl)n(CC(=O)NCCCN2CCOCC2)c1=O (protonated)
O=C(C[N-]C(=O)c1ccc(F)cc1F)[N-]c1ccc(Cl)n(CC(=O)NCCCN2CCOCC2)c1=O (3D coordinates assigned)
O=C(C[N-]C(=O)c1ccc(F)cc1F)[N-]c1ccc(Cl)n(CC(=O)NCCCN2CCOCC2)c1=O (nonaromatic ring conformer: 84.31018138860222 kcal/mol)

>  <smiles>  (44) 
O=C(Cn1c(Cl)ccc(NC(=O)CNC(=O)c2ccc(F)cc2F)c1=O)NCCCN1CCOCC1

>  <score_type>  (44) 
oracle

>  <origin>  (44) 
adg

>  <m_score__min__energy>  (44) 
-12.44

>  <m_primary>  (44) 
energy

$$$$
44:0
     RDKit          3D

 57 60  0  0  0  0  0  0  0  0999 V2000
   58.9580   33.7520   51.5600 C   0  0  0  0  0  0  0  0  0  0  0  0
   59.9000   33.6910   50.4000 C   0  0  0  0  0  0  0  0  0  0  0  0
   59.4120   33.7410   49.0910 C   0  0  0  0  0  0  0  0  0  0  0  0
   60.3070   33.7010   48.0020 C   0  0  0  0  0  0  0  0  0  0  0  0
   59.8900   33.7510   46.7630 N   0  0  0  0  0  0  0  0  0  0  0  0
   59.1300   32.7650   46.0480 C   0  0  0  0  0  0  0  0  0  0  0  0
   59.0910   31.4260   46.4720 C   0  0  0  0  0  0  0  0  0  0  0  0
   58.3040   30.4940   45.7900 C   0  0  0  0  0  0  0  0  0  0  0  0
   57.5250   30.8950   44.6960 C   0  0  0  0  0  0  0  0  0  0  0  0
   56.5320   29.7320   43.8210 S   0  0  0  0  0  0  0  0  0  0  0  0
   55.1520   29.3170   44.7770 N   0  0  0  0  0  0  0  0  0  0  0  0
   57.3420   28.4980   43.5380 O   0  0  0  0  0  0  0  0  0  0  0  0
   56.0660   30.3190   42.5180 O   0  0  0  0  0  0  0  0  0  0  0  0
   57.5370   32.2380   44.2950 C   0  0  0  0  0  0  0  0  0  0  0  0
   58.3270   33.1690   44.9750 C   0  0  0  0  0  0  0  0  0  0  0  0
   61.6910   33.5680   48.2640 C   0  0  0  0  0  0  0  0  0  0  0  0
   62.6420   33.5080   47.2260 C   0  0  0  0  0  0  0  0  0  0  0  0
   64.0020   33.4040   47.5180 C   0  0  0  0  0  0  0  0  0  0  0  0
   64.4380   33.3720   48.8420 C   0  0  0  0  0  0  0  0  0  0  0  0
   63.5170   33.4460   49.8970 C   0  0  0  0  0  0  0  0  0  0  0  0
   64.0000   33.4230   51.2920 C   0  0  0  0  0  0  0  0  0  0  0  0
   64.0860   34.5070   51.9280 O   0  0  0  0  0  0  0  0  0  0  0  0
   64.3710   32.2060   51.9540 N   0  0  0  0  0  0  0  0  0  0  0  0
   63.9600   30.8550   51.5710 C   0  0  0  0  0  0  0  0  0  0  0  0
   62.4330   30.7480   51.4790 C   0  0  0  0  0  0  0  0  0  0  0  0
   62.0320   29.7490   50.4620 N   0  0  0  0  0  0  0  0  0  0  0  0
   61.2760   30.3550   49.3380 C   0  0  0  0  0  0  0  0  0  0  0  0
   59.7510   30.3050   49.5580 C   0  0  0  0  0  0  0  0  0  0  0  0
   59.4490   30.2830   50.9360 O   0  0  0  0  0  0  0  0  0  0  0  0
   59.8700   29.0560   51.5090 C   0  0  0  0  0  0  0  0  0  0  0  0
   61.2830   28.6230   51.0500 C   0  0  0  0  0  0  0  0  0  0  0  0
   62.1380   33.5220   49.6090 C   0  0  0  0  0  0  0  0  0  0  0  0
   61.2340   33.5870   50.6220 N   0  0  0  0  0  0  0  0  0  0  0  0
   59.5298   33.7150   52.4990 H   0  0  0  0  0  0  0  0  0  0  0  0
   58.3837   34.6892   51.5171 H   0  0  0  0  0  0  0  0  0  0  0  0
   58.2677   32.8967   51.5171 H   0  0  0  0  0  0  0  0  0  0  0  0
   58.3292   33.8116   48.9103 H   0  0  0  0  0  0  0  0  0  0  0  0
   59.6822   31.1101   47.3441 H   0  0  0  0  0  0  0  0  0  0  0  0
   58.2959   29.4425   46.1128 H   0  0  0  0  0  0  0  0  0  0  0  0
   54.4180   28.9700   44.1210 H   0  0  0  0  0  0  0  0  0  0  0  0
   56.9222   32.5605   43.4417 H   0  0  0  0  0  0  0  0  0  0  0  0
   58.3177   34.2245   44.6655 H   0  0  0  0  0  0  0  0  0  0  0  0
   62.3096   33.5434   46.1780 H   0  0  0  0  0  0  0  0  0  0  0  0
   64.7345   33.3469   46.6993 H   0  0  0  0  0  0  0  0  0  0  0  0
   65.5128   33.2881   49.0607 H   0  0  0  0  0  0  0  0  0  0  0  0
   64.3970   30.6106   50.5915 H   0  0  0  0  0  0  0  0  0  0  0  0
   64.3140   30.1512   52.3386 H   0  0  0  0  0  0  0  0  0  0  0  0
   62.0339   30.4448   52.4582 H   0  0  0  0  0  0  0  0  0  0  0  0
   62.0297   31.7285   51.1857 H   0  0  0  0  0  0  0  0  0  0  0  0
   61.5830   31.4060   49.2323 H   0  0  0  0  0  0  0  0  0  0  0  0
   61.5023   29.7747   48.4314 H   0  0  0  0  0  0  0  0  0  0  0  0
   59.2904   31.1933   49.1010 H   0  0  0  0  0  0  0  0  0  0  0  0
   59.3553   29.3898   49.0934 H   0  0  0  0  0  0  0  0  0  0  0  0
   59.8759   29.1649   52.6036 H   0  0  0  0  0  0  0  0  0  0  0  0
   59.1653   28.2801   51.1752 H   0  0  0  0  0  0  0  0  0  0  0  0
   61.8385   28.2396   51.9186 H   0  0  0  0  0  0  0  0  0  0  0  0
   61.1712   27.8451   50.2803 H   0  0  0  0  0  0  0  0  0  0  0  0
  1  2  1  0
  2  3  2  0
  3  4  1  0
  4  5  2  3
  5  6  1  0
  6  7  2  0
  7  8  1  0
  8  9  2  0
  9 10  1  0
 10 11  1  0
 10 12  2  0
 10 13  2  0
  9 14  1  0
 14 15  2  0
  4 16  1  0
 16 17  2  0
 17 18  1  0
 18 19  2  0
 19 20  1  0
 20 21  1  0
 21 22  2  0
 21 23  1  0
 23 24  1  0
 24 25  1  0
 25 26  1  0
 26 27  1  0
 27 28  1  0
 28 29  1  0
 29 30  1  0
 30 31  1  0
 20 32  2  0
 32 33  1  0
 33  2  1  0
 15  6  1  0
 32 16  1  0
 31 26  1  0
  1 34  1  0
  1 35  1  0
  1 36  1  0
  3 37  1  0
  7 38  1  0
  8 39  1  0
 11 40  1  0
 14 41  1  0
 15 42  1  0
 17 43  1  0
 18 44  1  0
 19 45  1  0
 24 46  1  0
 24 47  1  0
 25 48  1  0
 25 49  1  0
 27 50  1  0
 27 51  1  0
 28 52  1  0
 28 53  1  0
 30 54  1  0
 30 55  1  0
 31 56  1  0
 31 57  1  0
M  CHG  3  11  -1  23  -1  33  -1
M  END
>  <UniqueID>  (45) 
38

>  <SMILES>  (45) 
Cc1cc(=Nc2ccc(S([NH-])(=O)=O)cc2)c2cccc(C(=O)[N-]CCN3CCOCC3)c2[n-]1

>  <Energy>  (45) 
85.43255421410622

>  <Genealogy>  (45) 
Cc1cc(=Nc2ccc(S([NH-])(=O)=O)cc2)c2cccc(C(=O)[N-]CCN3CCOCC3)c2[n-]1 (protonated)
Cc1cc(=Nc2ccc(S([NH-])(=O)=O)cc2)c2cccc(C(=O)[N-]CCN3CCOCC3)c2[n-]1 (3D coordinates assigned)
Cc1cc(=Nc2ccc(S([NH-])(=O)=O)cc2)c2cccc(C(=O)[N-]CCN3CCOCC3)c2[n-]1 (nonaromatic ring conformer: 85.43255421410622 kcal/mol)

>  <smiles>  (45) 
Cc1cc(=Nc2ccc(S(N)(=O)=O)cc2)c2cccc(C(=O)NCCN3CCOCC3)c2[nH]1

>  <score_type>  (45) 
oracle

>  <origin>  (45) 
adg

>  <m_score__min__energy>  (45) 
-13.25

>  <m_primary>  (45) 
energy

$$$$
45:0
     RDKit          3D

 39 41  0  0  0  0  0  0  0  0999 V2000
   56.6200   21.1650   47.8600 C   0  0  0  0  0  0  0  0  0  0  0  0
   57.1200   22.2750   47.1220 O   0  0  0  0  0  0  0  0  0  0  0  0
   56.8580   22.5120   45.7620 C   0  0  0  0  0  0  0  0  0  0  0  0
   57.3380   21.6510   44.7530 C   0  0  0  0  0  0  0  0  0  0  0  0
   57.0460   21.9030   43.4110 C   0  0  0  0  0  0  0  0  0  0  0  0
   56.2690   23.0070   43.0590 C   0  0  0  0  0  0  0  0  0  0  0  0
   55.7890   23.8690   44.0470 C   0  0  0  0  0  0  0  0  0  0  0  0
   56.0910   23.6400   45.4000 C   0  0  0  0  0  0  0  0  0  0  0  0
   55.5340   24.5610   46.4490 C   0  0  0  0  0  0  0  0  0  0  0  0
   55.6530   25.9420   45.9850 N   0  0  0  0  0  0  0  0  0  0  0  0
   57.3190   26.4330   46.0040 S   0  0  0  0  0  0  0  0  0  0  0  0
   57.8860   26.2050   47.3770 O   0  0  0  0  0  0  0  0  0  0  0  0
   58.0930   25.6110   45.0100 O   0  0  0  0  0  0  0  0  0  0  0  0
   57.4460   28.1450   45.6070 C   0  0  0  0  0  0  0  0  0  0  0  0
   58.0580   29.0370   46.4980 C   0  0  0  0  0  0  0  0  0  0  0  0
   58.1630   30.3920   46.1730 C   0  0  0  0  0  0  0  0  0  0  0  0
   57.6530   30.8660   44.9600 C   0  0  0  0  0  0  0  0  0  0  0  0
   57.0670   29.9710   44.0450 C   0  0  0  0  0  0  0  0  0  0  0  0
   56.9470   28.6160   44.3850 C   0  0  0  0  0  0  0  0  0  0  0  0
   56.6720   30.4170   42.7380 N   0  0  0  0  0  0  0  0  0  0  0  0
   57.2280   31.6010   42.1500 C   0  0  0  0  0  0  0  0  0  0  0  0
   56.8900   31.9370   40.9840 O   0  0  0  0  0  0  0  0  0  0  0  0
   58.2490   32.4090   42.8940 C   0  0  0  0  0  0  0  0  0  0  0  0
   57.6900   32.6300   44.6120 S   0  0  0  0  0  0  0  0  0  0  0  0
   56.7120   21.3693   48.9369 H   0  0  0  0  0  0  0  0  0  0  0  0
   55.5619   21.0029   47.6066 H   0  0  0  0  0  0  0  0  0  0  0  0
   57.1997   20.2651   47.6066 H   0  0  0  0  0  0  0  0  0  0  0  0
   57.9461   20.7757   45.0251 H   0  0  0  0  0  0  0  0  0  0  0  0
   57.4293   21.2299   42.6300 H   0  0  0  0  0  0  0  0  0  0  0  0
   56.0342   23.1986   42.0016 H   0  0  0  0  0  0  0  0  0  0  0  0
   55.1702   24.7333   43.7642 H   0  0  0  0  0  0  0  0  0  0  0  0
   54.4749   24.3214   46.6247 H   0  0  0  0  0  0  0  0  0  0  0  0
   56.0942   24.4358   47.3874 H   0  0  0  0  0  0  0  0  0  0  0  0
   58.4565   28.6697   47.4552 H   0  0  0  0  0  0  0  0  0  0  0  0
   58.6482   31.0879   46.8732 H   0  0  0  0  0  0  0  0  0  0  0  0
   56.4584   27.9187   43.6886 H   0  0  0  0  0  0  0  0  0  0  0  0
   56.0500   29.8120   42.1540 H   0  0  0  0  0  0  0  0  0  0  0  0
   59.2146   31.8822   42.8850 H   0  0  0  0  0  0  0  0  0  0  0  0
   58.3697   33.3907   42.4126 H   0  0  0  0  0  0  0  0  0  0  0  0
  1  2  1  0
  2  3  1  0
  3  4  2  0
  4  5  1  0
  5  6  2  0
  6  7  1  0
  7  8  2  0
  8  9  1  0
  9 10  1  0
 10 11  1  0
 11 12  2  0
 11 13  2  0
 11 14  1  0
 14 15  2  0
 15 16  1  0
 16 17  2  0
 17 18  1  0
 18 19  2  0
 18 20  1  0
 20 21  1  0
 21 22  2  0
 21 23  1  0
 23 24  1  0
  8  3  1  0
 19 14  1  0
 24 17  1  0
  1 25  1  0
  1 26  1  0
  1 27  1  0
  4 28  1  0
  5 29  1  0
  6 30  1  0
  7 31  1  0
  9 32  1  0
  9 33  1  0
 15 34  1  0
 16 35  1  0
 19 36  1  0
 20 37  1  0
 23 38  1  0
 23 39  1  0
M  CHG  1  10  -1
M  END
>  <UniqueID>  (46) 
39

>  <SMILES>  (46) 
COc1ccccc1C[N-]S(=O)(=O)c1ccc2c(c1)NC(=O)CS2

>  <Energy>  (46) 
41.886434761354444

>  <Genealogy>  (46) 
COc1ccccc1C[N-]S(=O)(=O)c1ccc2c(c1)NC(=O)CS2 (protonated)
COc1ccccc1C[N-]S(=O)(=O)c1ccc2c(c1)NC(=O)CS2 (3D coordinates assigned)
COc1ccccc1C[N-]S(=O)(=O)c1ccc2c(c1)NC(=O)CS2 (nonaromatic ring conformer: 41.886434761354444 kcal/mol)

>  <smiles>  (46) 
COc1ccccc1CNS(=O)(=O)c1ccc2c(c1)NC(=O)CS2

>  <score_type>  (46) 
oracle

>  <origin>  (46) 
adg

>  <m_score__min__energy>  (46) 
-9.7400000000000002

>  <m_primary>  (46) 
energy

$$$$
46:0
     RDKit          3D

 26 27  0  0  0  0  0  0  0  0999 V2000
   54.7120   26.3380   45.8000 O   0  0  0  0  0  0  0  0  0  0  0  0
   55.7100   25.7630   46.3060 C   0  0  0  0  0  0  0  0  0  0  0  0
   55.7330   24.3310   46.3610 N   0  0  0  0  0  0  0  0  0  0  0  0
   56.2860   23.4590   45.3640 C   0  0  0  0  0  0  0  0  0  0  0  0
   57.6330   23.0620   45.3880 C   0  0  0  0  0  0  0  0  0  0  0  0
   58.1260   22.2140   44.3950 C   0  0  0  0  0  0  0  0  0  0  0  0
   57.2740   21.7840   43.3770 C   0  0  0  0  0  0  0  0  0  0  0  0
   55.9790   22.1980   43.3540 N   0  0  0  0  0  0  0  0  0  0  0  0
   55.4750   23.0230   44.3110 C   0  0  0  0  0  0  0  0  0  0  0  0
   56.7890   26.5610   46.8100 N   0  0  0  0  0  0  0  0  0  0  0  0
   57.6830   27.3610   46.0220 C   0  0  0  0  0  0  0  0  0  0  0  0
   59.0740   27.1510   46.0520 C   0  0  0  0  0  0  0  0  0  0  0  0
   59.9220   27.9440   45.2760 C   0  0  0  0  0  0  0  0  0  0  0  0
   59.3950   28.9620   44.4780 C   0  0  0  0  0  0  0  0  0  0  0  0
   58.0160   29.1930   44.4600 C   0  0  0  0  0  0  0  0  0  0  0  0
   57.1580   28.3980   45.2350 C   0  0  0  0  0  0  0  0  0  0  0  0
   55.7830   28.6290   45.2180 O   0  0  0  0  0  0  0  0  0  0  0  0
   58.2983   23.4188   46.1880 H   0  0  0  0  0  0  0  0  0  0  0  0
   59.1763   21.8877   44.4147 H   0  0  0  0  0  0  0  0  0  0  0  0
   57.6500   21.1101   42.5931 H   0  0  0  0  0  0  0  0  0  0  0  0
   54.4257   23.3485   44.2566 H   0  0  0  0  0  0  0  0  0  0  0  0
   59.4950   26.3592   46.6891 H   0  0  0  0  0  0  0  0  0  0  0  0
   61.0075   27.7665   45.2933 H   0  0  0  0  0  0  0  0  0  0  0  0
   60.0647   29.5819   43.8638 H   0  0  0  0  0  0  0  0  0  0  0  0
   57.6029   29.9998   43.8368 H   0  0  0  0  0  0  0  0  0  0  0  0
   55.1460   28.0780   45.7800 H   0  0  0  0  0  0  0  0  0  0  0  0
  1  2  2  0
  2  3  1  0
  3  4  1  0
  4  5  2  0
  5  6  1  0
  6  7  2  0
  7  8  1  0
  8  9  2  0
  2 10  1  0
 10 11  1  0
 11 12  2  0
 12 13  1  0
 13 14  2  0
 14 15  1  0
 15 16  2  0
 16 17  1  0
  9  4  1  0
 16 11  1  0
  5 18  1  0
  6 19  1  0
  7 20  1  0
  9 21  1  0
 12 22  1  0
 13 23  1  0
 14 24  1  0
 15 25  1  0
 17 26  1  0
M  CHG  2   3  -1  10  -1
M  END
>  <UniqueID>  (47) 
40

>  <SMILES>  (47) 
O=C([N-]c1cccnc1)[N-]c1ccccc1O

>  <Energy>  (47) 
34.74523094575598

>  <Genealogy>  (47) 
O=C([N-]c1cccnc1)[N-]c1ccccc1O (protonated)
O=C([N-]c1cccnc1)[N-]c1ccccc1O (3D coordinates assigned)
O=C([N-]c1cccnc1)[N-]c1ccccc1O (optimized conformer: 34.74523094575598 kcal/mol)

>  <smiles>  (47) 
O=C(Nc1cccnc1)Nc1ccccc1O

>  <score_type>  (47) 
oracle

>  <origin>  (47) 
adg

>  <m_score__min__energy>  (47) 
-10.85

>  <m_primary>  (47) 
energy

$$$$
47:0
     RDKit          3D

 49 52  0  0  0  0  0  0  0  0999 V2000
   55.7160   25.5410   45.9850 C   0  0  0  0  0  0  0  0  0  0  0  0
   56.2670   26.7680   46.4470 O   0  0  0  0  0  0  0  0  0  0  0  0
   57.0580   27.6650   45.7020 C   0  0  0  0  0  0  0  0  0  0  0  0
   56.5120   28.7290   44.9360 C   0  0  0  0  0  0  0  0  0  0  0  0
   55.1440   28.9650   44.8800 O   0  0  0  0  0  0  0  0  0  0  0  0
   57.3550   29.5730   44.2060 C   0  0  0  0  0  0  0  0  0  0  0  0
   58.7340   29.3840   44.2280 C   0  0  0  0  0  0  0  0  0  0  0  0
   59.2860   28.3490   44.9790 C   0  0  0  0  0  0  0  0  0  0  0  0
   58.4600   27.4770   45.7100 C   0  0  0  0  0  0  0  0  0  0  0  0
   59.0790   26.3820   46.5030 C   0  0  0  0  0  0  0  0  0  0  0  0
   58.6180   25.2130   46.4110 O   0  0  0  0  0  0  0  0  0  0  0  0
   60.1430   26.6270   47.4330 N   0  0  0  0  0  0  0  0  0  0  0  0
   60.3380   27.8210   48.2050 C   0  0  0  0  0  0  0  0  0  0  0  0
   60.4390   27.7820   49.6230 C   0  0  0  0  0  0  0  0  0  0  0  0
   60.6320   28.9670   50.3590 C   0  0  0  0  0  0  0  0  0  0  0  0
   60.7010   30.1630   49.6530 C   0  0  0  0  0  0  0  0  0  0  0  0
   60.8870   31.3970   50.1440 N   0  0  0  0  0  0  0  0  0  0  0  0
   60.8730   32.1650   49.0200 C   0  0  0  0  0  0  0  0  0  0  0  0
   61.0610   33.5920   49.0520 N   0  0  0  0  0  0  0  0  0  0  0  0
   62.3980   34.1350   49.3100 C   0  0  0  0  0  0  0  0  0  0  0  0
   59.9210   34.5000   48.8720 C   0  0  0  0  0  0  0  0  0  0  0  0
   59.2560   34.2460   47.5470 C   0  0  0  0  0  0  0  0  0  0  0  0
   58.1880   33.3370   47.4560 C   0  0  0  0  0  0  0  0  0  0  0  0
   57.5840   33.0810   46.2210 C   0  0  0  0  0  0  0  0  0  0  0  0
   58.0480   33.7220   45.0680 C   0  0  0  0  0  0  0  0  0  0  0  0
   59.1170   34.6180   45.1480 C   0  0  0  0  0  0  0  0  0  0  0  0
   59.7220   34.8800   46.3810 C   0  0  0  0  0  0  0  0  0  0  0  0
   60.6910   31.4710   47.8650 N   0  0  0  0  0  0  0  0  0  0  0  0
   60.5830   30.2080   48.2990 C   0  0  0  0  0  0  0  0  0  0  0  0
   60.3910   29.0590   47.5360 C   0  0  0  0  0  0  0  0  0  0  0  0
   55.4359   24.9173   46.8467 H   0  0  0  0  0  0  0  0  0  0  0  0
   54.8236   25.7462   45.3755 H   0  0  0  0  0  0  0  0  0  0  0  0
   56.4623   25.0104   45.3755 H   0  0  0  0  0  0  0  0  0  0  0  0
   56.9254   30.3919   43.6103 H   0  0  0  0  0  0  0  0  0  0  0  0
   59.3890   30.0534   43.6511 H   0  0  0  0  0  0  0  0  0  0  0  0
   60.3773   28.2126   45.0004 H   0  0  0  0  0  0  0  0  0  0  0  0
   60.3658   26.8187   50.1490 H   0  0  0  0  0  0  0  0  0  0  0  0
   60.7250   28.9472   51.4549 H   0  0  0  0  0  0  0  0  0  0  0  0
   62.5633   34.2021   50.3954 H   0  0  0  0  0  0  0  0  0  0  0  0
   63.1549   33.4730   48.8641 H   0  0  0  0  0  0  0  0  0  0  0  0
   62.4790   35.1373   48.8641 H   0  0  0  0  0  0  0  0  0  0  0  0
   59.1939   34.3344   49.6807 H   0  0  0  0  0  0  0  0  0  0  0  0
   60.2829   35.5384   48.8977 H   0  0  0  0  0  0  0  0  0  0  0  0
   57.8258   32.8250   48.3597 H   0  0  0  0  0  0  0  0  0  0  0  0
   56.7431   32.3748   46.1564 H   0  0  0  0  0  0  0  0  0  0  0  0
   57.5710   33.5206   44.0975 H   0  0  0  0  0  0  0  0  0  0  0  0
   59.4833   35.1182   44.2394 H   0  0  0  0  0  0  0  0  0  0  0  0
   60.5651   35.5842   46.4394 H   0  0  0  0  0  0  0  0  0  0  0  0
   60.2839   29.1168   46.4428 H   0  0  0  0  0  0  0  0  0  0  0  0
  1  2  1  0
  2  3  1  0
  3  4  2  0
  4  5  1  0
  4  6  1  0
  6  7  2  0
  7  8  1  0
  8  9  2  0
  9 10  1  0
 10 11  2  0
 10 12  1  0
 12 13  1  0
 13 14  2  0
 14 15  1  0
 15 16  2  0
 16 17  1  0
 17 18  1  0
 18 19  1  0
 19 20  1  0
 19 21  1  0
 21 22  1  0
 22 23  2  0
 23 24  1  0
 24 25  2  0
 25 26  1  0
 26 27  2  0
 18 28  2  0
 28 29  1  0
 29 30  2  0
  9  3  1  0
 30 13  1  0
 29 16  1  0
 27 22  1  0
  1 31  1  0
  1 32  1  0
  1 33  1  0
  6 34  1  0
  7 35  1  0
  8 36  1  0
 14 37  1  0
 15 38  1  0
 20 39  1  0
 20 40  1  0
 20 41  1  0
 21 42  1  0
 21 43  1  0
 23 44  1  0
 24 45  1  0
 25 46  1  0
 26 47  1  0
 27 48  1  0
 30 49  1  0
M  CHG  3   5  -1  12  -1  17  -1
M  END
>  <UniqueID>  (48) 
41

>  <SMILES>  (48) 
COc1c([O-])cccc1C(=O)[N-]c1ccc2[n-]c(N(C)Cc3ccccc3)nc2c1

>  <Energy>  (48) 
95.30080420489578

>  <Genealogy>  (48) 
COc1c([O-])cccc1C(=O)[N-]c1ccc2[n-]c(N(C)Cc3ccccc3)nc2c1 (protonated)
COc1c([O-])cccc1C(=O)[N-]c1ccc2[n-]c(N(C)Cc3ccccc3)nc2c1 (3D coordinates assigned)
COc1c([O-])cccc1C(=O)[N-]c1ccc2[n-]c(N(C)Cc3ccccc3)nc2c1 (optimized conformer: 95.30080420489578 kcal/mol)

>  <smiles>  (48) 
COc1c(O)cccc1C(=O)Nc1ccc2[nH]c(N(C)Cc3ccccc3)nc2c1

>  <score_type>  (48) 
oracle

>  <origin>  (48) 
adg

>  <m_score__min__energy>  (48) 
-14.380000000000001

>  <m_primary>  (48) 
energy

$$$$
48:0
     RDKit          3D

 50 52  0  0  0  0  0  0  0  0999 V2000
   56.1660   22.6770   45.1100 C   0  0  0  0  0  0  0  0  0  0  0  0
   56.8760   23.9030   45.6180 C   0  0  0  0  0  0  0  0  0  0  0  0
   56.1320   25.0000   46.0830 C   0  0  0  0  0  0  0  0  0  0  0  0
   56.7770   26.1450   46.5530 C   0  0  0  0  0  0  0  0  0  0  0  0
   58.1780   26.2270   46.5530 C   0  0  0  0  0  0  0  0  0  0  0  0
   58.8120   27.4110   47.0720 N   0  0  0  0  0  0  0  0  0  0  0  0
   59.9600   27.4010   47.9400 C   0  0  0  0  0  0  0  0  0  0  0  0
   60.7650   26.4270   47.9020 O   0  0  0  0  0  0  0  0  0  0  0  0
   60.2410   28.5520   48.8370 C   0  0  0  0  0  0  0  0  0  0  0  0
   61.0860   28.4020   49.9520 C   0  0  0  0  0  0  0  0  0  0  0  0
   61.3460   29.4840   50.7970 C   0  0  0  0  0  0  0  0  0  0  0  0
   60.7770   30.7320   50.5400 C   0  0  0  0  0  0  0  0  0  0  0  0
   61.0500   31.7940   51.3970 O   0  0  0  0  0  0  0  0  0  0  0  0
   59.9410   30.9060   49.4250 C   0  0  0  0  0  0  0  0  0  0  0  0
   59.2240   32.4870   49.1110 S   0  0  0  0  0  0  0  0  0  0  0  0
   59.6540   33.4900   50.1430 O   0  0  0  0  0  0  0  0  0  0  0  0
   57.7300   32.3410   49.1550 O   0  0  0  0  0  0  0  0  0  0  0  0
   59.7530   33.0160   47.5440 N   0  0  0  0  0  0  0  0  0  0  0  0
   59.1170   32.6840   46.3020 C   0  0  0  0  0  0  0  0  0  0  0  0
   59.1950   33.5990   45.2460 C   0  0  0  0  0  0  0  0  0  0  0  0
   58.6160   33.3020   44.0100 C   0  0  0  0  0  0  0  0  0  0  0  0
   57.9280   32.0900   43.8120 C   0  0  0  0  0  0  0  0  0  0  0  0
   57.3160   31.8150   42.4600 C   0  0  0  0  0  0  0  0  0  0  0  0
   57.7810   31.1900   44.9000 C   0  0  0  0  0  0  0  0  0  0  0  0
   56.8530   29.6810   44.7470 S   0  0  0  0  0  0  0  0  0  0  0  0
   55.1810   30.0520   44.5090 N   0  0  0  0  0  0  0  0  0  0  0  0
   57.3480   28.8810   43.5710 O   0  0  0  0  0  0  0  0  0  0  0  0
   57.0160   28.8490   45.9900 O   0  0  0  0  0  0  0  0  0  0  0  0
   58.3900   31.4940   46.1330 C   0  0  0  0  0  0  0  0  0  0  0  0
   59.6800   29.8170   48.5760 C   0  0  0  0  0  0  0  0  0  0  0  0
   58.9260   25.1290   46.0900 C   0  0  0  0  0  0  0  0  0  0  0  0
   58.2850   23.9760   45.6200 C   0  0  0  0  0  0  0  0  0  0  0  0
   59.2760   22.6400   45.0460 Cl  0  0  0  0  0  0  0  0  0  0  0  0
   55.8176   22.0754   45.9625 H   0  0  0  0  0  0  0  0  0  0  0  0
   55.3035   22.9799   44.4981 H   0  0  0  0  0  0  0  0  0  0  0  0
   56.8580   22.0797   44.4981 H   0  0  0  0  0  0  0  0  0  0  0  0
   55.0329   24.9563   46.0767 H   0  0  0  0  0  0  0  0  0  0  0  0
   56.1817   26.9910   46.9269 H   0  0  0  0  0  0  0  0  0  0  0  0
   58.4910   28.3360   46.7030 H   0  0  0  0  0  0  0  0  0  0  0  0
   61.5458   27.4247   50.1602 H   0  0  0  0  0  0  0  0  0  0  0  0
   62.0027   29.3513   51.6694 H   0  0  0  0  0  0  0  0  0  0  0  0
   59.7152   34.5575   45.3901 H   0  0  0  0  0  0  0  0  0  0  0  0
   58.6985   34.0226   43.1830 H   0  0  0  0  0  0  0  0  0  0  0  0
   56.3200   31.3674   42.5926 H   0  0  0  0  0  0  0  0  0  0  0  0
   57.2229   32.7578   41.9010 H   0  0  0  0  0  0  0  0  0  0  0  0
   57.9591   31.1193   41.9010 H   0  0  0  0  0  0  0  0  0  0  0  0
   54.6390   29.3550   45.0660 H   0  0  0  0  0  0  0  0  0  0  0  0
   58.2952   30.7911   46.9738 H   0  0  0  0  0  0  0  0  0  0  0  0
   59.0309   29.9541   47.6986 H   0  0  0  0  0  0  0  0  0  0  0  0
   60.0249   25.1767   46.0973 H   0  0  0  0  0  0  0  0  0  0  0  0
  1  2  1  0
  2  3  2  0
  3  4  1  0
  4  5  2  0
  5  6  1  0
  6  7  1  0
  7  8  2  0
  7  9  1  0
  9 10  2  0
 10 11  1  0
 11 12  2  0
 12 13  1  0
 12 14  1  0
 14 15  1  0
 15 16  2  0
 15 17  2  0
 15 18  1  0
 18 19  1  0
 19 20  2  0
 20 21  1  0
 21 22  2  0
 22 23  1  0
 22 24  1  0
 24 25  1  0
 25 26  1  0
 25 27  2  0
 25 28  2  0
 24 29  2  0
 14 30  2  0
  5 31  1  0
 31 32  2  0
 32 33  1  0
 32  2  1  0
 30  9  1  0
 29 19  1  0
  1 34  1  0
  1 35  1  0
  1 36  1  0
  3 37  1  0
  4 38  1  0
  6 39  1  0
 10 40  1  0
 11 41  1  0
 20 42  1  0
 21 43  1  0
 23 44  1  0
 23 45  1  0
 23 46  1  0
 26 47  1  0
 29 48  1  0
 30 49  1  0
 31 50  1  0
M  CHG  3  13  -1  18  -1  26  -1
M  END
>  <UniqueID>  (49) 
42

>  <SMILES>  (49) 
Cc1ccc(NC(=O)c2ccc([O-])c(S(=O)(=O)[N-]c3ccc(C)c(S([NH-])(=O)=O)c3)c2)cc1Cl

>  <Energy>  (49) 
67.79270694200059

>  <Genealogy>  (49) 
Cc1ccc(NC(=O)c2ccc([O-])c(S(=O)(=O)[N-]c3ccc(C)c(S([NH-])(=O)=O)c3)c2)cc1Cl (protonated)
Cc1ccc(NC(=O)c2ccc([O-])c(S(=O)(=O)[N-]c3ccc(C)c(S([NH-])(=O)=O)c3)c2)cc1Cl (3D coordinates assigned)
Cc1ccc(NC(=O)c2ccc([O-])c(S(=O)(=O)[N-]c3ccc(C)c(S([NH-])(=O)=O)c3)c2)cc1Cl (optimized conformer: 67.79270694200059 kcal/mol)

>  <smiles>  (49) 
Cc1ccc(NC(=O)c2ccc(O)c(S(=O)(=O)Nc3ccc(C)c(S(N)(=O)=O)c3)c2)cc1Cl

>  <score_type>  (49) 
oracle

>  <origin>  (49) 
adg

>  <m_score__min__energy>  (49) 
-14.529999999999999

>  <m_primary>  (49) 
energy

$$$$
49:0
     RDKit          3D

 46 47  0  0  0  0  0  0  0  0999 V2000
   56.9360   24.5290   43.7500 C   0  0  0  0  0  0  0  0  0  0  0  0
   56.1420   24.1900   45.0230 C   0  0  0  0  0  0  0  0  0  0  0  0
   56.8270   23.0250   45.7590 C   0  0  0  0  0  0  0  0  0  0  0  0
   54.7100   23.7810   44.6400 C   0  0  0  0  0  0  0  0  0  0  0  0
   56.0750   25.6360   46.1010 S   0  0  0  0  0  0  0  0  0  0  0  0
   54.7270   26.2900   45.9770 O   0  0  0  0  0  0  0  0  0  0  0  0
   56.2400   25.2030   47.5320 O   0  0  0  0  0  0  0  0  0  0  0  0
   57.3420   26.8100   45.6890 C   0  0  0  0  0  0  0  0  0  0  0  0
   58.6990   26.5010   45.9130 C   0  0  0  0  0  0  0  0  0  0  0  0
   59.0730   25.2730   46.4470 O   0  0  0  0  0  0  0  0  0  0  0  0
   59.6910   27.4360   45.6120 C   0  0  0  0  0  0  0  0  0  0  0  0
   59.3510   28.6770   45.0770 C   0  0  0  0  0  0  0  0  0  0  0  0
   58.0150   28.9960   44.8210 C   0  0  0  0  0  0  0  0  0  0  0  0
   57.7140   30.2900   44.2790 N   0  0  0  0  0  0  0  0  0  0  0  0
   56.6440   31.1370   44.7070 C   0  0  0  0  0  0  0  0  0  0  0  0
   55.4460   30.7990   44.5060 O   0  0  0  0  0  0  0  0  0  0  0  0
   56.9540   32.4150   45.2740 N   0  0  0  0  0  0  0  0  0  0  0  0
   58.1650   32.7720   45.9540 C   0  0  0  0  0  0  0  0  0  0  0  0
   58.7850   34.0210   45.7690 C   0  0  0  0  0  0  0  0  0  0  0  0
   59.9530   34.3390   46.4690 C   0  0  0  0  0  0  0  0  0  0  0  0
   60.5130   33.4250   47.3700 C   0  0  0  0  0  0  0  0  0  0  0  0
   61.7130   33.7930   48.0640 N   0  0  0  0  0  0  0  0  0  0  0  0
   63.3230   33.4420   47.5280 S   0  0  0  0  0  0  0  0  0  0  0  0
   63.4670   31.7590   47.1640 N   0  0  0  0  0  0  0  0  0  0  0  0
   63.6100   34.2390   46.2870 O   0  0  0  0  0  0  0  0  0  0  0  0
   64.3100   33.8230   48.5950 O   0  0  0  0  0  0  0  0  0  0  0  0
   59.8800   32.1860   47.5730 C   0  0  0  0  0  0  0  0  0  0  0  0
   58.7110   31.8700   46.8750 C   0  0  0  0  0  0  0  0  0  0  0  0
   57.0020   28.0740   45.1620 C   0  0  0  0  0  0  0  0  0  0  0  0
   55.6650   28.4290   45.0150 O   0  0  0  0  0  0  0  0  0  0  0  0
   57.9147   24.9468   44.0287 H   0  0  0  0  0  0  0  0  0  0  0  0
   57.0833   23.6153   43.1555 H   0  0  0  0  0  0  0  0  0  0  0  0
   56.3779   25.2673   43.1555 H   0  0  0  0  0  0  0  0  0  0  0  0
   56.7388   23.1750   46.8451 H   0  0  0  0  0  0  0  0  0  0  0  0
   56.3417   22.0784   45.4790 H   0  0  0  0  0  0  0  0  0  0  0  0
   57.8901   22.9889   45.4790 H   0  0  0  0  0  0  0  0  0  0  0  0
   54.1202   23.6125   45.5531 H   0  0  0  0  0  0  0  0  0  0  0  0
   54.2461   24.5826   44.0465 H   0  0  0  0  0  0  0  0  0  0  0  0
   54.7394   22.8553   44.0465 H   0  0  0  0  0  0  0  0  0  0  0  0
   60.7472   27.1917   45.7982 H   0  0  0  0  0  0  0  0  0  0  0  0
   60.1399   29.4106   44.8547 H   0  0  0  0  0  0  0  0  0  0  0  0
   58.3492   34.7507   45.0707 H   0  0  0  0  0  0  0  0  0  0  0  0
   60.4356   35.3147   46.3106 H   0  0  0  0  0  0  0  0  0  0  0  0
   64.4740   31.5780   46.9550 H   0  0  0  0  0  0  0  0  0  0  0  0
   60.3063   31.4628   48.2837 H   0  0  0  0  0  0  0  0  0  0  0  0
   58.2155   30.9038   47.0509 H   0  0  0  0  0  0  0  0  0  0  0  0
  1  2  1  0
  2  3  1  0
  2  4  1  0
  2  5  1  0
  5  6  2  0
  5  7  2  0
  5  8  1  0
  8  9  2  0
  9 10  1  0
  9 11  1  0
 11 12  2  0
 12 13  1  0
 13 14  1  0
 14 15  1  0
 15 16  2  0
 15 17  1  0
 17 18  1  0
 18 19  2  0
 19 20  1  0
 20 21  2  0
 21 22  1  0
 22 23  1  0
 23 24  1  0
 23 25  2  0
 23 26  2  0
 21 27  1  0
 27 28  2  0
 13 29  2  0
 29 30  1  0
 29  8  1  0
 28 18  1  0
  1 31  1  0
  1 32  1  0
  1 33  1  0
  3 34  1  0
  3 35  1  0
  3 36  1  0
  4 37  1  0
  4 38  1  0
  4 39  1  0
 11 40  1  0
 12 41  1  0
 19 42  1  0
 20 43  1  0
 24 44  1  0
 27 45  1  0
 28 46  1  0
M  CHG  6  10  -1  14  -1  17  -1  22  -1  24  -1  30  -1
M  END
>  <UniqueID>  (50) 
43

>  <SMILES>  (50) 
CC(C)(C)S(=O)(=O)c1c([O-])ccc([N-]C(=O)[N-]c2ccc([N-]S([NH-])(=O)=O)cc2)c1[O-]

>  <Energy>  (50) 
50.069039649991

>  <Genealogy>  (50) 
CC(C)(C)S(=O)(=O)c1c([O-])ccc([N-]C(=O)[N-]c2ccc([N-]S([NH-])(=O)=O)cc2)c1[O-] (protonated)
CC(C)(C)S(=O)(=O)c1c([O-])ccc([N-]C(=O)[N-]c2ccc([N-]S([NH-])(=O)=O)cc2)c1[O-] (3D coordinates assigned)
CC(C)(C)S(=O)(=O)c1c([O-])ccc([N-]C(=O)[N-]c2ccc([N-]S([NH-])(=O)=O)cc2)c1[O-] (optimized conformer: 50.069039649991 kcal/mol)

>  <smiles>  (50) 
CC(C)(C)S(=O)(=O)c1c(O)ccc(NC(=O)Nc2ccc(NS(N)(=O)=O)cc2)c1O

>  <score_type>  (50) 
oracle

>  <origin>  (50) 
adg

>  <m_score__min__energy>  (50) 
-18.879999999999999

>  <m_primary>  (50) 
energy

$$$$
50:0
     RDKit          3D

 39 41  0  0  0  0  0  0  0  0999 V2000
   64.1450   33.5520   48.0830 C   0  0  0  0  0  0  0  0  0  0  0  0
   62.7690   33.7270   48.5630 N   0  0  0  0  0  0  0  0  0  0  0  0
   62.5280   34.5930   49.7240 C   0  0  0  0  0  0  0  0  0  0  0  0
   61.6650   33.0530   47.9030 C   0  0  0  0  0  0  0  0  0  0  0  0
   60.3940   33.6580   47.8160 C   0  0  0  0  0  0  0  0  0  0  0  0
   59.3330   33.0060   47.1850 C   0  0  0  0  0  0  0  0  0  0  0  0
   59.5080   31.7300   46.6320 C   0  0  0  0  0  0  0  0  0  0  0  0
   58.3810   31.0320   45.9680 C   0  0  0  0  0  0  0  0  0  0  0  0
   57.5900   31.7320   45.0450 C   0  0  0  0  0  0  0  0  0  0  0  0
   56.5010   31.1440   44.4890 N   0  0  0  0  0  0  0  0  0  0  0  0
   56.1570   29.8720   44.8070 C   0  0  0  0  0  0  0  0  0  0  0  0
   55.1400   29.3460   44.2870 O   0  0  0  0  0  0  0  0  0  0  0  0
   56.9130   29.1610   45.6830 N   0  0  0  0  0  0  0  0  0  0  0  0
   58.0220   29.6950   46.2640 C   0  0  0  0  0  0  0  0  0  0  0  0
   58.8200   28.8330   47.1650 C   0  0  0  0  0  0  0  0  0  0  0  0
   59.4360   27.6770   46.6590 C   0  0  0  0  0  0  0  0  0  0  0  0
   60.1990   26.8580   47.4980 C   0  0  0  0  0  0  0  0  0  0  0  0
   60.3670   27.1950   48.8470 C   0  0  0  0  0  0  0  0  0  0  0  0
   61.1230   26.3860   49.6930 O   0  0  0  0  0  0  0  0  0  0  0  0
   59.7730   28.3560   49.3510 C   0  0  0  0  0  0  0  0  0  0  0  0
   59.0100   29.1760   48.5150 C   0  0  0  0  0  0  0  0  0  0  0  0
   60.7720   31.1260   46.6990 C   0  0  0  0  0  0  0  0  0  0  0  0
   61.8350   31.7760   47.3300 C   0  0  0  0  0  0  0  0  0  0  0  0
   64.8252   33.4655   48.9432 H   0  0  0  0  0  0  0  0  0  0  0  0
   64.2072   32.6387   47.4731 H   0  0  0  0  0  0  0  0  0  0  0  0
   64.4338   34.4206   47.4731 H   0  0  0  0  0  0  0  0  0  0  0  0
   62.6877   34.0192   50.6488 H   0  0  0  0  0  0  0  0  0  0  0  0
   63.2232   35.4451   49.6965 H   0  0  0  0  0  0  0  0  0  0  0  0
   61.4926   34.9635   49.6965 H   0  0  0  0  0  0  0  0  0  0  0  0
   60.2367   34.6561   48.2508 H   0  0  0  0  0  0  0  0  0  0  0  0
   58.3512   33.4979   47.1213 H   0  0  0  0  0  0  0  0  0  0  0  0
   57.8542   32.7639   44.7703 H   0  0  0  0  0  0  0  0  0  0  0  0
   59.3180   27.4141   45.5974 H   0  0  0  0  0  0  0  0  0  0  0  0
   60.6681   25.9473   47.0974 H   0  0  0  0  0  0  0  0  0  0  0  0
   61.3390   26.6670   50.6420 H   0  0  0  0  0  0  0  0  0  0  0  0
   59.9066   28.6250   50.4092 H   0  0  0  0  0  0  0  0  0  0  0  0
   58.5559   30.0944   48.9154 H   0  0  0  0  0  0  0  0  0  0  0  0
   60.9273   30.1333   46.2514 H   0  0  0  0  0  0  0  0  0  0  0  0
   62.8181   31.2851   47.3806 H   0  0  0  0  0  0  0  0  0  0  0  0
  1  2  1  0
  2  3  1  0
  2  4  1  0
  4  5  2  0
  5  6  1  0
  6  7  2  0
  7  8  1  0
  8  9  1  0
  9 10  2  0
 10 11  1  0
 11 12  2  0
 11 13  1  0
 13 14  1  0
 14 15  1  0
 15 16  2  0
 16 17  1  0
 17 18  2  0
 18 19  1  0
 18 20  1  0
 20 21  2  0
  7 22  1  0
 22 23  2  0
 23  4  1  0
 14  8  2  0
 21 15  1  0
  1 24  1  0
  1 25  1  0
  1 26  1  0
  3 27  1  0
  3 28  1  0
  3 29  1  0
  5 30  1  0
  6 31  1  0
  9 32  1  0
 16 33  1  0
 17 34  1  0
 19 35  1  0
 20 36  1  0
 21 37  1  0
 22 38  1  0
 23 39  1  0
M  CHG  1  13  -1
M  END
>  <UniqueID>  (51) 
44

>  <SMILES>  (51) 
CN(C)c1ccc(-c2cnc(=O)[n-]c2-c2ccc(O)cc2)cc1

>  <Energy>  (51) 
55.62216182710088

>  <Genealogy>  (51) 
CN(C)c1ccc(-c2cnc(=O)[n-]c2-c2ccc(O)cc2)cc1 (protonated)
CN(C)c1ccc(-c2cnc(=O)[n-]c2-c2ccc(O)cc2)cc1 (3D coordinates assigned)
CN(C)c1ccc(-c2cnc(=O)[n-]c2-c2ccc(O)cc2)cc1 (optimized conformer: 55.62216182710088 kcal/mol)

>  <smiles>  (51) 
CN(C)c1ccc(-c2cnc(=O)[nH]c2-c2ccc(O)cc2)cc1

>  <score_type>  (51) 
oracle

>  <origin>  (51) 
adg

>  <m_score__min__energy>  (51) 
-8.3100000000000005

>  <m_primary>  (51) 
energy

$$$$
51:0
     RDKit          3D

 34 35  0  0  0  0  0  0  0  0999 V2000
   55.1420   29.3350   44.8710 N   0  0  0  0  0  0  0  0  0  0  0  0
   56.7360   29.5860   44.2530 S   0  0  0  0  0  0  0  0  0  0  0  0
   57.5690   28.3620   44.5100 O   0  0  0  0  0  0  0  0  0  0  0  0
   56.6690   29.8230   42.7710 O   0  0  0  0  0  0  0  0  0  0  0  0
   57.4600   30.9810   45.0480 C   0  0  0  0  0  0  0  0  0  0  0  0
   57.0030   32.2730   44.7620 C   0  0  0  0  0  0  0  0  0  0  0  0
   57.6010   33.3790   45.3710 C   0  0  0  0  0  0  0  0  0  0  0  0
   58.6530   33.2000   46.2720 C   0  0  0  0  0  0  0  0  0  0  0  0
   59.1110   31.9110   46.5820 C   0  0  0  0  0  0  0  0  0  0  0  0
   60.2140   31.7560   47.4920 N   0  0  0  0  0  0  0  0  0  0  0  0
   61.4430   32.4930   47.4030 C   0  0  0  0  0  0  0  0  0  0  0  0
   61.7040   33.1690   46.3710 O   0  0  0  0  0  0  0  0  0  0  0  0
   62.3830   32.4310   48.4870 N   0  0  0  0  0  0  0  0  0  0  0  0
   63.6910   33.0300   48.4450 C   0  0  0  0  0  0  0  0  0  0  0  0
   64.1780   33.4010   47.3410 O   0  0  0  0  0  0  0  0  0  0  0  0
   64.4970   33.1890   49.6800 C   0  0  0  0  0  0  0  0  0  0  0  0
   63.9420   33.8220   50.8080 C   0  0  0  0  0  0  0  0  0  0  0  0
   64.6920   33.9700   51.9790 C   0  0  0  0  0  0  0  0  0  0  0  0
   65.9990   33.4830   52.0400 C   0  0  0  0  0  0  0  0  0  0  0  0
   66.5580   32.8420   50.9330 C   0  0  0  0  0  0  0  0  0  0  0  0
   65.8130   32.6920   49.7580 C   0  0  0  0  0  0  0  0  0  0  0  0
   58.5220   30.8030   45.9470 C   0  0  0  0  0  0  0  0  0  0  0  0
   55.2170   28.6200   45.6280 H   0  0  0  0  0  0  0  0  0  0  0  0
   56.1715   32.4176   44.0565 H   0  0  0  0  0  0  0  0  0  0  0  0
   57.2425   34.3930   45.1404 H   0  0  0  0  0  0  0  0  0  0  0  0
   59.1254   34.0755   46.7415 H   0  0  0  0  0  0  0  0  0  0  0  0
   60.1550   30.9980   48.2110 H   0  0  0  0  0  0  0  0  0  0  0  0
   62.1040   31.8900   49.3350 H   0  0  0  0  0  0  0  0  0  0  0  0
   62.9109   34.2030   50.7682 H   0  0  0  0  0  0  0  0  0  0  0  0
   64.2514   34.4710   52.8536 H   0  0  0  0  0  0  0  0  0  0  0  0
   66.5885   33.6044   52.9607 H   0  0  0  0  0  0  0  0  0  0  0  0
   67.5860   32.4541   50.9845 H   0  0  0  0  0  0  0  0  0  0  0  0
   66.2575   32.1830   48.8901 H   0  0  0  0  0  0  0  0  0  0  0  0
   58.8965   29.7902   46.1567 H   0  0  0  0  0  0  0  0  0  0  0  0
  1  2  1  0
  2  3  2  0
  2  4  2  0
  2  5  1  0
  5  6  2  0
  6  7  1  0
  7  8  2  0
  8  9  1  0
  9 10  1  0
 10 11  1  0
 11 12  2  0
 11 13  1  0
 13 14  1  0
 14 15  2  0
 14 16  1  0
 16 17  2  0
 17 18  1  0
 18 19  2  0
 19 20  1  0
 20 21  2  0
  9 22  2  0
 22  5  1  0
 21 16  1  0
  1 23  1  0
  6 24  1  0
  7 25  1  0
  8 26  1  0
 10 27  1  0
 13 28  1  0
 17 29  1  0
 18 30  1  0
 19 31  1  0
 20 32  1  0
 21 33  1  0
 22 34  1  0
M  CHG  1   1  -1
M  END
>  <UniqueID>  (52) 
45

>  <SMILES>  (52) 
[NH-]S(=O)(=O)c1cccc(NC(=O)NC(=O)c2ccccc2)c1

>  <Energy>  (52) 
40.258260481610364

>  <Genealogy>  (52) 
[NH-]S(=O)(=O)c1cccc(NC(=O)NC(=O)c2ccccc2)c1 (protonated)
[NH-]S(=O)(=O)c1cccc(NC(=O)NC(=O)c2ccccc2)c1 (3D coordinates assigned)
[NH-]S(=O)(=O)c1cccc(NC(=O)NC(=O)c2ccccc2)c1 (optimized conformer: 40.258260481610364 kcal/mol)

>  <smiles>  (52) 
NS(=O)(=O)c1cccc(NC(=O)NC(=O)c2ccccc2)c1

>  <score_type>  (52) 
oracle

>  <origin>  (52) 
adg

>  <m_score__min__energy>  (52) 
-10.84

>  <m_primary>  (52) 
energy

$$$$
52:0
     RDKit          3D

 50 52  0  0  0  0  0  0  0  0999 V2000
   55.3259   28.8887   43.2189 H   0  0  0  0  0  0  0  0  0  0  0  0
   55.9440   29.7830   43.3870 C   0  0  0  0  0  0  0  0  0  0  0  0
   56.0750   30.3580   44.6120 N   0  0  0  0  0  0  0  0  0  0  0  0
   56.8750   31.4430   44.5740 C   0  0  0  0  0  0  0  0  0  0  0  0
   57.1190   32.1540   45.6390 N   0  0  0  0  0  0  0  0  0  0  0  0
   57.7390   33.4500   45.7080 C   0  0  0  0  0  0  0  0  0  0  0  0
   57.2110   34.4480   45.1470 O   0  0  0  0  0  0  0  0  0  0  0  0
   59.0100   33.6170   46.4520 C   0  0  0  0  0  0  0  0  0  0  0  0
   60.2360   33.7060   45.7630 C   0  0  0  0  0  0  0  0  0  0  0  0
   60.2496   33.6547   44.6643 H   0  0  0  0  0  0  0  0  0  0  0  0
   61.4350   33.8590   46.4650 C   0  0  0  0  0  0  0  0  0  0  0  0
   62.3865   33.9269   45.9173 H   0  0  0  0  0  0  0  0  0  0  0  0
   61.4280   33.9260   47.8610 C   0  0  0  0  0  0  0  0  0  0  0  0
   62.9690   34.1050   48.7670 S   0  0  0  0  0  0  0  0  0  0  0  0
   63.5280   32.3830   48.4970 C   0  0  0  0  0  0  0  0  0  0  0  0
   64.5277   32.2585   48.9387 H   0  0  0  0  0  0  0  0  0  0  0  0
   63.5518   32.1941   47.4136 H   0  0  0  0  0  0  0  0  0  0  0  0
   62.5880   31.3920   49.1280 C   0  0  0  0  0  0  0  0  0  0  0  0
   62.8240   30.9190   50.4280 C   0  0  0  0  0  0  0  0  0  0  0  0
   63.6768   31.3061   51.0050 H   0  0  0  0  0  0  0  0  0  0  0  0
   61.9820   29.9600   50.9920 C   0  0  0  0  0  0  0  0  0  0  0  0
   62.1692   29.5976   52.0136 H   0  0  0  0  0  0  0  0  0  0  0  0
   60.9010   29.4590   50.2610 C   0  0  0  0  0  0  0  0  0  0  0  0
   60.2427   28.7008   50.7102 H   0  0  0  0  0  0  0  0  0  0  0  0
   60.6490   29.9170   48.9560 C   0  0  0  0  0  0  0  0  0  0  0  0
   59.5350   29.3500   48.1610 C   0  0  0  0  0  0  0  0  0  0  0  0
   58.5360   30.0640   47.8680 O   0  0  0  0  0  0  0  0  0  0  0  0
   59.5870   27.9860   47.7260 N   0  0  0  0  0  0  0  0  0  0  0  0
   60.3320   27.5340   46.5570 C   0  0  0  0  0  0  0  0  0  0  0  0
   59.7386   26.7743   46.0272 H   0  0  0  0  0  0  0  0  0  0  0  0
   61.2897   27.1153   46.8998 H   0  0  0  0  0  0  0  0  0  0  0  0
   60.6310   28.6930   45.5950 C   0  0  0  0  0  0  0  0  0  0  0  0
   61.4177   28.3709   44.8969 H   0  0  0  0  0  0  0  0  0  0  0  0
   60.9418   29.5500   46.2105 H   0  0  0  0  0  0  0  0  0  0  0  0
   59.4060   29.1480   44.7730 C   0  0  0  0  0  0  0  0  0  0  0  0
   59.2889   28.4739   43.9117 H   0  0  0  0  0  0  0  0  0  0  0  0
   59.5844   30.1852   44.4532 H   0  0  0  0  0  0  0  0  0  0  0  0
   58.1670   29.1300   45.5560 N   0  0  0  0  0  0  0  0  0  0  0  0
   58.2810   28.5450   46.4130 H   0  0  0  0  0  0  0  0  0  0  0  0
   57.4070   28.7050   44.9790 H   0  0  0  0  0  0  0  0  0  0  0  0
   57.8820   30.0990   45.8240 H   0  0  0  0  0  0  0  0  0  0  0  0
   61.4970   30.8930   48.4000 C   0  0  0  0  0  0  0  0  0  0  0  0
   61.3026   31.2685   47.3845 H   0  0  0  0  0  0  0  0  0  0  0  0
   60.2140   33.8540   48.5550 C   0  0  0  0  0  0  0  0  0  0  0  0
   60.2050   33.9237   49.6528 H   0  0  0  0  0  0  0  0  0  0  0  0
   59.0150   33.6940   47.8580 C   0  0  0  0  0  0  0  0  0  0  0  0
   58.0667   33.6276   48.4115 H   0  0  0  0  0  0  0  0  0  0  0  0
   57.4560   31.7280   43.0150 S   0  0  0  0  0  0  0  0  0  0  0  0
   56.6470   30.4060   42.3620 C   0  0  0  0  0  0  0  0  0  0  0  0
   56.6700   30.0897   41.3087 H   0  0  0  0  0  0  0  0  0  0  0  0
  1  2  1  0
  2  3  1  0
  3  4  1  0
  4  5  2  0
  5  6  1  0
  6  7  2  0
  6  8  1  0
  8  9  2  0
  9 10  1  0
  9 11  1  0
 11 12  1  0
 11 13  2  0
 13 14  1  0
 14 15  1  0
 15 16  1  0
 15 17  1  0
 15 18  1  0
 18 19  2  0
 19 20  1  0
 19 21  1  0
 21 22  1  0
 21 23  2  0
 23 24  1  0
 23 25  1  0
 25 26  1  0
 26 27  2  0
 26 28  1  0
 28 29  1  0
 29 30  1  0
 29 31  1  0
 29 32  1  0
 32 33  1  0
 32 34  1  0
 32 35  1  0
 35 36  1  0
 35 37  1  0
 35 38  1  0
 38 39  1  0
 38 40  1  0
 38 41  1  0
 25 42  2  0
 42 43  1  0
 13 44  1  0
 44 45  1  0
 44 46  2  0
 46 47  1  0
  4 48  1  0
 48 49  1  0
 49 50  1  0
 49  2  2  0
 46  8  1  0
 42 18  1  0
M  CHG  3   3  -1  28  -1  38   1
M  END
>  <UniqueID>  (53) 
46

>  <SMILES>  (53) 
[NH3+]CCC[N-]C(=O)c1cccc(CSc2ccc(C(=O)/N=c3/[n-]ccs3)cc2)c1

>  <Energy>  (53) 
76.01689836331951

>  <Genealogy>  (53) 
[NH3+]CCC[N-]C(=O)c1cccc(CSc2ccc(C(=O)N=c3[n-]ccs3)cc2)c1 (protonated)
[NH3+]CCC[N-]C(=O)c1cccc(CSc2ccc(C(=O)/N=c3/[n-]ccs3)cc2)c1 (cis-trans isomerization)
[NH3+]CCC[N-]C(=O)c1cccc(CSc2ccc(C(=O)/N=c3/[n-]ccs3)cc2)c1 (3D coordinates assigned)
[NH3+]CCC[N-]C(=O)c1cccc(CSc2ccc(C(=O)/N=c3/[n-]ccs3)cc2)c1 (optimized conformer: 76.01689836331951 kcal/mol)

>  <smiles>  (53) 
NCCCNC(=O)c1cccc(CSc2ccc(C(=O)N=c3[nH]ccs3)cc2)c1

>  <score_type>  (53) 
oracle

>  <origin>  (53) 
adg

>  <m_score__min__energy>  (53) 
-9.9000000000000004

>  <m_primary>  (53) 
energy

$$$$
53:0
     RDKit          3D

 40 42  0  0  0  0  0  0  0  0999 V2000
   54.7850   26.3550   45.9960 N   0  0  0  0  0  0  0  0  0  0  0  0
   56.1660   25.3200   46.0740 S   0  0  0  0  0  0  0  0  0  0  0  0
   56.1540   24.3770   44.9040 O   0  0  0  0  0  0  0  0  0  0  0  0
   56.1140   24.5140   47.3420 O   0  0  0  0  0  0  0  0  0  0  0  0
   57.6330   26.2920   46.0410 C   0  0  0  0  0  0  0  0  0  0  0  0
   58.8900   25.6750   46.0480 C   0  0  0  0  0  0  0  0  0  0  0  0
   60.0530   26.4490   46.0380 C   0  0  0  0  0  0  0  0  0  0  0  0
   59.9660   27.8440   46.0250 C   0  0  0  0  0  0  0  0  0  0  0  0
   58.7120   28.4760   46.0190 C   0  0  0  0  0  0  0  0  0  0  0  0
   58.6230   29.9150   46.0180 N   0  0  0  0  0  0  0  0  0  0  0  0
   58.5500   30.5720   44.8210 C   0  0  0  0  0  0  0  0  0  0  0  0
   58.4710   31.9650   44.7730 C   0  0  0  0  0  0  0  0  0  0  0  0
   58.4630   32.7010   45.9670 C   0  0  0  0  0  0  0  0  0  0  0  0
   58.3820   34.1030   45.9940 O   0  0  0  0  0  0  0  0  0  0  0  0
   59.4830   34.9880   46.2090 C   0  0  0  0  0  0  0  0  0  0  0  0
   60.4120   34.4440   47.2660 C   0  0  0  0  0  0  0  0  0  0  0  0
   60.0310   34.4840   48.6180 C   0  0  0  0  0  0  0  0  0  0  0  0
   60.8750   33.9720   49.6060 C   0  0  0  0  0  0  0  0  0  0  0  0
   62.1020   33.4060   49.2550 C   0  0  0  0  0  0  0  0  0  0  0  0
   62.4850   33.3450   47.9120 C   0  0  0  0  0  0  0  0  0  0  0  0
   61.6440   33.8560   46.9170 C   0  0  0  0  0  0  0  0  0  0  0  0
   62.0350   33.7760   45.6200 F   0  0  0  0  0  0  0  0  0  0  0  0
   58.5380   32.0190   47.1800 C   0  0  0  0  0  0  0  0  0  0  0  0
   58.6120   30.6210   47.1950 C   0  0  0  0  0  0  0  0  0  0  0  0
   58.6540   30.0240   48.3060 O   0  0  0  0  0  0  0  0  0  0  0  0
   57.5470   27.6910   46.0350 C   0  0  0  0  0  0  0  0  0  0  0  0
   55.1410   27.3380   45.9970 H   0  0  0  0  0  0  0  0  0  0  0  0
   58.9620   24.5774   46.0614 H   0  0  0  0  0  0  0  0  0  0  0  0
   61.0383   25.9600   46.0404 H   0  0  0  0  0  0  0  0  0  0  0  0
   60.8842   28.4497   46.0194 H   0  0  0  0  0  0  0  0  0  0  0  0
   58.5536   29.9957   43.8841 H   0  0  0  0  0  0  0  0  0  0  0  0
   58.4153   32.4826   43.8040 H   0  0  0  0  0  0  0  0  0  0  0  0
   60.0390   35.1067   45.2673 H   0  0  0  0  0  0  0  0  0  0  0  0
   59.0928   35.9585   46.5495 H   0  0  0  0  0  0  0  0  0  0  0  0
   59.0619   34.9213   48.9000 H   0  0  0  0  0  0  0  0  0  0  0  0
   60.5724   34.0148   50.6627 H   0  0  0  0  0  0  0  0  0  0  0  0
   62.7674   33.0080   50.0353 H   0  0  0  0  0  0  0  0  0  0  0  0
   63.4499   32.8942   47.6366 H   0  0  0  0  0  0  0  0  0  0  0  0
   58.5391   32.5796   48.1265 H   0  0  0  0  0  0  0  0  0  0  0  0
   56.5605   28.1776   46.0429 H   0  0  0  0  0  0  0  0  0  0  0  0
  1  2  1  0
  2  3  2  0
  2  4  2  0
  2  5  1  0
  5  6  2  0
  6  7  1  0
  7  8  2  0
  8  9  1  0
  9 10  1  0
 10 11  1  0
 11 12  2  0
 12 13  1  0
 13 14  1  0
 14 15  1  0
 15 16  1  0
 16 17  2  0
 17 18  1  0
 18 19  2  0
 19 20  1  0
 20 21  2  0
 21 22  1  0
 13 23  2  0
 23 24  1  0
 24 25  2  0
  9 26  2  0
 26  5  1  0
 24 10  1  0
 21 16  1  0
  1 27  1  0
  6 28  1  0
  7 29  1  0
  8 30  1  0
 11 31  1  0
 12 32  1  0
 15 33  1  0
 15 34  1  0
 17 35  1  0
 18 36  1  0
 19 37  1  0
 20 38  1  0
 23 39  1  0
 26 40  1  0
M  CHG  1   1  -1
M  END
>  <UniqueID>  (54) 
47

>  <SMILES>  (54) 
[NH-]S(=O)(=O)c1cccc(-n2ccc(OCc3ccccc3F)cc2=O)c1

>  <Energy>  (54) 
51.650273072572

>  <Genealogy>  (54) 
[NH-]S(=O)(=O)c1cccc(-n2ccc(OCc3ccccc3F)cc2=O)c1 (protonated)
[NH-]S(=O)(=O)c1cccc(-n2ccc(OCc3ccccc3F)cc2=O)c1 (3D coordinates assigned)
[NH-]S(=O)(=O)c1cccc(-n2ccc(OCc3ccccc3F)cc2=O)c1 (optimized conformer: 51.650273072572 kcal/mol)

>  <smiles>  (54) 
NS(=O)(=O)c1cccc(-n2ccc(OCc3ccccc3F)cc2=O)c1

>  <score_type>  (54) 
oracle

>  <origin>  (54) 
adg

>  <m_score__min__energy>  (54) 
-11.02

>  <m_primary>  (54) 
energy

$$$$
54:0
     RDKit          3D

 43 46  0  0  0  0  0  0  0  0999 V2000
   54.8290   29.7110   43.3390 O   0  0  0  0  0  0  0  0  0  0  0  0
   55.7860   29.7910   44.1550 C   0  0  0  0  0  0  0  0  0  0  0  0
   55.9130   28.7810   45.1630 N   0  0  0  0  0  0  0  0  0  0  0  0
   57.1290   28.1070   45.5270 C   0  0  0  0  0  0  0  0  0  0  0  0
   58.3870   28.5950   45.1370 C   0  0  0  0  0  0  0  0  0  0  0  0
   59.5490   27.9050   45.4930 C   0  0  0  0  0  0  0  0  0  0  0  0
   59.4650   26.7200   46.2290 C   0  0  0  0  0  0  0  0  0  0  0  0
   58.2100   26.2080   46.6050 C   0  0  0  0  0  0  0  0  0  0  0  0
   58.0650   25.0010   47.3660 N   0  0  0  0  0  0  0  0  0  0  0  0
   56.8780   23.7560   47.1280 S   0  0  0  0  0  0  0  0  0  0  0  0
   57.0190   22.7670   48.2530 O   0  0  0  0  0  0  0  0  0  0  0  0
   55.4910   24.3350   47.1740 O   0  0  0  0  0  0  0  0  0  0  0  0
   57.1380   22.9190   45.5970 C   0  0  0  0  0  0  0  0  0  0  0  0
   56.0860   22.8120   44.6720 C   0  0  0  0  0  0  0  0  0  0  0  0
   56.2830   22.1580   43.4510 C   0  0  0  0  0  0  0  0  0  0  0  0
   57.5310   21.6080   43.1420 C   0  0  0  0  0  0  0  0  0  0  0  0
   58.5800   21.7010   44.0640 C   0  0  0  0  0  0  0  0  0  0  0  0
   58.3850   22.3490   45.2890 C   0  0  0  0  0  0  0  0  0  0  0  0
   57.0490   26.9070   46.2430 C   0  0  0  0  0  0  0  0  0  0  0  0
   56.7120   30.9460   44.0880 C   0  0  0  0  0  0  0  0  0  0  0  0
   57.2720   31.3390   42.8430 C   0  0  0  0  0  0  0  0  0  0  0  0
   58.1520   32.4320   42.7610 C   0  0  0  0  0  0  0  0  0  0  0  0
   58.4450   33.1260   43.9320 C   0  0  0  0  0  0  0  0  0  0  0  0
   59.2420   34.2040   44.0500 N   0  0  0  0  0  0  0  0  0  0  0  0
   59.1830   34.5100   45.3690 C   0  0  0  0  0  0  0  0  0  0  0  0
   59.8700   35.5820   45.9280 O   0  0  0  0  0  0  0  0  0  0  0  0
   58.3630   33.6410   46.0810 C   0  0  0  0  0  0  0  0  0  0  0  0
   57.8990   32.7610   45.1340 C   0  0  0  0  0  0  0  0  0  0  0  0
   57.0280   31.6820   45.2530 C   0  0  0  0  0  0  0  0  0  0  0  0
   58.4578   29.5225   44.5499 H   0  0  0  0  0  0  0  0  0  0  0  0
   60.5325   28.2958   45.1930 H   0  0  0  0  0  0  0  0  0  0  0  0
   60.3831   26.1860   46.5152 H   0  0  0  0  0  0  0  0  0  0  0  0
   55.1027   23.2445   44.9089 H   0  0  0  0  0  0  0  0  0  0  0  0
   55.4542   22.0762   42.7324 H   0  0  0  0  0  0  0  0  0  0  0  0
   57.6879   21.1037   42.1771 H   0  0  0  0  0  0  0  0  0  0  0  0
   59.5605   21.2635   43.8250 H   0  0  0  0  0  0  0  0  0  0  0  0
   59.2106   22.4124   46.0132 H   0  0  0  0  0  0  0  0  0  0  0  0
   56.0638   26.5073   46.5252 H   0  0  0  0  0  0  0  0  0  0  0  0
   57.0136   30.7806   41.9312 H   0  0  0  0  0  0  0  0  0  0  0  0
   58.5962   32.7303   41.7999 H   0  0  0  0  0  0  0  0  0  0  0  0
   60.1950   35.5480   46.8880 H   0  0  0  0  0  0  0  0  0  0  0  0
   58.1374   33.6553   47.1575 H   0  0  0  0  0  0  0  0  0  0  0  0
   56.5969   31.4091   46.2275 H   0  0  0  0  0  0  0  0  0  0  0  0
  1  2  2  0
  2  3  1  0
  3  4  1  0
  4  5  2  0
  5  6  1  0
  6  7  2  0
  7  8  1  0
  8  9  1  0
  9 10  1  0
 10 11  2  0
 10 12  2  0
 10 13  1  0
 13 14  2  0
 14 15  1  0
 15 16  2  0
 16 17  1  0
 17 18  2  0
  8 19  2  0
  2 20  1  0
 20 21  2  0
 21 22  1  0
 22 23  2  0
 23 24  1  0
 24 25  1  0
 25 26  1  0
 25 27  2  0
 27 28  1  0
 28 29  2  0
 19  4  1  0
 29 20  1  0
 18 13  1  0
 28 23  1  0
  5 30  1  0
  6 31  1  0
  7 32  1  0
 14 33  1  0
 15 34  1  0
 16 35  1  0
 17 36  1  0
 18 37  1  0
 19 38  1  0
 21 39  1  0
 22 40  1  0
 26 41  1  0
 27 42  1  0
 29 43  1  0
M  CHG  3   3  -1   9  -1  24  -1
M  END
>  <UniqueID>  (55) 
48

>  <SMILES>  (55) 
O=C([N-]c1cccc([N-]S(=O)(=O)c2ccccc2)c1)c1ccc2[n-]c(O)cc2c1

>  <Energy>  (55) 
90.702661476877

>  <Genealogy>  (55) 
O=C([N-]c1cccc([N-]S(=O)(=O)c2ccccc2)c1)c1ccc2[n-]c(O)cc2c1 (protonated)
O=C([N-]c1cccc([N-]S(=O)(=O)c2ccccc2)c1)c1ccc2[n-]c(O)cc2c1 (3D coordinates assigned)
O=C([N-]c1cccc([N-]S(=O)(=O)c2ccccc2)c1)c1ccc2[n-]c(O)cc2c1 (optimized conformer: 90.702661476877 kcal/mol)

>  <smiles>  (55) 
O=C(Nc1cccc(NS(=O)(=O)c2ccccc2)c1)c1ccc2[nH]c(O)cc2c1

>  <score_type>  (55) 
oracle

>  <origin>  (55) 
adg

>  <m_score__min__energy>  (55) 
-13.24

>  <m_primary>  (55) 
energy

$$$$
55:0
     RDKit          3D

 48 50  0  0  0  0  0  0  0  0999 V2000
   55.5340   30.4380   44.5030 O   0  0  0  0  0  0  0  0  0  0  0  0
   56.7650   30.4170   44.2380 C   0  0  0  0  0  0  0  0  0  0  0  0
   57.3950   31.6070   43.5570 C   0  0  0  0  0  0  0  0  0  0  0  0
   57.8690   32.6250   44.5580 C   0  0  0  0  0  0  0  0  0  0  0  0
   57.4620   32.5410   45.9000 C   0  0  0  0  0  0  0  0  0  0  0  0
   57.9250   33.4680   46.8380 C   0  0  0  0  0  0  0  0  0  0  0  0
   58.8080   34.4850   46.4470 C   0  0  0  0  0  0  0  0  0  0  0  0
   59.2760   35.4140   47.3720 O   0  0  0  0  0  0  0  0  0  0  0  0
   59.2250   34.5660   45.1140 C   0  0  0  0  0  0  0  0  0  0  0  0
   58.7630   33.6390   44.1740 C   0  0  0  0  0  0  0  0  0  0  0  0
   57.5330   29.2810   44.6650 N   0  0  0  0  0  0  0  0  0  0  0  0
   57.4890   28.6180   45.9720 C   0  0  2  0  0  0  0  0  0  0  0  0
   58.2530   29.4020   46.9520 N   0  0  0  0  0  0  0  0  0  0  0  0
   59.5840   29.8960   46.7190 C   0  0  0  0  0  0  0  0  0  0  0  0
   60.3620   29.5750   45.3030 S   0  0  0  0  0  0  0  0  0  0  0  0
   60.2910   30.5120   47.8080 N   0  0  0  0  0  0  0  0  0  0  0  0
   61.3780   31.4400   47.6550 C   0  0  0  0  0  0  0  0  0  0  0  0
   61.2660   32.5660   46.8180 C   0  0  0  0  0  0  0  0  0  0  0  0
   62.3260   33.4710   46.7080 C   0  0  0  0  0  0  0  0  0  0  0  0
   63.4990   33.2680   47.4410 C   0  0  0  0  0  0  0  0  0  0  0  0
   63.6090   32.1650   48.2920 C   0  0  0  0  0  0  0  0  0  0  0  0
   62.5500   31.2590   48.4050 C   0  0  0  0  0  0  0  0  0  0  0  0
   57.9620   27.1720   45.9100 C   0  0  0  0  0  0  0  0  0  0  0  0
   57.1120   26.1290   45.4830 C   0  0  0  0  0  0  0  0  0  0  0  0
   57.5620   24.8050   45.4710 C   0  0  0  0  0  0  0  0  0  0  0  0
   58.8510   24.4990   45.9130 C   0  0  0  0  0  0  0  0  0  0  0  0
   59.6880   25.5140   46.3780 C   0  0  0  0  0  0  0  0  0  0  0  0
   59.2440   26.8390   46.3890 C   0  0  0  0  0  0  0  0  0  0  0  0
   58.2536   31.2649   42.9605 H   0  0  0  0  0  0  0  0  0  0  0  0
   56.6372   32.0797   42.9149 H   0  0  0  0  0  0  0  0  0  0  0  0
   56.7752   31.7413   46.2143 H   0  0  0  0  0  0  0  0  0  0  0  0
   57.5960   33.3997   47.8854 H   0  0  0  0  0  0  0  0  0  0  0  0
   58.8400   36.3220   47.4770 H   0  0  0  0  0  0  0  0  0  0  0  0
   59.9186   35.3615   44.8041 H   0  0  0  0  0  0  0  0  0  0  0  0
   59.1010   33.7040   43.1292 H   0  0  0  0  0  0  0  0  0  0  0  0
   56.4386   28.5739   46.2956 H   0  0  0  0  0  0  0  0  0  0  0  0
   57.8410   29.5710   47.8980 H   0  0  0  0  0  0  0  0  0  0  0  0
   60.0070   30.2480   48.7780 H   0  0  0  0  0  0  0  0  0  0  0  0
   60.3405   32.7347   46.2479 H   0  0  0  0  0  0  0  0  0  0  0  0
   62.2369   34.3435   46.0441 H   0  0  0  0  0  0  0  0  0  0  0  0
   64.3353   33.9764   47.3479 H   0  0  0  0  0  0  0  0  0  0  0  0
   64.5296   32.0094   48.8736 H   0  0  0  0  0  0  0  0  0  0  0  0
   62.6362   30.3993   49.0858 H   0  0  0  0  0  0  0  0  0  0  0  0
   56.0871   26.3596   45.1570 H   0  0  0  0  0  0  0  0  0  0  0  0
   56.8996   24.0032   45.1128 H   0  0  0  0  0  0  0  0  0  0  0  0
   59.2063   23.4581   45.8946 H   0  0  0  0  0  0  0  0  0  0  0  0
   60.6991   25.2708   46.7365 H   0  0  0  0  0  0  0  0  0  0  0  0
   59.9028   27.6304   46.7759 H   0  0  0  0  0  0  0  0  0  0  0  0
  1  2  2  0
  2  3  1  0
  3  4  1  0
  4  5  2  0
  5  6  1  0
  6  7  2  0
  7  8  1  0
  7  9  1  0
  9 10  2  0
  2 11  1  0
 11 12  1  0
 12 13  1  0
 13 14  1  0
 14 15  2  0
 14 16  1  0
 16 17  1  0
 17 18  2  0
 18 19  1  0
 19 20  2  0
 20 21  1  0
 21 22  2  0
 12 23  1  0
 23 24  2  0
 24 25  1  0
 25 26  2  0
 26 27  1  0
 27 28  2  0
 10  4  1  0
 22 17  1  0
 28 23  1  0
  3 29  1  0
  3 30  1  0
  5 31  1  0
  6 32  1  0
  8 33  1  0
  9 34  1  0
 10 35  1  0
 12 36  1  1
 13 37  1  0
 16 38  1  0
 18 39  1  0
 19 40  1  0
 20 41  1  0
 21 42  1  0
 22 43  1  0
 24 44  1  0
 25 45  1  0
 26 46  1  0
 27 47  1  0
 28 48  1  0
M  CHG  1  11  -1
M  END
>  <UniqueID>  (56) 
49

>  <SMILES>  (56) 
O=C(Cc1ccc(O)cc1)[N-][C@H](NC(=S)Nc1ccccc1)c1ccccc1

>  <Energy>  (56) 
55.89317892601726

>  <Genealogy>  (56) 
O=C(Cc1ccc(O)cc1)[N-]C(NC(=S)Nc1ccccc1)c1ccccc1 (protonated)
O=C(Cc1ccc(O)cc1)[N-][C@H](NC(=S)Nc1ccccc1)c1ccccc1 (chirality)
O=C(Cc1ccc(O)cc1)[N-][C@H](NC(=S)Nc1ccccc1)c1ccccc1 (3D coordinates assigned)
O=C(Cc1ccc(O)cc1)[N-][C@H](NC(=S)Nc1ccccc1)c1ccccc1 (optimized conformer: 55.89317892601726 kcal/mol)

>  <smiles>  (56) 
O=C(Cc1ccc(O)cc1)NC(NC(=S)Nc1ccccc1)c1ccccc1

>  <score_type>  (56) 
oracle

>  <origin>  (56) 
adg

>  <m_score__min__energy>  (56) 
-10.85

>  <m_primary>  (56) 
energy

$$$$
56:0
     RDKit          3D

 61 64  0  0  0  0  0  0  0  0999 V2000
   57.0500   30.3120   43.8490 C   0  0  0  0  0  0  0  0  0  0  0  0
   58.1390   29.5090   44.2880 O   0  0  0  0  0  0  0  0  0  0  0  0
   58.6530   29.5170   45.5930 C   0  0  0  0  0  0  0  0  0  0  0  0
   58.1060   28.6310   46.5270 C   0  0  0  0  0  0  0  0  0  0  0  0
   58.5950   28.5850   47.8340 C   0  0  0  0  0  0  0  0  0  0  0  0
   59.6570   29.4200   48.2230 C   0  0  0  0  0  0  0  0  0  0  0  0
   60.1930   29.3830   49.5530 N   0  0  0  0  0  0  0  0  0  0  0  0
   59.4030   29.5250   50.7460 C   0  0  0  0  0  0  0  0  0  0  0  0
   58.1740   29.7870   50.6790 O   0  0  0  0  0  0  0  0  0  0  0  0
   60.0280   29.3130   52.0900 C   0  0  0  0  0  0  0  0  0  0  0  0
   61.6030   30.2320   52.2630 S   0  0  0  0  0  0  0  0  0  0  0  0
   61.1150   31.6390   51.2430 C   0  0  0  0  0  0  0  0  0  0  0  0
   60.1620   32.4660   51.7360 N   0  0  0  0  0  0  0  0  0  0  0  0
   59.6710   33.5110   51.0300 C   0  0  0  0  0  0  0  0  0  0  0  0
   58.6480   34.3130   51.6300 N   0  0  0  0  0  0  0  0  0  0  0  0
   60.1660   33.7620   49.7370 C   0  0  0  0  0  0  0  0  0  0  0  0
   59.6450   34.9110   48.8900 C   0  0  0  0  0  0  0  0  0  0  0  0
   59.1130   34.4280   47.5630 C   0  0  0  0  0  0  0  0  0  0  0  0
   59.6280   34.9440   46.3600 C   0  0  0  0  0  0  0  0  0  0  0  0
   59.1440   34.4880   45.1300 C   0  0  0  0  0  0  0  0  0  0  0  0
   58.1530   33.5050   45.0900 C   0  0  0  0  0  0  0  0  0  0  0  0
   57.6470   32.9730   46.2780 C   0  0  0  0  0  0  0  0  0  0  0  0
   58.1280   33.4250   47.5110 C   0  0  0  0  0  0  0  0  0  0  0  0
   61.2050   32.9360   49.2580 C   0  0  0  0  0  0  0  0  0  0  0  0
   61.7130   33.1780   48.1280 O   0  0  0  0  0  0  0  0  0  0  0  0
   61.6750   31.8860   50.0140 N   0  0  0  0  0  0  0  0  0  0  0  0
   62.8330   31.0960   49.5390 C   0  0  0  0  0  0  0  0  0  0  0  0
   64.1350   31.5880   50.1230 C   0  0  0  0  0  0  0  0  0  0  0  0
   64.7710   30.8770   51.1550 C   0  0  0  0  0  0  0  0  0  0  0  0
   66.0110   31.2970   51.6450 C   0  0  0  0  0  0  0  0  0  0  0  0
   66.6280   32.4310   51.1130 C   0  0  0  0  0  0  0  0  0  0  0  0
   66.0120   33.1380   50.0770 C   0  0  0  0  0  0  0  0  0  0  0  0
   64.7740   32.7160   49.5800 C   0  0  0  0  0  0  0  0  0  0  0  0
   60.1790   30.3360   47.2980 C   0  0  0  0  0  0  0  0  0  0  0  0
   59.6900   30.3800   45.9900 C   0  0  0  0  0  0  0  0  0  0  0  0
   56.5117   30.7089   44.7223 H   0  0  0  0  0  0  0  0  0  0  0  0
   57.4311   31.1469   43.2426 H   0  0  0  0  0  0  0  0  0  0  0  0
   56.3651   29.7011   43.2426 H   0  0  0  0  0  0  0  0  0  0  0  0
   57.2832   27.9645   46.2291 H   0  0  0  0  0  0  0  0  0  0  0  0
   58.1475   27.8926   48.5623 H   0  0  0  0  0  0  0  0  0  0  0  0
   61.1890   29.0830   49.6610 H   0  0  0  0  0  0  0  0  0  0  0  0
   59.3283   29.6571   52.8659 H   0  0  0  0  0  0  0  0  0  0  0  0
   60.2452   28.2403   52.1997 H   0  0  0  0  0  0  0  0  0  0  0  0
   57.9210   33.8600   52.2270 H   0  0  0  0  0  0  0  0  0  0  0  0
   58.5820   35.3440   51.4950 H   0  0  0  0  0  0  0  0  0  0  0  0
   58.8355   35.4180   49.4357 H   0  0  0  0  0  0  0  0  0  0  0  0
   60.4799   35.6001   48.6950 H   0  0  0  0  0  0  0  0  0  0  0  0
   60.4162   35.7108   46.3871 H   0  0  0  0  0  0  0  0  0  0  0  0
   59.5441   34.9038   44.1935 H   0  0  0  0  0  0  0  0  0  0  0  0
   57.7706   33.1494   44.1219 H   0  0  0  0  0  0  0  0  0  0  0  0
   56.8684   32.1967   46.2439 H   0  0  0  0  0  0  0  0  0  0  0  0
   57.7346   32.9946   48.4437 H   0  0  0  0  0  0  0  0  0  0  0  0
   62.6886   30.0451   49.8300 H   0  0  0  0  0  0  0  0  0  0  0  0
   62.8904   31.2036   48.4458 H   0  0  0  0  0  0  0  0  0  0  0  0
   64.2898   29.9839   51.5801 H   0  0  0  0  0  0  0  0  0  0  0  0
   66.5019   30.7328   52.4516 H   0  0  0  0  0  0  0  0  0  0  0  0
   67.5976   32.7673   51.5089 H   0  0  0  0  0  0  0  0  0  0  0  0
   66.5008   34.0270   49.6518 H   0  0  0  0  0  0  0  0  0  0  0  0
   64.2974   33.2710   48.7585 H   0  0  0  0  0  0  0  0  0  0  0  0
   60.9796   31.0251   47.6048 H   0  0  0  0  0  0  0  0  0  0  0  0
   60.1174   31.0918   45.2685 H   0  0  0  0  0  0  0  0  0  0  0  0
  1  2  1  0
  2  3  1  0
  3  4  2  0
  4  5  1  0
  5  6  2  0
  6  7  1  0
  7  8  1  0
  8  9  2  0
  8 10  1  0
 10 11  1  0
 11 12  1  0
 12 13  2  0
 13 14  1  0
 14 15  1  0
 14 16  2  0
 16 17  1  0
 17 18  1  0
 18 19  2  0
 19 20  1  0
 20 21  2  0
 21 22  1  0
 22 23  2  0
 16 24  1  0
 24 25  2  0
 24 26  1  0
 26 27  1  0
 27 28  1  0
 28 29  2  0
 29 30  1  0
 30 31  2  0
 31 32  1  0
 32 33  2  0
  6 34  1  0
 34 35  2  0
 35  3  1  0
 26 12  1  0
 33 28  1  0
 23 18  1  0
  1 36  1  0
  1 37  1  0
  1 38  1  0
  4 39  1  0
  5 40  1  0
  7 41  1  0
 10 42  1  0
 10 43  1  0
 15 44  1  0
 15 45  1  0
 17 46  1  0
 17 47  1  0
 19 48  1  0
 20 49  1  0
 21 50  1  0
 22 51  1  0
 23 52  1  0
 27 53  1  0
 27 54  1  0
 29 55  1  0
 30 56  1  0
 31 57  1  0
 32 58  1  0
 33 59  1  0
 34 60  1  0
 35 61  1  0
M  END
>  <UniqueID>  (57) 
50

>  <SMILES>  (57) 
COc1ccc(NC(=O)CSc2nc(N)c(Cc3ccccc3)c(=O)n2Cc2ccccc2)cc1

>  <Energy>  (57) 
65.36908122771979

>  <Genealogy>  (57) 
COc1ccc(NC(=O)CSc2nc(N)c(Cc3ccccc3)c(=O)n2Cc2ccccc2)cc1 (3D coordinates assigned)
COc1ccc(NC(=O)CSc2nc(N)c(Cc3ccccc3)c(=O)n2Cc2ccccc2)cc1 (optimized conformer: 65.36908122771979 kcal/mol)

>  <smiles>  (57) 
COc1ccc(NC(=O)CSc2nc(N)c(Cc3ccccc3)c(=O)n2Cc2ccccc2)cc1

>  <score_type>  (57) 
oracle

>  <origin>  (57) 
adg

>  <m_score__min__energy>  (57) 
-7.9800000000000004

>  <m_primary>  (57) 
energy

$$$$
57:0
     RDKit          3D

 47 51  0  0  0  0  0  0  0  0999 V2000
   55.1374   31.8679   51.3037 H   0  0  0  0  0  0  0  0  0  0  0  0
   55.1200   30.8570   51.7370 C   0  0  0  0  0  0  0  0  0  0  0  0
   56.1690   30.1270   51.9920 N   0  0  0  0  0  0  0  0  0  0  0  0
   55.6990   28.9050   52.4920 N   0  0  0  0  0  0  0  0  0  0  0  0
   56.2200   28.1600   53.4850 C   0  0  0  0  0  0  0  0  0  0  0  0
   57.5030   28.1280   53.7320 N   0  0  0  0  0  0  0  0  0  0  0  0
   58.4110   27.1810   54.4040 C   0  0  0  0  0  0  0  0  0  0  0  0
   58.5630   27.8405   55.2711 H   0  0  0  0  0  0  0  0  0  0  0  0
   59.3250   26.3510   53.5250 C   0  0  0  0  0  0  0  0  0  0  0  0
   59.3190   26.4936   52.4343 H   0  0  0  0  0  0  0  0  0  0  0  0
   60.4066   26.1534   53.4920 H   0  0  0  0  0  0  0  0  0  0  0  0
   58.1230   25.7030   54.2210 C   0  0  0  0  0  0  0  0  0  0  0  0
   57.2527   25.3800   53.6309 H   0  0  0  0  0  0  0  0  0  0  0  0
   57.9810   24.8464   54.8963 H   0  0  0  0  0  0  0  0  0  0  0  0
   55.2250   27.5860   54.2190 N   0  0  0  0  0  0  0  0  0  0  0  0
   55.2620   26.9980   55.0740 H   0  0  0  0  0  0  0  0  0  0  0  0
   54.0990   28.1020   53.6550 C   0  0  0  0  0  0  0  0  0  0  0  0
   52.9010   27.9840   54.1440 N   0  0  0  0  0  0  0  0  0  0  0  0
   51.7200   27.6530   53.3560 C   0  0  0  0  0  0  0  0  0  0  0  0
   51.6553   28.3263   52.4886 H   0  0  0  0  0  0  0  0  0  0  0  0
   50.8173   27.7704   53.9736 H   0  0  0  0  0  0  0  0  0  0  0  0
   51.8280   26.2330   52.8830 C   0  0  0  0  0  0  0  0  0  0  0  0
   50.9490   25.7400   51.9070 C   0  0  0  0  0  0  0  0  0  0  0  0
   50.1962   26.4069   51.4615 H   0  0  0  0  0  0  0  0  0  0  0  0
   51.0250   24.4060   51.4980 C   0  0  0  0  0  0  0  0  0  0  0  0
   50.3377   24.0327   50.7245 H   0  0  0  0  0  0  0  0  0  0  0  0
   51.9680   23.5410   52.0640 C   0  0  0  0  0  0  0  0  0  0  0  0
   52.0040   22.2100   51.6190 O   0  0  0  0  0  0  0  0  0  0  0  0
   53.1640   21.5670   51.1020 C   0  0  0  0  0  0  0  0  0  0  0  0
   53.7922   21.2188   51.9351 H   0  0  0  0  0  0  0  0  0  0  0  0
   52.8627   20.7071   50.4857 H   0  0  0  0  0  0  0  0  0  0  0  0
   53.7335   22.2782   50.4857 H   0  0  0  0  0  0  0  0  0  0  0  0
   52.8410   24.0300   53.0550 C   0  0  0  0  0  0  0  0  0  0  0  0
   53.5847   23.3590   53.5097 H   0  0  0  0  0  0  0  0  0  0  0  0
   52.7660   25.3650   53.4630 C   0  0  0  0  0  0  0  0  0  0  0  0
   53.4462   25.7373   54.2432 H   0  0  0  0  0  0  0  0  0  0  0  0
   54.3980   28.8660   52.5900 N   0  0  0  0  0  0  0  0  0  0  0  0
   53.9040   30.1120   52.1220 C   0  0  0  0  0  0  0  0  0  0  0  0
   52.6320   30.5230   52.1760 C   0  0  0  0  0  0  0  0  0  0  0  0
   52.1554   30.6094   53.1636 H   0  0  0  0  0  0  0  0  0  0  0  0
   51.8350   30.8660   50.9870 C   0  0  0  0  0  0  0  0  0  0  0  0
   51.7910   30.0990   49.8830 N   0  0  0  0  0  0  0  0  0  0  0  0
   51.0200   30.8130   49.0350 C   0  0  0  0  0  0  0  0  0  0  0  0
   50.7320   30.4100   47.8780 O   0  0  0  0  0  0  0  0  0  0  0  0
   50.5890   31.9970   49.5200 N   0  0  0  0  0  0  0  0  0  0  0  0
   51.1230   32.0220   50.7530 C   0  0  0  0  0  0  0  0  0  0  0  0
   51.0030   33.1020   51.6170 O   0  0  0  0  0  0  0  0  0  0  0  0
  1  2  1  0
  2  3  2  0
  3  4  1  0
  4  5  1  0
  5  6  2  0
  6  7  1  0
  7  8  1  0
  7  9  1  0
  9 10  1  0
  9 11  1  0
  9 12  1  0
 12 13  1  0
 12 14  1  0
  5 15  1  0
 15 16  1  0
 15 17  1  0
 17 18  2  3
 18 19  1  0
 19 20  1  0
 19 21  1  0
 19 22  1  0
 22 23  2  0
 23 24  1  0
 23 25  1  0
 25 26  1  0
 25 27  2  0
 27 28  1  0
 28 29  1  0
 29 30  1  0
 29 31  1  0
 29 32  1  0
 27 33  1  0
 33 34  1  0
 33 35  2  0
 35 36  1  0
 17 37  1  0
 37 38  1  0
 38 39  2  0
 39 40  1  0
 39 41  1  0
 41 42  1  0
 42 43  1  0
 43 44  2  0
 43 45  1  0
 45 46  1  0
 46 47  1  0
 38  2  1  0
 46 41  2  0
 37  4  1  0
 12  7  1  0
 35 22  1  0
M  CHG  3  42  -1  45  -1  47  -1
M  END
>  <UniqueID>  (58) 
51

>  <SMILES>  (58) 
COc1ccc(CN=c2[nH]/c(=N\C3CC3)n3n2/C(=C/c2[n-]c(=O)[n-]c2[O-])C=N3)cc1

>  <Energy>  (58) 
457.8716539074579

>  <Genealogy>  (58) 
COc1ccc(CN=c2[nH]c(=NC3CC3)n3n2C(=Cc2[n-]c(=O)[n-]c2[O-])C=N3)cc1 (protonated)
COc1ccc(CN=c2[nH]/c(=N\C3CC3)n3n2/C(=C/c2[n-]c(=O)[n-]c2[O-])C=N3)cc1 (cis-trans isomerization)
COc1ccc(CN=c2[nH]/c(=N\C3CC3)n3n2/C(=C/c2[n-]c(=O)[n-]c2[O-])C=N3)cc1 (3D coordinates assigned)
COc1ccc(CN=c2[nH]/c(=N\C3CC3)n3n2/C(=C/c2[n-]c(=O)[n-]c2[O-])C=N3)cc1 (nonaromatic ring conformer: 457.8716539074579 kcal/mol)

>  <smiles>  (58) 
COc1ccc(CN=c2[nH]c(=NC3CC3)n3n2C(=Cc2[nH]c(=O)[nH]c2O)C=N3)cc1

>  <score_type>  (58) 
oracle

>  <origin>  (58) 
adg

>  <m_score__min__energy>  (58) 
-15.630000000000001

>  <m_primary>  (58) 
energy

$$$$
58:0
     RDKit          3D

 45 46  0  0  0  0  0  0  0  0999 V2000
   58.9960   32.1380   50.4420 C   0  0  0  0  0  0  0  0  0  0  0  0
   59.2560   30.9020   49.1280 S   0  0  0  0  0  0  0  0  0  0  0  0
   61.0600   30.6950   49.3940 C   0  0  0  0  0  0  0  0  0  0  0  0
   61.8710   30.8860   48.1020 C   0  0  1  0  0  0  0  0  0  0  0  0
   60.9780   31.0530   46.9480 N   0  0  0  0  0  0  0  0  0  0  0  0
   60.3250   29.9450   46.3170 C   0  0  0  0  0  0  0  0  0  0  0  0
   60.6250   28.7640   46.6440 O   0  0  0  0  0  0  0  0  0  0  0  0
   59.3850   30.1990   45.2620 N   0  0  0  0  0  0  0  0  0  0  0  0
   58.1620   29.7610   45.1400 C   0  0  0  0  0  0  0  0  0  0  0  0
   57.7470   28.4890   45.5930 C   0  0  0  0  0  0  0  0  0  0  0  0
   56.4130   28.1030   45.4330 C   0  0  0  0  0  0  0  0  0  0  0  0
   55.5190   28.9480   44.8550 N   0  0  0  0  0  0  0  0  0  0  0  0
   55.8850   30.1830   44.4240 C   0  0  0  0  0  0  0  0  0  0  0  0
   57.2080   30.6120   44.5660 C   0  0  0  0  0  0  0  0  0  0  0  0
   62.8310   32.0540   48.2270 C   0  0  0  0  0  0  0  0  0  0  0  0
   63.4530   32.2340   49.3070 O   0  0  0  0  0  0  0  0  0  0  0  0
   63.1280   32.9210   47.1220 N   0  0  0  0  0  0  0  0  0  0  0  0
   62.2130   33.8720   46.4970 C   0  0  0  0  0  0  0  0  0  0  0  0
   61.0550   34.2250   47.4370 C   0  0  0  0  0  0  0  0  0  0  0  0
   59.7240   34.0990   46.7420 C   0  0  0  0  0  0  0  0  0  0  0  0
   59.6040   34.4050   45.3750 C   0  0  0  0  0  0  0  0  0  0  0  0
   58.3750   34.2580   44.7260 C   0  0  0  0  0  0  0  0  0  0  0  0
   57.2600   33.7980   45.4320 C   0  0  0  0  0  0  0  0  0  0  0  0
   57.3740   33.4810   46.7880 C   0  0  0  0  0  0  0  0  0  0  0  0
   58.6010   33.6260   47.4410 C   0  0  0  0  0  0  0  0  0  0  0  0
   59.0976   31.6550   51.4250 H   0  0  0  0  0  0  0  0  0  0  0  0
   59.7456   32.9374   50.3470 H   0  0  0  0  0  0  0  0  0  0  0  0
   57.9878   32.5676   50.3470 H   0  0  0  0  0  0  0  0  0  0  0  0
   61.3950   31.4370   50.1338 H   0  0  0  0  0  0  0  0  0  0  0  0
   61.2302   29.6671   49.7468 H   0  0  0  0  0  0  0  0  0  0  0  0
   62.4715   29.9790   47.9383 H   0  0  0  0  0  0  0  0  0  0  0  0
   60.6900   32.0120   46.6500 H   0  0  0  0  0  0  0  0  0  0  0  0
   58.4680   27.8075   46.0680 H   0  0  0  0  0  0  0  0  0  0  0  0
   56.0853   27.1107   45.7765 H   0  0  0  0  0  0  0  0  0  0  0  0
   55.1391   30.8468   43.9624 H   0  0  0  0  0  0  0  0  0  0  0  0
   57.5000   31.6170   44.2273 H   0  0  0  0  0  0  0  0  0  0  0  0
   62.7650   34.7900   46.2469 H   0  0  0  0  0  0  0  0  0  0  0  0
   61.7971   33.4107   45.5891 H   0  0  0  0  0  0  0  0  0  0  0  0
   61.0740   33.5431   48.2999 H   0  0  0  0  0  0  0  0  0  0  0  0
   61.1785   35.2688   47.7612 H   0  0  0  0  0  0  0  0  0  0  0  0
   60.4806   34.7614   44.8142 H   0  0  0  0  0  0  0  0  0  0  0  0
   58.2851   34.5047   43.6578 H   0  0  0  0  0  0  0  0  0  0  0  0
   56.2928   33.6855   44.9202 H   0  0  0  0  0  0  0  0  0  0  0  0
   56.4966   33.1167   47.3424 H   0  0  0  0  0  0  0  0  0  0  0  0
   58.6878   33.3686   48.5069 H   0  0  0  0  0  0  0  0  0  0  0  0
  1  2  1  0
  2  3  1  0
  3  4  1  0
  4  5  1  0
  5  6  1  0
  6  7  2  0
  6  8  1  0
  8  9  2  3
  9 10  1  0
 10 11  2  0
 11 12  1  0
 12 13  1  0
 13 14  2  0
  4 15  1  0
 15 16  2  0
 15 17  1  0
 17 18  1  0
 18 19  1  0
 19 20  1  0
 20 21  2  0
 21 22  1  0
 22 23  2  0
 23 24  1  0
 24 25  2  0
 14  9  1  0
 25 20  1  0
  1 26  1  0
  1 27  1  0
  1 28  1  0
  3 29  1  0
  3 30  1  0
  4 31  1  6
  5 32  1  0
 10 33  1  0
 11 34  1  0
 13 35  1  0
 14 36  1  0
 18 37  1  0
 18 38  1  0
 19 39  1  0
 19 40  1  0
 21 41  1  0
 22 42  1  0
 23 43  1  0
 24 44  1  0
 25 45  1  0
M  CHG  2  12  -1  17  -1
M  END
>  <UniqueID>  (59) 
52

>  <SMILES>  (59) 
CSC[C@@H](NC(=O)N=c1cc[n-]cc1)C(=O)[N-]CCc1ccccc1

>  <Energy>  (59) 
45.08942892777867

>  <Genealogy>  (59) 
CSCC(NC(=O)N=c1cc[n-]cc1)C(=O)[N-]CCc1ccccc1 (protonated)
CSC[C@@H](NC(=O)N=c1cc[n-]cc1)C(=O)[N-]CCc1ccccc1 (chirality)
CSC[C@@H](NC(=O)N=c1cc[n-]cc1)C(=O)[N-]CCc1ccccc1 (3D coordinates assigned)
CSC[C@@H](NC(=O)N=c1cc[n-]cc1)C(=O)[N-]CCc1ccccc1 (optimized conformer: 45.08942892777867 kcal/mol)

>  <smiles>  (59) 
CSCC(NC(=O)N=c1cc[nH]cc1)C(=O)NCCc1ccccc1

>  <score_type>  (59) 
oracle

>  <origin>  (59) 
adg

>  <m_score__min__energy>  (59) 
-11.380000000000001

>  <m_primary>  (59) 
energy

$$$$
59:0
     RDKit          3D

 45 47  0  0  0  0  0  0  0  0999 V2000
   56.2240   27.1380   45.5080 N   0  0  0  0  0  0  0  0  0  0  0  0
   57.5330   28.1820   45.0840 S   0  0  0  0  0  0  0  0  0  0  0  0
   57.0800   29.1520   44.0270 O   0  0  0  0  0  0  0  0  0  0  0  0
   58.6660   27.3640   44.5320 O   0  0  0  0  0  0  0  0  0  0  0  0
   58.0700   29.0630   46.5100 C   0  0  0  0  0  0  0  0  0  0  0  0
   58.3910   28.3720   47.6870 C   0  0  0  0  0  0  0  0  0  0  0  0
   58.8070   29.0720   48.8230 C   0  0  0  0  0  0  0  0  0  0  0  0
   58.9100   30.4720   48.7930 C   0  0  0  0  0  0  0  0  0  0  0  0
   59.3500   31.2340   50.0160 C   0  0  0  0  0  0  0  0  0  0  0  0
   58.2210   31.6970   50.7570 O   0  0  0  0  0  0  0  0  0  0  0  0
   58.0640   31.6080   52.1520 C   0  0  0  0  0  0  0  0  0  0  0  0
   59.0920   31.9830   53.0400 C   0  0  0  0  0  0  0  0  0  0  0  0
   58.9090   31.8790   54.4200 C   0  0  0  0  0  0  0  0  0  0  0  0
   57.7030   31.4030   54.9300 C   0  0  0  0  0  0  0  0  0  0  0  0
   56.6760   31.0260   54.0640 C   0  0  0  0  0  0  0  0  0  0  0  0
   56.8440   31.1190   52.6680 C   0  0  0  0  0  0  0  0  0  0  0  0
   55.7870   30.7370   51.7620 N   0  0  0  0  0  0  0  0  0  0  0  0
   54.6180   29.9430   52.1450 C   0  0  0  0  0  0  0  0  0  0  0  0
   53.3810   30.8010   52.1760 C   0  0  0  0  0  0  0  0  0  0  0  0
   52.6310   30.9110   53.3600 C   0  0  0  0  0  0  0  0  0  0  0  0
   51.4830   31.7080   53.3950 C   0  0  0  0  0  0  0  0  0  0  0  0
   51.0690   32.3960   52.2500 C   0  0  0  0  0  0  0  0  0  0  0  0
   49.9270   33.1860   52.2930 O   0  0  0  0  0  0  0  0  0  0  0  0
   51.8050   32.2840   51.0630 C   0  0  0  0  0  0  0  0  0  0  0  0
   51.3970   32.9630   49.9220 O   0  0  0  0  0  0  0  0  0  0  0  0
   52.9550   31.4870   51.0260 C   0  0  0  0  0  0  0  0  0  0  0  0
   58.5670   31.1620   47.6200 C   0  0  0  0  0  0  0  0  0  0  0  0
   58.1520   30.4610   46.4850 C   0  0  0  0  0  0  0  0  0  0  0  0
   55.4010   27.4320   44.9360 H   0  0  0  0  0  0  0  0  0  0  0  0
   58.3152   27.2750   47.7165 H   0  0  0  0  0  0  0  0  0  0  0  0
   59.0547   28.5240   49.7441 H   0  0  0  0  0  0  0  0  0  0  0  0
   59.9545   30.5732   50.6547 H   0  0  0  0  0  0  0  0  0  0  0  0
   59.9429   32.1035   49.6959 H   0  0  0  0  0  0  0  0  0  0  0  0
   60.0458   32.3605   52.6427 H   0  0  0  0  0  0  0  0  0  0  0  0
   59.7176   32.1731   55.1053 H   0  0  0  0  0  0  0  0  0  0  0  0
   57.5602   31.3242   56.0178 H   0  0  0  0  0  0  0  0  0  0  0  0
   55.7263   30.6527   54.4748 H   0  0  0  0  0  0  0  0  0  0  0  0
   55.8720   30.9850   50.7510 H   0  0  0  0  0  0  0  0  0  0  0  0
   54.4771   29.1320   51.4153 H   0  0  0  0  0  0  0  0  0  0  0  0
   54.7859   29.5267   53.1493 H   0  0  0  0  0  0  0  0  0  0  0  0
   52.9487   30.3679   54.2623 H   0  0  0  0  0  0  0  0  0  0  0  0
   50.9036   31.7942   54.3260 H   0  0  0  0  0  0  0  0  0  0  0  0
   53.5284   31.3972   50.0916 H   0  0  0  0  0  0  0  0  0  0  0  0
   58.6252   32.2602   47.5941 H   0  0  0  0  0  0  0  0  0  0  0  0
   57.8887   31.0090   45.5683 H   0  0  0  0  0  0  0  0  0  0  0  0
  1  2  1  0
  2  3  2  0
  2  4  2  0
  2  5  1  0
  5  6  2  0
  6  7  1  0
  7  8  2  0
  8  9  1  0
  9 10  1  0
 10 11  1  0
 11 12  2  0
 12 13  1  0
 13 14  2  0
 14 15  1  0
 15 16  2  0
 16 17  1  0
 17 18  1  0
 18 19  1  0
 19 20  2  0
 20 21  1  0
 21 22  2  0
 22 23  1  0
 22 24  1  0
 24 25  1  0
 24 26  2  0
  8 27  1  0
 27 28  2  0
 28  5  1  0
 16 11  1  0
 26 19  1  0
  1 29  1  0
  6 30  1  0
  7 31  1  0
  9 32  1  0
  9 33  1  0
 12 34  1  0
 13 35  1  0
 14 36  1  0
 15 37  1  0
 17 38  1  0
 18 39  1  0
 18 40  1  0
 20 41  1  0
 21 42  1  0
 26 43  1  0
 27 44  1  0
 28 45  1  0
M  CHG  3   1  -1  23  -1  25  -1
M  END
>  <UniqueID>  (60) 
53

>  <SMILES>  (60) 
[NH-]S(=O)(=O)c1ccc(COc2ccccc2NCc2ccc([O-])c([O-])c2)cc1

>  <Energy>  (60) 
47.392025712507404

>  <Genealogy>  (60) 
[NH-]S(=O)(=O)c1ccc(COc2ccccc2NCc2ccc([O-])c([O-])c2)cc1 (protonated)
[NH-]S(=O)(=O)c1ccc(COc2ccccc2NCc2ccc([O-])c([O-])c2)cc1 (3D coordinates assigned)
[NH-]S(=O)(=O)c1ccc(COc2ccccc2NCc2ccc([O-])c([O-])c2)cc1 (optimized conformer: 47.392025712507404 kcal/mol)

>  <smiles>  (60) 
NS(=O)(=O)c1ccc(COc2ccccc2NCc2ccc(O)c(O)c2)cc1

>  <score_type>  (60) 
oracle

>  <origin>  (60) 
adg

>  <m_score__min__energy>  (60) 
-17.739999999999998

>  <m_primary>  (60) 
energy

$$$$
60:0
     RDKit          3D

 36 37  0  0  0  0  0  0  0  0999 V2000
   60.7320   34.0050   46.0100 C   0  0  0  0  0  0  0  0  0  0  0  0
   59.8230   34.0980   47.1990 C   0  0  0  0  0  0  0  0  0  0  0  0
   60.1050   34.9200   48.1140 O   0  0  0  0  0  0  0  0  0  0  0  0
   58.6510   33.2620   47.3150 N   0  0  0  0  0  0  0  0  0  0  0  0
   57.3830   33.6740   46.6980 C   0  0  0  0  0  0  0  0  0  0  0  0
   57.3370   33.2350   45.2330 C   0  0  0  0  0  0  0  0  0  0  0  0
   56.6660   31.9450   45.1100 N   0  0  0  0  0  0  0  0  0  0  0  0
   57.1090   30.9030   44.2360 C   0  0  0  0  0  0  0  0  0  0  0  0
   57.5490   31.1790   43.0870 O   0  0  0  0  0  0  0  0  0  0  0  0
   57.0440   29.5060   44.6810 C   0  0  0  0  0  0  0  0  0  0  0  0
   58.1080   28.6200   44.6990 C   0  0  0  0  0  0  0  0  0  0  0  0
   57.6060   27.4410   45.1960 C   0  0  0  0  0  0  0  0  0  0  0  0
   58.5060   25.9590   45.4610 Cl  0  0  0  0  0  0  0  0  0  0  0  0
   56.2700   27.6680   45.4560 C   0  0  0  0  0  0  0  0  0  0  0  0
   55.3610   26.7130   46.0000 N   0  0  0  0  0  0  0  0  0  0  0  0
   55.9140   28.9300   45.1440 N   0  0  0  0  0  0  0  0  0  0  0  0
   58.6530   32.1270   48.1960 C   0  0  0  0  0  0  0  0  0  0  0  0
   58.1330   32.2260   49.3400 O   0  0  0  0  0  0  0  0  0  0  0  0
   59.2520   30.8490   47.7800 C   0  0  0  0  0  0  0  0  0  0  0  0
   60.1910   30.6700   46.7700 C   0  0  0  0  0  0  0  0  0  0  0  0
   60.5890   29.3360   46.6180 C   0  0  0  0  0  0  0  0  0  0  0  0
   59.9750   28.4630   47.5060 C   0  0  0  0  0  0  0  0  0  0  0  0
   58.9370   29.3540   48.4840 S   0  0  0  0  0  0  0  0  0  0  0  0
   61.7723   33.8986   46.3512 H   0  0  0  0  0  0  0  0  0  0  0  0
   60.4538   33.1306   45.4033 H   0  0  0  0  0  0  0  0  0  0  0  0
   60.6367   34.9176   45.4033 H   0  0  0  0  0  0  0  0  0  0  0  0
   56.5472   33.2099   47.2421 H   0  0  0  0  0  0  0  0  0  0  0  0
   57.3019   34.7700   46.7455 H   0  0  0  0  0  0  0  0  0  0  0  0
   56.7883   33.9865   44.6464 H   0  0  0  0  0  0  0  0  0  0  0  0
   58.3661   33.1396   44.8563 H   0  0  0  0  0  0  0  0  0  0  0  0
   59.1421   28.8188   44.3810 H   0  0  0  0  0  0  0  0  0  0  0  0
   54.9350   25.9850   45.3840 H   0  0  0  0  0  0  0  0  0  0  0  0
   55.1040   26.7340   47.0120 H   0  0  0  0  0  0  0  0  0  0  0  0
   60.5815   31.4928   46.1531 H   0  0  0  0  0  0  0  0  0  0  0  0
   61.3208   29.0098   45.8643 H   0  0  0  0  0  0  0  0  0  0  0  0
   60.1391   27.3767   47.5604 H   0  0  0  0  0  0  0  0  0  0  0  0
  1  2  1  0
  2  3  2  0
  2  4  1  0
  4  5  1  0
  5  6  1  0
  6  7  1  0
  7  8  1  0
  8  9  2  0
  8 10  1  0
 10 11  2  0
 11 12  1  0
 12 13  1  0
 12 14  2  0
 14 15  1  0
 14 16  1  0
  4 17  1  0
 17 18  2  0
 17 19  1  0
 19 20  2  0
 20 21  1  0
 21 22  2  0
 22 23  1  0
 16 10  1  0
 23 19  1  0
  1 24  1  0
  1 25  1  0
  1 26  1  0
  5 27  1  0
  5 28  1  0
  6 29  1  0
  6 30  1  0
 11 31  1  0
 15 32  1  0
 15 33  1  0
 20 34  1  0
 21 35  1  0
 22 36  1  0
M  CHG  2   7  -1  16  -1
M  END
>  <UniqueID>  (61) 
54

>  <SMILES>  (61) 
CC(=O)N(CC[N-]C(=O)c1cc(Cl)c(N)[n-]1)C(=O)c1cccs1

>  <Energy>  (61) 
85.08331748531003

>  <Genealogy>  (61) 
CC(=O)N(CC[N-]C(=O)c1cc(Cl)c(N)[n-]1)C(=O)c1cccs1 (protonated)
CC(=O)N(CC[N-]C(=O)c1cc(Cl)c(N)[n-]1)C(=O)c1cccs1 (3D coordinates assigned)
CC(=O)N(CC[N-]C(=O)c1cc(Cl)c(N)[n-]1)C(=O)c1cccs1 (optimized conformer: 85.08331748531003 kcal/mol)

>  <smiles>  (61) 
CC(=O)N(CCNC(=O)c1cc(Cl)c(N)[nH]1)C(=O)c1cccs1

>  <score_type>  (61) 
oracle

>  <origin>  (61) 
adg

>  <m_score__min__energy>  (61) 
-10.640000000000001

>  <m_primary>  (61) 
energy

$$$$
61:0
     RDKit          3D

 58 61  0  0  0  0  0  0  0  0999 V2000
   54.5090   22.9510   48.1490 C   0  0  0  0  0  0  0  0  0  0  0  0
   55.8070   22.7260   47.4450 C   0  0  0  0  0  0  0  0  0  0  0  0
   56.8080   21.9690   47.9350 N   0  0  0  0  0  0  0  0  0  0  0  0
   57.7670   21.9910   47.0560 O   0  0  0  0  0  0  0  0  0  0  0  0
   57.4410   22.7190   46.0100 C   0  0  0  0  0  0  0  0  0  0  0  0
   58.3360   22.9350   44.8340 C   0  0  0  0  0  0  0  0  0  0  0  0
   56.1640   23.2100   46.2020 C   0  0  0  0  0  0  0  0  0  0  0  0
   55.2550   24.3510   45.2080 S   0  0  0  0  0  0  0  0  0  0  0  0
   53.8350   23.8690   45.0770 O   0  0  0  0  0  0  0  0  0  0  0  0
   55.8480   24.4560   43.8280 O   0  0  0  0  0  0  0  0  0  0  0  0
   55.2600   25.8960   46.0010 N   0  0  0  0  0  0  0  0  0  0  0  0
   56.4460   26.6890   46.1460 C   0  0  0  0  0  0  0  0  0  0  0  0
   56.6420   27.8410   45.3660 C   0  0  0  0  0  0  0  0  0  0  0  0
   57.8240   28.5900   45.4820 C   0  0  0  0  0  0  0  0  0  0  0  0
   57.9920   29.8630   44.6780 C   0  0  2  0  0  0  0  0  0  0  0  0
   59.2670   29.8830   44.0940 O   0  0  0  0  0  0  0  0  0  0  0  0
   57.7920   31.1060   45.5680 C   0  0  0  0  0  0  0  0  0  0  0  0
   59.0530   31.5280   46.1810 N   0  0  0  0  0  0  0  0  0  0  0  0
   59.1140   32.4880   47.2510 C   0  0  0  0  0  0  0  0  0  0  0  0
   58.0600   33.0740   47.6260 O   0  0  0  0  0  0  0  0  0  0  0  0
   60.3960   32.7760   47.9490 C   0  0  0  0  0  0  0  0  0  0  0  0
   61.6140   32.2230   47.4990 C   0  0  0  0  0  0  0  0  0  0  0  0
   62.8050   32.4570   48.1980 C   0  0  0  0  0  0  0  0  0  0  0  0
   62.8110   33.2620   49.3540 C   0  0  0  0  0  0  0  0  0  0  0  0
   64.0720   33.4720   50.1130 C   0  0  0  0  0  0  0  0  0  0  0  0
   65.2660   32.8490   49.7050 C   0  0  0  0  0  0  0  0  0  0  0  0
   66.4460   33.0690   50.4120 C   0  0  0  0  0  0  0  0  0  0  0  0
   66.4300   33.9150   51.5270 C   0  0  0  0  0  0  0  0  0  0  0  0
   65.2700   34.5110   51.9160 N   0  0  0  0  0  0  0  0  0  0  0  0
   64.1040   34.3060   51.2470 C   0  0  0  0  0  0  0  0  0  0  0  0
   61.6050   33.8530   49.7810 C   0  0  0  0  0  0  0  0  0  0  0  0
   60.4090   33.6140   49.0850 C   0  0  0  0  0  0  0  0  0  0  0  0
   58.7970   28.1930   46.4210 C   0  0  0  0  0  0  0  0  0  0  0  0
   58.5870   27.0650   47.2250 C   0  0  0  0  0  0  0  0  0  0  0  0
   57.4180   26.3200   47.0930 C   0  0  0  0  0  0  0  0  0  0  0  0
   57.2380   25.1930   47.8820 O   0  0  0  0  0  0  0  0  0  0  0  0
   54.6720   22.9227   49.2365 H   0  0  0  0  0  0  0  0  0  0  0  0
   54.1030   23.9329   47.8645 H   0  0  0  0  0  0  0  0  0  0  0  0
   53.7962   22.1630   47.8645 H   0  0  0  0  0  0  0  0  0  0  0  0
   59.3495   23.1796   45.1846 H   0  0  0  0  0  0  0  0  0  0  0  0
   58.3695   22.0192   44.2256 H   0  0  0  0  0  0  0  0  0  0  0  0
   57.9481   23.7653   44.2256 H   0  0  0  0  0  0  0  0  0  0  0  0
   55.8625   28.1590   44.6581 H   0  0  0  0  0  0  0  0  0  0  0  0
   57.2277   29.8857   43.8873 H   0  0  0  0  0  0  0  0  0  0  0  0
   59.1300   29.8440   43.1110 H   0  0  0  0  0  0  0  0  0  0  0  0
   57.3997   31.9287   44.9521 H   0  0  0  0  0  0  0  0  0  0  0  0
   57.0841   30.8494   46.3699 H   0  0  0  0  0  0  0  0  0  0  0  0
   59.9160   31.0190   45.8860 H   0  0  0  0  0  0  0  0  0  0  0  0
   61.6281   31.6024   46.5909 H   0  0  0  0  0  0  0  0  0  0  0  0
   63.7438   32.0083   47.8412 H   0  0  0  0  0  0  0  0  0  0  0  0
   65.2676   32.1872   48.8264 H   0  0  0  0  0  0  0  0  0  0  0  0
   67.3811   32.5827   50.0971 H   0  0  0  0  0  0  0  0  0  0  0  0
   67.3570   34.0985   52.0900 H   0  0  0  0  0  0  0  0  0  0  0  0
   63.1812   34.7942   51.5935 H   0  0  0  0  0  0  0  0  0  0  0  0
   61.6005   34.5063   50.6660 H   0  0  0  0  0  0  0  0  0  0  0  0
   59.4750   34.0834   49.4276 H   0  0  0  0  0  0  0  0  0  0  0  0
   59.7266   28.7721   46.5233 H   0  0  0  0  0  0  0  0  0  0  0  0
   59.3472   26.7672   47.9621 H   0  0  0  0  0  0  0  0  0  0  0  0
  1  2  1  0
  2  3  2  0
  3  4  1  0
  4  5  1  0
  5  6  1  0
  5  7  2  0
  7  8  1  0
  8  9  2  0
  8 10  2  0
  8 11  1  0
 11 12  1  0
 12 13  2  0
 13 14  1  0
 14 15  1  0
 15 16  1  0
 15 17  1  0
 17 18  1  0
 18 19  1  0
 19 20  2  0
 19 21  1  0
 21 22  2  0
 22 23  1  0
 23 24  2  0
 24 25  1  0
 25 26  2  0
 26 27  1  0
 27 28  2  0
 28 29  1  0
 29 30  2  0
 24 31  1  0
 31 32  2  0
 14 33  2  0
 33 34  1  0
 34 35  2  0
 35 36  1  0
  7  2  1  0
 35 12  1  0
 32 21  1  0
 30 25  1  0
  1 37  1  0
  1 38  1  0
  1 39  1  0
  6 40  1  0
  6 41  1  0
  6 42  1  0
 13 43  1  0
 15 44  1  6
 16 45  1  0
 17 46  1  0
 17 47  1  0
 18 48  1  0
 22 49  1  0
 23 50  1  0
 26 51  1  0
 27 52  1  0
 28 53  1  0
 30 54  1  0
 31 55  1  0
 32 56  1  0
 33 57  1  0
 34 58  1  0
M  CHG  2  11  -1  36  -1
M  END
>  <UniqueID>  (62) 
55

>  <SMILES>  (62) 
Cc1noc(C)c1S(=O)(=O)[N-]c1cc([C@H](O)CNC(=O)c2ccc(-c3cccnc3)cc2)ccc1[O-]

>  <Energy>  (62) 
102.9389710673957

>  <Genealogy>  (62) 
Cc1noc(C)c1S(=O)(=O)[N-]c1cc(C(O)CNC(=O)c2ccc(-c3cccnc3)cc2)ccc1[O-] (protonated)
Cc1noc(C)c1S(=O)(=O)[N-]c1cc([C@H](O)CNC(=O)c2ccc(-c3cccnc3)cc2)ccc1[O-] (chirality)
Cc1noc(C)c1S(=O)(=O)[N-]c1cc([C@H](O)CNC(=O)c2ccc(-c3cccnc3)cc2)ccc1[O-] (3D coordinates assigned)
Cc1noc(C)c1S(=O)(=O)[N-]c1cc([C@H](O)CNC(=O)c2ccc(-c3cccnc3)cc2)ccc1[O-] (optimized conformer: 102.9389710673957 kcal/mol)

>  <smiles>  (62) 
Cc1noc(C)c1S(=O)(=O)Nc1cc(C(O)CNC(=O)c2ccc(-c3cccnc3)cc2)ccc1O

>  <score_type>  (62) 
oracle

>  <origin>  (62) 
adg

>  <m_score__min__energy>  (62) 
-13.869999999999999

>  <m_primary>  (62) 
energy

$$$$
62:0
     RDKit          3D

 55 57  0  0  0  0  0  0  0  0999 V2000
   59.4240   33.3750   52.0780 C   0  0  0  0  0  0  0  0  0  0  0  0
   60.2860   32.3600   51.3650 C   0  0  0  0  0  0  0  0  0  0  0  0
   61.5620   32.0930   51.8760 C   0  0  0  0  0  0  0  0  0  0  0  0
   62.3430   31.1080   51.2840 C   0  0  0  0  0  0  0  0  0  0  0  0
   63.6210   30.8670   51.8030 O   0  0  0  0  0  0  0  0  0  0  0  0
   64.8440   31.2750   51.1970 C   0  0  0  0  0  0  0  0  0  0  0  0
   64.7530   32.7710   50.8550 C   0  0  0  0  0  0  0  0  0  0  0  0
   64.9220   33.0740   49.3520 C   0  0  0  0  0  0  0  0  0  0  0  0
   63.6290   33.4590   48.6750 C   0  0  0  0  0  0  0  0  0  0  0  0
   62.5730   34.0220   49.4130 C   0  0  0  0  0  0  0  0  0  0  0  0
   61.3410   34.2700   48.8000 C   0  0  0  0  0  0  0  0  0  0  0  0
   61.1520   33.9660   47.4400 C   0  0  0  0  0  0  0  0  0  0  0  0
   59.9230   34.1830   46.8040 O   0  0  0  0  0  0  0  0  0  0  0  0
   59.1550   33.1840   46.1920 C   0  0  0  0  0  0  0  0  0  0  0  0
   58.1640   33.5590   45.2770 C   0  0  0  0  0  0  0  0  0  0  0  0
   57.3980   32.5880   44.6250 C   0  0  0  0  0  0  0  0  0  0  0  0
   57.6260   31.2270   44.8720 C   0  0  0  0  0  0  0  0  0  0  0  0
   56.6700   29.9930   44.0590 S   0  0  0  0  0  0  0  0  0  0  0  0
   57.6370   28.5090   43.8940 C   0  0  0  0  0  0  0  0  0  0  0  0
   55.4310   29.6920   44.8550 O   0  0  0  0  0  0  0  0  0  0  0  0
   56.2640   30.4860   42.6990 O   0  0  0  0  0  0  0  0  0  0  0  0
   58.6180   30.8470   45.7840 C   0  0  0  0  0  0  0  0  0  0  0  0
   59.3830   31.8160   46.4340 C   0  0  0  0  0  0  0  0  0  0  0  0
   62.2180   33.4540   46.6950 C   0  0  0  0  0  0  0  0  0  0  0  0
   63.4420   33.1890   47.3080 C   0  0  0  0  0  0  0  0  0  0  0  0
   61.8650   30.4370   50.2020 N   0  0  0  0  0  0  0  0  0  0  0  0
   60.6420   30.7250   49.6760 C   0  0  0  0  0  0  0  0  0  0  0  0
   60.2500   30.0820   48.6630 O   0  0  0  0  0  0  0  0  0  0  0  0
   59.8520   31.7000   50.2390 N   0  0  0  0  0  0  0  0  0  0  0  0
   58.5310   32.0130   49.6610 C   0  0  0  0  0  0  0  0  0  0  0  0
   59.5316   33.2483   53.1654 H   0  0  0  0  0  0  0  0  0  0  0  0
   59.7409   34.3893   51.7939 H   0  0  0  0  0  0  0  0  0  0  0  0
   58.3717   33.2266   51.7939 H   0  0  0  0  0  0  0  0  0  0  0  0
   61.9431   32.6585   52.7391 H   0  0  0  0  0  0  0  0  0  0  0  0
   65.6770   31.1054   51.8951 H   0  0  0  0  0  0  0  0  0  0  0  0
   65.0195   30.6923   50.2807 H   0  0  0  0  0  0  0  0  0  0  0  0
   63.7681   33.1414   51.1755 H   0  0  0  0  0  0  0  0  0  0  0  0
   65.5802   33.2719   51.3793 H   0  0  0  0  0  0  0  0  0  0  0  0
   65.6357   33.9035   49.2405 H   0  0  0  0  0  0  0  0  0  0  0  0
   65.2817   32.1526   48.8708 H   0  0  0  0  0  0  0  0  0  0  0  0
   62.7164   34.2680   50.4755 H   0  0  0  0  0  0  0  0  0  0  0  0
   60.5163   34.7046   49.3839 H   0  0  0  0  0  0  0  0  0  0  0  0
   57.9868   34.6247   45.0697 H   0  0  0  0  0  0  0  0  0  0  0  0
   56.6141   32.8929   43.9161 H   0  0  0  0  0  0  0  0  0  0  0  0
   57.8888   28.1225   44.8926 H   0  0  0  0  0  0  0  0  0  0  0  0
   57.0576   27.7531   43.3437 H   0  0  0  0  0  0  0  0  0  0  0  0
   58.5625   28.7338   43.3437 H   0  0  0  0  0  0  0  0  0  0  0  0
   58.7949   29.7808   45.9888 H   0  0  0  0  0  0  0  0  0  0  0  0
   60.1690   31.5092   47.1398 H   0  0  0  0  0  0  0  0  0  0  0  0
   62.0907   33.2592   45.6199 H   0  0  0  0  0  0  0  0  0  0  0  0
   64.2677   32.7654   46.7174 H   0  0  0  0  0  0  0  0  0  0  0  0
   62.4530   29.7140   49.7330 H   0  0  0  0  0  0  0  0  0  0  0  0
   57.8074   32.1844   50.4716 H   0  0  0  0  0  0  0  0  0  0  0  0
   58.6075   32.9179   49.0403 H   0  0  0  0  0  0  0  0  0  0  0  0
   58.1933   31.1700   49.0403 H   0  0  0  0  0  0  0  0  0  0  0  0
  1  2  1  0
  2  3  2  0
  3  4  1  0
  4  5  1  0
  5  6  1  0
  6  7  1  0
  7  8  1  0
  8  9  1  0
  9 10  2  0
 10 11  1  0
 11 12  2  0
 12 13  1  0
 13 14  1  0
 14 15  2  0
 15 16  1  0
 16 17  2  0
 17 18  1  0
 18 19  1  0
 18 20  2  0
 18 21  2  0
 17 22  1  0
 22 23  2  0
 12 24  1  0
 24 25  2  0
  4 26  2  0
 26 27  1  0
 27 28  2  0
 27 29  1  0
 29 30  1  0
 29  2  1  0
 25  9  1  0
 23 14  1  0
  1 31  1  0
  1 32  1  0
  1 33  1  0
  3 34  1  0
  6 35  1  0
  6 36  1  0
  7 37  1  0
  7 38  1  0
  8 39  1  0
  8 40  1  0
 10 41  1  0
 11 42  1  0
 15 43  1  0
 16 44  1  0
 19 45  1  0
 19 46  1  0
 19 47  1  0
 22 48  1  0
 23 49  1  0
 24 50  1  0
 25 51  1  0
 26 52  1  0
 30 53  1  0
 30 54  1  0
 30 55  1  0
M  CHG  1  26   1
M  END
>  <UniqueID>  (63) 
56

>  <SMILES>  (63) 
Cc1cc(OCCCc2ccc(Oc3ccc(S(C)(=O)=O)cc3)cc2)[nH+]c(=O)n1C

>  <Energy>  (63) 
61.29117881194264

>  <Genealogy>  (63) 
Cc1cc(OCCCc2ccc(Oc3ccc(S(C)(=O)=O)cc3)cc2)[nH+]c(=O)n1C (protonated)
Cc1cc(OCCCc2ccc(Oc3ccc(S(C)(=O)=O)cc3)cc2)[nH+]c(=O)n1C (3D coordinates assigned)
Cc1cc(OCCCc2ccc(Oc3ccc(S(C)(=O)=O)cc3)cc2)[nH+]c(=O)n1C (optimized conformer: 61.29117881194264 kcal/mol)

>  <smiles>  (63) 
Cc1cc(OCCCc2ccc(Oc3ccc(S(C)(=O)=O)cc3)cc2)nc(=O)n1C

>  <score_type>  (63) 
oracle

>  <origin>  (63) 
adg

>  <m_score__min__energy>  (63) 
-8.0399999999999991

>  <m_primary>  (63) 
energy

$$$$
63:0
     RDKit          3D

 32 34  0  0  0  0  0  0  0  0999 V2000
   57.2220   34.5960   44.5530 O   0  0  0  0  0  0  0  0  0  0  0  0
   57.7750   33.4480   44.7490 C   0  0  0  0  0  0  0  0  0  0  0  0
   57.4770   32.4570   43.8200 N   0  0  0  0  0  0  0  0  0  0  0  0
   57.0570   31.2760   43.9840 C   0  0  0  0  0  0  0  0  0  0  0  0
   56.0560   30.9670   44.8580 N   0  0  0  0  0  0  0  0  0  0  0  0
   55.8600   29.6710   44.8010 N   0  0  0  0  0  0  0  0  0  0  0  0
   56.6870   29.1180   43.9310 N   0  0  0  0  0  0  0  0  0  0  0  0
   57.4090   30.0970   43.4400 N   0  0  0  0  0  0  0  0  0  0  0  0
   58.6370   33.3170   45.9050 C   0  0  0  0  0  0  0  0  0  0  0  0
   59.0170   34.4260   46.6270 C   0  0  0  0  0  0  0  0  0  0  0  0
   59.8410   34.2810   47.7460 C   0  0  0  0  0  0  0  0  0  0  0  0
   60.2720   33.0040   48.1250 C   0  0  0  0  0  0  0  0  0  0  0  0
   59.9030   31.8850   47.4150 C   0  0  0  0  0  0  0  0  0  0  0  0
   60.2570   30.6020   47.6880 O   0  0  0  0  0  0  0  0  0  0  0  0
   59.8160   29.4440   47.0950 C   0  0  0  0  0  0  0  0  0  0  0  0
   58.9340   28.5470   47.6300 C   0  0  0  0  0  0  0  0  0  0  0  0
   58.5860   27.4060   46.8950 C   0  0  0  0  0  0  0  0  0  0  0  0
   59.1110   27.1670   45.6460 C   0  0  0  0  0  0  0  0  0  0  0  0
   60.0070   28.0720   45.0910 C   0  0  0  0  0  0  0  0  0  0  0  0
   60.3300   29.1740   45.8260 C   0  0  0  0  0  0  0  0  0  0  0  0
   59.0770   32.0900   46.3020 C   0  0  0  0  0  0  0  0  0  0  0  0
   56.6970   28.0860   43.7270 H   0  0  0  0  0  0  0  0  0  0  0  0
   58.1550   29.9810   42.7240 H   0  0  0  0  0  0  0  0  0  0  0  0
   58.6722   35.4254   46.3231 H   0  0  0  0  0  0  0  0  0  0  0  0
   60.1490   35.1640   48.3252 H   0  0  0  0  0  0  0  0  0  0  0  0
   60.9185   32.8933   49.0080 H   0  0  0  0  0  0  0  0  0  0  0  0
   58.5021   28.7191   48.6269 H   0  0  0  0  0  0  0  0  0  0  0  0
   57.8766   26.6846   47.3266 H   0  0  0  0  0  0  0  0  0  0  0  0
   58.8225   26.2632   45.0892 H   0  0  0  0  0  0  0  0  0  0  0  0
   60.4405   27.9054   44.0939 H   0  0  0  0  0  0  0  0  0  0  0  0
   61.0392   29.8943   45.3922 H   0  0  0  0  0  0  0  0  0  0  0  0
   58.7666   31.2121   45.7164 H   0  0  0  0  0  0  0  0  0  0  0  0
  1  2  2  0
  2  3  1  0
  3  4  2  3
  4  5  1  0
  5  6  2  0
  6  7  1  0
  7  8  1  0
  2  9  1  0
  9 10  2  0
 10 11  1  0
 11 12  2  0
 12 13  1  0
 13 14  1  0
 14 15  1  0
 15 16  2  0
 16 17  1  0
 17 18  2  0
 18 19  1  0
 19 20  2  0
 13 21  2  0
  8  4  1  0
 21  9  1  0
 20 15  1  0
  7 22  1  0
  8 23  1  0
 10 24  1  0
 11 25  1  0
 12 26  1  0
 16 27  1  0
 17 28  1  0
 18 29  1  0
 19 30  1  0
 20 31  1  0
 21 32  1  0
M  END
>  <smiles>  (64) 
O=C(N=c1nn[nH][nH]1)c1cccc(Oc2ccccc2)c1

>  <score_type>  (64) 
oracle

>  <origin>  (64) 
adg

>  <m_score__min__energy>  (64) 
-8.4800000000000004

>  <m_primary>  (64) 
energy

$$$$
64:0
     RDKit          3D

 41 43  0  0  1  0  0  0  0  0999 V2000
   64.5710   33.3760   48.5550 N   0  0  0  0  0  0  0  0  0  0  0  0
   63.4020   33.0200   48.1340 C   0  0  0  0  0  0  0  0  0  0  0  0
   62.3890   33.9130   48.3000 N   0  0  0  0  0  0  0  0  0  0  0  0
   61.1340   33.6360   47.8950 C   0  0  0  0  0  0  0  0  0  0  0  0
   60.0220   34.6280   48.0810 C   0  0  0  0  0  0  0  0  0  0  0  0
   59.6800   35.1790   46.7250 C   0  0  0  0  0  0  0  0  0  0  0  0
   58.8960   34.2370   45.8980 C   0  0  0  0  0  0  0  0  0  0  0  0
   59.2280   34.0430   44.5800 C   0  0  0  0  0  0  0  0  0  0  0  0
   58.5070   33.1620   43.7750 C   0  0  0  0  0  0  0  0  0  0  0  0
   57.4320   32.4660   44.3150 C   0  0  0  0  0  0  0  0  0  0  0  0
   57.1160   32.6770   45.6510 C   0  0  0  0  0  0  0  0  0  0  0  0
   57.8320   33.5500   46.4440 C   0  0  0  0  0  0  0  0  0  0  0  0
   60.9010   32.4420   47.3160 N   0  0  0  0  0  0  0  0  0  0  0  0
   61.9000   31.5540   47.1500 C   0  0  0  0  0  0  0  0  0  0  0  0
   61.6550   30.4150   46.5940 N   0  0  0  0  0  0  0  0  0  0  0  0
   60.3550   29.9320   46.3510 C   0  0  0  0  0  0  0  0  0  0  0  0
   59.9690   29.6910   45.0390 C   0  0  0  0  0  0  0  0  0  0  0  0
   58.7200   29.2190   44.7060 C   0  0  0  0  0  0  0  0  0  0  0  0
   57.8030   28.9720   45.7110 C   0  0  0  0  0  0  0  0  0  0  0  0
   56.5120   28.4860   45.3870 N   0  0  0  0  0  0  0  0  0  0  0  0
   55.6590   29.2460   44.8960 O   0  0  0  0  0  0  0  0  0  0  0  0
   56.2240   27.1510   45.6290 O   0  0  0  0  0  0  0  0  0  0  0  0
   58.1430   29.1980   47.0340 C   0  0  0  0  0  0  0  0  0  0  0  0
   59.4210   29.6770   47.3330 C   0  0  0  0  0  0  0  0  0  0  0  0
   63.1530   31.8310   47.5550 N   0  0  0  0  0  0  0  0  0  0  0  0
   65.3810   33.1110   47.9390 H   0  0  0  0  0  0  0  0  0  0  0  0
   62.5410   34.8470   48.7460 H   0  0  0  0  0  0  0  0  0  0  0  0
   59.1433   34.1304   48.5172 H   0  0  0  0  0  0  0  0  0  0  0  0
   60.3311   35.4350   48.7616 H   0  0  0  0  0  0  0  0  0  0  0  0
   59.0931   36.0997   46.8589 H   0  0  0  0  0  0  0  0  0  0  0  0
   60.6273   35.3679   46.1988 H   0  0  0  0  0  0  0  0  0  0  0  0
   60.0787   34.5929   44.1511 H   0  0  0  0  0  0  0  0  0  0  0  0
   58.7868   33.0189   42.7208 H   0  0  0  0  0  0  0  0  0  0  0  0
   56.8467   31.7663   43.7004 H   0  0  0  0  0  0  0  0  0  0  0  0
   56.2683   32.1310   46.0906 H   0  0  0  0  0  0  0  0  0  0  0  0
   57.5575   33.6963   47.4991 H   0  0  0  0  0  0  0  0  0  0  0  0
   60.6915   29.8854   44.2326 H   0  0  0  0  0  0  0  0  0  0  0  0
   58.4545   29.0405   43.6536 H   0  0  0  0  0  0  0  0  0  0  0  0
   57.4177   29.0033   47.8378 H   0  0  0  0  0  0  0  0  0  0  0  0
   59.6905   29.8563   48.3843 H   0  0  0  0  0  0  0  0  0  0  0  0
   63.9200   31.1500   47.4280 H   0  0  0  0  0  0  0  0  0  0  0  0
  1  2  2  3
  2  3  1  0
  3  4  1  0
  4  5  1  0
  5  6  1  0
  6  7  1  0
  7  8  2  0
  8  9  1  0
  9 10  2  0
 10 11  1  0
 11 12  2  0
  4 13  2  0
 13 14  1  0
 14 15  2  0
 15 16  1  0
 16 17  2  0
 17 18  1  0
 18 19  2  0
 19 20  1  0
 20 21  2  0
 20 22  1  0
 19 23  1  0
 23 24  2  0
 14 25  1  0
 25  2  1  0
 12  7  1  0
 24 16  1  0
  1 26  1  0
  3 27  1  0
  5 28  1  0
  5 29  1  0
  6 30  1  0
  6 31  1  0
  8 32  1  0
  9 33  1  0
 10 34  1  0
 11 35  1  0
 12 36  1  0
 17 37  1  0
 18 38  1  0
 23 39  1  0
 24 40  1  0
 25 41  1  0
M  CHG  2  20   1  22  -1
M  END
>  <smiles>  (65) 
N=c1[nH]c(CCc2ccccc2)nc(=Nc2ccc([N+](=O)[O-])cc2)[nH]1

>  <score_type>  (65) 
oracle

>  <origin>  (65) 
adg

>  <m_score__min__energy>  (65) 
-7.9699999999999998

>  <m_primary>  (65) 
energy

$$$$
65:0
     RDKit          3D

 51 53  0  0  0  0  0  0  0  0999 V2000
   57.7650   26.0510   43.8930 C   0  0  0  0  0  0  0  0  0  0  0  0
   57.9600   26.3040   45.2810 O   0  0  0  0  0  0  0  0  0  0  0  0
   58.6430   27.4180   45.7950 C   0  0  0  0  0  0  0  0  0  0  0  0
   58.4020   27.9210   47.0870 C   0  0  0  0  0  0  0  0  0  0  0  0
   59.1100   29.0310   47.5530 C   0  0  0  0  0  0  0  0  0  0  0  0
   60.0820   29.6460   46.7470 C   0  0  0  0  0  0  0  0  0  0  0  0
   60.8330   30.8550   47.2440 C   0  0  0  0  0  0  0  0  0  0  0  0
   60.0920   31.5290   48.3270 N   0  0  0  0  0  0  0  0  0  0  0  0
   60.9440   31.9950   49.4390 C   0  0  0  0  0  0  0  0  0  0  0  0
   62.2440   32.6250   49.0060 C   0  0  0  0  0  0  0  0  0  0  0  0
   63.4700   32.4440   49.6360 C   0  0  0  0  0  0  0  0  0  0  0  0
   64.5340   33.0670   48.9730 C   0  0  0  0  0  0  0  0  0  0  0  0
   64.1590   33.7180   47.8060 C   0  0  0  0  0  0  0  0  0  0  0  0
   62.5050   33.5110   47.5980 S   0  0  0  0  0  0  0  0  0  0  0  0
   58.9650   32.7460   47.7510 S   0  0  0  0  0  0  0  0  0  0  0  0
   57.7240   32.7080   48.5990 O   0  0  0  0  0  0  0  0  0  0  0  0
   59.5860   34.1060   47.9130 O   0  0  0  0  0  0  0  0  0  0  0  0
   58.4910   32.5240   46.0630 C   0  0  0  0  0  0  0  0  0  0  0  0
   58.8540   33.4650   45.0940 C   0  0  0  0  0  0  0  0  0  0  0  0
   58.5050   33.2720   43.7580 C   0  0  0  0  0  0  0  0  0  0  0  0
   57.7590   32.1480   43.3670 C   0  0  0  0  0  0  0  0  0  0  0  0
   57.3980   31.9910   41.9120 C   0  0  0  0  0  0  0  0  0  0  0  0
   57.3620   31.2010   44.3470 C   0  0  0  0  0  0  0  0  0  0  0  0
   56.6000   29.9740   44.0020 C   0  0  0  0  0  0  0  0  0  0  0  0
   57.1160   29.0360   43.0550 N   0  0  0  0  0  0  0  0  0  0  0  0
   55.4750   29.7600   44.5260 O   0  0  0  0  0  0  0  0  0  0  0  0
   57.7190   31.4180   45.6900 C   0  0  0  0  0  0  0  0  0  0  0  0
   60.3010   29.1580   45.4490 C   0  0  0  0  0  0  0  0  0  0  0  0
   59.5920   28.0470   44.9820 C   0  0  0  0  0  0  0  0  0  0  0  0
   57.0978   25.1854   43.7683 H   0  0  0  0  0  0  0  0  0  0  0  0
   57.3119   26.9344   43.4194 H   0  0  0  0  0  0  0  0  0  0  0  0
   58.7347   25.8378   43.4194 H   0  0  0  0  0  0  0  0  0  0  0  0
   57.6533   27.4382   47.7322 H   0  0  0  0  0  0  0  0  0  0  0  0
   58.9049   29.4265   48.5587 H   0  0  0  0  0  0  0  0  0  0  0  0
   61.8153   30.5373   47.6237 H   0  0  0  0  0  0  0  0  0  0  0  0
   60.9527   31.5610   46.4090 H   0  0  0  0  0  0  0  0  0  0  0  0
   60.3773   32.7389   50.0182 H   0  0  0  0  0  0  0  0  0  0  0  0
   61.2077   31.1037   50.0273 H   0  0  0  0  0  0  0  0  0  0  0  0
   63.5921   31.8675   50.5648 H   0  0  0  0  0  0  0  0  0  0  0  0
   65.5699   33.0428   49.3422 H   0  0  0  0  0  0  0  0  0  0  0  0
   64.8291   34.2735   47.1335 H   0  0  0  0  0  0  0  0  0  0  0  0
   59.4181   34.3625   45.3876 H   0  0  0  0  0  0  0  0  0  0  0  0
   58.8172   34.0078   43.0022 H   0  0  0  0  0  0  0  0  0  0  0  0
   56.3921   31.5536   41.8289 H   0  0  0  0  0  0  0  0  0  0  0  0
   57.4110   32.9761   41.4226 H   0  0  0  0  0  0  0  0  0  0  0  0
   58.1274   31.3288   41.4226 H   0  0  0  0  0  0  0  0  0  0  0  0
   56.5490   28.2020   42.7830 H   0  0  0  0  0  0  0  0  0  0  0  0
   58.0790   29.1330   42.6630 H   0  0  0  0  0  0  0  0  0  0  0  0
   57.3858   30.7065   46.4599 H   0  0  0  0  0  0  0  0  0  0  0  0
   61.0347   29.6526   44.7955 H   0  0  0  0  0  0  0  0  0  0  0  0
   59.7818   27.6648   43.9681 H   0  0  0  0  0  0  0  0  0  0  0  0
  1  2  1  0
  2  3  1  0
  3  4  2  0
  4  5  1  0
  5  6  2  0
  6  7  1  0
  7  8  1  0
  8  9  1  0
  9 10  1  0
 10 11  2  0
 11 12  1  0
 12 13  2  0
 13 14  1  0
  8 15  1  0
 15 16  2  0
 15 17  2  0
 15 18  1  0
 18 19  2  0
 19 20  1  0
 20 21  2  0
 21 22  1  0
 21 23  1  0
 23 24  1  0
 24 25  1  0
 24 26  2  0
 23 27  2  0
  6 28  1  0
 28 29  2  0
 29  3  1  0
 14 10  1  0
 27 18  1  0
  1 30  1  0
  1 31  1  0
  1 32  1  0
  4 33  1  0
  5 34  1  0
  7 35  1  0
  7 36  1  0
  9 37  1  0
  9 38  1  0
 11 39  1  0
 12 40  1  0
 13 41  1  0
 19 42  1  0
 20 43  1  0
 22 44  1  0
 22 45  1  0
 22 46  1  0
 25 47  1  0
 25 48  1  0
 27 49  1  0
 28 50  1  0
 29 51  1  0
M  END
>  <UniqueID>  (66) 
57

>  <SMILES>  (66) 
COc1ccc(CN(Cc2cccs2)S(=O)(=O)c2ccc(C)c(C(N)=O)c2)cc1

>  <Energy>  (66) 
82.82261914856589

>  <Genealogy>  (66) 
COc1ccc(CN(Cc2cccs2)S(=O)(=O)c2ccc(C)c(C(N)=O)c2)cc1 (3D coordinates assigned)
COc1ccc(CN(Cc2cccs2)S(=O)(=O)c2ccc(C)c(C(N)=O)c2)cc1 (optimized conformer: 82.82261914856589 kcal/mol)

>  <smiles>  (66) 
COc1ccc(CN(Cc2cccs2)S(=O)(=O)c2ccc(C)c(C(N)=O)c2)cc1

>  <score_type>  (66) 
oracle

>  <origin>  (66) 
adg

>  <m_score__min__energy>  (66) 
-9.4499999999999993

>  <m_primary>  (66) 
energy

$$$$
66:0
     RDKit          3D

 49 51  0  0  0  0  0  0  0  0999 V2000
   57.2330   21.0750   42.9560 C   0  0  0  0  0  0  0  0  0  0  0  0
   56.2910   22.2240   42.6160 C   0  0  0  0  0  0  0  0  0  0  0  0
   56.3370   23.2820   43.6860 C   0  0  0  0  0  0  0  0  0  0  0  0
   57.4460   24.1360   43.7880 C   0  0  0  0  0  0  0  0  0  0  0  0
   57.4720   25.1480   44.7520 C   0  0  0  0  0  0  0  0  0  0  0  0
   56.3790   25.3280   45.6210 C   0  0  0  0  0  0  0  0  0  0  0  0
   56.3420   26.3450   46.5910 O   0  0  0  0  0  0  0  0  0  0  0  0
   57.4800   27.0480   47.0900 C   0  0  0  0  0  0  0  0  0  0  0  0
   57.6570   28.3560   46.3750 C   0  0  0  0  0  0  0  0  0  0  0  0
   58.5130   29.1780   46.7990 O   0  0  0  0  0  0  0  0  0  0  0  0
   56.8690   28.6510   45.2090 N   0  0  0  0  0  0  0  0  0  0  0  0
   57.0630   29.8180   44.3940 C   0  0  0  0  0  0  0  0  0  0  0  0
   56.8260   29.7910   43.0090 C   0  0  0  0  0  0  0  0  0  0  0  0
   57.0270   30.9400   42.2400 C   0  0  0  0  0  0  0  0  0  0  0  0
   57.4750   32.1190   42.8400 C   0  0  0  0  0  0  0  0  0  0  0  0
   57.7380   32.1500   44.2160 C   0  0  0  0  0  0  0  0  0  0  0  0
   58.2900   33.6280   44.9960 S   0  0  0  0  0  0  0  0  0  0  0  0
   59.3170   34.2900   44.1200 O   0  0  0  0  0  0  0  0  0  0  0  0
   57.1460   34.5830   45.1950 O   0  0  0  0  0  0  0  0  0  0  0  0
   58.9800   33.2260   46.5650 C   0  0  0  0  0  0  0  0  0  0  0  0
   60.3640   33.3050   46.7820 C   0  0  0  0  0  0  0  0  0  0  0  0
   60.8980   32.9760   48.0320 C   0  0  0  0  0  0  0  0  0  0  0  0
   60.0550   32.5650   49.0690 C   0  0  0  0  0  0  0  0  0  0  0  0
   58.6760   32.4750   48.8530 C   0  0  0  0  0  0  0  0  0  0  0  0
   58.1390   32.8040   47.6050 C   0  0  0  0  0  0  0  0  0  0  0  0
   57.5370   30.9970   44.9870 C   0  0  0  0  0  0  0  0  0  0  0  0
   55.2760   24.4730   45.5170 C   0  0  0  0  0  0  0  0  0  0  0  0
   55.2490   23.4620   44.5520 C   0  0  0  0  0  0  0  0  0  0  0  0
   57.3129   20.9775   44.0488 H   0  0  0  0  0  0  0  0  0  0  0  0
   56.8384   20.1397   42.5323 H   0  0  0  0  0  0  0  0  0  0  0  0
   58.2275   21.2786   42.5323 H   0  0  0  0  0  0  0  0  0  0  0  0
   56.5937   22.6675   41.6560 H   0  0  0  0  0  0  0  0  0  0  0  0
   55.2651   21.8329   42.5482 H   0  0  0  0  0  0  0  0  0  0  0  0
   58.2993   24.0083   43.1057 H   0  0  0  0  0  0  0  0  0  0  0  0
   58.3497   25.8062   44.8319 H   0  0  0  0  0  0  0  0  0  0  0  0
   57.3420   27.2405   48.1642 H   0  0  0  0  0  0  0  0  0  0  0  0
   58.3755   26.4316   46.9223 H   0  0  0  0  0  0  0  0  0  0  0  0
   56.2480   27.8980   44.8360 H   0  0  0  0  0  0  0  0  0  0  0  0
   56.4814   28.8630   42.5293 H   0  0  0  0  0  0  0  0  0  0  0  0
   56.8317   30.9160   41.1578 H   0  0  0  0  0  0  0  0  0  0  0  0
   57.6215   33.0239   42.2319 H   0  0  0  0  0  0  0  0  0  0  0  0
   61.0301   33.6262   45.9676 H   0  0  0  0  0  0  0  0  0  0  0  0
   61.9832   33.0407   48.1996 H   0  0  0  0  0  0  0  0  0  0  0  0
   60.4758   32.3127   50.0535 H   0  0  0  0  0  0  0  0  0  0  0  0
   58.0131   32.1448   49.6664 H   0  0  0  0  0  0  0  0  0  0  0  0
   57.0541   32.7317   47.4382 H   0  0  0  0  0  0  0  0  0  0  0  0
   57.7527   31.0171   46.0655 H   0  0  0  0  0  0  0  0  0  0  0  0
   54.4231   24.5976   46.2004 H   0  0  0  0  0  0  0  0  0  0  0  0
   54.3705   22.8049   44.4717 H   0  0  0  0  0  0  0  0  0  0  0  0
  1  2  1  0
  2  3  1  0
  3  4  2  0
  4  5  1  0
  5  6  2  0
  6  7  1  0
  7  8  1  0
  8  9  1  0
  9 10  2  0
  9 11  1  0
 11 12  1  0
 12 13  2  0
 13 14  1  0
 14 15  2  0
 15 16  1  0
 16 17  1  0
 17 18  2  0
 17 19  2  0
 17 20  1  0
 20 21  2  0
 21 22  1  0
 22 23  2  0
 23 24  1  0
 24 25  2  0
 16 26  2  0
  6 27  1  0
 27 28  2  0
 28  3  1  0
 26 12  1  0
 25 20  1  0
  1 29  1  0
  1 30  1  0
  1 31  1  0
  2 32  1  0
  2 33  1  0
  4 34  1  0
  5 35  1  0
  8 36  1  0
  8 37  1  0
 11 38  1  0
 13 39  1  0
 14 40  1  0
 15 41  1  0
 21 42  1  0
 22 43  1  0
 23 44  1  0
 24 45  1  0
 25 46  1  0
 26 47  1  0
 27 48  1  0
 28 49  1  0
M  END
>  <UniqueID>  (67) 
58

>  <SMILES>  (67) 
CCc1ccc(OCC(=O)Nc2cccc(S(=O)(=O)c3ccccc3)c2)cc1

>  <Energy>  (67) 
50.57673533145069

>  <Genealogy>  (67) 
CCc1ccc(OCC(=O)Nc2cccc(S(=O)(=O)c3ccccc3)c2)cc1 (3D coordinates assigned)
CCc1ccc(OCC(=O)Nc2cccc(S(=O)(=O)c3ccccc3)c2)cc1 (optimized conformer: 50.57673533145069 kcal/mol)

>  <smiles>  (67) 
CCc1ccc(OCC(=O)Nc2cccc(S(=O)(=O)c3ccccc3)c2)cc1

>  <score_type>  (67) 
oracle

>  <origin>  (67) 
adg

>  <m_score__min__energy>  (67) 
-10.4

>  <m_primary>  (67) 
energy

$$$$
67:0
     RDKit          3D

 54 57  0  0  0  0  0  0  0  0999 V2000
   59.7470   27.9950   47.6280 C   0  0  0  0  0  0  0  0  0  0  0  0
   60.1370   29.3430   48.0310 N   0  0  0  0  0  0  0  0  0  0  0  0
   61.1520   30.0720   47.5080 C   0  0  0  0  0  0  0  0  0  0  0  0
   61.2570   31.2910   48.1740 C   0  0  0  0  0  0  0  0  0  0  0  0
   62.3070   32.3380   47.9530 C   0  0  0  0  0  0  0  0  0  0  0  0
   61.6860   33.5590   47.3560 C   0  0  0  0  0  0  0  0  0  0  0  0
   62.2310   34.1090   46.3630 O   0  0  0  0  0  0  0  0  0  0  0  0
   60.5190   34.1250   47.9710 N   0  0  0  0  0  0  0  0  0  0  0  0
   59.3420   34.7010   47.3110 C   0  0  0  0  0  0  0  0  0  0  0  0
   58.1180   33.7720   47.4270 C   0  0  0  0  0  0  0  0  0  0  0  0
   58.0720   32.6560   46.3620 C   0  0  0  0  0  0  0  0  0  0  0  0
   58.7580   33.0010   45.0890 N   0  0  0  0  0  0  0  0  0  0  0  0
   58.1920   32.2560   43.9470 C   0  0  0  0  0  0  0  0  0  0  0  0
   57.5040   31.0020   44.4210 C   0  0  0  0  0  0  0  0  0  0  0  0
   58.2210   30.0120   45.1150 C   0  0  0  0  0  0  0  0  0  0  0  0
   57.5850   28.8330   45.5180 C   0  0  0  0  0  0  0  0  0  0  0  0
   56.2310   28.6290   45.2260 C   0  0  0  0  0  0  0  0  0  0  0  0
   55.6130   27.4480   45.6300 O   0  0  0  0  0  0  0  0  0  0  0  0
   55.5140   29.6110   44.5280 C   0  0  0  0  0  0  0  0  0  0  0  0
   56.1480   30.7910   44.1250 C   0  0  0  0  0  0  0  0  0  0  0  0
   58.7530   34.4510   44.8280 C   0  0  0  0  0  0  0  0  0  0  0  0
   59.6360   35.1600   45.8620 C   0  0  0  0  0  0  0  0  0  0  0  0
   60.2810   31.2720   49.1540 C   0  0  0  0  0  0  0  0  0  0  0  0
   59.9520   32.2030   50.1400 C   0  0  0  0  0  0  0  0  0  0  0  0
   58.9040   31.8850   51.0220 C   0  0  0  0  0  0  0  0  0  0  0  0
   58.2190   30.6540   50.9050 C   0  0  0  0  0  0  0  0  0  0  0  0
   58.5760   29.7310   49.9060 C   0  0  0  0  0  0  0  0  0  0  0  0
   59.6180   30.0760   49.0370 C   0  0  0  0  0  0  0  0  0  0  0  0
   59.5695   27.3815   48.5236 H   0  0  0  0  0  0  0  0  0  0  0  0
   58.8261   28.0436   47.0284 H   0  0  0  0  0  0  0  0  0  0  0  0
   60.5516   27.5443   47.0284 H   0  0  0  0  0  0  0  0  0  0  0  0
   61.7986   29.7487   46.6789 H   0  0  0  0  0  0  0  0  0  0  0  0
   62.7718   32.5980   48.9155 H   0  0  0  0  0  0  0  0  0  0  0  0
   63.0717   31.9464   47.2661 H   0  0  0  0  0  0  0  0  0  0  0  0
   59.0813   35.6223   47.8525 H   0  0  0  0  0  0  0  0  0  0  0  0
   58.1347   33.3008   48.4208 H   0  0  0  0  0  0  0  0  0  0  0  0
   57.2277   34.3985   47.2692 H   0  0  0  0  0  0  0  0  0  0  0  0
   58.5521   31.7593   46.7808 H   0  0  0  0  0  0  0  0  0  0  0  0
   57.0117   32.4960   46.1168 H   0  0  0  0  0  0  0  0  0  0  0  0
   57.4629   32.8933   43.4252 H   0  0  0  0  0  0  0  0  0  0  0  0
   59.0091   31.9765   43.2657 H   0  0  0  0  0  0  0  0  0  0  0  0
   59.2864   30.1649   45.3421 H   0  0  0  0  0  0  0  0  0  0  0  0
   58.1501   28.0644   46.0656 H   0  0  0  0  0  0  0  0  0  0  0  0
   54.7690   27.1110   45.1790 H   0  0  0  0  0  0  0  0  0  0  0  0
   54.4502   29.4532   44.2967 H   0  0  0  0  0  0  0  0  0  0  0  0
   55.5819   31.5565   43.5741 H   0  0  0  0  0  0  0  0  0  0  0  0
   59.1446   34.6431   43.8182 H   0  0  0  0  0  0  0  0  0  0  0  0
   57.7241   34.8330   44.9012 H   0  0  0  0  0  0  0  0  0  0  0  0
   60.6900   34.9454   45.6315 H   0  0  0  0  0  0  0  0  0  0  0  0
   59.4188   36.2367   45.8031 H   0  0  0  0  0  0  0  0  0  0  0  0
   60.4954   33.1557   50.2246 H   0  0  0  0  0  0  0  0  0  0  0  0
   58.6154   32.5986   51.8079 H   0  0  0  0  0  0  0  0  0  0  0  0
   57.4006   30.4164   51.6006 H   0  0  0  0  0  0  0  0  0  0  0  0
   58.0529   28.7681   49.8103 H   0  0  0  0  0  0  0  0  0  0  0  0
  1  2  1  0
  2  3  1  0
  3  4  2  0
  4  5  1  0
  5  6  1  0
  6  7  2  0
  6  8  1  0
  8  9  1  0
  9 10  1  0
 10 11  1  0
 11 12  1  0
 12 13  1  0
 13 14  1  0
 14 15  2  0
 15 16  1  0
 16 17  2  0
 17 18  1  0
 17 19  1  0
 19 20  2  0
 12 21  1  0
 21 22  1  0
  4 23  1  0
 23 24  2  0
 24 25  1  0
 25 26  2  0
 26 27  1  0
 27 28  2  0
 28  2  1  0
 22  9  1  0
 28 23  1  0
 20 14  1  0
  1 29  1  0
  1 30  1  0
  1 31  1  0
  3 32  1  0
  5 33  1  0
  5 34  1  0
  9 35  1  0
 10 36  1  0
 10 37  1  0
 11 38  1  0
 11 39  1  0
 13 40  1  0
 13 41  1  0
 15 42  1  0
 16 43  1  0
 18 44  1  0
 19 45  1  0
 20 46  1  0
 21 47  1  0
 21 48  1  0
 22 49  1  0
 22 50  1  0
 24 51  1  0
 25 52  1  0
 26 53  1  0
 27 54  1  0
M  CHG  1   8  -1
M  END
>  <UniqueID>  (68) 
59

>  <SMILES>  (68) 
Cn1cc(CC(=O)[N-]C2CCN(Cc3ccc(O)cc3)CC2)c2ccccc21

>  <Energy>  (68) 
95.25013004036282

>  <Genealogy>  (68) 
Cn1cc(CC(=O)[N-]C2CCN(Cc3ccc(O)cc3)CC2)c2ccccc21 (protonated)
Cn1cc(CC(=O)[N-]C2CCN(Cc3ccc(O)cc3)CC2)c2ccccc21 (3D coordinates assigned)
Cn1cc(CC(=O)[N-]C2CCN(Cc3ccc(O)cc3)CC2)c2ccccc21 (nonaromatic ring conformer: 95.25013004036282 kcal/mol)

>  <smiles>  (68) 
Cn1cc(CC(=O)NC2CCN(Cc3ccc(O)cc3)CC2)c2ccccc21

>  <score_type>  (68) 
oracle

>  <origin>  (68) 
adg

>  <m_score__min__energy>  (68) 
-10.98

>  <m_primary>  (68) 
energy

$$$$
68:0
     RDKit          3D

 46 47  0  0  0  0  0  0  0  0999 V2000
   59.0370   27.6110   48.0350 C   0  0  0  0  0  0  0  0  0  0  0  0
   59.2300   28.7680   47.0520 C   0  0  2  0  0  0  0  0  0  0  0  0
   59.5120   30.0150   47.7700 N   0  0  0  0  0  0  0  0  0  0  0  0
   60.4900   30.0850   48.8190 C   0  0  0  0  0  0  0  0  0  0  0  0
   61.1600   29.0650   49.1350 O   0  0  0  0  0  0  0  0  0  0  0  0
   60.6830   31.3580   49.5840 C   0  0  0  0  0  0  0  0  0  0  0  0
   61.7040   32.2200   48.8940 C   0  0  0  0  0  0  0  0  0  0  0  0
   62.3640   31.7620   47.7430 C   0  0  0  0  0  0  0  0  0  0  0  0
   63.3360   32.5580   47.1340 C   0  0  0  0  0  0  0  0  0  0  0  0
   63.6480   33.8010   47.6880 C   0  0  0  0  0  0  0  0  0  0  0  0
   63.0100   34.2270   48.8110 N   0  0  0  0  0  0  0  0  0  0  0  0
   62.0580   33.4710   49.4220 C   0  0  0  0  0  0  0  0  0  0  0  0
   58.0030   28.9250   46.2010 C   0  0  0  0  0  0  0  0  0  0  0  0
   57.4900   27.9170   45.6400 O   0  0  0  0  0  0  0  0  0  0  0  0
   57.4410   30.2270   46.0070 N   0  0  0  0  0  0  0  0  0  0  0  0
   57.1900   30.8160   44.6950 C   0  0  2  0  0  0  0  0  0  0  0  0
   56.8230   32.3050   44.8470 C   0  0  0  0  0  0  0  0  0  0  0  0
   57.8780   33.0640   45.6130 C   0  0  0  0  0  0  0  0  0  0  0  0
   57.8800   33.0580   47.0180 C   0  0  0  0  0  0  0  0  0  0  0  0
   58.8440   33.7860   47.7230 C   0  0  0  0  0  0  0  0  0  0  0  0
   59.8060   34.5270   47.0320 C   0  0  0  0  0  0  0  0  0  0  0  0
   59.8030   34.5470   45.6350 C   0  0  0  0  0  0  0  0  0  0  0  0
   58.8420   33.8200   44.9250 C   0  0  0  0  0  0  0  0  0  0  0  0
   56.0790   30.0560   44.0280 C   0  0  0  0  0  0  0  0  0  0  0  0
   55.1450   29.3140   44.8120 N   0  0  0  0  0  0  0  0  0  0  0  0
   55.9560   30.0880   42.7750 O   0  0  0  0  0  0  0  0  0  0  0  0
   59.1004   27.9909   49.0654 H   0  0  0  0  0  0  0  0  0  0  0  0
   58.0501   27.1531   47.8731 H   0  0  0  0  0  0  0  0  0  0  0  0
   59.8219   26.8575   47.8731 H   0  0  0  0  0  0  0  0  0  0  0  0
   60.0898   28.5402   46.4049 H   0  0  0  0  0  0  0  0  0  0  0  0
   58.9720   30.8790   47.5370 H   0  0  0  0  0  0  0  0  0  0  0  0
   59.7267   31.8988   49.6395 H   0  0  0  0  0  0  0  0  0  0  0  0
   61.0355   31.1209   50.5987 H   0  0  0  0  0  0  0  0  0  0  0  0
   62.1157   30.7769   47.3212 H   0  0  0  0  0  0  0  0  0  0  0  0
   63.8509   32.2093   46.2267 H   0  0  0  0  0  0  0  0  0  0  0  0
   64.4111   34.4368   47.2154 H   0  0  0  0  0  0  0  0  0  0  0  0
   61.5644   33.8415   50.3325 H   0  0  0  0  0  0  0  0  0  0  0  0
   58.0952   30.7521   44.0733 H   0  0  0  0  0  0  0  0  0  0  0  0
   56.7190   32.7505   43.8466 H   0  0  0  0  0  0  0  0  0  0  0  0
   55.8787   32.3701   45.4075 H   0  0  0  0  0  0  0  0  0  0  0  0
   57.1213   32.4791   47.5651 H   0  0  0  0  0  0  0  0  0  0  0  0
   58.8447   33.7751   48.8229 H   0  0  0  0  0  0  0  0  0  0  0  0
   60.5663   35.0950   47.5882 H   0  0  0  0  0  0  0  0  0  0  0  0
   60.5577   35.1355   45.0926 H   0  0  0  0  0  0  0  0  0  0  0  0
   58.8409   33.8401   43.8252 H   0  0  0  0  0  0  0  0  0  0  0  0
   55.4640   28.7380   45.6230 H   0  0  0  0  0  0  0  0  0  0  0  0
  1  2  1  0
  2  3  1  0
  3  4  1  0
  4  5  2  0
  4  6  1  0
  6  7  1  0
  7  8  2  0
  8  9  1  0
  9 10  2  0
 10 11  1  0
 11 12  2  0
  2 13  1  0
 13 14  2  0
 13 15  1  0
 15 16  1  0
 16 17  1  0
 17 18  1  0
 18 19  2  0
 19 20  1  0
 20 21  2  0
 21 22  1  0
 22 23  2  0
 16 24  1  0
 24 25  1  0
 24 26  2  0
 12  7  1  0
 23 18  1  0
  1 27  1  0
  1 28  1  0
  1 29  1  0
  2 30  1  6
  3 31  1  0
  6 32  1  0
  6 33  1  0
  8 34  1  0
  9 35  1  0
 10 36  1  0
 12 37  1  0
 16 38  1  6
 17 39  1  0
 17 40  1  0
 19 41  1  0
 20 42  1  0
 21 43  1  0
 22 44  1  0
 23 45  1  0
 25 46  1  0
M  CHG  2  15  -1  25  -1
M  END
>  <UniqueID>  (69) 
60

>  <SMILES>  (69) 
C[C@H](NC(=O)Cc1cccnc1)C(=O)[N-][C@H](Cc1ccccc1)C([NH-])=O

>  <Energy>  (69) 
34.9308935412694

>  <Genealogy>  (69) 
CC(NC(=O)Cc1cccnc1)C(=O)[N-]C(Cc1ccccc1)C([NH-])=O (protonated)
C[C@H](NC(=O)Cc1cccnc1)C(=O)[N-][C@H](Cc1ccccc1)C([NH-])=O (chirality)
C[C@H](NC(=O)Cc1cccnc1)C(=O)[N-][C@H](Cc1ccccc1)C([NH-])=O (3D coordinates assigned)
C[C@H](NC(=O)Cc1cccnc1)C(=O)[N-][C@H](Cc1ccccc1)C([NH-])=O (optimized conformer: 34.9308935412694 kcal/mol)

>  <smiles>  (69) 
CC(NC(=O)Cc1cccnc1)C(=O)NC(Cc1ccccc1)C(N)=O

>  <score_type>  (69) 
oracle

>  <origin>  (69) 
adg

>  <m_score__min__energy>  (69) 
-12.9

>  <m_primary>  (69) 
energy

$$$$
69:0
     RDKit          3D

 42 45  0  0  0  0  0  0  0  0999 V2000
   57.6750   30.3790   45.9810 H   0  0  0  0  0  0  0  0  0  0  0  0
   56.9990   29.7180   45.5370 N   0  0  0  0  0  0  0  0  0  0  0  0
   56.8930   28.4920   45.9390 C   0  0  0  0  0  0  0  0  0  0  0  0
   57.7190   27.8500   46.8460 C   0  0  0  0  0  0  0  0  0  0  0  0
   58.9040   28.3370   47.5880 C   0  0  0  0  0  0  0  0  0  0  0  0
   59.0830   29.6780   47.7230 N   0  0  0  0  0  0  0  0  0  0  0  0
   60.1560   30.2030   48.3760 C   0  0  0  0  0  0  0  0  0  0  0  0
   60.3090   31.4900   48.4910 N   0  0  0  0  0  0  0  0  0  0  0  0
   61.3370   32.2540   47.8430 C   0  0  0  0  0  0  0  0  0  0  0  0
   62.6740   31.9070   48.0760 C   0  0  0  0  0  0  0  0  0  0  0  0
   62.9099   31.0453   48.7178 H   0  0  0  0  0  0  0  0  0  0  0  0
   63.7090   32.6450   47.5010 C   0  0  0  0  0  0  0  0  0  0  0  0
   64.7556   32.3713   47.7005 H   0  0  0  0  0  0  0  0  0  0  0  0
   63.4180   33.7300   46.6730 C   0  0  0  0  0  0  0  0  0  0  0  0
   64.2351   34.3182   46.2298 H   0  0  0  0  0  0  0  0  0  0  0  0
   62.0900   34.0690   46.4070 C   0  0  0  0  0  0  0  0  0  0  0  0
   61.8666   34.9197   45.7464 H   0  0  0  0  0  0  0  0  0  0  0  0
   61.0370   33.3340   46.9750 C   0  0  0  0  0  0  0  0  0  0  0  0
   59.6830   33.6430   46.5990 N   0  0  0  0  0  0  0  0  0  0  0  0
   58.6190   33.6250   47.6100 C   0  0  0  0  0  0  0  0  0  0  0  0
   58.8160   32.8185   48.3317 H   0  0  0  0  0  0  0  0  0  0  0  0
   58.5986   34.5943   48.1296 H   0  0  0  0  0  0  0  0  0  0  0  0
   57.2650   33.3860   46.9410 C   0  0  0  0  0  0  0  0  0  0  0  0
   56.5401   33.0388   47.6920 H   0  0  0  0  0  0  0  0  0  0  0  0
   56.9043   34.3236   46.4930 H   0  0  0  0  0  0  0  0  0  0  0  0
   57.4090   32.4050   45.9350 O   0  0  0  0  0  0  0  0  0  0  0  0
   58.1080   32.9320   44.8160 C   0  0  0  0  0  0  0  0  0  0  0  0
   58.4704   32.0903   44.2076 H   0  0  0  0  0  0  0  0  0  0  0  0
   57.3990   33.5746   44.2734 H   0  0  0  0  0  0  0  0  0  0  0  0
   59.3200   33.8200   45.1880 C   0  0  0  0  0  0  0  0  0  0  0  0
   60.1775   33.5421   44.5575 H   0  0  0  0  0  0  0  0  0  0  0  0
   59.0487   34.8733   45.0235 H   0  0  0  0  0  0  0  0  0  0  0  0
   61.0910   29.3370   48.9470 C   0  0  0  0  0  0  0  0  0  0  0  0
   61.9622   29.7374   49.4862 H   0  0  0  0  0  0  0  0  0  0  0  0
   60.9140   27.9950   48.8300 N   0  0  0  0  0  0  0  0  0  0  0  0
   59.8500   27.4740   48.1660 C   0  0  0  0  0  0  0  0  0  0  0  0
   59.7297   26.3839   48.0813 H   0  0  0  0  0  0  0  0  0  0  0  0
   57.1480   26.5900   46.9650 C   0  0  0  0  0  0  0  0  0  0  0  0
   57.5240   25.7840   47.6123 H   0  0  0  0  0  0  0  0  0  0  0  0
   56.0630   26.5020   46.1680 N   0  0  0  0  0  0  0  0  0  0  0  0
   55.9140   27.6600   45.5470 N   0  0  0  0  0  0  0  0  0  0  0  0
   55.1450   27.8720   44.8740 H   0  0  0  0  0  0  0  0  0  0  0  0
  1  2  1  0
  2  3  2  0
  3  4  1  0
  4  5  1  0
  5  6  1  0
  6  7  1  0
  7  8  2  0
  8  9  1  0
  9 10  2  0
 10 11  1  0
 10 12  1  0
 12 13  1  0
 12 14  2  0
 14 15  1  0
 14 16  1  0
 16 17  1  0
 16 18  2  0
 18 19  1  0
 19 20  1  0
 20 21  1  0
 20 22  1  0
 20 23  1  0
 23 24  1  0
 23 25  1  0
 23 26  1  0
 26 27  1  0
 27 28  1  0
 27 29  1  0
 27 30  1  0
 30 31  1  0
 30 32  1  0
  7 33  1  0
 33 34  1  0
 33 35  2  0
 35 36  1  0
 36 37  1  0
  4 38  2  0
 38 39  1  0
 38 40  1  0
 40 41  1  0
 41 42  1  0
 41  3  1  0
 36  5  2  0
 18  9  1  0
 30 19  1  0
M  CHG  2   6  -1  40  -1
M  END
>  <UniqueID>  (70) 
61

>  <SMILES>  (70) 
[H]/N=c1\[nH][n-]cc1-c1cnc/c(=N/c2ccccc2N2CCOCC2)[n-]1

>  <Energy>  (70) 
98.90027649495995

>  <Genealogy>  (70) 
N=c1[nH][n-]cc1-c1cncc(=Nc2ccccc2N2CCOCC2)[n-]1 (protonated)
[H]/N=c1\[nH][n-]cc1-c1cnc/c(=N/c2ccccc2N2CCOCC2)[n-]1 (cis-trans isomerization)
[H]/N=c1\[nH][n-]cc1-c1cnc/c(=N/c2ccccc2N2CCOCC2)[n-]1 (3D coordinates assigned)
[H]/N=c1\[nH][n-]cc1-c1cnc/c(=N/c2ccccc2N2CCOCC2)[n-]1 (nonaromatic ring conformer: 98.90027649495995 kcal/mol)

>  <smiles>  (70) 
N=c1[nH][nH]cc1-c1cncc(=Nc2ccccc2N2CCOCC2)[nH]1

>  <score_type>  (70) 
oracle

>  <origin>  (70) 
adg

>  <m_score__min__energy>  (70) 
-10.43

>  <m_primary>  (70) 
energy

$$$$
70:0
     RDKit          3D

 48 50  0  0  0  0  0  0  0  0999 V2000
   61.2870   30.6950   49.3210 C   0  0  0  0  0  0  0  0  0  0  0  0
   60.5950   29.9580   48.2280 C   0  0  0  0  0  0  0  0  0  0  0  0
   59.8440   28.8560   48.5720 C   0  0  0  0  0  0  0  0  0  0  0  0
   59.1970   28.1620   47.5560 C   0  0  0  0  0  0  0  0  0  0  0  0
   59.3030   28.5630   46.2430 C   0  0  0  0  0  0  0  0  0  0  0  0
   58.6450   27.8820   45.1080 C   0  0  0  0  0  0  0  0  0  0  0  0
   57.9780   28.7450   44.1870 N   0  0  0  0  0  0  0  0  0  0  0  0
   56.6270   29.1540   44.2650 C   0  0  0  0  0  0  0  0  0  0  0  0
   55.8940   28.7460   45.2130 O   0  0  0  0  0  0  0  0  0  0  0  0
   55.9720   30.0590   43.2850 C   0  0  0  0  0  0  0  0  0  0  0  0
   57.0250   31.3730   42.6820 S   0  0  0  0  0  0  0  0  0  0  0  0
   57.7400   32.3710   43.9580 C   0  0  0  0  0  0  0  0  0  0  0  0
   57.4960   32.0030   45.2410 N   0  0  0  0  0  0  0  0  0  0  0  0
   58.0200   32.7090   46.2460 C   0  0  0  0  0  0  0  0  0  0  0  0
   57.7710   32.3380   47.4110 O   0  0  0  0  0  0  0  0  0  0  0  0
   58.8140   33.8140   46.0360 C   0  0  0  0  0  0  0  0  0  0  0  0
   59.4230   34.6160   47.1230 C   0  0  0  0  0  0  0  0  0  0  0  0
   60.7840   34.2100   47.4900 C   0  0  0  0  0  0  0  0  0  0  0  0
   61.1780   34.2160   48.8290 C   0  0  0  0  0  0  0  0  0  0  0  0
   62.4770   33.8360   49.1410 C   0  0  0  0  0  0  0  0  0  0  0  0
   63.3830   33.4540   48.1520 C   0  0  0  0  0  0  0  0  0  0  0  0
   62.9910   33.4490   46.8190 C   0  0  0  0  0  0  0  0  0  0  0  0
   61.6880   33.8310   46.5140 C   0  0  0  0  0  0  0  0  0  0  0  0
   59.0580   34.1800   44.7420 C   0  0  0  0  0  0  0  0  0  0  0  0
   58.5120   33.4450   43.7590 N   0  0  0  0  0  0  0  0  0  0  0  0
   60.0720   29.6790   45.9520 C   0  0  0  0  0  0  0  0  0  0  0  0
   60.7330   30.4030   46.9240 C   0  0  0  0  0  0  0  0  0  0  0  0
   60.9363   30.3215   50.2944 H   0  0  0  0  0  0  0  0  0  0  0  0
   62.3728   30.5392   49.2381 H   0  0  0  0  0  0  0  0  0  0  0  0
   61.0632   31.7688   49.2381 H   0  0  0  0  0  0  0  0  0  0  0  0
   59.7586   28.5343   49.6204 H   0  0  0  0  0  0  0  0  0  0  0  0
   58.5908   27.2785   47.8049 H   0  0  0  0  0  0  0  0  0  0  0  0
   59.4135   27.3222   44.5548 H   0  0  0  0  0  0  0  0  0  0  0  0
   57.8656   27.2411   45.5460 H   0  0  0  0  0  0  0  0  0  0  0  0
   58.5290   29.1100   43.3680 H   0  0  0  0  0  0  0  0  0  0  0  0
   55.6449   29.4568   42.4245 H   0  0  0  0  0  0  0  0  0  0  0  0
   55.1348   30.5413   43.8109 H   0  0  0  0  0  0  0  0  0  0  0  0
   59.4537   35.6667   46.7988 H   0  0  0  0  0  0  0  0  0  0  0  0
   58.7987   34.4588   48.0149 H   0  0  0  0  0  0  0  0  0  0  0  0
   60.4748   34.5153   49.6202 H   0  0  0  0  0  0  0  0  0  0  0  0
   62.7987   33.8364   50.1929 H   0  0  0  0  0  0  0  0  0  0  0  0
   64.4060   33.1572   48.4267 H   0  0  0  0  0  0  0  0  0  0  0  0
   63.6922   33.1509   46.0256 H   0  0  0  0  0  0  0  0  0  0  0  0
   61.3664   33.8316   45.4621 H   0  0  0  0  0  0  0  0  0  0  0  0
   59.6852   35.0538   44.5114 H   0  0  0  0  0  0  0  0  0  0  0  0
   58.6990   33.7410   42.7890 H   0  0  0  0  0  0  0  0  0  0  0  0
   60.1591   30.0009   44.9038 H   0  0  0  0  0  0  0  0  0  0  0  0
   61.3379   31.2875   46.6755 H   0  0  0  0  0  0  0  0  0  0  0  0
  1  2  1  0
  2  3  2  0
  3  4  1  0
  4  5  2  0
  5  6  1  0
  6  7  1  0
  7  8  1  0
  8  9  2  0
  8 10  1  0
 10 11  1  0
 11 12  1  0
 12 13  2  0
 13 14  1  0
 14 15  2  0
 14 16  1  0
 16 17  1  0
 17 18  1  0
 18 19  2  0
 19 20  1  0
 20 21  2  0
 21 22  1  0
 22 23  2  0
 16 24  2  0
 24 25  1  0
  5 26  1  0
 26 27  2  0
 27  2  1  0
 25 12  1  0
 23 18  1  0
  1 28  1  0
  1 29  1  0
  1 30  1  0
  3 31  1  0
  4 32  1  0
  6 33  1  0
  6 34  1  0
  7 35  1  0
 10 36  1  0
 10 37  1  0
 17 38  1  0
 17 39  1  0
 19 40  1  0
 20 41  1  0
 21 42  1  0
 22 43  1  0
 23 44  1  0
 24 45  1  0
 25 46  1  0
 26 47  1  0
 27 48  1  0
M  END
>  <smiles>  (71) 
Cc1ccc(CNC(=O)CSc2nc(=O)c(Cc3ccccc3)c[nH]2)cc1

>  <score_type>  (71) 
oracle

>  <origin>  (71) 
adg

>  <m_score__min__energy>  (71) 
-8.9800000000000004

>  <m_primary>  (71) 
energy

$$$$
71:0
     RDKit          3D

 29 30  0  0  0  0  0  0  0  0999 V2000
   57.5130   26.0130   44.5370 C   0  0  0  0  0  0  0  0  0  0  0  0
   56.9120   26.8600   45.9850 S   0  0  0  0  0  0  0  0  0  0  0  0
   57.4420   26.2640   47.2540 O   0  0  0  0  0  0  0  0  0  0  0  0
   55.3990   26.7370   46.0140 O   0  0  0  0  0  0  0  0  0  0  0  0
   57.4040   28.5320   45.9030 C   0  0  0  0  0  0  0  0  0  0  0  0
   58.5610   28.9690   46.5400 C   0  0  0  0  0  0  0  0  0  0  0  0
   58.9560   30.2550   46.4880 N   0  0  0  0  0  0  0  0  0  0  0  0
   58.2290   31.1620   45.8080 C   0  0  0  0  0  0  0  0  0  0  0  0
   58.6970   32.4620   45.7990 O   0  0  0  0  0  0  0  0  0  0  0  0
   59.4660   33.0650   46.7570 C   0  0  0  0  0  0  0  0  0  0  0  0
   60.8500   32.8490   46.7570 C   0  0  0  0  0  0  0  0  0  0  0  0
   61.6740   33.4300   47.6980 C   0  0  0  0  0  0  0  0  0  0  0  0
   61.1210   34.2490   48.6700 C   0  0  0  0  0  0  0  0  0  0  0  0
   59.7590   34.4770   48.6890 C   0  0  0  0  0  0  0  0  0  0  0  0
   58.9460   33.8890   47.7410 C   0  0  0  0  0  0  0  0  0  0  0  0
   57.0950   30.7780   45.1740 N   0  0  0  0  0  0  0  0  0  0  0  0
   56.6760   29.4800   45.2140 C   0  0  0  0  0  0  0  0  0  0  0  0
   55.5970   29.1000   44.6130 N   0  0  0  0  0  0  0  0  0  0  0  0
   58.1243   25.1514   44.8435 H   0  0  0  0  0  0  0  0  0  0  0  0
   56.6603   25.6626   43.9368 H   0  0  0  0  0  0  0  0  0  0  0  0
   58.1253   26.7021   43.9368 H   0  0  0  0  0  0  0  0  0  0  0  0
   59.1694   28.2444   47.1012 H   0  0  0  0  0  0  0  0  0  0  0  0
   59.8410   30.5230   46.9910 H   0  0  0  0  0  0  0  0  0  0  0  0
   61.2910   32.1993   45.9867 H   0  0  0  0  0  0  0  0  0  0  0  0
   62.7582   33.2455   47.6774 H   0  0  0  0  0  0  0  0  0  0  0  0
   61.7674   34.7176   49.4267 H   0  0  0  0  0  0  0  0  0  0  0  0
   59.3216   35.1279   49.4604 H   0  0  0  0  0  0  0  0  0  0  0  0
   57.8628   34.0789   47.7677 H   0  0  0  0  0  0  0  0  0  0  0  0
   55.1460   28.2150   44.9380 H   0  0  0  0  0  0  0  0  0  0  0  0
  1  2  1  0
  2  3  2  0
  2  4  2  0
  2  5  1  0
  5  6  2  0
  6  7  1  0
  7  8  1  0
  8  9  1  0
  9 10  1  0
 10 11  2  0
 11 12  1  0
 12 13  2  0
 13 14  1  0
 14 15  2  0
  8 16  2  0
 16 17  1  0
 17 18  2  3
 17  5  1  0
 15 10  1  0
  1 19  1  0
  1 20  1  0
  1 21  1  0
  6 22  1  0
  7 23  1  0
 11 24  1  0
 12 25  1  0
 13 26  1  0
 14 27  1  0
 15 28  1  0
 18 29  1  0
M  END
>  <smiles>  (72) 
CS(=O)(=O)c1c[nH]c(Oc2ccccc2)nc1=N

>  <score_type>  (72) 
oracle

>  <origin>  (72) 
adg

>  <m_score__min__energy>  (72) 
-6.9199999999999999

>  <m_primary>  (72) 
energy

$$$$
72:0
     RDKit          3D

 72 76  0  0  0  0  0  0  0  0999 V2000
   57.0330   28.3900   42.7040 O   0  0  0  0  0  0  0  0  0  0  0  0
   56.8400   29.3470   43.5020 C   0  0  0  0  0  0  0  0  0  0  0  0
   56.2500   29.1040   44.7840 N   0  0  0  0  0  0  0  0  0  0  0  0
   57.0180   28.7450   45.9710 C   0  0  0  0  0  0  0  0  0  0  0  0
   57.3370   27.2730   45.9620 C   0  0  0  0  0  0  0  0  0  0  0  0
   58.6750   26.8430   45.9530 C   0  0  0  0  0  0  0  0  0  0  0  0
   58.9790   25.4800   45.9620 C   0  0  0  0  0  0  0  0  0  0  0  0
   57.9530   24.5330   45.9780 C   0  0  0  0  0  0  0  0  0  0  0  0
   56.6160   24.9460   45.9860 C   0  0  0  0  0  0  0  0  0  0  0  0
   55.5730   23.9730   45.9850 N   0  0  0  0  0  0  0  0  0  0  0  0
   55.4720   22.7870   47.2400 S   0  0  0  0  0  0  0  0  0  0  0  0
   55.0390   23.4480   48.5190 O   0  0  0  0  0  0  0  0  0  0  0  0
   56.8290   22.1720   47.4380 O   0  0  0  0  0  0  0  0  0  0  0  0
   54.3080   21.5150   46.7820 C   0  0  0  0  0  0  0  0  0  0  0  0
   52.9690   22.1160   46.4790 C   0  0  0  0  0  0  0  0  0  0  0  0
   51.9290   22.0670   47.4200 C   0  0  0  0  0  0  0  0  0  0  0  0
   50.7030   22.6610   47.1160 C   0  0  0  0  0  0  0  0  0  0  0  0
   50.5260   23.3010   45.8880 C   0  0  0  0  0  0  0  0  0  0  0  0
   51.5840   23.3380   44.9790 C   0  0  0  0  0  0  0  0  0  0  0  0
   52.7720   22.7550   45.2920 N   0  0  0  0  0  0  0  0  0  0  0  0
   56.3050   26.3150   45.9910 C   0  0  0  0  0  0  0  0  0  0  0  0
   54.9720   26.7160   46.0210 O   0  0  0  0  0  0  0  0  0  0  0  0
   57.2010   30.7220   43.1160 C   0  0  0  0  0  0  0  0  0  0  0  0
   57.0110   31.2840   41.8700 C   0  0  0  0  0  0  0  0  0  0  0  0
   57.5030   32.5710   41.9560 C   0  0  0  0  0  0  0  0  0  0  0  0
   57.9710   32.7900   43.1640 O   0  0  0  0  0  0  0  0  0  0  0  0
   57.8090   31.7040   43.8870 C   0  0  0  0  0  0  0  0  0  0  0  0
   58.2570   31.5990   45.3160 C   0  0  0  0  0  0  0  0  0  0  0  0
   57.8940   32.8200   46.0680 N   0  0  0  0  0  0  0  0  0  0  0  0
   58.0260   32.6620   47.5420 C   0  0  0  0  0  0  0  0  0  0  0  0
   59.1830   33.4690   48.1640 C   0  0  0  0  0  0  0  0  0  0  0  0
   60.4230   33.4410   47.2540 C   0  0  0  0  0  0  0  0  0  0  0  0
   61.6130   34.2010   47.8810 C   0  0  0  0  0  0  0  0  0  0  0  0
   62.5060   33.2980   48.6920 C   0  0  0  0  0  0  0  0  0  0  0  0
   61.9580   32.2470   49.4500 C   0  0  0  0  0  0  0  0  0  0  0  0
   62.7930   31.3960   50.1800 C   0  0  0  0  0  0  0  0  0  0  0  0
   64.1790   31.5850   50.1600 C   0  0  0  0  0  0  0  0  0  0  0  0
   64.9860   30.7550   50.8660 F   0  0  0  0  0  0  0  0  0  0  0  0
   64.7310   32.6250   49.4060 C   0  0  0  0  0  0  0  0  0  0  0  0
   63.9000   33.4770   48.6710 C   0  0  0  0  0  0  0  0  0  0  0  0
   60.0900   34.0140   45.8530 C   0  0  0  0  0  0  0  0  0  0  0  0
   58.5800   34.0170   45.5430 C   0  0  0  0  0  0  0  0  0  0  0  0
   57.9560   29.3195   45.9837 H   0  0  0  0  0  0  0  0  0  0  0  0
   56.4221   28.9764   46.8662 H   0  0  0  0  0  0  0  0  0  0  0  0
   59.4875   27.5844   45.9388 H   0  0  0  0  0  0  0  0  0  0  0  0
   60.0289   25.1518   45.9565 H   0  0  0  0  0  0  0  0  0  0  0  0
   58.1962   23.4602   45.9843 H   0  0  0  0  0  0  0  0  0  0  0  0
   54.6790   20.9884   45.8903 H   0  0  0  0  0  0  0  0  0  0  0  0
   54.2013   20.8107   47.6202 H   0  0  0  0  0  0  0  0  0  0  0  0
   52.0785   21.5655   48.3875 H   0  0  0  0  0  0  0  0  0  0  0  0
   49.8779   22.6249   47.8426 H   0  0  0  0  0  0  0  0  0  0  0  0
   49.5630   23.7710   45.6397 H   0  0  0  0  0  0  0  0  0  0  0  0
   51.4569   23.8393   44.0082 H   0  0  0  0  0  0  0  0  0  0  0  0
   56.5599   30.8046   40.9887 H   0  0  0  0  0  0  0  0  0  0  0  0
   57.5032   33.3038   41.1356 H   0  0  0  0  0  0  0  0  0  0  0  0
   57.7723   30.7293   45.7836 H   0  0  0  0  0  0  0  0  0  0  0  0
   59.3506   31.4827   45.3365 H   0  0  0  0  0  0  0  0  0  0  0  0
   57.0861   32.9906   48.0095 H   0  0  0  0  0  0  0  0  0  0  0  0
   58.2464   31.6003   47.7272 H   0  0  0  0  0  0  0  0  0  0  0  0
   58.8612   34.5118   48.3023 H   0  0  0  0  0  0  0  0  0  0  0  0
   59.4467   33.0168   49.1315 H   0  0  0  0  0  0  0  0  0  0  0  0
   60.7228   32.3886   47.1422 H   0  0  0  0  0  0  0  0  0  0  0  0
   62.2076   34.6544   47.0742 H   0  0  0  0  0  0  0  0  0  0  0  0
   61.2043   34.9657   48.5579 H   0  0  0  0  0  0  0  0  0  0  0  0
   60.8688   32.0944   49.4683 H   0  0  0  0  0  0  0  0  0  0  0  0
   62.3593   30.5761   50.7713 H   0  0  0  0  0  0  0  0  0  0  0  0
   65.8208   32.7735   49.3907 H   0  0  0  0  0  0  0  0  0  0  0  0
   64.3391   34.2901   48.0743 H   0  0  0  0  0  0  0  0  0  0  0  0
   60.4599   35.0487   45.8012 H   0  0  0  0  0  0  0  0  0  0  0  0
   60.5757   33.3647   45.1097 H   0  0  0  0  0  0  0  0  0  0  0  0
   58.1280   34.9108   45.9978 H   0  0  0  0  0  0  0  0  0  0  0  0
   58.4628   34.0173   44.4493 H   0  0  0  0  0  0  0  0  0  0  0  0
  1  2  2  0
  2  3  1  0
  3  4  1  0
  4  5  1  0
  5  6  2  0
  6  7  1  0
  7  8  2  0
  8  9  1  0
  9 10  1  0
 10 11  1  0
 11 12  2  0
 11 13  2  0
 11 14  1  0
 14 15  1  0
 15 16  2  0
 16 17  1  0
 17 18  2  0
 18 19  1  0
 19 20  2  0
  9 21  2  0
 21 22  1  0
  2 23  1  0
 23 24  1  0
 24 25  2  0
 25 26  1  0
 26 27  1  0
 27 28  1  0
 28 29  1  0
 29 30  1  0
 30 31  1  0
 31 32  1  0
 32 33  1  0
 33 34  1  0
 34 35  2  0
 35 36  1  0
 36 37  2  0
 37 38  1  0
 37 39  1  0
 39 40  2  0
 32 41  1  0
 41 42  1  0
 21  5  1  0
 27 23  2  0
 42 29  1  0
 20 15  1  0
 40 34  1  0
  4 43  1  0
  4 44  1  0
  6 45  1  0
  7 46  1  0
  8 47  1  0
 14 48  1  0
 14 49  1  0
 16 50  1  0
 17 51  1  0
 18 52  1  0
 19 53  1  0
 24 54  1  0
 25 55  1  0
 28 56  1  0
 28 57  1  0
 30 58  1  0
 30 59  1  0
 31 60  1  0
 31 61  1  0
 32 62  1  0
 33 63  1  0
 33 64  1  0
 35 65  1  0
 36 66  1  0
 39 67  1  0
 40 68  1  0
 41 69  1  0
 41 70  1  0
 42 71  1  0
 42 72  1  0
M  CHG  3   3  -1  10  -1  22  -1
M  END
>  <UniqueID>  (73) 
62

>  <SMILES>  (73) 
O=C([N-]Cc1cccc([N-]S(=O)(=O)Cc2ccccn2)c1[O-])c1ccoc1CN1CCC(Cc2ccc(F)cc2)CC1

>  <Energy>  (73) 
114.11139482723775

>  <Genealogy>  (73) 
O=C([N-]Cc1cccc([N-]S(=O)(=O)Cc2ccccn2)c1[O-])c1ccoc1CN1CCC(Cc2ccc(F)cc2)CC1 (protonated)
O=C([N-]Cc1cccc([N-]S(=O)(=O)Cc2ccccn2)c1[O-])c1ccoc1CN1CCC(Cc2ccc(F)cc2)CC1 (3D coordinates assigned)
O=C([N-]Cc1cccc([N-]S(=O)(=O)Cc2ccccn2)c1[O-])c1ccoc1CN1CCC(Cc2ccc(F)cc2)CC1 (nonaromatic ring conformer: 114.11139482723775 kcal/mol)

>  <smiles>  (73) 
O=C(NCc1cccc(NS(=O)(=O)Cc2ccccn2)c1O)c1ccoc1CN1CCC(Cc2ccc(F)cc2)CC1

>  <score_type>  (73) 
oracle

>  <origin>  (73) 
adg

>  <m_score__min__energy>  (73) 
-18.920000000000002

>  <m_primary>  (73) 
energy

$$$$
73:0
     RDKit          3D

 56 58  0  0  0  0  0  0  0  0999 V2000
   58.2180   21.4680   43.6310 C   0  0  0  0  0  0  0  0  0  0  0  0
   57.0220   22.0940   42.9290 C   0  0  0  0  0  0  0  0  0  0  0  0
   55.8500   21.9610   43.7300 O   0  0  0  0  0  0  0  0  0  0  0  0
   55.8300   22.1960   45.1100 C   0  0  0  0  0  0  0  0  0  0  0  0
   56.4320   21.4240   45.9070 O   0  0  0  0  0  0  0  0  0  0  0  0
   55.0750   23.3740   45.6420 C   0  0  0  0  0  0  0  0  0  0  0  0
   55.8080   24.0430   46.8110 C   0  0  0  0  0  0  0  0  0  0  0  0
   56.7840   25.0500   46.3390 N   0  0  0  0  0  0  0  0  0  0  0  0
   58.0690   24.6660   46.0840 C   0  0  0  0  0  0  0  0  0  0  0  0
   58.4690   23.3430   46.2600 O   0  0  0  0  0  0  0  0  0  0  0  0
   59.0000   25.5950   45.6570 C   0  0  0  0  0  0  0  0  0  0  0  0
   58.6120   26.9150   45.4780 C   0  0  0  0  0  0  0  0  0  0  0  0
   59.4910   27.7450   45.1370 O   0  0  0  0  0  0  0  0  0  0  0  0
   57.3060   27.2980   45.6780 N   0  0  0  0  0  0  0  0  0  0  0  0
   56.8570   28.7130   45.4900 C   0  0  2  0  0  0  0  0  0  0  0  0
   56.2810   29.0320   44.0870 C   0  0  0  0  0  0  0  0  0  0  0  0
   57.1910   29.7990   43.1010 C   0  0  0  0  0  0  0  0  0  0  0  0
   58.1340   30.7670   43.7120 N   0  0  1  0  0  0  0  0  0  0  0  0
   57.6440   32.1700   43.7890 C   0  0  0  0  0  0  0  0  0  0  0  0
   58.2090   33.0040   44.9170 C   0  0  0  0  0  0  0  0  0  0  0  0
   59.1760   33.9900   44.6520 C   0  0  0  0  0  0  0  0  0  0  0  0
   59.6610   34.8010   45.6830 C   0  0  0  0  0  0  0  0  0  0  0  0
   59.1620   34.6570   46.9800 C   0  0  0  0  0  0  0  0  0  0  0  0
   58.1670   33.7130   47.2450 C   0  0  0  0  0  0  0  0  0  0  0  0
   57.6800   32.9010   46.2150 C   0  0  0  0  0  0  0  0  0  0  0  0
   58.8290   30.2680   44.9200 C   0  0  0  0  0  0  0  0  0  0  0  0
   57.8990   29.7170   46.0010 C   0  0  0  0  0  0  0  0  0  0  0  0
   56.4060   26.3580   46.1440 C   0  0  0  0  0  0  0  0  0  0  0  0
   55.2170   26.7010   46.4050 O   0  0  0  0  0  0  0  0  0  0  0  0
   58.0823   21.5390   44.7203 H   0  0  0  0  0  0  0  0  0  0  0  0
   58.3017   20.4105   43.3401 H   0  0  0  0  0  0  0  0  0  0  0  0
   59.1347   22.0019   43.3401 H   0  0  0  0  0  0  0  0  0  0  0  0
   57.2222   23.1614   42.7540 H   0  0  0  0  0  0  0  0  0  0  0  0
   56.8601   21.5779   41.9712 H   0  0  0  0  0  0  0  0  0  0  0  0
   54.9485   24.1096   44.8340 H   0  0  0  0  0  0  0  0  0  0  0  0
   54.1016   23.0171   46.0096 H   0  0  0  0  0  0  0  0  0  0  0  0
   55.0695   24.5382   47.4586 H   0  0  0  0  0  0  0  0  0  0  0  0
   56.3565   23.2653   47.3627 H   0  0  0  0  0  0  0  0  0  0  0  0
   60.0386   25.2903   45.4611 H   0  0  0  0  0  0  0  0  0  0  0  0
   55.9764   28.8370   46.1375 H   0  0  0  0  0  0  0  0  0  0  0  0
   56.0154   28.0750   43.6142 H   0  0  0  0  0  0  0  0  0  0  0  0
   55.4376   29.7119   44.2777 H   0  0  0  0  0  0  0  0  0  0  0  0
   57.7823   29.0588   42.5421 H   0  0  0  0  0  0  0  0  0  0  0  0
   56.5140   30.3972   42.4735 H   0  0  0  0  0  0  0  0  0  0  0  0
   58.9060   30.8410   43.0040 H   0  0  0  0  0  0  0  0  0  0  0  0
   57.8970   32.6682   42.8415 H   0  0  0  0  0  0  0  0  0  0  0  0
   56.5635   32.0987   43.9827 H   0  0  0  0  0  0  0  0  0  0  0  0
   59.5533   34.1242   43.6275 H   0  0  0  0  0  0  0  0  0  0  0  0
   60.4359   35.5528   45.4726 H   0  0  0  0  0  0  0  0  0  0  0  0
   59.5527   35.2871   47.7926 H   0  0  0  0  0  0  0  0  0  0  0  0
   57.7662   33.6080   48.2640 H   0  0  0  0  0  0  0  0  0  0  0  0
   56.8779   32.1773   46.4224 H   0  0  0  0  0  0  0  0  0  0  0  0
   59.5157   29.4647   44.6147 H   0  0  0  0  0  0  0  0  0  0  0  0
   59.3483   31.1309   45.3625 H   0  0  0  0  0  0  0  0  0  0  0  0
   58.5152   29.2159   46.7621 H   0  0  0  0  0  0  0  0  0  0  0  0
   57.3384   30.5753   46.3998 H   0  0  0  0  0  0  0  0  0  0  0  0
  1  2  1  0
  2  3  1  0
  3  4  1  0
  4  5  2  0
  4  6  1  0
  6  7  1  0
  7  8  1  0
  8  9  1  0
  9 10  1  0
  9 11  2  0
 11 12  1  0
 12 13  2  0
 12 14  1  0
 14 15  1  0
 15 16  1  0
 16 17  1  0
 17 18  1  0
 18 19  1  0
 19 20  1  0
 20 21  2  0
 21 22  1  0
 22 23  2  0
 23 24  1  0
 24 25  2  0
 18 26  1  0
 26 27  1  0
 14 28  1  0
 28 29  2  0
 28  8  1  0
 27 15  1  0
 25 20  1  0
  1 30  1  0
  1 31  1  0
  1 32  1  0
  2 33  1  0
  2 34  1  0
  6 35  1  0
  6 36  1  0
  7 37  1  0
  7 38  1  0
 11 39  1  0
 15 40  1  1
 16 41  1  0
 16 42  1  0
 17 43  1  0
 17 44  1  0
 18 45  1  6
 19 46  1  0
 19 47  1  0
 21 48  1  0
 22 49  1  0
 23 50  1  0
 24 51  1  0
 25 52  1  0
 26 53  1  0
 26 54  1  0
 27 55  1  0
 27 56  1  0
M  CHG  2  10  -1  18   1
M  END
>  <UniqueID>  (74) 
63

>  <SMILES>  (74) 
CCOC(=O)CCn1c([O-])cc(=O)n(C2CC[NH+](Cc3ccccc3)CC2)c1=O

>  <Energy>  (74) 
78.64662298898665

>  <Genealogy>  (74) 
CCOC(=O)CCn1c([O-])cc(=O)n(C2CC[NH+](Cc3ccccc3)CC2)c1=O (protonated)
CCOC(=O)CCn1c([O-])cc(=O)n(C2CC[NH+](Cc3ccccc3)CC2)c1=O (3D coordinates assigned)
CCOC(=O)CCn1c([O-])cc(=O)n(C2CC[NH+](Cc3ccccc3)CC2)c1=O (nonaromatic ring conformer: 78.64662298898665 kcal/mol)

>  <smiles>  (74) 
CCOC(=O)CCn1c(O)cc(=O)n(C2CCN(Cc3ccccc3)CC2)c1=O

>  <score_type>  (74) 
oracle

>  <origin>  (74) 
adg

>  <m_score__min__energy>  (74) 
-9.1600000000000001

>  <m_primary>  (74) 
energy

$$$$
74:0
     RDKit          3D

 42 44  0  0  0  0  0  0  0  0999 V2000
   61.0060   34.5950   48.4340 O   0  0  0  0  0  0  0  0  0  0  0  0
   61.1530   33.8830   47.4030 C   0  0  0  0  0  0  0  0  0  0  0  0
   62.4670   33.6820   46.8590 N   0  0  0  0  0  0  0  0  0  0  0  0
   63.6790   33.9840   47.6140 C   0  0  0  0  0  0  0  0  0  0  0  0
   63.6110   33.3400   48.9700 C   0  0  0  0  0  0  0  0  0  0  0  0
   63.8170   31.9620   49.1260 C   0  0  0  0  0  0  0  0  0  0  0  0
   63.7790   31.3900   50.4000 C   0  0  0  0  0  0  0  0  0  0  0  0
   63.5410   32.2060   51.5080 C   0  0  0  0  0  0  0  0  0  0  0  0
   63.3560   33.5430   51.3450 N   0  0  0  0  0  0  0  0  0  0  0  0
   63.3880   34.1230   50.1140 C   0  0  0  0  0  0  0  0  0  0  0  0
   59.9640   33.2780   46.7620 C   0  0  0  0  0  0  0  0  0  0  0  0
   59.4850   33.7860   45.5430 C   0  0  0  0  0  0  0  0  0  0  0  0
   58.3730   33.2070   44.9230 C   0  0  0  0  0  0  0  0  0  0  0  0
   57.7140   32.1250   45.5120 C   0  0  0  0  0  0  0  0  0  0  0  0
   56.5850   31.5550   44.8350 N   0  0  0  0  0  0  0  0  0  0  0  0
   56.4460   29.8990   44.3430 S   0  0  0  0  0  0  0  0  0  0  0  0
   55.1500   29.3370   44.8600 O   0  0  0  0  0  0  0  0  0  0  0  0
   56.4410   29.8270   42.8420 O   0  0  0  0  0  0  0  0  0  0  0  0
   57.8200   28.9820   44.9520 C   0  0  0  0  0  0  0  0  0  0  0  0
   59.1230   29.2720   44.5190 C   0  0  0  0  0  0  0  0  0  0  0  0
   60.2040   28.5200   44.9940 C   0  0  0  0  0  0  0  0  0  0  0  0
   59.9870   27.4810   45.9040 C   0  0  0  0  0  0  0  0  0  0  0  0
   61.0350   26.7490   46.3570 F   0  0  0  0  0  0  0  0  0  0  0  0
   58.6900   27.1880   46.3380 C   0  0  0  0  0  0  0  0  0  0  0  0
   57.6080   27.9370   45.8620 C   0  0  0  0  0  0  0  0  0  0  0  0
   58.1740   31.6310   46.7440 C   0  0  0  0  0  0  0  0  0  0  0  0
   59.2880   32.2060   47.3650 C   0  0  0  0  0  0  0  0  0  0  0  0
   62.5730   33.2870   45.8990 H   0  0  0  0  0  0  0  0  0  0  0  0
   64.5534   33.5973   47.0700 H   0  0  0  0  0  0  0  0  0  0  0  0
   63.7682   35.0737   47.7348 H   0  0  0  0  0  0  0  0  0  0  0  0
   64.0085   31.3313   48.2454 H   0  0  0  0  0  0  0  0  0  0  0  0
   63.9348   30.3088   50.5289 H   0  0  0  0  0  0  0  0  0  0  0  0
   63.5031   31.7658   52.5154 H   0  0  0  0  0  0  0  0  0  0  0  0
   63.2387   35.2083   50.0151 H   0  0  0  0  0  0  0  0  0  0  0  0
   59.9875   34.6444   45.0733 H   0  0  0  0  0  0  0  0  0  0  0  0
   58.0141   33.6070   43.9632 H   0  0  0  0  0  0  0  0  0  0  0  0
   59.2951   30.0913   43.8054 H   0  0  0  0  0  0  0  0  0  0  0  0
   61.2244   28.7466   44.6512 H   0  0  0  0  0  0  0  0  0  0  0  0
   58.5206   26.3694   47.0530 H   0  0  0  0  0  0  0  0  0  0  0  0
   56.5882   27.7051   46.2029 H   0  0  0  0  0  0  0  0  0  0  0  0
   57.6554   30.7874   47.2231 H   0  0  0  0  0  0  0  0  0  0  0  0
   59.6364   31.8153   48.3324 H   0  0  0  0  0  0  0  0  0  0  0  0
  1  2  2  0
  2  3  1  0
  3  4  1  0
  4  5  1  0
  5  6  2  0
  6  7  1  0
  7  8  2  0
  8  9  1  0
  9 10  2  0
  2 11  1  0
 11 12  2  0
 12 13  1  0
 13 14  2  0
 14 15  1  0
 15 16  1  0
 16 17  2  0
 16 18  2  0
 16 19  1  0
 19 20  2  0
 20 21  1  0
 21 22  2  0
 22 23  1  0
 22 24  1  0
 24 25  2  0
 14 26  1  0
 26 27  2  0
 10  5  1  0
 27 11  1  0
 25 19  1  0
  3 28  1  0
  4 29  1  0
  4 30  1  0
  6 31  1  0
  7 32  1  0
  8 33  1  0
 10 34  1  0
 12 35  1  0
 13 36  1  0
 20 37  1  0
 21 38  1  0
 24 39  1  0
 25 40  1  0
 26 41  1  0
 27 42  1  0
M  CHG  1  15  -1
M  END
>  <UniqueID>  (75) 
64

>  <SMILES>  (75) 
O=C(NCc1cccnc1)c1ccc([N-]S(=O)(=O)c2ccc(F)cc2)cc1

>  <Energy>  (75) 
48.90895240371479

>  <Genealogy>  (75) 
O=C(NCc1cccnc1)c1ccc([N-]S(=O)(=O)c2ccc(F)cc2)cc1 (protonated)
O=C(NCc1cccnc1)c1ccc([N-]S(=O)(=O)c2ccc(F)cc2)cc1 (3D coordinates assigned)
O=C(NCc1cccnc1)c1ccc([N-]S(=O)(=O)c2ccc(F)cc2)cc1 (optimized conformer: 48.90895240371479 kcal/mol)

>  <smiles>  (75) 
O=C(NCc1cccnc1)c1ccc(NS(=O)(=O)c2ccc(F)cc2)cc1

>  <score_type>  (75) 
oracle

>  <origin>  (75) 
adg

>  <m_score__min__energy>  (75) 
-9.8900000000000006

>  <m_primary>  (75) 
energy

$$$$
75:0
     RDKit          3D

 35 37  0  0  0  0  0  0  0  0999 V2000
   55.2270   29.3390   44.8710 O   0  0  0  0  0  0  0  0  0  0  0  0
   56.2050   30.0170   44.4590 C   0  0  0  0  0  0  0  0  0  0  0  0
   57.3300   29.3390   43.7460 C   0  0  0  0  0  0  0  0  0  0  0  0
   57.9750   28.3380   44.6540 C   0  0  0  0  0  0  0  0  0  0  0  0
   59.3560   28.2320   44.8180 C   0  0  0  0  0  0  0  0  0  0  0  0
   59.6600   26.9730   45.8960 S   0  0  0  0  0  0  0  0  0  0  0  0
   58.0350   26.6030   46.0880 C   0  0  0  0  0  0  0  0  0  0  0  0
   57.6000   25.6550   46.8650 N   0  0  0  0  0  0  0  0  0  0  0  0
   56.3230   25.0140   46.7520 C   0  0  0  0  0  0  0  0  0  0  0  0
   55.3670   25.6430   46.2260 O   0  0  0  0  0  0  0  0  0  0  0  0
   56.0780   23.6720   47.3100 C   0  0  0  0  0  0  0  0  0  0  0  0
   54.8690   23.0000   47.3360 C   0  0  0  0  0  0  0  0  0  0  0  0
   55.1340   21.7820   47.9220 C   0  0  0  0  0  0  0  0  0  0  0  0
   56.4810   21.7860   48.2220 C   0  0  0  0  0  0  0  0  0  0  0  0
   57.0160   22.9230   47.8430 O   0  0  0  0  0  0  0  0  0  0  0  0
   57.2460   27.4310   45.3630 N   0  0  0  0  0  0  0  0  0  0  0  0
   56.2560   31.4350   44.6610 N   0  0  0  0  0  0  0  0  0  0  0  0
   57.3870   32.1980   45.1040 C   0  0  0  0  0  0  0  0  0  0  0  0
   57.6840   33.4670   44.5700 C   0  0  0  0  0  0  0  0  0  0  0  0
   58.7770   34.1950   45.0520 C   0  0  0  0  0  0  0  0  0  0  0  0
   59.5690   33.6730   46.0780 C   0  0  0  0  0  0  0  0  0  0  0  0
   59.2650   32.4260   46.6300 C   0  0  0  0  0  0  0  0  0  0  0  0
   58.1740   31.6950   46.1510 C   0  0  0  0  0  0  0  0  0  0  0  0
   57.8830   30.4900   46.7030 F   0  0  0  0  0  0  0  0  0  0  0  0
   56.9409   28.8259   42.8542 H   0  0  0  0  0  0  0  0  0  0  0  0
   58.0751   30.0902   43.4453 H   0  0  0  0  0  0  0  0  0  0  0  0
   60.1146   28.8607   44.3289 H   0  0  0  0  0  0  0  0  0  0  0  0
   53.8987   23.3627   46.9659 H   0  0  0  0  0  0  0  0  0  0  0  0
   54.4168   20.9700   48.1124 H   0  0  0  0  0  0  0  0  0  0  0  0
   57.0243   20.9609   48.7057 H   0  0  0  0  0  0  0  0  0  0  0  0
   56.2030   27.4080   45.3530 H   0  0  0  0  0  0  0  0  0  0  0  0
   57.0546   33.8869   43.7715 H   0  0  0  0  0  0  0  0  0  0  0  0
   59.0133   35.1798   44.6227 H   0  0  0  0  0  0  0  0  0  0  0  0
   60.4320   34.2439   46.4512 H   0  0  0  0  0  0  0  0  0  0  0  0
   59.8849   32.0190   47.4425 H   0  0  0  0  0  0  0  0  0  0  0  0
  1  2  2  0
  2  3  1  0
  3  4  1  0
  4  5  2  0
  5  6  1  0
  6  7  1  0
  7  8  2  3
  8  9  1  0
  9 10  2  0
  9 11  1  0
 11 12  2  0
 12 13  1  0
 13 14  2  0
 14 15  1  0
  7 16  1  0
  2 17  1  0
 17 18  1  0
 18 19  2  0
 19 20  1  0
 20 21  2  0
 21 22  1  0
 22 23  2  0
 23 24  1  0
 16  4  1  0
 23 18  1  0
 15 11  1  0
  3 25  1  0
  3 26  1  0
  5 27  1  0
 12 28  1  0
 13 29  1  0
 14 30  1  0
 16 31  1  0
 19 32  1  0
 20 33  1  0
 21 34  1  0
 22 35  1  0
M  CHG  1  17  -1
M  END
>  <UniqueID>  (76) 
65

>  <SMILES>  (76) 
O=C(Cc1csc(=NC(=O)c2ccco2)[nH]1)[N-]c1ccccc1F

>  <Energy>  (76) 
97.32827783498796

>  <Genealogy>  (76) 
O=C(Cc1csc(=NC(=O)c2ccco2)[nH]1)[N-]c1ccccc1F (protonated)
O=C(Cc1csc(=NC(=O)c2ccco2)[nH]1)[N-]c1ccccc1F (3D coordinates assigned)
O=C(Cc1csc(=NC(=O)c2ccco2)[nH]1)[N-]c1ccccc1F (optimized conformer: 97.32827783498796 kcal/mol)

>  <smiles>  (76) 
O=C(Cc1csc(=NC(=O)c2ccco2)[nH]1)Nc1ccccc1F

>  <score_type>  (76) 
oracle

>  <origin>  (76) 
adg

>  <m_score__min__energy>  (76) 
-9.8300000000000001

>  <m_primary>  (76) 
energy

$$$$
76:0
     RDKit          3D

 53 55  0  0  0  0  0  0  0  0999 V2000
   54.7290   25.0080   45.5960 C   0  0  0  0  0  0  0  0  0  0  0  0
   55.1090   26.3520   46.0090 N   0  0  0  0  0  0  0  0  0  0  0  0
   56.8390   26.5160   45.9620 S   0  0  0  0  0  0  0  0  0  0  0  0
   57.4060   25.4690   45.0420 O   0  0  0  0  0  0  0  0  0  0  0  0
   57.4090   26.2980   47.3370 O   0  0  0  0  0  0  0  0  0  0  0  0
   57.2870   28.1140   45.3680 C   0  0  0  0  0  0  0  0  0  0  0  0
   56.3010   28.9940   44.9080 C   0  0  0  0  0  0  0  0  0  0  0  0
   56.6530   30.2660   44.4500 C   0  0  0  0  0  0  0  0  0  0  0  0
   57.9970   30.6750   44.4510 C   0  0  0  0  0  0  0  0  0  0  0  0
   58.3660   32.0670   44.0060 C   0  0  0  0  0  0  0  0  0  0  0  0
   58.2460   33.0650   45.1340 C   0  0  0  0  0  0  0  0  0  0  0  0
   57.1720   33.1150   45.7970 O   0  0  0  0  0  0  0  0  0  0  0  0
   59.3510   33.9190   45.5080 N   0  0  0  0  0  0  0  0  0  0  0  0
   59.2820   35.3700   45.2910 C   0  0  0  0  0  0  0  0  0  0  0  0
   60.5610   33.3260   46.0990 C   0  0  0  0  0  0  0  0  0  0  0  0
   60.2680   32.8470   47.4880 C   0  0  0  0  0  0  0  0  0  0  0  0
   61.1700   32.2680   48.1520 O   0  0  0  0  0  0  0  0  0  0  0  0
   58.9660   33.0450   48.0550 N   0  0  0  0  0  0  0  0  0  0  0  0
   58.5450   32.3630   49.2800 C   0  0  2  0  0  0  0  0  0  0  0  0
   59.2770   32.9480   50.5110 C   0  0  0  0  0  0  0  0  0  0  0  0
   60.3070   31.8990   50.9720 C   0  0  0  0  0  0  0  0  0  0  0  0
   59.9590   30.6910   50.1880 C   0  0  0  0  0  0  0  0  0  0  0  0
   60.5320   29.4220   50.3080 C   0  0  0  0  0  0  0  0  0  0  0  0
   60.0810   28.3940   49.4640 C   0  0  0  0  0  0  0  0  0  0  0  0
   60.7790   26.7900   49.5890 Cl  0  0  0  0  0  0  0  0  0  0  0  0
   59.0730   28.6500   48.5150 C   0  0  0  0  0  0  0  0  0  0  0  0
   58.5160   29.9340   48.4090 C   0  0  0  0  0  0  0  0  0  0  0  0
   58.9780   30.9420   49.2620 C   0  0  0  0  0  0  0  0  0  0  0  0
   58.9810   29.7980   44.9310 C   0  0  0  0  0  0  0  0  0  0  0  0
   58.6290   28.5220   45.3830 C   0  0  0  0  0  0  0  0  0  0  0  0
   54.5533   24.3867   46.4866 H   0  0  0  0  0  0  0  0  0  0  0  0
   53.8091   25.0555   44.9948 H   0  0  0  0  0  0  0  0  0  0  0  0
   55.5376   24.5668   44.9948 H   0  0  0  0  0  0  0  0  0  0  0  0
   55.2458   28.6833   44.9070 H   0  0  0  0  0  0  0  0  0  0  0  0
   55.8732   30.9514   44.0864 H   0  0  0  0  0  0  0  0  0  0  0  0
   59.4046   32.0618   43.6437 H   0  0  0  0  0  0  0  0  0  0  0  0
   57.6713   32.3670   43.2076 H   0  0  0  0  0  0  0  0  0  0  0  0
   59.2575   35.8853   46.2625 H   0  0  0  0  0  0  0  0  0  0  0  0
   60.1655   35.6984   44.7240 H   0  0  0  0  0  0  0  0  0  0  0  0
   58.3713   35.6130   44.7240 H   0  0  0  0  0  0  0  0  0  0  0  0
   60.8896   32.4767   45.4820 H   0  0  0  0  0  0  0  0  0  0  0  0
   61.3549   34.0864   46.1381 H   0  0  0  0  0  0  0  0  0  0  0  0
   58.2710   33.6120   47.5140 H   0  0  0  0  0  0  0  0  0  0  0  0
   57.4526   32.4798   49.3353 H   0  0  0  0  0  0  0  0  0  0  0  0
   59.7883   33.8823   50.2361 H   0  0  0  0  0  0  0  0  0  0  0  0
   58.5638   33.1744   51.3173 H   0  0  0  0  0  0  0  0  0  0  0  0
   61.3313   32.2305   50.7464 H   0  0  0  0  0  0  0  0  0  0  0  0
   60.2778   31.7237   52.0575 H   0  0  0  0  0  0  0  0  0  0  0  0
   61.3217   29.2318   51.0498 H   0  0  0  0  0  0  0  0  0  0  0  0
   58.7215   27.8427   47.8557 H   0  0  0  0  0  0  0  0  0  0  0  0
   57.7302   30.1439   47.6684 H   0  0  0  0  0  0  0  0  0  0  0  0
   60.0341   30.1152   44.9520 H   0  0  0  0  0  0  0  0  0  0  0  0
   59.4066   27.8366   45.7512 H   0  0  0  0  0  0  0  0  0  0  0  0
  1  2  1  0
  2  3  1  0
  3  4  2  0
  3  5  2  0
  3  6  1  0
  6  7  2  0
  7  8  1  0
  8  9  2  0
  9 10  1  0
 10 11  1  0
 11 12  2  0
 11 13  1  0
 13 14  1  0
 13 15  1  0
 15 16  1  0
 16 17  2  0
 16 18  1  0
 18 19  1  0
 19 20  1  0
 20 21  1  0
 21 22  1  0
 22 23  2  0
 23 24  1  0
 24 25  1  0
 24 26  2  0
 26 27  1  0
 27 28  2  0
  9 29  1  0
 29 30  2  0
 30  6  1  0
 28 19  1  0
 28 22  1  0
  1 31  1  0
  1 32  1  0
  1 33  1  0
  7 34  1  0
  8 35  1  0
 10 36  1  0
 10 37  1  0
 14 38  1  0
 14 39  1  0
 14 40  1  0
 15 41  1  0
 15 42  1  0
 18 43  1  0
 19 44  1  1
 20 45  1  0
 20 46  1  0
 21 47  1  0
 21 48  1  0
 23 49  1  0
 26 50  1  0
 27 51  1  0
 29 52  1  0
 30 53  1  0
M  CHG  1   2  -1
M  END
>  <UniqueID>  (77) 
66

>  <SMILES>  (77) 
C[N-]S(=O)(=O)c1ccc(CC(=O)N(C)CC(=O)N[C@@H]2CCc3cc(Cl)ccc32)cc1

>  <Energy>  (77) 
53.512683920293185

>  <Genealogy>  (77) 
C[N-]S(=O)(=O)c1ccc(CC(=O)N(C)CC(=O)NC2CCc3cc(Cl)ccc32)cc1 (protonated)
C[N-]S(=O)(=O)c1ccc(CC(=O)N(C)CC(=O)N[C@@H]2CCc3cc(Cl)ccc32)cc1 (chirality)
C[N-]S(=O)(=O)c1ccc(CC(=O)N(C)CC(=O)N[C@@H]2CCc3cc(Cl)ccc32)cc1 (3D coordinates assigned)
C[N-]S(=O)(=O)c1ccc(CC(=O)N(C)CC(=O)N[C@@H]2CCc3cc(Cl)ccc32)cc1 (nonaromatic ring conformer: 53.512683920293185 kcal/mol)

>  <smiles>  (77) 
CNS(=O)(=O)c1ccc(CC(=O)N(C)CC(=O)NC2CCc3cc(Cl)ccc32)cc1

>  <score_type>  (77) 
oracle

>  <origin>  (77) 
adg

>  <m_score__min__energy>  (77) 
-10.779999999999999

>  <m_primary>  (77) 
energy

$$$$
77:0
     RDKit          3D

 40 42  0  0  0  0  0  0  0  0999 V2000
   59.3070   34.8490   46.4670 C   0  0  0  0  0  0  0  0  0  0  0  0
   59.2900   34.9340   45.0590 O   0  0  0  0  0  0  0  0  0  0  0  0
   58.8950   33.6960   44.4950 C   0  0  0  0  0  0  0  0  0  0  0  0
   57.8400   33.0110   45.3690 C   0  0  0  0  0  0  0  0  0  0  0  0
   58.2520   31.6440   45.7130 N   0  0  0  0  0  0  0  0  0  0  0  0
   59.5980   31.3950   46.2420 C   0  0  0  0  0  0  0  0  0  0  0  0
   59.5500   30.3330   47.3470 C   0  0  0  0  0  0  0  0  0  0  0  0
   58.8390   29.0890   46.8740 C   0  0  0  0  0  0  0  0  0  0  0  0
   59.1710   27.8420   47.4190 C   0  0  0  0  0  0  0  0  0  0  0  0
   58.4780   26.6930   47.0330 C   0  0  0  0  0  0  0  0  0  0  0  0
   57.4300   26.7690   46.1000 C   0  0  0  0  0  0  0  0  0  0  0  0
   56.6970   25.5420   45.7030 C   0  0  0  0  0  0  0  0  0  0  0  0
   55.4730   25.4350   45.9860 O   0  0  0  0  0  0  0  0  0  0  0  0
   57.3750   24.4590   45.0460 N   0  0  0  0  0  0  0  0  0  0  0  0
   56.7060   23.4370   44.2930 C   0  0  0  0  0  0  0  0  0  0  0  0
   56.1690   23.5210   43.0260 C   0  0  0  0  0  0  0  0  0  0  0  0
   55.6960   22.3070   42.6850 N   0  0  0  0  0  0  0  0  0  0  0  0
   55.9210   21.4640   43.6840 N   0  0  0  0  0  0  0  0  0  0  0  0
   56.5440   22.1270   44.6770 C   0  0  0  0  0  0  0  0  0  0  0  0
   57.0750   28.0250   45.5750 C   0  0  0  0  0  0  0  0  0  0  0  0
   57.7720   29.1840   45.9570 C   0  0  0  0  0  0  0  0  0  0  0  0
   57.4120   30.5120   45.4150 C   0  0  0  0  0  0  0  0  0  0  0  0
   56.3750   30.6530   44.7100 O   0  0  0  0  0  0  0  0  0  0  0  0
   59.1084   35.8419   46.8967 H   0  0  0  0  0  0  0  0  0  0  0  0
   58.5322   34.1433   46.8011 H   0  0  0  0  0  0  0  0  0  0  0  0
   60.2936   34.4955   46.8011 H   0  0  0  0  0  0  0  0  0  0  0  0
   58.4740   33.8737   43.4944 H   0  0  0  0  0  0  0  0  0  0  0  0
   59.7767   33.0416   44.4293 H   0  0  0  0  0  0  0  0  0  0  0  0
   57.7072   33.5908   46.2943 H   0  0  0  0  0  0  0  0  0  0  0  0
   56.8956   32.9626   44.8071 H   0  0  0  0  0  0  0  0  0  0  0  0
   60.2478   31.0418   45.4278 H   0  0  0  0  0  0  0  0  0  0  0  0
   59.9946   32.3306   46.6632 H   0  0  0  0  0  0  0  0  0  0  0  0
   60.5778   30.0707   47.6381 H   0  0  0  0  0  0  0  0  0  0  0  0
   58.9988   30.7458   48.2048 H   0  0  0  0  0  0  0  0  0  0  0  0
   59.9837   27.7675   48.1565 H   0  0  0  0  0  0  0  0  0  0  0  0
   58.7550   25.7193   47.4632 H   0  0  0  0  0  0  0  0  0  0  0  0
   58.4090   24.3670   45.1670 H   0  0  0  0  0  0  0  0  0  0  0  0
   56.1330   24.4251   42.4005 H   0  0  0  0  0  0  0  0  0  0  0  0
   56.8686   21.6932   45.6343 H   0  0  0  0  0  0  0  0  0  0  0  0
   56.2438   28.1006   44.8585 H   0  0  0  0  0  0  0  0  0  0  0  0
  1  2  1  0
  2  3  1  0
  3  4  1  0
  4  5  1  0
  5  6  1  0
  6  7  1  0
  7  8  1  0
  8  9  2  0
  9 10  1  0
 10 11  2  0
 11 12  1  0
 12 13  2  0
 12 14  1  0
 14 15  1  0
 15 16  1  0
 16 17  2  0
 17 18  1  0
 18 19  1  0
 11 20  1  0
 20 21  2  0
 21 22  1  0
 22 23  2  0
 22  5  1  0
 21  8  1  0
 19 15  2  0
  1 24  1  0
  1 25  1  0
  1 26  1  0
  3 27  1  0
  3 28  1  0
  4 29  1  0
  4 30  1  0
  6 31  1  0
  6 32  1  0
  7 33  1  0
  7 34  1  0
  9 35  1  0
 10 36  1  0
 14 37  1  0
 16 38  1  0
 19 39  1  0
 20 40  1  0
M  CHG  1  18  -1
M  END
>  <UniqueID>  (78) 
67

>  <SMILES>  (78) 
COCCN1CCc2ccc(C(=O)Nc3cn[n-]c3)cc2C1=O

>  <Energy>  (78) 
76.33930120028319

>  <Genealogy>  (78) 
COCCN1CCc2ccc(C(=O)Nc3cn[n-]c3)cc2C1=O (protonated)
COCCN1CCc2ccc(C(=O)Nc3cn[n-]c3)cc2C1=O (3D coordinates assigned)
COCCN1CCc2ccc(C(=O)Nc3cn[n-]c3)cc2C1=O (nonaromatic ring conformer: 76.33930120028319 kcal/mol)

>  <smiles>  (78) 
COCCN1CCc2ccc(C(=O)Nc3cn[nH]c3)cc2C1=O

>  <score_type>  (78) 
oracle

>  <origin>  (78) 
adg

>  <m_score__min__energy>  (78) 
-9.3599999999999994

>  <m_primary>  (78) 
energy

$$$$
78:0
     RDKit          3D

 59 62  0  0  1  0  0  0  0  0999 V2000
   58.7300   34.6170   44.8420 C   0  0  0  0  0  0  0  0  0  0  0  0
   59.2440   33.9810   46.1090 C   0  0  0  0  0  0  0  0  0  0  0  0
   58.3220   33.6030   47.0620 C   0  0  0  0  0  0  0  0  0  0  0  0
   58.8270   33.0240   48.2100 C   0  0  0  0  0  0  0  0  0  0  0  0
   60.0370   28.1120   47.0830 C   0  0  0  0  0  0  0  0  0  0  0  0
   60.2670   27.8030   48.4470 N   0  0  0  0  0  0  0  0  0  0  0  0
   60.5960   28.7580   49.2470 C   0  0  0  0  0  0  0  0  0  0  0  0
   60.4080   30.0580   48.9820 N   0  0  0  0  0  0  0  0  0  0  0  0
   60.7780   31.0180   49.8700 C   0  0  0  0  0  0  0  0  0  0  0  0
   60.5930   32.2600   49.6200 N   0  0  0  0  0  0  0  0  0  0  0  0
   60.2040   32.8330   48.3930 C   0  0  0  0  0  0  0  0  0  0  0  0
   60.7090   27.5480   46.0120 C   0  0  0  0  0  0  0  0  0  0  0  0
   60.2230   28.0840   44.8660 N   0  0  0  0  0  0  0  0  0  0  0  0
   59.2730   28.9630   45.1540 N   0  0  0  0  0  0  0  0  0  0  0  0
   58.5020   29.7560   44.1900 C   0  0  0  0  0  0  0  0  0  0  0  0
   57.3530   28.9110   43.7520 C   0  0  0  0  0  0  0  0  0  0  0  0
   56.1170   29.6790   43.3690 C   0  0  0  0  0  0  0  0  0  0  0  0
   55.7920   30.5290   44.4930 N   0  0  0  0  0  0  0  0  0  0  0  0
   56.7810   31.5830   44.4850 C   0  0  0  0  0  0  0  0  0  0  0  0
   58.1000   31.0110   44.9210 C   0  0  0  0  0  0  0  0  0  0  0  0
   59.1420   28.9960   46.5120 C   0  0  0  0  0  0  0  0  0  0  0  0
   61.1660   28.3770   50.4200 N   0  0  0  0  0  0  0  0  0  0  0  0
   61.5340   29.3190   51.3030 C   0  0  0  0  0  0  0  0  0  0  0  0
   61.3580   30.6730   51.0700 C   0  0  0  0  0  0  0  0  0  0  0  0
   61.8620   31.7870   52.2850 Cl  0  0  0  0  0  0  0  0  0  0  0  0
   61.1300   33.2110   47.4430 C   0  0  0  0  0  0  0  0  0  0  0  0
   62.5790   33.0700   47.5910 C   0  0  0  0  0  0  0  0  0  0  0  0
   63.2400   33.8750   46.4570 C   0  0  0  0  0  0  0  0  0  0  0  0
   63.1520   31.7020   47.5390 C   0  0  0  0  0  0  0  0  0  0  0  0
   63.0540   33.7030   48.8370 C   0  0  0  0  0  0  0  0  0  0  0  0
   63.4250   34.2180   49.8060 N   0  0  0  0  0  0  0  0  0  0  0  0
   60.5930   33.7950   46.2880 C   0  0  0  0  0  0  0  0  0  0  0  0
   58.0573   35.4494   45.0963 H   0  0  0  0  0  0  0  0  0  0  0  0
   59.5774   34.9973   44.2527 H   0  0  0  0  0  0  0  0  0  0  0  0
   58.1803   33.8682   44.2527 H   0  0  0  0  0  0  0  0  0  0  0  0
   57.2423   33.7544   46.9160 H   0  0  0  0  0  0  0  0  0  0  0  0
   58.1316   32.7048   49.0003 H   0  0  0  0  0  0  0  0  0  0  0  0
   59.9700   30.3100   48.0750 H   0  0  0  0  0  0  0  0  0  0  0  0
   61.5045   26.7913   46.0799 H   0  0  0  0  0  0  0  0  0  0  0  0
   59.0492   30.0493   43.2820 H   0  0  0  0  0  0  0  0  0  0  0  0
   57.6739   28.3217   42.8804 H   0  0  0  0  0  0  0  0  0  0  0  0
   57.0770   28.2899   44.6169 H   0  0  0  0  0  0  0  0  0  0  0  0
   56.3119   30.2900   42.4753 H   0  0  0  0  0  0  0  0  0  0  0  0
   55.2853   28.9988   43.1333 H   0  0  0  0  0  0  0  0  0  0  0  0
   54.8170   30.8350   44.5260 H   0  0  0  0  0  0  0  0  0  0  0  0
   56.8741   31.9952   43.4694 H   0  0  0  0  0  0  0  0  0  0  0  0
   56.4766   32.3870   45.1712 H   0  0  0  0  0  0  0  0  0  0  0  0
   58.8774   31.7711   44.7543 H   0  0  0  0  0  0  0  0  0  0  0  0
   57.9907   30.7377   45.9809 H   0  0  0  0  0  0  0  0  0  0  0  0
   58.4332   29.6288   47.0663 H   0  0  0  0  0  0  0  0  0  0  0  0
   61.3190   27.3710   50.6410 H   0  0  0  0  0  0  0  0  0  0  0  0
   61.9943   29.0025   52.2506 H   0  0  0  0  0  0  0  0  0  0  0  0
   63.8821   34.6570   46.8885 H   0  0  0  0  0  0  0  0  0  0  0  0
   63.8492   33.2016   45.8362 H   0  0  0  0  0  0  0  0  0  0  0  0
   62.4609   34.3415   45.8362 H   0  0  0  0  0  0  0  0  0  0  0  0
   63.3076   31.3305   48.5626 H   0  0  0  0  0  0  0  0  0  0  0  0
   62.4581   31.0338   47.0079 H   0  0  0  0  0  0  0  0  0  0  0  0
   64.1150   31.7278   47.0079 H   0  0  0  0  0  0  0  0  0  0  0  0
   61.2801   34.1178   45.4919 H   0  0  0  0  0  0  0  0  0  0  0  0
  1  2  1  0
  2  3  2  0
  3  4  1  0
  4  5  2  0
  5  6  1  0
  6  7  2  0
  7  8  1  0
  8  9  1  0
  9 10  2  0
 10 11  1  0
 11 12  1  0
 12 13  2  0
 13 14  1  0
 14 15  1  0
 15 16  1  0
 16 17  1  0
 17 18  1  0
 18 19  1  0
 19 20  1  0
 14 21  1  0
  9 22  1  0
 22 23  1  0
 23 24  2  0
 24 25  1  0
  5 26  1  0
 26 27  1  0
 27 28  1  0
 27 29  1  0
 27 30  1  0
 30 31  3  0
 26 32  2  0
 32  2  1  0
 24  7  1  0
 21 11  2  0
 20 15  1  0
  1 33  1  0
  1 34  1  0
  1 35  1  0
  3 36  1  0
  4 37  1  0
  8 38  1  0
 12 39  1  0
 15 40  1  0
 16 41  1  0
 16 42  1  0
 17 43  1  0
 17 44  1  0
 18 45  1  0
 19 46  1  0
 19 47  1  0
 20 48  1  0
 20 49  1  0
 21 50  1  0
 22 51  1  0
 23 52  1  0
 28 53  1  0
 28 54  1  0
 28 55  1  0
 29 56  1  0
 29 57  1  0
 29 58  1  0
 32 59  1  0
M  END
>  <smiles>  (79) 
Cc1ccc(N=c2[nH]c(=Nc3cnn(C4CCNCC4)c3)[nH]cc2Cl)c(C(C)(C)C#N)c1

>  <score_type>  (79) 
oracle

>  <origin>  (79) 
adg

>  <m_score__min__energy>  (79) 
-9.4600000000000009

>  <m_primary>  (79) 
energy

$$$$
79:0
     RDKit          3D

 37 39  0  0  0  0  0  0  0  0999 V2000
   59.6420   35.6940   46.1600 C   0  0  0  0  0  0  0  0  0  0  0  0
   59.0990   34.3080   45.9650 C   0  0  0  0  0  0  0  0  0  0  0  0
   57.8810   34.1660   45.3780 N   0  0  0  0  0  0  0  0  0  0  0  0
   57.3380   32.9440   45.1370 C   0  0  0  0  0  0  0  0  0  0  0  0
   58.0470   31.7910   45.4940 C   0  0  0  0  0  0  0  0  0  0  0  0
   57.5060   30.4400   45.2300 C   0  0  0  0  0  0  0  0  0  0  0  0
   56.3060   30.3090   44.8660 O   0  0  0  0  0  0  0  0  0  0  0  0
   58.3310   29.2780   45.4260 N   0  0  0  0  0  0  0  0  0  0  0  0
   57.9980   27.9670   44.9390 C   0  0  0  0  0  0  0  0  0  0  0  0
   58.0880   27.6460   43.5710 C   0  0  0  0  0  0  0  0  0  0  0  0
   57.7810   26.3550   43.1280 C   0  0  0  0  0  0  0  0  0  0  0  0
   57.3970   25.3720   44.0440 C   0  0  0  0  0  0  0  0  0  0  0  0
   57.3260   25.6770   45.4050 C   0  0  0  0  0  0  0  0  0  0  0  0
   57.6320   26.9660   45.8530 C   0  0  0  0  0  0  0  0  0  0  0  0
   59.2600   31.9300   46.0910 N   0  0  0  0  0  0  0  0  0  0  0  0
   59.8060   33.1480   46.3580 C   0  0  0  0  0  0  0  0  0  0  0  0
   61.1260   33.1950   47.0210 C   0  0  0  0  0  0  0  0  0  0  0  0
   61.3280   32.5900   48.2740 C   0  0  0  0  0  0  0  0  0  0  0  0
   62.5890   32.6220   48.8770 C   0  0  0  0  0  0  0  0  0  0  0  0
   63.6600   33.2450   48.2290 C   0  0  0  0  0  0  0  0  0  0  0  0
   63.4730   33.8280   46.9740 C   0  0  0  0  0  0  0  0  0  0  0  0
   62.2130   33.7980   46.3670 C   0  0  0  0  0  0  0  0  0  0  0  0
   59.7255   35.9071   47.2359 H   0  0  0  0  0  0  0  0  0  0  0  0
   60.6354   35.7676   45.6935 H   0  0  0  0  0  0  0  0  0  0  0  0
   58.9629   36.4228   45.6935 H   0  0  0  0  0  0  0  0  0  0  0  0
   56.3481   32.8613   44.6646 H   0  0  0  0  0  0  0  0  0  0  0  0
   59.1790   29.3700   46.0310 H   0  0  0  0  0  0  0  0  0  0  0  0
   58.4010   28.4134   42.8477 H   0  0  0  0  0  0  0  0  0  0  0  0
   57.8420   26.1132   42.0566 H   0  0  0  0  0  0  0  0  0  0  0  0
   57.1509   24.3589   43.6933 H   0  0  0  0  0  0  0  0  0  0  0  0
   57.0287   24.9016   46.1263 H   0  0  0  0  0  0  0  0  0  0  0  0
   57.5857   27.1969   46.9275 H   0  0  0  0  0  0  0  0  0  0  0  0
   60.4905   32.0894   48.7820 H   0  0  0  0  0  0  0  0  0  0  0  0
   62.7387   32.1565   49.8623 H   0  0  0  0  0  0  0  0  0  0  0  0
   64.6498   33.2759   48.7078 H   0  0  0  0  0  0  0  0  0  0  0  0
   64.3179   34.3116   46.4618 H   0  0  0  0  0  0  0  0  0  0  0  0
   62.0729   34.2485   45.3733 H   0  0  0  0  0  0  0  0  0  0  0  0
  1  2  1  0
  2  3  2  0
  3  4  1  0
  4  5  2  0
  5  6  1  0
  6  7  2  0
  6  8  1  0
  8  9  1  0
  9 10  2  0
 10 11  1  0
 11 12  2  0
 12 13  1  0
 13 14  2  0
  5 15  1  0
 15 16  2  0
 16 17  1  0
 17 18  2  0
 18 19  1  0
 19 20  2  0
 20 21  1  0
 21 22  2  0
 16  2  1  0
 22 17  1  0
 14  9  1  0
  1 23  1  0
  1 24  1  0
  1 25  1  0
  4 26  1  0
  8 27  1  0
 10 28  1  0
 11 29  1  0
 12 30  1  0
 13 31  1  0
 14 32  1  0
 18 33  1  0
 19 34  1  0
 20 35  1  0
 21 36  1  0
 22 37  1  0
M  END
>  <UniqueID>  (80) 
68

>  <SMILES>  (80) 
Cc1ncc(C(=O)Nc2ccccc2)nc1-c1ccccc1

>  <Energy>  (80) 
51.15355747382883

>  <Genealogy>  (80) 
Cc1ncc(C(=O)Nc2ccccc2)nc1-c1ccccc1 (3D coordinates assigned)
Cc1ncc(C(=O)Nc2ccccc2)nc1-c1ccccc1 (optimized conformer: 51.15355747382883 kcal/mol)

>  <smiles>  (80) 
Cc1ncc(C(=O)Nc2ccccc2)nc1-c1ccccc1

>  <score_type>  (80) 
oracle

>  <origin>  (80) 
adg

>  <m_score__min__energy>  (80) 
-7.8499999999999996

>  <m_primary>  (80) 
energy

$$$$
80:0
     RDKit          3D

 43 45  0  0  0  0  0  0  0  0999 V2000
   55.8981   29.1997   44.7157 H   0  0  0  0  0  0  0  0  0  0  0  0
   56.4140   30.0280   44.2080 C   0  0  0  0  0  0  0  0  0  0  0  0
   56.9690   31.0680   44.8880 N   0  0  0  0  0  0  0  0  0  0  0  0
   57.5350   31.9600   44.0430 C   0  0  0  0  0  0  0  0  0  0  0  0
   58.1410   33.0460   44.4180 N   0  0  0  0  0  0  0  0  0  0  0  0
   57.5930   34.0870   45.2430 C   0  0  0  0  0  0  0  0  0  0  0  0
   56.4910   34.6330   44.9610 O   0  0  0  0  0  0  0  0  0  0  0  0
   58.3850   34.5790   46.4120 C   0  0  0  0  0  0  0  0  0  0  0  0
   58.1812   33.9362   47.2811 H   0  0  0  0  0  0  0  0  0  0  0  0
   58.0900   35.6173   46.6238 H   0  0  0  0  0  0  0  0  0  0  0  0
   60.1770   34.5440   46.0490 S   0  0  0  0  0  0  0  0  0  0  0  0
   60.4480   32.9040   46.7500 C   0  0  0  0  0  0  0  0  0  0  0  0
   61.4550   32.6630   47.7110 C   0  0  0  0  0  0  0  0  0  0  0  0
   62.4420   33.7280   48.1290 C   0  0  0  0  0  0  0  0  0  0  0  0
   62.3656   33.8850   49.2151 H   0  0  0  0  0  0  0  0  0  0  0  0
   62.2071   34.6586   47.5916 H   0  0  0  0  0  0  0  0  0  0  0  0
   63.8660   33.3080   47.7830 C   0  0  0  0  0  0  0  0  0  0  0  0
   64.4343   33.1404   48.7098 H   0  0  0  0  0  0  0  0  0  0  0  0
   63.8415   32.3788   47.1948 H   0  0  0  0  0  0  0  0  0  0  0  0
   64.3497   34.1017   47.1948 H   0  0  0  0  0  0  0  0  0  0  0  0
   61.5810   31.3710   48.2440 C   0  0  0  0  0  0  0  0  0  0  0  0
   62.3697   31.1586   48.9808 H   0  0  0  0  0  0  0  0  0  0  0  0
   60.7110   30.3520   47.8450 C   0  0  0  0  0  0  0  0  0  0  0  0
   60.8000   29.0680   48.3980 C   0  0  0  0  0  0  0  0  0  0  0  0
   61.5726   28.8514   49.1504 H   0  0  0  0  0  0  0  0  0  0  0  0
   59.9120   28.0540   48.0010 C   0  0  0  0  0  0  0  0  0  0  0  0
   60.0350   26.6860   48.6210 C   0  0  0  0  0  0  0  0  0  0  0  0
   60.0267   26.7781   49.7171 H   0  0  0  0  0  0  0  0  0  0  0  0
   59.1895   26.0602   48.2992 H   0  0  0  0  0  0  0  0  0  0  0  0
   60.9786   26.2211   48.2992 H   0  0  0  0  0  0  0  0  0  0  0  0
   58.9410   28.3270   47.0060 C   0  0  0  0  0  0  0  0  0  0  0  0
   57.9640   27.2760   46.5520 C   0  0  0  0  0  0  0  0  0  0  0  0
   57.5130   26.7908   47.4302 H   0  0  0  0  0  0  0  0  0  0  0  0
   57.1747   27.7460   45.9470 H   0  0  0  0  0  0  0  0  0  0  0  0
   58.4903   26.5230   45.9470 H   0  0  0  0  0  0  0  0  0  0  0  0
   58.8510   29.6210   46.4650 C   0  0  0  0  0  0  0  0  0  0  0  0
   58.0815   29.8423   45.7107 H   0  0  0  0  0  0  0  0  0  0  0  0
   59.7300   30.6330   46.8750 C   0  0  0  0  0  0  0  0  0  0  0  0
   59.6340   31.8870   46.3470 N   0  0  0  0  0  0  0  0  0  0  0  0
   58.9020   32.0900   45.6270 H   0  0  0  0  0  0  0  0  0  0  0  0
   57.3740   31.5030   42.4360 S   0  0  0  0  0  0  0  0  0  0  0  0
   56.5460   30.0880   42.8260 C   0  0  0  0  0  0  0  0  0  0  0  0
   56.1740   29.3405   42.1098 H   0  0  0  0  0  0  0  0  0  0  0  0
  1  2  1  0
  2  3  1  0
  3  4  1  0
  4  5  2  0
  5  6  1  0
  6  7  2  0
  6  8  1  0
  8  9  1  0
  8 10  1  0
  8 11  1  0
 11 12  1  0
 12 13  2  0
 13 14  1  0
 14 15  1  0
 14 16  1  0
 14 17  1  0
 17 18  1  0
 17 19  1  0
 17 20  1  0
 13 21  1  0
 21 22  1  0
 21 23  2  0
 23 24  1  0
 24 25  1  0
 24 26  2  0
 26 27  1  0
 27 28  1  0
 27 29  1  0
 27 30  1  0
 26 31  1  0
 31 32  1  0
 32 33  1  0
 32 34  1  0
 32 35  1  0
 31 36  2  0
 36 37  1  0
 36 38  1  0
 38 39  2  0
 39 40  1  0
  4 41  1  0
 41 42  1  0
 42 43  1  0
 42  2  2  0
 39 12  1  0
 38 23  1  0
M  CHG  2   3  -1  39   1
M  END
>  <UniqueID>  (81) 
69

>  <SMILES>  (81) 
CCc1cc2cc(C)c(C)cc2[nH+]c1SCC(=O)/N=c1\[n-]ccs1

>  <Energy>  (81) 
70.28059496070085

>  <Genealogy>  (81) 
CCc1cc2cc(C)c(C)cc2[nH+]c1SCC(=O)N=c1[n-]ccs1 (protonated)
CCc1cc2cc(C)c(C)cc2[nH+]c1SCC(=O)/N=c1\[n-]ccs1 (cis-trans isomerization)
CCc1cc2cc(C)c(C)cc2[nH+]c1SCC(=O)/N=c1\[n-]ccs1 (3D coordinates assigned)
CCc1cc2cc(C)c(C)cc2[nH+]c1SCC(=O)/N=c1\[n-]ccs1 (optimized conformer: 70.28059496070085 kcal/mol)

>  <smiles>  (81) 
CCc1cc2cc(C)c(C)cc2nc1SCC(=O)N=c1[nH]ccs1

>  <score_type>  (81) 
oracle

>  <origin>  (81) 
adg

>  <m_score__min__energy>  (81) 
-7.6900000000000004

>  <m_primary>  (81) 
energy

$$$$
81:0
     RDKit          3D

 27 28  0  0  0  0  0  0  0  0999 V2000
   55.9220   24.4860   47.0730 O   0  0  0  0  0  0  0  0  0  0  0  0
   56.0890   25.5720   46.4590 C   0  0  0  0  0  0  0  0  0  0  0  0
   57.2640   25.9790   45.8720 C   0  0  0  0  0  0  0  0  0  0  0  0
   56.9250   27.2060   45.3360 C   0  0  0  0  0  0  0  0  0  0  0  0
   57.8230   28.1340   44.5790 C   0  0  0  0  0  0  0  0  0  0  0  0
   56.9970   29.6550   44.1200 S   0  0  0  0  0  0  0  0  0  0  0  0
   56.0690   30.0880   45.2200 O   0  0  0  0  0  0  0  0  0  0  0  0
   56.1820   29.3880   42.8860 O   0  0  0  0  0  0  0  0  0  0  0  0
   58.1450   30.9790   43.7480 C   0  0  0  0  0  0  0  0  0  0  0  0
   58.1600   32.0290   44.8310 C   0  0  0  0  0  0  0  0  0  0  0  0
   57.4520   33.2260   44.6230 C   0  0  0  0  0  0  0  0  0  0  0  0
   57.4220   34.2150   45.6090 C   0  0  0  0  0  0  0  0  0  0  0  0
   58.1040   34.0260   46.8110 C   0  0  0  0  0  0  0  0  0  0  0  0
   58.8170   32.8470   47.0310 C   0  0  0  0  0  0  0  0  0  0  0  0
   58.8510   31.8440   46.0530 C   0  0  0  0  0  0  0  0  0  0  0  0
   59.8290   30.2440   46.4610 Br  0  0  0  0  0  0  0  0  0  0  0  0
   55.6650   27.4640   45.6170 O   0  0  0  0  0  0  0  0  0  0  0  0
   55.1240   26.4930   46.2960 N   0  0  0  0  0  0  0  0  0  0  0  0
   58.2320   25.4577   45.8378 H   0  0  0  0  0  0  0  0  0  0  0  0
   58.6907   28.3789   45.2091 H   0  0  0  0  0  0  0  0  0  0  0  0
   58.1296   27.6250   43.6533 H   0  0  0  0  0  0  0  0  0  0  0  0
   59.1556   30.5563   43.6480 H   0  0  0  0  0  0  0  0  0  0  0  0
   57.8222   31.4582   42.8120 H   0  0  0  0  0  0  0  0  0  0  0  0
   56.9169   33.3850   43.6752 H   0  0  0  0  0  0  0  0  0  0  0  0
   56.8595   35.1446   45.4372 H   0  0  0  0  0  0  0  0  0  0  0  0
   58.0797   34.8066   47.5856 H   0  0  0  0  0  0  0  0  0  0  0  0
   59.3563   32.7038   47.9790 H   0  0  0  0  0  0  0  0  0  0  0  0
  1  2  2  0
  2  3  1  0
  3  4  2  0
  4  5  1  0
  5  6  1  0
  6  7  2  0
  6  8  2  0
  6  9  1  0
  9 10  1  0
 10 11  2  0
 11 12  1  0
 12 13  2  0
 13 14  1  0
 14 15  2  0
 15 16  1  0
  4 17  1  0
 17 18  1  0
 18  2  1  0
 15 10  1  0
  3 19  1  0
  5 20  1  0
  5 21  1  0
  9 22  1  0
  9 23  1  0
 11 24  1  0
 12 25  1  0
 13 26  1  0
 14 27  1  0
M  CHG  1  18  -1
M  END
>  <UniqueID>  (82) 
70

>  <SMILES>  (82) 
O=c1cc(CS(=O)(=O)Cc2ccccc2Br)o[n-]1

>  <Energy>  (82) 
50.21752322829801

>  <Genealogy>  (82) 
O=c1cc(CS(=O)(=O)Cc2ccccc2Br)o[n-]1 (protonated)
O=c1cc(CS(=O)(=O)Cc2ccccc2Br)o[n-]1 (3D coordinates assigned)
O=c1cc(CS(=O)(=O)Cc2ccccc2Br)o[n-]1 (optimized conformer: 50.21752322829801 kcal/mol)

>  <smiles>  (82) 
O=c1cc(CS(=O)(=O)Cc2ccccc2Br)o[nH]1

>  <score_type>  (82) 
oracle

>  <origin>  (82) 
adg

>  <m_score__min__energy>  (82) 
-11.220000000000001

>  <m_primary>  (82) 
energy

$$$$
82:0
     RDKit          3D

 36 39  0  0  0  0  0  0  0  0999 V2000
   57.1130   29.5900   43.7160 C   0  0  0  0  0  0  0  0  0  0  0  0
   57.6640   30.6970   44.5560 C   0  0  0  0  0  0  0  0  0  0  0  0
   57.0860   31.9160   44.6510 N   0  0  0  0  0  0  0  0  0  0  0  0
   57.8840   32.6420   45.4520 C   0  0  0  0  0  0  0  0  0  0  0  0
   57.7000   33.9660   45.8490 C   0  0  0  0  0  0  0  0  0  0  0  0
   58.6640   34.5390   46.6980 C   0  0  0  0  0  0  0  0  0  0  0  0
   59.7780   33.7850   47.1280 C   0  0  0  0  0  0  0  0  0  0  0  0
   59.9400   32.4510   46.7110 C   0  0  0  0  0  0  0  0  0  0  0  0
   58.9690   31.9080   45.8660 C   0  0  0  0  0  0  0  0  0  0  0  0
   58.8540   30.6550   45.2880 C   0  0  0  0  0  0  0  0  0  0  0  0
   59.7950   29.4900   45.4280 C   0  0  0  0  0  0  0  0  0  0  0  0
   59.2980   28.5390   46.4220 N   0  0  0  0  0  0  0  0  0  0  0  0
   58.4110   27.4440   46.1240 C   0  0  0  0  0  0  0  0  0  0  0  0
   58.9620   26.2110   45.6860 C   0  0  0  0  0  0  0  0  0  0  0  0
   58.1330   25.1120   45.3920 C   0  0  0  0  0  0  0  0  0  0  0  0
   56.7600   25.2800   45.5440 C   0  0  0  0  0  0  0  0  0  0  0  0
   55.7940   24.3750   45.3220 N   0  0  0  0  0  0  0  0  0  0  0  0
   54.6740   25.0800   45.6240 C   0  0  0  0  0  0  0  0  0  0  0  0
   53.5220   24.5790   45.5440 O   0  0  0  0  0  0  0  0  0  0  0  0
   54.8840   26.3610   46.0180 N   0  0  0  0  0  0  0  0  0  0  0  0
   56.2190   26.4580   45.9570 C   0  0  0  0  0  0  0  0  0  0  0  0
   57.0050   27.5680   46.2550 C   0  0  0  0  0  0  0  0  0  0  0  0
   56.7182   28.7968   44.3678 H   0  0  0  0  0  0  0  0  0  0  0  0
   56.3036   29.9795   43.0810 H   0  0  0  0  0  0  0  0  0  0  0  0
   57.9117   29.1791   43.0810 H   0  0  0  0  0  0  0  0  0  0  0  0
   56.2020   32.2330   44.1930 H   0  0  0  0  0  0  0  0  0  0  0  0
   56.8282   34.5442   45.5089 H   0  0  0  0  0  0  0  0  0  0  0  0
   58.5494   35.5816   47.0293 H   0  0  0  0  0  0  0  0  0  0  0  0
   60.5241   34.2437   47.7935 H   0  0  0  0  0  0  0  0  0  0  0  0
   60.8038   31.8546   47.0399 H   0  0  0  0  0  0  0  0  0  0  0  0
   59.8871   28.9818   44.4568 H   0  0  0  0  0  0  0  0  0  0  0  0
   60.7751   29.8653   45.7575 H   0  0  0  0  0  0  0  0  0  0  0  0
   59.5650   28.7050   47.4180 H   0  0  0  0  0  0  0  0  0  0  0  0
   60.0520   26.1131   45.5748 H   0  0  0  0  0  0  0  0  0  0  0  0
   58.5556   24.1543   45.0541 H   0  0  0  0  0  0  0  0  0  0  0  0
   56.5482   28.5136   46.5825 H   0  0  0  0  0  0  0  0  0  0  0  0
  1  2  1  0
  2  3  1  0
  3  4  1  0
  4  5  2  0
  5  6  1  0
  6  7  2  0
  7  8  1  0
  8  9  2  0
  9 10  1  0
 10 11  1  0
 11 12  1  0
 12 13  1  0
 13 14  2  0
 14 15  1  0
 15 16  2  0
 16 17  1  0
 17 18  1  0
 18 19  2  0
 18 20  1  0
 20 21  1  0
 21 22  2  0
 10  2  2  0
 22 13  1  0
  9  4  1  0
 21 16  1  0
  1 23  1  0
  1 24  1  0
  1 25  1  0
  3 26  1  0
  5 27  1  0
  6 28  1  0
  7 29  1  0
  8 30  1  0
 11 31  1  0
 11 32  1  0
 12 33  1  0
 14 34  1  0
 15 35  1  0
 22 36  1  0
M  CHG  2  17  -1  20  -1
M  END
>  <UniqueID>  (83) 
71

>  <SMILES>  (83) 
Cc1[nH]c2ccccc2c1CNc1ccc2[n-]c(=O)[n-]c2c1

>  <Energy>  (83) 
105.5947796233363

>  <Genealogy>  (83) 
Cc1[nH]c2ccccc2c1CNc1ccc2[n-]c(=O)[n-]c2c1 (protonated)
Cc1[nH]c2ccccc2c1CNc1ccc2[n-]c(=O)[n-]c2c1 (3D coordinates assigned)
Cc1[nH]c2ccccc2c1CNc1ccc2[n-]c(=O)[n-]c2c1 (optimized conformer: 105.5947796233363 kcal/mol)

>  <smiles>  (83) 
Cc1[nH]c2ccccc2c1CNc1ccc2[nH]c(=O)[nH]c2c1

>  <score_type>  (83) 
oracle

>  <origin>  (83) 
adg

>  <m_score__min__energy>  (83) 
-11.710000000000001

>  <m_primary>  (83) 
energy

$$$$
83:0
     RDKit          3D

 47 49  0  0  1  0  0  0  0  0999 V2000
   60.5260   29.4400   49.4540 O   0  0  0  0  0  0  0  0  0  0  0  0
   60.2220   30.4760   48.8290 C   0  0  0  0  0  0  0  0  0  0  0  0
   59.4070   30.5830   47.6470 C   0  0  0  0  0  0  0  0  0  0  0  0
   58.5250   31.4990   47.3790 C   0  0  0  0  0  0  0  0  0  0  0  0
   58.6760   32.7320   46.6750 C   0  0  0  0  0  0  0  0  0  0  0  0
   59.5220   33.7700   46.8820 C   0  0  0  0  0  0  0  0  0  0  0  0
   59.6510   34.8650   46.0190 C   0  0  0  0  0  0  0  0  0  0  0  0
   58.8900   34.9440   44.8750 C   0  0  0  0  0  0  0  0  0  0  0  0
   58.0200   33.9020   44.6440 C   0  0  0  0  0  0  0  0  0  0  0  0
   57.8960   32.8290   45.4910 C   0  0  0  0  0  0  0  0  0  0  0  0
   56.9840   31.8040   45.1840 O   0  0  0  0  0  0  0  0  0  0  0  0
   57.2620   31.0030   44.0560 C   0  0  0  0  0  0  0  0  0  0  0  0
   57.8240   29.7000   44.4870 C   0  0  0  0  0  0  0  0  0  0  0  0
   59.1640   29.4010   44.4880 C   0  0  0  0  0  0  0  0  0  0  0  0
   59.6590   28.2020   44.8880 C   0  0  0  0  0  0  0  0  0  0  0  0
   58.7600   27.2390   45.3140 C   0  0  0  0  0  0  0  0  0  0  0  0
   57.4080   27.4850   45.3350 C   0  0  0  0  0  0  0  0  0  0  0  0
   56.9430   28.7300   44.9150 C   0  0  0  0  0  0  0  0  0  0  0  0
   55.5940   28.9730   44.9350 F   0  0  0  0  0  0  0  0  0  0  0  0
   60.7570   31.6780   49.3650 N   0  0  0  0  0  0  0  0  0  0  0  0
   61.5760   31.5920   50.5320 C   0  0  0  0  0  0  0  0  0  0  0  0
   62.5340   32.7350   50.5930 C   0  0  0  0  0  0  0  0  0  0  0  0
   63.0100   32.9960   49.1880 C   0  0  0  0  0  0  0  0  0  0  0  0
   64.1710   32.5670   48.5860 C   0  0  0  0  0  0  0  0  0  0  0  0
   64.1530   33.0510   47.3310 N   0  0  0  0  0  0  0  0  0  0  0  0
   63.0370   33.7650   47.1060 C   0  0  0  0  0  0  0  0  0  0  0  0
   62.3290   33.7290   48.2630 N   0  0  0  0  0  0  0  0  0  0  0  0
   59.5465   29.8018   46.8853 H   0  0  0  0  0  0  0  0  0  0  0  0
   57.5101   31.2937   47.7501 H   0  0  0  0  0  0  0  0  0  0  0  0
   60.1478   33.7512   47.7864 H   0  0  0  0  0  0  0  0  0  0  0  0
   60.3651   35.6672   46.2569 H   0  0  0  0  0  0  0  0  0  0  0  0
   58.9724   35.7943   44.1820 H   0  0  0  0  0  0  0  0  0  0  0  0
   57.3955   33.9308   43.7389 H   0  0  0  0  0  0  0  0  0  0  0  0
   56.3327   30.8309   43.4931 H   0  0  0  0  0  0  0  0  0  0  0  0
   57.9940   31.5191   43.4174 H   0  0  0  0  0  0  0  0  0  0  0  0
   59.8717   30.1714   44.1477 H   0  0  0  0  0  0  0  0  0  0  0  0
   60.7405   28.0017   44.8741 H   0  0  0  0  0  0  0  0  0  0  0  0
   59.1350   26.2583   45.6419 H   0  0  0  0  0  0  0  0  0  0  0  0
   56.7044   26.7120   45.6777 H   0  0  0  0  0  0  0  0  0  0  0  0
   60.5820   32.6200   48.9510 H   0  0  0  0  0  0  0  0  0  0  0  0
   60.9342   31.6114   51.4252 H   0  0  0  0  0  0  0  0  0  0  0  0
   62.1488   30.6538   50.4922 H   0  0  0  0  0  0  0  0  0  0  0  0
   62.0299   33.6278   50.9916 H   0  0  0  0  0  0  0  0  0  0  0  0
   63.3812   32.4982   51.2535 H   0  0  0  0  0  0  0  0  0  0  0  0
   64.9590   31.9495   49.0417 H   0  0  0  0  0  0  0  0  0  0  0  0
   64.8790   32.9310   46.5640 H   0  0  0  0  0  0  0  0  0  0  0  0
   62.7547   34.2751   46.1732 H   0  0  0  0  0  0  0  0  0  0  0  0
  1  2  2  0
  2  3  1  0
  3  4  2  0
  4  5  1  0
  5  6  2  0
  6  7  1  0
  7  8  2  0
  8  9  1  0
  9 10  2  0
 10 11  1  0
 11 12  1  0
 12 13  1  0
 13 14  2  0
 14 15  1  0
 15 16  2  0
 16 17  1  0
 17 18  2  0
 18 19  1  0
  2 20  1  0
 20 21  1  0
 21 22  1  0
 22 23  1  0
 23 24  2  0
 24 25  1  0
 25 26  1  0
 26 27  2  0
 10  5  1  0
 18 13  1  0
 27 23  1  0
  3 28  1  0
  4 29  1  0
  6 30  1  0
  7 31  1  0
  8 32  1  0
  9 33  1  0
 12 34  1  0
 12 35  1  0
 14 36  1  0
 15 37  1  0
 16 38  1  0
 17 39  1  0
 20 40  1  0
 21 41  1  0
 21 42  1  0
 22 43  1  0
 22 44  1  0
 24 45  1  0
 25 46  1  0
 26 47  1  0
M  END
>  <smiles>  (84) 
O=C(C=Cc1ccccc1OCc1ccccc1F)NCCc1c[nH]cn1

>  <score_type>  (84) 
oracle

>  <origin>  (84) 
adg

>  <m_score__min__energy>  (84) 
-7.9299999999999997

>  <m_primary>  (84) 
energy

$$$$
84:0
     RDKit          3D

 66 68  0  0  0  0  0  0  0  0999 V2000
   62.5740   34.2430   50.1900 C   0  0  0  0  0  0  0  0  0  0  0  0
   62.3190   32.8720   50.8070 C   0  0  0  0  0  0  0  0  0  0  0  0
   62.5930   31.8360   49.8640 O   0  0  0  0  0  0  0  0  0  0  0  0
   61.6750   30.8680   49.4200 C   0  0  0  0  0  0  0  0  0  0  0  0
   60.9720   30.0340   50.3120 C   0  0  0  0  0  0  0  0  0  0  0  0
   60.0830   29.0740   49.8290 C   0  0  0  0  0  0  0  0  0  0  0  0
   59.8590   28.9400   48.4510 C   0  0  0  0  0  0  0  0  0  0  0  0
   58.9540   27.8860   47.9340 C   0  0  0  0  0  0  0  0  0  0  0  0
   59.1400   26.6800   48.2510 O   0  0  0  0  0  0  0  0  0  0  0  0
   57.9210   28.2420   47.0080 N   0  0  0  0  0  0  0  0  0  0  0  0
   57.8380   27.9030   45.6180 C   0  0  0  0  0  0  0  0  0  0  0  0
   58.2000   26.6300   45.1460 C   0  0  0  0  0  0  0  0  0  0  0  0
   58.1640   26.3510   43.7780 C   0  0  0  0  0  0  0  0  0  0  0  0
   57.7680   27.3360   42.8710 C   0  0  0  0  0  0  0  0  0  0  0  0
   57.3900   28.6010   43.3320 C   0  0  0  0  0  0  0  0  0  0  0  0
   57.3980   28.8830   44.7050 C   0  0  0  0  0  0  0  0  0  0  0  0
   57.0170   30.2240   45.1820 C   0  0  0  0  0  0  0  0  0  0  0  0
   55.9130   30.7190   44.8310 O   0  0  0  0  0  0  0  0  0  0  0  0
   57.8470   30.8940   46.1350 N   0  0  0  0  0  0  0  0  0  0  0  0
   58.3090   32.2450   45.9900 C   0  0  0  0  0  0  0  0  0  0  0  0
   58.3990   32.8360   44.7180 C   0  0  0  0  0  0  0  0  0  0  0  0
   58.8300   34.1560   44.5830 C   0  0  0  0  0  0  0  0  0  0  0  0
   59.1780   34.8980   45.7120 C   0  0  0  0  0  0  0  0  0  0  0  0
   59.0980   34.3210   46.9810 C   0  0  0  0  0  0  0  0  0  0  0  0
   58.6770   32.9880   47.1330 C   0  0  0  0  0  0  0  0  0  0  0  0
   58.5480   32.4030   48.5210 C   0  0  0  0  0  0  0  0  0  0  0  0
   59.2750   33.2530   49.5730 C   0  0  0  0  0  0  0  0  0  0  0  0
   59.0840   32.7030   50.9330 N   0  0  0  0  0  0  0  0  0  0  0  0
   57.9160   31.8080   50.9830 C   0  0  0  0  0  0  0  0  0  0  0  0
   58.9100   33.7940   51.9060 C   0  0  0  0  0  0  0  0  0  0  0  0
   60.5440   29.7880   47.5620 C   0  0  0  0  0  0  0  0  0  0  0  0
   61.4660   30.7390   48.0390 C   0  0  0  0  0  0  0  0  0  0  0  0
   62.2010   31.5690   47.1750 O   0  0  0  0  0  0  0  0  0  0  0  0
   62.0540   32.9840   47.0450 C   0  0  0  0  0  0  0  0  0  0  0  0
   63.4040   33.6550   46.8100 C   0  0  0  0  0  0  0  0  0  0  0  0
   62.7120   34.9852   50.9900 H   0  0  0  0  0  0  0  0  0  0  0  0
   63.4800   34.2022   49.5674 H   0  0  0  0  0  0  0  0  0  0  0  0
   61.7139   34.5306   49.5674 H   0  0  0  0  0  0  0  0  0  0  0  0
   62.9705   32.7437   51.6840 H   0  0  0  0  0  0  0  0  0  0  0  0
   61.2619   32.8090   51.1047 H   0  0  0  0  0  0  0  0  0  0  0  0
   61.1253   30.1407   51.3960 H   0  0  0  0  0  0  0  0  0  0  0  0
   59.5534   28.4168   50.5344 H   0  0  0  0  0  0  0  0  0  0  0  0
   58.5128   25.8505   45.8563 H   0  0  0  0  0  0  0  0  0  0  0  0
   58.4484   25.3526   43.4141 H   0  0  0  0  0  0  0  0  0  0  0  0
   57.7534   27.1168   41.7932 H   0  0  0  0  0  0  0  0  0  0  0  0
   57.0854   29.3773   42.6147 H   0  0  0  0  0  0  0  0  0  0  0  0
   58.1282   32.2547   43.8242 H   0  0  0  0  0  0  0  0  0  0  0  0
   58.8956   34.6126   43.5844 H   0  0  0  0  0  0  0  0  0  0  0  0
   59.5159   35.9391   45.6023 H   0  0  0  0  0  0  0  0  0  0  0  0
   59.3662   34.9135   47.8681 H   0  0  0  0  0  0  0  0  0  0  0  0
   57.4816   32.3467   48.7850 H   0  0  0  0  0  0  0  0  0  0  0  0
   59.0091   31.4043   48.5131 H   0  0  0  0  0  0  0  0  0  0  0  0
   60.3500   33.2688   49.3405 H   0  0  0  0  0  0  0  0  0  0  0  0
   58.8566   34.2700   49.5476 H   0  0  0  0  0  0  0  0  0  0  0  0
   57.6531   31.6065   52.0319 H   0  0  0  0  0  0  0  0  0  0  0  0
   57.0649   32.2873   50.4772 H   0  0  0  0  0  0  0  0  0  0  0  0
   58.1574   30.8615   50.4772 H   0  0  0  0  0  0  0  0  0  0  0  0
   58.9746   33.3888   52.9266 H   0  0  0  0  0  0  0  0  0  0  0  0
   59.6996   34.5456   51.7592 H   0  0  0  0  0  0  0  0  0  0  0  0
   57.9257   34.2627   51.7592 H   0  0  0  0  0  0  0  0  0  0  0  0
   60.3570   29.7071   46.4810 H   0  0  0  0  0  0  0  0  0  0  0  0
   61.3919   33.2001   46.1936 H   0  0  0  0  0  0  0  0  0  0  0  0
   61.6242   33.3787   47.9775 H   0  0  0  0  0  0  0  0  0  0  0  0
   63.8715   33.8873   47.7782 H   0  0  0  0  0  0  0  0  0  0  0  0
   64.0567   32.9764   46.2412 H   0  0  0  0  0  0  0  0  0  0  0  0
   63.2572   34.5850   46.2412 H   0  0  0  0  0  0  0  0  0  0  0  0
  1  2  1  0
  2  3  1  0
  3  4  1  0
  4  5  2  0
  5  6  1  0
  6  7  2  0
  7  8  1  0
  8  9  2  0
  8 10  1  0
 10 11  1  0
 11 12  2  0
 12 13  1  0
 13 14  2  0
 14 15  1  0
 15 16  2  0
 16 17  1  0
 17 18  2  0
 17 19  1  0
 19 20  1  0
 20 21  2  0
 21 22  1  0
 22 23  2  0
 23 24  1  0
 24 25  2  0
 25 26  1  0
 26 27  1  0
 27 28  1  0
 28 29  1  0
 28 30  1  0
  7 31  1  0
 31 32  2  0
 32 33  1  0
 33 34  1  0
 34 35  1  0
 32  4  1  0
 16 11  1  0
 25 20  1  0
  1 36  1  0
  1 37  1  0
  1 38  1  0
  2 39  1  0
  2 40  1  0
  5 41  1  0
  6 42  1  0
 12 43  1  0
 13 44  1  0
 14 45  1  0
 15 46  1  0
 21 47  1  0
 22 48  1  0
 23 49  1  0
 24 50  1  0
 26 51  1  0
 26 52  1  0
 27 53  1  0
 27 54  1  0
 29 55  1  0
 29 56  1  0
 29 57  1  0
 30 58  1  0
 30 59  1  0
 30 60  1  0
 31 61  1  0
 34 62  1  0
 34 63  1  0
 35 64  1  0
 35 65  1  0
 35 66  1  0
M  CHG  2  10  -1  19  -1
M  END
>  <UniqueID>  (85) 
72

>  <SMILES>  (85) 
CCOc1ccc(C(=O)[N-]c2ccccc2C(=O)[N-]c2ccccc2CCN(C)C)cc1OCC

>  <Energy>  (85) 
72.58669160634383

>  <Genealogy>  (85) 
CCOc1ccc(C(=O)[N-]c2ccccc2C(=O)[N-]c2ccccc2CCN(C)C)cc1OCC (protonated)
CCOc1ccc(C(=O)[N-]c2ccccc2C(=O)[N-]c2ccccc2CCN(C)C)cc1OCC (3D coordinates assigned)
CCOc1ccc(C(=O)[N-]c2ccccc2C(=O)[N-]c2ccccc2CCN(C)C)cc1OCC (optimized conformer: 72.58669160634383 kcal/mol)

>  <smiles>  (85) 
CCOc1ccc(C(=O)Nc2ccccc2C(=O)Nc2ccccc2CCN(C)C)cc1OCC

>  <score_type>  (85) 
oracle

>  <origin>  (85) 
adg

>  <m_score__min__energy>  (85) 
-11.640000000000001

>  <m_primary>  (85) 
energy

$$$$
85:0
     RDKit          3D

 44 46  0  0  0  0  0  0  0  0999 V2000
   55.1750   29.0340   44.8480 O   0  0  0  0  0  0  0  0  0  0  0  0
   56.1970   29.6770   44.4920 C   0  0  0  0  0  0  0  0  0  0  0  0
   56.2160   31.0570   44.6410 O   0  0  0  0  0  0  0  0  0  0  0  0
   57.4020   28.9920   43.9880 C   0  0  0  0  0  0  0  0  0  0  0  0
   58.6610   29.2110   44.4030 C   0  0  0  0  0  0  0  0  0  0  0  0
   59.0860   29.3620   45.8090 C   0  0  0  0  0  0  0  0  0  0  0  0
   58.5650   30.4130   46.5760 C   0  0  0  0  0  0  0  0  0  0  0  0
   58.9930   30.6070   47.8930 C   0  0  0  0  0  0  0  0  0  0  0  0
   59.9720   29.7770   48.4500 C   0  0  0  0  0  0  0  0  0  0  0  0
   60.3690   30.0010   49.7770 O   0  0  0  0  0  0  0  0  0  0  0  0
   59.9720   31.1060   50.5390 C   0  0  0  0  0  0  0  0  0  0  0  0
   58.7350   31.0580   51.1920 C   0  0  0  0  0  0  0  0  0  0  0  0
   58.3170   32.1220   51.9930 C   0  0  0  0  0  0  0  0  0  0  0  0
   59.1270   33.2510   52.1310 C   0  0  0  0  0  0  0  0  0  0  0  0
   58.5980   34.5910   53.1320 Cl  0  0  0  0  0  0  0  0  0  0  0  0
   60.3510   33.3220   51.4580 C   0  0  0  0  0  0  0  0  0  0  0  0
   60.7880   32.2530   50.6540 C   0  0  0  0  0  0  0  0  0  0  0  0
   62.0110   32.3470   49.9000 N   0  0  0  0  0  0  0  0  0  0  0  0
   62.3230   33.5950   48.7350 S   0  0  0  0  0  0  0  0  0  0  0  0
   63.5540   33.2650   47.9390 O   0  0  0  0  0  0  0  0  0  0  0  0
   62.5660   34.8900   49.4580 O   0  0  0  0  0  0  0  0  0  0  0  0
   60.9280   33.7920   47.6780 C   0  0  0  0  0  0  0  0  0  0  0  0
   59.6540   33.9740   48.2320 C   0  0  0  0  0  0  0  0  0  0  0  0
   58.5360   34.1030   47.4030 C   0  0  0  0  0  0  0  0  0  0  0  0
   58.6860   34.0520   46.0130 C   0  0  0  0  0  0  0  0  0  0  0  0
   57.2820   34.2060   44.9730 Cl  0  0  0  0  0  0  0  0  0  0  0  0
   59.9560   33.8780   45.4550 C   0  0  0  0  0  0  0  0  0  0  0  0
   61.0750   33.7510   46.2830 C   0  0  0  0  0  0  0  0  0  0  0  0
   60.5150   28.7360   47.6740 C   0  0  0  0  0  0  0  0  0  0  0  0
   60.0780   28.5360   46.3620 C   0  0  0  0  0  0  0  0  0  0  0  0
   57.2572   28.2350   43.2031 H   0  0  0  0  0  0  0  0  0  0  0  0
   59.4406   29.2839   43.6304 H   0  0  0  0  0  0  0  0  0  0  0  0
   57.8151   31.0891   46.1395 H   0  0  0  0  0  0  0  0  0  0  0  0
   58.5570   31.4177   48.4952 H   0  0  0  0  0  0  0  0  0  0  0  0
   58.0881   30.1763   51.0733 H   0  0  0  0  0  0  0  0  0  0  0  0
   57.3502   32.0711   52.5152 H   0  0  0  0  0  0  0  0  0  0  0  0
   60.9772   34.2208   51.5580 H   0  0  0  0  0  0  0  0  0  0  0  0
   62.8090   31.7180   50.1390 H   0  0  0  0  0  0  0  0  0  0  0  0
   59.5330   34.0156   49.3245 H   0  0  0  0  0  0  0  0  0  0  0  0
   57.5381   34.2446   47.8436 H   0  0  0  0  0  0  0  0  0  0  0  0
   60.0749   33.8410   44.3621 H   0  0  0  0  0  0  0  0  0  0  0  0
   62.0731   33.6186   45.8401 H   0  0  0  0  0  0  0  0  0  0  0  0
   61.2857   28.0779   48.1016 H   0  0  0  0  0  0  0  0  0  0  0  0
   60.5138   27.7263   45.7583 H   0  0  0  0  0  0  0  0  0  0  0  0
  1  2  2  0
  2  3  1  0
  2  4  1  0
  4  5  2  3
  5  6  1  0
  6  7  2  0
  7  8  1  0
  8  9  2  0
  9 10  1  0
 10 11  1  0
 11 12  2  0
 12 13  1  0
 13 14  2  0
 14 15  1  0
 14 16  1  0
 16 17  2  0
 17 18  1  0
 18 19  1  0
 19 20  2  0
 19 21  2  0
 19 22  1  0
 22 23  2  0
 23 24  1  0
 24 25  2  0
 25 26  1  0
 25 27  1  0
 27 28  2  0
  9 29  1  0
 29 30  2  0
 30  6  1  0
 17 11  1  0
 28 22  1  0
  4 31  1  0
  5 32  1  0
  7 33  1  0
  8 34  1  0
 12 35  1  0
 13 36  1  0
 16 37  1  0
 18 38  1  0
 23 39  1  0
 24 40  1  0
 27 41  1  0
 28 42  1  0
 29 43  1  0
 30 44  1  0
M  CHG  1   3  -1
M  END
>  <UniqueID>  (86) 
73

>  <SMILES>  (86) 
O=C([O-])C=Cc1ccc(Oc2ccc(Cl)cc2NS(=O)(=O)c2ccc(Cl)cc2)cc1

>  <Energy>  (86) 
63.21020685183207

>  <Genealogy>  (86) 
O=C([O-])C=Cc1ccc(Oc2ccc(Cl)cc2NS(=O)(=O)c2ccc(Cl)cc2)cc1 (protonated)
O=C([O-])C=Cc1ccc(Oc2ccc(Cl)cc2NS(=O)(=O)c2ccc(Cl)cc2)cc1 (3D coordinates assigned)
O=C([O-])C=Cc1ccc(Oc2ccc(Cl)cc2NS(=O)(=O)c2ccc(Cl)cc2)cc1 (optimized conformer: 63.21020685183207 kcal/mol)

>  <smiles>  (86) 
O=C(O)C=Cc1ccc(Oc2ccc(Cl)cc2NS(=O)(=O)c2ccc(Cl)cc2)cc1

>  <score_type>  (86) 
oracle

>  <origin>  (86) 
adg

>  <m_score__min__energy>  (86) 
-12.44

>  <m_primary>  (86) 
energy

$$$$
86:0
     RDKit          3D

 61 64  0  0  0  0  0  0  0  0999 V2000
   55.8760   19.3560   43.9340 C   0  0  0  0  0  0  0  0  0  0  0  0
   56.3440   20.5550   43.3300 O   0  0  0  0  0  0  0  0  0  0  0  0
   56.5440   21.7630   44.0140 C   0  0  0  0  0  0  0  0  0  0  0  0
   55.5100   22.7050   44.0090 C   0  0  0  0  0  0  0  0  0  0  0  0
   55.6580   23.9220   44.6730 C   0  0  0  0  0  0  0  0  0  0  0  0
   56.8320   24.2100   45.3780 C   0  0  0  0  0  0  0  0  0  0  0  0
   56.9320   25.4750   46.0470 N   0  0  0  0  0  0  0  0  0  0  0  0
   55.9950   26.5470   45.9170 C   0  0  0  0  0  0  0  0  0  0  0  0
   54.7580   26.3320   46.0400 O   0  0  0  0  0  0  0  0  0  0  0  0
   56.4840   27.8660   45.6510 N   0  0  0  0  0  0  0  0  0  0  0  0
   57.8270   28.3310   45.8470 C   0  0  0  0  0  0  0  0  0  0  0  0
   58.5990   28.6450   44.7230 C   0  0  0  0  0  0  0  0  0  0  0  0
   59.9050   29.1200   44.8730 C   0  0  0  0  0  0  0  0  0  0  0  0
   60.4460   29.2990   46.1460 C   0  0  0  0  0  0  0  0  0  0  0  0
   59.6760   29.0150   47.2850 C   0  0  0  0  0  0  0  0  0  0  0  0
   60.2360   29.2660   48.6640 C   0  0  0  0  0  0  0  0  0  0  0  0
   59.7460   30.5220   49.3820 C   0  0  0  0  0  0  0  0  0  0  0  0
   59.9970   31.7930   48.7900 C   0  0  0  0  0  0  0  0  0  0  0  0
   60.6610   31.8970   47.5600 O   0  0  0  0  0  0  0  0  0  0  0  0
   59.5780   32.9450   49.4120 N   0  0  0  0  0  0  0  0  0  0  0  0
   59.8040   34.2570   48.7800 C   0  0  0  0  0  0  0  0  0  0  0  0
   59.1490   34.3020   47.4230 C   0  0  0  0  0  0  0  0  0  0  0  0
   57.9430   33.6180   47.2010 C   0  0  0  0  0  0  0  0  0  0  0  0
   57.3530   33.6200   45.9330 C   0  0  0  0  0  0  0  0  0  0  0  0
   57.9690   34.2970   44.8770 C   0  0  0  0  0  0  0  0  0  0  0  0
   59.1700   34.9790   45.0890 C   0  0  0  0  0  0  0  0  0  0  0  0
   59.7590   34.9830   46.3570 C   0  0  0  0  0  0  0  0  0  0  0  0
   58.8880   32.8960   50.5880 C   0  0  0  0  0  0  0  0  0  0  0  0
   58.5870   31.6800   51.1850 C   0  0  0  0  0  0  0  0  0  0  0  0
   58.9990   30.4930   50.5870 C   0  0  0  0  0  0  0  0  0  0  0  0
   58.6810   29.4100   51.1470 O   0  0  0  0  0  0  0  0  0  0  0  0
   58.3640   28.5380   47.1300 C   0  0  0  0  0  0  0  0  0  0  0  0
   57.9010   23.2890   45.3640 C   0  0  0  0  0  0  0  0  0  0  0  0
   59.1060   23.6350   45.9960 O   0  0  0  0  0  0  0  0  0  0  0  0
   59.6750   24.9420   46.0050 C   0  0  0  0  0  0  0  0  0  0  0  0
   57.7430   22.0600   44.6910 C   0  0  0  0  0  0  0  0  0  0  0  0
   55.9155   19.4572   45.0286 H   0  0  0  0  0  0  0  0  0  0  0  0
   54.8385   19.1681   43.6203 H   0  0  0  0  0  0  0  0  0  0  0  0
   56.5119   18.5150   43.6203 H   0  0  0  0  0  0  0  0  0  0  0  0
   54.5729   22.4839   43.4771 H   0  0  0  0  0  0  0  0  0  0  0  0
   54.8449   24.6622   44.6424 H   0  0  0  0  0  0  0  0  0  0  0  0
   58.1758   28.5173   43.7157 H   0  0  0  0  0  0  0  0  0  0  0  0
   60.5085   29.3536   43.9835 H   0  0  0  0  0  0  0  0  0  0  0  0
   61.4779   29.6634   46.2577 H   0  0  0  0  0  0  0  0  0  0  0  0
   59.9780   28.4004   49.2918 H   0  0  0  0  0  0  0  0  0  0  0  0
   61.3152   29.4185   48.5158 H   0  0  0  0  0  0  0  0  0  0  0  0
   60.2220   31.7570   46.6590 H   0  0  0  0  0  0  0  0  0  0  0  0
   59.3755   35.0453   49.4164 H   0  0  0  0  0  0  0  0  0  0  0  0
   60.8859   34.4162   48.6613 H   0  0  0  0  0  0  0  0  0  0  0  0
   57.4599   33.0779   48.0285 H   0  0  0  0  0  0  0  0  0  0  0  0
   56.4042   33.0888   45.7669 H   0  0  0  0  0  0  0  0  0  0  0  0
   57.5081   34.2930   43.8782 H   0  0  0  0  0  0  0  0  0  0  0  0
   59.6526   35.5133   44.2574 H   0  0  0  0  0  0  0  0  0  0  0  0
   60.7040   35.5217   46.5203 H   0  0  0  0  0  0  0  0  0  0  0  0
   58.5664   33.8317   51.0687 H   0  0  0  0  0  0  0  0  0  0  0  0
   58.0236   31.6545   52.1294 H   0  0  0  0  0  0  0  0  0  0  0  0
   57.7521   28.3248   48.0189 H   0  0  0  0  0  0  0  0  0  0  0  0
   59.8187   25.2722   47.0444 H   0  0  0  0  0  0  0  0  0  0  0  0
   60.6462   24.9227   45.4888 H   0  0  0  0  0  0  0  0  0  0  0  0
   58.9992   25.6397   45.4888 H   0  0  0  0  0  0  0  0  0  0  0  0
   58.5631   21.3269   44.6947 H   0  0  0  0  0  0  0  0  0  0  0  0
  1  2  1  0
  2  3  1  0
  3  4  2  0
  4  5  1  0
  5  6  2  0
  6  7  1  0
  7  8  1  0
  8  9  2  0
  8 10  1  0
 10 11  1  0
 11 12  2  0
 12 13  1  0
 13 14  2  0
 14 15  1  0
 15 16  1  0
 16 17  1  0
 17 18  2  0
 18 19  1  0
 18 20  1  0
 20 21  1  0
 21 22  1  0
 22 23  2  0
 23 24  1  0
 24 25  2  0
 25 26  1  0
 26 27  2  0
 20 28  1  0
 28 29  2  0
 29 30  1  0
 30 31  2  0
 15 32  2  0
  6 33  1  0
 33 34  1  0
 34 35  1  0
 33 36  2  0
 36  3  1  0
 32 11  1  0
 30 17  1  0
 27 22  1  0
  1 37  1  0
  1 38  1  0
  1 39  1  0
  4 40  1  0
  5 41  1  0
 12 42  1  0
 13 43  1  0
 14 44  1  0
 16 45  1  0
 16 46  1  0
 19 47  1  0
 21 48  1  0
 21 49  1  0
 23 50  1  0
 24 51  1  0
 25 52  1  0
 26 53  1  0
 27 54  1  0
 28 55  1  0
 29 56  1  0
 32 57  1  0
 35 58  1  0
 35 59  1  0
 35 60  1  0
 36 61  1  0
M  CHG  2   7  -1  10  -1
M  END
>  <UniqueID>  (87) 
74

>  <SMILES>  (87) 
COc1ccc([N-]C(=O)[N-]c2cccc(Cc3c(O)n(Cc4ccccc4)ccc3=O)c2)c(OC)c1

>  <Energy>  (87) 
82.2084906737044

>  <Genealogy>  (87) 
COc1ccc([N-]C(=O)[N-]c2cccc(Cc3c(O)n(Cc4ccccc4)ccc3=O)c2)c(OC)c1 (protonated)
COc1ccc([N-]C(=O)[N-]c2cccc(Cc3c(O)n(Cc4ccccc4)ccc3=O)c2)c(OC)c1 (3D coordinates assigned)
COc1ccc([N-]C(=O)[N-]c2cccc(Cc3c(O)n(Cc4ccccc4)ccc3=O)c2)c(OC)c1 (optimized conformer: 82.2084906737044 kcal/mol)

>  <smiles>  (87) 
COc1ccc(NC(=O)Nc2cccc(Cc3c(O)n(Cc4ccccc4)ccc3=O)c2)c(OC)c1

>  <score_type>  (87) 
oracle

>  <origin>  (87) 
adg

>  <m_score__min__energy>  (87) 
-13.09

>  <m_primary>  (87) 
energy

$$$$
87:0
     RDKit          3D

 32 33  0  0  0  0  0  0  0  0999 V2000
   57.6780   28.8730   43.8130 N   0  0  0  0  0  0  0  0  0  0  0  0
   56.8040   30.3650   43.8410 S   0  0  0  0  0  0  0  0  0  0  0  0
   56.5290   30.8230   42.4370 O   0  0  0  0  0  0  0  0  0  0  0  0
   55.4940   30.1320   44.5410 O   0  0  0  0  0  0  0  0  0  0  0  0
   57.7370   31.6040   44.7010 C   0  0  0  0  0  0  0  0  0  0  0  0
   57.4090   32.9530   44.4770 C   0  0  0  0  0  0  0  0  0  0  0  0
   58.0500   33.9710   45.1820 C   0  0  0  0  0  0  0  0  0  0  0  0
   59.0270   33.6590   46.1250 C   0  0  0  0  0  0  0  0  0  0  0  0
   59.3760   32.3280   46.3550 C   0  0  0  0  0  0  0  0  0  0  0  0
   58.7560   31.2860   45.6400 C   0  0  0  0  0  0  0  0  0  0  0  0
   59.2130   29.9010   45.9000 C   0  0  0  0  0  0  0  0  0  0  0  0
   59.9340   29.3110   45.0490 O   0  0  0  0  0  0  0  0  0  0  0  0
   58.7930   29.2090   47.0770 N   0  0  0  0  0  0  0  0  0  0  0  0
   59.3140   27.9040   47.4620 C   0  0  0  0  0  0  0  0  0  0  0  0
   59.0440   26.8840   46.3580 C   0  0  0  0  0  0  0  0  0  0  0  0
   57.6100   26.4470   46.3590 C   0  0  0  0  0  0  0  0  0  0  0  0
   57.1270   25.2550   46.8460 C   0  0  0  0  0  0  0  0  0  0  0  0
   55.8050   25.1970   46.6130 N   0  0  0  0  0  0  0  0  0  0  0  0
   55.5280   26.3580   45.9810 C   0  0  0  0  0  0  0  0  0  0  0  0
   56.6070   27.1470   45.8010 N   0  0  0  0  0  0  0  0  0  0  0  0
   57.8770   28.6150   44.8060 H   0  0  0  0  0  0  0  0  0  0  0  0
   58.5990   29.0650   43.3590 H   0  0  0  0  0  0  0  0  0  0  0  0
   56.6370   33.2084   43.7362 H   0  0  0  0  0  0  0  0  0  0  0  0
   57.7840   35.0216   44.9934 H   0  0  0  0  0  0  0  0  0  0  0  0
   59.5235   34.4627   46.6885 H   0  0  0  0  0  0  0  0  0  0  0  0
   60.1452   32.0899   47.1044 H   0  0  0  0  0  0  0  0  0  0  0  0
   60.3985   27.9803   47.6294 H   0  0  0  0  0  0  0  0  0  0  0  0
   58.8147   27.5754   48.3854 H   0  0  0  0  0  0  0  0  0  0  0  0
   59.2793   27.3389   45.3845 H   0  0  0  0  0  0  0  0  0  0  0  0
   59.6759   26.0018   46.5382 H   0  0  0  0  0  0  0  0  0  0  0  0
   57.7245   24.4773   47.3442 H   0  0  0  0  0  0  0  0  0  0  0  0
   54.5177   26.6341   45.6448 H   0  0  0  0  0  0  0  0  0  0  0  0
  1  2  1  0
  2  3  2  0
  2  4  2  0
  2  5  1  0
  5  6  2  0
  6  7  1  0
  7  8  2  0
  8  9  1  0
  9 10  2  0
 10 11  1  0
 11 12  2  0
 11 13  1  0
 13 14  1  0
 14 15  1  0
 15 16  1  0
 16 17  2  0
 17 18  1  0
 18 19  1  0
 19 20  2  0
 10  5  1  0
 20 16  1  0
  1 21  1  0
  1 22  1  0
  6 23  1  0
  7 24  1  0
  8 25  1  0
  9 26  1  0
 14 27  1  0
 14 28  1  0
 15 29  1  0
 15 30  1  0
 17 31  1  0
 19 32  1  0
M  CHG  2  13  -1  18  -1
M  END
>  <UniqueID>  (88) 
75

>  <SMILES>  (88) 
NS(=O)(=O)c1ccccc1C(=O)[N-]CCc1c[n-]cn1

>  <Energy>  (88) 
58.72541422308397

>  <Genealogy>  (88) 
NS(=O)(=O)c1ccccc1C(=O)[N-]CCc1c[n-]cn1 (protonated)
NS(=O)(=O)c1ccccc1C(=O)[N-]CCc1c[n-]cn1 (3D coordinates assigned)
NS(=O)(=O)c1ccccc1C(=O)[N-]CCc1c[n-]cn1 (optimized conformer: 58.72541422308397 kcal/mol)

>  <smiles>  (88) 
NS(=O)(=O)c1ccccc1C(=O)NCCc1c[nH]cn1

>  <score_type>  (88) 
oracle

>  <origin>  (88) 
adg

>  <m_score__min__energy>  (88) 
-10.44

>  <m_primary>  (88) 
energy

$$$$
88:0
     RDKit          3D

 40 41  0  0  0  0  0  0  0  0999 V2000
   54.7760   29.3510   44.4680 O   0  0  0  0  0  0  0  0  0  0  0  0
   55.9880   29.4430   44.8020 C   0  0  0  0  0  0  0  0  0  0  0  0
   56.6010   30.6950   44.8370 O   0  0  0  0  0  0  0  0  0  0  0  0
   56.7790   28.2140   45.1120 C   0  0  0  0  0  0  0  0  0  0  0  0
   55.9090   27.1790   45.6600 N   0  0  0  0  0  0  0  0  0  0  0  0
   56.3620   25.8650   46.0070 C   0  0  0  0  0  0  0  0  0  0  0  0
   55.5530   25.0160   46.4720 O   0  0  0  0  0  0  0  0  0  0  0  0
   57.8030   25.4930   45.7640 C   0  0  2  0  0  0  0  0  0  0  0  0
   57.9250   23.9980   45.4000 C   0  0  0  0  0  0  0  0  0  0  0  0
   56.7540   23.4740   44.0960 S   0  0  0  0  0  0  0  0  0  0  0  0
   58.7000   25.9070   46.9560 C   0  0  0  0  0  0  0  0  0  0  0  0
   59.0690   27.3700   46.9060 C   0  0  0  0  0  0  0  0  0  0  0  0
   58.5580   28.2570   47.8660 C   0  0  0  0  0  0  0  0  0  0  0  0
   58.8850   29.6150   47.8200 C   0  0  0  0  0  0  0  0  0  0  0  0
   59.7290   30.1130   46.8090 C   0  0  0  0  0  0  0  0  0  0  0  0
   60.0820   31.5550   46.7620 C   0  0  0  0  0  0  0  0  0  0  0  0
   61.3720   31.9890   47.1220 C   0  0  0  0  0  0  0  0  0  0  0  0
   61.7000   33.3480   47.0800 C   0  0  0  0  0  0  0  0  0  0  0  0
   60.7480   34.2880   46.6820 C   0  0  0  0  0  0  0  0  0  0  0  0
   59.4640   33.8710   46.3230 C   0  0  0  0  0  0  0  0  0  0  0  0
   59.1310   32.5130   46.3610 C   0  0  0  0  0  0  0  0  0  0  0  0
   60.2360   29.2200   45.8460 C   0  0  0  0  0  0  0  0  0  0  0  0
   59.9090   27.8630   45.8960 C   0  0  0  0  0  0  0  0  0  0  0  0
   57.2492   27.8424   44.1896 H   0  0  0  0  0  0  0  0  0  0  0  0
   57.5520   28.4627   45.8541 H   0  0  0  0  0  0  0  0  0  0  0  0
   58.1736   26.0597   44.8971 H   0  0  0  0  0  0  0  0  0  0  0  0
   58.9492   23.8069   45.0471 H   0  0  0  0  0  0  0  0  0  0  0  0
   57.6846   23.4212   46.3053 H   0  0  0  0  0  0  0  0  0  0  0  0
   55.8230   24.4880   44.3890 H   0  0  0  0  0  0  0  0  0  0  0  0
   58.1587   25.7093   47.8930 H   0  0  0  0  0  0  0  0  0  0  0  0
   59.6291   25.3206   46.9012 H   0  0  0  0  0  0  0  0  0  0  0  0
   57.8958   27.8810   48.6598 H   0  0  0  0  0  0  0  0  0  0  0  0
   58.4799   30.3000   48.5794 H   0  0  0  0  0  0  0  0  0  0  0  0
   62.1271   31.2543   47.4384 H   0  0  0  0  0  0  0  0  0  0  0  0
   62.7112   33.6770   47.3615 H   0  0  0  0  0  0  0  0  0  0  0  0
   61.0086   35.3562   46.6511 H   0  0  0  0  0  0  0  0  0  0  0  0
   58.7136   34.6118   46.0099 H   0  0  0  0  0  0  0  0  0  0  0  0
   58.1187   32.1910   46.0755 H   0  0  0  0  0  0  0  0  0  0  0  0
   60.8946   29.5937   45.0482 H   0  0  0  0  0  0  0  0  0  0  0  0
   60.3130   27.1758   45.1380 H   0  0  0  0  0  0  0  0  0  0  0  0
  1  2  2  0
  2  3  1  0
  2  4  1  0
  4  5  1  0
  5  6  1  0
  6  7  2  0
  6  8  1  0
  8  9  1  0
  9 10  1  0
  8 11  1  0
 11 12  1  0
 12 13  2  0
 13 14  1  0
 14 15  2  0
 15 16  1  0
 16 17  2  0
 17 18  1  0
 18 19  2  0
 19 20  1  0
 20 21  2  0
 15 22  1  0
 22 23  2  0
 23 12  1  0
 21 16  1  0
  4 24  1  0
  4 25  1  0
  8 26  1  6
  9 27  1  0
  9 28  1  0
 10 29  1  0
 11 30  1  0
 11 31  1  0
 13 32  1  0
 14 33  1  0
 17 34  1  0
 18 35  1  0
 19 36  1  0
 20 37  1  0
 21 38  1  0
 22 39  1  0
 23 40  1  0
M  CHG  2   3  -1   5  -1
M  END
>  <UniqueID>  (89) 
76

>  <SMILES>  (89) 
O=C([O-])C[N-]C(=O)[C@H](CS)Cc1ccc(-c2ccccc2)cc1

>  <Energy>  (89) 
39.77147874629102

>  <Genealogy>  (89) 
O=C([O-])C[N-]C(=O)C(CS)Cc1ccc(-c2ccccc2)cc1 (protonated)
O=C([O-])C[N-]C(=O)[C@H](CS)Cc1ccc(-c2ccccc2)cc1 (chirality)
O=C([O-])C[N-]C(=O)[C@H](CS)Cc1ccc(-c2ccccc2)cc1 (3D coordinates assigned)
O=C([O-])C[N-]C(=O)[C@H](CS)Cc1ccc(-c2ccccc2)cc1 (optimized conformer: 39.77147874629102 kcal/mol)

>  <smiles>  (89) 
O=C(O)CNC(=O)C(CS)Cc1ccc(-c2ccccc2)cc1

>  <score_type>  (89) 
oracle

>  <origin>  (89) 
adg

>  <m_score__min__energy>  (89) 
-12.33

>  <m_primary>  (89) 
energy

$$$$
89:0
     RDKit          3D

 48 49  0  0  0  0  0  0  0  0999 V2000
   59.9950   28.1670   48.8710 C   0  0  0  0  0  0  0  0  0  0  0  0
   59.8180   29.6740   49.1430 C   0  0  0  0  0  0  0  0  0  0  0  0
   61.1850   30.3830   49.1740 C   0  0  0  0  0  0  0  0  0  0  0  0
   59.1360   29.8540   50.5080 C   0  0  0  0  0  0  0  0  0  0  0  0
   58.9590   30.2690   48.1570 O   0  0  0  0  0  0  0  0  0  0  0  0
   59.0060   30.0490   46.7730 C   0  0  0  0  0  0  0  0  0  0  0  0
   60.0320   29.5590   46.2290 O   0  0  0  0  0  0  0  0  0  0  0  0
   57.8660   30.3990   45.9770 N   0  0  0  0  0  0  0  0  0  0  0  0
   57.8530   30.2880   44.5180 C   0  0  0  0  0  0  0  0  0  0  0  0
   57.2110   31.5210   43.8810 C   0  0  0  0  0  0  0  0  0  0  0  0
   56.6240   32.3550   44.8770 O   0  0  0  0  0  0  0  0  0  0  0  0
   57.1610   33.5870   45.2720 C   0  0  0  0  0  0  0  0  0  0  0  0
   56.5910   34.6640   44.9380 O   0  0  0  0  0  0  0  0  0  0  0  0
   58.3860   33.6250   46.0980 C   0  0  0  0  0  0  0  0  0  0  0  0
   59.6320   33.8820   45.5030 C   0  0  0  0  0  0  0  0  0  0  0  0
   60.8000   33.8620   46.2700 C   0  0  0  0  0  0  0  0  0  0  0  0
   60.7470   33.5920   47.6480 C   0  0  0  0  0  0  0  0  0  0  0  0
   61.9900   33.5510   48.4580 C   0  0  0  0  0  0  0  0  0  0  0  0
   62.0100   34.0710   49.7650 C   0  0  0  0  0  0  0  0  0  0  0  0
   63.1820   34.0290   50.5270 C   0  0  0  0  0  0  0  0  0  0  0  0
   64.3450   33.4660   49.9930 C   0  0  0  0  0  0  0  0  0  0  0  0
   65.8140   33.4120   50.9510 Cl  0  0  0  0  0  0  0  0  0  0  0  0
   64.3360   32.9440   48.6960 C   0  0  0  0  0  0  0  0  0  0  0  0
   63.1670   32.9860   47.9310 C   0  0  0  0  0  0  0  0  0  0  0  0
   59.4970   33.3530   48.2450 C   0  0  0  0  0  0  0  0  0  0  0  0
   58.3290   33.3670   47.4780 C   0  0  0  0  0  0  0  0  0  0  0  0
   60.0584   27.6268   49.8271 H   0  0  0  0  0  0  0  0  0  0  0  0
   59.1344   27.7947   48.2959 H   0  0  0  0  0  0  0  0  0  0  0  0
   60.9184   28.0042   48.2959 H   0  0  0  0  0  0  0  0  0  0  0  0
   61.4919   30.5422   50.2183 H   0  0  0  0  0  0  0  0  0  0  0  0
   61.9332   29.7593   48.6629 H   0  0  0  0  0  0  0  0  0  0  0  0
   61.1062   31.3539   48.6629 H   0  0  0  0  0  0  0  0  0  0  0  0
   59.8641   29.6618   51.3098 H   0  0  0  0  0  0  0  0  0  0  0  0
   58.7570   30.8829   50.5957 H   0  0  0  0  0  0  0  0  0  0  0  0
   58.2986   29.1461   50.5957 H   0  0  0  0  0  0  0  0  0  0  0  0
   57.0520   30.8510   46.4480 H   0  0  0  0  0  0  0  0  0  0  0  0
   58.8870   30.1927   44.1551 H   0  0  0  0  0  0  0  0  0  0  0  0
   57.2638   29.4020   44.2389 H   0  0  0  0  0  0  0  0  0  0  0  0
   57.9814   32.0910   43.3410 H   0  0  0  0  0  0  0  0  0  0  0  0
   56.4237   31.1911   43.1872 H   0  0  0  0  0  0  0  0  0  0  0  0
   59.6889   34.1004   44.4264 H   0  0  0  0  0  0  0  0  0  0  0  0
   61.7701   34.0595   45.7905 H   0  0  0  0  0  0  0  0  0  0  0  0
   61.0974   34.5137   50.1906 H   0  0  0  0  0  0  0  0  0  0  0  0
   63.1888   34.4394   51.5476 H   0  0  0  0  0  0  0  0  0  0  0  0
   65.2507   32.4994   48.2768 H   0  0  0  0  0  0  0  0  0  0  0  0
   63.1666   32.5750   46.9107 H   0  0  0  0  0  0  0  0  0  0  0  0
   59.4378   33.1533   49.3251 H   0  0  0  0  0  0  0  0  0  0  0  0
   57.3581   33.1747   47.9580 H   0  0  0  0  0  0  0  0  0  0  0  0
  1  2  1  0
  2  3  1  0
  2  4  1  0
  2  5  1  0
  5  6  1  0
  6  7  2  0
  6  8  1  0
  8  9  1  0
  9 10  1  0
 10 11  1  0
 11 12  1  0
 12 13  2  0
 12 14  1  0
 14 15  2  0
 15 16  1  0
 16 17  2  0
 17 18  1  0
 18 19  2  0
 19 20  1  0
 20 21  2  0
 21 22  1  0
 21 23  1  0
 23 24  2  0
 17 25  1  0
 25 26  2  0
 26 14  1  0
 24 18  1  0
  1 27  1  0
  1 28  1  0
  1 29  1  0
  3 30  1  0
  3 31  1  0
  3 32  1  0
  4 33  1  0
  4 34  1  0
  4 35  1  0
  8 36  1  0
  9 37  1  0
  9 38  1  0
 10 39  1  0
 10 40  1  0
 15 41  1  0
 16 42  1  0
 19 43  1  0
 20 44  1  0
 23 45  1  0
 24 46  1  0
 25 47  1  0
 26 48  1  0
M  END
>  <UniqueID>  (90) 
77

>  <SMILES>  (90) 
CC(C)(C)OC(=O)NCCOC(=O)c1ccc(-c2ccc(Cl)cc2)cc1

>  <Energy>  (90) 
41.739954728521056

>  <Genealogy>  (90) 
CC(C)(C)OC(=O)NCCOC(=O)c1ccc(-c2ccc(Cl)cc2)cc1 (3D coordinates assigned)
CC(C)(C)OC(=O)NCCOC(=O)c1ccc(-c2ccc(Cl)cc2)cc1 (optimized conformer: 41.739954728521056 kcal/mol)

>  <smiles>  (90) 
CC(C)(C)OC(=O)NCCOC(=O)c1ccc(-c2ccc(Cl)cc2)cc1

>  <score_type>  (90) 
oracle

>  <origin>  (90) 
adg

>  <m_score__min__energy>  (90) 
-8.7200000000000006

>  <m_primary>  (90) 
energy

$$$$
90:0
     RDKit          3D

 47 49  0  0  0  0  0  0  0  0999 V2000
   54.5500   27.0890   46.7580 H   0  0  0  0  0  0  0  0  0  0  0  0
   55.1570   26.7110   45.9970 N   0  0  0  0  0  0  0  0  0  0  0  0
   56.5510   27.0220   45.9390 C   0  0  0  0  0  0  0  0  0  0  0  0
   57.3920   26.1400   46.2620 O   0  0  0  0  0  0  0  0  0  0  0  0
   57.0060   28.3660   45.5120 C   0  0  0  0  0  0  0  0  0  0  0  0
   58.1570   28.9440   46.0770 C   0  0  0  0  0  0  0  0  0  0  0  0
   58.7326   28.3881   46.8317 H   0  0  0  0  0  0  0  0  0  0  0  0
   58.5750   30.2190   45.6870 C   0  0  0  0  0  0  0  0  0  0  0  0
   59.4837   30.6540   46.1286 H   0  0  0  0  0  0  0  0  0  0  0  0
   57.8460   30.9480   44.7380 C   0  0  0  0  0  0  0  0  0  0  0  0
   58.2820   32.2690   44.3760 N   0  0  0  0  0  0  0  0  0  0  0  0
   59.1090   32.3530   43.7410 H   0  0  0  0  0  0  0  0  0  0  0  0
   57.9040   33.4460   45.1040 C   0  0  0  0  0  0  0  0  0  0  0  0
   56.9430   33.4170   45.9220 O   0  0  0  0  0  0  0  0  0  0  0  0
   58.6850   34.6380   44.9630 N   0  0  0  0  0  0  0  0  0  0  0  0
   59.4890   35.2130   46.0420 C   0  0  0  0  0  0  0  0  0  0  0  0
   60.3909   35.6693   45.6081 H   0  0  0  0  0  0  0  0  0  0  0  0
   58.8735   35.9624   46.5612 H   0  0  0  0  0  0  0  0  0  0  0  0
   59.9100   34.1670   47.0590 C   0  0  0  0  0  0  0  0  0  0  0  0
   59.0960   33.8400   48.1610 C   0  0  0  0  0  0  0  0  0  0  0  0
   58.1155   34.3271   48.2674 H   0  0  0  0  0  0  0  0  0  0  0  0
   59.5050   32.9100   49.1240 C   0  0  0  0  0  0  0  0  0  0  0  0
   58.5780   32.6380   50.1950 N   0  0  0  0  0  0  0  0  0  0  0  0
   58.6410   32.8820   51.4730 C   0  0  0  0  0  0  0  0  0  0  0  0
   59.3010   33.9700   51.9600 N   0  0  0  0  0  0  0  0  0  0  0  0
   59.3910   34.2300   53.2900 C   0  0  0  0  0  0  0  0  0  0  0  0
   59.9232   35.1268   53.6399 H   0  0  0  0  0  0  0  0  0  0  0  0
   58.8100   33.3620   54.2110 C   0  0  0  0  0  0  0  0  0  0  0  0
   58.8748   33.5701   55.2892 H   0  0  0  0  0  0  0  0  0  0  0  0
   58.1440   32.2240   53.7500 C   0  0  0  0  0  0  0  0  0  0  0  0
   57.6934   31.5230   54.4680 H   0  0  0  0  0  0  0  0  0  0  0  0
   58.0490   31.9740   52.3760 C   0  0  0  0  0  0  0  0  0  0  0  0
   57.2300   30.5140   51.7980 S   0  0  0  0  0  0  0  0  0  0  0  0
   57.1090   29.5300   52.9310 O   0  0  0  0  0  0  0  0  0  0  0  0
   55.8540   30.8510   51.2900 O   0  0  0  0  0  0  0  0  0  0  0  0
   58.1440   29.8080   50.5060 N   0  0  0  0  0  0  0  0  0  0  0  0
   58.8870   30.4970   50.2450 H   0  0  0  0  0  0  0  0  0  0  0  0
   60.7890   32.3360   49.0150 C   0  0  0  0  0  0  0  0  0  0  0  0
   61.1410   31.6263   49.7782 H   0  0  0  0  0  0  0  0  0  0  0  0
   61.6130   32.6690   47.9380 C   0  0  0  0  0  0  0  0  0  0  0  0
   62.6108   32.2135   47.8551 H   0  0  0  0  0  0  0  0  0  0  0  0
   61.1830   33.5760   46.9630 C   0  0  0  0  0  0  0  0  0  0  0  0
   62.0200   33.8950   45.9420 F   0  0  0  0  0  0  0  0  0  0  0  0
   56.7130   30.3650   44.1500 C   0  0  0  0  0  0  0  0  0  0  0  0
   56.1527   30.9148   43.3794 H   0  0  0  0  0  0  0  0  0  0  0  0
   56.2920   29.0890   44.5380 C   0  0  0  0  0  0  0  0  0  0  0  0
   55.3958   28.6469   44.0783 H   0  0  0  0  0  0  0  0  0  0  0  0
  1  2  1  0
  2  3  1  0
  3  4  2  0
  3  5  1  0
  5  6  2  0
  6  7  1  0
  6  8  1  0
  8  9  1  0
  8 10  2  0
 10 11  1  0
 11 12  1  0
 11 13  1  0
 13 14  2  0
 13 15  1  0
 15 16  1  0
 16 17  1  0
 16 18  1  0
 16 19  1  0
 19 20  2  0
 20 21  1  0
 20 22  1  0
 22 23  1  0
 23 24  2  0
 24 25  1  0
 25 26  1  0
 26 27  1  0
 26 28  2  0
 28 29  1  0
 28 30  1  0
 30 31  1  0
 30 32  2  0
 32 33  1  0
 33 34  2  0
 33 35  2  0
 33 36  1  0
 36 37  1  0
 22 38  2  0
 38 39  1  0
 38 40  1  0
 40 41  1  0
 40 42  2  0
 42 43  1  0
 10 44  1  0
 44 45  1  0
 44 46  2  0
 46 47  1  0
 46  5  1  0
 42 19  1  0
 32 24  1  0
M  CHG  4   2  -1  15  -1  25  -1  36  -1
M  END
>  <UniqueID>  (91) 
78

>  <SMILES>  (91) 
[NH-]C(=O)c1ccc(NC(=O)[N-]Cc2cc(/N=c3/[n-]cccc3S([NH-])(=O)=O)ccc2F)cc1

>  <Energy>  (91) 
64.29092258649389

>  <Genealogy>  (91) 
[NH-]C(=O)c1ccc(NC(=O)[N-]Cc2cc(N=c3[n-]cccc3S([NH-])(=O)=O)ccc2F)cc1 (protonated)
[NH-]C(=O)c1ccc(NC(=O)[N-]Cc2cc(/N=c3/[n-]cccc3S([NH-])(=O)=O)ccc2F)cc1 (cis-trans isomerization)
[NH-]C(=O)c1ccc(NC(=O)[N-]Cc2cc(/N=c3/[n-]cccc3S([NH-])(=O)=O)ccc2F)cc1 (3D coordinates assigned)
[NH-]C(=O)c1ccc(NC(=O)[N-]Cc2cc(/N=c3/[n-]cccc3S([NH-])(=O)=O)ccc2F)cc1 (optimized conformer: 64.29092258649389 kcal/mol)

>  <smiles>  (91) 
NC(=O)c1ccc(NC(=O)NCc2cc(N=c3[nH]cccc3S(N)(=O)=O)ccc2F)cc1

>  <score_type>  (91) 
oracle

>  <origin>  (91) 
adg

>  <m_score__min__energy>  (91) 
-16.920000000000002

>  <m_primary>  (91) 
energy

$$$$
91:0
     RDKit          3D

 50 52  0  0  0  0  0  0  0  0999 V2000
   62.1510   32.1690   47.5060 C   0  0  0  0  0  0  0  0  0  0  0  0
   62.1300   30.8380   48.0150 O   0  0  0  0  0  0  0  0  0  0  0  0
   60.9250   30.1450   48.2080 C   0  0  0  0  0  0  0  0  0  0  0  0
   60.1630   30.3610   49.3630 C   0  0  0  0  0  0  0  0  0  0  0  0
   58.9220   29.7340   49.4800 C   0  0  0  0  0  0  0  0  0  0  0  0
   58.0950   30.0680   50.5640 O   0  0  0  0  0  0  0  0  0  0  0  0
   58.1280   31.3480   51.1910 C   0  0  0  0  0  0  0  0  0  0  0  0
   58.5170   28.8600   48.5150 N   0  0  0  0  0  0  0  0  0  0  0  0
   59.2950   28.6050   47.4210 C   0  0  0  0  0  0  0  0  0  0  0  0
   58.8460   27.6950   46.3690 C   0  0  0  0  0  0  0  0  0  0  0  0
   59.6360   26.8030   45.9490 O   0  0  0  0  0  0  0  0  0  0  0  0
   57.4360   27.7370   45.8510 C   0  0  0  0  0  0  0  0  0  0  0  0
   57.3660   28.6230   44.6720 N   0  0  0  0  0  0  0  0  0  0  0  0
   58.6040   29.4060   44.4380 C   0  0  0  0  0  0  0  0  0  0  0  0
   58.5540   30.8410   45.0120 C   0  0  0  0  0  0  0  0  0  0  0  0
   57.1900   31.4080   45.0610 N   0  0  0  0  0  0  0  0  0  0  0  0
   57.1460   32.8830   45.0530 C   0  0  0  0  0  0  0  0  0  0  0  0
   58.1230   33.4000   46.0750 C   0  0  0  0  0  0  0  0  0  0  0  0
   58.0890   32.8780   47.3810 C   0  0  0  0  0  0  0  0  0  0  0  0
   58.9380   33.3850   48.3680 C   0  0  0  0  0  0  0  0  0  0  0  0
   59.8120   34.4320   48.0680 C   0  0  0  0  0  0  0  0  0  0  0  0
   59.8360   34.9740   46.7800 C   0  0  0  0  0  0  0  0  0  0  0  0
   58.9960   34.4620   45.7830 C   0  0  0  0  0  0  0  0  0  0  0  0
   59.0330   35.0110   44.5400 F   0  0  0  0  0  0  0  0  0  0  0  0
   56.2850   30.7900   44.0860 C   0  0  0  0  0  0  0  0  0  0  0  0
   56.0810   29.3470   44.5320 C   0  0  0  0  0  0  0  0  0  0  0  0
   60.4730   29.2660   47.2730 N   0  0  0  0  0  0  0  0  0  0  0  0
   62.1622   32.8818   48.3437 H   0  0  0  0  0  0  0  0  0  0  0  0
   63.0515   32.3121   46.8907 H   0  0  0  0  0  0  0  0  0  0  0  0
   61.2554   32.3404   46.8907 H   0  0  0  0  0  0  0  0  0  0  0  0
   60.5368   31.0144   50.1650 H   0  0  0  0  0  0  0  0  0  0  0  0
   58.1247   31.2212   52.2837 H   0  0  0  0  0  0  0  0  0  0  0  0
   59.0402   31.8820   50.8866 H   0  0  0  0  0  0  0  0  0  0  0  0
   57.2445   31.9283   50.8866 H   0  0  0  0  0  0  0  0  0  0  0  0
   57.1208   26.7225   45.5654 H   0  0  0  0  0  0  0  0  0  0  0  0
   56.7701   28.1227   46.6370 H   0  0  0  0  0  0  0  0  0  0  0  0
   59.4445   28.8740   44.9075 H   0  0  0  0  0  0  0  0  0  0  0  0
   58.7212   29.5012   43.3484 H   0  0  0  0  0  0  0  0  0  0  0  0
   58.9602   30.8217   46.0341 H   0  0  0  0  0  0  0  0  0  0  0  0
   59.1464   31.4795   44.3402 H   0  0  0  0  0  0  0  0  0  0  0  0
   57.4214   33.2562   44.0556 H   0  0  0  0  0  0  0  0  0  0  0  0
   56.1306   33.2292   45.2961 H   0  0  0  0  0  0  0  0  0  0  0  0
   57.3894   32.0654   47.6266 H   0  0  0  0  0  0  0  0  0  0  0  0
   58.9180   32.9592   49.3820 H   0  0  0  0  0  0  0  0  0  0  0  0
   60.4812   34.8299   48.8450 H   0  0  0  0  0  0  0  0  0  0  0  0
   60.5173   35.8060   46.5484 H   0  0  0  0  0  0  0  0  0  0  0  0
   55.3224   31.3222   44.0717 H   0  0  0  0  0  0  0  0  0  0  0  0
   56.7063   30.8348   43.0709 H   0  0  0  0  0  0  0  0  0  0  0  0
   55.5645   29.3450   45.5032 H   0  0  0  0  0  0  0  0  0  0  0  0
   55.4841   28.8346   43.7631 H   0  0  0  0  0  0  0  0  0  0  0  0
  1  2  1  0
  2  3  1  0
  3  4  2  0
  4  5  1  0
  5  6  1  0
  6  7  1  0
  5  8  2  0
  8  9  1  0
  9 10  1  0
 10 11  2  0
 10 12  1  0
 12 13  1  0
 13 14  1  0
 14 15  1  0
 15 16  1  0
 16 17  1  0
 17 18  1  0
 18 19  2  0
 19 20  1  0
 20 21  2  0
 21 22  1  0
 22 23  2  0
 23 24  1  0
 16 25  1  0
 25 26  1  0
  9 27  2  0
 27  3  1  0
 26 13  1  0
 23 18  1  0
  1 28  1  0
  1 29  1  0
  1 30  1  0
  4 31  1  0
  7 32  1  0
  7 33  1  0
  7 34  1  0
 12 35  1  0
 12 36  1  0
 14 37  1  0
 14 38  1  0
 15 39  1  0
 15 40  1  0
 17 41  1  0
 17 42  1  0
 19 43  1  0
 20 44  1  0
 21 45  1  0
 22 46  1  0
 25 47  1  0
 25 48  1  0
 26 49  1  0
 26 50  1  0
M  END
>  <UniqueID>  (92) 
79

>  <SMILES>  (92) 
COc1cc(OC)nc(C(=O)CN2CCN(Cc3ccccc3F)CC2)n1

>  <Energy>  (92) 
69.78202709007952

>  <Genealogy>  (92) 
COc1cc(OC)nc(C(=O)CN2CCN(Cc3ccccc3F)CC2)n1 (3D coordinates assigned)
COc1cc(OC)nc(C(=O)CN2CCN(Cc3ccccc3F)CC2)n1 (nonaromatic ring conformer: 69.78202709007952 kcal/mol)

>  <smiles>  (92) 
COc1cc(OC)nc(C(=O)CN2CCN(Cc3ccccc3F)CC2)n1

>  <score_type>  (92) 
oracle

>  <origin>  (92) 
adg

>  <m_score__min__energy>  (92) 
-8.4199999999999999

>  <m_primary>  (92) 
energy

$$$$
92:0
     RDKit          3D

 38 40  0  0  0  0  0  0  0  0999 V2000
   55.4624   29.3526   45.3409 H   0  0  0  0  0  0  0  0  0  0  0  0
   56.4730   29.0220   45.0590 C   0  0  0  0  0  0  0  0  0  0  0  0
   57.2170   29.7940   44.3310 N   0  0  0  0  0  0  0  0  0  0  0  0
   57.5910   31.1410   44.6630 C   0  0  0  0  0  0  0  0  0  0  0  0
   57.8830   31.5190   45.9920 C   0  0  0  0  0  0  0  0  0  0  0  0
   57.8440   30.6160   47.0030 F   0  0  0  0  0  0  0  0  0  0  0  0
   58.2760   32.8290   46.2790 C   0  0  0  0  0  0  0  0  0  0  0  0
   58.4870   33.1217   47.3181 H   0  0  0  0  0  0  0  0  0  0  0  0
   58.4020   33.7670   45.2550 C   0  0  0  0  0  0  0  0  0  0  0  0
   58.7064   34.7980   45.4882 H   0  0  0  0  0  0  0  0  0  0  0  0
   58.1420   33.3980   43.9340 C   0  0  0  0  0  0  0  0  0  0  0  0
   58.2535   34.1382   43.1280 H   0  0  0  0  0  0  0  0  0  0  0  0
   57.7390   32.0880   43.6270 C   0  0  0  0  0  0  0  0  0  0  0  0
   57.4720   31.7030   42.1970 C   0  0  0  0  0  0  0  0  0  0  0  0
   56.8453   30.7993   42.1715 H   0  0  0  0  0  0  0  0  0  0  0  0
   56.9497   32.5259   41.6871 H   0  0  0  0  0  0  0  0  0  0  0  0
   58.4258   31.5023   41.6871 H   0  0  0  0  0  0  0  0  0  0  0  0
   56.9600   27.7080   45.5150 C   0  0  0  0  0  0  0  0  0  0  0  0
   56.1590   26.6810   45.9670 C   0  0  0  0  0  0  0  0  0  0  0  0
   54.7730   26.7090   46.0440 O   0  0  0  0  0  0  0  0  0  0  0  0
   56.9040   25.6220   46.3380 N   0  0  0  0  0  0  0  0  0  0  0  0
   58.1650   26.0390   46.1020 C   0  0  0  0  0  0  0  0  0  0  0  0
   59.1730   25.3210   46.3410 O   0  0  0  0  0  0  0  0  0  0  0  0
   58.2460   27.2950   45.6010 N   0  0  0  0  0  0  0  0  0  0  0  0
   59.4780   28.0460   45.3280 C   0  0  0  0  0  0  0  0  0  0  0  0
   60.2729   27.3422   45.0403 H   0  0  0  0  0  0  0  0  0  0  0  0
   59.2830   28.7582   44.5127 H   0  0  0  0  0  0  0  0  0  0  0  0
   59.9180   28.8170   46.5480 C   0  0  0  0  0  0  0  0  0  0  0  0
   60.7220   29.9620   46.4150 C   0  0  0  0  0  0  0  0  0  0  0  0
   61.0311   30.3007   45.4151 H   0  0  0  0  0  0  0  0  0  0  0  0
   61.1310   30.6730   47.5480 C   0  0  0  0  0  0  0  0  0  0  0  0
   61.7500   31.5754   47.4366 H   0  0  0  0  0  0  0  0  0  0  0  0
   60.7540   30.2380   48.8210 C   0  0  0  0  0  0  0  0  0  0  0  0
   61.0724   30.8007   49.7110 H   0  0  0  0  0  0  0  0  0  0  0  0
   59.9730   29.0890   48.9640 C   0  0  0  0  0  0  0  0  0  0  0  0
   59.6818   28.7440   49.9671 H   0  0  0  0  0  0  0  0  0  0  0  0
   59.5610   28.3770   47.8340 C   0  0  0  0  0  0  0  0  0  0  0  0
   58.9540   27.4673   47.9520 H   0  0  0  0  0  0  0  0  0  0  0  0
  1  2  1  0
  2  3  2  0
  3  4  1  0
  4  5  2  0
  5  6  1  0
  5  7  1  0
  7  8  1  0
  7  9  2  0
  9 10  1  0
  9 11  1  0
 11 12  1  0
 11 13  2  0
 13 14  1  0
 14 15  1  0
 14 16  1  0
 14 17  1  0
  2 18  1  0
 18 19  2  0
 19 20  1  0
 19 21  1  0
 21 22  1  0
 22 23  2  0
 22 24  1  0
 24 25  1  0
 25 26  1  0
 25 27  1  0
 25 28  1  0
 28 29  2  0
 29 30  1  0
 29 31  1  0
 31 32  1  0
 31 33  2  0
 33 34  1  0
 33 35  1  0
 35 36  1  0
 35 37  2  0
 37 38  1  0
 13  4  1  0
 24 18  1  0
 37 28  1  0
M  CHG  2  20  -1  21  -1
M  END
>  <UniqueID>  (93) 
80

>  <SMILES>  (93) 
Cc1cccc(F)c1/N=C/c1c([O-])[n-]c(=O)n1Cc1ccccc1

>  <Energy>  (93) 
75.79047198112566

>  <Genealogy>  (93) 
Cc1cccc(F)c1N=Cc1c([O-])[n-]c(=O)n1Cc1ccccc1 (protonated)
Cc1cccc(F)c1/N=C/c1c([O-])[n-]c(=O)n1Cc1ccccc1 (cis-trans isomerization)
Cc1cccc(F)c1/N=C/c1c([O-])[n-]c(=O)n1Cc1ccccc1 (3D coordinates assigned)
Cc1cccc(F)c1/N=C/c1c([O-])[n-]c(=O)n1Cc1ccccc1 (optimized conformer: 75.79047198112566 kcal/mol)

>  <smiles>  (93) 
Cc1cccc(F)c1N=Cc1c(O)[nH]c(=O)n1Cc1ccccc1

>  <score_type>  (93) 
oracle

>  <origin>  (93) 
adg

>  <m_score__min__energy>  (93) 
-12.83

>  <m_primary>  (93) 
energy

$$$$
93:0
     RDKit          3D

 45 47  0  0  0  0  0  0  0  0999 V2000
   56.9810   22.1140   47.0950 N   0  0  0  0  0  0  0  0  0  0  0  0
   57.0860   23.1950   46.6930 C   0  0  0  0  0  0  0  0  0  0  0  0
   57.2150   24.5380   46.1920 C   0  0  0  0  0  0  0  0  0  0  0  0
   57.6240   24.7590   44.8710 C   0  0  0  0  0  0  0  0  0  0  0  0
   57.7480   26.0640   44.3840 C   0  0  0  0  0  0  0  0  0  0  0  0
   57.4760   27.1630   45.2190 C   0  0  0  0  0  0  0  0  0  0  0  0
   57.5710   28.5140   44.7360 N   0  0  0  0  0  0  0  0  0  0  0  0
   56.4930   29.4650   44.8030 C   0  0  0  0  0  0  0  0  0  0  0  0
   55.3340   29.0900   45.1240 O   0  0  0  0  0  0  0  0  0  0  0  0
   56.7000   30.8460   44.4800 N   0  0  0  0  0  0  0  0  0  0  0  0
   57.9850   31.4620   44.1660 C   0  0  0  0  0  0  0  0  0  0  0  0
   58.4520   32.3570   45.2900 C   0  0  0  0  0  0  0  0  0  0  0  0
   58.2710   33.7460   45.1870 C   0  0  0  0  0  0  0  0  0  0  0  0
   58.6700   34.5880   46.2250 C   0  0  0  0  0  0  0  0  0  0  0  0
   59.2570   34.0390   47.3630 C   0  0  0  0  0  0  0  0  0  0  0  0
   59.4480   32.6980   47.4490 N   0  0  0  0  0  0  0  0  0  0  0  0
   59.0790   31.8470   46.4510 C   0  0  0  0  0  0  0  0  0  0  0  0
   59.3200   30.4430   46.6140 N   0  0  0  0  0  0  0  0  0  0  0  0
   60.2410   29.7730   45.6870 C   0  0  0  0  0  0  0  0  0  0  0  0
   60.3860   28.2820   46.0170 C   0  0  0  0  0  0  0  0  0  0  0  0
   60.5110   28.0840   47.5300 C   0  0  0  0  0  0  0  0  0  0  0  0
   59.2870   28.6290   48.2990 C   0  0  0  0  0  0  0  0  0  0  0  0
   58.4600   29.6510   47.5000 C   0  0  0  0  0  0  0  0  0  0  0  0
   57.0430   26.9320   46.5330 C   0  0  0  0  0  0  0  0  0  0  0  0
   56.9200   25.6270   47.0210 C   0  0  0  0  0  0  0  0  0  0  0  0
   57.8481   23.9046   44.2154 H   0  0  0  0  0  0  0  0  0  0  0  0
   58.0598   26.2320   43.3426 H   0  0  0  0  0  0  0  0  0  0  0  0
   58.4400   28.7770   44.2260 H   0  0  0  0  0  0  0  0  0  0  0  0
   58.7318   30.6709   44.0036 H   0  0  0  0  0  0  0  0  0  0  0  0
   57.8651   32.0746   43.2603 H   0  0  0  0  0  0  0  0  0  0  0  0
   57.8120   34.1722   44.2827 H   0  0  0  0  0  0  0  0  0  0  0  0
   58.5226   35.6752   46.1458 H   0  0  0  0  0  0  0  0  0  0  0  0
   59.5658   34.6926   48.1921 H   0  0  0  0  0  0  0  0  0  0  0  0
   59.8545   29.8762   44.6623 H   0  0  0  0  0  0  0  0  0  0  0  0
   61.2300   30.2450   45.7822 H   0  0  0  0  0  0  0  0  0  0  0  0
   59.5003   27.7414   45.6520 H   0  0  0  0  0  0  0  0  0  0  0  0
   61.2917   27.8932   45.5285 H   0  0  0  0  0  0  0  0  0  0  0  0
   60.6088   27.0084   47.7385 H   0  0  0  0  0  0  0  0  0  0  0  0
   61.3958   28.6427   47.8691 H   0  0  0  0  0  0  0  0  0  0  0  0
   58.6351   27.7821   48.5593 H   0  0  0  0  0  0  0  0  0  0  0  0
   59.6717   29.1509   49.1876 H   0  0  0  0  0  0  0  0  0  0  0  0
   57.7143   29.1157   46.8938 H   0  0  0  0  0  0  0  0  0  0  0  0
   57.9636   30.3312   48.2077 H   0  0  0  0  0  0  0  0  0  0  0  0
   56.7983   27.7837   47.1847 H   0  0  0  0  0  0  0  0  0  0  0  0
   56.5913   25.4562   48.0567 H   0  0  0  0  0  0  0  0  0  0  0  0
  1  2  3  0
  2  3  1  0
  3  4  2  0
  4  5  1  0
  5  6  2  0
  6  7  1  0
  7  8  1  0
  8  9  2  0
  8 10  1  0
 10 11  1  0
 11 12  1  0
 12 13  2  0
 13 14  1  0
 14 15  2  0
 15 16  1  0
 16 17  2  0
 17 18  1  0
 18 19  1  0
 19 20  1  0
 20 21  1  0
 21 22  1  0
 22 23  1  0
  6 24  1  0
 24 25  2  0
 25  3  1  0
 17 12  1  0
 23 18  1  0
  4 26  1  0
  5 27  1  0
  7 28  1  0
 11 29  1  0
 11 30  1  0
 13 31  1  0
 14 32  1  0
 15 33  1  0
 19 34  1  0
 19 35  1  0
 20 36  1  0
 20 37  1  0
 21 38  1  0
 21 39  1  0
 22 40  1  0
 22 41  1  0
 23 42  1  0
 23 43  1  0
 24 44  1  0
 25 45  1  0
M  CHG  1  10  -1
M  END
>  <UniqueID>  (94) 
81

>  <SMILES>  (94) 
N#Cc1ccc(NC(=O)[N-]Cc2cccnc2N2CCCCC2)cc1

>  <Energy>  (94) 
53.0786697152216

>  <Genealogy>  (94) 
N#Cc1ccc(NC(=O)[N-]Cc2cccnc2N2CCCCC2)cc1 (protonated)
N#Cc1ccc(NC(=O)[N-]Cc2cccnc2N2CCCCC2)cc1 (3D coordinates assigned)
N#Cc1ccc(NC(=O)[N-]Cc2cccnc2N2CCCCC2)cc1 (nonaromatic ring conformer: 53.0786697152216 kcal/mol)

>  <smiles>  (94) 
N#Cc1ccc(NC(=O)NCc2cccnc2N2CCCCC2)cc1

>  <score_type>  (94) 
oracle

>  <origin>  (94) 
adg

>  <m_score__min__energy>  (94) 
-9.1400000000000006

>  <m_primary>  (94) 
energy

$$$$
94:0
     RDKit          3D

 40 44  0  0  0  0  0  0  0  0999 V2000
   55.1490   27.4680   45.3750 H   0  0  0  0  0  0  0  0  0  0  0  0
   54.9470   26.6920   45.9940 O   0  0  0  0  0  0  0  0  0  0  0  0
   55.9490   25.8010   46.3610 C   0  0  0  0  0  0  0  0  0  0  0  0
   55.7260   24.6460   47.0100 N   0  0  0  0  0  0  0  0  0  0  0  0
   56.9700   24.1360   47.1380 C   0  0  0  0  0  0  0  0  0  0  0  0
   57.1950   23.0340   47.7040 O   0  0  0  0  0  0  0  0  0  0  0  0
   57.9530   24.8970   46.6120 N   0  0  0  0  0  0  0  0  0  0  0  0
   57.2930   25.9660   46.1270 C   0  0  0  0  0  0  0  0  0  0  0  0
   57.9090   27.0800   45.3860 C   0  0  0  0  0  0  0  0  0  0  0  0
   57.5422   27.2907   44.3706 H   0  0  0  0  0  0  0  0  0  0  0  0
   58.8890   27.8520   45.8740 C   0  0  0  0  0  0  0  0  0  0  0  0
   60.2820   27.4040   45.9350 C   0  0  0  0  0  0  0  0  0  0  0  0
   60.7714   26.7395   45.2077 H   0  0  0  0  0  0  0  0  0  0  0  0
   60.8460   27.9170   46.9850 N   0  0  0  0  0  0  0  0  0  0  0  0
   59.8900   28.7080   47.6380 N   0  0  0  0  0  0  0  0  0  0  0  0
   60.0770   29.9010   48.2470 C   0  0  0  0  0  0  0  0  0  0  0  0
   61.0060   30.2180   49.1130 N   0  0  0  0  0  0  0  0  0  0  0  0
   61.9920   31.3010   49.2760 C   0  0  0  0  0  0  0  0  0  0  0  0
   62.1337   31.0947   50.3471 H   0  0  0  0  0  0  0  0  0  0  0  0
   61.7630   32.5300   48.4180 C   0  0  0  0  0  0  0  0  0  0  0  0
   60.9142   32.5635   47.7192 H   0  0  0  0  0  0  0  0  0  0  0  0
   61.6432   33.6059   48.6134 H   0  0  0  0  0  0  0  0  0  0  0  0
   62.9500   31.6030   48.1390 C   0  0  0  0  0  0  0  0  0  0  0  0
   62.9549   30.9696   47.2397 H   0  0  0  0  0  0  0  0  0  0  0  0
   64.0385   31.7348   48.0505 H   0  0  0  0  0  0  0  0  0  0  0  0
   59.1120   30.7810   47.9010 N   0  0  0  0  0  0  0  0  0  0  0  0
   58.3590   30.0710   47.0310 C   0  0  0  0  0  0  0  0  0  0  0  0
   57.4570   30.6570   46.2930 N   0  0  0  0  0  0  0  0  0  0  0  0
   57.4860   30.9440   44.8920 C   0  0  0  0  0  0  0  0  0  0  0  0
   58.1260   32.1000   44.4160 C   0  0  0  0  0  0  0  0  0  0  0  0
   58.6639   32.7568   45.1154 H   0  0  0  0  0  0  0  0  0  0  0  0
   58.0810   32.4180   43.0550 C   0  0  0  0  0  0  0  0  0  0  0  0
   58.6146   33.3036   42.6796 H   0  0  0  0  0  0  0  0  0  0  0  0
   57.3590   31.6120   42.1720 C   0  0  0  0  0  0  0  0  0  0  0  0
   57.3361   31.8549   41.0994 H   0  0  0  0  0  0  0  0  0  0  0  0
   56.6650   30.4960   42.6510 C   0  0  0  0  0  0  0  0  0  0  0  0
   55.9450   29.7290   41.7950 F   0  0  0  0  0  0  0  0  0  0  0  0
   56.7100   30.1750   44.0120 C   0  0  0  0  0  0  0  0  0  0  0  0
   56.0170   29.1030   44.4740 F   0  0  0  0  0  0  0  0  0  0  0  0
   58.7760   28.7790   46.9480 N   0  0  0  0  0  0  0  0  0  0  0  0
  1  2  1  0
  2  3  1  0
  3  4  1  0
  4  5  1  0
  5  6  2  0
  5  7  1  0
  7  8  1  0
  8  9  1  0
  9 10  1  0
  9 11  2  0
 11 12  1  0
 12 13  1  0
 12 14  2  0
 14 15  1  0
 15 16  1  0
 16 17  2  3
 17 18  1  0
 18 19  1  0
 18 20  1  0
 20 21  1  0
 20 22  1  0
 20 23  1  0
 23 24  1  0
 23 25  1  0
 16 26  1  0
 26 27  1  0
 27 28  2  0
 28 29  1  0
 29 30  2  0
 30 31  1  0
 30 32  1  0
 32 33  1  0
 32 34  2  0
 34 35  1  0
 34 36  1  0
 36 37  1  0
 36 38  2  0
 38 39  1  0
 27 40  1  0
  8  3  2  0
 40 11  1  0
 40 15  1  0
 23 18  1  0
 38 29  1  0
M  CHG  3   4  -1   7  -1  26  -1
M  END
>  <UniqueID>  (95) 
82

>  <SMILES>  (95) 
O=c1[n-]c(O)c(/C=C2/C=Nn3c(=NC4CC4)[n-]/c(=N/c4cccc(F)c4F)n32)[n-]1

>  <Energy>  (95) 
469.48410425122967

>  <Genealogy>  (95) 
O=c1[n-]c(O)c(C=C2C=Nn3c(=NC4CC4)[n-]c(=Nc4cccc(F)c4F)n32)[n-]1 (protonated)
O=c1[n-]c(O)c(/C=C2/C=Nn3c(=NC4CC4)[n-]/c(=N/c4cccc(F)c4F)n32)[n-]1 (cis-trans isomerization)
O=c1[n-]c(O)c(/C=C2/C=Nn3c(=NC4CC4)[n-]/c(=N/c4cccc(F)c4F)n32)[n-]1 (3D coordinates assigned)
O=c1[n-]c(O)c(/C=C2/C=Nn3c(=NC4CC4)[n-]/c(=N/c4cccc(F)c4F)n32)[n-]1 (nonaromatic ring conformer: 469.48410425122967 kcal/mol)

>  <smiles>  (95) 
O=c1[nH]c(O)c(C=C2C=Nn3c(=NC4CC4)[nH]c(=Nc4cccc(F)c4F)n32)[nH]1

>  <score_type>  (95) 
oracle

>  <origin>  (95) 
adg

>  <m_score__min__energy>  (95) 
-13.42

>  <m_primary>  (95) 
energy

$$$$
