0:0
     RDKit          3D

 49 51  0  0  0  0  0  0  0  0999 V2000
   56.0390   29.0570   53.1990 O   0  0  0  0  0  0  0  0  0  0  0  0
   56.4000   29.9030   52.3380 C   0  0  0  0  0  0  0  0  0  0  0  0
   57.8530   30.0180   51.9870 C   0  0  0  0  0  0  0  0  0  0  0  0
   58.0370   30.9170   50.8470 N   0  0  0  0  0  0  0  0  0  0  0  0
   58.3810   32.5350   51.3860 S   0  0  0  0  0  0  0  0  0  0  0  0
   59.4570   32.5010   52.4350 O   0  0  0  0  0  0  0  0  0  0  0  0
   57.1420   33.1290   51.9910 O   0  0  0  0  0  0  0  0  0  0  0  0
   58.9050   33.5000   50.0960 O   0  0  0  0  0  0  0  0  0  0  0  0
   60.1460   33.0080   49.6460 C   0  0  0  0  0  0  0  0  0  0  0  0
   60.3170   33.3370   48.1600 C   0  0  1  0  0  0  0  0  0  0  0  0
   60.1650   32.1510   47.4050 O   0  0  0  0  0  0  0  0  0  0  0  0
   59.2130   32.4070   46.3980 C   0  0  1  0  0  0  0  0  0  0  0  0
   58.4140   31.2020   46.0850 N   0  0  0  0  0  0  0  0  0  0  0  0
   58.7520   30.0250   46.6960 C   0  0  0  0  0  0  0  0  0  0  0  0
   58.0420   28.8550   46.4300 C   0  0  0  0  0  0  0  0  0  0  0  0
   56.9930   28.9050   45.5200 C   0  0  0  0  0  0  0  0  0  0  0  0
   56.3380   27.8640   45.2530 O   0  0  0  0  0  0  0  0  0  0  0  0
   56.6870   30.0760   44.9130 N   0  0  0  0  0  0  0  0  0  0  0  0
   57.3830   31.2140   45.1720 C   0  0  0  0  0  0  0  0  0  0  0  0
   57.0790   32.2660   44.5480 O   0  0  0  0  0  0  0  0  0  0  0  0
   58.3400   33.5780   46.8340 C   0  0  1  0  0  0  0  0  0  0  0  0
   57.2560   33.1340   47.6100 O   0  0  0  0  0  0  0  0  0  0  0  0
   59.2940   34.3820   47.6840 C   0  0  2  0  0  0  0  0  0  0  0  0
   59.9270   35.3510   46.8870 O   0  0  0  0  0  0  0  0  0  0  0  0
   55.4410   30.7770   51.7190 N   0  0  0  0  0  0  0  0  0  0  0  0
   54.0190   30.6750   51.8990 C   0  0  0  0  0  0  0  0  0  0  0  0
   53.4230   29.5090   52.4160 C   0  0  0  0  0  0  0  0  0  0  0  0
   52.0340   29.4310   52.5590 C   0  0  0  0  0  0  0  0  0  0  0  0
   51.2280   30.5040   52.1750 C   0  0  0  0  0  0  0  0  0  0  0  0
   51.8080   31.6570   51.6390 C   0  0  0  0  0  0  0  0  0  0  0  0
   51.0050   32.7200   51.2430 O   0  0  0  0  0  0  0  0  0  0  0  0
   53.1980   31.7400   51.4970 C   0  0  0  0  0  0  0  0  0  0  0  0
   58.4039   30.4143   52.8527 H   0  0  0  0  0  0  0  0  0  0  0  0
   58.2333   29.0214   51.7182 H   0  0  0  0  0  0  0  0  0  0  0  0
   60.9572   33.4780   50.2213 H   0  0  0  0  0  0  0  0  0  0  0  0
   60.1810   31.9176   49.7866 H   0  0  0  0  0  0  0  0  0  0  0  0
   61.3214   33.7618   48.0159 H   0  0  0  0  0  0  0  0  0  0  0  0
   59.7300   32.6765   45.4652 H   0  0  0  0  0  0  0  0  0  0  0  0
   59.5930   30.0018   47.4047 H   0  0  0  0  0  0  0  0  0  0  0  0
   58.3067   27.9117   46.9302 H   0  0  0  0  0  0  0  0  0  0  0  0
   57.9013   34.1367   45.9941 H   0  0  0  0  0  0  0  0  0  0  0  0
   57.6270   32.8750   48.4930 H   0  0  0  0  0  0  0  0  0  0  0  0
   58.8043   34.9110   48.5149 H   0  0  0  0  0  0  0  0  0  0  0  0
   60.6210   34.8770   46.3640 H   0  0  0  0  0  0  0  0  0  0  0  0
   55.8060   31.6010   51.1900 H   0  0  0  0  0  0  0  0  0  0  0  0
   54.0525   28.6557   52.7087 H   0  0  0  0  0  0  0  0  0  0  0  0
   51.5755   28.5218   52.9751 H   0  0  0  0  0  0  0  0  0  0  0  0
   50.1362   30.4420   52.2943 H   0  0  0  0  0  0  0  0  0  0  0  0
   53.6500   32.6461   51.0674 H   0  0  0  0  0  0  0  0  0  0  0  0
  1  2  2  0
  2  3  1  0
  3  4  1  0
  4  5  1  0
  5  6  2  0
  5  7  2  0
  5  8  1  0
  8  9  1  0
  9 10  1  0
 10 11  1  0
 11 12  1  0
 12 13  1  0
 13 14  1  0
 14 15  2  0
 15 16  1  0
 16 17  2  0
 16 18  1  0
 18 19  1  0
 19 20  2  0
 12 21  1  0
 21 22  1  0
 21 23  1  0
 23 24  1  0
  2 25  1  0
 25 26  1  0
 26 27  2  0
 27 28  1  0
 28 29  2  0
 29 30  1  0
 30 31  1  0
 30 32  2  0
 23 10  1  0
 32 26  1  0
 19 13  1  0
  3 33  1  0
  3 34  1  0
  9 35  1  0
  9 36  1  0
 10 37  1  1
 12 38  1  6
 14 39  1  0
 15 40  1  0
 21 41  1  6
 22 42  1  0
 23 43  1  1
 24 44  1  0
 25 45  1  0
 27 46  1  0
 28 47  1  0
 29 48  1  0
 32 49  1  0
M  CHG  3   4  -1  18  -1  31  -1
M  END
>  <UniqueID>  (1) 
1

>  <SMILES>  (1) 
O=C(C[N-]S(=O)(=O)OC[C@H]1O[C@@H](n2ccc(=O)[n-]c2=O)C(O)C1O)Nc1cccc([O-])c1

>  <Energy>  (1) 
57.31457255298625

>  <Genealogy>  (1) 
O=C(C[N-]S(=O)(=O)OCC1OC(n2ccc(=O)[n-]c2=O)C(O)C1O)Nc1cccc([O-])c1 (protonated)
O=C(C[N-]S(=O)(=O)OC[C@H]1O[C@@H](n2ccc(=O)[n-]c2=O)C(O)C1O)Nc1cccc([O-])c1 (chirality)
O=C(C[N-]S(=O)(=O)OC[C@H]1O[C@@H](n2ccc(=O)[n-]c2=O)C(O)C1O)Nc1cccc([O-])c1 (3D coordinates assigned)
O=C(C[N-]S(=O)(=O)OC[C@H]1O[C@@H](n2ccc(=O)[n-]c2=O)C(O)C1O)Nc1cccc([O-])c1 (nonaromatic ring conformer: 57.31457255298625 kcal/mol)

>  <smiles>  (1) 
O=C(CNS(=O)(=O)OCC1OC(n2ccc(=O)[nH]c2=O)C(O)C1O)Nc1cccc(O)c1

>  <score_type>  (1) 
oracle

>  <origin>  (1) 
adg

>  <m_score__min__energy>  (1) 
-14.66

>  <m_primary>  (1) 
energy

$$$$
1:0
     RDKit          3D

 46 49  0  0  0  0  0  0  0  0999 V2000
   62.1620   29.5630   51.2210 C   0  0  0  0  0  0  0  0  0  0  0  0
   61.9240   30.1970   49.9070 N   0  0  0  0  0  0  0  0  0  0  0  0
   60.9080   29.7290   49.1010 C   0  0  0  0  0  0  0  0  0  0  0  0
   60.1550   28.7990   49.5050 O   0  0  0  0  0  0  0  0  0  0  0  0
   60.6730   30.2960   47.8310 C   0  0  0  0  0  0  0  0  0  0  0  0
   59.6090   29.8080   46.9220 C   0  0  0  0  0  0  0  0  0  0  0  0
   58.9200   28.6550   47.0790 N   0  0  0  0  0  0  0  0  0  0  0  0
   58.0960   28.6030   46.0180 C   0  0  0  0  0  0  0  0  0  0  0  0
   57.0860   27.5240   45.7870 C   0  0  0  0  0  0  0  0  0  0  0  0
   55.9230   28.0890   45.2510 O   0  0  0  0  0  0  0  0  0  0  0  0
   58.3060   29.7340   45.2560 C   0  0  0  0  0  0  0  0  0  0  0  0
   57.4790   30.1870   43.7300 S   0  0  0  0  0  0  0  0  0  0  0  0
   56.5800   31.6020   44.4580 C   0  0  0  0  0  0  0  0  0  0  0  0
   57.5370   32.6270   45.0070 C   0  0  0  0  0  0  0  0  0  0  0  0
   57.4930   32.9590   46.3710 C   0  0  0  0  0  0  0  0  0  0  0  0
   58.3430   33.9410   46.8870 C   0  0  0  0  0  0  0  0  0  0  0  0
   59.2440   34.5990   46.0460 C   0  0  0  0  0  0  0  0  0  0  0  0
   59.2960   34.2760   44.6870 C   0  0  0  0  0  0  0  0  0  0  0  0
   58.4480   33.2940   44.1650 C   0  0  0  0  0  0  0  0  0  0  0  0
   58.5100   33.0060   42.8400 F   0  0  0  0  0  0  0  0  0  0  0  0
   59.2420   30.4500   45.8320 O   0  0  0  0  0  0  0  0  0  0  0  0
   61.4560   31.3730   47.4190 C   0  0  0  0  0  0  0  0  0  0  0  0
   62.4740   31.8600   48.2340 C   0  0  0  0  0  0  0  0  0  0  0  0
   63.2620   32.9410   47.8040 C   0  0  0  0  0  0  0  0  0  0  0  0
   64.2850   33.4330   48.6130 C   0  0  0  0  0  0  0  0  0  0  0  0
   64.5300   32.8530   49.8560 C   0  0  0  0  0  0  0  0  0  0  0  0
   63.7550   31.7780   50.2980 C   0  0  0  0  0  0  0  0  0  0  0  0
   62.7090   31.2570   49.4950 C   0  0  0  0  0  0  0  0  0  0  0  0
   61.8970   30.2688   52.0220 H   0  0  0  0  0  0  0  0  0  0  0  0
   61.5422   28.6586   51.3094 H   0  0  0  0  0  0  0  0  0  0  0  0
   63.2239   29.2899   51.3094 H   0  0  0  0  0  0  0  0  0  0  0  0
   59.0180   27.9340   47.8270 H   0  0  0  0  0  0  0  0  0  0  0  0
   57.4934   26.7834   45.0830 H   0  0  0  0  0  0  0  0  0  0  0  0
   56.8504   27.0282   46.7403 H   0  0  0  0  0  0  0  0  0  0  0  0
   56.0760   28.1540   44.2720 H   0  0  0  0  0  0  0  0  0  0  0  0
   55.9581   32.0707   43.6811 H   0  0  0  0  0  0  0  0  0  0  0  0
   55.9536   31.2313   45.2828 H   0  0  0  0  0  0  0  0  0  0  0  0
   56.7855   32.4432   47.0369 H   0  0  0  0  0  0  0  0  0  0  0  0
   58.3026   34.1961   47.9562 H   0  0  0  0  0  0  0  0  0  0  0  0
   59.9127   35.3715   46.4535 H   0  0  0  0  0  0  0  0  0  0  0  0
   60.0057   34.7955   44.0264 H   0  0  0  0  0  0  0  0  0  0  0  0
   61.2680   31.8419   46.4419 H   0  0  0  0  0  0  0  0  0  0  0  0
   63.0705   33.4015   46.8236 H   0  0  0  0  0  0  0  0  0  0  0  0
   64.8988   34.2790   48.2702 H   0  0  0  0  0  0  0  0  0  0  0  0
   65.3377   33.2435   50.4925 H   0  0  0  0  0  0  0  0  0  0  0  0
   63.9589   31.3300   51.2817 H   0  0  0  0  0  0  0  0  0  0  0  0
  1  2  1  0
  2  3  1  0
  3  4  2  0
  3  5  1  0
  5  6  1  0
  6  7  2  0
  7  8  1  0
  8  9  1  0
  9 10  1  0
  8 11  2  0
 11 12  1  0
 12 13  1  0
 13 14  1  0
 14 15  2  0
 15 16  1  0
 16 17  2  0
 17 18  1  0
 18 19  2  0
 19 20  1  0
 11 21  1  0
  5 22  2  0
 22 23  1  0
 23 24  2  0
 24 25  1  0
 25 26  2  0
 26 27  1  0
 27 28  2  0
 28  2  1  0
 21  6  1  0
 28 23  1  0
 19 14  1  0
  1 29  1  0
  1 30  1  0
  1 31  1  0
  7 32  1  0
  9 33  1  0
  9 34  1  0
 10 35  1  0
 13 36  1  0
 13 37  1  0
 15 38  1  0
 16 39  1  0
 17 40  1  0
 18 41  1  0
 22 42  1  0
 24 43  1  0
 25 44  1  0
 26 45  1  0
 27 46  1  0
M  CHG  1   7   1
M  END
>  <UniqueID>  (2) 
2

>  <SMILES>  (2) 
Cn1c(=O)c(-c2[nH+]c(CO)c(SCc3ccccc3F)o2)cc2ccccc21

>  <Energy>  (2) 
88.79882948002911

>  <Genealogy>  (2) 
Cn1c(=O)c(-c2[nH+]c(CO)c(SCc3ccccc3F)o2)cc2ccccc21 (protonated)
Cn1c(=O)c(-c2[nH+]c(CO)c(SCc3ccccc3F)o2)cc2ccccc21 (3D coordinates assigned)
Cn1c(=O)c(-c2[nH+]c(CO)c(SCc3ccccc3F)o2)cc2ccccc21 (optimized conformer: 88.79882948002911 kcal/mol)

>  <smiles>  (2) 
Cn1c(=O)c(-c2nc(CO)c(SCc3ccccc3F)o2)cc2ccccc21

>  <score_type>  (2) 
oracle

>  <origin>  (2) 
adg

>  <m_score__min__energy>  (2) 
-6.4299999999999997

>  <m_primary>  (2) 
energy

$$$$
2:0
     RDKit          3D

 60 63  0  0  0  0  0  0  0  0999 V2000
   58.3880   28.2320   47.7590 C   0  0  0  0  0  0  0  0  0  0  0  0
   58.3480   29.3430   47.0080 C   0  0  0  0  0  0  0  0  0  0  0  0
   59.0100   30.4280   47.4950 N   0  0  0  0  0  0  0  0  0  0  0  0
   59.0910   31.6210   46.8480 C   0  0  0  0  0  0  0  0  0  0  0  0
   58.4630   31.7660   45.6070 C   0  0  0  0  0  0  0  0  0  0  0  0
   57.7700   30.6750   45.0610 C   0  0  0  0  0  0  0  0  0  0  0  0
   57.6900   29.4380   45.7420 C   0  0  0  0  0  0  0  0  0  0  0  0
   56.9780   28.4100   45.2050 C   0  0  0  0  0  0  0  0  0  0  0  0
   57.1960   26.9790   45.5250 C   0  0  0  0  0  0  0  0  0  0  0  0
   56.1290   26.1500   45.9120 C   0  0  0  0  0  0  0  0  0  0  0  0
   54.8510   26.7000   45.9990 O   0  0  0  0  0  0  0  0  0  0  0  0
   56.3410   24.8190   46.1940 N   0  0  0  0  0  0  0  0  0  0  0  0
   55.2080   23.9640   46.6400 C   0  0  0  0  0  0  0  0  0  0  0  0
   54.7330   22.9900   45.5230 C   0  0  0  0  0  0  0  0  0  0  0  0
   54.7380   21.5180   45.9560 C   0  0  0  0  0  0  0  0  0  0  0  0
   54.0940   21.3660   47.2700 N   0  0  0  0  0  0  0  0  0  0  0  0
   53.2120   20.2600   47.5390 C   0  0  0  0  0  0  0  0  0  0  0  0
   53.0170   19.3730   46.6610 O   0  0  0  0  0  0  0  0  0  0  0  0
   52.5670   20.1710   48.7800 O   0  0  0  0  0  0  0  0  0  0  0  0
   51.3770   20.8900   49.1000 C   0  0  0  0  0  0  0  0  0  0  0  0
   50.9770   21.8050   47.9500 C   0  0  0  0  0  0  0  0  0  0  0  0
   54.4290   22.2860   48.3680 C   0  0  0  0  0  0  0  0  0  0  0  0
   55.5440   23.2610   47.9720 C   0  0  0  0  0  0  0  0  0  0  0  0
   57.6170   24.3100   46.0860 C   0  0  0  0  0  0  0  0  0  0  0  0
   57.8600   23.1010   46.3500 O   0  0  0  0  0  0  0  0  0  0  0  0
   58.6440   25.1010   45.6830 N   0  0  0  0  0  0  0  0  0  0  0  0
   58.4630   26.4100   45.3940 C   0  0  0  0  0  0  0  0  0  0  0  0
   59.4480   27.1040   45.0220 O   0  0  0  0  0  0  0  0  0  0  0  0
   58.5370   33.0060   44.9570 C   0  0  0  0  0  0  0  0  0  0  0  0
   58.0030   33.1510   43.8210 O   0  0  0  0  0  0  0  0  0  0  0  0
   59.1820   34.0560   45.5540 N   0  0  0  0  0  0  0  0  0  0  0  0
   59.2650   35.3580   44.8670 C   0  0  0  0  0  0  0  0  0  0  0  0
   59.8160   33.8820   46.7600 C   0  0  0  0  0  0  0  0  0  0  0  0
   60.4330   34.8500   47.2870 O   0  0  0  0  0  0  0  0  0  0  0  0
   59.7870   32.6650   47.3960 N   0  0  0  0  0  0  0  0  0  0  0  0
   60.4430   32.4970   48.7070 C   0  0  0  0  0  0  0  0  0  0  0  0
   57.8728   27.3208   47.4210 H   0  0  0  0  0  0  0  0  0  0  0  0
   58.9360   28.2323   48.7128 H   0  0  0  0  0  0  0  0  0  0  0  0
   57.2787   30.7840   44.0829 H   0  0  0  0  0  0  0  0  0  0  0  0
   56.1857   28.6581   44.4834 H   0  0  0  0  0  0  0  0  0  0  0  0
   54.3431   24.6142   46.8380 H   0  0  0  0  0  0  0  0  0  0  0  0
   53.7080   23.2648   45.2333 H   0  0  0  0  0  0  0  0  0  0  0  0
   55.4409   23.0850   44.6864 H   0  0  0  0  0  0  0  0  0  0  0  0
   54.1901   20.9201   45.2129 H   0  0  0  0  0  0  0  0  0  0  0  0
   55.7795   21.1715   46.0277 H   0  0  0  0  0  0  0  0  0  0  0  0
   50.5636   20.1750   49.2926 H   0  0  0  0  0  0  0  0  0  0  0  0
   51.5636   21.5044   49.9932 H   0  0  0  0  0  0  0  0  0  0  0  0
   50.5670   22.7428   48.3531 H   0  0  0  0  0  0  0  0  0  0  0  0
   51.8605   22.0263   47.3332 H   0  0  0  0  0  0  0  0  0  0  0  0
   50.2146   21.3068   47.3332 H   0  0  0  0  0  0  0  0  0  0  0  0
   53.5311   22.8618   48.6369 H   0  0  0  0  0  0  0  0  0  0  0  0
   54.7840   21.6876   49.2200 H   0  0  0  0  0  0  0  0  0  0  0  0
   55.6579   24.0187   48.7612 H   0  0  0  0  0  0  0  0  0  0  0  0
   56.4793   22.6958   47.8468 H   0  0  0  0  0  0  0  0  0  0  0  0
   59.3164   36.1640   45.6138 H   0  0  0  0  0  0  0  0  0  0  0  0
   60.1666   35.3835   44.2373 H   0  0  0  0  0  0  0  0  0  0  0  0
   58.3739   35.4978   44.2373 H   0  0  0  0  0  0  0  0  0  0  0  0
   59.7134   32.6839   49.5087 H   0  0  0  0  0  0  0  0  0  0  0  0
   60.8295   31.4709   48.7948 H   0  0  0  0  0  0  0  0  0  0  0  0
   61.2751   33.2110   48.7948 H   0  0  0  0  0  0  0  0  0  0  0  0
  1  2  2  0
  2  3  1  0
  3  4  2  0
  4  5  1  0
  5  6  2  0
  6  7  1  0
  7  8  2  3
  8  9  1  0
  9 10  2  0
 10 11  1  0
 10 12  1  0
 12 13  1  0
 13 14  1  0
 14 15  1  0
 15 16  1  0
 16 17  1  0
 17 18  2  0
 17 19  1  0
 19 20  1  0
 20 21  1  0
 16 22  1  0
 22 23  1  0
 12 24  1  0
 24 25  2  0
 24 26  1  0
 26 27  1  0
 27 28  2  0
  5 29  1  0
 29 30  2  0
 29 31  1  0
 31 32  1  0
 31 33  1  0
 33 34  2  0
 33 35  1  0
 35 36  1  0
  7  2  1  0
 27  9  1  0
 35  4  1  0
 23 13  1  0
  1 37  1  0
  1 38  1  0
  6 39  1  0
  8 40  1  0
 13 41  1  0
 14 42  1  0
 14 43  1  0
 15 44  1  0
 15 45  1  0
 20 46  1  0
 20 47  1  0
 21 48  1  0
 21 49  1  0
 21 50  1  0
 22 51  1  0
 22 52  1  0
 23 53  1  0
 23 54  1  0
 32 55  1  0
 32 56  1  0
 32 57  1  0
 36 58  1  0
 36 59  1  0
 36 60  1  0
M  CHG  2  11  -1  26  -1
M  END
>  <UniqueID>  (3) 
3

>  <SMILES>  (3) 
C=c1nc2c(cc1=Cc1c([O-])n(C3CCN(C(=O)OCC)CC3)c(=O)[n-]c1=O)c(=O)n(C)c(=O)n2C

>  <Energy>  (3) 
97.35269479030207

>  <Genealogy>  (3) 
C=c1nc2c(cc1=Cc1c([O-])n(C3CCN(C(=O)OCC)CC3)c(=O)[n-]c1=O)c(=O)n(C)c(=O)n2C (protonated)
C=c1nc2c(cc1=Cc1c([O-])n(C3CCN(C(=O)OCC)CC3)c(=O)[n-]c1=O)c(=O)n(C)c(=O)n2C (3D coordinates assigned)
C=c1nc2c(cc1=Cc1c([O-])n(C3CCN(C(=O)OCC)CC3)c(=O)[n-]c1=O)c(=O)n(C)c(=O)n2C (nonaromatic ring conformer: 97.35269479030207 kcal/mol)

>  <smiles>  (3) 
C=c1nc2c(cc1=Cc1c(O)n(C3CCN(C(=O)OCC)CC3)c(=O)[nH]c1=O)c(=O)n(C)c(=O)n2C

>  <score_type>  (3) 
oracle

>  <origin>  (3) 
adg

>  <m_score__min__energy>  (3) 
-12.44

>  <m_primary>  (3) 
energy

$$$$
3:0
     RDKit          3D

 49 52  0  0  0  0  0  0  0  0999 V2000
   59.9610   33.6140   49.9640 C   0  0  0  0  0  0  0  0  0  0  0  0
   60.8770   32.9620   48.9590 C   0  0  0  0  0  0  0  0  0  0  0  0
   62.0280   33.6560   48.5460 C   0  0  0  0  0  0  0  0  0  0  0  0
   62.9170   33.0810   47.6380 C   0  0  0  0  0  0  0  0  0  0  0  0
   62.6730   31.8060   47.1340 C   0  0  0  0  0  0  0  0  0  0  0  0
   61.5300   31.1060   47.5230 C   0  0  0  0  0  0  0  0  0  0  0  0
   60.5990   31.6810   48.4120 C   0  0  0  0  0  0  0  0  0  0  0  0
   59.3700   30.8860   48.8220 C   0  0  0  0  0  0  0  0  0  0  0  0
   59.5220   29.4410   48.5290 N   0  0  0  0  0  0  0  0  0  0  0  0
   60.3880   28.6810   49.2820 C   0  0  0  0  0  0  0  0  0  0  0  0
   61.0800   29.2030   50.2000 O   0  0  0  0  0  0  0  0  0  0  0  0
   60.5140   27.3100   49.0260 C   0  0  0  0  0  0  0  0  0  0  0  0
   61.3010   26.6020   49.7100 O   0  0  0  0  0  0  0  0  0  0  0  0
   59.8050   26.7470   48.0610 O   0  0  0  0  0  0  0  0  0  0  0  0
   58.9670   27.4400   47.3060 C   0  0  0  0  0  0  0  0  0  0  0  0
   58.2500   26.7860   46.3010 C   0  0  0  0  0  0  0  0  0  0  0  0
   57.3560   27.4950   45.5000 C   0  0  0  0  0  0  0  0  0  0  0  0
   57.1680   28.8680   45.6950 C   0  0  0  0  0  0  0  0  0  0  0  0
   56.1900   29.5970   44.8660 C   0  0  0  0  0  0  0  0  0  0  0  0
   55.1530   28.9980   44.4770 O   0  0  0  0  0  0  0  0  0  0  0  0
   56.3530   30.9830   44.5300 N   0  0  0  0  0  0  0  0  0  0  0  0
   57.5650   31.6080   43.9990 C   0  0  0  0  0  0  0  0  0  0  0  0
   58.0510   32.7120   44.9020 C   0  0  0  0  0  0  0  0  0  0  0  0
   57.6750   32.7360   46.2550 C   0  0  0  0  0  0  0  0  0  0  0  0
   58.1520   33.7420   47.1010 C   0  0  0  0  0  0  0  0  0  0  0  0
   59.0010   34.7330   46.6020 C   0  0  0  0  0  0  0  0  0  0  0  0
   59.4660   35.7050   47.4250 F   0  0  0  0  0  0  0  0  0  0  0  0
   59.3690   34.7240   45.2530 C   0  0  0  0  0  0  0  0  0  0  0  0
   58.8920   33.7220   44.4030 C   0  0  0  0  0  0  0  0  0  0  0  0
   57.9100   29.5370   46.6800 C   0  0  0  0  0  0  0  0  0  0  0  0
   58.8050   28.8320   47.5170 C   0  0  0  0  0  0  0  0  0  0  0  0
   60.3014   33.3717   50.9816 H   0  0  0  0  0  0  0  0  0  0  0  0
   59.9776   34.7046   49.8217 H   0  0  0  0  0  0  0  0  0  0  0  0
   58.9359   33.2412   49.8217 H   0  0  0  0  0  0  0  0  0  0  0  0
   62.2293   34.6620   48.9428 H   0  0  0  0  0  0  0  0  0  0  0  0
   63.8121   33.6354   47.3196 H   0  0  0  0  0  0  0  0  0  0  0  0
   63.3825   31.3497   46.4280 H   0  0  0  0  0  0  0  0  0  0  0  0
   61.3534   30.0934   47.1312 H   0  0  0  0  0  0  0  0  0  0  0  0
   59.2078   31.0144   49.9024 H   0  0  0  0  0  0  0  0  0  0  0  0
   58.5129   31.2622   48.2442 H   0  0  0  0  0  0  0  0  0  0  0  0
   58.3915   25.7069   46.1410 H   0  0  0  0  0  0  0  0  0  0  0  0
   56.7955   26.9726   44.7107 H   0  0  0  0  0  0  0  0  0  0  0  0
   58.3523   30.8450   43.9099 H   0  0  0  0  0  0  0  0  0  0  0  0
   57.3305   32.0412   43.0155 H   0  0  0  0  0  0  0  0  0  0  0  0
   57.0027   31.9605   46.6507 H   0  0  0  0  0  0  0  0  0  0  0  0
   57.8583   33.7531   48.1610 H   0  0  0  0  0  0  0  0  0  0  0  0
   60.0348   35.5065   44.8601 H   0  0  0  0  0  0  0  0  0  0  0  0
   59.1756   33.7238   43.3402 H   0  0  0  0  0  0  0  0  0  0  0  0
   57.7939   30.6240   46.8026 H   0  0  0  0  0  0  0  0  0  0  0  0
  1  2  1  0
  2  3  2  0
  3  4  1  0
  4  5  2  0
  5  6  1  0
  6  7  2  0
  7  8  1  0
  8  9  1  0
  9 10  1  0
 10 11  2  0
 10 12  1  0
 12 13  2  0
 12 14  1  0
 14 15  1  0
 15 16  2  0
 16 17  1  0
 17 18  2  0
 18 19  1  0
 19 20  2  0
 19 21  1  0
 21 22  1  0
 22 23  1  0
 23 24  2  0
 24 25  1  0
 25 26  2  0
 26 27  1  0
 26 28  1  0
 28 29  2  0
 18 30  1  0
 30 31  2  0
  7  2  1  0
 31  9  1  0
 31 15  1  0
 29 23  1  0
  1 32  1  0
  1 33  1  0
  1 34  1  0
  3 35  1  0
  4 36  1  0
  5 37  1  0
  6 38  1  0
  8 39  1  0
  8 40  1  0
 16 41  1  0
 17 42  1  0
 22 43  1  0
 22 44  1  0
 24 45  1  0
 25 46  1  0
 28 47  1  0
 29 48  1  0
 30 49  1  0
M  CHG  1  21  -1
M  END
>  <UniqueID>  (4) 
4

>  <SMILES>  (4) 
Cc1ccccc1Cn1c(=O)c(=O)oc2ccc(C(=O)[N-]Cc3ccc(F)cc3)cc21

>  <Energy>  (4) 
67.4545766126694

>  <Genealogy>  (4) 
Cc1ccccc1Cn1c(=O)c(=O)oc2ccc(C(=O)[N-]Cc3ccc(F)cc3)cc21 (protonated)
Cc1ccccc1Cn1c(=O)c(=O)oc2ccc(C(=O)[N-]Cc3ccc(F)cc3)cc21 (3D coordinates assigned)
Cc1ccccc1Cn1c(=O)c(=O)oc2ccc(C(=O)[N-]Cc3ccc(F)cc3)cc21 (optimized conformer: 67.4545766126694 kcal/mol)

>  <smiles>  (4) 
Cc1ccccc1Cn1c(=O)c(=O)oc2ccc(C(=O)NCc3ccc(F)cc3)cc21

>  <score_type>  (4) 
oracle

>  <origin>  (4) 
adg

>  <m_score__min__energy>  (4) 
-10.23

>  <m_primary>  (4) 
energy

$$$$
4:0
     RDKit          3D

 46 49  0  0  0  0  0  0  0  0999 V2000
   59.3120   27.1720   48.3970 H   0  0  0  0  0  0  0  0  0  0  0  0
   59.1340   28.1570   48.3760 O   0  0  0  0  0  0  0  0  0  0  0  0
   58.5560   28.8190   47.3280 C   0  0  0  0  0  0  0  0  0  0  0  0
   57.7170   28.2080   46.4630 C   0  0  0  0  0  0  0  0  0  0  0  0
   57.4360   26.8940   46.3610 C   0  0  0  0  0  0  0  0  0  0  0  0
   58.3510   25.9780   47.0550 C   0  0  0  0  0  0  0  0  0  0  0  0
   58.0250   25.3140   48.0690 O   0  0  0  0  0  0  0  0  0  0  0  0
   59.6680   25.7900   46.6520 O   0  0  0  0  0  0  0  0  0  0  0  0
   60.5080   26.7140   46.0720 C   0  0  0  0  0  0  0  0  0  0  0  0
   61.0256   27.2833   46.8581 H   0  0  0  0  0  0  0  0  0  0  0  0
   61.2493   26.1943   45.4472 H   0  0  0  0  0  0  0  0  0  0  0  0
   59.9202   27.4026   45.4472 H   0  0  0  0  0  0  0  0  0  0  0  0
   56.2340   26.1440   45.8760 C   0  0  0  0  0  0  0  0  0  0  0  0
   55.1840   26.7150   46.0440 O   0  0  0  0  0  0  0  0  0  0  0  0
   56.0750   24.8430   45.1790 C   0  0  0  0  0  0  0  0  0  0  0  0
   55.1800   23.8300   45.4870 C   0  0  0  0  0  0  0  0  0  0  0  0
   54.5019   23.9386   46.3463 H   0  0  0  0  0  0  0  0  0  0  0  0
   55.1380   22.6650   44.7030 C   0  0  0  0  0  0  0  0  0  0  0  0
   54.4092   21.8777   44.9458 H   0  0  0  0  0  0  0  0  0  0  0  0
   55.9780   22.4920   43.6530 C   0  0  0  0  0  0  0  0  0  0  0  0
   55.9000   21.3230   42.9140 O   0  0  0  0  0  0  0  0  0  0  0  0
   56.9030   23.4920   43.3400 C   0  0  0  0  0  0  0  0  0  0  0  0
   57.5921   23.3644   42.4922 H   0  0  0  0  0  0  0  0  0  0  0  0
   56.9450   24.6550   44.1130 C   0  0  0  0  0  0  0  0  0  0  0  0
   57.6810   25.4364   43.8728 H   0  0  0  0  0  0  0  0  0  0  0  0
   57.2040   28.9910   45.5010 N   0  0  0  0  0  0  0  0  0  0  0  0
   57.4160   30.2060   45.2550 C   0  0  0  0  0  0  0  0  0  0  0  0
   56.6900   30.6640   44.2230 C   0  0  0  0  0  0  0  0  0  0  0  0
   56.7843   31.7134   43.9070 H   0  0  0  0  0  0  0  0  0  0  0  0
   56.0008   29.9899   43.6933 H   0  0  0  0  0  0  0  0  0  0  0  0
   58.2840   30.8900   46.1010 C   0  0  0  0  0  0  0  0  0  0  0  0
   58.8580   30.1350   47.1580 C   0  0  0  0  0  0  0  0  0  0  0  0
   59.7470   30.7350   48.0600 C   0  0  0  0  0  0  0  0  0  0  0  0
   60.1875   30.1466   48.8783 H   0  0  0  0  0  0  0  0  0  0  0  0
   60.0560   32.0300   47.9180 C   0  0  0  0  0  0  0  0  0  0  0  0
   60.7530   32.5041   48.6247 H   0  0  0  0  0  0  0  0  0  0  0  0
   59.5110   32.7730   46.8980 C   0  0  0  0  0  0  0  0  0  0  0  0
   59.8480   34.0720   46.7780 C   0  0  0  0  0  0  0  0  0  0  0  0
   60.7390   34.6490   47.6910 O   0  0  0  0  0  0  0  0  0  0  0  0
   59.3330   34.8610   45.7660 C   0  0  0  0  0  0  0  0  0  0  0  0
   59.6530   36.0390   45.6740 O   0  0  0  0  0  0  0  0  0  0  0  0
   58.4490   34.3090   44.8490 C   0  0  0  0  0  0  0  0  0  0  0  0
   58.0289   34.9183   44.0353 H   0  0  0  0  0  0  0  0  0  0  0  0
   58.1070   32.9680   44.9830 C   0  0  0  0  0  0  0  0  0  0  0  0
   57.4073   32.5202   44.2620 H   0  0  0  0  0  0  0  0  0  0  0  0
   58.6140   32.1930   45.9820 C   0  0  0  0  0  0  0  0  0  0  0  0
  1  2  1  0
  2  3  1  0
  3  4  1  0
  4  5  2  0
  5  6  1  0
  6  7  2  0
  6  8  1  0
  8  9  1  0
  9 10  1  0
  9 11  1  0
  9 12  1  0
  5 13  1  0
 13 14  2  0
 13 15  1  0
 15 16  2  0
 16 17  1  0
 16 18  1  0
 18 19  1  0
 18 20  2  0
 20 21  1  0
 20 22  1  0
 22 23  1  0
 22 24  2  0
 24 25  1  0
  4 26  1  0
 26 27  1  0
 27 28  2  0
 28 29  1  0
 28 30  1  0
 27 31  1  0
 31 32  1  0
 32 33  1  0
 33 34  1  0
 33 35  2  0
 35 36  1  0
 35 37  1  0
 37 38  2  0
 38 39  1  0
 38 40  1  0
 40 41  2  0
 40 42  1  0
 42 43  1  0
 42 44  2  0
 44 45  1  0
 44 46  1  0
 32  3  2  0
 46 37  1  0
 24 15  1  0
 46 31  2  0
M  CHG  3  21  -1  26  -1  39  -1
M  END
>  <UniqueID>  (5) 
5

>  <SMILES>  (5) 
C=c1[n-]/c(=C(\C(=O)OC)C(=O)c2ccc([O-])cc2)c(O)c2ccc3c([O-])c(=O)ccc3c12

>  <Energy>  (5) 
386.24019109142114

>  <Genealogy>  (5) 
C=c1[n-]c(=C(C(=O)OC)C(=O)c2ccc([O-])cc2)c(O)c2ccc3c([O-])c(=O)ccc3c12 (protonated)
C=c1[n-]/c(=C(\C(=O)OC)C(=O)c2ccc([O-])cc2)c(O)c2ccc3c([O-])c(=O)ccc3c12 (cis-trans isomerization)
C=c1[n-]/c(=C(\C(=O)OC)C(=O)c2ccc([O-])cc2)c(O)c2ccc3c([O-])c(=O)ccc3c12 (3D coordinates assigned)
C=c1[n-]/c(=C(\C(=O)OC)C(=O)c2ccc([O-])cc2)c(O)c2ccc3c([O-])c(=O)ccc3c12 (optimized conformer: 386.24019109142114 kcal/mol)

>  <smiles>  (5) 
C=c1[nH]c(=C(C(=O)OC)C(=O)c2ccc(O)cc2)c(O)c2ccc3c(O)c(=O)ccc3c12

>  <score_type>  (5) 
oracle

>  <origin>  (5) 
adg

>  <m_score__min__energy>  (5) 
-13.42

>  <m_primary>  (5) 
energy

$$$$
5:0
     RDKit          3D

 42 44  0  0  0  0  0  0  0  0999 V2000
   64.4830   32.9990   51.0570 C   0  0  0  0  0  0  0  0  0  0  0  0
   64.8240   32.4100   49.3690 S   0  0  0  0  0  0  0  0  0  0  0  0
   63.3200   33.1150   48.6910 C   0  0  0  0  0  0  0  0  0  0  0  0
   63.0700   33.0420   47.3160 C   0  0  0  0  0  0  0  0  0  0  0  0
   61.9010   33.5950   46.7850 C   0  0  0  0  0  0  0  0  0  0  0  0
   60.9730   34.2310   47.6260 C   0  0  0  0  0  0  0  0  0  0  0  0
   59.7190   34.8470   47.0610 C   0  0  0  0  0  0  0  0  0  0  0  0
   58.8800   33.8020   46.3580 C   0  0  0  0  0  0  0  0  0  0  0  0
   58.4520   34.0590   45.0440 C   0  0  0  0  0  0  0  0  0  0  0  0
   57.7610   33.0910   44.3140 C   0  0  0  0  0  0  0  0  0  0  0  0
   57.4820   31.8400   44.8800 C   0  0  0  0  0  0  0  0  0  0  0  0
   56.7650   30.7990   44.1020 C   0  0  0  0  0  0  0  0  0  0  0  0
   56.6730   30.9210   42.8510 O   0  0  0  0  0  0  0  0  0  0  0  0
   56.1170   29.6820   44.7320 N   0  0  0  0  0  0  0  0  0  0  0  0
   56.7040   28.6150   45.1880 C   0  0  0  0  0  0  0  0  0  0  0  0
   55.9830   27.5440   45.6260 N   0  0  0  0  0  0  0  0  0  0  0  0
   56.5970   26.4360   46.1170 C   0  0  0  0  0  0  0  0  0  0  0  0
   57.9880   26.3880   46.1870 C   0  0  0  0  0  0  0  0  0  0  0  0
   58.7140   27.4950   45.7480 C   0  0  0  0  0  0  0  0  0  0  0  0
   58.0610   28.5840   45.2620 N   0  0  0  0  0  0  0  0  0  0  0  0
   57.9260   31.5650   46.1810 C   0  0  0  0  0  0  0  0  0  0  0  0
   58.6060   32.5350   46.9360 C   0  0  0  0  0  0  0  0  0  0  0  0
   59.0210   32.2070   48.2700 N   0  0  0  0  0  0  0  0  0  0  0  0
   59.9680   31.4180   48.4570 O   0  0  0  0  0  0  0  0  0  0  0  0
   58.5600   32.9550   49.3300 O   0  0  0  0  0  0  0  0  0  0  0  0
   61.2310   34.3030   49.0050 C   0  0  0  0  0  0  0  0  0  0  0  0
   62.4010   33.7490   49.5330 C   0  0  0  0  0  0  0  0  0  0  0  0
   64.8962   32.2852   51.7849 H   0  0  0  0  0  0  0  0  0  0  0  0
   64.9506   33.9839   51.2032 H   0  0  0  0  0  0  0  0  0  0  0  0
   63.3961   33.0839   51.2032 H   0  0  0  0  0  0  0  0  0  0  0  0
   63.7947   32.5485   46.6517 H   0  0  0  0  0  0  0  0  0  0  0  0
   61.7071   33.5318   45.7041 H   0  0  0  0  0  0  0  0  0  0  0  0
   59.1331   35.2893   47.8802 H   0  0  0  0  0  0  0  0  0  0  0  0
   60.0022   35.6216   46.3332 H   0  0  0  0  0  0  0  0  0  0  0  0
   58.6645   35.0359   44.5852 H   0  0  0  0  0  0  0  0  0  0  0  0
   57.4332   33.3116   43.2874 H   0  0  0  0  0  0  0  0  0  0  0  0
   55.9978   25.5790   46.4584 H   0  0  0  0  0  0  0  0  0  0  0  0
   58.5014   25.4978   46.5793 H   0  0  0  0  0  0  0  0  0  0  0  0
   59.8130   27.4870   45.7949 H   0  0  0  0  0  0  0  0  0  0  0  0
   57.7388   30.5730   46.6179 H   0  0  0  0  0  0  0  0  0  0  0  0
   60.5095   34.7973   49.6721 H   0  0  0  0  0  0  0  0  0  0  0  0
   62.5991   33.8120   50.6132 H   0  0  0  0  0  0  0  0  0  0  0  0
  1  2  1  0
  2  3  1  0
  3  4  2  0
  4  5  1  0
  5  6  2  0
  6  7  1  0
  7  8  1  0
  8  9  2  0
  9 10  1  0
 10 11  2  0
 11 12  1  0
 12 13  2  0
 12 14  1  0
 14 15  2  3
 15 16  1  0
 16 17  2  0
 17 18  1  0
 18 19  2  0
 19 20  1  0
 11 21  1  0
 21 22  2  0
 22 23  1  0
 23 24  2  0
 23 25  1  0
  6 26  1  0
 26 27  2  0
 27  3  1  0
 22  8  1  0
 20 15  1  0
  1 28  1  0
  1 29  1  0
  1 30  1  0
  4 31  1  0
  5 32  1  0
  7 33  1  0
  7 34  1  0
  9 35  1  0
 10 36  1  0
 17 37  1  0
 18 38  1  0
 19 39  1  0
 21 40  1  0
 26 41  1  0
 27 42  1  0
M  CHG  3  20  -1  23   1  25  -1
M  END
>  <UniqueID>  (6) 
6

>  <SMILES>  (6) 
CSc1ccc(Cc2ccc(C(=O)N=c3nccc[n-]3)cc2[N+](=O)[O-])cc1

>  <Energy>  (6) 
54.797764908851555

>  <Genealogy>  (6) 
CSc1ccc(Cc2ccc(C(=O)N=c3nccc[n-]3)cc2[N+](=O)[O-])cc1 (protonated)
CSc1ccc(Cc2ccc(C(=O)N=c3nccc[n-]3)cc2[N+](=O)[O-])cc1 (3D coordinates assigned)
CSc1ccc(Cc2ccc(C(=O)N=c3nccc[n-]3)cc2[N+](=O)[O-])cc1 (optimized conformer: 54.797764908851555 kcal/mol)

>  <smiles>  (6) 
CSc1ccc(Cc2ccc(C(=O)N=c3nccc[nH]3)cc2[N+](=O)[O-])cc1

>  <score_type>  (6) 
oracle

>  <origin>  (6) 
adg

>  <m_score__min__energy>  (6) 
-10.220000000000001

>  <m_primary>  (6) 
energy

$$$$
6:0
     RDKit          3D

 52 55  0  0  0  0  0  0  0  0999 V2000
   54.1744   27.5138   54.6698 H   0  0  0  0  0  0  0  0  0  0  0  0
   53.5420   28.2210   54.1130 C   0  0  0  0  0  0  0  0  0  0  0  0
   52.4480   28.1066   54.1236 H   0  0  0  0  0  0  0  0  0  0  0  0
   54.1050   29.2230   53.4210 C   0  0  0  0  0  0  0  0  0  0  0  0
   53.4450   30.2040   52.6630 C   0  0  0  0  0  0  0  0  0  0  0  0
   52.1580   30.3080   52.2750 C   0  0  0  0  0  0  0  0  0  0  0  0
   51.3894   29.9751   52.9880 H   0  0  0  0  0  0  0  0  0  0  0  0
   51.6940   30.8280   50.9810 C   0  0  0  0  0  0  0  0  0  0  0  0
   51.5920   30.0790   49.8710 N   0  0  0  0  0  0  0  0  0  0  0  0
   51.0200   30.9150   48.9790 C   0  0  0  0  0  0  0  0  0  0  0  0
   50.7730   30.5770   47.7920 O   0  0  0  0  0  0  0  0  0  0  0  0
   50.7220   32.1420   49.4600 N   0  0  0  0  0  0  0  0  0  0  0  0
   51.1410   32.0650   50.7340 C   0  0  0  0  0  0  0  0  0  0  0  0
   50.9980   33.0930   51.6560 O   0  0  0  0  0  0  0  0  0  0  0  0
   54.4060   31.1400   52.3250 C   0  0  0  0  0  0  0  0  0  0  0  0
   54.2431   32.0703   51.7610 H   0  0  0  0  0  0  0  0  0  0  0  0
   55.6070   30.6860   52.8290 C   0  0  0  0  0  0  0  0  0  0  0  0
   56.9230   31.3830   52.6260 C   0  0  0  0  0  0  0  0  0  0  0  0
   56.7501   32.3469   52.1251 H   0  0  0  0  0  0  0  0  0  0  0  0
   57.3964   31.5481   53.6051 H   0  0  0  0  0  0  0  0  0  0  0  0
   57.8320   30.5390   51.7780 C   0  0  0  0  0  0  0  0  0  0  0  0
   57.6690   29.2900   51.7560 O   0  0  0  0  0  0  0  0  0  0  0  0
   58.9120   31.1320   51.0370 N   0  0  0  0  0  0  0  0  0  0  0  0
   60.1970   30.4290   50.9360 C   0  0  0  0  0  0  0  0  0  0  0  0
   60.2819   29.7044   51.7592 H   0  0  0  0  0  0  0  0  0  0  0  0
   60.2471   29.9034   49.9710 H   0  0  0  0  0  0  0  0  0  0  0  0
   61.3490   31.4330   51.0230 C   0  0  0  0  0  0  0  0  0  0  0  0
   61.4321   31.8057   52.0546 H   0  0  0  0  0  0  0  0  0  0  0  0
   62.2870   30.9372   50.7327 H   0  0  0  0  0  0  0  0  0  0  0  0
   61.0940   32.5570   50.1180 N   0  0  0  0  0  0  0  0  0  0  0  0
   61.9890   32.8390   49.0290 C   0  0  0  0  0  0  0  0  0  0  0  0
   62.8780   33.9220   49.1210 C   0  0  0  0  0  0  0  0  0  0  0  0
   62.8905   34.5444   50.0279 H   0  0  0  0  0  0  0  0  0  0  0  0
   63.7470   34.2130   48.0660 C   0  0  0  0  0  0  0  0  0  0  0  0
   64.4401   35.0636   48.1442 H   0  0  0  0  0  0  0  0  0  0  0  0
   63.7370   33.4260   46.9130 C   0  0  0  0  0  0  0  0  0  0  0  0
   64.4181   33.6601   46.0815 H   0  0  0  0  0  0  0  0  0  0  0  0
   62.8620   32.3410   46.8150 C   0  0  0  0  0  0  0  0  0  0  0  0
   62.8604   31.7190   45.9077 H   0  0  0  0  0  0  0  0  0  0  0  0
   61.9870   32.0420   47.8670 C   0  0  0  0  0  0  0  0  0  0  0  0
   60.9370   30.6380   47.7240 Cl  0  0  0  0  0  0  0  0  0  0  0  0
   59.8150   33.2640   50.2370 C   0  0  0  0  0  0  0  0  0  0  0  0
   59.7667   33.7739   51.2105 H   0  0  0  0  0  0  0  0  0  0  0  0
   59.7294   34.0068   49.4302 H   0  0  0  0  0  0  0  0  0  0  0  0
   58.6680   32.2600   50.1300 C   0  0  0  0  0  0  0  0  0  0  0  0
   57.7238   32.7528   50.4050 H   0  0  0  0  0  0  0  0  0  0  0  0
   58.6036   31.8891   49.0964 H   0  0  0  0  0  0  0  0  0  0  0  0
   55.4320   29.5080   53.4720 N   0  0  0  0  0  0  0  0  0  0  0  0
   56.4610   28.7460   54.1900 C   0  0  0  0  0  0  0  0  0  0  0  0
   56.3104   28.8575   55.2739 H   0  0  0  0  0  0  0  0  0  0  0  0
   56.3873   27.6830   53.9170 H   0  0  0  0  0  0  0  0  0  0  0  0
   57.4563   29.1265   53.9170 H   0  0  0  0  0  0  0  0  0  0  0  0
  1  2  1  0
  2  3  1  0
  2  4  2  0
  4  5  1  0
  5  6  2  0
  6  7  1  0
  6  8  1  0
  8  9  1  0
  9 10  1  0
 10 11  2  0
 10 12  1  0
 12 13  1  0
 13 14  1  0
  5 15  1  0
 15 16  1  0
 15 17  2  0
 17 18  1  0
 18 19  1  0
 18 20  1  0
 18 21  1  0
 21 22  2  0
 21 23  1  0
 23 24  1  0
 24 25  1  0
 24 26  1  0
 24 27  1  0
 27 28  1  0
 27 29  1  0
 27 30  1  0
 30 31  1  0
 31 32  2  0
 32 33  1  0
 32 34  1  0
 34 35  1  0
 34 36  2  0
 36 37  1  0
 36 38  1  0
 38 39  1  0
 38 40  2  0
 40 41  1  0
 30 42  1  0
 42 43  1  0
 42 44  1  0
 42 45  1  0
 45 46  1  0
 45 47  1  0
 17 48  1  0
 48 49  1  0
 49 50  1  0
 49 51  1  0
 49 52  1  0
 48  4  1  0
 13  8  2  0
 45 23  1  0
 40 31  1  0
M  CHG  3   9  -1  12  -1  14  -1
M  END
>  <UniqueID>  (7) 
7

>  <SMILES>  (7) 
C=c1/c(=C\c2[n-]c(=O)[n-]c2[O-])cc(CC(=O)N2CCN(c3ccccc3Cl)CC2)n1C

>  <Energy>  (7) 
130.30626717798768

>  <Genealogy>  (7) 
C=c1c(=Cc2[n-]c(=O)[n-]c2[O-])cc(CC(=O)N2CCN(c3ccccc3Cl)CC2)n1C (protonated)
C=c1/c(=C\c2[n-]c(=O)[n-]c2[O-])cc(CC(=O)N2CCN(c3ccccc3Cl)CC2)n1C (cis-trans isomerization)
C=c1/c(=C\c2[n-]c(=O)[n-]c2[O-])cc(CC(=O)N2CCN(c3ccccc3Cl)CC2)n1C (3D coordinates assigned)
C=c1/c(=C\c2[n-]c(=O)[n-]c2[O-])cc(CC(=O)N2CCN(c3ccccc3Cl)CC2)n1C (nonaromatic ring conformer: 130.30626717798768 kcal/mol)

>  <smiles>  (7) 
C=c1c(=Cc2[nH]c(=O)[nH]c2O)cc(CC(=O)N2CCN(c3ccccc3Cl)CC2)n1C

>  <score_type>  (7) 
oracle

>  <origin>  (7) 
adg

>  <m_score__min__energy>  (7) 
-19.030000000000001

>  <m_primary>  (7) 
energy

$$$$
7:0
     RDKit          3D

 32 33  0  0  0  0  0  0  0  0999 V2000
   58.3006   31.0617   44.6397 H   0  0  0  0  0  0  0  0  0  0  0  0
   57.3470   30.5650   44.8720 C   0  0  0  0  0  0  0  0  0  0  0  0
   56.2720   31.1090   44.5050 O   0  0  0  0  0  0  0  0  0  0  0  0
   60.5100   27.5320   46.4030 C   0  0  0  0  0  0  0  0  0  0  0  0
   61.5353   27.1666   46.5621 H   0  0  0  0  0  0  0  0  0  0  0  0
   59.7180   26.8490   45.5630 C   0  0  0  0  0  0  0  0  0  0  0  0
   60.0059   26.7862   44.5032 H   0  0  0  0  0  0  0  0  0  0  0  0
   60.0810   28.7530   47.1300 C   0  0  0  0  0  0  0  0  0  0  0  0
   56.0350   26.1400   46.2300 C   0  0  0  0  0  0  0  0  0  0  0  0
   54.7860   26.7050   45.9950 O   0  0  0  0  0  0  0  0  0  0  0  0
   56.1120   24.9090   46.8830 C   0  0  0  0  0  0  0  0  0  0  0  0
   55.1920   24.4093   47.2207 H   0  0  0  0  0  0  0  0  0  0  0  0
   57.3510   24.3100   47.1090 C   0  0  0  0  0  0  0  0  0  0  0  0
   57.4210   23.0900   47.7700 O   0  0  0  0  0  0  0  0  0  0  0  0
   58.5210   24.9350   46.6730 C   0  0  0  0  0  0  0  0  0  0  0  0
   59.4943   24.4563   46.8558 H   0  0  0  0  0  0  0  0  0  0  0  0
   57.2100   26.7960   45.8070 C   0  0  0  0  0  0  0  0  0  0  0  0
   57.1080   28.0780   45.0750 C   0  0  0  0  0  0  0  0  0  0  0  0
   56.7946   28.0399   44.0213 H   0  0  0  0  0  0  0  0  0  0  0  0
   57.3700   29.2840   45.6030 C   0  0  0  0  0  0  0  0  0  0  0  0
   57.6236   29.3201   46.6727 H   0  0  0  0  0  0  0  0  0  0  0  0
   58.4680   26.1730   46.0010 C   0  0  0  0  0  0  0  0  0  0  0  0
   59.3510   28.6040   48.3220 C   0  0  0  0  0  0  0  0  0  0  0  0
   59.1058   27.5964   48.6889 H   0  0  0  0  0  0  0  0  0  0  0  0
   58.9340   29.7250   49.0450 C   0  0  0  0  0  0  0  0  0  0  0  0
   58.3545   29.5959   49.9710 H   0  0  0  0  0  0  0  0  0  0  0  0
   59.2510   31.0090   48.5950 C   0  0  0  0  0  0  0  0  0  0  0  0
   58.8360   32.1210   49.3150 O   0  0  0  0  0  0  0  0  0  0  0  0
   59.9900   31.1720   47.4200 C   0  0  0  0  0  0  0  0  0  0  0  0
   60.2431   32.1826   47.0671 H   0  0  0  0  0  0  0  0  0  0  0  0
   60.4090   30.0530   46.6910 C   0  0  0  0  0  0  0  0  0  0  0  0
   60.9970   30.1879   45.7712 H   0  0  0  0  0  0  0  0  0  0  0  0
  1  2  1  0
  2  3  2  0
  2  4  1  0
  4  5  1  0
  4  6  2  0
  6  7  1  0
  6  8  1  0
  8  9  2  0
  9 10  1  0
  9 11  1  0
 11 12  1  0
 11 13  2  0
 13 14  1  0
 13 15  1  0
 15 16  1  0
 15 17  2  0
 17 18  1  0
 18 19  1  0
 18 20  2  0
 20 21  1  0
 20 22  1  0
 22 23  2  0
 23 24  1  0
 23 25  1  0
 25 26  1  0
 25 27  2  0
 27 28  1  0
 27 29  1  0
 29 30  1  0
 29 31  2  0
 31 32  1  0
 17  8  1  0
 31 22  1  0
M  CHG  3  10  -1  14  -1  28  -1
M  END
>  <UniqueID>  (8) 
8

>  <SMILES>  (8) 
O=C/C=C\c1c([O-])cc([O-])cc1/C=C/c1ccc([O-])cc1

>  <Energy>  (8) 
48.451817241839834

>  <Genealogy>  (8) 
O=CC=Cc1c([O-])cc([O-])cc1C=Cc1ccc([O-])cc1 (protonated)
O=C/C=C\c1c([O-])cc([O-])cc1/C=C/c1ccc([O-])cc1 (cis-trans isomerization)
O=C/C=C\c1c([O-])cc([O-])cc1/C=C/c1ccc([O-])cc1 (3D coordinates assigned)
O=C/C=C\c1c([O-])cc([O-])cc1/C=C/c1ccc([O-])cc1 (optimized conformer: 48.451817241839834 kcal/mol)

>  <smiles>  (8) 
O=CC=Cc1c(O)cc(O)cc1C=Cc1ccc(O)cc1

>  <score_type>  (8) 
oracle

>  <origin>  (8) 
adg

>  <m_score__min__energy>  (8) 
-13.35

>  <m_primary>  (8) 
energy

$$$$
8:0
     RDKit          3D

 58 61  0  0  0  0  0  0  0  0999 V2000
   62.4840   29.6300   52.2470 C   0  0  0  0  0  0  0  0  0  0  0  0
   61.7540   29.2130   51.0030 C   0  0  0  0  0  0  0  0  0  0  0  0
   61.3550   27.8740   50.8110 C   0  0  0  0  0  0  0  0  0  0  0  0
   60.6530   27.4920   49.6500 C   0  0  0  0  0  0  0  0  0  0  0  0
   60.2630   26.1640   49.4960 O   0  0  0  0  0  0  0  0  0  0  0  0
   60.3430   28.4460   48.6540 C   0  0  0  0  0  0  0  0  0  0  0  0
   59.5690   28.0630   47.4270 C   0  0  0  0  0  0  0  0  0  0  0  0
   60.7310   29.7710   48.8790 C   0  0  0  0  0  0  0  0  0  0  0  0
   61.4120   30.1390   50.0090 C   0  0  0  0  0  0  0  0  0  0  0  0
   61.6380   31.5700   49.9020 C   0  0  0  0  0  0  0  0  0  0  0  0
   62.2120   32.2900   50.7620 O   0  0  0  0  0  0  0  0  0  0  0  0
   61.0500   32.0590   48.6020 C   0  0  2  0  0  0  0  0  0  0  0  0
   62.1500   32.6250   47.6620 C   0  0  0  0  0  0  0  0  0  0  0  0
   61.6510   33.7690   46.7570 C   0  0  0  0  0  0  0  0  0  0  0  0
   60.1780   33.5590   46.3300 C   0  0  2  0  0  0  0  0  0  0  0  0
   59.6610   34.5300   45.3140 N   0  0  0  0  0  0  0  0  0  0  0  0
   59.6580   35.9010   45.8600 C   0  0  0  0  0  0  0  0  0  0  0  0
   58.3450   34.2270   44.6870 C   0  0  0  0  0  0  0  0  0  0  0  0
   58.4210   33.0940   43.6370 C   0  0  0  0  0  0  0  0  0  0  0  0
   57.7450   31.8110   44.0630 C   0  0  0  0  0  0  0  0  0  0  0  0
   58.0070   31.2550   45.3270 C   0  0  0  0  0  0  0  0  0  0  0  0
   57.4000   30.0570   45.7150 C   0  0  0  0  0  0  0  0  0  0  0  0
   56.5460   29.3810   44.8330 C   0  0  0  0  0  0  0  0  0  0  0  0
   55.9210   28.1580   45.2310 N   0  0  0  0  0  0  0  0  0  0  0  0
   56.3230   29.9020   43.5520 C   0  0  0  0  0  0  0  0  0  0  0  0
   56.9320   31.0990   43.1630 C   0  0  0  0  0  0  0  0  0  0  0  0
   59.2210   33.4780   47.5430 C   0  0  0  0  0  0  0  0  0  0  0  0
   59.9230   33.0760   48.8550 C   0  0  0  0  0  0  0  0  0  0  0  0
   60.5000   30.8580   48.0430 O   0  0  0  0  0  0  0  0  0  0  0  0
   61.9162   29.3056   53.1315 H   0  0  0  0  0  0  0  0  0  0  0  0
   63.4808   29.1651   52.2605 H   0  0  0  0  0  0  0  0  0  0  0  0
   62.5898   30.7248   52.2605 H   0  0  0  0  0  0  0  0  0  0  0  0
   61.5941   27.1199   51.5753 H   0  0  0  0  0  0  0  0  0  0  0  0
   58.6197   27.5933   47.7241 H   0  0  0  0  0  0  0  0  0  0  0  0
   59.3616   28.9625   46.8287 H   0  0  0  0  0  0  0  0  0  0  0  0
   60.1582   27.3525   46.8287 H   0  0  0  0  0  0  0  0  0  0  0  0
   62.9763   33.0048   48.2809 H   0  0  0  0  0  0  0  0  0  0  0  0
   62.4685   31.8041   47.0028 H   0  0  0  0  0  0  0  0  0  0  0  0
   61.7313   34.7189   47.3059 H   0  0  0  0  0  0  0  0  0  0  0  0
   62.2726   33.7849   45.8496 H   0  0  0  0  0  0  0  0  0  0  0  0
   60.1943   32.5836   45.8217 H   0  0  0  0  0  0  0  0  0  0  0  0
   59.6581   35.8579   46.9592 H   0  0  0  0  0  0  0  0  0  0  0  0
   60.5550   36.4355   45.5139 H   0  0  0  0  0  0  0  0  0  0  0  0
   58.7587   36.4315   45.5139 H   0  0  0  0  0  0  0  0  0  0  0  0
   57.6416   33.9257   45.4772 H   0  0  0  0  0  0  0  0  0  0  0  0
   58.0125   35.1366   44.1653 H   0  0  0  0  0  0  0  0  0  0  0  0
   57.9406   33.4470   42.7126 H   0  0  0  0  0  0  0  0  0  0  0  0
   59.4870   32.8602   43.4995 H   0  0  0  0  0  0  0  0  0  0  0  0
   58.6950   31.7665   46.0162 H   0  0  0  0  0  0  0  0  0  0  0  0
   57.5933   29.6435   46.7158 H   0  0  0  0  0  0  0  0  0  0  0  0
   56.2280   27.2440   44.8300 H   0  0  0  0  0  0  0  0  0  0  0  0
   55.1420   28.1580   45.9280 H   0  0  0  0  0  0  0  0  0  0  0  0
   55.6665   29.3676   42.8496 H   0  0  0  0  0  0  0  0  0  0  0  0
   56.7741   31.4866   42.1457 H   0  0  0  0  0  0  0  0  0  0  0  0
   58.7554   34.4644   47.6855 H   0  0  0  0  0  0  0  0  0  0  0  0
   58.4811   32.6954   47.3193 H   0  0  0  0  0  0  0  0  0  0  0  0
   60.3511   33.9754   49.3216 H   0  0  0  0  0  0  0  0  0  0  0  0
   59.1783   32.6090   49.5163 H   0  0  0  0  0  0  0  0  0  0  0  0
  1  2  1  0
  2  3  2  0
  3  4  1  0
  4  5  1  0
  4  6  2  0
  6  7  1  0
  6  8  1  0
  8  9  2  0
  9 10  1  0
 10 11  2  0
 10 12  1  0
 12 13  1  0
 13 14  1  0
 14 15  1  0
 15 16  1  0
 16 17  1  0
 16 18  1  0
 18 19  1  0
 19 20  1  0
 20 21  2  0
 21 22  1  0
 22 23  2  0
 23 24  1  0
 23 25  1  0
 25 26  2  0
 15 27  1  0
 27 28  1  0
 12 29  1  6
  9  2  1  0
 28 12  1  0
 29  8  1  0
 26 20  1  0
  1 30  1  0
  1 31  1  0
  1 32  1  0
  3 33  1  0
  7 34  1  0
  7 35  1  0
  7 36  1  0
 13 37  1  0
 13 38  1  0
 14 39  1  0
 14 40  1  0
 15 41  1  6
 17 42  1  0
 17 43  1  0
 17 44  1  0
 18 45  1  0
 18 46  1  0
 19 47  1  0
 19 48  1  0
 21 49  1  0
 22 50  1  0
 24 51  1  0
 24 52  1  0
 25 53  1  0
 26 54  1  0
 27 55  1  0
 27 56  1  0
 28 57  1  0
 28 58  1  0
M  CHG  1   5  -1
M  END
>  <UniqueID>  (9) 
9

>  <SMILES>  (9) 
Cc1cc([O-])c(C)c2c1C(=O)C1(CCC(N(C)CCc3ccc(N)cc3)CC1)O2

>  <Energy>  (9) 
96.3084178998637

>  <Genealogy>  (9) 
Cc1cc([O-])c(C)c2c1C(=O)C1(CCC(N(C)CCc3ccc(N)cc3)CC1)O2 (protonated)
Cc1cc([O-])c(C)c2c1C(=O)C1(CCC(N(C)CCc3ccc(N)cc3)CC1)O2 (3D coordinates assigned)
Cc1cc([O-])c(C)c2c1C(=O)C1(CCC(N(C)CCc3ccc(N)cc3)CC1)O2 (nonaromatic ring conformer: 96.3084178998637 kcal/mol)

>  <smiles>  (9) 
Cc1cc(O)c(C)c2c1C(=O)C1(CCC(N(C)CCc3ccc(N)cc3)CC1)O2

>  <score_type>  (9) 
oracle

>  <origin>  (9) 
adg

>  <m_score__min__energy>  (9) 
-10.1

>  <m_primary>  (9) 
energy

$$$$
9:0
     RDKit          3D

 52 54  0  0  0  0  0  0  0  0999 V2000
   54.4730   24.9650   45.6000 C   0  0  0  0  0  0  0  0  0  0  0  0
   54.9050   26.3000   45.9890 N   0  0  0  0  0  0  0  0  0  0  0  0
   56.2740   26.6760   46.1790 C   0  0  0  0  0  0  0  0  0  0  0  0
   56.9700   26.0460   47.0170 O   0  0  0  0  0  0  0  0  0  0  0  0
   56.8990   27.7570   45.3990 C   0  0  0  0  0  0  0  0  0  0  0  0
   56.6960   29.1080   45.6000 C   0  0  0  0  0  0  0  0  0  0  0  0
   57.4120   29.7560   44.6100 C   0  0  0  0  0  0  0  0  0  0  0  0
   57.4930   31.2230   44.4430 C   0  0  0  0  0  0  0  0  0  0  0  0
   57.4720   31.7000   43.2720 O   0  0  0  0  0  0  0  0  0  0  0  0
   57.5090   32.1060   45.5940 N   0  0  2  0  0  0  0  0  0  0  0  0
   56.7420   33.3400   45.3230 C   0  0  0  0  0  0  0  0  0  0  0  0
   57.6980   34.5270   45.4080 C   0  0  0  0  0  0  0  0  0  0  0  0
   59.0860   33.9150   45.3760 C   0  0  1  0  0  0  0  0  0  0  0  0
   60.0500   34.7090   46.1540 N   0  0  0  0  0  0  0  0  0  0  0  0
   61.1010   34.1390   46.9620 C   0  0  0  0  0  0  0  0  0  0  0  0
   62.3610   33.8140   46.4270 C   0  0  0  0  0  0  0  0  0  0  0  0
   63.3510   33.2500   47.2350 C   0  0  0  0  0  0  0  0  0  0  0  0
   63.1100   32.9980   48.5940 C   0  0  0  0  0  0  0  0  0  0  0  0
   64.1960   32.3770   49.4360 C   0  0  0  0  0  0  0  0  0  0  0  0
   61.8450   33.3160   49.1440 C   0  0  0  0  0  0  0  0  0  0  0  0
   61.5390   33.0630   50.5980 C   0  0  0  0  0  0  0  0  0  0  0  0
   60.8560   33.8810   48.3200 C   0  0  0  0  0  0  0  0  0  0  0  0
   58.8750   32.5260   45.9640 C   0  0  0  0  0  0  0  0  0  0  0  0
   58.0310   28.8580   43.8150 N   0  0  0  0  0  0  0  0  0  0  0  0
   57.7170   27.6360   44.2850 C   0  0  0  0  0  0  0  0  0  0  0  0
   58.1180   26.3680   43.5930 C   0  0  0  0  0  0  0  0  0  0  0  0
   54.2789   24.3652   46.5014 H   0  0  0  0  0  0  0  0  0  0  0  0
   53.5523   25.0371   45.0023 H   0  0  0  0  0  0  0  0  0  0  0  0
   55.2614   24.4841   45.0023 H   0  0  0  0  0  0  0  0  0  0  0  0
   56.0875   29.5747   46.3886 H   0  0  0  0  0  0  0  0  0  0  0  0
   57.0970   31.6040   46.4160 H   0  0  0  0  0  0  0  0  0  0  0  0
   56.2999   33.2898   44.3170 H   0  0  0  0  0  0  0  0  0  0  0  0
   55.9322   33.4522   46.0589 H   0  0  0  0  0  0  0  0  0  0  0  0
   57.5532   35.2024   44.5519 H   0  0  0  0  0  0  0  0  0  0  0  0
   57.5317   35.1279   46.3142 H   0  0  0  0  0  0  0  0  0  0  0  0
   59.5164   33.8815   44.3643 H   0  0  0  0  0  0  0  0  0  0  0  0
   59.9740   35.7520   46.1310 H   0  0  0  0  0  0  0  0  0  0  0  0
   62.5682   34.0056   45.3638 H   0  0  0  0  0  0  0  0  0  0  0  0
   64.3305   33.0006   46.8010 H   0  0  0  0  0  0  0  0  0  0  0  0
   63.9574   32.5135   50.5011 H   0  0  0  0  0  0  0  0  0  0  0  0
   64.2656   31.3026   49.2106 H   0  0  0  0  0  0  0  0  0  0  0  0
   65.1572   32.8619   49.2106 H   0  0  0  0  0  0  0  0  0  0  0  0
   62.2356   33.6390   51.2249 H   0  0  0  0  0  0  0  0  0  0  0  0
   60.5067   33.3749   50.8151 H   0  0  0  0  0  0  0  0  0  0  0  0
   61.6513   31.9905   50.8151 H   0  0  0  0  0  0  0  0  0  0  0  0
   59.8722   34.1254   48.7471 H   0  0  0  0  0  0  0  0  0  0  0  0
   59.6123   31.8234   45.5483 H   0  0  0  0  0  0  0  0  0  0  0  0
   59.0005   32.5381   47.0567 H   0  0  0  0  0  0  0  0  0  0  0  0
   58.6340   29.0550   42.9860 H   0  0  0  0  0  0  0  0  0  0  0  0
   58.3604   25.6014   44.3437 H   0  0  0  0  0  0  0  0  0  0  0  0
   57.2876   26.0153   42.9637 H   0  0  0  0  0  0  0  0  0  0  0  0
   59.0002   26.5569   42.9637 H   0  0  0  0  0  0  0  0  0  0  0  0
  1  2  1  0
  2  3  1  0
  3  4  2  0
  3  5  1  0
  5  6  1  0
  6  7  2  0
  7  8  1  0
  8  9  2  0
  8 10  1  0
 10 11  1  0
 11 12  1  0
 12 13  1  0
 13 14  1  0
 14 15  1  0
 15 16  2  0
 16 17  1  0
 17 18  2  0
 18 19  1  0
 18 20  1  0
 20 21  1  0
 20 22  2  0
 13 23  1  0
  7 24  1  0
 24 25  1  0
 25 26  1  0
 25  5  2  0
 23 10  1  0
 22 15  1  0
  1 27  1  0
  1 28  1  0
  1 29  1  0
  6 30  1  0
 10 31  1  1
 11 32  1  0
 11 33  1  0
 12 34  1  0
 12 35  1  0
 13 36  1  6
 14 37  1  0
 16 38  1  0
 17 39  1  0
 19 40  1  0
 19 41  1  0
 19 42  1  0
 21 43  1  0
 21 44  1  0
 21 45  1  0
 22 46  1  0
 23 47  1  0
 23 48  1  0
 24 49  1  0
 26 50  1  0
 26 51  1  0
 26 52  1  0
M  CHG  2   2  -1  10   1
M  END
>  <UniqueID>  (10) 
10

>  <SMILES>  (10) 
C[N-]C(=O)c1cc(C(=O)[N@@H+]2CC[C@@H](Nc3ccc(C)c(C)c3)C2)[nH]c1C

>  <Energy>  (10) 
88.65594050168853

>  <Genealogy>  (10) 
C[N-]C(=O)c1cc(C(=O)[NH+]2CCC(Nc3ccc(C)c(C)c3)C2)[nH]c1C (protonated)
C[N-]C(=O)c1cc(C(=O)[N@@H+]2CC[C@@H](Nc3ccc(C)c(C)c3)C2)[nH]c1C (chirality)
C[N-]C(=O)c1cc(C(=O)[N@@H+]2CC[C@@H](Nc3ccc(C)c(C)c3)C2)[nH]c1C (3D coordinates assigned)
C[N-]C(=O)c1cc(C(=O)[N@@H+]2CC[C@@H](Nc3ccc(C)c(C)c3)C2)[nH]c1C (nonaromatic ring conformer: 88.65594050168853 kcal/mol)

>  <smiles>  (10) 
CNC(=O)c1cc(C(=O)N2CCC(Nc3ccc(C)c(C)c3)C2)[nH]c1C

>  <score_type>  (10) 
oracle

>  <origin>  (10) 
adg

>  <m_score__min__energy>  (10) 
-9.8599999999999994

>  <m_primary>  (10) 
energy

$$$$
10:0
     RDKit          3D

 37 39  0  0  0  0  0  0  0  0999 V2000
   55.9240   30.4100   44.5960 O   0  0  0  0  0  0  0  0  0  0  0  0
   57.0070   29.9780   44.1160 C   0  0  0  0  0  0  0  0  0  0  0  0
   57.3770   28.5380   44.3010 C   0  0  0  0  0  0  0  0  0  0  0  0
   57.8960   28.3120   45.6950 C   0  0  0  0  0  0  0  0  0  0  0  0
   57.4480   27.3990   46.6620 C   0  0  0  0  0  0  0  0  0  0  0  0
   56.3840   26.3870   46.5090 C   0  0  0  0  0  0  0  0  0  0  0  0
   56.6070   25.1950   46.8510 O   0  0  0  0  0  0  0  0  0  0  0  0
   55.1380   26.7180   45.9950 O   0  0  0  0  0  0  0  0  0  0  0  0
   58.1290   27.5440   47.8250 N   0  0  0  0  0  0  0  0  0  0  0  0
   58.9930   28.5480   47.6000 C   0  0  0  0  0  0  0  0  0  0  0  0
   59.9080   29.0730   48.5110 C   0  0  0  0  0  0  0  0  0  0  0  0
   60.7250   30.1390   48.0890 C   0  0  0  0  0  0  0  0  0  0  0  0
   61.8900   30.8370   49.2000 Cl  0  0  0  0  0  0  0  0  0  0  0  0
   60.6130   30.6460   46.7750 C   0  0  0  0  0  0  0  0  0  0  0  0
   59.6840   30.0940   45.8770 C   0  0  0  0  0  0  0  0  0  0  0  0
   58.8830   29.0430   46.3270 C   0  0  0  0  0  0  0  0  0  0  0  0
   57.9040   30.8700   43.4430 N   0  0  0  0  0  0  0  0  0  0  0  0
   57.6240   32.3010   43.3370 C   0  0  0  0  0  0  0  0  0  0  0  0
   58.0800   33.0230   44.5770 C   0  0  0  0  0  0  0  0  0  0  0  0
   59.0890   33.9960   44.4910 C   0  0  0  0  0  0  0  0  0  0  0  0
   59.4940   34.6940   45.6350 C   0  0  0  0  0  0  0  0  0  0  0  0
   58.8870   34.4300   46.8660 C   0  0  0  0  0  0  0  0  0  0  0  0
   57.8730   33.4720   46.9560 C   0  0  0  0  0  0  0  0  0  0  0  0
   57.4650   32.7740   45.8140 C   0  0  0  0  0  0  0  0  0  0  0  0
   56.4886   27.9103   44.1374 H   0  0  0  0  0  0  0  0  0  0  0  0
   58.1617   28.2723   43.5774 H   0  0  0  0  0  0  0  0  0  0  0  0
   59.9894   28.6663   49.5298 H   0  0  0  0  0  0  0  0  0  0  0  0
   61.2569   31.4778   46.4531 H   0  0  0  0  0  0  0  0  0  0  0  0
   59.5907   30.4783   44.8506 H   0  0  0  0  0  0  0  0  0  0  0  0
   58.7830   30.4820   43.0300 H   0  0  0  0  0  0  0  0  0  0  0  0
   58.1551   32.7097   42.4647 H   0  0  0  0  0  0  0  0  0  0  0  0
   56.5392   32.4428   43.2226 H   0  0  0  0  0  0  0  0  0  0  0  0
   59.5627   34.2104   43.5216 H   0  0  0  0  0  0  0  0  0  0  0  0
   60.2898   35.4501   45.5650 H   0  0  0  0  0  0  0  0  0  0  0  0
   59.2076   34.9767   47.7651 H   0  0  0  0  0  0  0  0  0  0  0  0
   57.3954   33.2667   47.9254 H   0  0  0  0  0  0  0  0  0  0  0  0
   56.6599   32.0279   45.8858 H   0  0  0  0  0  0  0  0  0  0  0  0
  1  2  2  0
  2  3  1  0
  3  4  1  0
  4  5  2  0
  5  6  1  0
  6  7  2  0
  6  8  1  0
  5  9  1  0
  9 10  1  0
 10 11  2  0
 11 12  1  0
 12 13  1  0
 12 14  2  0
 14 15  1  0
 15 16  2  0
  2 17  1  0
 17 18  1  0
 18 19  1  0
 19 20  2  0
 20 21  1  0
 21 22  2  0
 22 23  1  0
 23 24  2  0
 16  4  1  0
 24 19  1  0
 16 10  1  0
  3 25  1  0
  3 26  1  0
 11 27  1  0
 14 28  1  0
 15 29  1  0
 17 30  1  0
 18 31  1  0
 18 32  1  0
 20 33  1  0
 21 34  1  0
 22 35  1  0
 23 36  1  0
 24 37  1  0
M  CHG  2   8  -1   9  -1
M  END
>  <UniqueID>  (11) 
11

>  <SMILES>  (11) 
O=C(Cc1c(C(=O)[O-])[n-]c2cc(Cl)ccc12)NCc1ccccc1

>  <Energy>  (11) 
67.06810879808702

>  <Genealogy>  (11) 
O=C(Cc1c(C(=O)[O-])[n-]c2cc(Cl)ccc12)NCc1ccccc1 (protonated)
O=C(Cc1c(C(=O)[O-])[n-]c2cc(Cl)ccc12)NCc1ccccc1 (3D coordinates assigned)
O=C(Cc1c(C(=O)[O-])[n-]c2cc(Cl)ccc12)NCc1ccccc1 (optimized conformer: 67.06810879808702 kcal/mol)

>  <smiles>  (11) 
O=C(Cc1c(C(=O)O)[nH]c2cc(Cl)ccc12)NCc1ccccc1

>  <score_type>  (11) 
oracle

>  <origin>  (11) 
adg

>  <m_score__min__energy>  (11) 
-12.880000000000001

>  <m_primary>  (11) 
energy

$$$$
11:0
     RDKit          3D

 48 51  0  0  0  0  0  0  0  0999 V2000
   60.1500   27.2870   46.9530 C   0  0  0  0  0  0  0  0  0  0  0  0
   59.3090   28.1690   46.3840 C   0  0  0  0  0  0  0  0  0  0  0  0
   58.3020   27.8610   45.4530 C   0  0  0  0  0  0  0  0  0  0  0  0
   57.7680   26.6800   45.0870 C   0  0  0  0  0  0  0  0  0  0  0  0
   57.2360   25.6590   46.0030 C   0  0  0  0  0  0  0  0  0  0  0  0
   57.9610   24.6290   46.4710 N   0  0  0  0  0  0  0  0  0  0  0  0
   57.0590   23.8980   47.1610 C   0  0  0  0  0  0  0  0  0  0  0  0
   57.3670   22.8410   47.7700 O   0  0  0  0  0  0  0  0  0  0  0  0
   55.7980   24.3830   47.1380 N   0  0  0  0  0  0  0  0  0  0  0  0
   55.9230   25.4900   46.3880 C   0  0  0  0  0  0  0  0  0  0  0  0
   54.8590   26.3160   46.0390 O   0  0  0  0  0  0  0  0  0  0  0  0
   57.8820   29.0650   44.9260 C   0  0  0  0  0  0  0  0  0  0  0  0
   58.5740   30.0560   45.5870 C   0  0  0  0  0  0  0  0  0  0  0  0
   58.4030   31.5170   45.3000 C   0  0  0  0  0  0  0  0  0  0  0  0
   59.4130   29.5240   46.5120 N   0  0  0  0  0  0  0  0  0  0  0  0
   60.3350   30.2860   47.3810 C   0  0  0  0  0  0  0  0  0  0  0  0
   59.6270   30.8960   48.5770 C   0  0  0  0  0  0  0  0  0  0  0  0
   58.8700   30.0490   49.4070 C   0  0  0  0  0  0  0  0  0  0  0  0
   58.2040   30.5470   50.5270 C   0  0  0  0  0  0  0  0  0  0  0  0
   57.4940   29.7020   51.3230 N   0  0  0  0  0  0  0  0  0  0  0  0
   56.8300   30.1430   52.4230 C   0  0  0  0  0  0  0  0  0  0  0  0
   56.8580   31.4950   52.7650 C   0  0  0  0  0  0  0  0  0  0  0  0
   57.5760   32.3930   51.9690 C   0  0  0  0  0  0  0  0  0  0  0  0
   57.5970   33.6150   52.2810 O   0  0  0  0  0  0  0  0  0  0  0  0
   58.2620   31.9230   50.8320 C   0  0  0  0  0  0  0  0  0  0  0  0
   58.9890   32.7820   49.9930 C   0  0  0  0  0  0  0  0  0  0  0  0
   59.6750   32.2870   48.8690 C   0  0  0  0  0  0  0  0  0  0  0  0
   60.3630   33.2920   47.9690 C   0  0  0  0  0  0  0  0  0  0  0  0
   59.3590   34.2770   47.3810 C   0  0  0  0  0  0  0  0  0  0  0  0
   60.9059   27.6336   47.6730 H   0  0  0  0  0  0  0  0  0  0  0  0
   60.0819   26.2191   46.6983 H   0  0  0  0  0  0  0  0  0  0  0  0
   57.7260   26.4597   44.0101 H   0  0  0  0  0  0  0  0  0  0  0  0
   54.2580   26.7120   46.7510 H   0  0  0  0  0  0  0  0  0  0  0  0
   57.1365   29.2066   44.1296 H   0  0  0  0  0  0  0  0  0  0  0  0
   58.3381   32.0717   46.2477 H   0  0  0  0  0  0  0  0  0  0  0  0
   59.2648   31.8802   44.7208 H   0  0  0  0  0  0  0  0  0  0  0  0
   57.4807   31.6714   44.7208 H   0  0  0  0  0  0  0  0  0  0  0  0
   61.1213   29.6076   47.7435 H   0  0  0  0  0  0  0  0  0  0  0  0
   60.7574   31.1081   46.7846 H   0  0  0  0  0  0  0  0  0  0  0  0
   58.8022   28.9772   49.1690 H   0  0  0  0  0  0  0  0  0  0  0  0
   56.2683   29.4315   53.0461 H   0  0  0  0  0  0  0  0  0  0  0  0
   56.3190   31.8524   53.6548 H   0  0  0  0  0  0  0  0  0  0  0  0
   59.0228   33.8583   50.2178 H   0  0  0  0  0  0  0  0  0  0  0  0
   61.1103   33.8470   48.5550 H   0  0  0  0  0  0  0  0  0  0  0  0
   60.8460   32.7493   47.1430 H   0  0  0  0  0  0  0  0  0  0  0  0
   58.8320   34.7941   48.1964 H   0  0  0  0  0  0  0  0  0  0  0  0
   59.8893   35.0150   46.7612 H   0  0  0  0  0  0  0  0  0  0  0  0
   58.6313   33.7327   46.7612 H   0  0  0  0  0  0  0  0  0  0  0  0
  1  2  2  0
  2  3  1  0
  3  4  2  3
  4  5  1  0
  5  6  1  0
  6  7  1  0
  7  8  2  0
  7  9  1  0
  9 10  1  0
 10 11  1  0
  3 12  1  0
 12 13  2  0
 13 14  1  0
 13 15  1  0
 15 16  1  0
 16 17  1  0
 17 18  2  0
 18 19  1  0
 19 20  1  0
 20 21  1  0
 21 22  2  0
 22 23  1  0
 23 24  2  0
 23 25  1  0
 25 26  1  0
 26 27  2  0
 27 28  1  0
 28 29  1  0
 15  2  1  0
 27 17  1  0
 10  5  2  0
 25 19  2  0
  1 30  1  0
  1 31  1  0
  4 32  1  0
 11 33  1  0
 12 34  1  0
 14 35  1  0
 14 36  1  0
 14 37  1  0
 16 38  1  0
 16 39  1  0
 18 40  1  0
 21 41  1  0
 22 42  1  0
 26 43  1  0
 28 44  1  0
 28 45  1  0
 29 46  1  0
 29 47  1  0
 29 48  1  0
M  CHG  3   6  -1   9  -1  20  -1
M  END
>  <UniqueID>  (12) 
12

>  <SMILES>  (12) 
C=c1c(=Cc2[n-]c(=O)[n-]c2O)cc(C)n1Cc1cc2[n-]ccc(=O)c2cc1CC

>  <Energy>  (12) 
125.48782317897142

>  <Genealogy>  (12) 
C=c1c(=Cc2[n-]c(=O)[n-]c2O)cc(C)n1Cc1cc2[n-]ccc(=O)c2cc1CC (protonated)
C=c1c(=Cc2[n-]c(=O)[n-]c2O)cc(C)n1Cc1cc2[n-]ccc(=O)c2cc1CC (3D coordinates assigned)
C=c1c(=Cc2[n-]c(=O)[n-]c2O)cc(C)n1Cc1cc2[n-]ccc(=O)c2cc1CC (optimized conformer: 125.48782317897142 kcal/mol)

>  <smiles>  (12) 
C=c1c(=Cc2[nH]c(=O)[nH]c2O)cc(C)n1Cc1cc2[nH]ccc(=O)c2cc1CC

>  <score_type>  (12) 
oracle

>  <origin>  (12) 
adg

>  <m_score__min__energy>  (12) 
-14.449999999999999

>  <m_primary>  (12) 
energy

$$$$
12:0
     RDKit          3D

 48 51  0  0  0  0  0  0  0  0999 V2000
   60.4300   31.8180   49.9540 O   0  0  0  0  0  0  0  0  0  0  0  0
   59.2190   31.7470   50.3050 C   0  0  0  0  0  0  0  0  0  0  0  0
   58.2070   32.4190   49.5270 N   0  0  0  0  0  0  0  0  0  0  0  0
   58.4760   33.0840   48.2820 C   0  0  0  0  0  0  0  0  0  0  0  0
   57.8090   32.7190   47.1000 C   0  0  0  0  0  0  0  0  0  0  0  0
   58.1110   33.3650   45.8930 C   0  0  0  0  0  0  0  0  0  0  0  0
   59.0900   34.3620   45.8570 C   0  0  0  0  0  0  0  0  0  0  0  0
   59.7720   34.7130   47.0240 C   0  0  0  0  0  0  0  0  0  0  0  0
   59.4720   34.0710   48.2310 C   0  0  0  0  0  0  0  0  0  0  0  0
   58.8700   30.9600   51.5180 C   0  0  0  0  0  0  0  0  0  0  0  0
   59.7160   29.9190   51.9400 C   0  0  0  0  0  0  0  0  0  0  0  0
   59.4130   29.1770   53.0830 C   0  0  0  0  0  0  0  0  0  0  0  0
   58.2540   29.4520   53.8130 C   0  0  0  0  0  0  0  0  0  0  0  0
   57.3760   30.4670   53.3940 C   0  0  0  0  0  0  0  0  0  0  0  0
   56.1220   30.7940   54.1850 C   0  0  2  0  0  0  0  0  0  0  0  0
   56.1590   30.1440   55.5710 C   0  0  0  0  0  0  0  0  0  0  0  0
   55.2090   28.9530   55.5040 C   0  0  0  0  0  0  0  0  0  0  0  0
   54.2900   29.2160   54.3160 C   0  0  0  0  0  0  0  0  0  0  0  0
   54.9260   30.2650   53.5320 N   0  0  0  0  0  0  0  0  0  0  0  0
   54.3900   30.6750   52.2500 C   0  0  0  0  0  0  0  0  0  0  0  0
   55.1190   30.5440   51.2270 O   0  0  0  0  0  0  0  0  0  0  0  0
   53.0260   31.2450   52.0730 C   0  0  0  0  0  0  0  0  0  0  0  0
   52.1370   31.3070   53.1600 C   0  0  0  0  0  0  0  0  0  0  0  0
   50.8770   31.8810   52.9700 C   0  0  0  0  0  0  0  0  0  0  0  0
   50.0650   31.9610   53.9300 O   0  0  0  0  0  0  0  0  0  0  0  0
   50.5270   32.3550   51.7440 N   0  0  0  0  0  0  0  0  0  0  0  0
   51.3910   32.2860   50.6960 C   0  0  0  0  0  0  0  0  0  0  0  0
   51.0450   32.7170   49.5640 O   0  0  0  0  0  0  0  0  0  0  0  0
   52.6280   31.7480   50.8710 N   0  0  0  0  0  0  0  0  0  0  0  0
   57.6970   31.2210   52.2520 C   0  0  0  0  0  0  0  0  0  0  0  0
   57.2060   32.3570   49.8170 H   0  0  0  0  0  0  0  0  0  0  0  0
   57.0483   31.9247   47.1220 H   0  0  0  0  0  0  0  0  0  0  0  0
   57.5766   33.0868   44.9727 H   0  0  0  0  0  0  0  0  0  0  0  0
   59.3232   34.8700   44.9096 H   0  0  0  0  0  0  0  0  0  0  0  0
   60.5455   35.4946   46.9946 H   0  0  0  0  0  0  0  0  0  0  0  0
   60.0204   34.3419   49.1452 H   0  0  0  0  0  0  0  0  0  0  0  0
   60.6244   29.6874   51.3645 H   0  0  0  0  0  0  0  0  0  0  0  0
   60.0890   28.3732   53.4099 H   0  0  0  0  0  0  0  0  0  0  0  0
   58.0274   28.8718   54.7196 H   0  0  0  0  0  0  0  0  0  0  0  0
   56.0871   31.8913   54.2536 H   0  0  0  0  0  0  0  0  0  0  0  0
   57.1788   29.8062   55.8073 H   0  0  0  0  0  0  0  0  0  0  0  0
   55.8595   30.8537   56.3562 H   0  0  0  0  0  0  0  0  0  0  0  0
   55.7738   28.0215   55.3516 H   0  0  0  0  0  0  0  0  0  0  0  0
   54.6386   28.8391   56.4376 H   0  0  0  0  0  0  0  0  0  0  0  0
   54.1780   28.3037   53.7118 H   0  0  0  0  0  0  0  0  0  0  0  0
   53.2852   29.5175   54.6468 H   0  0  0  0  0  0  0  0  0  0  0  0
   52.4282   30.9103   54.1438 H   0  0  0  0  0  0  0  0  0  0  0  0
   57.0221   32.0266   51.9270 H   0  0  0  0  0  0  0  0  0  0  0  0
  1  2  2  0
  2  3  1  0
  3  4  1  0
  4  5  2  0
  5  6  1  0
  6  7  2  0
  7  8  1  0
  8  9  2  0
  2 10  1  0
 10 11  2  0
 11 12  1  0
 12 13  2  0
 13 14  1  0
 14 15  1  0
 15 16  1  0
 16 17  1  0
 17 18  1  0
 18 19  1  0
 19 20  1  0
 20 21  2  0
 20 22  1  0
 22 23  2  0
 23 24  1  0
 24 25  2  0
 24 26  1  0
 26 27  1  0
 27 28  2  0
 27 29  1  0
 14 30  2  0
  9  4  1  0
 30 10  1  0
 19 15  1  0
 29 22  1  0
  3 31  1  0
  5 32  1  0
  6 33  1  0
  7 34  1  0
  8 35  1  0
  9 36  1  0
 11 37  1  0
 12 38  1  0
 13 39  1  0
 15 40  1  1
 16 41  1  0
 16 42  1  0
 17 43  1  0
 17 44  1  0
 18 45  1  0
 18 46  1  0
 23 47  1  0
 30 48  1  0
M  CHG  2  26  -1  29  -1
M  END
>  <UniqueID>  (13) 
13

>  <SMILES>  (13) 
O=C(Nc1ccccc1)c1cccc([C@@H]2CCCN2C(=O)c2cc(=O)[n-]c(=O)[n-]2)c1

>  <Energy>  (13) 
62.73981522435419

>  <Genealogy>  (13) 
O=C(Nc1ccccc1)c1cccc(C2CCCN2C(=O)c2cc(=O)[n-]c(=O)[n-]2)c1 (protonated)
O=C(Nc1ccccc1)c1cccc([C@@H]2CCCN2C(=O)c2cc(=O)[n-]c(=O)[n-]2)c1 (chirality)
O=C(Nc1ccccc1)c1cccc([C@@H]2CCCN2C(=O)c2cc(=O)[n-]c(=O)[n-]2)c1 (3D coordinates assigned)
O=C(Nc1ccccc1)c1cccc([C@@H]2CCCN2C(=O)c2cc(=O)[n-]c(=O)[n-]2)c1 (nonaromatic ring conformer: 62.73981522435419 kcal/mol)

>  <smiles>  (13) 
O=C(Nc1ccccc1)c1cccc(C2CCCN2C(=O)c2cc(=O)[nH]c(=O)[nH]2)c1

>  <score_type>  (13) 
oracle

>  <origin>  (13) 
adg

>  <m_score__min__energy>  (13) 
-13.609999999999999

>  <m_primary>  (13) 
energy

$$$$
13:0
     RDKit          3D

 44 46  0  0  0  0  0  0  0  0999 V2000
   55.3230   29.0030   44.8810 N   0  0  0  0  0  0  0  0  0  0  0  0
   56.3570   29.9530   44.6340 C   0  0  0  0  0  0  0  0  0  0  0  0
   56.0580   31.0670   44.1260 O   0  0  0  0  0  0  0  0  0  0  0  0
   57.7710   29.6370   44.9610 C   0  0  0  0  0  0  0  0  0  0  0  0
   58.6710   30.6660   45.3380 C   0  0  0  0  0  0  0  0  0  0  0  0
   58.2710   32.0480   45.2880 N   0  0  0  0  0  0  0  0  0  0  0  0
   58.7370   33.0490   46.2110 C   0  0  0  0  0  0  0  0  0  0  0  0
   58.8150   32.7440   47.5800 C   0  0  0  0  0  0  0  0  0  0  0  0
   59.2830   33.6960   48.4920 C   0  0  0  0  0  0  0  0  0  0  0  0
   59.6900   34.9550   48.0420 C   0  0  0  0  0  0  0  0  0  0  0  0
   59.6350   35.2630   46.6790 C   0  0  0  0  0  0  0  0  0  0  0  0
   59.1660   34.3140   45.7650 C   0  0  0  0  0  0  0  0  0  0  0  0
   59.9960   30.3420   45.6750 C   0  0  0  0  0  0  0  0  0  0  0  0
   60.4290   29.0180   45.6620 C   0  0  0  0  0  0  0  0  0  0  0  0
   59.5500   28.0010   45.3010 C   0  0  0  0  0  0  0  0  0  0  0  0
   58.2270   28.2950   44.9530 C   0  0  0  0  0  0  0  0  0  0  0  0
   57.3430   27.2160   44.6430 N   0  0  0  0  0  0  0  0  0  0  0  0
   56.9450   26.0380   45.8450 S   0  0  0  0  0  0  0  0  0  0  0  0
   57.5890   26.4150   47.1500 O   0  0  0  0  0  0  0  0  0  0  0  0
   55.4540   26.0030   46.0370 O   0  0  0  0  0  0  0  0  0  0  0  0
   57.4980   24.4510   45.3190 C   0  0  0  0  0  0  0  0  0  0  0  0
   58.7670   23.9840   45.6900 C   0  0  0  0  0  0  0  0  0  0  0  0
   59.2170   22.7410   45.2340 C   0  0  0  0  0  0  0  0  0  0  0  0
   58.4080   21.9630   44.4010 C   0  0  0  0  0  0  0  0  0  0  0  0
   57.1370   22.4240   44.0110 C   0  0  0  0  0  0  0  0  0  0  0  0
   56.2860   21.6060   43.1160 C   0  0  0  0  0  0  0  0  0  0  0  0
   56.2340   20.3530   43.2500 O   0  0  0  0  0  0  0  0  0  0  0  0
   55.5310   22.2090   42.1160 O   0  0  0  0  0  0  0  0  0  0  0  0
   56.6890   23.6740   44.4780 C   0  0  0  0  0  0  0  0  0  0  0  0
   55.5490   28.0260   45.1680 H   0  0  0  0  0  0  0  0  0  0  0  0
   57.6310   32.3450   44.5170 H   0  0  0  0  0  0  0  0  0  0  0  0
   58.5062   31.7505   47.9371 H   0  0  0  0  0  0  0  0  0  0  0  0
   59.3307   33.4535   49.5639 H   0  0  0  0  0  0  0  0  0  0  0  0
   60.0539   35.7042   48.7605 H   0  0  0  0  0  0  0  0  0  0  0  0
   59.9608   36.2524   46.3255 H   0  0  0  0  0  0  0  0  0  0  0  0
   59.1321   34.5568   44.6927 H   0  0  0  0  0  0  0  0  0  0  0  0
   60.6985   31.1419   45.9519 H   0  0  0  0  0  0  0  0  0  0  0  0
   61.4662   28.7761   45.9372 H   0  0  0  0  0  0  0  0  0  0  0  0
   59.8982   26.9576   45.2892 H   0  0  0  0  0  0  0  0  0  0  0  0
   56.9090   27.1560   43.6950 H   0  0  0  0  0  0  0  0  0  0  0  0
   59.4092   24.5960   46.3404 H   0  0  0  0  0  0  0  0  0  0  0  0
   60.2105   22.3745   45.5317 H   0  0  0  0  0  0  0  0  0  0  0  0
   58.7669   20.9848   44.0483 H   0  0  0  0  0  0  0  0  0  0  0  0
   55.6966   24.0440   44.1808 H   0  0  0  0  0  0  0  0  0  0  0  0
  1  2  1  0
  2  3  2  0
  2  4  1  0
  4  5  2  0
  5  6  1  0
  6  7  1  0
  7  8  2  0
  8  9  1  0
  9 10  2  0
 10 11  1  0
 11 12  2  0
  5 13  1  0
 13 14  2  0
 14 15  1  0
 15 16  2  0
 16 17  1  0
 17 18  1  0
 18 19  2  0
 18 20  2  0
 18 21  1  0
 21 22  2  0
 22 23  1  0
 23 24  2  0
 24 25  1  0
 25 26  1  0
 26 27  2  0
 26 28  1  0
 25 29  2  0
 16  4  1  0
 29 21  1  0
 12  7  1  0
  1 30  1  0
  6 31  1  0
  8 32  1  0
  9 33  1  0
 10 34  1  0
 11 35  1  0
 12 36  1  0
 13 37  1  0
 14 38  1  0
 15 39  1  0
 17 40  1  0
 22 41  1  0
 23 42  1  0
 24 43  1  0
 29 44  1  0
M  CHG  2   1  -1  28  -1
M  END
>  <UniqueID>  (14) 
14

>  <SMILES>  (14) 
[NH-]C(=O)c1c(Nc2ccccc2)cccc1NS(=O)(=O)c1cccc(C(=O)[O-])c1

>  <Energy>  (14) 
66.10192243544151

>  <Genealogy>  (14) 
[NH-]C(=O)c1c(Nc2ccccc2)cccc1NS(=O)(=O)c1cccc(C(=O)[O-])c1 (protonated)
[NH-]C(=O)c1c(Nc2ccccc2)cccc1NS(=O)(=O)c1cccc(C(=O)[O-])c1 (3D coordinates assigned)
[NH-]C(=O)c1c(Nc2ccccc2)cccc1NS(=O)(=O)c1cccc(C(=O)[O-])c1 (optimized conformer: 66.10192243544151 kcal/mol)

>  <smiles>  (14) 
NC(=O)c1c(Nc2ccccc2)cccc1NS(=O)(=O)c1cccc(C(=O)O)c1

>  <score_type>  (14) 
oracle

>  <origin>  (14) 
adg

>  <m_score__min__energy>  (14) 
-14.970000000000001

>  <m_primary>  (14) 
energy

$$$$
14:0
     RDKit          3D

 48 50  0  0  0  0  0  0  0  0999 V2000
   62.4860   34.7110   49.4980 N   0  0  0  0  0  0  0  0  0  0  0  0
   61.5190   34.2070   49.1240 C   0  0  0  0  0  0  0  0  0  0  0  0
   60.3130   33.5660   48.6520 C   0  0  0  0  0  0  0  0  0  0  0  0
   59.7170   34.0720   47.5530 C   0  0  0  0  0  0  0  0  0  0  0  0
   58.9220   33.3010   46.5670 C   0  0  0  0  0  0  0  0  0  0  0  0
   59.2830   31.9770   46.2820 C   0  0  0  0  0  0  0  0  0  0  0  0
   58.5100   31.2060   45.4080 C   0  0  0  0  0  0  0  0  0  0  0  0
   57.3720   31.7510   44.7990 C   0  0  0  0  0  0  0  0  0  0  0  0
   56.5590   30.9490   43.9430 N   0  0  0  0  0  0  0  0  0  0  0  0
   56.6630   31.0440   42.7010 O   0  0  0  0  0  0  0  0  0  0  0  0
   55.5120   30.2350   44.4760 O   0  0  0  0  0  0  0  0  0  0  0  0
   57.0120   33.0790   45.0770 C   0  0  0  0  0  0  0  0  0  0  0  0
   57.7560   33.8300   45.9890 C   0  0  0  0  0  0  0  0  0  0  0  0
   59.7340   32.4620   49.4620 C   0  0  0  0  0  0  0  0  0  0  0  0
   58.4830   32.2780   49.4350 O   0  0  0  0  0  0  0  0  0  0  0  0
   60.5820   31.5730   50.2430 N   0  0  0  0  0  0  0  0  0  0  0  0
   59.7980   30.4630   50.8680 C   0  0  0  0  0  0  0  0  0  0  0  0
   60.2340   29.0560   50.4260 C   0  0  0  0  0  0  0  0  0  0  0  0
   60.4560   29.0170   48.9770 N   0  0  0  0  0  0  0  0  0  0  0  0
   60.0270   27.8620   48.2300 C   0  0  0  0  0  0  0  0  0  0  0  0
   60.0380   26.7310   48.7910 O   0  0  0  0  0  0  0  0  0  0  0  0
   59.3830   27.9800   46.9040 C   0  0  0  0  0  0  0  0  0  0  0  0
   57.9860   27.9570   46.7410 C   0  0  0  0  0  0  0  0  0  0  0  0
   57.4290   28.0510   45.4600 C   0  0  0  0  0  0  0  0  0  0  0  0
   58.2530   28.2050   44.3430 C   0  0  0  0  0  0  0  0  0  0  0  0
   59.6370   28.2800   44.5010 C   0  0  0  0  0  0  0  0  0  0  0  0
   60.2000   28.1620   45.7780 C   0  0  0  0  0  0  0  0  0  0  0  0
   61.2640   30.0690   48.3570 C   0  0  0  0  0  0  0  0  0  0  0  0
   61.7140   31.1010   49.4080 C   0  0  0  0  0  0  0  0  0  0  0  0
   59.8306   35.1511   47.3723 H   0  0  0  0  0  0  0  0  0  0  0  0
   60.1792   31.5419   46.7483 H   0  0  0  0  0  0  0  0  0  0  0  0
   58.7972   30.1653   45.1974 H   0  0  0  0  0  0  0  0  0  0  0  0
   56.1423   33.5287   44.5755 H   0  0  0  0  0  0  0  0  0  0  0  0
   57.4264   34.8446   46.2572 H   0  0  0  0  0  0  0  0  0  0  0  0
   61.0060   32.1190   51.0280 H   0  0  0  0  0  0  0  0  0  0  0  0
   59.9122   30.5324   51.9599 H   0  0  0  0  0  0  0  0  0  0  0  0
   58.7557   30.5885   50.5394 H   0  0  0  0  0  0  0  0  0  0  0  0
   61.1675   28.7877   50.9423 H   0  0  0  0  0  0  0  0  0  0  0  0
   59.4387   28.3408   50.6828 H   0  0  0  0  0  0  0  0  0  0  0  0
   57.3312   27.8652   47.6201 H   0  0  0  0  0  0  0  0  0  0  0  0
   56.3374   28.0033   45.3327 H   0  0  0  0  0  0  0  0  0  0  0  0
   57.8104   28.2672   43.3379 H   0  0  0  0  0  0  0  0  0  0  0  0
   60.2846   28.4314   43.6248 H   0  0  0  0  0  0  0  0  0  0  0  0
   61.2921   28.2125   45.8992 H   0  0  0  0  0  0  0  0  0  0  0  0
   62.1522   29.6157   47.8928 H   0  0  0  0  0  0  0  0  0  0  0  0
   60.6552   30.5808   47.5971 H   0  0  0  0  0  0  0  0  0  0  0  0
   62.4680   30.6373   50.0611 H   0  0  0  0  0  0  0  0  0  0  0  0
   62.1291   31.9695   48.8757 H   0  0  0  0  0  0  0  0  0  0  0  0
  1  2  3  0
  2  3  1  0
  3  4  2  3
  4  5  1  0
  5  6  2  0
  6  7  1  0
  7  8  2  0
  8  9  1  0
  9 10  2  0
  9 11  1  0
  8 12  1  0
 12 13  2  0
  3 14  1  0
 14 15  2  0
 14 16  1  0
 16 17  1  0
 17 18  1  0
 18 19  1  0
 19 20  1  0
 20 21  2  0
 20 22  1  0
 22 23  2  0
 23 24  1  0
 24 25  2  0
 25 26  1  0
 26 27  2  0
 19 28  1  0
 28 29  1  0
 13  5  1  0
 29 16  1  0
 27 22  1  0
  4 30  1  0
  6 31  1  0
  7 32  1  0
 12 33  1  0
 13 34  1  0
 16 35  1  0
 17 36  1  0
 17 37  1  0
 18 38  1  0
 18 39  1  0
 23 40  1  0
 24 41  1  0
 25 42  1  0
 26 43  1  0
 27 44  1  0
 28 45  1  0
 28 46  1  0
 29 47  1  0
 29 48  1  0
M  CHG  3   9   1  11  -1  16   1
M  END
>  <UniqueID>  (15) 
15

>  <SMILES>  (15) 
N#CC(=Cc1ccc([N+](=O)[O-])cc1)C(=O)[NH+]1CCN(C(=O)c2ccccc2)CC1

>  <Energy>  (15) 
81.58993770652296

>  <Genealogy>  (15) 
N#CC(=Cc1ccc([N+](=O)[O-])cc1)C(=O)[NH+]1CCN(C(=O)c2ccccc2)CC1 (protonated)
N#CC(=Cc1ccc([N+](=O)[O-])cc1)C(=O)[NH+]1CCN(C(=O)c2ccccc2)CC1 (3D coordinates assigned)
N#CC(=Cc1ccc([N+](=O)[O-])cc1)C(=O)[NH+]1CCN(C(=O)c2ccccc2)CC1 (nonaromatic ring conformer: 81.58993770652296 kcal/mol)

>  <smiles>  (15) 
N#CC(=Cc1ccc([N+](=O)[O-])cc1)C(=O)N1CCN(C(=O)c2ccccc2)CC1

>  <score_type>  (15) 
oracle

>  <origin>  (15) 
adg

>  <m_score__min__energy>  (15) 
-6.8499999999999996

>  <m_primary>  (15) 
energy

$$$$
15:0
     RDKit          3D

 45 48  0  0  0  0  0  0  0  0999 V2000
   56.6960   30.6520   44.6970 O   0  0  0  0  0  0  0  0  0  0  0  0
   56.9720   29.6450   45.4050 C   0  0  0  0  0  0  0  0  0  0  0  0
   56.2250   28.4330   45.2580 N   0  0  0  0  0  0  0  0  0  0  0  0
   56.6600   27.1320   45.6760 C   0  0  0  0  0  0  0  0  0  0  0  0
   58.0350   26.8960   45.8140 C   0  0  0  0  0  0  0  0  0  0  0  0
   58.5020   25.6450   46.2250 C   0  0  0  0  0  0  0  0  0  0  0  0
   57.5960   24.6230   46.5200 C   0  0  0  0  0  0  0  0  0  0  0  0
   56.2220   24.8570   46.4190 C   0  0  0  0  0  0  0  0  0  0  0  0
   55.7470   26.1100   46.0130 C   0  0  0  0  0  0  0  0  0  0  0  0
   54.3760   26.3360   45.9840 O   0  0  0  0  0  0  0  0  0  0  0  0
   58.0400   29.6970   46.3610 N   0  0  0  0  0  0  0  0  0  0  0  0
   58.9760   30.7840   46.4710 C   0  0  0  0  0  0  0  0  0  0  0  0
   58.6950   32.0530   45.9320 C   0  0  0  0  0  0  0  0  0  0  0  0
   59.6310   33.0860   46.0350 C   0  0  0  0  0  0  0  0  0  0  0  0
   60.8580   32.8620   46.6680 C   0  0  0  0  0  0  0  0  0  0  0  0
   62.0520   34.1920   46.8100 S   0  0  0  0  0  0  0  0  0  0  0  0
   62.4990   33.7290   48.4800 C   0  0  0  0  0  0  0  0  0  0  0  0
   63.7760   33.2380   48.7590 C   0  0  0  0  0  0  0  0  0  0  0  0
   64.0860   32.9010   50.0770 C   0  0  0  0  0  0  0  0  0  0  0  0
   65.3810   32.4040   50.4100 N   0  0  0  0  0  0  0  0  0  0  0  0
   66.7890   32.7880   50.1990 C   0  0  0  0  0  0  0  0  0  0  0  0
   67.3800   31.6320   50.9370 C   0  0  0  0  0  0  0  0  0  0  0  0
   65.9490   31.2580   51.1420 C   0  0  0  0  0  0  0  0  0  0  0  0
   63.1490   33.0510   51.0500 N   0  0  0  0  0  0  0  0  0  0  0  0
   61.9100   33.5260   50.7610 C   0  0  0  0  0  0  0  0  0  0  0  0
   61.5910   33.8620   49.4840 N   0  0  0  0  0  0  0  0  0  0  0  0
   61.1550   31.5950   47.1810 C   0  0  0  0  0  0  0  0  0  0  0  0
   60.2210   30.5600   47.0780 C   0  0  0  0  0  0  0  0  0  0  0  0
   58.7516   27.7019   45.5971 H   0  0  0  0  0  0  0  0  0  0  0  0
   59.5832   25.4646   46.3164 H   0  0  0  0  0  0  0  0  0  0  0  0
   57.9642   23.6344   46.8317 H   0  0  0  0  0  0  0  0  0  0  0  0
   55.5105   24.0533   46.6595 H   0  0  0  0  0  0  0  0  0  0  0  0
   58.0760   28.9400   47.0800 H   0  0  0  0  0  0  0  0  0  0  0  0
   57.7343   32.2330   45.4273 H   0  0  0  0  0  0  0  0  0  0  0  0
   59.4021   34.0775   45.6172 H   0  0  0  0  0  0  0  0  0  0  0  0
   64.5206   33.1196   47.9580 H   0  0  0  0  0  0  0  0  0  0  0  0
   67.0707   32.8019   49.1358 H   0  0  0  0  0  0  0  0  0  0  0  0
   67.0878   33.7956   50.5237 H   0  0  0  0  0  0  0  0  0  0  0  0
   67.9710   30.9321   50.3280 H   0  0  0  0  0  0  0  0  0  0  0  0
   68.1114   31.7329   51.7524 H   0  0  0  0  0  0  0  0  0  0  0  0
   65.6928   30.2918   50.6828 H   0  0  0  0  0  0  0  0  0  0  0  0
   65.6136   31.1103   52.1792 H   0  0  0  0  0  0  0  0  0  0  0  0
   61.1641   33.6388   51.5616 H   0  0  0  0  0  0  0  0  0  0  0  0
   62.1252   31.4128   47.6663 H   0  0  0  0  0  0  0  0  0  0  0  0
   60.4637   29.5634   47.4754 H   0  0  0  0  0  0  0  0  0  0  0  0
  1  2  2  0
  2  3  1  0
  3  4  1  0
  4  5  2  0
  5  6  1  0
  6  7  2  0
  7  8  1  0
  8  9  2  0
  9 10  1  0
  2 11  1  0
 11 12  1  0
 12 13  2  0
 13 14  1  0
 14 15  2  0
 15 16  1  0
 16 17  1  0
 17 18  2  0
 18 19  1  0
 19 20  1  0
 20 21  1  0
 21 22  1  0
 22 23  1  0
 19 24  2  0
 24 25  1  0
 25 26  2  0
 15 27  1  0
 27 28  2  0
  9  4  1  0
 28 12  1  0
 26 17  1  0
 23 20  1  0
  5 29  1  0
  6 30  1  0
  7 31  1  0
  8 32  1  0
 11 33  1  0
 13 34  1  0
 14 35  1  0
 18 36  1  0
 21 37  1  0
 21 38  1  0
 22 39  1  0
 22 40  1  0
 23 41  1  0
 23 42  1  0
 25 43  1  0
 27 44  1  0
 28 45  1  0
M  CHG  2   3  -1  10  -1
M  END
>  <UniqueID>  (16) 
16

>  <SMILES>  (16) 
O=C([N-]c1ccccc1[O-])Nc1ccc(Sc2cc(N3CCC3)ncn2)cc1

>  <Energy>  (16) 
96.7226055884504

>  <Genealogy>  (16) 
O=C([N-]c1ccccc1[O-])Nc1ccc(Sc2cc(N3CCC3)ncn2)cc1 (protonated)
O=C([N-]c1ccccc1[O-])Nc1ccc(Sc2cc(N3CCC3)ncn2)cc1 (3D coordinates assigned)
O=C([N-]c1ccccc1[O-])Nc1ccc(Sc2cc(N3CCC3)ncn2)cc1 (nonaromatic ring conformer: 96.7226055884504 kcal/mol)

>  <smiles>  (16) 
O=C(Nc1ccc(Sc2cc(N3CCC3)ncn2)cc1)Nc1ccccc1O

>  <score_type>  (16) 
oracle

>  <origin>  (16) 
adg

>  <m_score__min__energy>  (16) 
-14.199999999999999

>  <m_primary>  (16) 
energy

$$$$
16:0
     RDKit          3D

 39 41  0  0  0  0  0  0  0  0999 V2000
   59.9000   27.5270   46.1960 C   0  0  0  0  0  0  0  0  0  0  0  0
   59.0050   28.2230   45.4730 C   0  0  0  0  0  0  0  0  0  0  0  0
   57.9600   27.6800   44.7130 C   0  0  0  0  0  0  0  0  0  0  0  0
   57.6690   26.3700   44.5500 C   0  0  0  0  0  0  0  0  0  0  0  0
   57.0950   25.4790   45.5820 C   0  0  0  0  0  0  0  0  0  0  0  0
   57.6810   24.3820   46.0940 N   0  0  0  0  0  0  0  0  0  0  0  0
   56.7970   23.9520   47.0200 C   0  0  0  0  0  0  0  0  0  0  0  0
   56.9940   22.9250   47.7200 O   0  0  0  0  0  0  0  0  0  0  0  0
   55.6890   24.7120   47.1390 N   0  0  0  0  0  0  0  0  0  0  0  0
   55.8950   25.6760   46.2270 C   0  0  0  0  0  0  0  0  0  0  0  0
   55.0050   26.7150   45.9890 O   0  0  0  0  0  0  0  0  0  0  0  0
   57.2610   28.7630   44.1960 C   0  0  0  0  0  0  0  0  0  0  0  0
   57.8910   29.9050   44.6480 C   0  0  0  0  0  0  0  0  0  0  0  0
   57.3890   31.2720   44.3830 C   0  0  0  0  0  0  0  0  0  0  0  0
   57.0250   31.5770   43.2160 O   0  0  0  0  0  0  0  0  0  0  0  0
   57.2150   32.2010   45.4600 N   0  0  0  0  0  0  0  0  0  0  0  0
   58.0600   33.3190   45.7810 C   0  0  0  0  0  0  0  0  0  0  0  0
   58.4460   34.2520   44.8010 C   0  0  0  0  0  0  0  0  0  0  0  0
   59.2840   35.3200   45.1330 C   0  0  0  0  0  0  0  0  0  0  0  0
   59.7540   35.4620   46.4380 C   0  0  0  0  0  0  0  0  0  0  0  0
   59.3990   34.5290   47.4140 C   0  0  0  0  0  0  0  0  0  0  0  0
   58.5610   33.4480   47.0930 C   0  0  0  0  0  0  0  0  0  0  0  0
   58.1910   32.4450   48.1520 C   0  0  0  0  0  0  0  0  0  0  0  0
   58.9750   29.5810   45.3970 N   0  0  0  0  0  0  0  0  0  0  0  0
   59.9210   30.5240   46.0060 C   0  0  0  0  0  0  0  0  0  0  0  0
   60.6835   28.0561   46.7583 H   0  0  0  0  0  0  0  0  0  0  0  0
   59.8486   26.4286   46.2252 H   0  0  0  0  0  0  0  0  0  0  0  0
   57.8771   25.9282   43.5644 H   0  0  0  0  0  0  0  0  0  0  0  0
   56.3729   28.7190   43.5485 H   0  0  0  0  0  0  0  0  0  0  0  0
   58.0861   34.1401   43.7676 H   0  0  0  0  0  0  0  0  0  0  0  0
   59.5735   36.0503   44.3630 H   0  0  0  0  0  0  0  0  0  0  0  0
   60.4049   36.3096   46.6987 H   0  0  0  0  0  0  0  0  0  0  0  0
   59.7777   34.6409   48.4407 H   0  0  0  0  0  0  0  0  0  0  0  0
   58.3534   32.8854   49.1468 H   0  0  0  0  0  0  0  0  0  0  0  0
   57.1319   32.1691   48.0416 H   0  0  0  0  0  0  0  0  0  0  0  0
   58.8172   31.5474   48.0416 H   0  0  0  0  0  0  0  0  0  0  0  0
   59.8526   30.4558   47.1017 H   0  0  0  0  0  0  0  0  0  0  0  0
   60.9437   30.2753   45.6863 H   0  0  0  0  0  0  0  0  0  0  0  0
   59.6756   31.5475   45.6863 H   0  0  0  0  0  0  0  0  0  0  0  0
  1  2  2  0
  2  3  1  0
  3  4  2  3
  4  5  1  0
  5  6  1  0
  6  7  1  0
  7  8  2  0
  7  9  1  0
  9 10  1  0
 10 11  1  0
  3 12  1  0
 12 13  2  0
 13 14  1  0
 14 15  2  0
 14 16  1  0
 16 17  1  0
 17 18  2  0
 18 19  1  0
 19 20  2  0
 20 21  1  0
 21 22  2  0
 22 23  1  0
 13 24  1  0
 24 25  1  0
 24  2  1  0
 10  5  2  0
 22 17  1  0
  1 26  1  0
  1 27  1  0
  4 28  1  0
 12 29  1  0
 18 30  1  0
 19 31  1  0
 20 32  1  0
 21 33  1  0
 23 34  1  0
 23 35  1  0
 23 36  1  0
 25 37  1  0
 25 38  1  0
 25 39  1  0
M  CHG  4   6  -1   9  -1  11  -1  16  -1
M  END
>  <UniqueID>  (17) 
17

>  <SMILES>  (17) 
C=c1c(=Cc2[n-]c(=O)[n-]c2[O-])cc(C(=O)[N-]c2ccccc2C)n1C

>  <Energy>  (17) 
110.30268366910379

>  <Genealogy>  (17) 
C=c1c(=Cc2[n-]c(=O)[n-]c2[O-])cc(C(=O)[N-]c2ccccc2C)n1C (protonated)
C=c1c(=Cc2[n-]c(=O)[n-]c2[O-])cc(C(=O)[N-]c2ccccc2C)n1C (3D coordinates assigned)
C=c1c(=Cc2[n-]c(=O)[n-]c2[O-])cc(C(=O)[N-]c2ccccc2C)n1C (optimized conformer: 110.30268366910379 kcal/mol)

>  <smiles>  (17) 
C=c1c(=Cc2[nH]c(=O)[nH]c2O)cc(C(=O)Nc2ccccc2C)n1C

>  <score_type>  (17) 
oracle

>  <origin>  (17) 
adg

>  <m_score__min__energy>  (17) 
-17.609999999999999

>  <m_primary>  (17) 
energy

$$$$
17:0
     RDKit          3D

 36 38  0  0  0  0  0  0  0  0999 V2000
   57.9030   34.3820   44.8690 C   0  0  0  0  0  0  0  0  0  0  0  0
   57.9050   32.9600   44.5530 N   0  0  0  0  0  0  0  0  0  0  0  0
   57.9560   31.9570   45.4490 C   0  0  0  0  0  0  0  0  0  0  0  0
   57.8600   30.7690   44.7530 C   0  0  0  0  0  0  0  0  0  0  0  0
   57.7980   29.4490   45.3300 N   0  0  0  0  0  0  0  0  0  0  0  0
   58.9240   28.9340   45.8280 N   0  0  0  0  0  0  0  0  0  0  0  0
   58.9600   27.7040   46.3980 C   0  0  0  0  0  0  0  0  0  0  0  0
   57.8240   26.9540   46.4810 N   0  0  0  0  0  0  0  0  0  0  0  0
   57.8870   25.6130   47.0790 C   0  0  0  0  0  0  0  0  0  0  0  0
   58.7910   24.7330   46.2740 C   0  0  0  0  0  0  0  0  0  0  0  0
   59.8710   25.2020   45.8210 O   0  0  0  0  0  0  0  0  0  0  0  0
   58.4290   23.3570   46.0730 N   0  0  0  0  0  0  0  0  0  0  0  0
   57.8570   22.8460   45.0210 C   0  0  0  0  0  0  0  0  0  0  0  0
   58.1250   21.5180   44.6680 C   0  0  0  0  0  0  0  0  0  0  0  0
   57.5290   20.9810   43.5680 N   0  0  0  0  0  0  0  0  0  0  0  0
   56.6760   21.7140   42.8040 C   0  0  0  0  0  0  0  0  0  0  0  0
   56.4060   23.0370   43.1520 C   0  0  0  0  0  0  0  0  0  0  0  0
   57.0010   23.5730   44.2500 N   0  0  0  0  0  0  0  0  0  0  0  0
   56.6610   27.4420   45.9500 C   0  0  0  0  0  0  0  0  0  0  0  0
   55.6030   26.7530   45.9790 O   0  0  0  0  0  0  0  0  0  0  0  0
   56.6440   28.7110   45.3600 C   0  0  0  0  0  0  0  0  0  0  0  0
   55.5780   29.1450   44.8430 O   0  0  0  0  0  0  0  0  0  0  0  0
   57.7150   31.1300   43.4220 C   0  0  0  0  0  0  0  0  0  0  0  0
   57.7420   32.4750   43.3320 N   0  0  0  0  0  0  0  0  0  0  0  0
   57.9028   34.5150   45.9609 H   0  0  0  0  0  0  0  0  0  0  0  0
   58.8005   34.8537   44.4423 H   0  0  0  0  0  0  0  0  0  0  0  0
   57.0042   34.8512   44.4423 H   0  0  0  0  0  0  0  0  0  0  0  0
   58.0561   32.0646   46.5391 H   0  0  0  0  0  0  0  0  0  0  0  0
   59.9076   27.3104   46.7943 H   0  0  0  0  0  0  0  0  0  0  0  0
   58.2742   25.6903   48.1057 H   0  0  0  0  0  0  0  0  0  0  0  0
   56.8774   25.1766   47.0916 H   0  0  0  0  0  0  0  0  0  0  0  0
   58.8130   20.9120   45.2758 H   0  0  0  0  0  0  0  0  0  0  0  0
   57.7310   19.9890   43.3070 H   0  0  0  0  0  0  0  0  0  0  0  0
   56.2023   21.2666   41.9178 H   0  0  0  0  0  0  0  0  0  0  0  0
   55.7175   23.6415   42.5432 H   0  0  0  0  0  0  0  0  0  0  0  0
   57.5973   30.4337   42.5786 H   0  0  0  0  0  0  0  0  0  0  0  0
  1  2  1  0
  2  3  1  0
  3  4  2  0
  4  5  1  0
  5  6  1  0
  6  7  2  0
  7  8  1  0
  8  9  1  0
  9 10  1  0
 10 11  2  0
 10 12  1  0
 12 13  2  3
 13 14  1  0
 14 15  2  0
 15 16  1  0
 16 17  2  0
 17 18  1  0
  8 19  1  0
 19 20  2  0
 19 21  1  0
 21 22  2  0
  4 23  1  0
 23 24  2  0
 24  2  1  0
 21  5  1  0
 18 13  1  0
  1 25  1  0
  1 26  1  0
  1 27  1  0
  3 28  1  0
  7 29  1  0
  9 30  1  0
  9 31  1  0
 14 32  1  0
 15 33  1  0
 16 34  1  0
 17 35  1  0
 23 36  1  0
M  CHG  2  15   1  18  -1
M  END
>  <UniqueID>  (18) 
18

>  <SMILES>  (18) 
Cn1cc(-n2ncn(CC(=O)N=c3c[nH+]cc[n-]3)c(=O)c2=O)cn1

>  <Energy>  (18) 
79.1238748028352

>  <Genealogy>  (18) 
Cn1cc(-n2ncn(CC(=O)N=c3c[nH+]cc[n-]3)c(=O)c2=O)cn1 (protonated)
Cn1cc(-n2ncn(CC(=O)N=c3c[nH+]cc[n-]3)c(=O)c2=O)cn1 (3D coordinates assigned)
Cn1cc(-n2ncn(CC(=O)N=c3c[nH+]cc[n-]3)c(=O)c2=O)cn1 (optimized conformer: 79.1238748028352 kcal/mol)

>  <smiles>  (18) 
Cn1cc(-n2ncn(CC(=O)N=c3cncc[nH]3)c(=O)c2=O)cn1

>  <score_type>  (18) 
oracle

>  <origin>  (18) 
adg

>  <m_score__min__energy>  (18) 
-7.2000000000000002

>  <m_primary>  (18) 
energy

$$$$
18:0
     RDKit          3D

 50 53  0  0  0  0  0  0  0  0999 V2000
   55.3840   27.5730   54.1890 C   0  0  0  0  0  0  0  0  0  0  0  0
   55.2480   28.6210   53.3720 C   0  0  0  0  0  0  0  0  0  0  0  0
   54.0040   28.9400   52.9210 N   0  0  0  0  0  0  0  0  0  0  0  0
   53.7630   29.9950   52.0960 C   0  0  0  0  0  0  0  0  0  0  0  0
   52.5180   30.2610   51.6660 C   0  0  0  0  0  0  0  0  0  0  0  0
   51.6540   31.3310   52.2080 C   0  0  0  0  0  0  0  0  0  0  0  0
   51.3090   31.3980   53.5060 N   0  0  0  0  0  0  0  0  0  0  0  0
   50.4810   32.4630   53.5600 C   0  0  0  0  0  0  0  0  0  0  0  0
   49.9490   32.8560   54.6300 O   0  0  0  0  0  0  0  0  0  0  0  0
   50.2570   33.0670   52.3740 N   0  0  0  0  0  0  0  0  0  0  0  0
   50.9960   32.3350   51.5240 C   0  0  0  0  0  0  0  0  0  0  0  0
   51.0180   32.5510   50.1520 O   0  0  0  0  0  0  0  0  0  0  0  0
   54.8420   30.7840   51.6650 C   0  0  0  0  0  0  0  0  0  0  0  0
   56.1420   30.4960   52.1060 C   0  0  0  0  0  0  0  0  0  0  0  0
   57.2830   31.3240   51.6450 C   0  0  0  0  0  0  0  0  0  0  0  0
   57.0410   32.3330   50.9270 O   0  0  0  0  0  0  0  0  0  0  0  0
   58.6530   30.9520   51.9560 N   0  0  0  0  0  0  0  0  0  0  0  0
   59.4110   30.5780   50.7430 C   0  0  0  0  0  0  0  0  0  0  0  0
   59.8240   31.7850   49.8930 C   0  0  0  0  0  0  0  0  0  0  0  0
   60.4790   32.7960   50.7300 N   0  0  0  0  0  0  0  0  0  0  0  0
   61.5820   33.5840   50.2300 C   0  0  0  0  0  0  0  0  0  0  0  0
   62.3530   34.1560   51.0490 O   0  0  0  0  0  0  0  0  0  0  0  0
   61.8780   33.6830   48.7470 C   0  0  0  0  0  0  0  0  0  0  0  0
   62.2030   32.3370   48.0970 C   0  0  0  0  0  0  0  0  0  0  0  0
   60.9950   32.4810   47.1820 C   0  0  0  0  0  0  0  0  0  0  0  0
   60.6480   33.8080   47.8420 C   0  0  0  0  0  0  0  0  0  0  0  0
   59.8000   33.2010   51.9660 C   0  0  0  0  0  0  0  0  0  0  0  0
   59.3530   31.9710   52.7720 C   0  0  0  0  0  0  0  0  0  0  0  0
   56.3490   29.4030   52.9700 C   0  0  0  0  0  0  0  0  0  0  0  0
   57.5130   29.1400   53.3880 O   0  0  0  0  0  0  0  0  0  0  0  0
   56.3792   27.2955   54.5667 H   0  0  0  0  0  0  0  0  0  0  0  0
   54.5008   26.9874   54.4841 H   0  0  0  0  0  0  0  0  0  0  0  0
   52.1135   29.6390   50.8539 H   0  0  0  0  0  0  0  0  0  0  0  0
   54.6676   31.6280   50.9814 H   0  0  0  0  0  0  0  0  0  0  0  0
   58.6250   30.0840   52.5410 H   0  0  0  0  0  0  0  0  0  0  0  0
   60.3196   30.0397   51.0506 H   0  0  0  0  0  0  0  0  0  0  0  0
   58.7502   29.9532   50.1242 H   0  0  0  0  0  0  0  0  0  0  0  0
   60.5217   31.4553   49.1091 H   0  0  0  0  0  0  0  0  0  0  0  0
   58.9255   32.2256   49.4363 H   0  0  0  0  0  0  0  0  0  0  0  0
   62.6178   34.4963   48.7819 H   0  0  0  0  0  0  0  0  0  0  0  0
   63.1667   32.3162   47.5671 H   0  0  0  0  0  0  0  0  0  0  0  0
   62.3254   31.4366   48.7169 H   0  0  0  0  0  0  0  0  0  0  0  0
   61.2481   32.5636   46.1147 H   0  0  0  0  0  0  0  0  0  0  0  0
   60.2455   31.6782   47.1213 H   0  0  0  0  0  0  0  0  0  0  0  0
   60.6789   34.6701   47.1595 H   0  0  0  0  0  0  0  0  0  0  0  0
   59.6509   33.9677   48.2783 H   0  0  0  0  0  0  0  0  0  0  0  0
   60.4907   33.8008   52.5769 H   0  0  0  0  0  0  0  0  0  0  0  0
   58.9104   33.7916   51.7020 H   0  0  0  0  0  0  0  0  0  0  0  0
   60.2435   31.5063   53.2204 H   0  0  0  0  0  0  0  0  0  0  0  0
   58.6392   32.3236   53.5311 H   0  0  0  0  0  0  0  0  0  0  0  0
  1  2  2  0
  2  3  1  0
  3  4  1  0
  4  5  2  3
  5  6  1  0
  6  7  1  0
  7  8  1  0
  8  9  2  0
  8 10  1  0
 10 11  1  0
 11 12  1  0
  4 13  1  0
 13 14  2  0
 14 15  1  0
 15 16  2  0
 15 17  1  0
 17 18  1  0
 18 19  1  0
 19 20  1  0
 20 21  1  0
 21 22  2  0
 21 23  1  0
 23 24  1  0
 24 25  1  0
 25 26  1  0
 20 27  1  0
 27 28  1  0
 14 29  1  0
 29 30  2  0
 29  2  1  0
 11  6  2  0
 28 17  1  0
 26 23  1  0
  1 31  1  0
  1 32  1  0
  5 33  1  0
 13 34  1  0
 17 35  1  0
 18 36  1  0
 18 37  1  0
 19 38  1  0
 19 39  1  0
 23 40  1  0
 24 41  1  0
 24 42  1  0
 25 43  1  0
 25 44  1  0
 26 45  1  0
 26 46  1  0
 27 47  1  0
 27 48  1  0
 28 49  1  0
 28 50  1  0
M  CHG  5   3  -1   7  -1  10  -1  12  -1  17   1
M  END
>  <UniqueID>  (19) 
19

>  <SMILES>  (19) 
C=c1[n-]c(=Cc2[n-]c(=O)[n-]c2[O-])cc(C(=O)[NH+]2CCN(C(=O)C3CCC3)CC2)c1=O

>  <Energy>  (19) 
161.8914780473021

>  <Genealogy>  (19) 
C=c1[n-]c(=Cc2[n-]c(=O)[n-]c2[O-])cc(C(=O)[NH+]2CCN(C(=O)C3CCC3)CC2)c1=O (protonated)
C=c1[n-]c(=Cc2[n-]c(=O)[n-]c2[O-])cc(C(=O)[NH+]2CCN(C(=O)C3CCC3)CC2)c1=O (3D coordinates assigned)
C=c1[n-]c(=Cc2[n-]c(=O)[n-]c2[O-])cc(C(=O)[NH+]2CCN(C(=O)C3CCC3)CC2)c1=O (nonaromatic ring conformer: 161.8914780473021 kcal/mol)

>  <smiles>  (19) 
C=c1[nH]c(=Cc2[nH]c(=O)[nH]c2O)cc(C(=O)N2CCN(C(=O)C3CCC3)CC2)c1=O

>  <score_type>  (19) 
oracle

>  <origin>  (19) 
adg

>  <m_score__min__energy>  (19) 
-17.75

>  <m_primary>  (19) 
energy

$$$$
19:0
     RDKit          3D

 54 57  0  0  0  0  0  0  0  0999 V2000
   54.6510   26.1980   45.9900 N   0  0  0  0  0  0  0  0  0  0  0  0
   56.2410   25.5490   45.7990 S   0  0  0  0  0  0  0  0  0  0  0  0
   56.6330   24.8100   47.0480 O   0  0  0  0  0  0  0  0  0  0  0  0
   56.2530   24.5850   44.6460 O   0  0  0  0  0  0  0  0  0  0  0  0
   57.3770   26.8570   45.4850 C   0  0  0  0  0  0  0  0  0  0  0  0
   58.2120   26.8020   44.3630 C   0  0  0  0  0  0  0  0  0  0  0  0
   59.1030   27.8450   44.0990 C   0  0  0  0  0  0  0  0  0  0  0  0
   59.1670   28.9470   44.9560 C   0  0  0  0  0  0  0  0  0  0  0  0
   58.3430   29.0120   46.0920 C   0  0  0  0  0  0  0  0  0  0  0  0
   58.4150   30.2000   47.0180 C   0  0  0  0  0  0  0  0  0  0  0  0
   59.0340   31.3580   46.3410 N   0  0  0  0  0  0  0  0  0  0  0  0
   60.3500   31.8350   46.7200 C   0  0  0  0  0  0  0  0  0  0  0  0
   61.3790   30.9460   47.0860 C   0  0  0  0  0  0  0  0  0  0  0  0
   62.6260   31.4260   47.4900 C   0  0  0  0  0  0  0  0  0  0  0  0
   62.8830   32.8060   47.5130 C   0  0  0  0  0  0  0  0  0  0  0  0
   64.1200   33.3360   47.9110 O   0  0  0  0  0  0  0  0  0  0  0  0
   64.5630   33.4220   49.2620 C   0  0  0  0  0  0  0  0  0  0  0  0
   63.4610   32.9630   50.1710 C   0  0  0  0  0  0  0  0  0  0  0  0
   62.4190   33.8400   50.5180 C   0  0  0  0  0  0  0  0  0  0  0  0
   61.4140   33.4250   51.3970 C   0  0  0  0  0  0  0  0  0  0  0  0
   61.4500   32.1390   51.9450 C   0  0  0  0  0  0  0  0  0  0  0  0
   62.4940   31.2690   51.6180 C   0  0  0  0  0  0  0  0  0  0  0  0
   63.5010   31.6800   50.7390 C   0  0  0  0  0  0  0  0  0  0  0  0
   61.8810   33.6930   47.1130 C   0  0  0  0  0  0  0  0  0  0  0  0
   60.6180   33.2250   46.7180 C   0  0  0  0  0  0  0  0  0  0  0  0
   59.6110   34.2220   46.1890 C   0  0  0  0  0  0  0  0  0  0  0  0
   58.1880   33.6500   46.0880 C   0  0  1  0  0  0  0  0  0  0  0  0
   57.3910   34.4880   45.2920 O   0  0  0  0  0  0  0  0  0  0  0  0
   58.2350   32.2410   45.4690 C   0  0  2  0  0  0  0  0  0  0  0  0
   56.9420   31.7310   45.2370 O   0  0  0  0  0  0  0  0  0  0  0  0
   57.4360   27.9680   46.3410 C   0  0  0  0  0  0  0  0  0  0  0  0
   54.7510   27.0960   46.5130 H   0  0  0  0  0  0  0  0  0  0  0  0
   58.1665   25.9352   43.6873 H   0  0  0  0  0  0  0  0  0  0  0  0
   59.7556   27.7988   43.2147 H   0  0  0  0  0  0  0  0  0  0  0  0
   59.8664   29.7681   44.7399 H   0  0  0  0  0  0  0  0  0  0  0  0
   57.3976   30.4705   47.3368 H   0  0  0  0  0  0  0  0  0  0  0  0
   59.0310   29.9307   47.8886 H   0  0  0  0  0  0  0  0  0  0  0  0
   61.1982   29.8615   47.0532 H   0  0  0  0  0  0  0  0  0  0  0  0
   63.4122   30.7185   47.7922 H   0  0  0  0  0  0  0  0  0  0  0  0
   65.4462   32.7813   49.4014 H   0  0  0  0  0  0  0  0  0  0  0  0
   64.8291   34.4627   49.4989 H   0  0  0  0  0  0  0  0  0  0  0  0
   62.3941   34.8559   50.0968 H   0  0  0  0  0  0  0  0  0  0  0  0
   60.5943   34.1107   51.6577 H   0  0  0  0  0  0  0  0  0  0  0  0
   60.6568   31.8121   52.6334 H   0  0  0  0  0  0  0  0  0  0  0  0
   62.5235   30.2591   52.0529 H   0  0  0  0  0  0  0  0  0  0  0  0
   64.3265   30.9962   50.4921 H   0  0  0  0  0  0  0  0  0  0  0  0
   62.0846   34.7740   47.1074 H   0  0  0  0  0  0  0  0  0  0  0  0
   59.5915   35.0906   46.8636 H   0  0  0  0  0  0  0  0  0  0  0  0
   59.9260   34.4960   45.1713 H   0  0  0  0  0  0  0  0  0  0  0  0
   57.7539   33.5898   47.0969 H   0  0  0  0  0  0  0  0  0  0  0  0
   56.8130   33.8940   44.7430 H   0  0  0  0  0  0  0  0  0  0  0  0
   58.7193   32.2946   44.4828 H   0  0  0  0  0  0  0  0  0  0  0  0
   56.3190   32.4960   45.1390 H   0  0  0  0  0  0  0  0  0  0  0  0
   56.7675   28.0217   47.2129 H   0  0  0  0  0  0  0  0  0  0  0  0
  1  2  1  0
  2  3  2  0
  2  4  2  0
  2  5  1  0
  5  6  2  0
  6  7  1  0
  7  8  2  0
  8  9  1  0
  9 10  1  0
 10 11  1  0
 11 12  1  0
 12 13  2  0
 13 14  1  0
 14 15  2  0
 15 16  1  0
 16 17  1  0
 17 18  1  0
 18 19  2  0
 19 20  1  0
 20 21  2  0
 21 22  1  0
 22 23  2  0
 15 24  1  0
 24 25  2  0
 25 26  1  0
 26 27  1  0
 27 28  1  0
 27 29  1  0
 29 30  1  0
  9 31  2  0
 31  5  1  0
 29 11  1  0
 25 12  1  0
 23 18  1  0
  1 32  1  0
  6 33  1  0
  7 34  1  0
  8 35  1  0
 10 36  1  0
 10 37  1  0
 13 38  1  0
 14 39  1  0
 17 40  1  0
 17 41  1  0
 19 42  1  0
 20 43  1  0
 21 44  1  0
 22 45  1  0
 23 46  1  0
 24 47  1  0
 26 48  1  0
 26 49  1  0
 27 50  1  1
 28 51  1  0
 29 52  1  6
 30 53  1  0
 31 54  1  0
M  CHG  1   1  -1
M  END
>  <UniqueID>  (20) 
20

>  <SMILES>  (20) 
[NH-]S(=O)(=O)c1cccc(CN2c3ccc(OCc4ccccc4)cc3C[C@@H](O)[C@@H]2O)c1

>  <Energy>  (20) 
62.58232340091309

>  <Genealogy>  (20) 
[NH-]S(=O)(=O)c1cccc(CN2c3ccc(OCc4ccccc4)cc3CC(O)C2O)c1 (protonated)
[NH-]S(=O)(=O)c1cccc(CN2c3ccc(OCc4ccccc4)cc3C[C@@H](O)[C@@H]2O)c1 (chirality)
[NH-]S(=O)(=O)c1cccc(CN2c3ccc(OCc4ccccc4)cc3C[C@@H](O)[C@@H]2O)c1 (3D coordinates assigned)
[NH-]S(=O)(=O)c1cccc(CN2c3ccc(OCc4ccccc4)cc3C[C@@H](O)[C@@H]2O)c1 (nonaromatic ring conformer: 62.58232340091309 kcal/mol)

>  <smiles>  (20) 
NS(=O)(=O)c1cccc(CN2c3ccc(OCc4ccccc4)cc3CC(O)C2O)c1

>  <score_type>  (20) 
oracle

>  <origin>  (20) 
adg

>  <m_score__min__energy>  (20) 
-11.470000000000001

>  <m_primary>  (20) 
energy

$$$$
20:0
     RDKit          3D

 65 68  0  0  0  0  0  0  0  0999 V2000
   57.7820   26.1080   43.5070 C   0  0  0  0  0  0  0  0  0  0  0  0
   58.4980   27.4580   43.5780 C   0  0  0  0  0  0  0  0  0  0  0  0
   58.0960   28.2140   44.7740 N   0  0  0  0  0  0  0  0  0  0  0  0
   58.1210   27.6420   46.0970 C   0  0  0  0  0  0  0  0  0  0  0  0
   57.0330   27.4580   46.7100 O   0  0  0  0  0  0  0  0  0  0  0  0
   59.4080   27.3340   46.8110 C   0  0  0  0  0  0  0  0  0  0  0  0
   59.6210   28.3230   47.9230 C   0  0  0  0  0  0  0  0  0  0  0  0
   60.6970   28.1670   48.8110 C   0  0  0  0  0  0  0  0  0  0  0  0
   60.8950   29.1100   49.8220 C   0  0  0  0  0  0  0  0  0  0  0  0
   60.0310   30.1990   49.9330 C   0  0  0  0  0  0  0  0  0  0  0  0
   58.9790   30.3340   49.0250 C   0  0  0  0  0  0  0  0  0  0  0  0
   58.7970   29.4060   48.0450 N   0  0  0  0  0  0  0  0  0  0  0  0
   57.9740   29.6390   44.6740 C   0  0  0  0  0  0  0  0  0  0  0  0
   58.7130   30.4230   45.5050 N   0  0  0  0  0  0  0  0  0  0  0  0
   58.6680   31.7830   45.4710 C   0  0  0  0  0  0  0  0  0  0  0  0
   59.5320   32.5600   46.3960 C   0  0  0  0  0  0  0  0  0  0  0  0
   59.0540   33.7570   46.9570 C   0  0  0  0  0  0  0  0  0  0  0  0
   59.8430   34.4900   47.8430 C   0  0  0  0  0  0  0  0  0  0  0  0
   61.1200   34.0410   48.1840 C   0  0  0  0  0  0  0  0  0  0  0  0
   61.6150   32.8400   47.6520 C   0  0  0  0  0  0  0  0  0  0  0  0
   62.9790   32.3720   47.9900 C   0  0  0  0  0  0  0  0  0  0  0  0
   63.6610   31.7690   47.1160 O   0  0  0  0  0  0  0  0  0  0  0  0
   63.5430   32.5890   49.2940 N   0  0  0  0  0  0  0  0  0  0  0  0
   62.8020   32.1530   50.4860 C   0  0  0  0  0  0  0  0  0  0  0  0
   63.7120   32.0900   51.7230 C   0  0  0  0  0  0  0  0  0  0  0  0
   65.0740   31.4410   51.4000 C   0  0  0  0  0  0  0  0  0  0  0  0
   64.9320   30.0520   51.2230 O   0  0  0  0  0  0  0  0  0  0  0  0
   65.7900   32.0890   50.1820 C   0  0  0  0  0  0  0  0  0  0  0  0
   64.9140   33.0960   49.4230 C   0  0  0  0  0  0  0  0  0  0  0  0
   60.8150   32.1060   46.7580 C   0  0  0  0  0  0  0  0  0  0  0  0
   57.8070   32.4090   44.5550 C   0  0  0  0  0  0  0  0  0  0  0  0
   57.0400   31.6340   43.6860 C   0  0  0  0  0  0  0  0  0  0  0  0
   57.1100   30.2360   43.7340 C   0  0  0  0  0  0  0  0  0  0  0  0
   56.2810   29.4050   42.7960 C   0  0  0  0  0  0  0  0  0  0  0  0
   57.5878   25.7419   44.5260 H   0  0  0  0  0  0  0  0  0  0  0  0
   56.8282   26.2265   42.9720 H   0  0  0  0  0  0  0  0  0  0  0  0
   58.4151   25.3849   42.9720 H   0  0  0  0  0  0  0  0  0  0  0  0
   59.5840   27.2863   43.6109 H   0  0  0  0  0  0  0  0  0  0  0  0
   58.2234   28.0438   42.6884 H   0  0  0  0  0  0  0  0  0  0  0  0
   59.3595   26.3180   47.2298 H   0  0  0  0  0  0  0  0  0  0  0  0
   60.2440   27.4012   46.0993 H   0  0  0  0  0  0  0  0  0  0  0  0
   61.3784   27.3093   48.7114 H   0  0  0  0  0  0  0  0  0  0  0  0
   61.7300   28.9941   50.5286 H   0  0  0  0  0  0  0  0  0  0  0  0
   60.1769   30.9446   50.7284 H   0  0  0  0  0  0  0  0  0  0  0  0
   58.2953   31.1923   49.1014 H   0  0  0  0  0  0  0  0  0  0  0  0
   58.0050   29.5380   47.3740 H   0  0  0  0  0  0  0  0  0  0  0  0
   58.0488   34.1187   46.6948 H   0  0  0  0  0  0  0  0  0  0  0  0
   59.4576   35.4255   48.2747 H   0  0  0  0  0  0  0  0  0  0  0  0
   61.7416   34.6314   48.8732 H   0  0  0  0  0  0  0  0  0  0  0  0
   61.9851   32.8640   50.6790 H   0  0  0  0  0  0  0  0  0  0  0  0
   62.4065   31.1442   50.2967 H   0  0  0  0  0  0  0  0  0  0  0  0
   63.8832   33.1122   52.0915 H   0  0  0  0  0  0  0  0  0  0  0  0
   63.2116   31.4737   52.4845 H   0  0  0  0  0  0  0  0  0  0  0  0
   65.7230   31.6264   52.2686 H   0  0  0  0  0  0  0  0  0  0  0  0
   65.8090   29.6950   50.9290 H   0  0  0  0  0  0  0  0  0  0  0  0
   66.6882   32.6113   50.5432 H   0  0  0  0  0  0  0  0  0  0  0  0
   66.0339   31.2779   49.4801 H   0  0  0  0  0  0  0  0  0  0  0  0
   64.8976   34.0484   49.9731 H   0  0  0  0  0  0  0  0  0  0  0  0
   65.3340   33.2463   48.4175 H   0  0  0  0  0  0  0  0  0  0  0  0
   61.1966   31.1646   46.3358 H   0  0  0  0  0  0  0  0  0  0  0  0
   57.7380   33.5064   44.5232 H   0  0  0  0  0  0  0  0  0  0  0  0
   56.3759   32.1235   42.9584 H   0  0  0  0  0  0  0  0  0  0  0  0
   55.6214   28.7439   43.3773 H   0  0  0  0  0  0  0  0  0  0  0  0
   55.6715   30.0657   42.1620 H   0  0  0  0  0  0  0  0  0  0  0  0
   56.9432   28.7971   42.1620 H   0  0  0  0  0  0  0  0  0  0  0  0
  1  2  1  0
  2  3  1  0
  3  4  1  0
  4  5  2  0
  4  6  1  0
  6  7  1  0
  7  8  2  0
  8  9  1  0
  9 10  2  0
 10 11  1  0
 11 12  2  0
  3 13  1  0
 13 14  2  0
 14 15  1  0
 15 16  1  0
 16 17  2  0
 17 18  1  0
 18 19  2  0
 19 20  1  0
 20 21  1  0
 21 22  2  0
 21 23  1  0
 23 24  1  0
 24 25  1  0
 25 26  1  0
 26 27  1  0
 26 28  1  0
 28 29  1  0
 20 30  2  0
 15 31  2  0
 31 32  1  0
 32 33  2  0
 33 34  1  0
 12  7  1  0
 33 13  1  0
 30 16  1  0
 29 23  1  0
  1 35  1  0
  1 36  1  0
  1 37  1  0
  2 38  1  0
  2 39  1  0
  6 40  1  0
  6 41  1  0
  8 42  1  0
  9 43  1  0
 10 44  1  0
 11 45  1  0
 12 46  1  0
 17 47  1  0
 18 48  1  0
 19 49  1  0
 24 50  1  0
 24 51  1  0
 25 52  1  0
 25 53  1  0
 26 54  1  0
 27 55  1  0
 28 56  1  0
 28 57  1  0
 29 58  1  0
 29 59  1  0
 30 60  1  0
 31 61  1  0
 32 62  1  0
 34 63  1  0
 34 64  1  0
 34 65  1  0
M  CHG  1  12   1
M  END
>  <UniqueID>  (21) 
21

>  <SMILES>  (21) 
CCN(C(=O)Cc1cccc[nH+]1)c1nc(-c2cccc(C(=O)N3CCC(O)CC3)c2)ccc1C

>  <Energy>  (21) 
84.14346240209109

>  <Genealogy>  (21) 
CCN(C(=O)Cc1cccc[nH+]1)c1nc(-c2cccc(C(=O)N3CCC(O)CC3)c2)ccc1C (protonated)
CCN(C(=O)Cc1cccc[nH+]1)c1nc(-c2cccc(C(=O)N3CCC(O)CC3)c2)ccc1C (3D coordinates assigned)
CCN(C(=O)Cc1cccc[nH+]1)c1nc(-c2cccc(C(=O)N3CCC(O)CC3)c2)ccc1C (nonaromatic ring conformer: 84.14346240209109 kcal/mol)

>  <smiles>  (21) 
CCN(C(=O)Cc1ccccn1)c1nc(-c2cccc(C(=O)N3CCC(O)CC3)c2)ccc1C

>  <score_type>  (21) 
oracle

>  <origin>  (21) 
adg

>  <m_score__min__energy>  (21) 
-8.9000000000000004

>  <m_primary>  (21) 
energy

$$$$
21:0
     RDKit          3D

 52 54  0  0  0  0  0  0  0  0999 V2000
   57.4090   25.0990   44.0220 C   0  0  0  0  0  0  0  0  0  0  0  0
   57.2960   25.2930   45.3350 C   0  0  0  0  0  0  0  0  0  0  0  0
   56.3870   26.3060   45.9100 C   0  0  0  0  0  0  0  0  0  0  0  0
   55.1550   26.0610   46.0140 O   0  0  0  0  0  0  0  0  0  0  0  0
   56.8620   27.6050   46.2820 N   0  0  0  0  0  0  0  0  0  0  0  0
   57.0470   28.7310   45.4100 C   0  0  0  0  0  0  0  0  0  0  0  0
   55.9480   29.3360   44.7720 C   0  0  0  0  0  0  0  0  0  0  0  0
   56.1360   30.4210   43.9130 C   0  0  0  0  0  0  0  0  0  0  0  0
   57.4220   30.9070   43.6740 C   0  0  0  0  0  0  0  0  0  0  0  0
   58.5230   30.3000   44.2800 C   0  0  0  0  0  0  0  0  0  0  0  0
   58.3490   29.1980   45.1310 C   0  0  0  0  0  0  0  0  0  0  0  0
   59.7680   28.4430   45.8720 S   0  0  0  0  0  0  0  0  0  0  0  0
   59.9750   27.0930   45.2470 O   0  0  0  0  0  0  0  0  0  0  0  0
   60.9960   29.2810   45.6520 O   0  0  0  0  0  0  0  0  0  0  0  0
   59.5300   28.2440   47.5810 N   0  0  0  0  0  0  0  0  0  0  0  0
   59.6360   29.3100   48.5410 C   0  0  0  0  0  0  0  0  0  0  0  0
   59.5650   29.0750   49.9280 C   0  0  0  0  0  0  0  0  0  0  0  0
   59.6850   30.1360   50.8310 C   0  0  0  0  0  0  0  0  0  0  0  0
   59.8750   31.4370   50.3640 C   0  0  0  0  0  0  0  0  0  0  0  0
   59.9480   31.6880   48.9880 C   0  0  0  0  0  0  0  0  0  0  0  0
   60.2080   33.3300   48.3940 S   0  0  0  0  0  0  0  0  0  0  0  0
   61.6840   33.5830   48.2570 O   0  0  0  0  0  0  0  0  0  0  0  0
   59.6600   34.3070   49.3970 O   0  0  0  0  0  0  0  0  0  0  0  0
   59.4280   33.5860   46.8530 N   0  0  0  0  0  0  0  0  0  0  0  0
   57.9810   33.3030   46.9610 C   0  0  0  0  0  0  0  0  0  0  0  0
   57.1930   33.7830   45.7200 C   0  0  0  0  0  0  0  0  0  0  0  0
   58.1200   34.0790   44.5390 C   0  0  0  0  0  0  0  0  0  0  0  0
   59.1930   35.1130   44.9220 C   0  0  0  0  0  0  0  0  0  0  0  0
   59.6610   34.9600   46.3820 C   0  0  0  0  0  0  0  0  0  0  0  0
   59.8240   30.6240   48.0840 C   0  0  0  0  0  0  0  0  0  0  0  0
   58.0984   24.3335   43.6365 H   0  0  0  0  0  0  0  0  0  0  0  0
   56.8129   25.7043   43.3233 H   0  0  0  0  0  0  0  0  0  0  0  0
   57.9014   24.6767   46.0159 H   0  0  0  0  0  0  0  0  0  0  0  0
   54.9332   28.9513   44.9513 H   0  0  0  0  0  0  0  0  0  0  0  0
   55.2703   30.8925   43.4248 H   0  0  0  0  0  0  0  0  0  0  0  0
   57.5682   31.7695   43.0072 H   0  0  0  0  0  0  0  0  0  0  0  0
   59.5343   30.6882   44.0891 H   0  0  0  0  0  0  0  0  0  0  0  0
   59.2680   27.2890   47.9110 H   0  0  0  0  0  0  0  0  0  0  0  0
   59.4144   28.0518   50.3027 H   0  0  0  0  0  0  0  0  0  0  0  0
   59.6294   29.9443   51.9127 H   0  0  0  0  0  0  0  0  0  0  0  0
   59.9677   32.2681   51.0787 H   0  0  0  0  0  0  0  0  0  0  0  0
   57.8404   32.2176   47.0708 H   0  0  0  0  0  0  0  0  0  0  0  0
   57.5964   33.8493   47.8349 H   0  0  0  0  0  0  0  0  0  0  0  0
   56.4801   32.9988   45.4255 H   0  0  0  0  0  0  0  0  0  0  0  0
   56.6693   34.7132   45.9857 H   0  0  0  0  0  0  0  0  0  0  0  0
   58.6143   33.1468   44.2280 H   0  0  0  0  0  0  0  0  0  0  0  0
   57.5168   34.4902   43.7162 H   0  0  0  0  0  0  0  0  0  0  0  0
   60.0603   34.9848   44.2577 H   0  0  0  0  0  0  0  0  0  0  0  0
   58.7482   36.1134   44.8153 H   0  0  0  0  0  0  0  0  0  0  0  0
   60.7355   35.1873   46.4441 H   0  0  0  0  0  0  0  0  0  0  0  0
   59.0907   35.6560   47.0147 H   0  0  0  0  0  0  0  0  0  0  0  0
   59.8746   30.8211   47.0030 H   0  0  0  0  0  0  0  0  0  0  0  0
  1  2  2  0
  2  3  1  0
  3  4  2  0
  3  5  1  0
  5  6  1  0
  6  7  2  0
  7  8  1  0
  8  9  2  0
  9 10  1  0
 10 11  2  0
 11 12  1  0
 12 13  2  0
 12 14  2  0
 12 15  1  0
 15 16  1  0
 16 17  2  0
 17 18  1  0
 18 19  2  0
 19 20  1  0
 20 21  1  0
 21 22  2  0
 21 23  2  0
 21 24  1  0
 24 25  1  0
 25 26  1  0
 26 27  1  0
 27 28  1  0
 28 29  1  0
 20 30  2  0
 11  6  1  0
 30 16  1  0
 29 24  1  0
  1 31  1  0
  1 32  1  0
  2 33  1  0
  7 34  1  0
  8 35  1  0
  9 36  1  0
 10 37  1  0
 15 38  1  0
 17 39  1  0
 18 40  1  0
 19 41  1  0
 25 42  1  0
 25 43  1  0
 26 44  1  0
 26 45  1  0
 27 46  1  0
 27 47  1  0
 28 48  1  0
 28 49  1  0
 29 50  1  0
 29 51  1  0
 30 52  1  0
M  CHG  1   5  -1
M  END
>  <UniqueID>  (22) 
22

>  <SMILES>  (22) 
C=CC(=O)[N-]c1ccccc1S(=O)(=O)Nc1cccc(S(=O)(=O)N2CCCCC2)c1

>  <Energy>  (22) 
62.143526705797704

>  <Genealogy>  (22) 
C=CC(=O)[N-]c1ccccc1S(=O)(=O)Nc1cccc(S(=O)(=O)N2CCCCC2)c1 (protonated)
C=CC(=O)[N-]c1ccccc1S(=O)(=O)Nc1cccc(S(=O)(=O)N2CCCCC2)c1 (3D coordinates assigned)
C=CC(=O)[N-]c1ccccc1S(=O)(=O)Nc1cccc(S(=O)(=O)N2CCCCC2)c1 (nonaromatic ring conformer: 62.143526705797704 kcal/mol)

>  <smiles>  (22) 
C=CC(=O)Nc1ccccc1S(=O)(=O)Nc1cccc(S(=O)(=O)N2CCCCC2)c1

>  <score_type>  (22) 
oracle

>  <origin>  (22) 
adg

>  <m_score__min__energy>  (22) 
-12.81

>  <m_primary>  (22) 
energy

$$$$
22:0
     RDKit          3D

 53 55  0  0  0  0  0  0  0  0999 V2000
   57.0080   28.9570   43.0140 C   0  0  0  0  0  0  0  0  0  0  0  0
   56.7830   29.9110   44.5040 S   0  0  0  0  0  0  0  0  0  0  0  0
   55.4040   30.5090   44.4960 O   0  0  0  0  0  0  0  0  0  0  0  0
   56.9040   28.9960   45.6890 O   0  0  0  0  0  0  0  0  0  0  0  0
   57.9720   31.1870   44.6320 N   0  0  0  0  0  0  0  0  0  0  0  0
   57.4680   32.4220   44.0050 C   0  0  0  0  0  0  0  0  0  0  0  0
   58.5150   33.5320   44.1040 C   0  0  0  0  0  0  0  0  0  0  0  0
   58.9280   33.8220   45.5590 C   0  0  0  0  0  0  0  0  0  0  0  0
   58.3640   32.7900   46.5630 C   0  0  2  0  0  0  0  0  0  0  0  0
   58.9370   32.9700   47.9600 C   0  0  0  0  0  0  0  0  0  0  0  0
   58.2130   32.7030   48.9600 O   0  0  0  0  0  0  0  0  0  0  0  0
   60.2810   33.4630   48.1740 N   0  0  0  0  0  0  0  0  0  0  0  0
   61.3150   33.3040   47.1370 C   0  0  0  0  0  0  0  0  0  0  0  0
   62.7020   33.7220   47.6430 C   0  0  0  0  0  0  0  0  0  0  0  0
   62.9850   33.0950   49.0150 C   0  0  0  0  0  0  0  0  0  0  0  0
   61.8790   33.3870   50.0540 C   0  0  0  0  0  0  0  0  0  0  0  0
   60.6490   34.0810   49.4580 C   0  0  0  0  0  0  0  0  0  0  0  0
   58.4980   31.3290   46.0210 C   0  0  2  0  0  0  0  0  0  0  0  0
   59.9560   30.7950   46.0210 C   0  0  0  0  0  0  0  0  0  0  0  0
   60.0930   29.3760   46.5210 C   0  0  0  0  0  0  0  0  0  0  0  0
   59.9800   29.0900   47.8940 C   0  0  0  0  0  0  0  0  0  0  0  0
   60.0730   27.7720   48.3500 C   0  0  0  0  0  0  0  0  0  0  0  0
   60.2640   26.7270   47.4420 C   0  0  0  0  0  0  0  0  0  0  0  0
   60.3550   26.9980   46.0750 C   0  0  0  0  0  0  0  0  0  0  0  0
   60.2610   28.3150   45.6140 C   0  0  0  0  0  0  0  0  0  0  0  0
   57.2531   27.9176   43.2776 H   0  0  0  0  0  0  0  0  0  0  0  0
   56.0807   28.9763   42.4227 H   0  0  0  0  0  0  0  0  0  0  0  0
   57.8290   29.3887   42.4227 H   0  0  0  0  0  0  0  0  0  0  0  0
   57.2453   32.2265   42.9457 H   0  0  0  0  0  0  0  0  0  0  0  0
   56.5554   32.7428   44.5286 H   0  0  0  0  0  0  0  0  0  0  0  0
   59.4074   33.2273   43.5376 H   0  0  0  0  0  0  0  0  0  0  0  0
   58.0702   34.4500   43.6925 H   0  0  0  0  0  0  0  0  0  0  0  0
   60.0261   33.8080   45.6213 H   0  0  0  0  0  0  0  0  0  0  0  0
   58.5145   34.8048   45.8293 H   0  0  0  0  0  0  0  0  0  0  0  0
   57.2858   32.9834   46.6635 H   0  0  0  0  0  0  0  0  0  0  0  0
   61.3516   32.2483   46.8303 H   0  0  0  0  0  0  0  0  0  0  0  0
   61.0510   33.9542   46.2899 H   0  0  0  0  0  0  0  0  0  0  0  0
   63.4655   33.3849   46.9265 H   0  0  0  0  0  0  0  0  0  0  0  0
   62.7302   34.8174   47.7398 H   0  0  0  0  0  0  0  0  0  0  0  0
   63.0703   32.0053   48.8912 H   0  0  0  0  0  0  0  0  0  0  0  0
   63.9169   33.5404   49.3935 H   0  0  0  0  0  0  0  0  0  0  0  0
   61.5592   32.4335   50.4996 H   0  0  0  0  0  0  0  0  0  0  0  0
   62.3080   34.0724   50.7997 H   0  0  0  0  0  0  0  0  0  0  0  0
   59.8062   33.9890   50.1589 H   0  0  0  0  0  0  0  0  0  0  0  0
   60.8861   35.1416   49.2877 H   0  0  0  0  0  0  0  0  0  0  0  0
   57.8960   30.7339   46.7235 H   0  0  0  0  0  0  0  0  0  0  0  0
   60.3392   30.8368   44.9908 H   0  0  0  0  0  0  0  0  0  0  0  0
   60.5271   31.4317   46.7128 H   0  0  0  0  0  0  0  0  0  0  0  0
   59.8177   29.9075   48.6119 H   0  0  0  0  0  0  0  0  0  0  0  0
   59.9957   27.5568   49.4260 H   0  0  0  0  0  0  0  0  0  0  0  0
   60.3426   25.6912   47.8039 H   0  0  0  0  0  0  0  0  0  0  0  0
   60.5008   26.1747   45.3602 H   0  0  0  0  0  0  0  0  0  0  0  0
   60.3189   28.5220   44.5352 H   0  0  0  0  0  0  0  0  0  0  0  0
  1  2  1  0
  2  3  2  0
  2  4  2  0
  2  5  1  0
  5  6  1  0
  6  7  1  0
  7  8  1  0
  8  9  1  0
  9 10  1  0
 10 11  2  0
 10 12  1  0
 12 13  1  0
 13 14  1  0
 14 15  1  0
 15 16  1  0
 16 17  1  0
  9 18  1  0
 18 19  1  0
 19 20  1  0
 20 21  2  0
 21 22  1  0
 22 23  2  0
 23 24  1  0
 24 25  2  0
 18  5  1  0
 25 20  1  0
 17 12  1  0
  1 26  1  0
  1 27  1  0
  1 28  1  0
  6 29  1  0
  6 30  1  0
  7 31  1  0
  7 32  1  0
  8 33  1  0
  8 34  1  0
  9 35  1  1
 13 36  1  0
 13 37  1  0
 14 38  1  0
 14 39  1  0
 15 40  1  0
 15 41  1  0
 16 42  1  0
 16 43  1  0
 17 44  1  0
 17 45  1  0
 18 46  1  1
 19 47  1  0
 19 48  1  0
 21 49  1  0
 22 50  1  0
 23 51  1  0
 24 52  1  0
 25 53  1  0
M  END
>  <UniqueID>  (23) 
23

>  <SMILES>  (23) 
CS(=O)(=O)N1CCC[C@H](C(=O)N2CCCCC2)[C@@H]1Cc1ccccc1

>  <Energy>  (23) 
56.83346672115101

>  <Genealogy>  (23) 
CS(=O)(=O)N1CCC[C@H](C(=O)N2CCCCC2)[C@@H]1Cc1ccccc1 (chirality)
CS(=O)(=O)N1CCC[C@H](C(=O)N2CCCCC2)[C@@H]1Cc1ccccc1 (3D coordinates assigned)
CS(=O)(=O)N1CCC[C@H](C(=O)N2CCCCC2)[C@@H]1Cc1ccccc1 (nonaromatic ring conformer: 56.83346672115101 kcal/mol)

>  <smiles>  (23) 
CS(=O)(=O)N1CCCC(C(=O)N2CCCCC2)C1Cc1ccccc1

>  <score_type>  (23) 
oracle

>  <origin>  (23) 
adg

>  <m_score__min__energy>  (23) 
-9.0800000000000001

>  <m_primary>  (23) 
energy

$$$$
23:0
     RDKit          3D

 74 77  0  0  0  0  0  0  0  0999 V2000
   57.7970   30.8140   45.9660 C   0  0  0  0  0  0  0  0  0  0  0  0
   57.6910   29.7420   45.1680 C   0  0  0  0  0  0  0  0  0  0  0  0
   57.4480   29.8240   43.8360 N   0  0  0  0  0  0  0  0  0  0  0  0
   57.2210   31.0250   43.0320 C   0  0  0  0  0  0  0  0  0  0  0  0
   57.4080   28.5480   43.4110 C   0  0  0  0  0  0  0  0  0  0  0  0
   57.1610   28.2140   42.2180 O   0  0  0  0  0  0  0  0  0  0  0  0
   57.6450   27.6900   44.4730 C   0  0  0  0  0  0  0  0  0  0  0  0
   57.6670   26.3420   44.4410 C   0  0  0  0  0  0  0  0  0  0  0  0
   57.1290   25.4890   45.5110 C   0  0  0  0  0  0  0  0  0  0  0  0
   55.9270   25.6520   46.1660 C   0  0  0  0  0  0  0  0  0  0  0  0
   55.0440   26.7100   45.9830 O   0  0  0  0  0  0  0  0  0  0  0  0
   55.7020   24.6270   47.0110 N   0  0  0  0  0  0  0  0  0  0  0  0
   56.7930   23.8480   46.8380 C   0  0  0  0  0  0  0  0  0  0  0  0
   56.9730   22.7750   47.4720 O   0  0  0  0  0  0  0  0  0  0  0  0
   57.6670   24.3260   45.9220 N   0  0  0  0  0  0  0  0  0  0  0  0
   58.9950   23.7950   45.6100 C   0  0  0  0  0  0  0  0  0  0  0  0
   58.8910   22.2980   45.2890 C   0  0  0  0  0  0  0  0  0  0  0  0
   58.5220   22.0310   43.8160 C   0  0  0  0  0  0  0  0  0  0  0  0
   57.0790   21.7340   43.6590 N   0  0  0  0  0  0  0  0  0  0  0  0
   56.5170   21.1380   44.8870 C   0  0  0  0  0  0  0  0  0  0  0  0
   56.3450   22.9680   43.3230 C   0  0  0  0  0  0  0  0  0  0  0  0
   57.8140   28.4510   45.5890 N   0  0  0  0  0  0  0  0  0  0  0  0
   58.1750   27.9980   46.9460 C   0  0  0  0  0  0  0  0  0  0  0  0
   59.2270   28.9060   47.5340 C   0  0  0  0  0  0  0  0  0  0  0  0
   60.3580   29.2610   46.7810 C   0  0  0  0  0  0  0  0  0  0  0  0
   61.3110   30.1300   47.3110 C   0  0  0  0  0  0  0  0  0  0  0  0
   61.1380   30.6670   48.5880 C   0  0  0  0  0  0  0  0  0  0  0  0
   59.9960   30.3580   49.3370 C   0  0  0  0  0  0  0  0  0  0  0  0
   59.8320   30.9390   50.6350 N   0  0  0  0  0  0  0  0  0  0  0  0
   59.0880   32.1250   50.9440 C   0  0  0  0  0  0  0  0  0  0  0  0
   57.8850   32.0080   51.2880 O   0  0  0  0  0  0  0  0  0  0  0  0
   59.7270   33.4900   51.0050 C   0  0  0  0  0  0  0  0  0  0  0  0
   59.6320   34.2300   49.6650 C   0  0  0  0  0  0  0  0  0  0  0  0
   60.8410   33.9820   48.8000 C   0  0  0  0  0  0  0  0  0  0  0  0
   62.1100   33.8330   49.3840 C   0  0  0  0  0  0  0  0  0  0  0  0
   63.2220   33.5390   48.5930 C   0  0  0  0  0  0  0  0  0  0  0  0
   63.0730   33.3810   47.2090 C   0  0  0  0  0  0  0  0  0  0  0  0
   64.1660   33.0630   46.4110 O   0  0  0  0  0  0  0  0  0  0  0  0
   61.8150   33.5300   46.6170 C   0  0  0  0  0  0  0  0  0  0  0  0
   60.7010   33.8280   47.4080 C   0  0  0  0  0  0  0  0  0  0  0  0
   59.0670   29.4380   48.8260 C   0  0  0  0  0  0  0  0  0  0  0  0
   57.9952   30.6827   47.0400 H   0  0  0  0  0  0  0  0  0  0  0  0
   57.6857   31.8249   45.5468 H   0  0  0  0  0  0  0  0  0  0  0  0
   57.0583   31.8860   43.6969 H   0  0  0  0  0  0  0  0  0  0  0  0
   58.0996   31.2128   42.3973 H   0  0  0  0  0  0  0  0  0  0  0  0
   56.3345   30.8792   42.3973 H   0  0  0  0  0  0  0  0  0  0  0  0
   58.1135   25.8520   43.5632 H   0  0  0  0  0  0  0  0  0  0  0  0
   59.4067   24.3278   44.7401 H   0  0  0  0  0  0  0  0  0  0  0  0
   59.6569   23.9366   46.4771 H   0  0  0  0  0  0  0  0  0  0  0  0
   59.8610   21.8243   45.5005 H   0  0  0  0  0  0  0  0  0  0  0  0
   58.0892   21.8784   45.9143 H   0  0  0  0  0  0  0  0  0  0  0  0
   58.7700   22.9211   43.2192 H   0  0  0  0  0  0  0  0  0  0  0  0
   59.0922   21.1554   43.4724 H   0  0  0  0  0  0  0  0  0  0  0  0
   56.9693   21.6177   45.7675 H   0  0  0  0  0  0  0  0  0  0  0  0
   55.4280   21.2923   44.9043 H   0  0  0  0  0  0  0  0  0  0  0  0
   56.7349   20.0599   44.9043 H   0  0  0  0  0  0  0  0  0  0  0  0
   56.0417   23.4779   44.2493 H   0  0  0  0  0  0  0  0  0  0  0  0
   56.9948   23.6324   42.7345 H   0  0  0  0  0  0  0  0  0  0  0  0
   55.4510   22.7142   42.7345 H   0  0  0  0  0  0  0  0  0  0  0  0
   57.2802   28.0162   47.5855 H   0  0  0  0  0  0  0  0  0  0  0  0
   58.5742   26.9746   46.8892 H   0  0  0  0  0  0  0  0  0  0  0  0
   60.4926   28.8518   45.7689 H   0  0  0  0  0  0  0  0  0  0  0  0
   62.2015   30.3931   46.7213 H   0  0  0  0  0  0  0  0  0  0  0  0
   61.9030   31.3365   49.0081 H   0  0  0  0  0  0  0  0  0  0  0  0
   59.2179   34.0862   51.7766 H   0  0  0  0  0  0  0  0  0  0  0  0
   60.7923   33.3558   51.2439 H   0  0  0  0  0  0  0  0  0  0  0  0
   58.7350   33.8841   49.1304 H   0  0  0  0  0  0  0  0  0  0  0  0
   59.5773   35.3086   49.8739 H   0  0  0  0  0  0  0  0  0  0  0  0
   62.2281   33.9487   50.4715 H   0  0  0  0  0  0  0  0  0  0  0  0
   64.2141   33.4315   49.0558 H   0  0  0  0  0  0  0  0  0  0  0  0
   64.8690   32.3990   46.7150 H   0  0  0  0  0  0  0  0  0  0  0  0
   61.7017   33.4128   45.5291 H   0  0  0  0  0  0  0  0  0  0  0  0
   59.7118   33.9425   46.9407 H   0  0  0  0  0  0  0  0  0  0  0  0
   58.2078   29.1310   49.4405 H   0  0  0  0  0  0  0  0  0  0  0  0
  1  2  2  0
  2  3  1  0
  3  4  1  0
  3  5  1  0
  5  6  2  0
  5  7  1  0
  7  8  2  3
  8  9  1  0
  9 10  2  0
 10 11  1  0
 10 12  1  0
 12 13  1  0
 13 14  2  0
 13 15  1  0
 15 16  1  0
 16 17  1  0
 17 18  1  0
 18 19  1  0
 19 20  1  0
 19 21  1  0
  7 22  1  0
 22 23  1  0
 23 24  1  0
 24 25  2  0
 25 26  1  0
 26 27  2  0
 27 28  1  0
 28 29  1  0
 29 30  1  0
 30 31  2  0
 30 32  1  0
 32 33  1  0
 33 34  1  0
 34 35  2  0
 35 36  1  0
 36 37  2  0
 37 38  1  0
 37 39  1  0
 39 40  2  0
 28 41  2  0
 22  2  1  0
 41 24  1  0
 15  9  1  0
 40 34  1  0
  1 42  1  0
  1 43  1  0
  4 44  1  0
  4 45  1  0
  4 46  1  0
  8 47  1  0
 16 48  1  0
 16 49  1  0
 17 50  1  0
 17 51  1  0
 18 52  1  0
 18 53  1  0
 20 54  1  0
 20 55  1  0
 20 56  1  0
 21 57  1  0
 21 58  1  0
 21 59  1  0
 23 60  1  0
 23 61  1  0
 25 62  1  0
 26 63  1  0
 27 64  1  0
 32 65  1  0
 32 66  1  0
 33 67  1  0
 33 68  1  0
 35 69  1  0
 36 70  1  0
 38 71  1  0
 39 72  1  0
 40 73  1  0
 41 74  1  0
M  CHG  3  11  -1  12  -1  29  -1
M  END
>  <UniqueID>  (24) 
24

>  <SMILES>  (24) 
C=c1n(C)c(=O)c(=Cc2c([O-])[n-]c(=O)n2CCCN(C)C)n1Cc1cccc([N-]C(=O)CCc2ccc(O)cc2)c1

>  <Energy>  (24) 
150.3266756338005

>  <Genealogy>  (24) 
C=c1n(C)c(=O)c(=Cc2c([O-])[n-]c(=O)n2CCCN(C)C)n1Cc1cccc([N-]C(=O)CCc2ccc(O)cc2)c1 (protonated)
C=c1n(C)c(=O)c(=Cc2c([O-])[n-]c(=O)n2CCCN(C)C)n1Cc1cccc([N-]C(=O)CCc2ccc(O)cc2)c1 (3D coordinates assigned)
C=c1n(C)c(=O)c(=Cc2c([O-])[n-]c(=O)n2CCCN(C)C)n1Cc1cccc([N-]C(=O)CCc2ccc(O)cc2)c1 (optimized conformer: 150.3266756338005 kcal/mol)

>  <smiles>  (24) 
C=c1n(C)c(=O)c(=Cc2c(O)[nH]c(=O)n2CCCN(C)C)n1Cc1cccc(NC(=O)CCc2ccc(O)cc2)c1

>  <score_type>  (24) 
oracle

>  <origin>  (24) 
adg

>  <m_score__min__energy>  (24) 
-16.539999999999999

>  <m_primary>  (24) 
energy

$$$$
24:0
     RDKit          3D

 36 38  0  0  0  0  0  0  0  0999 V2000
   55.3620   29.0650   44.8700 N   0  0  0  0  0  0  0  0  0  0  0  0
   56.1470   29.8890   44.0110 C   0  0  0  0  0  0  0  0  0  0  0  0
   55.8200   30.0130   42.8000 O   0  0  0  0  0  0  0  0  0  0  0  0
   57.3710   30.5410   44.5230 C   0  0  0  0  0  0  0  0  0  0  0  0
   57.2790   31.9070   44.8300 C   0  0  0  0  0  0  0  0  0  0  0  0
   58.2520   32.5270   45.5380 N   0  0  0  0  0  0  0  0  0  0  0  0
   59.3500   31.8670   45.9810 C   0  0  0  0  0  0  0  0  0  0  0  0
   60.3090   32.5550   46.7320 C   0  0  0  0  0  0  0  0  0  0  0  0
   61.4520   31.8940   47.1970 C   0  0  0  0  0  0  0  0  0  0  0  0
   62.6630   32.7690   48.1310 S   0  0  0  0  0  0  0  0  0  0  0  0
   64.1180   32.9070   47.2080 N   0  0  0  0  0  0  0  0  0  0  0  0
   62.9480   32.0350   49.4100 O   0  0  0  0  0  0  0  0  0  0  0  0
   62.1510   34.1410   48.4670 O   0  0  0  0  0  0  0  0  0  0  0  0
   61.6420   30.5420   46.8910 C   0  0  0  0  0  0  0  0  0  0  0  0
   60.6920   29.8470   46.1370 C   0  0  0  0  0  0  0  0  0  0  0  0
   59.5270   30.4970   45.6760 C   0  0  0  0  0  0  0  0  0  0  0  0
   58.5590   29.8330   44.8810 C   0  0  0  0  0  0  0  0  0  0  0  0
   58.8240   28.6100   44.4890 N   0  0  0  0  0  0  0  0  0  0  0  0
   58.1340   27.3850   44.7750 C   0  0  0  0  0  0  0  0  0  0  0  0
   57.6880   27.1380   46.0800 C   0  0  0  0  0  0  0  0  0  0  0  0
   57.0670   25.9240   46.3940 C   0  0  0  0  0  0  0  0  0  0  0  0
   56.9150   24.9400   45.4120 C   0  0  0  0  0  0  0  0  0  0  0  0
   57.3950   25.1650   44.1180 C   0  0  0  0  0  0  0  0  0  0  0  0
   58.0160   26.3760   43.8020 C   0  0  0  0  0  0  0  0  0  0  0  0
   54.4050   29.3570   45.1660 H   0  0  0  0  0  0  0  0  0  0  0  0
   56.4046   32.4817   44.4908 H   0  0  0  0  0  0  0  0  0  0  0  0
   60.1641   33.6216   46.9584 H   0  0  0  0  0  0  0  0  0  0  0  0
   64.2750   31.9840   46.7460 H   0  0  0  0  0  0  0  0  0  0  0  0
   64.8990   33.0400   47.8890 H   0  0  0  0  0  0  0  0  0  0  0  0
   62.5445   30.0228   47.2459 H   0  0  0  0  0  0  0  0  0  0  0  0
   60.8537   28.7848   45.9010 H   0  0  0  0  0  0  0  0  0  0  0  0
   57.8265   27.9009   46.8603 H   0  0  0  0  0  0  0  0  0  0  0  0
   56.6980   25.7435   47.4144 H   0  0  0  0  0  0  0  0  0  0  0  0
   56.4182   23.9897   45.6573 H   0  0  0  0  0  0  0  0  0  0  0  0
   57.2835   24.3875   43.3479 H   0  0  0  0  0  0  0  0  0  0  0  0
   58.4137   26.5408   42.7897 H   0  0  0  0  0  0  0  0  0  0  0  0
  1  2  1  0
  2  3  2  0
  2  4  1  0
  4  5  2  0
  5  6  1  0
  6  7  1  0
  7  8  2  0
  8  9  1  0
  9 10  1  0
 10 11  1  0
 10 12  2  0
 10 13  2  0
  9 14  2  0
 14 15  1  0
 15 16  2  0
 16 17  1  0
 17 18  2  3
 18 19  1  0
 19 20  2  0
 20 21  1  0
 21 22  2  0
 22 23  1  0
 23 24  2  0
 17  4  1  0
 24 19  1  0
 16  7  1  0
  1 25  1  0
  5 26  1  0
  8 27  1  0
 11 28  1  0
 11 29  1  0
 14 30  1  0
 15 31  1  0
 20 32  1  0
 21 33  1  0
 22 34  1  0
 23 35  1  0
 24 36  1  0
M  CHG  2   1  -1   6  -1
M  END
>  <UniqueID>  (25) 
25

>  <SMILES>  (25) 
[NH-]C(=O)c1c[n-]c2cc(S(N)(=O)=O)ccc2c1=Nc1ccccc1

>  <Energy>  (25) 
63.17801497245778

>  <Genealogy>  (25) 
[NH-]C(=O)c1c[n-]c2cc(S(N)(=O)=O)ccc2c1=Nc1ccccc1 (protonated)
[NH-]C(=O)c1c[n-]c2cc(S(N)(=O)=O)ccc2c1=Nc1ccccc1 (3D coordinates assigned)
[NH-]C(=O)c1c[n-]c2cc(S(N)(=O)=O)ccc2c1=Nc1ccccc1 (optimized conformer: 63.17801497245778 kcal/mol)

>  <smiles>  (25) 
NC(=O)c1c[nH]c2cc(S(N)(=O)=O)ccc2c1=Nc1ccccc1

>  <score_type>  (25) 
oracle

>  <origin>  (25) 
adg

>  <m_score__min__energy>  (25) 
-11.640000000000001

>  <m_primary>  (25) 
energy

$$$$
25:0
     RDKit          3D

 65 69  0  0  0  0  0  0  0  0999 V2000
   60.0840   34.2030   53.5560 C   0  0  0  0  0  0  0  0  0  0  0  0
   59.4280   33.3440   52.7660 C   0  0  0  0  0  0  0  0  0  0  0  0
   58.3440   32.6720   53.2030 N   0  0  0  0  0  0  0  0  0  0  0  0
   57.9780   31.8090   52.2380 C   0  0  0  0  0  0  0  0  0  0  0  0
   56.8600   30.8510   52.3930 C   0  0  0  0  0  0  0  0  0  0  0  0
   55.5720   31.2050   51.9640 C   0  0  0  0  0  0  0  0  0  0  0  0
   54.5060   30.3080   52.1110 C   0  0  0  0  0  0  0  0  0  0  0  0
   54.7200   29.0580   52.6960 C   0  0  0  0  0  0  0  0  0  0  0  0
   55.9960   28.7020   53.1370 C   0  0  0  0  0  0  0  0  0  0  0  0
   57.0610   29.5950   52.9950 C   0  0  0  0  0  0  0  0  0  0  0  0
   58.8300   31.9320   51.1450 C   0  0  0  0  0  0  0  0  0  0  0  0
   58.6960   31.2140   49.8590 C   0  0  0  0  0  0  0  0  0  0  0  0
   58.1830   31.8000   48.8680 O   0  0  0  0  0  0  0  0  0  0  0  0
   59.1240   29.8460   49.7530 N   0  0  0  0  0  0  0  0  0  0  0  0
   59.2640   29.1430   48.5070 C   0  0  0  0  0  0  0  0  0  0  0  0
   60.2220   28.1280   48.3420 C   0  0  0  0  0  0  0  0  0  0  0  0
   60.3440   27.4660   47.1170 C   0  0  0  0  0  0  0  0  0  0  0  0
   59.5080   27.8020   46.0500 C   0  0  0  0  0  0  0  0  0  0  0  0
   58.5300   28.7910   46.2110 C   0  0  0  0  0  0  0  0  0  0  0  0
   57.5310   29.2750   44.8410 S   0  0  0  0  0  0  0  0  0  0  0  0
   56.0830   29.3020   45.2500 O   0  0  0  0  0  0  0  0  0  0  0  0
   57.6960   28.2680   43.7340 O   0  0  0  0  0  0  0  0  0  0  0  0
   58.0310   30.8520   44.2840 N   0  0  0  0  0  0  0  0  0  0  0  0
   57.6920   31.8750   45.2900 C   0  0  0  0  0  0  0  0  0  0  0  0
   57.8620   33.2950   44.7130 C   0  0  0  0  0  0  0  0  0  0  0  0
   58.5690   33.2630   43.4880 O   0  0  0  0  0  0  0  0  0  0  0  0
   57.8090   32.5670   42.5150 C   0  0  0  0  0  0  0  0  0  0  0  0
   57.3840   31.1620   43.0000 C   0  0  0  0  0  0  0  0  0  0  0  0
   58.4040   29.4490   47.4430 C   0  0  0  0  0  0  0  0  0  0  0  0
   59.7500   32.9380   51.4590 C   0  0  0  0  0  0  0  0  0  0  0  0
   60.6900   33.4110   50.6100 C   0  0  0  0  0  0  0  0  0  0  0  0
   60.4930   33.6470   49.1730 C   0  0  0  0  0  0  0  0  0  0  0  0
   59.6370   34.5930   48.6440 C   0  0  0  0  0  0  0  0  0  0  0  0
   59.8000   34.5410   47.2730 C   0  0  0  0  0  0  0  0  0  0  0  0
   60.7670   33.5840   47.0240 C   0  0  0  0  0  0  0  0  0  0  0  0
   61.1960   33.0520   48.1860 N   0  0  0  0  0  0  0  0  0  0  0  0
   62.2520   32.0520   48.3330 C   0  0  0  0  0  0  0  0  0  0  0  0
   60.9658   34.7382   53.1739 H   0  0  0  0  0  0  0  0  0  0  0  0
   59.7412   34.3736   54.5872 H   0  0  0  0  0  0  0  0  0  0  0  0
   57.9010   32.7590   54.1480 H   0  0  0  0  0  0  0  0  0  0  0  0
   55.3983   32.1918   51.5100 H   0  0  0  0  0  0  0  0  0  0  0  0
   53.5000   30.5883   51.7655 H   0  0  0  0  0  0  0  0  0  0  0  0
   53.8828   28.3536   52.8094 H   0  0  0  0  0  0  0  0  0  0  0  0
   56.1630   27.7169   53.5970 H   0  0  0  0  0  0  0  0  0  0  0  0
   58.0618   29.3149   53.3556 H   0  0  0  0  0  0  0  0  0  0  0  0
   59.2380   29.3040   50.6390 H   0  0  0  0  0  0  0  0  0  0  0  0
   60.8787   27.8533   49.1806 H   0  0  0  0  0  0  0  0  0  0  0  0
   61.1011   26.6777   46.9930 H   0  0  0  0  0  0  0  0  0  0  0  0
   59.6179   27.2896   45.0829 H   0  0  0  0  0  0  0  0  0  0  0  0
   56.6471   31.7374   45.6050 H   0  0  0  0  0  0  0  0  0  0  0  0
   58.3712   31.7616   46.1478 H   0  0  0  0  0  0  0  0  0  0  0  0
   56.8685   33.7358   44.5436 H   0  0  0  0  0  0  0  0  0  0  0  0
   58.4341   33.8995   45.4322 H   0  0  0  0  0  0  0  0  0  0  0  0
   56.9053   33.1513   42.2872 H   0  0  0  0  0  0  0  0  0  0  0  0
   58.4394   32.4394   41.6226 H   0  0  0  0  0  0  0  0  0  0  0  0
   56.2917   31.1364   43.1277 H   0  0  0  0  0  0  0  0  0  0  0  0
   57.6917   30.4155   42.2529 H   0  0  0  0  0  0  0  0  0  0  0  0
   57.6231   30.2123   47.5757 H   0  0  0  0  0  0  0  0  0  0  0  0
   61.6818   33.6373   51.0285 H   0  0  0  0  0  0  0  0  0  0  0  0
   58.9602   35.2559   49.2030 H   0  0  0  0  0  0  0  0  0  0  0  0
   59.2646   35.1438   46.5247 H   0  0  0  0  0  0  0  0  0  0  0  0
   61.1318   33.2993   46.0261 H   0  0  0  0  0  0  0  0  0  0  0  0
   62.4412   31.8729   49.4017 H   0  0  0  0  0  0  0  0  0  0  0  0
   61.9372   31.1132   47.8540 H   0  0  0  0  0  0  0  0  0  0  0  0
   63.1723   32.4174   47.8540 H   0  0  0  0  0  0  0  0  0  0  0  0
  1  2  2  0
  2  3  1  0
  3  4  1  0
  4  5  1  0
  5  6  2  0
  6  7  1  0
  7  8  2  0
  8  9  1  0
  9 10  2  0
  4 11  2  0
 11 12  1  0
 12 13  2  0
 12 14  1  0
 14 15  1  0
 15 16  2  0
 16 17  1  0
 17 18  2  0
 18 19  1  0
 19 20  1  0
 20 21  2  0
 20 22  2  0
 20 23  1  0
 23 24  1  0
 24 25  1  0
 25 26  1  0
 26 27  1  0
 27 28  1  0
 19 29  2  0
 11 30  1  0
 30 31  2  3
 31 32  1  0
 32 33  2  0
 33 34  1  0
 34 35  2  0
 35 36  1  0
 36 37  1  0
 30  2  1  0
 36 32  1  0
 10  5  1  0
 29 15  1  0
 28 23  1  0
  1 38  1  0
  1 39  1  0
  3 40  1  0
  6 41  1  0
  7 42  1  0
  8 43  1  0
  9 44  1  0
 10 45  1  0
 14 46  1  0
 16 47  1  0
 17 48  1  0
 18 49  1  0
 24 50  1  0
 24 51  1  0
 25 52  1  0
 25 53  1  0
 27 54  1  0
 27 55  1  0
 28 56  1  0
 28 57  1  0
 29 58  1  0
 31 59  1  0
 33 60  1  0
 34 61  1  0
 35 62  1  0
 37 63  1  0
 37 64  1  0
 37 65  1  0
M  END
>  <UniqueID>  (26) 
26

>  <SMILES>  (26) 
C=c1[nH]c(-c2ccccc2)c(C(=O)Nc2cccc(S(=O)(=O)N3CCOCC3)c2)c1=Cc1cccn1C

>  <Energy>  (26) 
152.67646624267627

>  <Genealogy>  (26) 
C=c1[nH]c(-c2ccccc2)c(C(=O)Nc2cccc(S(=O)(=O)N3CCOCC3)c2)c1=Cc1cccn1C (3D coordinates assigned)
C=c1[nH]c(-c2ccccc2)c(C(=O)Nc2cccc(S(=O)(=O)N3CCOCC3)c2)c1=Cc1cccn1C (nonaromatic ring conformer: 152.67646624267627 kcal/mol)

>  <smiles>  (26) 
C=c1[nH]c(-c2ccccc2)c(C(=O)Nc2cccc(S(=O)(=O)N3CCOCC3)c2)c1=Cc1cccn1C

>  <score_type>  (26) 
oracle

>  <origin>  (26) 
adg

>  <m_score__min__energy>  (26) 
-11.800000000000001

>  <m_primary>  (26) 
energy

$$$$
26:0
     RDKit          3D

 49 52  0  0  0  0  0  0  0  0999 V2000
   55.4130   29.7340   43.6250 C   0  0  0  0  0  0  0  0  0  0  0  0
   55.6100   29.0740   44.8710 O   0  0  0  0  0  0  0  0  0  0  0  0
   56.8660   28.7670   45.4180 C   0  0  0  0  0  0  0  0  0  0  0  0
   57.2270   27.4510   45.7700 C   0  0  0  0  0  0  0  0  0  0  0  0
   58.4860   27.1860   46.3130 C   0  0  0  0  0  0  0  0  0  0  0  0
   59.3950   28.2250   46.5090 C   0  0  0  0  0  0  0  0  0  0  0  0
   59.0500   29.5340   46.1640 C   0  0  0  0  0  0  0  0  0  0  0  0
   57.7810   29.8150   45.6190 C   0  0  0  0  0  0  0  0  0  0  0  0
   57.3880   31.1130   45.2550 O   0  0  0  0  0  0  0  0  0  0  0  0
   58.2020   32.0730   44.5780 C   0  0  0  0  0  0  0  0  0  0  0  0
   57.4200   33.3610   44.3000 C   0  0  0  0  0  0  0  0  0  0  0  0
   57.7130   34.3800   45.3050 N   0  0  0  0  0  0  0  0  0  0  0  0
   58.9850   34.5870   45.9340 C   0  0  0  0  0  0  0  0  0  0  0  0
   59.6170   35.6500   45.6960 O   0  0  0  0  0  0  0  0  0  0  0  0
   59.5840   33.5830   46.8360 C   0  0  0  0  0  0  0  0  0  0  0  0
   60.9610   33.3540   46.7860 C   0  0  0  0  0  0  0  0  0  0  0  0
   61.5640   32.4500   47.6170 N   0  0  0  0  0  0  0  0  0  0  0  0
   63.0240   32.2700   47.4960 C   0  0  0  0  0  0  0  0  0  0  0  0
   63.8420   33.2930   48.2780 C   0  0  0  0  0  0  0  0  0  0  0  0
   63.7620   33.3940   46.7700 C   0  0  0  0  0  0  0  0  0  0  0  0
   60.8050   31.6710   48.4670 C   0  0  0  0  0  0  0  0  0  0  0  0
   61.3780   30.6350   49.2400 C   0  0  0  0  0  0  0  0  0  0  0  0
   60.5990   29.8790   50.1190 C   0  0  0  0  0  0  0  0  0  0  0  0
   61.3470   28.6070   51.0700 Cl  0  0  0  0  0  0  0  0  0  0  0  0
   59.2320   30.1320   50.2370 C   0  0  0  0  0  0  0  0  0  0  0  0
   58.4710   29.4010   51.0910 F   0  0  0  0  0  0  0  0  0  0  0  0
   58.6370   31.1310   49.4670 C   0  0  0  0  0  0  0  0  0  0  0  0
   59.4050   31.8960   48.5710 C   0  0  0  0  0  0  0  0  0  0  0  0
   58.8060   32.8780   47.7620 C   0  0  0  0  0  0  0  0  0  0  0  0
   57.5730   33.1300   47.8690 O   0  0  0  0  0  0  0  0  0  0  0  0
   55.1027   30.7737   43.8058 H   0  0  0  0  0  0  0  0  0  0  0  0
   56.3527   29.7260   43.0532 H   0  0  0  0  0  0  0  0  0  0  0  0
   54.6314   29.2122   43.0532 H   0  0  0  0  0  0  0  0  0  0  0  0
   56.5133   26.6282   45.6162 H   0  0  0  0  0  0  0  0  0  0  0  0
   58.7609   26.1566   46.5864 H   0  0  0  0  0  0  0  0  0  0  0  0
   60.3863   28.0134   46.9364 H   0  0  0  0  0  0  0  0  0  0  0  0
   59.7722   30.3492   46.3184 H   0  0  0  0  0  0  0  0  0  0  0  0
   59.0742   32.3104   45.2049 H   0  0  0  0  0  0  0  0  0  0  0  0
   58.5220   31.6441   43.6169 H   0  0  0  0  0  0  0  0  0  0  0  0
   57.6995   33.7441   43.3075 H   0  0  0  0  0  0  0  0  0  0  0  0
   56.3447   33.1323   44.3367 H   0  0  0  0  0  0  0  0  0  0  0  0
   61.5736   33.9125   46.0630 H   0  0  0  0  0  0  0  0  0  0  0  0
   63.0025   31.1736   47.4103 H   0  0  0  0  0  0  0  0  0  0  0  0
   63.3327   34.0389   48.9059 H   0  0  0  0  0  0  0  0  0  0  0  0
   64.6619   33.2352   49.0091 H   0  0  0  0  0  0  0  0  0  0  0  0
   63.1942   34.2125   46.3035 H   0  0  0  0  0  0  0  0  0  0  0  0
   64.4988   33.4393   45.9545 H   0  0  0  0  0  0  0  0  0  0  0  0
   62.4531   30.4212   49.1478 H   0  0  0  0  0  0  0  0  0  0  0  0
   57.5579   31.3222   49.5613 H   0  0  0  0  0  0  0  0  0  0  0  0
  1  2  1  0
  2  3  1  0
  3  4  2  0
  4  5  1  0
  5  6  2  0
  6  7  1  0
  7  8  2  0
  8  9  1  0
  9 10  1  0
 10 11  1  0
 11 12  1  0
 12 13  1  0
 13 14  2  0
 13 15  1  0
 15 16  2  0
 16 17  1  0
 17 18  1  0
 18 19  1  0
 19 20  1  0
 17 21  1  0
 21 22  2  0
 22 23  1  0
 23 24  1  0
 23 25  2  0
 25 26  1  0
 25 27  1  0
 27 28  2  0
 28 29  1  0
 29 30  2  0
  8  3  1  0
 29 15  1  0
 20 18  1  0
 28 21  1  0
  1 31  1  0
  1 32  1  0
  1 33  1  0
  4 34  1  0
  5 35  1  0
  6 36  1  0
  7 37  1  0
 10 38  1  0
 10 39  1  0
 11 40  1  0
 11 41  1  0
 16 42  1  0
 18 43  1  0
 19 44  1  0
 19 45  1  0
 20 46  1  0
 20 47  1  0
 22 48  1  0
 27 49  1  0
M  CHG  1  12  -1
M  END
>  <UniqueID>  (27) 
27

>  <SMILES>  (27) 
COc1ccccc1OCC[N-]C(=O)c1cn(C2CC2)c2cc(Cl)c(F)cc2c1=O

>  <Energy>  (27) 
330.33853780474544

>  <Genealogy>  (27) 
COc1ccccc1OCC[N-]C(=O)c1cn(C2CC2)c2cc(Cl)c(F)cc2c1=O (protonated)
COc1ccccc1OCC[N-]C(=O)c1cn(C2CC2)c2cc(Cl)c(F)cc2c1=O (3D coordinates assigned)
COc1ccccc1OCC[N-]C(=O)c1cn(C2CC2)c2cc(Cl)c(F)cc2c1=O (nonaromatic ring conformer: 330.33853780474544 kcal/mol)

>  <smiles>  (27) 
COc1ccccc1OCCNC(=O)c1cn(C2CC2)c2cc(Cl)c(F)cc2c1=O

>  <score_type>  (27) 
oracle

>  <origin>  (27) 
adg

>  <m_score__min__energy>  (27) 
-10.550000000000001

>  <m_primary>  (27) 
energy

$$$$
27:0
     RDKit          3D

 45 48  0  0  0  0  0  0  0  0999 V2000
   55.6800   29.3610   45.1310 O   0  0  0  0  0  0  0  0  0  0  0  0
   56.9210   29.5670   45.1660 C   0  0  0  0  0  0  0  0  0  0  0  0
   57.7840   28.5060   45.5940 N   0  0  0  0  0  0  0  0  0  0  0  0
   57.4660   27.5490   46.6470 C   0  0  0  0  0  0  0  0  0  0  0  0
   57.1640   26.2120   46.0270 C   0  0  0  0  0  0  0  0  0  0  0  0
   58.2070   25.3020   45.7830 C   0  0  0  0  0  0  0  0  0  0  0  0
   57.9350   24.0450   45.2340 C   0  0  0  0  0  0  0  0  0  0  0  0
   56.6190   23.6820   44.9350 C   0  0  0  0  0  0  0  0  0  0  0  0
   55.5730   24.5740   45.1880 C   0  0  0  0  0  0  0  0  0  0  0  0
   55.8380   25.8330   45.7380 C   0  0  0  0  0  0  0  0  0  0  0  0
   54.7810   26.7000   45.9960 O   0  0  0  0  0  0  0  0  0  0  0  0
   57.4360   30.9010   44.8010 C   0  0  0  0  0  0  0  0  0  0  0  0
   57.5360   31.2890   43.4560 C   0  0  0  0  0  0  0  0  0  0  0  0
   58.0160   32.5580   43.1240 C   0  0  0  0  0  0  0  0  0  0  0  0
   58.3810   33.4560   44.1290 C   0  0  0  0  0  0  0  0  0  0  0  0
   58.2520   33.0980   45.4810 C   0  0  0  0  0  0  0  0  0  0  0  0
   58.6400   34.0740   46.5640 C   0  0  0  0  0  0  0  0  0  0  0  0
   60.0870   33.9090   46.9580 C   0  0  0  0  0  0  0  0  0  0  0  0
   61.0190   33.9350   45.9680 N   0  0  0  0  0  0  0  0  0  0  0  0
   62.3230   33.8280   46.2150 N   0  0  0  0  0  0  0  0  0  0  0  0
   62.8020   33.6910   47.4750 C   0  0  0  0  0  0  0  0  0  0  0  0
   64.0470   33.5940   47.6540 O   0  0  0  0  0  0  0  0  0  0  0  0
   61.9080   33.6610   48.5560 C   0  0  0  0  0  0  0  0  0  0  0  0
   62.3660   33.5250   49.8810 C   0  0  0  0  0  0  0  0  0  0  0  0
   61.4590   33.5000   50.9410 C   0  0  0  0  0  0  0  0  0  0  0  0
   60.0900   33.6050   50.6940 C   0  0  0  0  0  0  0  0  0  0  0  0
   59.6190   33.7390   49.3880 C   0  0  0  0  0  0  0  0  0  0  0  0
   60.5190   33.7710   48.3000 C   0  0  0  0  0  0  0  0  0  0  0  0
   57.7840   31.8140   45.8100 C   0  0  0  0  0  0  0  0  0  0  0  0
   58.3244   27.4530   47.3281 H   0  0  0  0  0  0  0  0  0  0  0  0
   56.5902   27.8999   47.2125 H   0  0  0  0  0  0  0  0  0  0  0  0
   59.2433   25.5802   46.0253 H   0  0  0  0  0  0  0  0  0  0  0  0
   58.7574   23.3415   45.0374 H   0  0  0  0  0  0  0  0  0  0  0  0
   56.4063   22.6941   44.5005 H   0  0  0  0  0  0  0  0  0  0  0  0
   54.5377   24.2852   44.9539 H   0  0  0  0  0  0  0  0  0  0  0  0
   57.2353   30.5913   42.6605 H   0  0  0  0  0  0  0  0  0  0  0  0
   58.1067   32.8508   42.0676 H   0  0  0  0  0  0  0  0  0  0  0  0
   58.7715   34.4487   43.8606 H   0  0  0  0  0  0  0  0  0  0  0  0
   58.4835   35.0987   46.1958 H   0  0  0  0  0  0  0  0  0  0  0  0
   58.0151   33.8783   47.4478 H   0  0  0  0  0  0  0  0  0  0  0  0
   63.4441   33.4381   50.0811 H   0  0  0  0  0  0  0  0  0  0  0  0
   61.8242   33.3973   51.9735 H   0  0  0  0  0  0  0  0  0  0  0  0
   59.3789   33.5820   51.5329 H   0  0  0  0  0  0  0  0  0  0  0  0
   58.5376   33.8204   49.2039 H   0  0  0  0  0  0  0  0  0  0  0  0
   57.6895   31.5219   46.8663 H   0  0  0  0  0  0  0  0  0  0  0  0
  1  2  2  0
  2  3  1  0
  3  4  1  0
  4  5  1  0
  5  6  2  0
  6  7  1  0
  7  8  2  0
  8  9  1  0
  9 10  2  0
 10 11  1  0
  2 12  1  0
 12 13  2  0
 13 14  1  0
 14 15  2  0
 15 16  1  0
 16 17  1  0
 17 18  1  0
 18 19  2  0
 19 20  1  0
 20 21  1  0
 21 22  2  0
 21 23  1  0
 23 24  2  0
 24 25  1  0
 25 26  2  0
 26 27  1  0
 27 28  2  0
 16 29  2  0
 10  5  1  0
 29 12  1  0
 28 18  1  0
 28 23  1  0
  4 30  1  0
  4 31  1  0
  6 32  1  0
  7 33  1  0
  8 34  1  0
  9 35  1  0
 13 36  1  0
 14 37  1  0
 15 38  1  0
 17 39  1  0
 17 40  1  0
 24 41  1  0
 25 42  1  0
 26 43  1  0
 27 44  1  0
 29 45  1  0
M  CHG  3   3  -1  11  -1  20  -1
M  END
>  <UniqueID>  (28) 
28

>  <SMILES>  (28) 
O=C([N-]Cc1ccccc1[O-])c1cccc(Cc2n[n-]c(=O)c3ccccc23)c1

>  <Energy>  (28) 
60.77188862717162

>  <Genealogy>  (28) 
O=C([N-]Cc1ccccc1[O-])c1cccc(Cc2n[n-]c(=O)c3ccccc23)c1 (protonated)
O=C([N-]Cc1ccccc1[O-])c1cccc(Cc2n[n-]c(=O)c3ccccc23)c1 (3D coordinates assigned)
O=C([N-]Cc1ccccc1[O-])c1cccc(Cc2n[n-]c(=O)c3ccccc23)c1 (optimized conformer: 60.77188862717162 kcal/mol)

>  <smiles>  (28) 
O=C(NCc1ccccc1O)c1cccc(Cc2n[nH]c(=O)c3ccccc23)c1

>  <score_type>  (28) 
oracle

>  <origin>  (28) 
adg

>  <m_score__min__energy>  (28) 
-15.949999999999999

>  <m_primary>  (28) 
energy

$$$$
28:0
     RDKit          3D

 37 39  0  0  0  0  0  0  0  0999 V2000
   56.0950   29.5690   42.4580 N   0  0  0  0  0  0  0  0  0  0  0  0
   56.9120   30.4510   43.2380 C   0  0  0  0  0  0  0  0  0  0  0  0
   57.3810   31.6390   42.6560 C   0  0  0  0  0  0  0  0  0  0  0  0
   58.1430   32.5430   43.3980 C   0  0  0  0  0  0  0  0  0  0  0  0
   58.4480   32.2690   44.7330 C   0  0  0  0  0  0  0  0  0  0  0  0
   59.2080   33.1690   45.4700 O   0  0  0  0  0  0  0  0  0  0  0  0
   57.9940   31.0880   45.3250 C   0  0  0  0  0  0  0  0  0  0  0  0
   57.2240   30.1720   44.5910 C   0  0  0  0  0  0  0  0  0  0  0  0
   56.8040   28.9160   45.2430 C   0  0  0  0  0  0  0  0  0  0  0  0
   55.6080   28.5330   45.1270 O   0  0  0  0  0  0  0  0  0  0  0  0
   57.7410   28.1140   45.9810 N   0  0  0  0  0  0  0  0  0  0  0  0
   59.0990   28.5320   46.3160 C   0  0  0  0  0  0  0  0  0  0  0  0
   59.5640   27.4820   47.2640 C   0  0  0  0  0  0  0  0  0  0  0  0
   58.6180   26.5740   47.4760 C   0  0  0  0  0  0  0  0  0  0  0  0
   57.3760   26.9090   46.7190 C   0  0  2  0  0  0  0  0  0  0  0  0
   56.9650   25.7850   45.7880 C   0  0  0  0  0  0  0  0  0  0  0  0
   57.9600   24.9680   45.2230 C   0  0  0  0  0  0  0  0  0  0  0  0
   57.6160   23.9200   44.3640 C   0  0  0  0  0  0  0  0  0  0  0  0
   56.2770   23.6720   44.0560 C   0  0  0  0  0  0  0  0  0  0  0  0
   55.9500   22.6240   43.2000 O   0  0  0  0  0  0  0  0  0  0  0  0
   55.2770   24.4820   44.6090 C   0  0  0  0  0  0  0  0  0  0  0  0
   55.6120   25.5330   45.4690 C   0  0  0  0  0  0  0  0  0  0  0  0
   54.5940   26.3200   45.9960 O   0  0  0  0  0  0  0  0  0  0  0  0
   55.8940   29.7450   41.4500 H   0  0  0  0  0  0  0  0  0  0  0  0
   55.7230   28.6860   42.8740 H   0  0  0  0  0  0  0  0  0  0  0  0
   57.1457   31.8599   41.6044 H   0  0  0  0  0  0  0  0  0  0  0  0
   58.5034   33.4715   42.9311 H   0  0  0  0  0  0  0  0  0  0  0  0
   58.2419   30.8740   46.3751 H   0  0  0  0  0  0  0  0  0  0  0  0
   59.7342   28.5600   45.4183 H   0  0  0  0  0  0  0  0  0  0  0  0
   59.1415   29.5442   46.7445 H   0  0  0  0  0  0  0  0  0  0  0  0
   60.5610   27.4610   47.7282 H   0  0  0  0  0  0  0  0  0  0  0  0
   58.7344   25.6923   48.1234 H   0  0  0  0  0  0  0  0  0  0  0  0
   56.5064   27.0592   47.3757 H   0  0  0  0  0  0  0  0  0  0  0  0
   59.0180   25.1550   45.4588 H   0  0  0  0  0  0  0  0  0  0  0  0
   58.4040   23.2878   43.9287 H   0  0  0  0  0  0  0  0  0  0  0  0
   56.1100   22.6870   42.2010 H   0  0  0  0  0  0  0  0  0  0  0  0
   54.2216   24.2904   44.3654 H   0  0  0  0  0  0  0  0  0  0  0  0
  1  2  1  0
  2  3  2  0
  3  4  1  0
  4  5  2  0
  5  6  1  0
  5  7  1  0
  7  8  2  0
  8  9  1  0
  9 10  2  0
  9 11  1  0
 11 12  1  0
 12 13  1  0
 13 14  2  0
 14 15  1  0
 15 16  1  0
 16 17  2  0
 17 18  1  0
 18 19  2  0
 19 20  1  0
 19 21  1  0
 21 22  2  0
 22 23  1  0
  8  2  1  0
 15 11  1  0
 22 16  1  0
  1 24  1  0
  1 25  1  0
  3 26  1  0
  4 27  1  0
  7 28  1  0
 12 29  1  0
 12 30  1  0
 13 31  1  0
 14 32  1  0
 15 33  1  1
 17 34  1  0
 18 35  1  0
 20 36  1  0
 21 37  1  0
M  CHG  2   6  -1  23  -1
M  END
>  <UniqueID>  (29) 
29

>  <SMILES>  (29) 
Nc1ccc([O-])cc1C(=O)N1CC=C[C@@H]1c1ccc(O)cc1[O-]

>  <Energy>  (29) 
52.00887690152533

>  <Genealogy>  (29) 
Nc1ccc([O-])cc1C(=O)N1CC=CC1c1ccc(O)cc1[O-] (protonated)
Nc1ccc([O-])cc1C(=O)N1CC=C[C@@H]1c1ccc(O)cc1[O-] (chirality)
Nc1ccc([O-])cc1C(=O)N1CC=C[C@@H]1c1ccc(O)cc1[O-] (3D coordinates assigned)
Nc1ccc([O-])cc1C(=O)N1CC=C[C@@H]1c1ccc(O)cc1[O-] (nonaromatic ring conformer: 52.00887690152533 kcal/mol)

>  <smiles>  (29) 
Nc1ccc(O)cc1C(=O)N1CC=CC1c1ccc(O)cc1O

>  <score_type>  (29) 
oracle

>  <origin>  (29) 
adg

>  <m_score__min__energy>  (29) 
-12.76

>  <m_primary>  (29) 
energy

$$$$
29:0
     RDKit          3D

 51 54  0  0  0  0  0  0  0  0999 V2000
   55.4050   29.4790   42.6310 H   0  0  0  0  0  0  0  0  0  0  0  0
   55.2340   29.9470   43.5130 O   0  0  0  0  0  0  0  0  0  0  0  0
   56.2800   30.2120   44.3880 C   0  0  0  0  0  0  0  0  0  0  0  0
   56.6320   31.4740   44.7640 N   0  0  0  0  0  0  0  0  0  0  0  0
   57.6870   31.2590   45.5700 C   0  0  0  0  0  0  0  0  0  0  0  0
   58.5420   32.1420   46.2160 C   0  0  0  0  0  0  0  0  0  0  0  0
   58.4291   33.2362   46.2227 H   0  0  0  0  0  0  0  0  0  0  0  0
   59.5740   31.4350   46.8610 C   0  0  0  0  0  0  0  0  0  0  0  0
   60.6300   32.0600   47.6900 C   0  0  0  0  0  0  0  0  0  0  0  0
   60.8330   31.7350   49.0540 C   0  0  0  0  0  0  0  0  0  0  0  0
   60.0250   30.6900   49.7640 C   0  0  0  0  0  0  0  0  0  0  0  0
   60.1278   30.8229   50.8511 H   0  0  0  0  0  0  0  0  0  0  0  0
   58.9668   30.7897   49.4808 H   0  0  0  0  0  0  0  0  0  0  0  0
   60.3878   29.6909   49.4808 H   0  0  0  0  0  0  0  0  0  0  0  0
   61.8050   32.3780   49.7580 N   0  0  0  0  0  0  0  0  0  0  0  0
   62.6150   33.3190   49.2060 C   0  0  0  0  0  0  0  0  0  0  0  0
   63.6420   33.9670   50.0410 C   0  0  0  0  0  0  0  0  0  0  0  0
   63.3500   34.9720   50.7480 O   0  0  0  0  0  0  0  0  0  0  0  0
   64.9750   33.4450   50.0540 N   0  0  0  0  0  0  0  0  0  0  0  0
   65.2910   32.0220   50.1470 C   0  0  0  0  0  0  0  0  0  0  0  0
   65.0886   31.5350   49.1817 H   0  0  0  0  0  0  0  0  0  0  0  0
   64.4150   31.3550   51.2110 C   0  0  0  0  0  0  0  0  0  0  0  0
   64.7786   31.6319   52.2116 H   0  0  0  0  0  0  0  0  0  0  0  0
   63.3744   31.6916   51.0929 H   0  0  0  0  0  0  0  0  0  0  0  0
   64.4626   30.2624   51.0929 H   0  0  0  0  0  0  0  0  0  0  0  0
   66.7710   31.8600   50.4930 C   0  0  0  0  0  0  0  0  0  0  0  0
   66.8927   31.8467   51.5862 H   0  0  0  0  0  0  0  0  0  0  0  0
   67.1450   30.9156   50.0709 H   0  0  0  0  0  0  0  0  0  0  0  0
   67.3404   32.7012   50.0709 H   0  0  0  0  0  0  0  0  0  0  0  0
   62.4620   33.6470   47.8540 C   0  0  0  0  0  0  0  0  0  0  0  0
   63.1175   34.3979   47.3886 H   0  0  0  0  0  0  0  0  0  0  0  0
   61.4740   33.0160   47.1020 C   0  0  0  0  0  0  0  0  0  0  0  0
   61.3538   33.2687   46.0382 H   0  0  0  0  0  0  0  0  0  0  0  0
   59.3740   29.7480   46.6140 S   0  0  0  0  0  0  0  0  0  0  0  0
   57.9880   29.9600   45.6990 C   0  0  0  0  0  0  0  0  0  0  0  0
   57.0890   29.2300   44.9670 C   0  0  0  0  0  0  0  0  0  0  0  0
   57.0950   27.7850   44.6680 C   0  0  0  0  0  0  0  0  0  0  0  0
   56.9073   27.4880   43.6256 H   0  0  0  0  0  0  0  0  0  0  0  0
   57.3120   26.7880   45.5670 C   0  0  0  0  0  0  0  0  0  0  0  0
   56.1790   26.2010   46.1900 C   0  0  0  0  0  0  0  0  0  0  0  0
   54.8990   26.7140   45.9940 O   0  0  0  0  0  0  0  0  0  0  0  0
   56.3110   25.0600   46.9840 C   0  0  0  0  0  0  0  0  0  0  0  0
   55.4216   24.6168   47.4558 H   0  0  0  0  0  0  0  0  0  0  0  0
   57.5580   24.4810   47.1820 C   0  0  0  0  0  0  0  0  0  0  0  0
   57.6447   23.5468   47.7562 H   0  0  0  0  0  0  0  0  0  0  0  0
   58.6980   25.0810   46.6550 C   0  0  0  0  0  0  0  0  0  0  0  0
   59.6818   24.6192   46.8247 H   0  0  0  0  0  0  0  0  0  0  0  0
   58.6090   26.2720   45.9070 C   0  0  0  0  0  0  0  0  0  0  0  0
   59.7580   26.9290   45.6640 C   0  0  0  0  0  0  0  0  0  0  0  0
   59.7450   27.8641   45.0848 H   0  0  0  0  0  0  0  0  0  0  0  0
   60.7102   26.5310   46.0446 H   0  0  0  0  0  0  0  0  0  0  0  0
  1  2  1  0
  2  3  1  0
  3  4  1  0
  4  5  1  0
  5  6  1  0
  6  7  1  0
  6  8  2  0
  8  9  1  0
  9 10  2  0
 10 11  1  0
 11 12  1  0
 11 13  1  0
 11 14  1  0
 10 15  1  0
 15 16  2  0
 16 17  1  0
 17 18  2  0
 17 19  1  0
 19 20  1  0
 20 21  1  0
 20 22  1  0
 22 23  1  0
 22 24  1  0
 22 25  1  0
 20 26  1  0
 26 27  1  0
 26 28  1  0
 26 29  1  0
 16 30  1  0
 30 31  1  0
 30 32  2  0
 32 33  1  0
  8 34  1  0
 34 35  1  0
 35 36  1  0
 36 37  1  0
 37 38  1  0
 37 39  2  0
 39 40  1  0
 40 41  1  0
 40 42  2  0
 42 43  1  0
 42 44  1  0
 44 45  1  0
 44 46  2  0
 46 47  1  0
 46 48  1  0
 48 49  2  0
 49 50  1  0
 49 51  1  0
 36  3  2  0
 48 39  1  0
 35  5  2  0
 32  9  1  0
M  CHG  3   4  -1  19  -1  41  -1
M  END
>  <UniqueID>  (30) 
30

>  <SMILES>  (30) 
C=c1cccc([O-])/c1=C/c1c(O)[n-]c2cc(-c3ccc(C(=O)[N-]C(C)C)nc3C)sc12

>  <Energy>  (30) 
148.82966512466658

>  <Genealogy>  (30) 
C=c1cccc([O-])c1=Cc1c(O)[n-]c2cc(-c3ccc(C(=O)[N-]C(C)C)nc3C)sc12 (protonated)
C=c1cccc([O-])/c1=C/c1c(O)[n-]c2cc(-c3ccc(C(=O)[N-]C(C)C)nc3C)sc12 (cis-trans isomerization)
C=c1cccc([O-])/c1=C/c1c(O)[n-]c2cc(-c3ccc(C(=O)[N-]C(C)C)nc3C)sc12 (3D coordinates assigned)
C=c1cccc([O-])/c1=C/c1c(O)[n-]c2cc(-c3ccc(C(=O)[N-]C(C)C)nc3C)sc12 (optimized conformer: 148.82966512466658 kcal/mol)

>  <smiles>  (30) 
C=c1cccc(O)c1=Cc1c(O)[nH]c2cc(-c3ccc(C(=O)NC(C)C)nc3C)sc12

>  <score_type>  (30) 
oracle

>  <origin>  (30) 
adg

>  <m_score__min__energy>  (30) 
-15.140000000000001

>  <m_primary>  (30) 
energy

$$$$
30:0
     RDKit          3D

 43 45  0  0  0  0  0  0  0  0999 V2000
   56.6953   20.9766   46.0434 H   0  0  0  0  0  0  0  0  0  0  0  0
   56.6510   21.6630   45.1850 C   0  0  0  0  0  0  0  0  0  0  0  0
   56.8990   23.0270   45.3690 C   0  0  0  0  0  0  0  0  0  0  0  0
   57.1482   23.4083   46.3703 H   0  0  0  0  0  0  0  0  0  0  0  0
   56.8310   23.9140   44.2780 C   0  0  0  0  0  0  0  0  0  0  0  0
   57.1050   25.3170   44.4340 N   0  0  0  0  0  0  0  0  0  0  0  0
   57.5290   25.8220   43.6230 H   0  0  0  0  0  0  0  0  0  0  0  0
   56.7130   26.0900   45.5810 C   0  0  0  0  0  0  0  0  0  0  0  0
   55.8560   25.6290   46.3810 O   0  0  0  0  0  0  0  0  0  0  0  0
   57.3120   27.4290   45.8070 C   0  0  0  0  0  0  0  0  0  0  0  0
   56.7290   28.4990   45.1980 N   0  0  0  0  0  0  0  0  0  0  0  0
   57.1840   29.7720   45.3260 C   0  0  0  0  0  0  0  0  0  0  0  0
   56.5480   30.7240   44.7040 N   0  0  0  0  0  0  0  0  0  0  0  0
   57.0600   32.0090   44.3160 C   0  0  0  0  0  0  0  0  0  0  0  0
   57.3960   32.1960   43.1190 O   0  0  0  0  0  0  0  0  0  0  0  0
   57.1700   33.0950   45.2460 N   0  0  0  0  0  0  0  0  0  0  0  0
   58.2770   33.3490   46.1240 C   0  0  0  0  0  0  0  0  0  0  0  0
   59.4290   33.9510   45.6020 C   0  0  0  0  0  0  0  0  0  0  0  0
   59.4694   34.2237   44.5371 H   0  0  0  0  0  0  0  0  0  0  0  0
   60.5280   34.2070   46.4280 C   0  0  0  0  0  0  0  0  0  0  0  0
   61.4364   34.6631   46.0076 H   0  0  0  0  0  0  0  0  0  0  0  0
   60.4740   33.8840   47.7880 C   0  0  0  0  0  0  0  0  0  0  0  0
   61.8930   34.1990   48.8450 S   0  0  0  0  0  0  0  0  0  0  0  0
   63.0820   33.3090   47.7880 C   0  0  0  0  0  0  0  0  0  0  0  0
   62.5310   32.1180   47.3480 F   0  0  0  0  0  0  0  0  0  0  0  0
   63.4290   34.0890   46.7000 F   0  0  0  0  0  0  0  0  0  0  0  0
   64.2180   33.0330   48.5240 F   0  0  0  0  0  0  0  0  0  0  0  0
   59.3200   33.2990   48.3190 C   0  0  0  0  0  0  0  0  0  0  0  0
   59.2777   33.0398   49.3872 H   0  0  0  0  0  0  0  0  0  0  0  0
   58.2200   33.0430   47.4950 C   0  0  0  0  0  0  0  0  0  0  0  0
   57.3071   32.6008   47.9206 H   0  0  0  0  0  0  0  0  0  0  0  0
   58.3360   30.0070   46.1000 C   0  0  0  0  0  0  0  0  0  0  0  0
   58.7428   31.0247   46.1942 H   0  0  0  0  0  0  0  0  0  0  0  0
   58.9560   28.9410   46.7450 C   0  0  0  0  0  0  0  0  0  0  0  0
   59.8491   29.1212   47.3613 H   0  0  0  0  0  0  0  0  0  0  0  0
   58.4530   27.6430   46.6160 C   0  0  0  0  0  0  0  0  0  0  0  0
   59.2690   26.3600   47.5060 Cl  0  0  0  0  0  0  0  0  0  0  0  0
   56.5470   23.4050   43.0010 C   0  0  0  0  0  0  0  0  0  0  0  0
   56.5193   24.0840   42.1360 H   0  0  0  0  0  0  0  0  0  0  0  0
   56.2990   22.0400   42.8210 C   0  0  0  0  0  0  0  0  0  0  0  0
   56.0660   21.6514   41.8187 H   0  0  0  0  0  0  0  0  0  0  0  0
   56.3470   21.1700   43.9130 C   0  0  0  0  0  0  0  0  0  0  0  0
   56.1090   19.8470   43.7370 F   0  0  0  0  0  0  0  0  0  0  0  0
  1  2  1  0
  2  3  2  0
  3  4  1  0
  3  5  1  0
  5  6  1  0
  6  7  1  0
  6  8  1  0
  8  9  2  0
  8 10  1  0
 10 11  1  0
 11 12  1  0
 12 13  2  0
 13 14  1  0
 14 15  2  0
 14 16  1  0
 16 17  1  0
 17 18  2  0
 18 19  1  0
 18 20  1  0
 20 21  1  0
 20 22  2  0
 22 23  1  0
 23 24  1  0
 24 25  1  0
 24 26  1  0
 24 27  1  0
 22 28  1  0
 28 29  1  0
 28 30  2  0
 30 31  1  0
 12 32  1  0
 32 33  1  0
 32 34  2  0
 34 35  1  0
 34 36  1  0
 36 37  1  0
  5 38  2  0
 38 39  1  0
 38 40  1  0
 40 41  1  0
 40 42  2  0
 42 43  1  0
 42  2  1  0
 36 10  2  0
 30 17  1  0
M  CHG  2  11  -1  16  -1
M  END
>  <UniqueID>  (31) 
31

>  <SMILES>  (31) 
O=C(/N=c1\ccc(Cl)c(C(=O)Nc2ccc(F)cc2)[n-]1)[N-]c1ccc(SC(F)(F)F)cc1

>  <Energy>  (31) 
60.96617232833975

>  <Genealogy>  (31) 
O=C(N=c1ccc(Cl)c(C(=O)Nc2ccc(F)cc2)[n-]1)[N-]c1ccc(SC(F)(F)F)cc1 (protonated)
O=C(/N=c1\ccc(Cl)c(C(=O)Nc2ccc(F)cc2)[n-]1)[N-]c1ccc(SC(F)(F)F)cc1 (cis-trans isomerization)
O=C(/N=c1\ccc(Cl)c(C(=O)Nc2ccc(F)cc2)[n-]1)[N-]c1ccc(SC(F)(F)F)cc1 (3D coordinates assigned)
O=C(/N=c1\ccc(Cl)c(C(=O)Nc2ccc(F)cc2)[n-]1)[N-]c1ccc(SC(F)(F)F)cc1 (optimized conformer: 60.96617232833975 kcal/mol)

>  <smiles>  (31) 
O=C(N=c1ccc(Cl)c(C(=O)Nc2ccc(F)cc2)[nH]1)Nc1ccc(SC(F)(F)F)cc1

>  <score_type>  (31) 
oracle

>  <origin>  (31) 
adg

>  <m_score__min__energy>  (31) 
-10.869999999999999

>  <m_primary>  (31) 
energy

$$$$
31:0
     RDKit          3D

 62 66  0  0  0  0  0  0  0  0999 V2000
   53.8870   29.6640   52.4740 C   0  0  0  0  0  0  0  0  0  0  0  0
   54.8680   30.5480   52.9990 O   0  0  0  0  0  0  0  0  0  0  0  0
   56.1240   30.7190   52.4080 C   0  0  0  0  0  0  0  0  0  0  0  0
   56.6300   32.0070   52.2150 C   0  0  0  0  0  0  0  0  0  0  0  0
   57.8510   32.1660   51.6390 N   0  0  0  0  0  0  0  0  0  0  0  0
   58.6010   31.1000   51.2470 C   0  0  0  0  0  0  0  0  0  0  0  0
   59.9160   31.3170   50.6110 C   0  0  0  0  0  0  0  0  0  0  0  0
   60.7920   30.4100   50.6530 O   0  0  0  0  0  0  0  0  0  0  0  0
   60.2050   32.5590   49.9480 N   0  0  0  0  0  0  0  0  0  0  0  0
   61.3350   32.7250   49.0750 C   0  0  0  0  0  0  0  0  0  0  0  0
   62.3130   33.6710   49.4130 C   0  0  0  0  0  0  0  0  0  0  0  0
   63.4510   33.8280   48.6200 C   0  0  0  0  0  0  0  0  0  0  0  0
   63.6190   33.0500   47.4740 C   0  0  0  0  0  0  0  0  0  0  0  0
   62.6390   32.1240   47.1070 C   0  0  0  0  0  0  0  0  0  0  0  0
   61.4810   31.9620   47.8880 C   0  0  0  0  0  0  0  0  0  0  0  0
   60.4220   31.0350   47.4180 C   0  0  0  0  0  0  0  0  0  0  0  0
   59.3180   31.5240   46.6970 C   0  0  0  0  0  0  0  0  0  0  0  0
   58.3060   30.6580   46.2750 C   0  0  0  0  0  0  0  0  0  0  0  0
   58.3910   29.2910   46.5590 C   0  0  0  0  0  0  0  0  0  0  0  0
   57.4020   28.4480   46.1550 N   0  0  0  0  0  0  0  0  0  0  0  0
   57.4440   27.1100   46.4050 C   0  0  0  0  0  0  0  0  0  0  0  0
   56.3230   26.2590   45.9590 C   0  0  0  0  0  0  0  0  0  0  0  0
   55.1490   26.7160   46.0060 O   0  0  0  0  0  0  0  0  0  0  0  0
   56.5400   24.9240   45.4760 N   0  0  0  0  0  0  0  0  0  0  0  0
   55.7590   23.8150   46.0370 C   0  0  0  0  0  0  0  0  0  0  0  0
   55.7460   22.6150   45.0790 C   0  0  0  0  0  0  0  0  0  0  0  0
   57.1020   22.2090   44.6340 N   0  0  0  0  0  0  0  0  0  0  0  0
   57.6630   21.1690   45.5110 C   0  0  0  0  0  0  0  0  0  0  0  0
   58.0660   23.3240   44.4470 C   0  0  0  0  0  0  0  0  0  0  0  0
   57.3830   24.6870   44.3040 C   0  0  0  0  0  0  0  0  0  0  0  0
   58.5290   26.5750   47.1200 C   0  0  0  0  0  0  0  0  0  0  0  0
   59.5590   27.4160   47.5460 C   0  0  0  0  0  0  0  0  0  0  0  0
   59.5020   28.7860   47.2670 C   0  0  0  0  0  0  0  0  0  0  0  0
   60.5150   29.6590   47.6900 C   0  0  0  0  0  0  0  0  0  0  0  0
   58.0890   29.8070   51.4420 C   0  0  0  0  0  0  0  0  0  0  0  0
   56.8680   29.6500   52.0150 N   0  0  0  0  0  0  0  0  0  0  0  0
   53.3493   29.1794   53.3023 H   0  0  0  0  0  0  0  0  0  0  0  0
   53.1750   30.2314   51.8567 H   0  0  0  0  0  0  0  0  0  0  0  0
   54.3774   28.8969   51.8567 H   0  0  0  0  0  0  0  0  0  0  0  0
   56.0452   32.8850   52.5266 H   0  0  0  0  0  0  0  0  0  0  0  0
   59.6630   33.4110   50.2130 H   0  0  0  0  0  0  0  0  0  0  0  0
   62.1826   34.2943   50.3099 H   0  0  0  0  0  0  0  0  0  0  0  0
   64.2169   34.5666   48.8991 H   0  0  0  0  0  0  0  0  0  0  0  0
   64.5236   33.1657   46.8590 H   0  0  0  0  0  0  0  0  0  0  0  0
   62.7745   31.5169   46.1998 H   0  0  0  0  0  0  0  0  0  0  0  0
   59.2507   32.5968   46.4634 H   0  0  0  0  0  0  0  0  0  0  0  0
   57.4421   31.0514   45.7192 H   0  0  0  0  0  0  0  0  0  0  0  0
   56.2061   23.5073   46.9938 H   0  0  0  0  0  0  0  0  0  0  0  0
   54.7240   24.1552   46.1887 H   0  0  0  0  0  0  0  0  0  0  0  0
   55.2765   21.7628   45.5921 H   0  0  0  0  0  0  0  0  0  0  0  0
   55.1843   22.9175   44.1829 H   0  0  0  0  0  0  0  0  0  0  0  0
   57.5093   21.4538   46.5623 H   0  0  0  0  0  0  0  0  0  0  0  0
   57.1590   20.2115   45.3131 H   0  0  0  0  0  0  0  0  0  0  0  0
   58.7400   21.0643   45.3131 H   0  0  0  0  0  0  0  0  0  0  0  0
   58.7366   23.3575   45.3183 H   0  0  0  0  0  0  0  0  0  0  0  0
   58.6153   23.1314   43.5136 H   0  0  0  0  0  0  0  0  0  0  0  0
   58.1461   25.4761   44.2333 H   0  0  0  0  0  0  0  0  0  0  0  0
   56.7652   24.6988   43.3940 H   0  0  0  0  0  0  0  0  0  0  0  0
   58.5667   25.4985   47.3431 H   0  0  0  0  0  0  0  0  0  0  0  0
   60.4142   27.0020   48.1003 H   0  0  0  0  0  0  0  0  0  0  0  0
   61.3850   29.2657   48.2363 H   0  0  0  0  0  0  0  0  0  0  0  0
   58.6729   28.9276   51.1328 H   0  0  0  0  0  0  0  0  0  0  0  0
  1  2  1  0
  2  3  1  0
  3  4  2  0
  4  5  1  0
  5  6  2  0
  6  7  1  0
  7  8  2  0
  7  9  1  0
  9 10  1  0
 10 11  2  0
 11 12  1  0
 12 13  2  0
 13 14  1  0
 14 15  2  0
 15 16  1  0
 16 17  2  0
 17 18  1  0
 18 19  2  0
 19 20  1  0
 20 21  2  0
 21 22  1  0
 22 23  2  0
 22 24  1  0
 24 25  1  0
 25 26  1  0
 26 27  1  0
 27 28  1  0
 27 29  1  0
 29 30  1  0
 21 31  1  0
 31 32  2  0
 32 33  1  0
 33 34  2  0
  6 35  1  0
 35 36  2  0
 36  3  1  0
 15 10  1  0
 34 16  1  0
 33 19  1  0
 30 24  1  0
  1 37  1  0
  1 38  1  0
  1 39  1  0
  4 40  1  0
  9 41  1  0
 11 42  1  0
 12 43  1  0
 13 44  1  0
 14 45  1  0
 17 46  1  0
 18 47  1  0
 25 48  1  0
 25 49  1  0
 26 50  1  0
 26 51  1  0
 28 52  1  0
 28 53  1  0
 28 54  1  0
 29 55  1  0
 29 56  1  0
 30 57  1  0
 30 58  1  0
 31 59  1  0
 32 60  1  0
 34 61  1  0
 35 62  1  0
M  END
>  <UniqueID>  (32) 
32

>  <SMILES>  (32) 
COc1cnc(C(=O)Nc2ccccc2-c2ccc3nc(C(=O)N4CCN(C)CC4)ccc3c2)cn1

>  <Energy>  (32) 
92.28870423844705

>  <Genealogy>  (32) 
COc1cnc(C(=O)Nc2ccccc2-c2ccc3nc(C(=O)N4CCN(C)CC4)ccc3c2)cn1 (3D coordinates assigned)
COc1cnc(C(=O)Nc2ccccc2-c2ccc3nc(C(=O)N4CCN(C)CC4)ccc3c2)cn1 (nonaromatic ring conformer: 92.28870423844705 kcal/mol)

>  <smiles>  (32) 
COc1cnc(C(=O)Nc2ccccc2-c2ccc3nc(C(=O)N4CCN(C)CC4)ccc3c2)cn1

>  <score_type>  (32) 
oracle

>  <origin>  (32) 
adg

>  <m_score__min__energy>  (32) 
-9.1999999999999993

>  <m_primary>  (32) 
energy

$$$$
32:0
     RDKit          3D

 55 58  0  0  0  0  0  0  0  0999 V2000
   54.0120   23.6080   45.0480 C   0  0  0  0  0  0  0  0  0  0  0  0
   55.2190   23.9620   44.1690 C   0  0  2  0  0  0  0  0  0  0  0  0
   55.8490   22.7540   43.5220 C   0  0  0  0  0  0  0  0  0  0  0  0
   56.4150   22.8430   42.3960 O   0  0  0  0  0  0  0  0  0  0  0  0
   55.8170   21.5010   44.2130 N   0  0  0  0  0  0  0  0  0  0  0  0
   56.6990   21.1690   45.3250 C   0  0  0  0  0  0  0  0  0  0  0  0
   56.0630   21.5650   46.6300 C   0  0  0  0  0  0  0  0  0  0  0  0
   56.6170   22.5910   47.4150 C   0  0  0  0  0  0  0  0  0  0  0  0
   55.9990   22.9750   48.6090 C   0  0  0  0  0  0  0  0  0  0  0  0
   54.8250   22.3410   49.0270 C   0  0  0  0  0  0  0  0  0  0  0  0
   54.2670   21.3220   48.2500 C   0  0  0  0  0  0  0  0  0  0  0  0
   54.8810   20.9340   47.0550 C   0  0  0  0  0  0  0  0  0  0  0  0
   56.2140   24.6980   44.9590 N   0  0  0  0  0  0  0  0  0  0  0  0
   56.0000   25.7740   45.7540 C   0  0  0  0  0  0  0  0  0  0  0  0
   54.7530   26.3400   45.9910 O   0  0  0  0  0  0  0  0  0  0  0  0
   57.1930   26.2410   46.2650 C   0  0  0  0  0  0  0  0  0  0  0  0
   58.1790   25.4530   45.7340 C   0  0  0  0  0  0  0  0  0  0  0  0
   57.5520   24.5070   44.9420 C   0  0  0  0  0  0  0  0  0  0  0  0
   58.1860   23.5100   44.2050 O   0  0  0  0  0  0  0  0  0  0  0  0
   59.6320   25.6770   45.9970 C   0  0  0  0  0  0  0  0  0  0  0  0
   59.8800   27.0770   46.4100 N   0  0  0  0  0  0  0  0  0  0  0  0
   60.2210   28.0160   45.3160 C   0  0  0  0  0  0  0  0  0  0  0  0
   59.0480   28.8290   44.8080 C   0  0  0  0  0  0  0  0  0  0  0  0
   58.8080   30.1180   45.3170 C   0  0  0  0  0  0  0  0  0  0  0  0
   57.7430   30.8840   44.8350 C   0  0  0  0  0  0  0  0  0  0  0  0
   56.8900   30.3610   43.8620 C   0  0  0  0  0  0  0  0  0  0  0  0
   57.0920   29.0670   43.3790 C   0  0  0  0  0  0  0  0  0  0  0  0
   58.1600   28.2970   43.8530 C   0  0  0  0  0  0  0  0  0  0  0  0
   58.3370   27.0430   43.3620 F   0  0  0  0  0  0  0  0  0  0  0  0
   58.9510   27.5950   47.4480 C   0  0  0  0  0  0  0  0  0  0  0  0
   57.4490   27.4590   47.0890 C   0  0  0  0  0  0  0  0  0  0  0  0
   54.2936   23.6906   46.1081 H   0  0  0  0  0  0  0  0  0  0  0  0
   53.1858   24.3017   44.8330 H   0  0  0  0  0  0  0  0  0  0  0  0
   53.6913   22.5780   44.8330 H   0  0  0  0  0  0  0  0  0  0  0  0
   54.8487   24.5979   43.3514 H   0  0  0  0  0  0  0  0  0  0  0  0
   56.8884   20.0854   45.3273 H   0  0  0  0  0  0  0  0  0  0  0  0
   57.6461   21.7160   45.2071 H   0  0  0  0  0  0  0  0  0  0  0  0
   57.5396   23.0934   47.0889 H   0  0  0  0  0  0  0  0  0  0  0  0
   56.4373   23.7774   49.2206 H   0  0  0  0  0  0  0  0  0  0  0  0
   54.3407   22.6441   49.9670 H   0  0  0  0  0  0  0  0  0  0  0  0
   53.3430   20.8242   48.5791 H   0  0  0  0  0  0  0  0  0  0  0  0
   54.4377   20.1326   46.4457 H   0  0  0  0  0  0  0  0  0  0  0  0
   57.7620   22.6000   44.0760 H   0  0  0  0  0  0  0  0  0  0  0  0
   59.9622   25.0002   46.7988 H   0  0  0  0  0  0  0  0  0  0  0  0
   60.1934   25.4766   45.0726 H   0  0  0  0  0  0  0  0  0  0  0  0
   60.9889   28.7117   45.6852 H   0  0  0  0  0  0  0  0  0  0  0  0
   60.5712   27.4041   44.4716 H   0  0  0  0  0  0  0  0  0  0  0  0
   59.4635   30.5263   46.1004 H   0  0  0  0  0  0  0  0  0  0  0  0
   57.5770   31.8999   45.2228 H   0  0  0  0  0  0  0  0  0  0  0  0
   56.0584   30.9686   43.4757 H   0  0  0  0  0  0  0  0  0  0  0  0
   56.4094   28.6512   42.6233 H   0  0  0  0  0  0  0  0  0  0  0  0
   59.1334   27.0406   48.3804 H   0  0  0  0  0  0  0  0  0  0  0  0
   59.1548   28.6718   47.5423 H   0  0  0  0  0  0  0  0  0  0  0  0
   56.8638   27.3918   48.0180 H   0  0  0  0  0  0  0  0  0  0  0  0
   57.1523   28.3414   46.5031 H   0  0  0  0  0  0  0  0  0  0  0  0
  1  2  1  0
  2  3  1  0
  3  4  2  0
  3  5  1  0
  5  6  1  0
  6  7  1  0
  7  8  2  0
  8  9  1  0
  9 10  2  0
 10 11  1  0
 11 12  2  0
  2 13  1  0
 13 14  1  0
 14 15  1  0
 14 16  2  0
 16 17  1  0
 17 18  2  0
 18 19  1  0
 17 20  1  0
 20 21  1  0
 21 22  1  0
 22 23  1  0
 23 24  2  0
 24 25  1  0
 25 26  2  0
 26 27  1  0
 27 28  2  0
 28 29  1  0
 21 30  1  0
 30 31  1  0
 12  7  1  0
 18 13  1  0
 28 23  1  0
 31 16  1  0
  1 32  1  0
  1 33  1  0
  1 34  1  0
  2 35  1  6
  6 36  1  0
  6 37  1  0
  8 38  1  0
  9 39  1  0
 10 40  1  0
 11 41  1  0
 12 42  1  0
 19 43  1  0
 20 44  1  0
 20 45  1  0
 22 46  1  0
 22 47  1  0
 24 48  1  0
 25 49  1  0
 26 50  1  0
 27 51  1  0
 30 52  1  0
 30 53  1  0
 31 54  1  0
 31 55  1  0
M  CHG  2   5  -1  15  -1
M  END
>  <UniqueID>  (33) 
33

>  <SMILES>  (33) 
C[C@H](C(=O)[N-]Cc1ccccc1)n1c([O-])c2c(c1O)CN(Cc1ccccc1F)CC2

>  <Energy>  (33) 
93.08125324126647

>  <Genealogy>  (33) 
CC(C(=O)[N-]Cc1ccccc1)n1c([O-])c2c(c1O)CN(Cc1ccccc1F)CC2 (protonated)
C[C@H](C(=O)[N-]Cc1ccccc1)n1c([O-])c2c(c1O)CN(Cc1ccccc1F)CC2 (chirality)
C[C@H](C(=O)[N-]Cc1ccccc1)n1c([O-])c2c(c1O)CN(Cc1ccccc1F)CC2 (3D coordinates assigned)
C[C@H](C(=O)[N-]Cc1ccccc1)n1c([O-])c2c(c1O)CN(Cc1ccccc1F)CC2 (nonaromatic ring conformer: 93.08125324126647 kcal/mol)

>  <smiles>  (33) 
CC(C(=O)NCc1ccccc1)n1c(O)c2c(c1O)CN(Cc1ccccc1F)CC2

>  <score_type>  (33) 
oracle

>  <origin>  (33) 
adg

>  <m_score__min__energy>  (33) 
-12.01

>  <m_primary>  (33) 
energy

$$$$
33:0
     RDKit          3D

 47 48  0  0  0  0  0  0  0  0999 V2000
   57.6400   33.8190   45.0960 C   0  0  0  0  0  0  0  0  0  0  0  0
   58.8640   33.2720   45.7550 C   0  0  0  0  0  0  0  0  0  0  0  0
   60.0230   33.9550   45.8570 N   0  0  0  0  0  0  0  0  0  0  0  0
   60.8970   33.1700   46.4700 N   0  0  0  0  0  0  0  0  0  0  0  0
   62.2700   33.5710   46.7560 C   0  0  0  0  0  0  0  0  0  0  0  0
   60.3120   31.9930   46.7890 C   0  0  0  0  0  0  0  0  0  0  0  0
   61.0070   30.8280   47.4310 C   0  0  0  0  0  0  0  0  0  0  0  0
   59.0010   32.0210   46.3360 C   0  0  0  0  0  0  0  0  0  0  0  0
   57.9360   30.9670   46.4890 C   0  0  0  0  0  0  0  0  0  0  0  0
   58.1490   29.8410   45.5570 N   0  0  0  0  0  0  0  0  0  0  0  0
   58.6530   28.6360   46.1700 C   0  0  0  0  0  0  0  0  0  0  0  0
   59.8640   28.3280   46.0180 O   0  0  0  0  0  0  0  0  0  0  0  0
   57.7640   27.7470   46.9970 C   0  0  0  0  0  0  0  0  0  0  0  0
   57.5140   26.4690   46.3160 N   0  0  0  0  0  0  0  0  0  0  0  0
   56.2880   26.0580   45.8740 C   0  0  0  0  0  0  0  0  0  0  0  0
   55.1450   26.8420   45.9930 O   0  0  0  0  0  0  0  0  0  0  0  0
   56.2620   24.8050   45.2750 C   0  0  0  0  0  0  0  0  0  0  0  0
   57.8340   24.1990   45.2690 S   0  0  0  0  0  0  0  0  0  0  0  0
   58.4700   25.5510   46.0330 C   0  0  0  0  0  0  0  0  0  0  0  0
   59.6920   25.7050   46.2920 O   0  0  0  0  0  0  0  0  0  0  0  0
   57.3530   29.7130   44.2980 C   0  0  0  0  0  0  0  0  0  0  0  0
   57.6440   30.8970   43.3470 C   0  0  0  0  0  0  0  0  0  0  0  0
   55.8240   29.7130   44.5640 C   0  0  0  0  0  0  0  0  0  0  0  0
   57.7260   28.3940   43.5880 C   0  0  0  0  0  0  0  0  0  0  0  0
   56.9219   34.1399   45.8650 H   0  0  0  0  0  0  0  0  0  0  0  0
   57.9149   34.6799   44.4689 H   0  0  0  0  0  0  0  0  0  0  0  0
   57.1820   33.0399   44.4689 H   0  0  0  0  0  0  0  0  0  0  0  0
   62.4199   33.6148   47.8449 H   0  0  0  0  0  0  0  0  0  0  0  0
   62.9645   32.8382   46.3194 H   0  0  0  0  0  0  0  0  0  0  0  0
   62.4609   34.5624   46.3194 H   0  0  0  0  0  0  0  0  0  0  0  0
   60.9495   30.9244   48.5253 H   0  0  0  0  0  0  0  0  0  0  0  0
   60.5191   29.8927   47.1191 H   0  0  0  0  0  0  0  0  0  0  0  0
   62.0618   30.8130   47.1191 H   0  0  0  0  0  0  0  0  0  0  0  0
   57.9565   30.5856   47.5206 H   0  0  0  0  0  0  0  0  0  0  0  0
   56.9626   31.4249   46.2593 H   0  0  0  0  0  0  0  0  0  0  0  0
   58.2515   27.5500   47.9632 H   0  0  0  0  0  0  0  0  0  0  0  0
   56.8012   28.2575   47.1470 H   0  0  0  0  0  0  0  0  0  0  0  0
   55.3717   24.2977   44.8750 H   0  0  0  0  0  0  0  0  0  0  0  0
   57.8652   31.7972   43.9392 H   0  0  0  0  0  0  0  0  0  0  0  0
   58.5091   30.6537   42.7126 H   0  0  0  0  0  0  0  0  0  0  0  0
   56.7647   31.0824   42.7126 H   0  0  0  0  0  0  0  0  0  0  0  0
   55.4628   28.6759   44.6268 H   0  0  0  0  0  0  0  0  0  0  0  0
   55.6167   30.2315   45.5117 H   0  0  0  0  0  0  0  0  0  0  0  0
   55.3088   30.2315   43.7420 H   0  0  0  0  0  0  0  0  0  0  0  0
   57.9444   27.6217   44.3402 H   0  0  0  0  0  0  0  0  0  0  0  0
   56.8854   28.0658   42.9589 H   0  0  0  0  0  0  0  0  0  0  0  0
   58.6140   28.5546   42.9589 H   0  0  0  0  0  0  0  0  0  0  0  0
  1  2  1  0
  2  3  2  0
  3  4  1  0
  4  5  1  0
  4  6  1  0
  6  7  1  0
  6  8  2  0
  8  9  1  0
  9 10  1  0
 10 11  1  0
 11 12  2  0
 11 13  1  0
 13 14  1  0
 14 15  1  0
 15 16  1  0
 15 17  2  0
 17 18  1  0
 18 19  1  0
 19 20  2  0
 10 21  1  0
 21 22  1  0
 21 23  1  0
 21 24  1  0
  8  2  1  0
 19 14  1  0
  1 25  1  0
  1 26  1  0
  1 27  1  0
  5 28  1  0
  5 29  1  0
  5 30  1  0
  7 31  1  0
  7 32  1  0
  7 33  1  0
  9 34  1  0
  9 35  1  0
 13 36  1  0
 13 37  1  0
 17 38  1  0
 22 39  1  0
 22 40  1  0
 22 41  1  0
 23 42  1  0
 23 43  1  0
 23 44  1  0
 24 45  1  0
 24 46  1  0
 24 47  1  0
M  CHG  1  16  -1
M  END
>  <UniqueID>  (34) 
34

>  <SMILES>  (34) 
Cc1nn(C)c(C)c1CN(C(=O)Cn1c([O-])csc1=O)C(C)(C)C

>  <Energy>  (34) 
107.12884680209177

>  <Genealogy>  (34) 
Cc1nn(C)c(C)c1CN(C(=O)Cn1c([O-])csc1=O)C(C)(C)C (protonated)
Cc1nn(C)c(C)c1CN(C(=O)Cn1c([O-])csc1=O)C(C)(C)C (3D coordinates assigned)
Cc1nn(C)c(C)c1CN(C(=O)Cn1c([O-])csc1=O)C(C)(C)C (optimized conformer: 107.12884680209177 kcal/mol)

>  <smiles>  (34) 
Cc1nn(C)c(C)c1CN(C(=O)Cn1c(O)csc1=O)C(C)(C)C

>  <score_type>  (34) 
oracle

>  <origin>  (34) 
adg

>  <m_score__min__energy>  (34) 
-10.699999999999999

>  <m_primary>  (34) 
energy

$$$$
34:0
     RDKit          3D

 53 56  0  0  0  0  0  0  0  0999 V2000
   55.3730   30.4980   45.2510 H   0  0  0  0  0  0  0  0  0  0  0  0
   56.0440   29.9430   44.7330 O   0  0  0  0  0  0  0  0  0  0  0  0
   56.6610   28.8120   45.2690 C   0  0  0  0  0  0  0  0  0  0  0  0
   55.8920   27.7360   45.5790 N   0  0  0  0  0  0  0  0  0  0  0  0
   56.4380   26.6020   46.0860 C   0  0  0  0  0  0  0  0  0  0  0  0
   55.7010   25.6230   46.3690 O   0  0  0  0  0  0  0  0  0  0  0  0
   57.7780   26.5190   46.2810 N   0  0  0  0  0  0  0  0  0  0  0  0
   58.5940   27.5640   45.9890 C   0  0  0  0  0  0  0  0  0  0  0  0
   59.8350   27.4500   46.1710 O   0  0  0  0  0  0  0  0  0  0  0  0
   58.0490   28.7640   45.4990 C   0  0  0  0  0  0  0  0  0  0  0  0
   58.9230   29.8930   45.1360 C   0  0  0  0  0  0  0  0  0  0  0  0
   59.7798   29.6734   44.4821 H   0  0  0  0  0  0  0  0  0  0  0  0
   58.7660   31.1710   45.5340 C   0  0  0  0  0  0  0  0  0  0  0  0
   59.4260   31.8770   46.5570 C   0  0  0  0  0  0  0  0  0  0  0  0
   60.3570   31.3480   47.6230 C   0  0  0  0  0  0  0  0  0  0  0  0
   60.2789   31.9821   48.5185 H   0  0  0  0  0  0  0  0  0  0  0  0
   60.0700   30.3136   47.8633 H   0  0  0  0  0  0  0  0  0  0  0  0
   61.8060   31.3560   47.1250 C   0  0  0  0  0  0  0  0  0  0  0  0
   62.3391   30.5025   47.5691 H   0  0  0  0  0  0  0  0  0  0  0  0
   61.7890   31.2862   46.0274 H   0  0  0  0  0  0  0  0  0  0  0  0
   62.5230   32.6260   47.5000 C   0  0  0  0  0  0  0  0  0  0  0  0
   62.6000   33.5660   46.6630 O   0  0  0  0  0  0  0  0  0  0  0  0
   63.1420   32.7750   48.7920 N   0  0  0  0  0  0  0  0  0  0  0  0
   64.5030   32.2680   49.0040 C   0  0  0  0  0  0  0  0  0  0  0  0
   65.0780   32.3954   48.0749 H   0  0  0  0  0  0  0  0  0  0  0  0
   64.4301   31.2070   49.2850 H   0  0  0  0  0  0  0  0  0  0  0  0
   65.2120   32.9980   50.1200 C   0  0  0  0  0  0  0  0  0  0  0  0
   66.5670   32.7170   50.3620 C   0  0  0  0  0  0  0  0  0  0  0  0
   67.0941   31.9861   49.7312 H   0  0  0  0  0  0  0  0  0  0  0  0
   67.2500   33.3590   51.3980 C   0  0  0  0  0  0  0  0  0  0  0  0
   68.3116   33.1342   51.5784 H   0  0  0  0  0  0  0  0  0  0  0  0
   66.5870   34.2850   52.2040 C   0  0  0  0  0  0  0  0  0  0  0  0
   67.1279   34.7910   53.0173 H   0  0  0  0  0  0  0  0  0  0  0  0
   65.2390   34.5710   51.9810 C   0  0  0  0  0  0  0  0  0  0  0  0
   64.7250   35.3099   52.6134 H   0  0  0  0  0  0  0  0  0  0  0  0
   64.5350   33.9210   50.9540 C   0  0  0  0  0  0  0  0  0  0  0  0
   63.0940   34.2860   50.7030 C   0  0  0  0  0  0  0  0  0  0  0  0
   63.0567   35.2008   50.0933 H   0  0  0  0  0  0  0  0  0  0  0  0
   62.6014   34.4459   51.6734 H   0  0  0  0  0  0  0  0  0  0  0  0
   62.3610   33.1680   49.9680 C   0  0  0  0  0  0  0  0  0  0  0  0
   61.3701   33.5241   49.6499 H   0  0  0  0  0  0  0  0  0  0  0  0
   62.2376   32.3034   50.6368 H   0  0  0  0  0  0  0  0  0  0  0  0
   58.8600   33.1540   46.5680 C   0  0  0  0  0  0  0  0  0  0  0  0
   59.1280   34.2390   47.5750 C   0  0  0  0  0  0  0  0  0  0  0  0
   59.0268   33.8295   48.5909 H   0  0  0  0  0  0  0  0  0  0  0  0
   60.1485   34.6251   47.4352 H   0  0  0  0  0  0  0  0  0  0  0  0
   58.4046   35.0558   47.4352 H   0  0  0  0  0  0  0  0  0  0  0  0
   57.8860   33.1620   45.5780 C   0  0  0  0  0  0  0  0  0  0  0  0
   57.0600   34.1670   45.2750 C   0  0  0  0  0  0  0  0  0  0  0  0
   57.1347   35.1222   45.8153 H   0  0  0  0  0  0  0  0  0  0  0  0
   56.3051   34.0394   44.4852 H   0  0  0  0  0  0  0  0  0  0  0  0
   57.8460   31.9700   44.9550 N   0  0  0  0  0  0  0  0  0  0  0  0
   57.1980   31.7050   44.1780 H   0  0  0  0  0  0  0  0  0  0  0  0
  1  2  1  0
  2  3  1  0
  3  4  1  0
  4  5  1  0
  5  6  2  0
  5  7  1  0
  7  8  1  0
  8  9  2  0
  8 10  1  0
 10 11  1  0
 11 12  1  0
 11 13  2  0
 13 14  1  0
 14 15  1  0
 15 16  1  0
 15 17  1  0
 15 18  1  0
 18 19  1  0
 18 20  1  0
 18 21  1  0
 21 22  2  0
 21 23  1  0
 23 24  1  0
 24 25  1  0
 24 26  1  0
 24 27  1  0
 27 28  2  0
 28 29  1  0
 28 30  1  0
 30 31  1  0
 30 32  2  0
 32 33  1  0
 32 34  1  0
 34 35  1  0
 34 36  2  0
 36 37  1  0
 37 38  1  0
 37 39  1  0
 37 40  1  0
 40 41  1  0
 40 42  1  0
 14 43  2  0
 43 44  1  0
 44 45  1  0
 44 46  1  0
 44 47  1  0
 43 48  1  0
 48 49  2  0
 49 50  1  0
 49 51  1  0
 48 52  1  0
 52 53  1  0
 10  3  2  0
 52 13  1  0
 40 23  1  0
 36 27  1  0
M  CHG  2   4  -1   7  -1
M  END
>  <UniqueID>  (35) 
35

>  <SMILES>  (35) 
C=c1[nH]/c(=C/c2c(O)[n-]c(=O)[n-]c2=O)c(CCC(=O)N2CCc3ccccc3C2)c1C

>  <Energy>  (35) 
97.31470852662308

>  <Genealogy>  (35) 
C=c1[nH]c(=Cc2c(O)[n-]c(=O)[n-]c2=O)c(CCC(=O)N2CCc3ccccc3C2)c1C (protonated)
C=c1[nH]/c(=C/c2c(O)[n-]c(=O)[n-]c2=O)c(CCC(=O)N2CCc3ccccc3C2)c1C (cis-trans isomerization)
C=c1[nH]/c(=C/c2c(O)[n-]c(=O)[n-]c2=O)c(CCC(=O)N2CCc3ccccc3C2)c1C (3D coordinates assigned)
C=c1[nH]/c(=C/c2c(O)[n-]c(=O)[n-]c2=O)c(CCC(=O)N2CCc3ccccc3C2)c1C (nonaromatic ring conformer: 97.31470852662308 kcal/mol)

>  <smiles>  (35) 
C=c1[nH]c(=Cc2c(O)[nH]c(=O)[nH]c2=O)c(CCC(=O)N2CCc3ccccc3C2)c1C

>  <score_type>  (35) 
oracle

>  <origin>  (35) 
adg

>  <m_score__min__energy>  (35) 
-14.119999999999999

>  <m_primary>  (35) 
energy

$$$$
35:0
     RDKit          3D

 30 31  0  0  0  0  0  0  0  0999 V2000
   56.5920   29.3450   42.9140 C   0  0  0  0  0  0  0  0  0  0  0  0
   56.0330   30.0050   44.1380 C   0  0  0  0  0  0  0  0  0  0  0  0
   55.2220   29.3570   44.8500 O   0  0  0  0  0  0  0  0  0  0  0  0
   56.4110   31.3260   44.5600 N   0  0  0  0  0  0  0  0  0  0  0  0
   57.3940   31.6900   45.3330 C   0  0  0  0  0  0  0  0  0  0  0  0
   57.9370   30.8430   46.2350 N   0  0  0  0  0  0  0  0  0  0  0  0
   58.9200   31.4330   46.9640 C   0  0  0  0  0  0  0  0  0  0  0  0
   59.1560   32.7630   46.6430 C   0  0  0  0  0  0  0  0  0  0  0  0
   60.3240   33.8230   47.4110 S   0  0  0  0  0  0  0  0  0  0  0  0
   59.5840   34.7950   48.2870 O   0  0  0  0  0  0  0  0  0  0  0  0
   61.0740   34.5900   46.3560 O   0  0  0  0  0  0  0  0  0  0  0  0
   61.4370   32.8780   48.3760 N   0  0  0  0  0  0  0  0  0  0  0  0
   62.4460   33.7370   49.0090 C   0  0  0  0  0  0  0  0  0  0  0  0
   63.6620   33.7710   48.0950 C   0  0  0  0  0  0  0  0  0  0  0  0
   63.4970   32.5940   47.1490 C   0  0  0  0  0  0  0  0  0  0  0  0
   62.1870   31.9280   47.5450 C   0  0  0  0  0  0  0  0  0  0  0  0
   58.1030   33.2230   45.4180 S   0  0  0  0  0  0  0  0  0  0  0  0
   57.2762   28.5372   43.2131 H   0  0  0  0  0  0  0  0  0  0  0  0
   55.7697   28.9262   42.3153 H   0  0  0  0  0  0  0  0  0  0  0  0
   57.1404   30.0872   42.3153 H   0  0  0  0  0  0  0  0  0  0  0  0
   59.4829   30.9005   47.7447 H   0  0  0  0  0  0  0  0  0  0  0  0
   60.8880   32.3670   49.1060 H   0  0  0  0  0  0  0  0  0  0  0  0
   62.0454   34.7533   49.1379 H   0  0  0  0  0  0  0  0  0  0  0  0
   62.7191   33.3454   50.0000 H   0  0  0  0  0  0  0  0  0  0  0  0
   63.6920   34.7151   47.5313 H   0  0  0  0  0  0  0  0  0  0  0  0
   64.6006   33.7059   48.6648 H   0  0  0  0  0  0  0  0  0  0  0  0
   63.4501   32.9431   46.1069 H   0  0  0  0  0  0  0  0  0  0  0  0
   64.3444   31.8960   47.2177 H   0  0  0  0  0  0  0  0  0  0  0  0
   61.6065   31.6782   46.6447 H   0  0  0  0  0  0  0  0  0  0  0  0
   62.3798   30.9985   48.1007 H   0  0  0  0  0  0  0  0  0  0  0  0
  1  2  1  0
  2  3  2  0
  2  4  1  0
  4  5  2  3
  5  6  1  0
  6  7  1  0
  7  8  2  0
  8  9  1  0
  9 10  2  0
  9 11  2  0
  9 12  1  0
 12 13  1  0
 13 14  1  0
 14 15  1  0
 15 16  1  0
  8 17  1  0
 17  5  1  0
 16 12  1  0
  1 18  1  0
  1 19  1  0
  1 20  1  0
  7 21  1  0
 12 22  1  0
 13 23  1  0
 13 24  1  0
 14 25  1  0
 14 26  1  0
 15 27  1  0
 15 28  1  0
 16 29  1  0
 16 30  1  0
M  CHG  2   6  -1  12   1
M  END
>  <UniqueID>  (36) 
36

>  <SMILES>  (36) 
CC(=O)N=c1[n-]cc(S(=O)(=O)[NH+]2CCCC2)s1

>  <Energy>  (36) 
65.03121184566538

>  <Genealogy>  (36) 
CC(=O)N=c1[n-]cc(S(=O)(=O)[NH+]2CCCC2)s1 (protonated)
CC(=O)N=c1[n-]cc(S(=O)(=O)[NH+]2CCCC2)s1 (3D coordinates assigned)
CC(=O)N=c1[n-]cc(S(=O)(=O)[NH+]2CCCC2)s1 (nonaromatic ring conformer: 65.03121184566538 kcal/mol)

>  <smiles>  (36) 
CC(=O)N=c1[nH]cc(S(=O)(=O)N2CCCC2)s1

>  <score_type>  (36) 
oracle

>  <origin>  (36) 
adg

>  <m_score__min__energy>  (36) 
-7.1600000000000001

>  <m_primary>  (36) 
energy

$$$$
36:0
     RDKit          3D

 60 63  0  0  0  0  0  0  0  0999 V2000
   60.6540   27.9520   46.9086 H   0  0  0  0  0  0  0  0  0  0  0  0
   59.9640   27.3700   46.2800 C   0  0  0  0  0  0  0  0  0  0  0  0
   59.9651   26.2713   46.3335 H   0  0  0  0  0  0  0  0  0  0  0  0
   59.1200   28.0010   45.4470 C   0  0  0  0  0  0  0  0  0  0  0  0
   58.1860   27.4030   44.5870 C   0  0  0  0  0  0  0  0  0  0  0  0
   57.7460   26.1330   44.5000 C   0  0  0  0  0  0  0  0  0  0  0  0
   57.8375   25.6350   43.5235 H   0  0  0  0  0  0  0  0  0  0  0  0
   57.1530   25.3540   45.6000 C   0  0  0  0  0  0  0  0  0  0  0  0
   57.7540   24.3190   46.2170 N   0  0  0  0  0  0  0  0  0  0  0  0
   56.9140   24.0300   47.2340 C   0  0  0  0  0  0  0  0  0  0  0  0
   57.1270   23.0900   48.0430 O   0  0  0  0  0  0  0  0  0  0  0  0
   55.8320   24.8340   47.3200 N   0  0  0  0  0  0  0  0  0  0  0  0
   56.0080   25.6740   46.2870 C   0  0  0  0  0  0  0  0  0  0  0  0
   55.1410   26.7160   45.9820 O   0  0  0  0  0  0  0  0  0  0  0  0
   57.6900   28.4200   43.7900 C   0  0  0  0  0  0  0  0  0  0  0  0
   56.9703   28.3126   42.9650 H   0  0  0  0  0  0  0  0  0  0  0  0
   58.2690   29.5940   44.2260 C   0  0  0  0  0  0  0  0  0  0  0  0
   57.8820   30.9360   43.7360 C   0  0  0  0  0  0  0  0  0  0  0  0
   57.6050   31.0850   42.5160 O   0  0  0  0  0  0  0  0  0  0  0  0
   57.8920   32.0830   44.6070 N   0  0  0  0  0  0  0  0  0  0  0  0
   57.4100   31.9870   45.9920 C   0  0  0  0  0  0  0  0  0  0  0  0
   56.3826   32.3754   46.0516 H   0  0  0  0  0  0  0  0  0  0  0  0
   57.4206   30.9354   46.3146 H   0  0  0  0  0  0  0  0  0  0  0  0
   58.3220   32.8120   46.9010 C   0  0  0  0  0  0  0  0  0  0  0  0
   57.9445   32.7505   47.9324 H   0  0  0  0  0  0  0  0  0  0  0  0
   59.3394   32.4010   46.8234 H   0  0  0  0  0  0  0  0  0  0  0  0
   58.3750   34.3020   46.4760 C   0  0  0  0  0  0  0  0  0  0  0  0
   57.6450   34.8474   47.0921 H   0  0  0  0  0  0  0  0  0  0  0  0
   59.7600   34.8640   46.7430 C   0  0  0  0  0  0  0  0  0  0  0  0
   60.0090   36.0540   46.4050 O   0  0  0  0  0  0  0  0  0  0  0  0
   60.8300   34.0450   47.2740 N   0  0  0  0  0  0  0  0  0  0  0  0
   60.9040   33.8220   48.6990 C   0  0  0  0  0  0  0  0  0  0  0  0
   62.1160   33.4510   49.3090 C   0  0  0  0  0  0  0  0  0  0  0  0
   63.0192   33.3175   48.6955 H   0  0  0  0  0  0  0  0  0  0  0  0
   62.1780   33.2510   50.6920 C   0  0  0  0  0  0  0  0  0  0  0  0
   63.1291   32.9606   51.1622 H   0  0  0  0  0  0  0  0  0  0  0  0
   61.0360   33.4190   51.4770 C   0  0  0  0  0  0  0  0  0  0  0  0
   61.0879   33.2617   52.5645 H   0  0  0  0  0  0  0  0  0  0  0  0
   59.8270   33.7870   50.8810 C   0  0  0  0  0  0  0  0  0  0  0  0
   58.9273   33.9187   51.5000 H   0  0  0  0  0  0  0  0  0  0  0  0
   59.7590   33.9880   49.5000 C   0  0  0  0  0  0  0  0  0  0  0  0
   58.8046   34.2778   49.0361 H   0  0  0  0  0  0  0  0  0  0  0  0
   61.8240   33.4120   46.3920 C   0  0  0  0  0  0  0  0  0  0  0  0
   61.9934   32.3774   46.7250 H   0  0  0  0  0  0  0  0  0  0  0  0
   61.4385   33.4269   45.3619 H   0  0  0  0  0  0  0  0  0  0  0  0
   63.1500   34.1720   46.4270 C   0  0  0  0  0  0  0  0  0  0  0  0
   63.4474   34.3425   47.4722 H   0  0  0  0  0  0  0  0  0  0  0  0
   63.9250   33.5810   45.9170 H   0  0  0  0  0  0  0  0  0  0  0  0
   63.0317   35.1394   45.9170 H   0  0  0  0  0  0  0  0  0  0  0  0
   57.9200   34.5410   45.0110 C   0  0  0  0  0  0  0  0  0  0  0  0
   56.8264   34.6588   44.9989 H   0  0  0  0  0  0  0  0  0  0  0  0
   58.4356   35.4434   44.6506 H   0  0  0  0  0  0  0  0  0  0  0  0
   58.2980   33.3900   44.0670 C   0  0  0  0  0  0  0  0  0  0  0  0
   57.7994   33.5455   43.0989 H   0  0  0  0  0  0  0  0  0  0  0  0
   59.3921   33.3873   43.9531 H   0  0  0  0  0  0  0  0  0  0  0  0
   59.1460   29.3430   45.2270 N   0  0  0  0  0  0  0  0  0  0  0  0
   60.0020   30.3270   45.9030 C   0  0  0  0  0  0  0  0  0  0  0  0
   59.9024   30.2125   46.9925 H   0  0  0  0  0  0  0  0  0  0  0  0
   61.0499   30.1632   45.6114 H   0  0  0  0  0  0  0  0  0  0  0  0
   59.6946   31.3421   45.6114 H   0  0  0  0  0  0  0  0  0  0  0  0
  1  2  1  0
  2  3  1  0
  2  4  2  0
  4  5  1  0
  5  6  2  0
  6  7  1  0
  6  8  1  0
  8  9  1  0
  9 10  1  0
 10 11  2  0
 10 12  1  0
 12 13  1  0
 13 14  1  0
  5 15  1  0
 15 16  1  0
 15 17  2  0
 17 18  1  0
 18 19  2  0
 18 20  1  0
 20 21  1  0
 21 22  1  0
 21 23  1  0
 21 24  1  0
 24 25  1  0
 24 26  1  0
 24 27  1  0
 27 28  1  0
 27 29  1  0
 29 30  2  0
 29 31  1  0
 31 32  1  0
 32 33  2  0
 33 34  1  0
 33 35  1  0
 35 36  1  0
 35 37  2  0
 37 38  1  0
 37 39  1  0
 39 40  1  0
 39 41  2  0
 41 42  1  0
 31 43  1  0
 43 44  1  0
 43 45  1  0
 43 46  1  0
 46 47  1  0
 46 48  1  0
 46 49  1  0
 27 50  1  0
 50 51  1  0
 50 52  1  0
 50 53  1  0
 53 54  1  0
 53 55  1  0
 17 56  1  0
 56 57  1  0
 57 58  1  0
 57 59  1  0
 57 60  1  0
 56  4  1  0
 13  8  2  0
 53 20  1  0
 41 32  1  0
M  CHG  3   9  -1  12  -1  14  -1
M  END
>  <UniqueID>  (37) 
37

>  <SMILES>  (37) 
C=c1/c(=C\c2[n-]c(=O)[n-]c2[O-])cc(C(=O)N2CCC(C(=O)N(CC)c3ccccc3)CC2)n1C

>  <Energy>  (37) 
145.54298998126887

>  <Genealogy>  (37) 
C=c1c(=Cc2[n-]c(=O)[n-]c2[O-])cc(C(=O)N2CCC(C(=O)N(CC)c3ccccc3)CC2)n1C (protonated)
C=c1/c(=C\c2[n-]c(=O)[n-]c2[O-])cc(C(=O)N2CCC(C(=O)N(CC)c3ccccc3)CC2)n1C (cis-trans isomerization)
C=c1/c(=C\c2[n-]c(=O)[n-]c2[O-])cc(C(=O)N2CCC(C(=O)N(CC)c3ccccc3)CC2)n1C (3D coordinates assigned)
C=c1/c(=C\c2[n-]c(=O)[n-]c2[O-])cc(C(=O)N2CCC(C(=O)N(CC)c3ccccc3)CC2)n1C (nonaromatic ring conformer: 145.54298998126887 kcal/mol)

>  <smiles>  (37) 
C=c1c(=Cc2[nH]c(=O)[nH]c2O)cc(C(=O)N2CCC(C(=O)N(CC)c3ccccc3)CC2)n1C

>  <score_type>  (37) 
oracle

>  <origin>  (37) 
adg

>  <m_score__min__energy>  (37) 
-19.190000000000001

>  <m_primary>  (37) 
energy

$$$$
37:0
     RDKit          3D

 60 62  0  0  0  0  0  0  0  0999 V2000
   61.6250   30.8440   48.4330 C   0  0  0  0  0  0  0  0  0  0  0  0
   62.7010   31.3210   47.4310 C   0  0  0  0  0  0  0  0  0  0  0  0
   63.6200   32.3270   48.0160 N   0  0  0  0  0  0  0  0  0  0  0  0
   64.0080   31.9730   49.3990 C   0  0  0  0  0  0  0  0  0  0  0  0
   65.2720   32.7100   49.8640 C   0  0  0  0  0  0  0  0  0  0  0  0
   63.0990   33.7000   47.9300 C   0  0  0  0  0  0  0  0  0  0  0  0
   63.7410   34.5420   47.3120 O   0  0  0  0  0  0  0  0  0  0  0  0
   61.7600   34.1330   48.5170 C   0  0  0  0  0  0  0  0  0  0  0  0
   60.6110   34.0000   47.5540 C   0  0  0  0  0  0  0  0  0  0  0  0
   60.8490   34.0930   46.1730 C   0  0  0  0  0  0  0  0  0  0  0  0
   59.8070   33.8900   45.2680 C   0  0  0  0  0  0  0  0  0  0  0  0
   58.5110   33.5980   45.7290 C   0  0  0  0  0  0  0  0  0  0  0  0
   57.4300   33.2330   44.7450 C   0  0  0  0  0  0  0  0  0  0  0  0
   57.2130   31.7470   44.7710 C   0  0  0  0  0  0  0  0  0  0  0  0
   58.1720   30.7950   44.4860 C   0  0  0  0  0  0  0  0  0  0  0  0
   57.5620   29.5950   44.4490 N   0  0  0  0  0  0  0  0  0  0  0  0
   58.1610   28.3020   44.1080 C   0  0  0  0  0  0  0  0  0  0  0  0
   58.7030   27.6260   45.3380 C   0  0  0  0  0  0  0  0  0  0  0  0
   59.5420   28.2490   46.0410 O   0  0  0  0  0  0  0  0  0  0  0  0
   58.2570   26.3200   45.7550 N   0  0  0  0  0  0  0  0  0  0  0  0
   57.6260   25.3520   44.8530 C   0  0  0  0  0  0  0  0  0  0  0  0
   56.1400   25.2040   45.2600 C   0  0  0  0  0  0  0  0  0  0  0  0
   55.8880   25.4000   46.6500 O   0  0  0  0  0  0  0  0  0  0  0  0
   57.0070   25.0410   47.4460 C   0  0  0  0  0  0  0  0  0  0  0  0
   58.1770   26.0080   47.1900 C   0  0  0  0  0  0  0  0  0  0  0  0
   56.2570   29.8570   44.6700 C   0  0  0  0  0  0  0  0  0  0  0  0
   55.3440   28.9760   44.6540 O   0  0  0  0  0  0  0  0  0  0  0  0
   55.9920   31.1670   44.8710 N   0  0  0  0  0  0  0  0  0  0  0  0
   58.2620   33.5640   47.1140 C   0  0  0  0  0  0  0  0  0  0  0  0
   59.3000   33.7910   48.0210 C   0  0  0  0  0  0  0  0  0  0  0  0
   61.9844   31.0033   49.4604 H   0  0  0  0  0  0  0  0  0  0  0  0
   60.6985   31.4157   48.2758 H   0  0  0  0  0  0  0  0  0  0  0  0
   61.4265   29.7735   48.2758 H   0  0  0  0  0  0  0  0  0  0  0  0
   63.2912   30.4510   47.1073 H   0  0  0  0  0  0  0  0  0  0  0  0
   62.1815   31.7964   46.5860 H   0  0  0  0  0  0  0  0  0  0  0  0
   64.4910   32.2770   47.4490 H   0  0  0  0  0  0  0  0  0  0  0  0
   63.1799   32.2328   50.0748 H   0  0  0  0  0  0  0  0  0  0  0  0
   64.2245   30.8947   49.4189 H   0  0  0  0  0  0  0  0  0  0  0  0
   65.3025   32.7278   50.9634 H   0  0  0  0  0  0  0  0  0  0  0  0
   66.1620   32.1892   49.4809 H   0  0  0  0  0  0  0  0  0  0  0  0
   65.2572   33.7410   49.4809 H   0  0  0  0  0  0  0  0  0  0  0  0
   61.5489   33.5105   49.3990 H   0  0  0  0  0  0  0  0  0  0  0  0
   61.8477   35.1998   48.7705 H   0  0  0  0  0  0  0  0  0  0  0  0
   61.8588   34.3263   45.8044 H   0  0  0  0  0  0  0  0  0  0  0  0
   60.0003   33.9588   44.1873 H   0  0  0  0  0  0  0  0  0  0  0  0
   56.4959   33.7452   45.0192 H   0  0  0  0  0  0  0  0  0  0  0  0
   57.7336   33.5424   43.7340 H   0  0  0  0  0  0  0  0  0  0  0  0
   59.2428   30.9833   44.3190 H   0  0  0  0  0  0  0  0  0  0  0  0
   57.3951   27.6587   43.6503 H   0  0  0  0  0  0  0  0  0  0  0  0
   58.9887   28.4705   43.4034 H   0  0  0  0  0  0  0  0  0  0  0  0
   57.6933   25.7117   43.8157 H   0  0  0  0  0  0  0  0  0  0  0  0
   58.1365   24.3802   44.9236 H   0  0  0  0  0  0  0  0  0  0  0  0
   55.5534   25.9443   44.6962 H   0  0  0  0  0  0  0  0  0  0  0  0
   55.8537   24.1667   45.0320 H   0  0  0  0  0  0  0  0  0  0  0  0
   56.7256   25.0851   48.5085 H   0  0  0  0  0  0  0  0  0  0  0  0
   57.3217   24.0207   47.1815 H   0  0  0  0  0  0  0  0  0  0  0  0
   58.0151   26.9362   47.7576 H   0  0  0  0  0  0  0  0  0  0  0  0
   59.1168   25.5366   47.5133 H   0  0  0  0  0  0  0  0  0  0  0  0
   57.2466   33.3580   47.4834 H   0  0  0  0  0  0  0  0  0  0  0  0
   59.0924   33.8064   49.1011 H   0  0  0  0  0  0  0  0  0  0  0  0
  1  2  1  0
  2  3  1  0
  3  4  1  0
  4  5  1  0
  3  6  1  0
  6  7  2  0
  6  8  1  0
  8  9  1  0
  9 10  2  0
 10 11  1  0
 11 12  2  0
 12 13  1  0
 13 14  1  0
 14 15  2  0
 15 16  1  0
 16 17  1  0
 17 18  1  0
 18 19  2  0
 18 20  1  0
 20 21  1  0
 21 22  1  0
 22 23  1  0
 23 24  1  0
 24 25  1  0
 16 26  1  0
 26 27  2  0
 26 28  1  0
 12 29  1  0
 29 30  2  0
 30  9  1  0
 28 14  1  0
 25 20  1  0
  1 31  1  0
  1 32  1  0
  1 33  1  0
  2 34  1  0
  2 35  1  0
  3 36  1  0
  4 37  1  0
  4 38  1  0
  5 39  1  0
  5 40  1  0
  5 41  1  0
  8 42  1  0
  8 43  1  0
 10 44  1  0
 11 45  1  0
 13 46  1  0
 13 47  1  0
 15 48  1  0
 17 49  1  0
 17 50  1  0
 21 51  1  0
 21 52  1  0
 22 53  1  0
 22 54  1  0
 24 55  1  0
 24 56  1  0
 25 57  1  0
 25 58  1  0
 29 59  1  0
 30 60  1  0
M  CHG  2   3   1  28  -1
M  END
>  <UniqueID>  (38) 
38

>  <SMILES>  (38) 
CC[NH+](CC)C(=O)Cc1ccc(Cc2cn(CC(=O)N3CCOCC3)c(=O)[n-]2)cc1

>  <Energy>  (38) 
104.57712518803159

>  <Genealogy>  (38) 
CC[NH+](CC)C(=O)Cc1ccc(Cc2cn(CC(=O)N3CCOCC3)c(=O)[n-]2)cc1 (protonated)
CC[NH+](CC)C(=O)Cc1ccc(Cc2cn(CC(=O)N3CCOCC3)c(=O)[n-]2)cc1 (3D coordinates assigned)
CC[NH+](CC)C(=O)Cc1ccc(Cc2cn(CC(=O)N3CCOCC3)c(=O)[n-]2)cc1 (nonaromatic ring conformer: 104.57712518803159 kcal/mol)

>  <smiles>  (38) 
CCN(CC)C(=O)Cc1ccc(Cc2cn(CC(=O)N3CCOCC3)c(=O)[nH]2)cc1

>  <score_type>  (38) 
oracle

>  <origin>  (38) 
adg

>  <m_score__min__energy>  (38) 
-9.9499999999999993

>  <m_primary>  (38) 
energy

$$$$
38:0
     RDKit          3D

 56 58  0  0  0  0  0  0  0  0999 V2000
   55.4260   29.7280   43.8130 C   0  0  0  0  0  0  0  0  0  0  0  0
   56.4970   30.3610   42.9280 C   0  0  0  0  0  0  0  0  0  0  0  0
   57.3200   31.3520   43.7050 C   0  0  0  0  0  0  0  0  0  0  0  0
   57.7640   32.5350   43.0910 C   0  0  0  0  0  0  0  0  0  0  0  0
   58.5170   33.4630   43.8130 C   0  0  0  0  0  0  0  0  0  0  0  0
   58.8440   33.2170   45.1490 C   0  0  0  0  0  0  0  0  0  0  0  0
   58.4390   32.0240   45.7690 C   0  0  0  0  0  0  0  0  0  0  0  0
   58.7550   31.8100   47.1550 N   0  0  0  0  0  0  0  0  0  0  0  0
   59.2320   32.8430   48.0310 C   0  0  0  0  0  0  0  0  0  0  0  0
   59.0240   34.0580   47.7550 O   0  0  0  0  0  0  0  0  0  0  0  0
   59.8800   32.4720   49.3440 C   0  0  1  0  0  0  0  0  0  0  0  0
   58.8470   32.4730   50.4980 C   0  0  0  0  0  0  0  0  0  0  0  0
   59.3000   31.5580   51.6380 C   0  0  0  0  0  0  0  0  0  0  0  0
   59.3480   30.1020   51.1450 C   0  0  0  0  0  0  0  0  0  0  0  0
   59.8880   30.0110   49.7760 N   0  0  0  0  0  0  0  0  0  0  0  0
   59.9450   28.7270   49.1300 C   0  0  0  0  0  0  0  0  0  0  0  0
   60.4000   27.7310   49.7620 O   0  0  0  0  0  0  0  0  0  0  0  0
   59.4880   28.5500   47.7330 C   0  0  0  0  0  0  0  0  0  0  0  0
   60.3550   28.8160   46.6630 C   0  0  0  0  0  0  0  0  0  0  0  0
   59.9260   28.6370   45.3460 C   0  0  0  0  0  0  0  0  0  0  0  0
   58.6260   28.1980   45.0870 C   0  0  0  0  0  0  0  0  0  0  0  0
   57.7460   27.9230   46.1380 C   0  0  0  0  0  0  0  0  0  0  0  0
   56.4270   27.4570   45.8200 N   0  0  0  0  0  0  0  0  0  0  0  0
   55.8860   25.8080   45.8780 S   0  0  0  0  0  0  0  0  0  0  0  0
   56.7220   24.8470   44.6300 C   0  0  0  0  0  0  0  0  0  0  0  0
   56.2210   25.2350   47.2280 O   0  0  0  0  0  0  0  0  0  0  0  0
   54.3950   25.7440   45.6860 O   0  0  0  0  0  0  0  0  0  0  0  0
   58.1870   28.0940   47.4650 C   0  0  0  0  0  0  0  0  0  0  0  0
   60.6550   31.1350   49.2190 C   0  0  0  0  0  0  0  0  0  0  0  0
   57.6700   31.0940   45.0420 C   0  0  0  0  0  0  0  0  0  0  0  0
   55.6863   29.8819   44.8706 H   0  0  0  0  0  0  0  0  0  0  0  0
   54.4530   30.1962   43.6030 H   0  0  0  0  0  0  0  0  0  0  0  0
   55.3670   28.6498   43.6030 H   0  0  0  0  0  0  0  0  0  0  0  0
   57.1567   29.5708   42.5402 H   0  0  0  0  0  0  0  0  0  0  0  0
   56.0012   30.8890   42.1001 H   0  0  0  0  0  0  0  0  0  0  0  0
   57.5174   32.7310   42.0371 H   0  0  0  0  0  0  0  0  0  0  0  0
   58.8540   34.3912   43.3283 H   0  0  0  0  0  0  0  0  0  0  0  0
   59.4212   33.9611   45.7175 H   0  0  0  0  0  0  0  0  0  0  0  0
   58.5670   30.8660   47.5660 H   0  0  0  0  0  0  0  0  0  0  0  0
   60.6240   33.2409   49.5996 H   0  0  0  0  0  0  0  0  0  0  0  0
   58.7364   33.4981   50.8814 H   0  0  0  0  0  0  0  0  0  0  0  0
   57.8869   32.1019   50.1102 H   0  0  0  0  0  0  0  0  0  0  0  0
   60.3014   31.8630   51.9759 H   0  0  0  0  0  0  0  0  0  0  0  0
   58.5888   31.6368   52.4734 H   0  0  0  0  0  0  0  0  0  0  0  0
   59.9886   29.5169   51.8212 H   0  0  0  0  0  0  0  0  0  0  0  0
   58.3214   29.7069   51.1373 H   0  0  0  0  0  0  0  0  0  0  0  0
   61.3781   29.1674   46.8622 H   0  0  0  0  0  0  0  0  0  0  0  0
   60.6130   28.8421   44.5118 H   0  0  0  0  0  0  0  0  0  0  0  0
   58.2915   28.0674   44.0473 H   0  0  0  0  0  0  0  0  0  0  0  0
   57.3703   24.1018   45.1142 H   0  0  0  0  0  0  0  0  0  0  0  0
   55.9781   24.3337   44.0030 H   0  0  0  0  0  0  0  0  0  0  0  0
   57.3333   25.5127   44.0030 H   0  0  0  0  0  0  0  0  0  0  0  0
   57.5061   27.8683   48.2989 H   0  0  0  0  0  0  0  0  0  0  0  0
   61.6071   31.2220   49.7631 H   0  0  0  0  0  0  0  0  0  0  0  0
   60.8296   30.9369   48.1512 H   0  0  0  0  0  0  0  0  0  0  0  0
   57.3416   30.1609   45.5231 H   0  0  0  0  0  0  0  0  0  0  0  0
  1  2  1  0
  2  3  1  0
  3  4  2  0
  4  5  1  0
  5  6  2  0
  6  7  1  0
  7  8  1  0
  8  9  1  0
  9 10  2  0
  9 11  1  0
 11 12  1  0
 12 13  1  0
 13 14  1  0
 14 15  1  0
 15 16  1  0
 16 17  2  0
 16 18  1  0
 18 19  2  0
 19 20  1  0
 20 21  2  0
 21 22  1  0
 22 23  1  0
 23 24  1  0
 24 25  1  0
 24 26  2  0
 24 27  2  0
 22 28  2  0
 15 29  1  0
  7 30  2  0
 30  3  1  0
 29 11  1  0
 28 18  1  0
  1 31  1  0
  1 32  1  0
  1 33  1  0
  2 34  1  0
  2 35  1  0
  4 36  1  0
  5 37  1  0
  6 38  1  0
  8 39  1  0
 11 40  1  1
 12 41  1  0
 12 42  1  0
 13 43  1  0
 13 44  1  0
 14 45  1  0
 14 46  1  0
 19 47  1  0
 20 48  1  0
 21 49  1  0
 25 50  1  0
 25 51  1  0
 25 52  1  0
 28 53  1  0
 29 54  1  0
 29 55  1  0
 30 56  1  0
M  CHG  1  23  -1
M  END
>  <UniqueID>  (39) 
39

>  <SMILES>  (39) 
CCc1cccc(NC(=O)[C@H]2CCCN(C(=O)c3cccc([N-]S(C)(=O)=O)c3)C2)c1

>  <Energy>  (39) 
63.148636619004115

>  <Genealogy>  (39) 
CCc1cccc(NC(=O)C2CCCN(C(=O)c3cccc([N-]S(C)(=O)=O)c3)C2)c1 (protonated)
CCc1cccc(NC(=O)[C@H]2CCCN(C(=O)c3cccc([N-]S(C)(=O)=O)c3)C2)c1 (chirality)
CCc1cccc(NC(=O)[C@H]2CCCN(C(=O)c3cccc([N-]S(C)(=O)=O)c3)C2)c1 (3D coordinates assigned)
CCc1cccc(NC(=O)[C@H]2CCCN(C(=O)c3cccc([N-]S(C)(=O)=O)c3)C2)c1 (nonaromatic ring conformer: 63.148636619004115 kcal/mol)

>  <smiles>  (39) 
CCc1cccc(NC(=O)C2CCCN(C(=O)c3cccc(NS(C)(=O)=O)c3)C2)c1

>  <score_type>  (39) 
oracle

>  <origin>  (39) 
adg

>  <m_score__min__energy>  (39) 
-11.17

>  <m_primary>  (39) 
energy

$$$$
39:0
     RDKit          3D

 48 51  0  0  0  0  0  0  0  0999 V2000
   57.5513   33.9279   43.8395 H   0  0  0  0  0  0  0  0  0  0  0  0
   57.9280   33.5700   44.8090 C   0  0  0  0  0  0  0  0  0  0  0  0
   58.4420   34.4920   45.6400 C   0  0  0  0  0  0  0  0  0  0  0  0
   57.9588   35.4799   45.6625 H   0  0  0  0  0  0  0  0  0  0  0  0
   59.6030   34.2830   46.5240 C   0  0  0  0  0  0  0  0  0  0  0  0
   60.8270   33.8880   45.9720 C   0  0  0  0  0  0  0  0  0  0  0  0
   60.9205   33.7586   44.8836 H   0  0  0  0  0  0  0  0  0  0  0  0
   61.9320   33.6570   46.7980 C   0  0  0  0  0  0  0  0  0  0  0  0
   62.8868   33.3388   46.3540 H   0  0  0  0  0  0  0  0  0  0  0  0
   61.8340   33.8280   48.1940 C   0  0  0  0  0  0  0  0  0  0  0  0
   62.9550   33.5220   49.0590 N   0  0  0  0  0  0  0  0  0  0  0  0
   64.0680   32.7040   48.5630 C   0  0  0  0  0  0  0  0  0  0  0  0
   64.6285   32.2921   49.4152 H   0  0  0  0  0  0  0  0  0  0  0  0
   63.6730   31.8797   47.9510 H   0  0  0  0  0  0  0  0  0  0  0  0
   64.7368   33.3271   47.9510 H   0  0  0  0  0  0  0  0  0  0  0  0
   63.0180   34.0680   50.4190 C   0  0  0  0  0  0  0  0  0  0  0  0
   62.9235   33.2493   51.1475 H   0  0  0  0  0  0  0  0  0  0  0  0
   63.9811   34.5791   50.5647 H   0  0  0  0  0  0  0  0  0  0  0  0
   62.1966   34.7850   50.5647 H   0  0  0  0  0  0  0  0  0  0  0  0
   60.6130   34.2830   48.7320 C   0  0  0  0  0  0  0  0  0  0  0  0
   60.5239   34.4507   49.8155 H   0  0  0  0  0  0  0  0  0  0  0  0
   59.5150   34.5230   47.9020 C   0  0  0  0  0  0  0  0  0  0  0  0
   58.5765   34.9023   48.3324 H   0  0  0  0  0  0  0  0  0  0  0  0
   57.8210   32.1190   45.0750 C   0  0  0  0  0  0  0  0  0  0  0  0
   56.7180   31.4050   44.7200 N   0  0  0  0  0  0  0  0  0  0  0  0
   57.0390   30.1630   45.1140 C   0  0  0  0  0  0  0  0  0  0  0  0
   56.3040   28.9940   45.0130 C   0  0  0  0  0  0  0  0  0  0  0  0
   55.1570   28.9820   44.4920 O   0  0  0  0  0  0  0  0  0  0  0  0
   56.8630   27.8480   45.4940 N   0  0  0  0  0  0  0  0  0  0  0  0
   58.1080   27.8420   46.0680 C   0  0  0  0  0  0  0  0  0  0  0  0
   58.5770   26.7530   46.4970 O   0  0  0  0  0  0  0  0  0  0  0  0
   58.8330   29.0110   46.1780 N   0  0  0  0  0  0  0  0  0  0  0  0
   60.1690   29.0460   46.7980 C   0  0  0  0  0  0  0  0  0  0  0  0
   60.5064   28.0166   46.9889 H   0  0  0  0  0  0  0  0  0  0  0  0
   60.8652   29.5530   46.1137 H   0  0  0  0  0  0  0  0  0  0  0  0
   60.1280   29.8030   48.0990 C   0  0  0  0  0  0  0  0  0  0  0  0
   58.9070   30.0090   48.7640 C   0  0  0  0  0  0  0  0  0  0  0  0
   57.9730   29.6263   48.3267 H   0  0  0  0  0  0  0  0  0  0  0  0
   58.8760   30.6990   49.9800 C   0  0  0  0  0  0  0  0  0  0  0  0
   57.9175   30.8627   50.4942 H   0  0  0  0  0  0  0  0  0  0  0  0
   60.0610   31.1810   50.5430 C   0  0  0  0  0  0  0  0  0  0  0  0
   60.0341   31.7244   51.4990 H   0  0  0  0  0  0  0  0  0  0  0  0
   61.2800   30.9730   49.8920 C   0  0  0  0  0  0  0  0  0  0  0  0
   62.2121   31.3530   50.3355 H   0  0  0  0  0  0  0  0  0  0  0  0
   61.3150   30.2820   48.6770 C   0  0  0  0  0  0  0  0  0  0  0  0
   62.2771   30.1127   48.1713 H   0  0  0  0  0  0  0  0  0  0  0  0
   58.2680   30.1460   45.6740 C   0  0  0  0  0  0  0  0  0  0  0  0
   58.8010   31.3760   45.6580 N   0  0  0  0  0  0  0  0  0  0  0  0
  1  2  1  0
  2  3  2  0
  3  4  1  0
  3  5  1  0
  5  6  2  0
  6  7  1  0
  6  8  1  0
  8  9  1  0
  8 10  2  0
 10 11  1  0
 11 12  1  0
 12 13  1  0
 12 14  1  0
 12 15  1  0
 11 16  1  0
 16 17  1  0
 16 18  1  0
 16 19  1  0
 10 20  1  0
 20 21  1  0
 20 22  2  0
 22 23  1  0
  2 24  1  0
 24 25  2  0
 25 26  1  0
 26 27  1  0
 27 28  2  0
 27 29  1  0
 29 30  1  0
 30 31  2  0
 30 32  1  0
 32 33  1  0
 33 34  1  0
 33 35  1  0
 33 36  1  0
 36 37  2  0
 37 38  1  0
 37 39  1  0
 39 40  1  0
 39 41  2  0
 41 42  1  0
 41 43  1  0
 43 44  1  0
 43 45  2  0
 45 46  1  0
 32 47  1  0
 47 48  1  0
 22  5  1  0
 48 24  1  0
 47 26  2  0
 45 36  1  0
M  CHG  2  29  -1  48  -1
M  END
>  <UniqueID>  (40) 
40

>  <SMILES>  (40) 
CN(C)c1ccc(/C=C\c2nc3c(=O)[n-]c(=O)n(Cc4ccccc4)c3[n-]2)cc1

>  <Energy>  (40) 
96.58086226946813

>  <Genealogy>  (40) 
CN(C)c1ccc(C=Cc2nc3c(=O)[n-]c(=O)n(Cc4ccccc4)c3[n-]2)cc1 (protonated)
CN(C)c1ccc(/C=C\c2nc3c(=O)[n-]c(=O)n(Cc4ccccc4)c3[n-]2)cc1 (cis-trans isomerization)
CN(C)c1ccc(/C=C\c2nc3c(=O)[n-]c(=O)n(Cc4ccccc4)c3[n-]2)cc1 (3D coordinates assigned)
CN(C)c1ccc(/C=C\c2nc3c(=O)[n-]c(=O)n(Cc4ccccc4)c3[n-]2)cc1 (optimized conformer: 96.58086226946813 kcal/mol)

>  <smiles>  (40) 
CN(C)c1ccc(C=Cc2nc3c(=O)[nH]c(=O)n(Cc4ccccc4)c3[nH]2)cc1

>  <score_type>  (40) 
oracle

>  <origin>  (40) 
adg

>  <m_score__min__energy>  (40) 
-10.51

>  <m_primary>  (40) 
energy

$$$$
40:0
     RDKit          3D

 31 32  0  0  0  0  0  0  0  0999 V2000
   55.3020   26.1070   46.0020 N   0  0  0  0  0  0  0  0  0  0  0  0
   56.2470   26.7740   46.0470 C   0  0  0  0  0  0  0  0  0  0  0  0
   57.4260   27.6120   46.0990 C   0  0  0  0  0  0  0  0  0  0  0  0
   57.4290   28.9430   45.6050 C   0  0  0  0  0  0  0  0  0  0  0  0
   56.2360   29.5900   44.9880 C   0  0  0  0  0  0  0  0  0  0  0  0
   55.1520   28.9660   44.8410 O   0  0  0  0  0  0  0  0  0  0  0  0
   56.3030   30.9110   44.5560 O   0  0  0  0  0  0  0  0  0  0  0  0
   58.6160   29.6880   45.7020 C   0  0  0  0  0  0  0  0  0  0  0  0
   59.7570   29.1250   46.2740 C   0  0  0  0  0  0  0  0  0  0  0  0
   61.2650   30.0890   46.3930 S   0  0  0  0  0  0  0  0  0  0  0  0
   60.8160   30.8080   48.0070 C   0  0  0  0  0  0  0  0  0  0  0  0
   60.2550   32.1850   47.8020 C   0  0  0  0  0  0  0  0  0  0  0  0
   60.2130   33.0970   48.8670 C   0  0  0  0  0  0  0  0  0  0  0  0
   59.6590   34.3670   48.6840 C   0  0  0  0  0  0  0  0  0  0  0  0
   59.1350   34.7310   47.4420 C   0  0  0  0  0  0  0  0  0  0  0  0
   59.1530   33.8300   46.3700 C   0  0  0  0  0  0  0  0  0  0  0  0
   58.5940   34.2440   45.1140 N   0  0  0  0  0  0  0  0  0  0  0  0
   58.3850   33.4570   44.1350 C   0  0  0  0  0  0  0  0  0  0  0  0
   58.1190   32.4630   42.8950 S   0  0  0  0  0  0  0  0  0  0  0  0
   59.7130   32.5490   46.5580 C   0  0  0  0  0  0  0  0  0  0  0  0
   59.7300   27.8470   46.7350 N   0  0  0  0  0  0  0  0  0  0  0  0
   58.6050   27.0870   46.6640 C   0  0  0  0  0  0  0  0  0  0  0  0
   58.6280   25.9050   47.1090 O   0  0  0  0  0  0  0  0  0  0  0  0
   58.6459   30.7209   45.3249 H   0  0  0  0  0  0  0  0  0  0  0  0
   60.0612   30.1732   48.4941 H   0  0  0  0  0  0  0  0  0  0  0  0
   61.7109   30.8675   48.6439 H   0  0  0  0  0  0  0  0  0  0  0  0
   60.6174   32.8117   49.8494 H   0  0  0  0  0  0  0  0  0  0  0  0
   59.6357   35.0813   49.5202 H   0  0  0  0  0  0  0  0  0  0  0  0
   58.7044   35.7338   47.3044 H   0  0  0  0  0  0  0  0  0  0  0  0
   59.7254   31.8304   45.7252 H   0  0  0  0  0  0  0  0  0  0  0  0
   60.5960   27.4420   47.1590 H   0  0  0  0  0  0  0  0  0  0  0  0
  1  2  3  0
  2  3  1  0
  3  4  2  0
  4  5  1  0
  5  6  2  0
  5  7  1  0
  4  8  1  0
  8  9  2  0
  9 10  1  0
 10 11  1  0
 11 12  1  0
 12 13  2  0
 13 14  1  0
 14 15  2  0
 15 16  1  0
 16 17  1  0
 17 18  2  0
 18 19  2  0
 16 20  2  0
  9 21  1  0
 21 22  1  0
 22 23  2  0
 22  3  1  0
 20 12  1  0
  8 24  1  0
 11 25  1  0
 11 26  1  0
 13 27  1  0
 14 28  1  0
 15 29  1  0
 20 30  1  0
 21 31  1  0
M  CHG  1   7  -1
M  END
>  <UniqueID>  (41) 
41

>  <SMILES>  (41) 
N#Cc1c(C(=O)[O-])cc(SCc2cccc(N=C=S)c2)[nH]c1=O

>  <Energy>  (41) 
32.72078404594933

>  <Genealogy>  (41) 
N#Cc1c(C(=O)[O-])cc(SCc2cccc(N=C=S)c2)[nH]c1=O (protonated)
N#Cc1c(C(=O)[O-])cc(SCc2cccc(N=C=S)c2)[nH]c1=O (3D coordinates assigned)
N#Cc1c(C(=O)[O-])cc(SCc2cccc(N=C=S)c2)[nH]c1=O (optimized conformer: 32.72078404594933 kcal/mol)

>  <smiles>  (41) 
N#Cc1c(C(=O)O)cc(SCc2cccc(N=C=S)c2)[nH]c1=O

>  <score_type>  (41) 
oracle

>  <origin>  (41) 
adg

>  <m_score__min__energy>  (41) 
-10.210000000000001

>  <m_primary>  (41) 
energy

$$$$
41:0
     RDKit          3D

 45 47  0  0  0  0  0  0  0  0999 V2000
   57.4120   31.5070   42.6860 C   0  0  0  0  0  0  0  0  0  0  0  0
   58.0850   32.1610   43.8600 C   0  0  0  0  0  0  0  0  0  0  0  0
   58.3960   33.4790   43.7720 N   0  0  0  0  0  0  0  0  0  0  0  0
   58.9780   34.1620   44.7870 C   0  0  0  0  0  0  0  0  0  0  0  0
   59.2180   35.3900   44.6410 O   0  0  0  0  0  0  0  0  0  0  0  0
   59.2920   33.5080   45.9910 C   0  0  0  0  0  0  0  0  0  0  0  0
   59.8760   34.2900   47.1070 C   0  0  0  0  0  0  0  0  0  0  0  0
   59.2370   35.2860   47.5450 O   0  0  0  0  0  0  0  0  0  0  0  0
   61.1730   33.9190   47.7290 C   0  0  0  0  0  0  0  0  0  0  0  0
   62.2540   33.4780   46.9430 C   0  0  0  0  0  0  0  0  0  0  0  0
   63.4720   33.1330   47.5390 C   0  0  0  0  0  0  0  0  0  0  0  0
   63.6210   33.2170   48.9270 C   0  0  0  0  0  0  0  0  0  0  0  0
   65.1480   32.7840   49.6730 Cl  0  0  0  0  0  0  0  0  0  0  0  0
   62.5510   33.6440   49.7180 C   0  0  0  0  0  0  0  0  0  0  0  0
   61.3340   33.9900   49.1260 C   0  0  0  0  0  0  0  0  0  0  0  0
   59.0380   32.1180   46.1040 C   0  0  0  0  0  0  0  0  0  0  0  0
   59.4340   31.3570   47.3550 C   0  0  0  0  0  0  0  0  0  0  0  0
   58.3980   31.4440   45.0350 C   0  0  0  0  0  0  0  0  0  0  0  0
   58.0400   30.0100   45.1480 C   0  0  0  0  0  0  0  0  0  0  0  0
   59.0430   29.0390   45.2830 C   0  0  0  0  0  0  0  0  0  0  0  0
   58.7030   27.6880   45.3940 C   0  0  0  0  0  0  0  0  0  0  0  0
   57.3560   27.2970   45.3790 C   0  0  0  0  0  0  0  0  0  0  0  0
   56.9280   25.5940   45.4990 S   0  0  0  0  0  0  0  0  0  0  0  0
   57.0890   24.8300   43.9020 C   0  0  0  0  0  0  0  0  0  0  0  0
   57.8390   24.9080   46.4800 O   0  0  0  0  0  0  0  0  0  0  0  0
   55.5110   25.4570   45.9810 O   0  0  0  0  0  0  0  0  0  0  0  0
   56.3550   28.2670   45.2400 C   0  0  0  0  0  0  0  0  0  0  0  0
   56.6940   29.6180   45.1280 C   0  0  0  0  0  0  0  0  0  0  0  0
   56.6669   30.7829   43.0471 H   0  0  0  0  0  0  0  0  0  0  0  0
   56.9124   32.2738   42.0758 H   0  0  0  0  0  0  0  0  0  0  0  0
   58.1642   30.9856   42.0758 H   0  0  0  0  0  0  0  0  0  0  0  0
   62.1404   33.4040   45.8514 H   0  0  0  0  0  0  0  0  0  0  0  0
   64.3129   32.7955   46.9154 H   0  0  0  0  0  0  0  0  0  0  0  0
   62.6674   33.7078   50.8100 H   0  0  0  0  0  0  0  0  0  0  0  0
   60.4950   34.3205   49.7560 H   0  0  0  0  0  0  0  0  0  0  0  0
   59.1349   31.9318   48.2439 H   0  0  0  0  0  0  0  0  0  0  0  0
   58.9304   30.3791   47.3641 H   0  0  0  0  0  0  0  0  0  0  0  0
   60.5239   31.2083   47.3641 H   0  0  0  0  0  0  0  0  0  0  0  0
   60.1004   29.3417   45.3016 H   0  0  0  0  0  0  0  0  0  0  0  0
   59.4935   26.9296   45.4934 H   0  0  0  0  0  0  0  0  0  0  0  0
   57.3143   23.7607   44.0281 H   0  0  0  0  0  0  0  0  0  0  0  0
   56.1473   24.9431   43.3448 H   0  0  0  0  0  0  0  0  0  0  0  0
   57.9050   25.3135   43.3448 H   0  0  0  0  0  0  0  0  0  0  0  0
   55.2978   27.9640   45.2189 H   0  0  0  0  0  0  0  0  0  0  0  0
   55.9032   30.3755   45.0239 H   0  0  0  0  0  0  0  0  0  0  0  0
  1  2  1  0
  2  3  1  0
  3  4  1  0
  4  5  2  0
  4  6  1  0
  6  7  1  0
  7  8  2  0
  7  9  1  0
  9 10  2  0
 10 11  1  0
 11 12  2  0
 12 13  1  0
 12 14  1  0
 14 15  2  0
  6 16  2  0
 16 17  1  0
 16 18  1  0
 18 19  1  0
 19 20  2  0
 20 21  1  0
 21 22  2  0
 22 23  1  0
 23 24  1  0
 23 25  2  0
 23 26  2  0
 22 27  1  0
 27 28  2  0
 18  2  2  0
 28 19  1  0
 15  9  1  0
  1 29  1  0
  1 30  1  0
  1 31  1  0
 10 32  1  0
 11 33  1  0
 14 34  1  0
 15 35  1  0
 17 36  1  0
 17 37  1  0
 17 38  1  0
 20 39  1  0
 21 40  1  0
 24 41  1  0
 24 42  1  0
 24 43  1  0
 27 44  1  0
 28 45  1  0
M  CHG  1   3  -1
M  END
>  <UniqueID>  (42) 
42

>  <SMILES>  (42) 
Cc1[n-]c(=O)c(C(=O)c2ccc(Cl)cc2)c(C)c1-c1ccc(S(C)(=O)=O)cc1

>  <Energy>  (42) 
63.30208782676601

>  <Genealogy>  (42) 
Cc1[n-]c(=O)c(C(=O)c2ccc(Cl)cc2)c(C)c1-c1ccc(S(C)(=O)=O)cc1 (protonated)
Cc1[n-]c(=O)c(C(=O)c2ccc(Cl)cc2)c(C)c1-c1ccc(S(C)(=O)=O)cc1 (3D coordinates assigned)
Cc1[n-]c(=O)c(C(=O)c2ccc(Cl)cc2)c(C)c1-c1ccc(S(C)(=O)=O)cc1 (optimized conformer: 63.30208782676601 kcal/mol)

>  <smiles>  (42) 
Cc1[nH]c(=O)c(C(=O)c2ccc(Cl)cc2)c(C)c1-c1ccc(S(C)(=O)=O)cc1

>  <score_type>  (42) 
oracle

>  <origin>  (42) 
adg

>  <m_score__min__energy>  (42) 
-10.67

>  <m_primary>  (42) 
energy

$$$$
42:0
     RDKit          3D

 56 60  0  0  0  0  0  0  0  0999 V2000
   57.1230   32.5420   52.3820 C   0  0  0  0  0  0  0  0  0  0  0  0
   56.1260   31.0860   52.6040 S   0  0  0  0  0  0  0  0  0  0  0  0
   54.7480   31.3490   52.0680 O   0  0  0  0  0  0  0  0  0  0  0  0
   56.0240   30.7480   54.0660 O   0  0  0  0  0  0  0  0  0  0  0  0
   56.8210   29.7530   51.7380 N   0  0  0  0  0  0  0  0  0  0  0  0
   58.0970   29.5320   51.6470 C   0  0  0  0  0  0  0  0  0  0  0  0
   58.7860   30.0330   50.5890 N   0  0  0  0  0  0  0  0  0  0  0  0
   60.1210   29.8190   50.4450 C   0  0  0  0  0  0  0  0  0  0  0  0
   60.8240   30.4120   49.2910 C   0  0  0  0  0  0  0  0  0  0  0  0
   61.9480   31.6550   49.4300 S   0  0  0  0  0  0  0  0  0  0  0  0
   62.3450   31.6450   47.7910 C   0  0  0  0  0  0  0  0  0  0  0  0
   63.3570   32.5160   47.0950 C   0  0  0  0  0  0  0  0  0  0  0  0
   63.6470   33.8440   47.7770 C   0  0  0  0  0  0  0  0  0  0  0  0
   62.8460   33.8120   46.4840 C   0  0  0  0  0  0  0  0  0  0  0  0
   61.6260   30.7120   47.1290 N   0  0  0  0  0  0  0  0  0  0  0  0
   60.7710   30.0290   47.9400 C   0  0  0  0  0  0  0  0  0  0  0  0
   59.8400   29.0310   47.3740 C   0  0  0  0  0  0  0  0  0  0  0  0
   60.0520   27.6550   47.5670 C   0  0  0  0  0  0  0  0  0  0  0  0
   59.1470   26.7240   47.0520 C   0  0  0  0  0  0  0  0  0  0  0  0
   58.0220   27.1550   46.3450 C   0  0  0  0  0  0  0  0  0  0  0  0
   57.8000   28.5270   46.1400 C   0  0  0  0  0  0  0  0  0  0  0  0
   56.6360   29.0040   45.4520 N   0  0  0  0  0  0  0  0  0  0  0  0
   56.5460   30.2040   44.6730 C   0  0  0  0  0  0  0  0  0  0  0  0
   55.4130   30.7250   44.4890 O   0  0  0  0  0  0  0  0  0  0  0  0
   57.7680   30.8840   44.1150 C   0  0  0  0  0  0  0  0  0  0  0  0
   58.0540   32.1570   44.8650 C   0  0  0  0  0  0  0  0  0  0  0  0
   57.7760   32.2440   46.2400 C   0  0  0  0  0  0  0  0  0  0  0  0
   58.0140   33.4350   46.9330 C   0  0  0  0  0  0  0  0  0  0  0  0
   58.5210   34.5490   46.2570 C   0  0  0  0  0  0  0  0  0  0  0  0
   58.7880   34.4740   44.8870 C   0  0  0  0  0  0  0  0  0  0  0  0
   58.5510   33.2850   44.1910 C   0  0  0  0  0  0  0  0  0  0  0  0
   58.6950   29.4580   46.6830 C   0  0  0  0  0  0  0  0  0  0  0  0
   60.8080   29.0950   51.4280 C   0  0  0  0  0  0  0  0  0  0  0  0
   60.0880   28.5850   52.5070 C   0  0  0  0  0  0  0  0  0  0  0  0
   58.7530   28.8080   52.5970 N   0  0  0  0  0  0  0  0  0  0  0  0
   57.4017   32.9490   53.3652 H   0  0  0  0  0  0  0  0  0  0  0  0
   58.0330   32.2813   51.8217 H   0  0  0  0  0  0  0  0  0  0  0  0
   56.5509   33.2962   51.8217 H   0  0  0  0  0  0  0  0  0  0  0  0
   63.9574   31.6736   46.7211 H   0  0  0  0  0  0  0  0  0  0  0  0
   63.1501   34.0951   48.7257 H   0  0  0  0  0  0  0  0  0  0  0  0
   64.5562   34.3620   48.1161 H   0  0  0  0  0  0  0  0  0  0  0  0
   61.7699   34.0399   46.4978 H   0  0  0  0  0  0  0  0  0  0  0  0
   62.9361   34.2971   45.5009 H   0  0  0  0  0  0  0  0  0  0  0  0
   60.9343   27.3099   48.1260 H   0  0  0  0  0  0  0  0  0  0  0  0
   59.3207   25.6484   47.2036 H   0  0  0  0  0  0  0  0  0  0  0  0
   57.3082   26.4183   45.9478 H   0  0  0  0  0  0  0  0  0  0  0  0
   58.6313   30.2085   44.2067 H   0  0  0  0  0  0  0  0  0  0  0  0
   57.5867   31.1280   43.0578 H   0  0  0  0  0  0  0  0  0  0  0  0
   57.3696   31.3718   46.7730 H   0  0  0  0  0  0  0  0  0  0  0  0
   57.8022   33.4955   48.0107 H   0  0  0  0  0  0  0  0  0  0  0  0
   58.7098   35.4848   46.8035 H   0  0  0  0  0  0  0  0  0  0  0  0
   59.1851   35.3516   44.3559 H   0  0  0  0  0  0  0  0  0  0  0  0
   58.7545   33.2324   43.1113 H   0  0  0  0  0  0  0  0  0  0  0  0
   58.4987   30.5341   46.5668 H   0  0  0  0  0  0  0  0  0  0  0  0
   61.8931   28.9324   51.3500 H   0  0  0  0  0  0  0  0  0  0  0  0
   60.6021   28.0019   53.2852 H   0  0  0  0  0  0  0  0  0  0  0  0
  1  2  1  0
  2  3  2  0
  2  4  2  0
  2  5  1  0
  5  6  2  3
  6  7  1  0
  7  8  2  0
  8  9  1  0
  9 10  1  0
 10 11  1  0
 11 12  1  0
 12 13  1  0
 13 14  1  0
 11 15  2  0
 15 16  1  0
 16 17  1  0
 17 18  2  0
 18 19  1  0
 19 20  2  0
 20 21  1  0
 21 22  1  0
 22 23  1  0
 23 24  2  0
 23 25  1  0
 25 26  1  0
 26 27  2  0
 27 28  1  0
 28 29  2  0
 29 30  1  0
 30 31  2  0
 21 32  2  0
  8 33  1  0
 33 34  2  0
 34 35  1  0
 35  6  1  0
 16  9  2  0
 32 17  1  0
 14 12  1  0
 31 26  1  0
  1 36  1  0
  1 37  1  0
  1 38  1  0
 12 39  1  0
 13 40  1  0
 13 41  1  0
 14 42  1  0
 14 43  1  0
 18 44  1  0
 19 45  1  0
 20 46  1  0
 25 47  1  0
 25 48  1  0
 27 49  1  0
 28 50  1  0
 29 51  1  0
 30 52  1  0
 31 53  1  0
 32 54  1  0
 33 55  1  0
 34 56  1  0
M  CHG  2  22  -1  35  -1
M  END
>  <UniqueID>  (43) 
43

>  <SMILES>  (43) 
CS(=O)(=O)N=c1nc(-c2sc(C3CC3)nc2-c2cccc([N-]C(=O)Cc3ccccc3)c2)cc[n-]1

>  <Energy>  (43) 
367.2996005956672

>  <Genealogy>  (43) 
CS(=O)(=O)N=c1nc(-c2sc(C3CC3)nc2-c2cccc([N-]C(=O)Cc3ccccc3)c2)cc[n-]1 (protonated)
CS(=O)(=O)N=c1nc(-c2sc(C3CC3)nc2-c2cccc([N-]C(=O)Cc3ccccc3)c2)cc[n-]1 (3D coordinates assigned)
CS(=O)(=O)N=c1nc(-c2sc(C3CC3)nc2-c2cccc([N-]C(=O)Cc3ccccc3)c2)cc[n-]1 (nonaromatic ring conformer: 367.2996005956672 kcal/mol)

>  <smiles>  (43) 
CS(=O)(=O)N=c1nc(-c2sc(C3CC3)nc2-c2cccc(NC(=O)Cc3ccccc3)c2)cc[nH]1

>  <score_type>  (43) 
oracle

>  <origin>  (43) 
adg

>  <m_score__min__energy>  (43) 
-13.18

>  <m_primary>  (43) 
energy

$$$$
43:0
     RDKit          3D

 49 51  0  0  0  0  0  0  0  0999 V2000
   58.2350   25.5160   46.4870 C   0  0  0  0  0  0  0  0  0  0  0  0
   57.9820   26.6980   45.9230 C   0  0  0  0  0  0  0  0  0  0  0  0
   59.0690   27.5170   45.4760 N   0  0  0  0  0  0  0  0  0  0  0  0
   58.8760   28.6710   44.9050 C   0  0  0  0  0  0  0  0  0  0  0  0
   57.5080   29.2130   44.6770 C   0  0  0  0  0  0  0  0  0  0  0  0
   57.3630   30.5360   44.0270 C   0  0  0  0  0  0  0  0  0  0  0  0
   56.8120   30.6150   42.8960 O   0  0  0  0  0  0  0  0  0  0  0  0
   57.8270   31.7340   44.6750 N   0  0  0  0  0  0  0  0  0  0  0  0
   57.3850   33.0430   44.1650 C   0  0  0  0  0  0  0  0  0  0  0  0
   57.8220   34.1860   45.0880 C   0  0  0  0  0  0  0  0  0  0  0  0
   59.3030   34.0350   45.4470 C   0  0  0  0  0  0  0  0  0  0  0  0
   59.6300   32.6640   46.1030 C   0  0  1  0  0  0  0  0  0  0  0  0
   60.0220   32.8330   47.5570 C   0  0  0  0  0  0  0  0  0  0  0  0
   59.1130   33.0260   48.4110 O   0  0  0  0  0  0  0  0  0  0  0  0
   61.4380   32.7620   48.0050 C   0  0  0  0  0  0  0  0  0  0  0  0
   62.3410   33.7850   47.6560 C   0  0  0  0  0  0  0  0  0  0  0  0
   63.6790   33.7170   48.0480 C   0  0  0  0  0  0  0  0  0  0  0  0
   64.1360   32.6290   48.7890 C   0  0  0  0  0  0  0  0  0  0  0  0
   63.2580   31.6040   49.1420 C   0  0  0  0  0  0  0  0  0  0  0  0
   61.9020   31.6570   48.7560 C   0  0  0  0  0  0  0  0  0  0  0  0
   60.9880   30.6510   49.1200 O   0  0  0  0  0  0  0  0  0  0  0  0
   60.6210   29.5220   48.3260 C   0  0  0  0  0  0  0  0  0  0  0  0
   59.1240   29.2530   48.4300 C   0  0  0  0  0  0  0  0  0  0  0  0
   58.4770   31.6420   45.9890 C   0  0  0  0  0  0  0  0  0  0  0  0
   56.4320   28.5110   45.0870 C   0  0  0  0  0  0  0  0  0  0  0  0
   55.1430   28.9970   44.8840 O   0  0  0  0  0  0  0  0  0  0  0  0
   56.6080   27.2030   45.7400 C   0  0  0  0  0  0  0  0  0  0  0  0
   55.6050   26.5410   46.1250 O   0  0  0  0  0  0  0  0  0  0  0  0
   57.4048   24.8824   46.8323 H   0  0  0  0  0  0  0  0  0  0  0  0
   59.2739   25.1748   46.6068 H   0  0  0  0  0  0  0  0  0  0  0  0
   59.7465   29.2612   44.5825 H   0  0  0  0  0  0  0  0  0  0  0  0
   57.8209   33.2031   43.1678 H   0  0  0  0  0  0  0  0  0  0  0  0
   56.2860   33.0403   44.1180 H   0  0  0  0  0  0  0  0  0  0  0  0
   57.6680   35.1469   44.5753 H   0  0  0  0  0  0  0  0  0  0  0  0
   57.2228   34.1537   46.0099 H   0  0  0  0  0  0  0  0  0  0  0  0
   59.8989   34.1353   44.5278 H   0  0  0  0  0  0  0  0  0  0  0  0
   59.5463   34.8181   46.1802 H   0  0  0  0  0  0  0  0  0  0  0  0
   60.4818   32.2589   45.5370 H   0  0  0  0  0  0  0  0  0  0  0  0
   61.9885   34.6458   47.0689 H   0  0  0  0  0  0  0  0  0  0  0  0
   64.3738   34.5237   47.7715 H   0  0  0  0  0  0  0  0  0  0  0  0
   65.1910   32.5783   49.0962 H   0  0  0  0  0  0  0  0  0  0  0  0
   63.6259   30.7475   49.7260 H   0  0  0  0  0  0  0  0  0  0  0  0
   60.8800   29.7200   47.2754 H   0  0  0  0  0  0  0  0  0  0  0  0
   61.1650   28.6395   48.6938 H   0  0  0  0  0  0  0  0  0  0  0  0
   58.8336   29.2008   49.4897 H   0  0  0  0  0  0  0  0  0  0  0  0
   58.5703   30.0660   47.9377 H   0  0  0  0  0  0  0  0  0  0  0  0
   58.8880   28.2981   47.9377 H   0  0  0  0  0  0  0  0  0  0  0  0
   58.8801   30.6272   46.1218 H   0  0  0  0  0  0  0  0  0  0  0  0
   57.7318   31.8626   46.7674 H   0  0  0  0  0  0  0  0  0  0  0  0
  1  2  2  0
  2  3  1  0
  3  4  2  0
  4  5  1  0
  5  6  1  0
  6  7  2  0
  6  8  1  0
  8  9  1  0
  9 10  1  0
 10 11  1  0
 11 12  1  0
 12 13  1  0
 13 14  2  0
 13 15  1  0
 15 16  2  0
 16 17  1  0
 17 18  2  0
 18 19  1  0
 19 20  2  0
 20 21  1  0
 21 22  1  0
 22 23  1  0
 12 24  1  0
  5 25  2  0
 25 26  1  0
 25 27  1  0
 27 28  2  0
 27  2  1  0
 24  8  1  0
 20 15  1  0
  1 29  1  0
  1 30  1  0
  4 31  1  0
  9 32  1  0
  9 33  1  0
 10 34  1  0
 10 35  1  0
 11 36  1  0
 11 37  1  0
 12 38  1  6
 16 39  1  0
 17 40  1  0
 18 41  1  0
 19 42  1  0
 22 43  1  0
 22 44  1  0
 23 45  1  0
 23 46  1  0
 23 47  1  0
 24 48  1  0
 24 49  1  0
M  CHG  1  26  -1
M  END
>  <UniqueID>  (44) 
44

>  <SMILES>  (44) 
C=C1N=CC(C(=O)N2CCC[C@@H](C(=O)c3ccccc3OCC)C2)=C([O-])C1=O

>  <Energy>  (44) 
59.770117201721

>  <Genealogy>  (44) 
C=C1N=CC(C(=O)N2CCCC(C(=O)c3ccccc3OCC)C2)=C([O-])C1=O (protonated)
C=C1N=CC(C(=O)N2CCC[C@@H](C(=O)c3ccccc3OCC)C2)=C([O-])C1=O (chirality)
C=C1N=CC(C(=O)N2CCC[C@@H](C(=O)c3ccccc3OCC)C2)=C([O-])C1=O (3D coordinates assigned)
C=C1N=CC(C(=O)N2CCC[C@@H](C(=O)c3ccccc3OCC)C2)=C([O-])C1=O (nonaromatic ring conformer: 59.770117201721 kcal/mol)

>  <smiles>  (44) 
C=C1N=CC(C(=O)N2CCCC(C(=O)c3ccccc3OCC)C2)=C(O)C1=O

>  <score_type>  (44) 
oracle

>  <origin>  (44) 
adg

>  <m_score__min__energy>  (44) 
-12.65

>  <m_primary>  (44) 
energy

$$$$
44:0
     RDKit          3D

 51 54  0  0  0  0  0  0  0  0999 V2000
   63.0000   34.0160   46.7570 C   0  0  0  0  0  0  0  0  0  0  0  0
   62.0920   33.8490   47.7420 C   0  0  0  0  0  0  0  0  0  0  0  0
   62.5470   33.9160   49.0270 N   0  0  0  0  0  0  0  0  0  0  0  0
   61.7460   33.6830   50.0930 C   0  0  0  0  0  0  0  0  0  0  0  0
   62.2420   33.7140   51.2540 O   0  0  0  0  0  0  0  0  0  0  0  0
   60.4220   33.4100   49.9140 N   0  0  0  0  0  0  0  0  0  0  0  0
   59.5760   33.1780   51.0620 C   0  0  0  0  0  0  0  0  0  0  0  0
   59.3430   34.2080   51.9880 C   0  0  0  0  0  0  0  0  0  0  0  0
   58.5280   33.9820   53.1020 C   0  0  0  0  0  0  0  0  0  0  0  0
   57.9430   32.7280   53.2980 C   0  0  0  0  0  0  0  0  0  0  0  0
   58.1710   31.6980   52.3820 C   0  0  0  0  0  0  0  0  0  0  0  0
   58.9860   31.9190   51.2670 C   0  0  0  0  0  0  0  0  0  0  0  0
   59.8860   33.3790   48.6550 C   0  0  0  0  0  0  0  0  0  0  0  0
   58.6350   33.2460   48.5320 O   0  0  0  0  0  0  0  0  0  0  0  0
   60.7080   33.5610   47.5050 C   0  0  0  0  0  0  0  0  0  0  0  0
   60.1910   33.5160   46.2410 C   0  0  0  0  0  0  0  0  0  0  0  0
   59.2580   32.4940   45.7170 C   0  0  0  0  0  0  0  0  0  0  0  0
   59.3390   31.1760   46.1860 C   0  0  0  0  0  0  0  0  0  0  0  0
   58.4330   30.2120   45.7370 C   0  0  0  0  0  0  0  0  0  0  0  0
   57.4160   30.5550   44.8280 C   0  0  0  0  0  0  0  0  0  0  0  0
   56.4540   29.5370   44.3500 C   0  0  0  0  0  0  0  0  0  0  0  0
   56.0280   29.5810   43.1630 O   0  0  0  0  0  0  0  0  0  0  0  0
   55.9760   28.5630   45.2380 O   0  0  0  0  0  0  0  0  0  0  0  0
   56.5640   27.3100   45.4650 C   0  0  0  0  0  0  0  0  0  0  0  0
   55.7760   26.2940   46.0140 C   0  0  0  0  0  0  0  0  0  0  0  0
   56.3200   25.0310   46.2670 C   0  0  0  0  0  0  0  0  0  0  0  0
   57.6720   24.7670   45.9860 C   0  0  0  0  0  0  0  0  0  0  0  0
   58.2520   23.4330   46.2510 C   0  0  0  0  0  0  0  0  0  0  0  0
   57.6810   22.6300   47.0360 O   0  0  0  0  0  0  0  0  0  0  0  0
   59.4380   23.0460   45.6370 O   0  0  0  0  0  0  0  0  0  0  0  0
   58.4680   25.7950   45.4530 C   0  0  0  0  0  0  0  0  0  0  0  0
   57.9220   27.0580   45.2000 C   0  0  0  0  0  0  0  0  0  0  0  0
   57.3180   31.8860   44.3860 C   0  0  0  0  0  0  0  0  0  0  0  0
   58.2250   32.8500   44.8360 C   0  0  0  0  0  0  0  0  0  0  0  0
   62.6841   33.9710   45.7043 H   0  0  0  0  0  0  0  0  0  0  0  0
   64.0558   34.1971   47.0071 H   0  0  0  0  0  0  0  0  0  0  0  0
   63.5560   34.1230   49.2180 H   0  0  0  0  0  0  0  0  0  0  0  0
   59.8030   35.1957   51.8366 H   0  0  0  0  0  0  0  0  0  0  0  0
   58.3474   34.7917   53.8243 H   0  0  0  0  0  0  0  0  0  0  0  0
   57.3022   32.5517   54.1746 H   0  0  0  0  0  0  0  0  0  0  0  0
   57.7090   30.7120   52.5379 H   0  0  0  0  0  0  0  0  0  0  0  0
   59.1656   31.1054   50.5488 H   0  0  0  0  0  0  0  0  0  0  0  0
   60.4969   34.3139   45.5484 H   0  0  0  0  0  0  0  0  0  0  0  0
   60.1190   30.8993   46.9106 H   0  0  0  0  0  0  0  0  0  0  0  0
   58.5157   29.1760   46.0974 H   0  0  0  0  0  0  0  0  0  0  0  0
   54.7194   26.4898   46.2489 H   0  0  0  0  0  0  0  0  0  0  0  0
   55.6853   24.2379   46.6891 H   0  0  0  0  0  0  0  0  0  0  0  0
   59.5289   25.6052   45.2329 H   0  0  0  0  0  0  0  0  0  0  0  0
   58.5578   27.8576   44.7920 H   0  0  0  0  0  0  0  0  0  0  0  0
   56.5226   32.1707   43.6816 H   0  0  0  0  0  0  0  0  0  0  0  0
   58.1286   33.8924   44.4980 H   0  0  0  0  0  0  0  0  0  0  0  0
  1  2  2  0
  2  3  1  0
  3  4  1  0
  4  5  2  0
  4  6  1  0
  6  7  1  0
  7  8  2  0
  8  9  1  0
  9 10  2  0
 10 11  1  0
 11 12  2  0
  6 13  1  0
 13 14  2  0
 13 15  1  0
 15 16  2  3
 16 17  1  0
 17 18  2  0
 18 19  1  0
 19 20  2  0
 20 21  1  0
 21 22  2  0
 21 23  1  0
 23 24  1  0
 24 25  2  0
 25 26  1  0
 26 27  2  0
 27 28  1  0
 28 29  2  0
 28 30  1  0
 27 31  1  0
 31 32  2  0
 20 33  1  0
 33 34  2  0
 15  2  1  0
 34 17  1  0
 12  7  1  0
 32 24  1  0
  1 35  1  0
  1 36  1  0
  3 37  1  0
  8 38  1  0
  9 39  1  0
 10 40  1  0
 11 41  1  0
 12 42  1  0
 16 43  1  0
 18 44  1  0
 19 45  1  0
 25 46  1  0
 26 47  1  0
 31 48  1  0
 32 49  1  0
 33 50  1  0
 34 51  1  0
M  CHG  1  30  -1
M  END
>  <UniqueID>  (45) 
45

>  <SMILES>  (45) 
C=c1[nH]c(=O)n(-c2ccccc2)c(=O)c1=Cc1ccc(C(=O)Oc2ccc(C(=O)[O-])cc2)cc1

>  <Energy>  (45) 
94.75895813140686

>  <Genealogy>  (45) 
C=c1[nH]c(=O)n(-c2ccccc2)c(=O)c1=Cc1ccc(C(=O)Oc2ccc(C(=O)[O-])cc2)cc1 (protonated)
C=c1[nH]c(=O)n(-c2ccccc2)c(=O)c1=Cc1ccc(C(=O)Oc2ccc(C(=O)[O-])cc2)cc1 (3D coordinates assigned)
C=c1[nH]c(=O)n(-c2ccccc2)c(=O)c1=Cc1ccc(C(=O)Oc2ccc(C(=O)[O-])cc2)cc1 (optimized conformer: 94.75895813140686 kcal/mol)

>  <smiles>  (45) 
C=c1[nH]c(=O)n(-c2ccccc2)c(=O)c1=Cc1ccc(C(=O)Oc2ccc(C(=O)O)cc2)cc1

>  <score_type>  (45) 
oracle

>  <origin>  (45) 
adg

>  <m_score__min__energy>  (45) 
-13.449999999999999

>  <m_primary>  (45) 
energy

$$$$
45:0
     RDKit          3D

 49 51  0  0  0  0  0  0  0  0999 V2000
   54.7700   29.3670   44.1260 N   0  0  0  0  0  0  0  0  0  0  0  0
   56.1750   29.4140   43.8780 C   0  0  0  0  0  0  0  0  0  0  0  0
   56.5960   29.3420   42.6900 O   0  0  0  0  0  0  0  0  0  0  0  0
   57.1340   29.6090   44.9920 C   0  0  0  0  0  0  0  0  0  0  0  0
   57.7470   30.8640   45.1240 C   0  0  0  0  0  0  0  0  0  0  0  0
   58.5560   31.1560   46.2200 C   0  0  0  0  0  0  0  0  0  0  0  0
   58.7860   30.1960   47.2200 C   0  0  0  0  0  0  0  0  0  0  0  0
   59.6910   30.4660   48.4200 C   0  0  0  0  0  0  0  0  0  0  0  0
   59.6950   31.9380   48.8980 C   0  0  0  0  0  0  0  0  0  0  0  0
   60.7130   32.8390   48.1850 C   0  0  0  0  0  0  0  0  0  0  0  0
   62.0160   32.1720   48.0670 N   0  0  0  0  0  0  0  0  0  0  0  0
   63.2110   32.9710   48.0140 C   0  0  0  0  0  0  0  0  0  0  0  0
   63.8280   33.0840   46.9190 O   0  0  0  0  0  0  0  0  0  0  0  0
   63.7680   33.6610   49.2380 C   0  0  0  0  0  0  0  0  0  0  0  0
   65.0720   33.0310   49.7590 C   0  0  0  0  0  0  0  0  0  0  0  0
   65.5470   33.7260   51.0590 C   0  0  0  0  0  0  0  0  0  0  0  0
   64.6510   34.7380   51.4940 O   0  0  0  0  0  0  0  0  0  0  0  0
   63.3620   34.1820   51.6980 C   0  0  0  0  0  0  0  0  0  0  0  0
   62.7210   33.7420   50.3620 C   0  0  0  0  0  0  0  0  0  0  0  0
   62.0630   30.8240   47.4980 C   0  0  0  0  0  0  0  0  0  0  0  0
   61.1110   29.8880   48.2470 C   0  0  0  0  0  0  0  0  0  0  0  0
   58.2110   28.9200   47.0660 C   0  0  0  0  0  0  0  0  0  0  0  0
   57.3980   28.6080   45.9610 C   0  0  0  0  0  0  0  0  0  0  0  0
   56.9190   27.2130   45.8200 C   0  0  0  0  0  0  0  0  0  0  0  0
   55.5220   26.9240   45.8110 N   0  0  0  0  0  0  0  0  0  0  0  0
   57.7440   26.2750   45.6630 O   0  0  0  0  0  0  0  0  0  0  0  0
   54.3970   29.3490   45.1020 H   0  0  0  0  0  0  0  0  0  0  0  0
   57.5864   31.6292   44.3503 H   0  0  0  0  0  0  0  0  0  0  0  0
   59.0202   32.1498   46.3035 H   0  0  0  0  0  0  0  0  0  0  0  0
   59.2280   29.9058   49.2457 H   0  0  0  0  0  0  0  0  0  0  0  0
   58.6912   32.3556   48.7310 H   0  0  0  0  0  0  0  0  0  0  0  0
   59.9841   31.9202   49.9592 H   0  0  0  0  0  0  0  0  0  0  0  0
   60.3389   33.0777   47.1785 H   0  0  0  0  0  0  0  0  0  0  0  0
   60.8423   33.7573   48.7766 H   0  0  0  0  0  0  0  0  0  0  0  0
   64.0212   34.6808   48.9127 H   0  0  0  0  0  0  0  0  0  0  0  0
   64.8984   31.9644   49.9647 H   0  0  0  0  0  0  0  0  0  0  0  0
   65.8506   33.1553   48.9920 H   0  0  0  0  0  0  0  0  0  0  0  0
   65.6352   32.9686   51.8518 H   0  0  0  0  0  0  0  0  0  0  0  0
   66.5143   34.2050   50.8473 H   0  0  0  0  0  0  0  0  0  0  0  0
   63.4500   33.3067   52.3584 H   0  0  0  0  0  0  0  0  0  0  0  0
   62.7208   34.9510   52.1535 H   0  0  0  0  0  0  0  0  0  0  0  0
   62.2608   32.7518   50.4947 H   0  0  0  0  0  0  0  0  0  0  0  0
   61.9647   34.4886   50.0780 H   0  0  0  0  0  0  0  0  0  0  0  0
   61.7675   30.8682   46.4394 H   0  0  0  0  0  0  0  0  0  0  0  0
   63.0879   30.4357   47.5918 H   0  0  0  0  0  0  0  0  0  0  0  0
   61.0372   28.9446   47.6862 H   0  0  0  0  0  0  0  0  0  0  0  0
   61.5265   29.7421   49.2550 H   0  0  0  0  0  0  0  0  0  0  0  0
   58.4019   28.1493   47.8273 H   0  0  0  0  0  0  0  0  0  0  0  0
   54.9440   27.0290   46.6770 H   0  0  0  0  0  0  0  0  0  0  0  0
  1  2  1  0
  2  3  2  0
  2  4  1  0
  4  5  2  0
  5  6  1  0
  6  7  2  0
  7  8  1  0
  8  9  1  0
  9 10  1  0
 10 11  1  0
 11 12  1  0
 12 13  2  0
 12 14  1  0
 14 15  1  0
 15 16  1  0
 16 17  1  0
 17 18  1  0
 18 19  1  0
 11 20  1  0
 20 21  1  0
  7 22  1  0
 22 23  2  0
 23 24  1  0
 24 25  1  0
 24 26  2  0
 23  4  1  0
 21  8  1  0
 19 14  1  0
  1 27  1  0
  5 28  1  0
  6 29  1  0
  8 30  1  0
  9 31  1  0
  9 32  1  0
 10 33  1  0
 10 34  1  0
 14 35  1  0
 15 36  1  0
 15 37  1  0
 16 38  1  0
 16 39  1  0
 18 40  1  0
 18 41  1  0
 19 42  1  0
 19 43  1  0
 20 44  1  0
 20 45  1  0
 21 46  1  0
 21 47  1  0
 22 48  1  0
 25 49  1  0
M  CHG  2   1  -1  25  -1
M  END
>  <UniqueID>  (46) 
46

>  <SMILES>  (46) 
[NH-]C(=O)c1ccc(C2CCN(C(=O)C3CCOCC3)CC2)cc1C([NH-])=O

>  <Energy>  (46) 
71.98248827981043

>  <Genealogy>  (46) 
[NH-]C(=O)c1ccc(C2CCN(C(=O)C3CCOCC3)CC2)cc1C([NH-])=O (protonated)
[NH-]C(=O)c1ccc(C2CCN(C(=O)C3CCOCC3)CC2)cc1C([NH-])=O (3D coordinates assigned)
[NH-]C(=O)c1ccc(C2CCN(C(=O)C3CCOCC3)CC2)cc1C([NH-])=O (nonaromatic ring conformer: 71.98248827981043 kcal/mol)

>  <smiles>  (46) 
NC(=O)c1ccc(C2CCN(C(=O)C3CCOCC3)CC2)cc1C(N)=O

>  <score_type>  (46) 
oracle

>  <origin>  (46) 
adg

>  <m_score__min__energy>  (46) 
-13.640000000000001

>  <m_primary>  (46) 
energy

$$$$
46:0
     RDKit          3D

 66 70  0  0  0  0  0  0  0  0999 V2000
   57.0110   29.1950   43.1930 O   0  0  0  0  0  0  0  0  0  0  0  0
   56.9820   29.4760   44.4210 C   0  0  0  0  0  0  0  0  0  0  0  0
   56.6370   30.8080   44.8240 N   0  0  0  0  0  0  0  0  0  0  0  0
   57.5570   31.8120   45.2840 C   0  0  0  0  0  0  0  0  0  0  0  0
   58.0270   32.8320   44.4380 C   0  0  0  0  0  0  0  0  0  0  0  0
   59.0170   33.7170   44.8760 C   0  0  0  0  0  0  0  0  0  0  0  0
   59.5680   33.5840   46.1600 C   0  0  0  0  0  0  0  0  0  0  0  0
   60.7260   34.4510   46.5850 C   0  0  0  0  0  0  0  0  0  0  0  0
   61.9000   33.6270   47.0010 C   0  0  0  0  0  0  0  0  0  0  0  0
   63.1550   34.1110   47.3430 C   0  0  0  0  0  0  0  0  0  0  0  0
   64.0550   33.1530   47.6960 N   0  0  0  0  0  0  0  0  0  0  0  0
   63.5280   31.9100   47.6400 C   0  0  0  0  0  0  0  0  0  0  0  0
   61.9160   31.9520   47.1540 S   0  0  0  0  0  0  0  0  0  0  0  0
   59.0720   32.5890   47.0170 C   0  0  0  0  0  0  0  0  0  0  0  0
   58.0790   31.7060   46.5800 C   0  0  0  0  0  0  0  0  0  0  0  0
   57.3260   28.4380   45.4150 C   0  0  0  0  0  0  0  0  0  0  0  0
   56.4590   27.3570   45.6280 C   0  0  0  0  0  0  0  0  0  0  0  0
   56.7490   26.4070   46.6100 C   0  0  0  0  0  0  0  0  0  0  0  0
   57.9000   26.5340   47.3900 C   0  0  0  0  0  0  0  0  0  0  0  0
   58.7810   27.6070   47.1860 C   0  0  0  0  0  0  0  0  0  0  0  0
   59.9990   27.7200   48.0200 C   0  0  0  0  0  0  0  0  0  0  0  0
   60.9610   26.9390   47.7840 O   0  0  0  0  0  0  0  0  0  0  0  0
   60.1070   28.6800   49.0990 N   0  0  0  0  0  0  0  0  0  0  0  0
   61.4370   29.1940   49.4800 C   0  0  0  0  0  0  0  0  0  0  0  0
   61.5230   29.4350   50.9950 C   0  0  0  0  0  0  0  0  0  0  0  0
   60.3600   30.3360   51.4780 C   0  0  0  0  0  0  0  0  0  0  0  0
   60.4050   31.6860   50.8270 N   0  0  0  0  0  0  0  0  0  0  0  0
   61.7570   32.3020   50.9690 C   0  0  0  0  0  0  0  0  0  0  0  0
   61.7810   33.8230   50.7000 C   0  0  0  0  0  0  0  0  0  0  0  0
   60.6160   34.2340   49.8070 C   0  0  0  0  0  0  0  0  0  0  0  0
   59.2830   33.8800   50.4730 C   0  0  0  0  0  0  0  0  0  0  0  0
   59.3740   32.6130   51.3470 C   0  0  0  0  0  0  0  0  0  0  0  0
   59.0660   29.5450   51.1660 C   0  0  0  0  0  0  0  0  0  0  0  0
   58.9080   29.3270   49.6630 C   0  0  0  0  0  0  0  0  0  0  0  0
   58.5100   28.5350   46.1640 C   0  0  0  0  0  0  0  0  0  0  0  0
   59.4270   29.4860   45.8470 F   0  0  0  0  0  0  0  0  0  0  0  0
   57.6128   32.9345   43.4241 H   0  0  0  0  0  0  0  0  0  0  0  0
   59.3656   34.5211   44.2112 H   0  0  0  0  0  0  0  0  0  0  0  0
   61.0204   35.0934   45.7420 H   0  0  0  0  0  0  0  0  0  0  0  0
   60.4067   35.0577   47.4452 H   0  0  0  0  0  0  0  0  0  0  0  0
   63.4024   35.1827   47.3298 H   0  0  0  0  0  0  0  0  0  0  0  0
   64.0804   30.9897   47.8807 H   0  0  0  0  0  0  0  0  0  0  0  0
   59.4672   32.5030   48.0400 H   0  0  0  0  0  0  0  0  0  0  0  0
   57.7058   30.9240   47.2576 H   0  0  0  0  0  0  0  0  0  0  0  0
   55.5478   27.2567   45.0200 H   0  0  0  0  0  0  0  0  0  0  0  0
   56.0691   25.5570   46.7692 H   0  0  0  0  0  0  0  0  0  0  0  0
   58.1175   25.7885   48.1691 H   0  0  0  0  0  0  0  0  0  0  0  0
   62.2029   28.4600   49.1888 H   0  0  0  0  0  0  0  0  0  0  0  0
   61.6030   30.1510   48.9637 H   0  0  0  0  0  0  0  0  0  0  0  0
   61.4703   28.4682   51.5170 H   0  0  0  0  0  0  0  0  0  0  0  0
   62.4746   29.9402   51.2171 H   0  0  0  0  0  0  0  0  0  0  0  0
   60.4220   30.5545   52.5543 H   0  0  0  0  0  0  0  0  0  0  0  0
   62.1123   32.1257   51.9950 H   0  0  0  0  0  0  0  0  0  0  0  0
   62.4036   31.8329   50.2128 H   0  0  0  0  0  0  0  0  0  0  0  0
   61.7081   34.3596   51.6575 H   0  0  0  0  0  0  0  0  0  0  0  0
   62.7222   34.0757   50.1897 H   0  0  0  0  0  0  0  0  0  0  0  0
   60.6576   35.3194   49.6334 H   0  0  0  0  0  0  0  0  0  0  0  0
   60.6916   33.6955   48.8508 H   0  0  0  0  0  0  0  0  0  0  0  0
   58.9710   34.7233   51.1067 H   0  0  0  0  0  0  0  0  0  0  0  0
   58.5540   33.6813   49.6736 H   0  0  0  0  0  0  0  0  0  0  0  0
   59.6358   32.9028   52.3754 H   0  0  0  0  0  0  0  0  0  0  0  0
   58.4000   32.1021   51.3282 H   0  0  0  0  0  0  0  0  0  0  0  0
   59.1117   28.5676   51.6686 H   0  0  0  0  0  0  0  0  0  0  0  0
   58.2044   30.1246   51.5289 H   0  0  0  0  0  0  0  0  0  0  0  0
   58.0330   28.6855   49.4816 H   0  0  0  0  0  0  0  0  0  0  0  0
   58.7733   30.3046   49.1771 H   0  0  0  0  0  0  0  0  0  0  0  0
  1  2  2  0
  2  3  1  0
  3  4  1  0
  4  5  2  0
  5  6  1  0
  6  7  2  0
  7  8  1  0
  8  9  1  0
  9 10  2  0
 10 11  1  0
 11 12  2  0
 12 13  1  0
  7 14  1  0
 14 15  2  0
  2 16  1  0
 16 17  2  0
 17 18  1  0
 18 19  2  0
 19 20  1  0
 20 21  1  0
 21 22  2  0
 21 23  1  0
 23 24  1  0
 24 25  1  0
 25 26  1  0
 26 27  1  0
 27 28  1  0
 28 29  1  0
 29 30  1  0
 30 31  1  0
 31 32  1  0
 26 33  1  0
 33 34  1  0
 20 35  2  0
 35 36  1  0
 15  4  1  0
 35 16  1  0
 13  9  1  0
 34 23  1  0
 32 27  1  0
  5 37  1  0
  6 38  1  0
  8 39  1  0
  8 40  1  0
 10 41  1  0
 12 42  1  0
 14 43  1  0
 15 44  1  0
 17 45  1  0
 18 46  1  0
 19 47  1  0
 24 48  1  0
 24 49  1  0
 25 50  1  0
 25 51  1  0
 26 52  1  0
 28 53  1  0
 28 54  1  0
 29 55  1  0
 29 56  1  0
 30 57  1  0
 30 58  1  0
 31 59  1  0
 31 60  1  0
 32 61  1  0
 32 62  1  0
 33 63  1  0
 33 64  1  0
 34 65  1  0
 34 66  1  0
M  CHG  1   3  -1
M  END
>  <UniqueID>  (47) 
47

>  <SMILES>  (47) 
O=C([N-]c1ccc(Cc2cncs2)cc1)c1cccc(C(=O)N2CCC(N3CCCCC3)CC2)c1F

>  <Energy>  (47) 
114.91181876923211

>  <Genealogy>  (47) 
O=C([N-]c1ccc(Cc2cncs2)cc1)c1cccc(C(=O)N2CCC(N3CCCCC3)CC2)c1F (protonated)
O=C([N-]c1ccc(Cc2cncs2)cc1)c1cccc(C(=O)N2CCC(N3CCCCC3)CC2)c1F (3D coordinates assigned)
O=C([N-]c1ccc(Cc2cncs2)cc1)c1cccc(C(=O)N2CCC(N3CCCCC3)CC2)c1F (nonaromatic ring conformer: 114.91181876923211 kcal/mol)

>  <smiles>  (47) 
O=C(Nc1ccc(Cc2cncs2)cc1)c1cccc(C(=O)N2CCC(N3CCCCC3)CC2)c1F

>  <score_type>  (47) 
oracle

>  <origin>  (47) 
adg

>  <m_score__min__energy>  (47) 
-12.4

>  <m_primary>  (47) 
energy

$$$$
47:0
     RDKit          3D

 53 55  0  0  0  0  0  0  0  0999 V2000
   53.4820   27.8250   53.1550 C   0  0  0  0  0  0  0  0  0  0  0  0
   54.2890   28.8860   52.9410 C   0  0  0  0  0  0  0  0  0  0  0  0
   55.6850   28.7670   53.2120 C   0  0  0  0  0  0  0  0  0  0  0  0
   56.2660   27.6130   53.9970 C   0  0  0  0  0  0  0  0  0  0  0  0
   56.5810   29.6990   52.6670 C   0  0  0  0  0  0  0  0  0  0  0  0
   56.1250   30.7670   51.8940 C   0  0  0  0  0  0  0  0  0  0  0  0
   57.1020   31.7150   51.2490 C   0  0  0  0  0  0  0  0  0  0  0  0
   58.4470   31.0550   51.1320 C   0  0  0  0  0  0  0  0  0  0  0  0
   59.1100   30.8400   52.1840 O   0  0  0  0  0  0  0  0  0  0  0  0
   58.9580   30.6040   49.8610 N   0  0  0  0  0  0  0  0  0  0  0  0
   58.6990   29.2820   49.3200 C   0  0  0  0  0  0  0  0  0  0  0  0
   58.9820   29.3790   47.8280 C   0  0  0  0  0  0  0  0  0  0  0  0
   59.8070   30.6480   47.6340 C   0  0  0  0  0  0  0  0  0  0  0  0
   59.6220   31.4890   48.9110 C   0  0  2  0  0  0  0  0  0  0  0  0
   60.9770   31.9980   49.4960 C   0  0  0  0  0  0  0  0  0  0  0  0
   60.9600   33.3970   49.9800 N   0  0  0  0  0  0  0  0  0  0  0  0
   60.9620   33.5120   51.4480 C   0  0  0  0  0  0  0  0  0  0  0  0
   62.0160   34.2260   49.3730 C   0  0  0  0  0  0  0  0  0  0  0  0
   54.7510   30.9550   51.7210 C   0  0  0  0  0  0  0  0  0  0  0  0
   53.8090   30.0840   52.3070 C   0  0  0  0  0  0  0  0  0  0  0  0
   52.5060   30.4640   52.2320 C   0  0  0  0  0  0  0  0  0  0  0  0
   51.7690   30.8430   51.0120 C   0  0  0  0  0  0  0  0  0  0  0  0
   51.7470   30.0900   49.8970 N   0  0  0  0  0  0  0  0  0  0  0  0
   51.0490   30.8410   49.0210 C   0  0  0  0  0  0  0  0  0  0  0  0
   50.7990   30.4600   47.8480 O   0  0  0  0  0  0  0  0  0  0  0  0
   50.6440   32.0370   49.4980 N   0  0  0  0  0  0  0  0  0  0  0  0
   51.1200   32.0300   50.7530 C   0  0  0  0  0  0  0  0  0  0  0  0
   50.9940   33.1010   51.6300 O   0  0  0  0  0  0  0  0  0  0  0  0
   52.4041   27.9037   52.9501 H   0  0  0  0  0  0  0  0  0  0  0  0
   53.9024   26.8819   53.5343 H   0  0  0  0  0  0  0  0  0  0  0  0
   56.1647   27.8141   55.0737 H   0  0  0  0  0  0  0  0  0  0  0  0
   55.7258   26.6887   53.7442 H   0  0  0  0  0  0  0  0  0  0  0  0
   57.3302   27.4965   53.7442 H   0  0  0  0  0  0  0  0  0  0  0  0
   57.6594   29.5859   52.8520 H   0  0  0  0  0  0  0  0  0  0  0  0
   56.7399   31.9870   50.2466 H   0  0  0  0  0  0  0  0  0  0  0  0
   57.1932   32.6202   51.8673 H   0  0  0  0  0  0  0  0  0  0  0  0
   59.3630   28.5403   49.7879 H   0  0  0  0  0  0  0  0  0  0  0  0
   57.6650   28.9614   49.5149 H   0  0  0  0  0  0  0  0  0  0  0  0
   59.5494   28.4996   47.4893 H   0  0  0  0  0  0  0  0  0  0  0  0
   58.0503   29.4128   47.2442 H   0  0  0  0  0  0  0  0  0  0  0  0
   60.8684   30.3940   47.4967 H   0  0  0  0  0  0  0  0  0  0  0  0
   59.4805   31.2023   46.7417 H   0  0  0  0  0  0  0  0  0  0  0  0
   59.0379   32.3957   48.6949 H   0  0  0  0  0  0  0  0  0  0  0  0
   61.2508   31.3477   50.3399 H   0  0  0  0  0  0  0  0  0  0  0  0
   61.7017   31.9661   48.6691 H   0  0  0  0  0  0  0  0  0  0  0  0
   60.9445   32.5069   51.8946 H   0  0  0  0  0  0  0  0  0  0  0  0
   61.8695   34.0419   51.7730 H   0  0  0  0  0  0  0  0  0  0  0  0
   60.0735   34.0732   51.7730 H   0  0  0  0  0  0  0  0  0  0  0  0
   62.6149   34.6961   50.1669 H   0  0  0  0  0  0  0  0  0  0  0  0
   62.6654   33.5939   48.7494 H   0  0  0  0  0  0  0  0  0  0  0  0
   61.5562   35.0069   48.7494 H   0  0  0  0  0  0  0  0  0  0  0  0
   54.3963   31.8012   51.1143 H   0  0  0  0  0  0  0  0  0  0  0  0
   51.9442   30.4916   53.1773 H   0  0  0  0  0  0  0  0  0  0  0  0
  1  2  2  0
  2  3  1  0
  3  4  1  0
  3  5  2  0
  5  6  1  0
  6  7  1  0
  7  8  1  0
  8  9  2  0
  8 10  1  0
 10 11  1  0
 11 12  1  0
 12 13  1  0
 13 14  1  0
 14 15  1  0
 15 16  1  0
 16 17  1  0
 16 18  1  0
  6 19  2  0
 19 20  1  0
 20 21  2  3
 21 22  1  0
 22 23  1  0
 23 24  1  0
 24 25  2  0
 24 26  1  0
 26 27  1  0
 27 28  1  0
 20  2  1  0
 27 22  2  0
 14 10  1  0
  1 29  1  0
  1 30  1  0
  4 31  1  0
  4 32  1  0
  4 33  1  0
  5 34  1  0
  7 35  1  0
  7 36  1  0
 11 37  1  0
 11 38  1  0
 12 39  1  0
 12 40  1  0
 13 41  1  0
 13 42  1  0
 14 43  1  6
 15 44  1  0
 15 45  1  0
 17 46  1  0
 17 47  1  0
 17 48  1  0
 18 49  1  0
 18 50  1  0
 18 51  1  0
 19 52  1  0
 21 53  1  0
M  CHG  3  23  -1  26  -1  28  -1
M  END
>  <UniqueID>  (48) 
48

>  <SMILES>  (48) 
C=c1c(C)cc(CC(=O)N2CCC[C@@H]2CN(C)C)cc1=Cc1[n-]c(=O)[n-]c1[O-]

>  <Energy>  (48) 
110.77022822308511

>  <Genealogy>  (48) 
C=c1c(C)cc(CC(=O)N2CCCC2CN(C)C)cc1=Cc1[n-]c(=O)[n-]c1[O-] (protonated)
C=c1c(C)cc(CC(=O)N2CCC[C@@H]2CN(C)C)cc1=Cc1[n-]c(=O)[n-]c1[O-] (chirality)
C=c1c(C)cc(CC(=O)N2CCC[C@@H]2CN(C)C)cc1=Cc1[n-]c(=O)[n-]c1[O-] (3D coordinates assigned)
C=c1c(C)cc(CC(=O)N2CCC[C@@H]2CN(C)C)cc1=Cc1[n-]c(=O)[n-]c1[O-] (nonaromatic ring conformer: 110.77022822308511 kcal/mol)

>  <smiles>  (48) 
C=c1c(C)cc(CC(=O)N2CCCC2CN(C)C)cc1=Cc1[nH]c(=O)[nH]c1O

>  <score_type>  (48) 
oracle

>  <origin>  (48) 
adg

>  <m_score__min__energy>  (48) 
-17.170000000000002

>  <m_primary>  (48) 
energy

$$$$
48:0
     RDKit          3D

 65 68  0  0  0  0  0  0  0  0999 V2000
   55.7790   20.9110   48.0920 C   0  0  0  0  0  0  0  0  0  0  0  0
   55.1020   22.0870   48.8060 C   0  0  0  0  0  0  0  0  0  0  0  0
   54.3000   21.5900   50.0150 C   0  0  0  0  0  0  0  0  0  0  0  0
   54.2630   22.9640   47.8400 C   0  0  0  0  0  0  0  0  0  0  0  0
   54.9840   23.3260   46.5930 N   0  0  0  0  0  0  0  0  0  0  0  0
   56.1610   24.0510   46.6160 C   0  0  0  0  0  0  0  0  0  0  0  0
   56.8160   24.3790   47.8570 N   0  0  0  0  0  0  0  0  0  0  0  0
   56.7390   24.4930   45.4060 C   0  0  0  0  0  0  0  0  0  0  0  0
   57.9680   25.3170   45.3950 C   0  0  0  0  0  0  0  0  0  0  0  0
   59.0760   24.7420   45.5670 O   0  0  0  0  0  0  0  0  0  0  0  0
   57.9160   26.7900   45.1940 C   0  0  0  0  0  0  0  0  0  0  0  0
   56.7380   27.5180   45.4490 C   0  0  0  0  0  0  0  0  0  0  0  0
   56.6970   28.8990   45.2460 C   0  0  0  0  0  0  0  0  0  0  0  0
   57.8310   29.5810   44.7850 C   0  0  0  0  0  0  0  0  0  0  0  0
   57.7640   31.0410   44.5800 C   0  0  0  0  0  0  0  0  0  0  0  0
   57.3570   31.4610   43.4610 O   0  0  0  0  0  0  0  0  0  0  0  0
   58.2240   31.9770   45.5820 N   0  0  0  0  0  0  0  0  0  0  0  0
   58.3990   33.3990   45.2430 C   0  0  0  0  0  0  0  0  0  0  0  0
   59.8010   33.8580   45.6530 C   0  0  0  0  0  0  0  0  0  0  0  0
   60.1200   33.4330   47.0220 N   0  0  0  0  0  0  0  0  0  0  0  0
   61.2550   33.9990   47.6890 C   0  0  0  0  0  0  0  0  0  0  0  0
   61.0830   34.9600   48.4860 O   0  0  0  0  0  0  0  0  0  0  0  0
   62.6560   33.4800   47.4620 C   0  0  0  0  0  0  0  0  0  0  0  0
   63.5910   33.5640   48.6680 C   0  0  0  0  0  0  0  0  0  0  0  0
   63.7040   32.0440   48.6820 C   0  0  0  0  0  0  0  0  0  0  0  0
   62.7640   31.9580   47.4850 C   0  0  0  0  0  0  0  0  0  0  0  0
   59.1550   32.6520   47.8000 C   0  0  0  0  0  0  0  0  0  0  0  0
   58.5840   31.5170   46.9380 C   0  0  0  0  0  0  0  0  0  0  0  0
   59.0200   28.8720   44.5740 C   0  0  0  0  0  0  0  0  0  0  0  0
   59.0600   27.4860   44.7680 C   0  0  0  0  0  0  0  0  0  0  0  0
   56.1380   24.1160   44.2030 C   0  0  0  0  0  0  0  0  0  0  0  0
   56.6370   24.4600   43.0990 O   0  0  0  0  0  0  0  0  0  0  0  0
   55.0150   23.3660   44.2190 N   0  0  0  0  0  0  0  0  0  0  0  0
   54.4370   22.9730   45.3790 C   0  0  0  0  0  0  0  0  0  0  0  0
   53.3860   22.2800   45.3180 O   0  0  0  0  0  0  0  0  0  0  0  0
   56.1818   20.2113   48.8391 H   0  0  0  0  0  0  0  0  0  0  0  0
   55.0420   20.3909   47.4624 H   0  0  0  0  0  0  0  0  0  0  0  0
   56.5988   21.2871   47.4624 H   0  0  0  0  0  0  0  0  0  0  0  0
   55.8905   22.7531   49.1862 H   0  0  0  0  0  0  0  0  0  0  0  0
   54.8032   21.9018   50.9421 H   0  0  0  0  0  0  0  0  0  0  0  0
   53.2877   22.0193   49.9850 H   0  0  0  0  0  0  0  0  0  0  0  0
   54.2339   20.4924   49.9850 H   0  0  0  0  0  0  0  0  0  0  0  0
   53.3528   22.4096   47.5677 H   0  0  0  0  0  0  0  0  0  0  0  0
   54.0370   23.9023   48.3677 H   0  0  0  0  0  0  0  0  0  0  0  0
   57.7770   24.7850   47.8690 H   0  0  0  0  0  0  0  0  0  0  0  0
   56.4090   24.1440   48.7850 H   0  0  0  0  0  0  0  0  0  0  0  0
   55.8414   26.9939   45.8116 H   0  0  0  0  0  0  0  0  0  0  0  0
   55.7695   29.4545   45.4491 H   0  0  0  0  0  0  0  0  0  0  0  0
   58.2722   33.5348   44.1588 H   0  0  0  0  0  0  0  0  0  0  0  0
   57.6481   33.9969   45.7803 H   0  0  0  0  0  0  0  0  0  0  0  0
   60.5375   33.4229   44.9615 H   0  0  0  0  0  0  0  0  0  0  0  0
   59.8332   34.9568   45.6131 H   0  0  0  0  0  0  0  0  0  0  0  0
   62.8893   34.0514   46.5515 H   0  0  0  0  0  0  0  0  0  0  0  0
   64.5394   34.0835   48.4663 H   0  0  0  0  0  0  0  0  0  0  0  0
   63.2860   34.1091   49.5735 H   0  0  0  0  0  0  0  0  0  0  0  0
   64.7185   31.6680   48.4833 H   0  0  0  0  0  0  0  0  0  0  0  0
   63.4859   31.4797   49.6007 H   0  0  0  0  0  0  0  0  0  0  0  0
   63.2231   31.5265   46.5833 H   0  0  0  0  0  0  0  0  0  0  0  0
   61.8581   31.3358   47.5316 H   0  0  0  0  0  0  0  0  0  0  0  0
   59.6573   32.2241   48.6801 H   0  0  0  0  0  0  0  0  0  0  0  0
   58.3341   33.3092   48.1229 H   0  0  0  0  0  0  0  0  0  0  0  0
   59.3388   30.7213   46.8539 H   0  0  0  0  0  0  0  0  0  0  0  0
   57.6689   31.1491   47.4251 H   0  0  0  0  0  0  0  0  0  0  0  0
   59.9267   29.4065   44.2544 H   0  0  0  0  0  0  0  0  0  0  0  0
   59.9955   26.9369   44.5853 H   0  0  0  0  0  0  0  0  0  0  0  0
  1  2  1  0
  2  3  1  0
  2  4  1  0
  4  5  1  0
  5  6  1  0
  6  7  1  0
  6  8  2  0
  8  9  1  0
  9 10  2  0
  9 11  1  0
 11 12  2  0
 12 13  1  0
 13 14  2  0
 14 15  1  0
 15 16  2  0
 15 17  1  0
 17 18  1  0
 18 19  1  0
 19 20  1  0
 20 21  1  0
 21 22  2  0
 21 23  1  0
 23 24  1  0
 24 25  1  0
 25 26  1  0
 20 27  1  0
 27 28  1  0
 14 29  1  0
 29 30  2  0
  8 31  1  0
 31 32  2  0
 31 33  1  0
 33 34  1  0
 34 35  2  0
 34  5  1  0
 30 11  1  0
 28 17  1  0
 26 23  1  0
  1 36  1  0
  1 37  1  0
  1 38  1  0
  2 39  1  0
  3 40  1  0
  3 41  1  0
  3 42  1  0
  4 43  1  0
  4 44  1  0
  7 45  1  0
  7 46  1  0
 12 47  1  0
 13 48  1  0
 18 49  1  0
 18 50  1  0
 19 51  1  0
 19 52  1  0
 23 53  1  0
 24 54  1  0
 24 55  1  0
 25 56  1  0
 25 57  1  0
 26 58  1  0
 26 59  1  0
 27 60  1  0
 27 61  1  0
 28 62  1  0
 28 63  1  0
 29 64  1  0
 30 65  1  0
M  CHG  1  33  -1
M  END
>  <UniqueID>  (49) 
49

>  <SMILES>  (49) 
CC(C)Cn1c(N)c(C(=O)c2ccc(C(=O)N3CCN(C(=O)C4CCC4)CC3)cc2)c(=O)[n-]c1=O

>  <Energy>  (49) 
153.3371416582896

>  <Genealogy>  (49) 
CC(C)Cn1c(N)c(C(=O)c2ccc(C(=O)N3CCN(C(=O)C4CCC4)CC3)cc2)c(=O)[n-]c1=O (protonated)
CC(C)Cn1c(N)c(C(=O)c2ccc(C(=O)N3CCN(C(=O)C4CCC4)CC3)cc2)c(=O)[n-]c1=O (3D coordinates assigned)
CC(C)Cn1c(N)c(C(=O)c2ccc(C(=O)N3CCN(C(=O)C4CCC4)CC3)cc2)c(=O)[n-]c1=O (nonaromatic ring conformer: 153.3371416582896 kcal/mol)

>  <smiles>  (49) 
CC(C)Cn1c(N)c(C(=O)c2ccc(C(=O)N3CCN(C(=O)C4CCC4)CC3)cc2)c(=O)[nH]c1=O

>  <score_type>  (49) 
oracle

>  <origin>  (49) 
adg

>  <m_score__min__energy>  (49) 
-11.449999999999999

>  <m_primary>  (49) 
energy

$$$$
49:0
     RDKit          3D

 46 49  0  0  0  0  0  0  0  0999 V2000
   57.8657   34.8562   46.5712 H   0  0  0  0  0  0  0  0  0  0  0  0
   57.5730   34.2770   45.6830 C   0  0  0  0  0  0  0  0  0  0  0  0
   57.0117   34.7618   44.8706 H   0  0  0  0  0  0  0  0  0  0  0  0
   57.8990   32.9860   45.5910 C   0  0  0  0  0  0  0  0  0  0  0  0
   57.4950   32.0200   44.2720 S   0  0  0  0  0  0  0  0  0  0  0  0
   58.1630   30.6190   44.9350 C   0  0  0  0  0  0  0  0  0  0  0  0
   58.2150   29.4080   44.3580 C   0  0  0  0  0  0  0  0  0  0  0  0
   58.7375   29.3104   43.3950 H   0  0  0  0  0  0  0  0  0  0  0  0
   57.6050   28.1980   44.9520 C   0  0  0  0  0  0  0  0  0  0  0  0
   56.2410   28.1870   45.2520 C   0  0  0  0  0  0  0  0  0  0  0  0
   55.4590   29.3150   45.0230 O   0  0  0  0  0  0  0  0  0  0  0  0
   55.6720   27.0740   45.7790 N   0  0  0  0  0  0  0  0  0  0  0  0
   54.6520   27.0850   46.0060 H   0  0  0  0  0  0  0  0  0  0  0  0
   56.4000   25.9510   46.0170 C   0  0  0  0  0  0  0  0  0  0  0  0
   55.8250   24.9450   46.5170 O   0  0  0  0  0  0  0  0  0  0  0  0
   57.7400   25.9140   45.7170 N   0  0  0  0  0  0  0  0  0  0  0  0
   58.5220   24.6790   45.9320 C   0  0  0  0  0  0  0  0  0  0  0  0
   59.5759   24.8699   45.6812 H   0  0  0  0  0  0  0  0  0  0  0  0
   58.4305   24.3798   46.9866 H   0  0  0  0  0  0  0  0  0  0  0  0
   58.0000   23.5640   45.0630 C   0  0  0  0  0  0  0  0  0  0  0  0
   58.1990   22.2230   45.4340 C   0  0  0  0  0  0  0  0  0  0  0  0
   58.7582   21.9857   46.3511 H   0  0  0  0  0  0  0  0  0  0  0  0
   57.6890   21.1890   44.6420 C   0  0  0  0  0  0  0  0  0  0  0  0
   57.8497   20.1413   44.9363 H   0  0  0  0  0  0  0  0  0  0  0  0
   56.9760   21.4850   43.4780 C   0  0  0  0  0  0  0  0  0  0  0  0
   56.5755   20.6703   42.8568 H   0  0  0  0  0  0  0  0  0  0  0  0
   56.7710   22.8150   43.1020 C   0  0  0  0  0  0  0  0  0  0  0  0
   56.2097   23.0466   42.1848 H   0  0  0  0  0  0  0  0  0  0  0  0
   57.2790   23.8520   43.8910 C   0  0  0  0  0  0  0  0  0  0  0  0
   57.1136   24.8979   43.5931 H   0  0  0  0  0  0  0  0  0  0  0  0
   58.3420   27.0200   45.1690 C   0  0  0  0  0  0  0  0  0  0  0  0
   59.5610   26.9840   44.8400 O   0  0  0  0  0  0  0  0  0  0  0  0
   58.7000   30.9540   46.1790 C   0  0  0  0  0  0  0  0  0  0  0  0
   59.2920   30.1160   46.9150 O   0  0  0  0  0  0  0  0  0  0  0  0
   58.5530   32.2640   46.5430 N   0  0  0  0  0  0  0  0  0  0  0  0
   59.0580   32.7940   47.7850 C   0  0  0  0  0  0  0  0  0  0  0  0
   58.5430   32.3400   49.0100 C   0  0  0  0  0  0  0  0  0  0  0  0
   57.7591   31.5685   49.0237 H   0  0  0  0  0  0  0  0  0  0  0  0
   59.0250   32.8670   50.2130 C   0  0  0  0  0  0  0  0  0  0  0  0
   58.6226   32.5063   51.1711 H   0  0  0  0  0  0  0  0  0  0  0  0
   60.0170   33.8510   50.1990 C   0  0  0  0  0  0  0  0  0  0  0  0
   60.3968   34.2623   51.1459 H   0  0  0  0  0  0  0  0  0  0  0  0
   60.5270   34.3130   48.9820 C   0  0  0  0  0  0  0  0  0  0  0  0
   61.3060   35.0896   48.9720 H   0  0  0  0  0  0  0  0  0  0  0  0
   60.0480   33.7890   47.7780 C   0  0  0  0  0  0  0  0  0  0  0  0
   60.4481   34.1576   46.8219 H   0  0  0  0  0  0  0  0  0  0  0  0
  1  2  1  0
  2  3  1  0
  2  4  2  0
  4  5  1  0
  5  6  1  0
  6  7  2  0
  7  8  1  0
  7  9  1  0
  9 10  2  0
 10 11  1  0
 10 12  1  0
 12 13  1  0
 12 14  1  0
 14 15  2  0
 14 16  1  0
 16 17  1  0
 17 18  1  0
 17 19  1  0
 17 20  1  0
 20 21  2  0
 21 22  1  0
 21 23  1  0
 23 24  1  0
 23 25  2  0
 25 26  1  0
 25 27  1  0
 27 28  1  0
 27 29  2  0
 29 30  1  0
 16 31  1  0
 31 32  2  0
  6 33  1  0
 33 34  2  0
 33 35  1  0
 35 36  1  0
 36 37  2  0
 37 38  1  0
 37 39  1  0
 39 40  1  0
 39 41  2  0
 41 42  1  0
 41 43  1  0
 43 44  1  0
 43 45  2  0
 45 46  1  0
 35  4  1  0
 45 36  1  0
 31  9  1  0
 29 20  1  0
M  CHG  1  11  -1
M  END
>  <UniqueID>  (50) 
50

>  <SMILES>  (50) 
C=c1s/c(=C\c2c([O-])[nH]c(=O)n(Cc3ccccc3)c2=O)c(=O)n1-c1ccccc1

>  <Energy>  (50) 
101.88891626416574

>  <Genealogy>  (50) 
C=c1sc(=Cc2c([O-])[nH]c(=O)n(Cc3ccccc3)c2=O)c(=O)n1-c1ccccc1 (protonated)
C=c1s/c(=C\c2c([O-])[nH]c(=O)n(Cc3ccccc3)c2=O)c(=O)n1-c1ccccc1 (cis-trans isomerization)
C=c1s/c(=C\c2c([O-])[nH]c(=O)n(Cc3ccccc3)c2=O)c(=O)n1-c1ccccc1 (3D coordinates assigned)
C=c1s/c(=C\c2c([O-])[nH]c(=O)n(Cc3ccccc3)c2=O)c(=O)n1-c1ccccc1 (optimized conformer: 101.88891626416574 kcal/mol)

>  <smiles>  (50) 
C=c1sc(=Cc2c(O)[nH]c(=O)n(Cc3ccccc3)c2=O)c(=O)n1-c1ccccc1

>  <score_type>  (50) 
oracle

>  <origin>  (50) 
adg

>  <m_score__min__energy>  (50) 
-12.390000000000001

>  <m_primary>  (50) 
energy

$$$$
50:0
     RDKit          3D

 65 67  0  0  0  0  0  0  0  0999 V2000
   54.3290   24.8540   45.5580 C   0  0  0  0  0  0  0  0  0  0  0  0
   55.7850   25.3050   45.7880 C   0  0  0  0  0  0  0  0  0  0  0  0
   56.3030   24.6860   47.0960 C   0  0  0  0  0  0  0  0  0  0  0  0
   56.6820   24.8420   44.6240 C   0  0  0  0  0  0  0  0  0  0  0  0
   55.8420   26.7640   45.9330 N   0  0  0  0  0  0  0  0  0  0  0  0
   57.0180   27.5660   46.1180 C   0  0  0  0  0  0  0  0  0  0  0  0
   58.0070   27.1200   46.7620 O   0  0  0  0  0  0  0  0  0  0  0  0
   57.0280   28.9720   45.5750 C   0  0  0  0  0  0  0  0  0  0  0  0
   56.6690   29.0310   44.0820 C   0  0  0  0  0  0  0  0  0  0  0  0
   56.6000   30.4900   43.5840 C   0  0  0  0  0  0  0  0  0  0  0  0
   57.5840   31.4030   44.2270 N   0  0  0  0  0  0  0  0  0  0  0  0
   56.9600   32.3280   45.2010 C   0  0  0  0  0  0  0  0  0  0  0  0
   57.9980   33.1930   45.8680 C   0  0  0  0  0  0  0  0  0  0  0  0
   58.7090   34.1510   45.1290 C   0  0  0  0  0  0  0  0  0  0  0  0
   59.6730   34.9460   45.7530 C   0  0  0  0  0  0  0  0  0  0  0  0
   59.9380   34.7900   47.1170 C   0  0  0  0  0  0  0  0  0  0  0  0
   59.2310   33.8330   47.8710 C   0  0  0  0  0  0  0  0  0  0  0  0
   59.4630   33.6310   49.2400 O   0  0  0  0  0  0  0  0  0  0  0  0
   58.7680   32.6820   50.0450 C   0  0  0  0  0  0  0  0  0  0  0  0
   59.3760   31.3280   49.8690 C   0  0  0  0  0  0  0  0  0  0  0  0
   58.8420   30.5000   49.0840 O   0  0  0  0  0  0  0  0  0  0  0  0
   60.5330   30.9620   50.6300 N   0  0  0  0  0  0  0  0  0  0  0  0
   61.8100   30.5880   50.0330 C   0  0  0  0  0  0  0  0  0  0  0  0
   62.3690   31.7310   49.2210 C   0  0  0  0  0  0  0  0  0  0  0  0
   63.0720   32.7640   49.8670 C   0  0  0  0  0  0  0  0  0  0  0  0
   63.6060   33.8250   49.1300 C   0  0  0  0  0  0  0  0  0  0  0  0
   63.4390   33.8700   47.7450 C   0  0  0  0  0  0  0  0  0  0  0  0
   62.7320   32.8570   47.0930 C   0  0  0  0  0  0  0  0  0  0  0  0
   62.1950   31.7880   47.8210 C   0  0  0  0  0  0  0  0  0  0  0  0
   61.3130   30.5380   46.9480 Cl  0  0  0  0  0  0  0  0  0  0  0  0
   58.2610   33.0440   47.2400 C   0  0  0  0  0  0  0  0  0  0  0  0
   58.7640   30.6940   44.7710 C   0  0  0  0  0  0  0  0  0  0  0  0
   58.3940   29.6430   45.8390 C   0  0  0  0  0  0  0  0  0  0  0  0
   53.8349   24.7009   46.5288 H   0  0  0  0  0  0  0  0  0  0  0  0
   53.7908   25.6275   44.9905 H   0  0  0  0  0  0  0  0  0  0  0  0
   54.3223   23.9117   44.9905 H   0  0  0  0  0  0  0  0  0  0  0  0
   55.8602   25.2152   47.9527 H   0  0  0  0  0  0  0  0  0  0  0  0
   56.0210   23.6235   47.1357 H   0  0  0  0  0  0  0  0  0  0  0  0
   57.3986   24.7763   47.1357 H   0  0  0  0  0  0  0  0  0  0  0  0
   57.5917   24.3724   45.0265 H   0  0  0  0  0  0  0  0  0  0  0  0
   56.1354   24.1134   44.0073 H   0  0  0  0  0  0  0  0  0  0  0  0
   56.9593   25.7096   44.0073 H   0  0  0  0  0  0  0  0  0  0  0  0
   56.2458   29.5307   46.1098 H   0  0  0  0  0  0  0  0  0  0  0  0
   57.4354   28.4910   43.5067 H   0  0  0  0  0  0  0  0  0  0  0  0
   55.6815   28.5671   43.9417 H   0  0  0  0  0  0  0  0  0  0  0  0
   56.7844   30.4931   42.4996 H   0  0  0  0  0  0  0  0  0  0  0  0
   55.6008   30.8666   43.8484 H   0  0  0  0  0  0  0  0  0  0  0  0
   56.2399   32.9718   44.6748 H   0  0  0  0  0  0  0  0  0  0  0  0
   56.4524   31.7320   45.9737 H   0  0  0  0  0  0  0  0  0  0  0  0
   58.5065   34.2762   44.0551 H   0  0  0  0  0  0  0  0  0  0  0  0
   60.2255   35.6972   45.1695 H   0  0  0  0  0  0  0  0  0  0  0  0
   60.7007   35.4164   47.6027 H   0  0  0  0  0  0  0  0  0  0  0  0
   58.8374   32.9790   51.1019 H   0  0  0  0  0  0  0  0  0  0  0  0
   57.7122   32.6490   49.7381 H   0  0  0  0  0  0  0  0  0  0  0  0
   62.5210   30.3295   50.8315 H   0  0  0  0  0  0  0  0  0  0  0  0
   61.6534   29.7241   49.3703 H   0  0  0  0  0  0  0  0  0  0  0  0
   63.2024   32.7367   50.9589 H   0  0  0  0  0  0  0  0  0  0  0  0
   64.1589   34.6260   49.6426 H   0  0  0  0  0  0  0  0  0  0  0  0
   63.8643   34.7035   47.1667 H   0  0  0  0  0  0  0  0  0  0  0  0
   62.5964   32.8992   46.0022 H   0  0  0  0  0  0  0  0  0  0  0  0
   57.6995   32.3003   47.8245 H   0  0  0  0  0  0  0  0  0  0  0  0
   59.2807   30.1863   43.9432 H   0  0  0  0  0  0  0  0  0  0  0  0
   59.4057   31.4448   45.2553 H   0  0  0  0  0  0  0  0  0  0  0  0
   59.1711   28.8646   45.8493 H   0  0  0  0  0  0  0  0  0  0  0  0
   58.3240   30.1648   46.8048 H   0  0  0  0  0  0  0  0  0  0  0  0
  1  2  1  0
  2  3  1  0
  2  4  1  0
  2  5  1  0
  5  6  1  0
  6  7  2  0
  6  8  1  0
  8  9  1  0
  9 10  1  0
 10 11  1  0
 11 12  1  0
 12 13  1  0
 13 14  2  0
 14 15  1  0
 15 16  2  0
 16 17  1  0
 17 18  1  0
 18 19  1  0
 19 20  1  0
 20 21  2  0
 20 22  1  0
 22 23  1  0
 23 24  1  0
 24 25  2  0
 25 26  1  0
 26 27  2  0
 27 28  1  0
 28 29  2  0
 29 30  1  0
 17 31  2  0
 11 32  1  0
 32 33  1  0
 33  8  1  0
 31 13  1  0
 29 24  1  0
  1 34  1  0
  1 35  1  0
  1 36  1  0
  3 37  1  0
  3 38  1  0
  3 39  1  0
  4 40  1  0
  4 41  1  0
  4 42  1  0
  8 43  1  0
  9 44  1  0
  9 45  1  0
 10 46  1  0
 10 47  1  0
 12 48  1  0
 12 49  1  0
 14 50  1  0
 15 51  1  0
 16 52  1  0
 19 53  1  0
 19 54  1  0
 23 55  1  0
 23 56  1  0
 25 57  1  0
 26 58  1  0
 27 59  1  0
 28 60  1  0
 31 61  1  0
 32 62  1  0
 32 63  1  0
 33 64  1  0
 33 65  1  0
M  CHG  2   5  -1  22  -1
M  END
>  <UniqueID>  (51) 
51

>  <SMILES>  (51) 
CC(C)(C)[N-]C(=O)C1CCN(Cc2cccc(OCC(=O)[N-]Cc3ccccc3Cl)c2)CC1

>  <Energy>  (51) 
66.9213689287477

>  <Genealogy>  (51) 
CC(C)(C)[N-]C(=O)C1CCN(Cc2cccc(OCC(=O)[N-]Cc3ccccc3Cl)c2)CC1 (protonated)
CC(C)(C)[N-]C(=O)C1CCN(Cc2cccc(OCC(=O)[N-]Cc3ccccc3Cl)c2)CC1 (3D coordinates assigned)
CC(C)(C)[N-]C(=O)C1CCN(Cc2cccc(OCC(=O)[N-]Cc3ccccc3Cl)c2)CC1 (nonaromatic ring conformer: 66.9213689287477 kcal/mol)

>  <smiles>  (51) 
CC(C)(C)NC(=O)C1CCN(Cc2cccc(OCC(=O)NCc3ccccc3Cl)c2)CC1

>  <score_type>  (51) 
oracle

>  <origin>  (51) 
adg

>  <m_score__min__energy>  (51) 
-13.65

>  <m_primary>  (51) 
energy

$$$$
51:0
     RDKit          3D

 35 36  0  0  0  0  0  0  0  0999 V2000
   57.0870   26.8800   46.0650 C   0  0  0  0  0  0  0  0  0  0  0  0
   57.8920   28.4630   46.1890 S   0  0  0  0  0  0  0  0  0  0  0  0
   59.1840   28.4580   45.4220 O   0  0  0  0  0  0  0  0  0  0  0  0
   58.1890   28.7380   47.6350 O   0  0  0  0  0  0  0  0  0  0  0  0
   56.8480   29.7100   45.5890 N   0  0  0  0  0  0  0  0  0  0  0  0
   57.1460   30.6300   44.5260 C   0  0  0  0  0  0  0  0  0  0  0  0
   56.8710   30.3150   43.1820 C   0  0  0  0  0  0  0  0  0  0  0  0
   57.1540   31.2330   42.1680 C   0  0  0  0  0  0  0  0  0  0  0  0
   57.7100   32.4740   42.4800 C   0  0  0  0  0  0  0  0  0  0  0  0
   57.9910   32.7980   43.8080 C   0  0  0  0  0  0  0  0  0  0  0  0
   57.7270   31.8790   44.8380 C   0  0  0  0  0  0  0  0  0  0  0  0
   58.0050   32.2740   46.2700 C   0  0  0  0  0  0  0  0  0  0  0  0
   58.7330   31.2030   46.9670 N   0  0  0  0  0  0  0  0  0  0  0  0
   60.0330   31.6740   47.3780 C   0  0  0  0  0  0  0  0  0  0  0  0
   60.6100   32.7940   46.7510 C   0  0  0  0  0  0  0  0  0  0  0  0
   61.8820   33.2360   47.1240 C   0  0  0  0  0  0  0  0  0  0  0  0
   62.5950   32.5620   48.1200 C   0  0  0  0  0  0  0  0  0  0  0  0
   64.1920   33.1180   48.5860 Cl  0  0  0  0  0  0  0  0  0  0  0  0
   62.0360   31.4400   48.7400 C   0  0  0  0  0  0  0  0  0  0  0  0
   60.7640   30.9920   48.3700 C   0  0  0  0  0  0  0  0  0  0  0  0
   60.2460   29.8940   48.9740 F   0  0  0  0  0  0  0  0  0  0  0  0
   56.8885   26.4896   47.0740 H   0  0  0  0  0  0  0  0  0  0  0  0
   56.1370   26.9933   45.5222 H   0  0  0  0  0  0  0  0  0  0  0  0
   57.7381   26.1790   45.5222 H   0  0  0  0  0  0  0  0  0  0  0  0
   56.4303   29.3395   42.9286 H   0  0  0  0  0  0  0  0  0  0  0  0
   56.9379   30.9767   41.1203 H   0  0  0  0  0  0  0  0  0  0  0  0
   57.9268   33.1967   41.6796 H   0  0  0  0  0  0  0  0  0  0  0  0
   58.4225   33.7804   44.0505 H   0  0  0  0  0  0  0  0  0  0  0  0
   58.6121   33.1912   46.2813 H   0  0  0  0  0  0  0  0  0  0  0  0
   57.0479   32.4468   46.7839 H   0  0  0  0  0  0  0  0  0  0  0  0
   58.8410   30.3740   46.3370 H   0  0  0  0  0  0  0  0  0  0  0  0
   58.1850   30.8970   47.8050 H   0  0  0  0  0  0  0  0  0  0  0  0
   60.0563   33.3247   45.9625 H   0  0  0  0  0  0  0  0  0  0  0  0
   62.3232   34.1159   46.6331 H   0  0  0  0  0  0  0  0  0  0  0  0
   62.5987   30.9081   49.5213 H   0  0  0  0  0  0  0  0  0  0  0  0
  1  2  1  0
  2  3  2  0
  2  4  2  0
  2  5  1  0
  5  6  1  0
  6  7  2  0
  7  8  1  0
  8  9  2  0
  9 10  1  0
 10 11  2  0
 11 12  1  0
 12 13  1  0
 13 14  1  0
 14 15  2  0
 15 16  1  0
 16 17  2  0
 17 18  1  0
 17 19  1  0
 19 20  2  0
 20 21  1  0
 11  6  1  0
 20 14  1  0
  1 22  1  0
  1 23  1  0
  1 24  1  0
  7 25  1  0
  8 26  1  0
  9 27  1  0
 10 28  1  0
 12 29  1  0
 12 30  1  0
 13 31  1  0
 13 32  1  0
 15 33  1  0
 16 34  1  0
 19 35  1  0
M  CHG  2   5  -1  13   1
M  END
>  <UniqueID>  (52) 
52

>  <SMILES>  (52) 
CS(=O)(=O)[N-]c1ccccc1C[NH2+]c1ccc(Cl)cc1F

>  <Energy>  (52) 
35.26924148170435

>  <Genealogy>  (52) 
CS(=O)(=O)[N-]c1ccccc1C[NH2+]c1ccc(Cl)cc1F (protonated)
CS(=O)(=O)[N-]c1ccccc1C[NH2+]c1ccc(Cl)cc1F (3D coordinates assigned)
CS(=O)(=O)[N-]c1ccccc1C[NH2+]c1ccc(Cl)cc1F (optimized conformer: 35.26924148170435 kcal/mol)

>  <smiles>  (52) 
CS(=O)(=O)Nc1ccccc1CNc1ccc(Cl)cc1F

>  <score_type>  (52) 
oracle

>  <origin>  (52) 
adg

>  <m_score__min__energy>  (52) 
-6.9699999999999998

>  <m_primary>  (52) 
energy

$$$$
52:0
     RDKit          3D

 39 41  0  0  1  0  0  0  0  0999 V2000
   57.6520   28.4700   43.7320 N   0  0  0  0  0  0  0  0  0  0  0  0
   56.6800   29.9010   43.8330 S   0  0  0  0  0  0  0  0  0  0  0  0
   56.1670   30.2630   42.4660 O   0  0  0  0  0  0  0  0  0  0  0  0
   55.5540   29.7040   44.8070 O   0  0  0  0  0  0  0  0  0  0  0  0
   57.6330   31.2540   44.4180 C   0  0  0  0  0  0  0  0  0  0  0  0
   58.2960   31.1290   45.6390 C   0  0  0  0  0  0  0  0  0  0  0  0
   59.0440   32.1930   46.0980 C   0  0  0  0  0  0  0  0  0  0  0  0
   59.1420   33.3730   45.3670 C   0  0  0  0  0  0  0  0  0  0  0  0
   59.9430   34.4000   45.9430 N   0  0  0  0  0  0  0  0  0  0  0  0
   60.7350   34.1490   46.9070 C   0  0  0  0  0  0  0  0  0  0  0  0
   62.0300   33.8750   46.5970 N   0  0  0  0  0  0  0  0  0  0  0  0
   62.9500   33.5970   47.5410 C   0  0  0  0  0  0  0  0  0  0  0  0
   62.5200   33.6020   48.8530 C   0  0  0  0  0  0  0  0  0  0  0  0
   61.2120   33.8790   49.1720 C   0  0  0  0  0  0  0  0  0  0  0  0
   60.8460   33.8760   50.4060 N   0  0  0  0  0  0  0  0  0  0  0  0
   59.6790   33.1830   50.8400 C   0  0  0  0  0  0  0  0  0  0  0  0
   59.2470   32.0040   50.2670 C   0  0  0  0  0  0  0  0  0  0  0  0
   58.1110   31.4140   50.7550 C   0  0  0  0  0  0  0  0  0  0  0  0
   57.3580   31.9230   51.7930 C   0  0  0  0  0  0  0  0  0  0  0  0
   55.9100   31.1410   52.3910 Cl  0  0  0  0  0  0  0  0  0  0  0  0
   57.7950   33.1070   52.3630 C   0  0  0  0  0  0  0  0  0  0  0  0
   58.9350   33.7250   51.8950 C   0  0  0  0  0  0  0  0  0  0  0  0
   60.3390   34.1480   48.1930 N   0  0  0  0  0  0  0  0  0  0  0  0
   58.4910   33.5110   44.1580 C   0  0  0  0  0  0  0  0  0  0  0  0
   57.7490   32.4350   43.7170 C   0  0  0  0  0  0  0  0  0  0  0  0
   56.9940   27.6840   43.4490 H   0  0  0  0  0  0  0  0  0  0  0  0
   58.3690   28.5900   42.9880 H   0  0  0  0  0  0  0  0  0  0  0  0
   58.2237   30.2003   46.2241 H   0  0  0  0  0  0  0  0  0  0  0  0
   59.5724   32.1073   47.0589 H   0  0  0  0  0  0  0  0  0  0  0  0
   62.3360   33.8740   45.6110 H   0  0  0  0  0  0  0  0  0  0  0  0
   63.9952   33.3763   47.2787 H   0  0  0  0  0  0  0  0  0  0  0  0
   63.2369   33.3804   49.6573 H   0  0  0  0  0  0  0  0  0  0  0  0
   59.8036   31.5474   49.4353 H   0  0  0  0  0  0  0  0  0  0  0  0
   57.7780   30.4746   50.2896 H   0  0  0  0  0  0  0  0  0  0  0  0
   57.2300   33.5564   53.1929 H   0  0  0  0  0  0  0  0  0  0  0  0
   59.2674   34.6645   52.3606 H   0  0  0  0  0  0  0  0  0  0  0  0
   59.3420   34.3610   48.4160 H   0  0  0  0  0  0  0  0  0  0  0  0
   58.5608   34.4389   43.5714 H   0  0  0  0  0  0  0  0  0  0  0  0
   57.2223   32.5242   42.7554 H   0  0  0  0  0  0  0  0  0  0  0  0
  1  2  1  0
  2  3  2  0
  2  4  2  0
  2  5  1  0
  5  6  2  0
  6  7  1  0
  7  8  2  0
  8  9  1  0
  9 10  2  0
 10 11  1  0
 11 12  1  0
 12 13  2  0
 13 14  1  0
 14 15  2  0
 15 16  1  0
 16 17  2  0
 17 18  1  0
 18 19  2  0
 19 20  1  0
 19 21  1  0
 21 22  2  0
 14 23  1  0
  8 24  1  0
 24 25  2  0
 25  5  1  0
 23 10  1  0
 22 16  1  0
  1 26  1  0
  1 27  1  0
  6 28  1  0
  7 29  1  0
 11 30  1  0
 12 31  1  0
 13 32  1  0
 17 33  1  0
 18 34  1  0
 21 35  1  0
 22 36  1  0
 23 37  1  0
 24 38  1  0
 25 39  1  0
M  END
>  <smiles>  (53) 
NS(=O)(=O)c1ccc(N=c2[nH]ccc(=Nc3ccc(Cl)cc3)[nH]2)cc1

>  <score_type>  (53) 
oracle

>  <origin>  (53) 
adg

>  <m_score__min__energy>  (53) 
-8.7899999999999991

>  <m_primary>  (53) 
energy

$$$$
53:0
     RDKit          3D

 51 54  0  0  0  0  0  0  0  0999 V2000
   57.7170   34.5020   44.8780 C   0  0  0  0  0  0  0  0  0  0  0  0
   57.7620   33.0020   44.7740 C   0  0  0  0  0  0  0  0  0  0  0  0
   57.8610   32.4020   43.5050 C   0  0  0  0  0  0  0  0  0  0  0  0
   57.9150   31.0120   43.3820 C   0  0  0  0  0  0  0  0  0  0  0  0
   57.8870   30.2060   44.5220 C   0  0  0  0  0  0  0  0  0  0  0  0
   57.8050   30.7880   45.7890 C   0  0  0  0  0  0  0  0  0  0  0  0
   57.7350   32.1850   45.9300 C   0  0  0  0  0  0  0  0  0  0  0  0
   57.6850   32.7730   47.2400 N   0  0  0  0  0  0  0  0  0  0  0  0
   59.1020   33.3350   48.0710 S   0  0  0  0  0  0  0  0  0  0  0  0
   59.2270   34.8220   47.9080 O   0  0  0  0  0  0  0  0  0  0  0  0
   60.3220   32.6700   47.4950 O   0  0  0  0  0  0  0  0  0  0  0  0
   58.9820   32.9280   49.7830 C   0  0  0  0  0  0  0  0  0  0  0  0
   59.4940   33.7970   50.7570 C   0  0  0  0  0  0  0  0  0  0  0  0
   59.3930   33.4700   52.1110 C   0  0  0  0  0  0  0  0  0  0  0  0
   58.7890   32.2730   52.5040 C   0  0  0  0  0  0  0  0  0  0  0  0
   58.2790   31.3880   51.5390 C   0  0  0  0  0  0  0  0  0  0  0  0
   57.6400   30.1180   51.9560 C   0  0  0  0  0  0  0  0  0  0  0  0
   58.3260   29.0590   51.9780 O   0  0  0  0  0  0  0  0  0  0  0  0
   56.2550   30.0730   52.3490 N   0  0  0  0  0  0  0  0  0  0  0  0
   55.8410   29.2060   53.4570 C   0  0  0  0  0  0  0  0  0  0  0  0
   54.4840   28.5810   53.1450 C   0  0  0  0  0  0  0  0  0  0  0  0
   53.4890   29.6120   52.6790 C   0  0  0  0  0  0  0  0  0  0  0  0
   52.1170   29.3250   52.7650 C   0  0  0  0  0  0  0  0  0  0  0  0
   51.1730   30.2390   52.2900 C   0  0  0  0  0  0  0  0  0  0  0  0
   51.5890   31.4410   51.7140 C   0  0  0  0  0  0  0  0  0  0  0  0
   50.6480   32.3490   51.2450 O   0  0  0  0  0  0  0  0  0  0  0  0
   52.9520   31.7310   51.6080 C   0  0  0  0  0  0  0  0  0  0  0  0
   53.9130   30.8180   52.0740 C   0  0  0  0  0  0  0  0  0  0  0  0
   55.3750   31.1840   51.9690 C   0  0  0  0  0  0  0  0  0  0  0  0
   58.3610   31.7340   50.1790 C   0  0  0  0  0  0  0  0  0  0  0  0
   57.7082   34.7960   45.9380 H   0  0  0  0  0  0  0  0  0  0  0  0
   58.6027   34.9304   44.3860 H   0  0  0  0  0  0  0  0  0  0  0  0
   56.8072   34.8765   44.3860 H   0  0  0  0  0  0  0  0  0  0  0  0
   57.8961   33.0320   42.6040 H   0  0  0  0  0  0  0  0  0  0  0  0
   57.9797   30.5512   42.3853 H   0  0  0  0  0  0  0  0  0  0  0  0
   57.9296   29.1114   44.4220 H   0  0  0  0  0  0  0  0  0  0  0  0
   57.7951   30.1482   46.6837 H   0  0  0  0  0  0  0  0  0  0  0  0
   56.7870   32.7550   47.7720 H   0  0  0  0  0  0  0  0  0  0  0  0
   59.9762   34.7381   50.4541 H   0  0  0  0  0  0  0  0  0  0  0  0
   59.7908   34.1580   52.8715 H   0  0  0  0  0  0  0  0  0  0  0  0
   58.7125   32.0226   53.5724 H   0  0  0  0  0  0  0  0  0  0  0  0
   56.5868   28.4094   53.5957 H   0  0  0  0  0  0  0  0  0  0  0  0
   55.7625   29.8044   54.3767 H   0  0  0  0  0  0  0  0  0  0  0  0
   54.6123   27.8267   52.3547 H   0  0  0  0  0  0  0  0  0  0  0  0
   54.0970   28.1237   54.0676 H   0  0  0  0  0  0  0  0  0  0  0  0
   51.7837   28.3753   53.2088 H   0  0  0  0  0  0  0  0  0  0  0  0
   50.0998   30.0112   52.3700 H   0  0  0  0  0  0  0  0  0  0  0  0
   53.2748   32.6807   51.1566 H   0  0  0  0  0  0  0  0  0  0  0  0
   55.5945   31.4698   50.9297 H   0  0  0  0  0  0  0  0  0  0  0  0
   55.5646   32.0164   52.6627 H   0  0  0  0  0  0  0  0  0  0  0  0
   57.9346   31.0629   49.4189 H   0  0  0  0  0  0  0  0  0  0  0  0
  1  2  1  0
  2  3  2  0
  3  4  1  0
  4  5  2  0
  5  6  1  0
  6  7  2  0
  7  8  1  0
  8  9  1  0
  9 10  2  0
  9 11  2  0
  9 12  1  0
 12 13  2  0
 13 14  1  0
 14 15  2  0
 15 16  1  0
 16 17  1  0
 17 18  2  0
 17 19  1  0
 19 20  1  0
 20 21  1  0
 21 22  1  0
 22 23  2  0
 23 24  1  0
 24 25  2  0
 25 26  1  0
 25 27  1  0
 27 28  2  0
 28 29  1  0
 16 30  2  0
  7  2  1  0
 30 12  1  0
 29 19  1  0
 28 22  1  0
  1 31  1  0
  1 32  1  0
  1 33  1  0
  3 34  1  0
  4 35  1  0
  5 36  1  0
  6 37  1  0
  8 38  1  0
 13 39  1  0
 14 40  1  0
 15 41  1  0
 20 42  1  0
 20 43  1  0
 21 44  1  0
 21 45  1  0
 23 46  1  0
 24 47  1  0
 27 48  1  0
 29 49  1  0
 29 50  1  0
 30 51  1  0
M  CHG  1  26  -1
M  END
>  <UniqueID>  (54) 
53

>  <SMILES>  (54) 
Cc1ccccc1NS(=O)(=O)c1cccc(C(=O)N2CCc3ccc([O-])cc3C2)c1

>  <Energy>  (54) 
65.4923207304466

>  <Genealogy>  (54) 
Cc1ccccc1NS(=O)(=O)c1cccc(C(=O)N2CCc3ccc([O-])cc3C2)c1 (protonated)
Cc1ccccc1NS(=O)(=O)c1cccc(C(=O)N2CCc3ccc([O-])cc3C2)c1 (3D coordinates assigned)
Cc1ccccc1NS(=O)(=O)c1cccc(C(=O)N2CCc3ccc([O-])cc3C2)c1 (nonaromatic ring conformer: 65.4923207304466 kcal/mol)

>  <smiles>  (54) 
Cc1ccccc1NS(=O)(=O)c1cccc(C(=O)N2CCc3ccc(O)cc3C2)c1

>  <score_type>  (54) 
oracle

>  <origin>  (54) 
adg

>  <m_score__min__energy>  (54) 
-13.279999999999999

>  <m_primary>  (54) 
energy

$$$$
54:0
     RDKit          3D

 70 73  0  0  0  0  0  0  0  0999 V2000
   67.5300   33.5200   50.5490 C   0  0  0  0  0  0  0  0  0  0  0  0
   67.0280   32.0830   50.6530 C   0  0  0  0  0  0  0  0  0  0  0  0
   65.7630   31.9450   50.0110 O   0  0  0  0  0  0  0  0  0  0  0  0
   64.5730   31.6770   50.7020 C   0  0  0  0  0  0  0  0  0  0  0  0
   64.6140   31.0830   51.8150 O   0  0  0  0  0  0  0  0  0  0  0  0
   63.3060   32.0890   50.1480 N   0  0  0  0  0  0  0  0  0  0  0  0
   63.2390   32.5390   48.7470 C   0  0  0  0  0  0  0  0  0  0  0  0
   62.1390   33.5880   48.5610 C   0  0  0  0  0  0  0  0  0  0  0  0
   60.9050   33.1260   49.2020 N   0  0  0  0  0  0  0  0  0  0  0  0
   59.7380   32.7650   48.4320 C   0  0  0  0  0  0  0  0  0  0  0  0
   59.0200   31.7980   48.8050 O   0  0  0  0  0  0  0  0  0  0  0  0
   59.4050   33.4490   47.1600 C   0  0  0  0  0  0  0  0  0  0  0  0
   59.9590   34.7230   46.9440 C   0  0  0  0  0  0  0  0  0  0  0  0
   59.6290   35.4600   45.8060 C   0  0  0  0  0  0  0  0  0  0  0  0
   58.7310   34.9430   44.8770 C   0  0  0  0  0  0  0  0  0  0  0  0
   58.1720   33.6800   45.0690 C   0  0  0  0  0  0  0  0  0  0  0  0
   58.5380   32.8840   46.1780 C   0  0  0  0  0  0  0  0  0  0  0  0
   58.0070   31.5360   46.3100 N   0  0  0  0  0  0  0  0  0  0  0  0
   58.0060   30.7790   45.0410 C   0  0  0  0  0  0  0  0  0  0  0  0
   57.2010   29.5030   45.1320 C   0  0  0  0  0  0  0  0  0  0  0  0
   55.9680   29.5400   44.8710 O   0  0  0  0  0  0  0  0  0  0  0  0
   57.8250   28.2170   45.5180 C   0  0  0  0  0  0  0  0  0  0  0  0
   59.2230   28.0830   45.6020 C   0  0  0  0  0  0  0  0  0  0  0  0
   59.7950   26.8620   45.9670 C   0  0  0  0  0  0  0  0  0  0  0  0
   58.9840   25.7610   46.2450 C   0  0  0  0  0  0  0  0  0  0  0  0
   57.5890   25.8730   46.1490 C   0  0  0  0  0  0  0  0  0  0  0  0
   56.5660   24.4700   46.4640 S   0  0  0  0  0  0  0  0  0  0  0  0
   55.1230   24.8800   46.3550 O   0  0  0  0  0  0  0  0  0  0  0  0
   56.8060   23.9920   47.8680 O   0  0  0  0  0  0  0  0  0  0  0  0
   56.8850   23.1610   45.3470 N   0  0  0  0  0  0  0  0  0  0  0  0
   57.7050   23.6160   44.2170 C   0  0  0  0  0  0  0  0  0  0  0  0
   56.7850   23.8950   43.0360 C   0  0  0  0  0  0  0  0  0  0  0  0
   55.4460   23.2870   43.4000 C   0  0  0  0  0  0  0  0  0  0  0  0
   55.6400   22.6450   44.7670 C   0  0  0  0  0  0  0  0  0  0  0  0
   57.0150   27.1010   45.7900 C   0  0  0  0  0  0  0  0  0  0  0  0
   60.9960   32.7900   50.6240 C   0  0  0  0  0  0  0  0  0  0  0  0
   62.0530   31.7040   50.8180 C   0  0  0  0  0  0  0  0  0  0  0  0
   67.6740   33.9321   51.5587 H   0  0  0  0  0  0  0  0  0  0  0  0
   68.4869   33.5358   50.0067 H   0  0  0  0  0  0  0  0  0  0  0  0
   66.7911   34.1282   50.0067 H   0  0  0  0  0  0  0  0  0  0  0  0
   67.7532   31.4111   50.1707 H   0  0  0  0  0  0  0  0  0  0  0  0
   66.9161   31.8229   51.7159 H   0  0  0  0  0  0  0  0  0  0  0  0
   64.2068   32.9781   48.4633 H   0  0  0  0  0  0  0  0  0  0  0  0
   63.0085   31.6720   48.1105 H   0  0  0  0  0  0  0  0  0  0  0  0
   62.4565   34.5364   49.0191 H   0  0  0  0  0  0  0  0  0  0  0  0
   61.9575   33.7402   47.4868 H   0  0  0  0  0  0  0  0  0  0  0  0
   60.6601   35.1433   47.6800 H   0  0  0  0  0  0  0  0  0  0  0  0
   60.0790   36.4504   45.6431 H   0  0  0  0  0  0  0  0  0  0  0  0
   58.4613   35.5326   43.9884 H   0  0  0  0  0  0  0  0  0  0  0  0
   57.4355   33.2977   44.3469 H   0  0  0  0  0  0  0  0  0  0  0  0
   58.5460   30.9690   47.0000 H   0  0  0  0  0  0  0  0  0  0  0  0
   57.0250   31.6070   46.6590 H   0  0  0  0  0  0  0  0  0  0  0  0
   57.5753   31.4129   44.2519 H   0  0  0  0  0  0  0  0  0  0  0  0
   59.0465   30.5037   44.8138 H   0  0  0  0  0  0  0  0  0  0  0  0
   59.8693   28.9447   45.3790 H   0  0  0  0  0  0  0  0  0  0  0  0
   60.8888   26.7681   46.0355 H   0  0  0  0  0  0  0  0  0  0  0  0
   59.4392   24.8040   46.5398 H   0  0  0  0  0  0  0  0  0  0  0  0
   58.2423   24.5349   44.4943 H   0  0  0  0  0  0  0  0  0  0  0  0
   58.4402   22.8430   43.9486 H   0  0  0  0  0  0  0  0  0  0  0  0
   56.6829   24.9788   42.8783 H   0  0  0  0  0  0  0  0  0  0  0  0
   57.1830   23.4669   42.1041 H   0  0  0  0  0  0  0  0  0  0  0  0
   54.6719   24.0669   43.4494 H   0  0  0  0  0  0  0  0  0  0  0  0
   55.1178   22.5520   42.6503 H   0  0  0  0  0  0  0  0  0  0  0  0
   54.7923   22.8987   45.4205 H   0  0  0  0  0  0  0  0  0  0  0  0
   55.6939   21.5509   44.6671 H   0  0  0  0  0  0  0  0  0  0  0  0
   55.9209   27.1917   45.7206 H   0  0  0  0  0  0  0  0  0  0  0  0
   61.2797   33.6857   51.1961 H   0  0  0  0  0  0  0  0  0  0  0  0
   60.0215   32.4245   50.9800 H   0  0  0  0  0  0  0  0  0  0  0  0
   62.2424   31.5691   51.8932 H   0  0  0  0  0  0  0  0  0  0  0  0
   61.6862   30.7637   50.3806 H   0  0  0  0  0  0  0  0  0  0  0  0
  1  2  1  0
  2  3  1  0
  3  4  1  0
  4  5  2  0
  4  6  1  0
  6  7  1  0
  7  8  1  0
  8  9  1  0
  9 10  1  0
 10 11  2  0
 10 12  1  0
 12 13  2  0
 13 14  1  0
 14 15  2  0
 15 16  1  0
 16 17  2  0
 17 18  1  0
 18 19  1  0
 19 20  1  0
 20 21  2  0
 20 22  1  0
 22 23  2  0
 23 24  1  0
 24 25  2  0
 25 26  1  0
 26 27  1  0
 27 28  2  0
 27 29  2  0
 27 30  1  0
 30 31  1  0
 31 32  1  0
 32 33  1  0
 33 34  1  0
 26 35  2  0
  9 36  1  0
 36 37  1  0
 37  6  1  0
 17 12  1  0
 35 22  1  0
 34 30  1  0
  1 38  1  0
  1 39  1  0
  1 40  1  0
  2 41  1  0
  2 42  1  0
  7 43  1  0
  7 44  1  0
  8 45  1  0
  8 46  1  0
 13 47  1  0
 14 48  1  0
 15 49  1  0
 16 50  1  0
 18 51  1  0
 18 52  1  0
 19 53  1  0
 19 54  1  0
 23 55  1  0
 24 56  1  0
 25 57  1  0
 31 58  1  0
 31 59  1  0
 32 60  1  0
 32 61  1  0
 33 62  1  0
 33 63  1  0
 34 64  1  0
 34 65  1  0
 35 66  1  0
 36 67  1  0
 36 68  1  0
 37 69  1  0
 37 70  1  0
M  CHG  1  18   1
M  END
>  <UniqueID>  (55) 
54

>  <SMILES>  (55) 
CCOC(=O)N1CCN(C(=O)c2ccccc2[NH2+]CC(=O)c2cccc(S(=O)(=O)N3CCCC3)c2)CC1

>  <Energy>  (55) 
81.16679687473248

>  <Genealogy>  (55) 
CCOC(=O)N1CCN(C(=O)c2ccccc2[NH2+]CC(=O)c2cccc(S(=O)(=O)N3CCCC3)c2)CC1 (protonated)
CCOC(=O)N1CCN(C(=O)c2ccccc2[NH2+]CC(=O)c2cccc(S(=O)(=O)N3CCCC3)c2)CC1 (3D coordinates assigned)
CCOC(=O)N1CCN(C(=O)c2ccccc2[NH2+]CC(=O)c2cccc(S(=O)(=O)N3CCCC3)c2)CC1 (nonaromatic ring conformer: 81.16679687473248 kcal/mol)

>  <smiles>  (55) 
CCOC(=O)N1CCN(C(=O)c2ccccc2NCC(=O)c2cccc(S(=O)(=O)N3CCCC3)c2)CC1

>  <score_type>  (55) 
oracle

>  <origin>  (55) 
adg

>  <m_score__min__energy>  (55) 
-8.6199999999999992

>  <m_primary>  (55) 
energy

$$$$
55:0
     RDKit          3D

 43 45  0  0  0  0  0  0  0  0999 V2000
   61.4460   34.2080   48.5100 C   0  0  0  0  0  0  0  0  0  0  0  0
   59.9900   34.3620   48.3530 N   0  0  0  0  0  0  0  0  0  0  0  0
   59.3070   33.0640   48.5770 C   0  0  0  0  0  0  0  0  0  0  0  0
   57.9420   32.9980   47.8770 C   0  0  0  0  0  0  0  0  0  0  0  0
   58.0910   33.1460   46.3450 C   0  0  0  0  0  0  0  0  0  0  0  0
   58.2080   31.8310   45.7080 N   0  0  0  0  0  0  0  0  0  0  0  0
   59.3150   31.0590   45.6680 C   0  0  0  0  0  0  0  0  0  0  0  0
   58.9610   29.8570   45.0950 C   0  0  0  0  0  0  0  0  0  0  0  0
   59.7850   28.7630   44.8600 O   0  0  0  0  0  0  0  0  0  0  0  0
   57.6140   29.9540   44.8200 C   0  0  0  0  0  0  0  0  0  0  0  0
   56.7350   28.8980   44.2190 C   0  0  0  0  0  0  0  0  0  0  0  0
   55.9020   28.2960   45.2550 N   0  0  0  0  0  0  0  0  0  0  0  0
   56.2650   27.0900   45.9410 C   0  0  0  0  0  0  0  0  0  0  0  0
   55.3920   26.2000   46.1320 O   0  0  0  0  0  0  0  0  0  0  0  0
   57.6700   26.8700   46.3680 C   0  0  0  0  0  0  0  0  0  0  0  0
   58.1910   27.5890   47.4600 C   0  0  0  0  0  0  0  0  0  0  0  0
   59.5240   27.4330   47.8390 C   0  0  0  0  0  0  0  0  0  0  0  0
   60.3370   26.5540   47.1290 C   0  0  0  0  0  0  0  0  0  0  0  0
   59.8320   25.8580   46.0790 N   0  0  0  0  0  0  0  0  0  0  0  0
   58.5380   25.9880   45.6820 C   0  0  0  0  0  0  0  0  0  0  0  0
   58.1310   25.3120   44.7000 O   0  0  0  0  0  0  0  0  0  0  0  0
   57.1780   31.1690   45.2040 N   0  0  0  0  0  0  0  0  0  0  0  0
   59.3100   34.0160   45.9600 C   0  0  0  0  0  0  0  0  0  0  0  0
   59.6520   35.0220   47.0660 C   0  0  0  0  0  0  0  0  0  0  0  0
   61.6986   34.1813   49.5803 H   0  0  0  0  0  0  0  0  0  0  0  0
   61.7691   33.2707   48.0335 H   0  0  0  0  0  0  0  0  0  0  0  0
   61.9580   35.0570   48.0335 H   0  0  0  0  0  0  0  0  0  0  0  0
   59.9443   32.2566   48.1873 H   0  0  0  0  0  0  0  0  0  0  0  0
   59.1375   32.9540   49.6583 H   0  0  0  0  0  0  0  0  0  0  0  0
   57.4711   32.0291   48.0997 H   0  0  0  0  0  0  0  0  0  0  0  0
   57.3201   33.8261   48.2479 H   0  0  0  0  0  0  0  0  0  0  0  0
   57.1835   33.6518   45.9838 H   0  0  0  0  0  0  0  0  0  0  0  0
   60.3164   31.3386   46.0272 H   0  0  0  0  0  0  0  0  0  0  0  0
   59.5840   27.8640   45.2800 H   0  0  0  0  0  0  0  0  0  0  0  0
   56.0911   29.3527   43.4518 H   0  0  0  0  0  0  0  0  0  0  0  0
   57.3643   28.1197   43.7628 H   0  0  0  0  0  0  0  0  0  0  0  0
   57.5419   28.2792   48.0188 H   0  0  0  0  0  0  0  0  0  0  0  0
   59.9291   27.9991   48.6908 H   0  0  0  0  0  0  0  0  0  0  0  0
   61.3899   26.4234   47.4193 H   0  0  0  0  0  0  0  0  0  0  0  0
   60.1777   33.3614   45.7910 H   0  0  0  0  0  0  0  0  0  0  0  0
   59.0602   34.5769   45.0473 H   0  0  0  0  0  0  0  0  0  0  0  0
   60.5140   35.6233   46.7412 H   0  0  0  0  0  0  0  0  0  0  0  0
   58.7626   35.6468   47.2351 H   0  0  0  0  0  0  0  0  0  0  0  0
  1  2  1  0
  2  3  1  0
  3  4  1  0
  4  5  1  0
  5  6  1  0
  6  7  1  0
  7  8  2  0
  8  9  1  0
  8 10  1  0
 10 11  1  0
 11 12  1  0
 12 13  1  0
 13 14  2  0
 13 15  1  0
 15 16  2  0
 16 17  1  0
 17 18  2  0
 18 19  1  0
 19 20  1  0
 20 21  2  0
 10 22  2  0
  5 23  1  0
 23 24  1  0
 24  2  1  0
 22  6  1  0
 20 15  1  0
  1 25  1  0
  1 26  1  0
  1 27  1  0
  3 28  1  0
  3 29  1  0
  4 30  1  0
  4 31  1  0
  5 32  1  0
  7 33  1  0
  9 34  1  0
 11 35  1  0
 11 36  1  0
 16 37  1  0
 17 38  1  0
 18 39  1  0
 23 40  1  0
 23 41  1  0
 24 42  1  0
 24 43  1  0
M  CHG  2  12  -1  19  -1
M  END
>  <UniqueID>  (56) 
55

>  <SMILES>  (56) 
CN1CCC(n2cc(O)c(C[N-]C(=O)c3ccc[n-]c3=O)n2)CC1

>  <Energy>  (56) 
81.55606074447483

>  <Genealogy>  (56) 
CN1CCC(n2cc(O)c(C[N-]C(=O)c3ccc[n-]c3=O)n2)CC1 (protonated)
CN1CCC(n2cc(O)c(C[N-]C(=O)c3ccc[n-]c3=O)n2)CC1 (3D coordinates assigned)
CN1CCC(n2cc(O)c(C[N-]C(=O)c3ccc[n-]c3=O)n2)CC1 (nonaromatic ring conformer: 81.55606074447483 kcal/mol)

>  <smiles>  (56) 
CN1CCC(n2cc(O)c(CNC(=O)c3ccc[nH]c3=O)n2)CC1

>  <score_type>  (56) 
oracle

>  <origin>  (56) 
adg

>  <m_score__min__energy>  (56) 
-11.960000000000001

>  <m_primary>  (56) 
energy

$$$$
56:0
     RDKit          3D

 53 56  0  0  0  0  0  0  0  0999 V2000
   55.1390   29.3440   44.8380 N   0  0  0  0  0  0  0  0  0  0  0  0
   56.6630   29.5110   44.0440 S   0  0  0  0  0  0  0  0  0  0  0  0
   57.5000   28.2890   44.3020 O   0  0  0  0  0  0  0  0  0  0  0  0
   56.4490   29.6450   42.5630 O   0  0  0  0  0  0  0  0  0  0  0  0
   57.4860   30.9410   44.6560 C   0  0  0  0  0  0  0  0  0  0  0  0
   57.7120   32.0360   43.8120 C   0  0  0  0  0  0  0  0  0  0  0  0
   58.3580   33.1770   44.2970 C   0  0  0  0  0  0  0  0  0  0  0  0
   58.7720   33.2410   45.6370 C   0  0  0  0  0  0  0  0  0  0  0  0
   59.5030   34.4550   46.1460 C   0  0  0  0  0  0  0  0  0  0  0  0
   59.8470   34.2900   47.6270 C   0  0  0  0  0  0  0  0  0  0  0  0
   61.2600   34.6010   47.8570 N   0  0  0  0  0  0  0  0  0  0  0  0
   62.2740   33.2400   47.4750 S   0  0  0  0  0  0  0  0  0  0  0  0
   61.4570   32.1620   46.8210 O   0  0  0  0  0  0  0  0  0  0  0  0
   63.3450   33.6770   46.5160 O   0  0  0  0  0  0  0  0  0  0  0  0
   63.0370   32.6260   48.9400 C   0  0  0  0  0  0  0  0  0  0  0  0
   62.3240   31.8170   49.8350 C   0  0  0  0  0  0  0  0  0  0  0  0
   62.9370   31.3480   51.0000 C   0  0  0  0  0  0  0  0  0  0  0  0
   64.2660   31.6930   51.2900 C   0  0  0  0  0  0  0  0  0  0  0  0
   64.9400   31.1530   52.5220 C   0  0  0  0  0  0  0  0  0  0  0  0
   65.7760   30.0070   52.1760 N   0  0  0  0  0  0  0  0  0  0  0  0
   65.3990   28.6300   52.2570 C   0  0  0  0  0  0  0  0  0  0  0  0
   64.4050   28.2030   52.9040 O   0  0  0  0  0  0  0  0  0  0  0  0
   66.3140   27.8120   51.4710 C   0  0  0  0  0  0  0  0  0  0  0  0
   66.3500   26.4350   51.2550 C   0  0  0  0  0  0  0  0  0  0  0  0
   67.3600   25.9240   50.4200 C   0  0  0  0  0  0  0  0  0  0  0  0
   68.3010   26.7900   49.8210 C   0  0  0  0  0  0  0  0  0  0  0  0
   68.2400   28.1770   50.0520 C   0  0  0  0  0  0  0  0  0  0  0  0
   67.2330   28.6580   50.8860 C   0  0  0  0  0  0  0  0  0  0  0  0
   66.9050   30.0170   51.2990 C   0  0  0  0  0  0  0  0  0  0  0  0
   67.5070   31.0600   50.9300 O   0  0  0  0  0  0  0  0  0  0  0  0
   64.9790   32.4990   50.3880 C   0  0  0  0  0  0  0  0  0  0  0  0
   64.3660   32.9670   49.2230 C   0  0  0  0  0  0  0  0  0  0  0  0
   58.5510   32.1400   46.4780 C   0  0  0  0  0  0  0  0  0  0  0  0
   57.9030   31.0000   45.9930 C   0  0  0  0  0  0  0  0  0  0  0  0
   55.2750   28.6680   45.6230 H   0  0  0  0  0  0  0  0  0  0  0  0
   57.3800   31.9979   42.7640 H   0  0  0  0  0  0  0  0  0  0  0  0
   58.5428   34.0285   43.6256 H   0  0  0  0  0  0  0  0  0  0  0  0
   60.4315   34.5862   45.5710 H   0  0  0  0  0  0  0  0  0  0  0  0
   58.8559   35.3365   46.0267 H   0  0  0  0  0  0  0  0  0  0  0  0
   59.2233   34.9725   48.2229 H   0  0  0  0  0  0  0  0  0  0  0  0
   59.6560   33.2487   47.9255 H   0  0  0  0  0  0  0  0  0  0  0  0
   61.2787   31.5504   49.6199 H   0  0  0  0  0  0  0  0  0  0  0  0
   62.3749   30.7051   51.6933 H   0  0  0  0  0  0  0  0  0  0  0  0
   65.5671   31.9392   52.9677 H   0  0  0  0  0  0  0  0  0  0  0  0
   64.1718   30.8336   53.2416 H   0  0  0  0  0  0  0  0  0  0  0  0
   65.6109   25.7684   51.7234 H   0  0  0  0  0  0  0  0  0  0  0  0
   67.4173   24.8417   50.2322 H   0  0  0  0  0  0  0  0  0  0  0  0
   69.0863   26.3781   49.1701 H   0  0  0  0  0  0  0  0  0  0  0  0
   68.9658   28.8609   49.5878 H   0  0  0  0  0  0  0  0  0  0  0  0
   66.0256   32.7633   50.5997 H   0  0  0  0  0  0  0  0  0  0  0  0
   64.9287   33.6052   48.5258 H   0  0  0  0  0  0  0  0  0  0  0  0
   58.8892   32.1738   47.5242 H   0  0  0  0  0  0  0  0  0  0  0  0
   57.7198   30.1468   46.6626 H   0  0  0  0  0  0  0  0  0  0  0  0
  1  2  1  0
  2  3  2  0
  2  4  2  0
  2  5  1  0
  5  6  2  0
  6  7  1  0
  7  8  2  0
  8  9  1  0
  9 10  1  0
 10 11  1  0
 11 12  1  0
 12 13  2  0
 12 14  2  0
 12 15  1  0
 15 16  2  0
 16 17  1  0
 17 18  2  0
 18 19  1  0
 19 20  1  0
 20 21  1  0
 21 22  2  0
 21 23  1  0
 23 24  2  0
 24 25  1  0
 25 26  2  0
 26 27  1  0
 27 28  2  0
 28 29  1  0
 29 30  2  0
 18 31  1  0
 31 32  2  0
  8 33  1  0
 33 34  2  0
 34  5  1  0
 32 15  1  0
 29 20  1  0
 28 23  1  0
  1 35  1  0
  6 36  1  0
  7 37  1  0
  9 38  1  0
  9 39  1  0
 10 40  1  0
 10 41  1  0
 16 42  1  0
 17 43  1  0
 19 44  1  0
 19 45  1  0
 24 46  1  0
 25 47  1  0
 26 48  1  0
 27 49  1  0
 31 50  1  0
 32 51  1  0
 33 52  1  0
 34 53  1  0
M  CHG  2   1  -1  11  -1
M  END
>  <UniqueID>  (57) 
56

>  <SMILES>  (57) 
[NH-]S(=O)(=O)c1ccc(CC[N-]S(=O)(=O)c2ccc(CN3C(=O)c4ccccc4C3=O)cc2)cc1

>  <Energy>  (57) 
84.39832976792151

>  <Genealogy>  (57) 
[NH-]S(=O)(=O)c1ccc(CC[N-]S(=O)(=O)c2ccc(CN3C(=O)c4ccccc4C3=O)cc2)cc1 (protonated)
[NH-]S(=O)(=O)c1ccc(CC[N-]S(=O)(=O)c2ccc(CN3C(=O)c4ccccc4C3=O)cc2)cc1 (3D coordinates assigned)
[NH-]S(=O)(=O)c1ccc(CC[N-]S(=O)(=O)c2ccc(CN3C(=O)c4ccccc4C3=O)cc2)cc1 (nonaromatic ring conformer: 84.39832976792151 kcal/mol)

>  <smiles>  (57) 
NS(=O)(=O)c1ccc(CCNS(=O)(=O)c2ccc(CN3C(=O)c4ccccc4C3=O)cc2)cc1

>  <score_type>  (57) 
oracle

>  <origin>  (57) 
adg

>  <m_score__min__energy>  (57) 
-13.470000000000001

>  <m_primary>  (57) 
energy

$$$$
57:0
     RDKit          3D

 46 49  0  0  0  0  0  0  0  0999 V2000
   59.5770   35.3280   46.6060 C   0  0  0  0  0  0  0  0  0  0  0  0
   59.0410   34.0740   47.2240 C   0  0  0  0  0  0  0  0  0  0  0  0
   58.3090   33.0640   46.5950 C   0  0  0  0  0  0  0  0  0  0  0  0
   57.8120   33.0750   45.1780 C   0  0  0  0  0  0  0  0  0  0  0  0
   57.0650   31.8590   44.8630 N   0  0  0  0  0  0  0  0  0  0  0  0
   57.6270   30.5570   44.6490 C   0  0  0  0  0  0  0  0  0  0  0  0
   58.6530   30.4510   43.9270 O   0  0  0  0  0  0  0  0  0  0  0  0
   57.0770   29.3320   45.3130 C   0  0  0  0  0  0  0  0  0  0  0  0
   57.7780   29.1210   46.5700 N   0  0  0  0  0  0  0  0  0  0  0  0
   59.1490   28.7260   46.6480 C   0  0  0  0  0  0  0  0  0  0  0  0
   59.4850   27.5390   46.3920 O   0  0  0  0  0  0  0  0  0  0  0  0
   60.1610   29.7070   47.0600 C   0  0  0  0  0  0  0  0  0  0  0  0
   60.8750   29.6730   48.2560 C   0  0  0  0  0  0  0  0  0  0  0  0
   61.6480   30.8140   48.2390 C   0  0  0  0  0  0  0  0  0  0  0  0
   62.5260   31.3270   49.1900 C   0  0  0  0  0  0  0  0  0  0  0  0
   63.1550   32.5550   48.9080 C   0  0  0  0  0  0  0  0  0  0  0  0
   64.2640   33.2540   50.0730 Cl  0  0  0  0  0  0  0  0  0  0  0  0
   62.8910   33.2310   47.6950 C   0  0  0  0  0  0  0  0  0  0  0  0
   61.9940   32.6880   46.7570 C   0  0  0  0  0  0  0  0  0  0  0  0
   61.3880   31.4720   47.0650 C   0  0  0  0  0  0  0  0  0  0  0  0
   60.4780   30.8070   46.3340 N   0  0  0  0  0  0  0  0  0  0  0  0
   58.0670   32.0470   47.4570 N   0  0  0  0  0  0  0  0  0  0  0  0
   58.6580   32.3940   48.6120 C   0  0  0  0  0  0  0  0  0  0  0  0
   58.7090   31.6480   49.7890 C   0  0  0  0  0  0  0  0  0  0  0  0
   59.4040   32.1910   50.8840 C   0  0  0  0  0  0  0  0  0  0  0  0
   60.0350   33.4540   50.7800 C   0  0  0  0  0  0  0  0  0  0  0  0
   60.7310   33.9860   51.8630 O   0  0  0  0  0  0  0  0  0  0  0  0
   59.9700   34.1800   49.5760 C   0  0  0  0  0  0  0  0  0  0  0  0
   59.2680   33.6170   48.5090 C   0  0  0  0  0  0  0  0  0  0  0  0
   59.8765   36.0287   47.3993 H   0  0  0  0  0  0  0  0  0  0  0  0
   60.4500   35.0853   45.9823 H   0  0  0  0  0  0  0  0  0  0  0  0
   58.7983   35.7913   45.9823 H   0  0  0  0  0  0  0  0  0  0  0  0
   57.1542   33.9453   45.0367 H   0  0  0  0  0  0  0  0  0  0  0  0
   58.6823   33.1289   44.5074 H   0  0  0  0  0  0  0  0  0  0  0  0
   56.0030   29.4685   45.5078 H   0  0  0  0  0  0  0  0  0  0  0  0
   57.2164   28.4593   44.6581 H   0  0  0  0  0  0  0  0  0  0  0  0
   60.8313   28.9042   49.0415 H   0  0  0  0  0  0  0  0  0  0  0  0
   62.7218   30.7909   50.1304 H   0  0  0  0  0  0  0  0  0  0  0  0
   63.3902   34.1880   47.4830 H   0  0  0  0  0  0  0  0  0  0  0  0
   61.7782   33.2067   45.8113 H   0  0  0  0  0  0  0  0  0  0  0  0
   60.0820   31.0960   45.4130 H   0  0  0  0  0  0  0  0  0  0  0  0
   57.5440   31.1650   47.2590 H   0  0  0  0  0  0  0  0  0  0  0  0
   58.2205   30.6649   49.8587 H   0  0  0  0  0  0  0  0  0  0  0  0
   59.4578   31.6301   51.8287 H   0  0  0  0  0  0  0  0  0  0  0  0
   60.7150   33.5410   52.7730 H   0  0  0  0  0  0  0  0  0  0  0  0
   60.4576   35.1612   49.4788 H   0  0  0  0  0  0  0  0  0  0  0  0
  1  2  1  0
  2  3  2  0
  3  4  1  0
  4  5  1  0
  5  6  1  0
  6  7  2  0
  6  8  1  0
  8  9  1  0
  9 10  1  0
 10 11  2  0
 10 12  1  0
 12 13  2  0
 13 14  1  0
 14 15  2  0
 15 16  1  0
 16 17  1  0
 16 18  2  0
 18 19  1  0
 19 20  2  0
 20 21  1  0
  3 22  1  0
 22 23  1  0
 23 24  2  0
 24 25  1  0
 25 26  2  0
 26 27  1  0
 26 28  1  0
 28 29  2  0
 29  2  1  0
 21 12  1  0
 29 23  1  0
 20 14  1  0
  1 30  1  0
  1 31  1  0
  1 32  1  0
  4 33  1  0
  4 34  1  0
  8 35  1  0
  8 36  1  0
 13 37  1  0
 15 38  1  0
 18 39  1  0
 19 40  1  0
 21 41  1  0
 22 42  1  0
 24 43  1  0
 25 44  1  0
 27 45  1  0
 28 46  1  0
M  CHG  2   5  -1   9  -1
M  END
>  <UniqueID>  (58) 
57

>  <SMILES>  (58) 
Cc1c(C[N-]C(=O)C[N-]C(=O)c2cc3cc(Cl)ccc3[nH]2)[nH]c2ccc(O)cc12

>  <Energy>  (58) 
99.50930739803873

>  <Genealogy>  (58) 
Cc1c(C[N-]C(=O)C[N-]C(=O)c2cc3cc(Cl)ccc3[nH]2)[nH]c2ccc(O)cc12 (protonated)
Cc1c(C[N-]C(=O)C[N-]C(=O)c2cc3cc(Cl)ccc3[nH]2)[nH]c2ccc(O)cc12 (3D coordinates assigned)
Cc1c(C[N-]C(=O)C[N-]C(=O)c2cc3cc(Cl)ccc3[nH]2)[nH]c2ccc(O)cc12 (optimized conformer: 99.50930739803873 kcal/mol)

>  <smiles>  (58) 
Cc1c(CNC(=O)CNC(=O)c2cc3cc(Cl)ccc3[nH]2)[nH]c2ccc(O)cc12

>  <score_type>  (58) 
oracle

>  <origin>  (58) 
adg

>  <m_score__min__energy>  (58) 
-11.68

>  <m_primary>  (58) 
energy

$$$$
58:0
     RDKit          3D

 39 41  0  0  0  0  0  0  0  0999 V2000
   57.6350   31.7420   42.6720 C   0  0  0  0  0  0  0  0  0  0  0  0
   57.1480   31.8900   44.0810 C   0  0  0  0  0  0  0  0  0  0  0  0
   57.3990   33.0310   44.7490 C   0  0  0  0  0  0  0  0  0  0  0  0
   57.6110   33.1150   46.2110 C   0  0  0  0  0  0  0  0  0  0  0  0
   56.6580   33.4620   46.9620 O   0  0  0  0  0  0  0  0  0  0  0  0
   58.9050   32.8380   46.7830 N   0  0  0  0  0  0  0  0  0  0  0  0
   59.0640   31.7790   47.7910 C   0  0  0  0  0  0  0  0  0  0  0  0
   60.0700   32.1950   48.8710 C   0  0  0  0  0  0  0  0  0  0  0  0
   61.3660   32.6660   48.2620 C   0  0  0  0  0  0  0  0  0  0  0  0
   62.5700   32.5130   48.9700 C   0  0  0  0  0  0  0  0  0  0  0  0
   63.7690   33.0110   48.4430 C   0  0  0  0  0  0  0  0  0  0  0  0
   64.9680   32.8540   49.1350 O   0  0  0  0  0  0  0  0  0  0  0  0
   63.7650   33.6770   47.2140 C   0  0  0  0  0  0  0  0  0  0  0  0
   62.5690   33.8510   46.5110 C   0  0  0  0  0  0  0  0  0  0  0  0
   61.3630   33.3510   47.0310 C   0  0  0  0  0  0  0  0  0  0  0  0
   60.0870   33.5140   46.3050 C   0  0  0  0  0  0  0  0  0  0  0  0
   60.0380   34.2290   45.2660 O   0  0  0  0  0  0  0  0  0  0  0  0
   56.4080   30.8030   44.6630 N   0  0  0  0  0  0  0  0  0  0  0  0
   56.9380   29.7090   45.1280 C   0  0  0  0  0  0  0  0  0  0  0  0
   56.1680   28.5940   45.2460 N   0  0  0  0  0  0  0  0  0  0  0  0
   56.6870   27.4330   45.7260 C   0  0  0  0  0  0  0  0  0  0  0  0
   58.0280   27.3720   46.1040 C   0  0  0  0  0  0  0  0  0  0  0  0
   58.8070   28.5220   45.9710 C   0  0  0  0  0  0  0  0  0  0  0  0
   58.2520   29.6620   45.4850 N   0  0  0  0  0  0  0  0  0  0  0  0
   58.6874   31.4222   42.6795 H   0  0  0  0  0  0  0  0  0  0  0  0
   57.0264   30.9882   42.1510 H   0  0  0  0  0  0  0  0  0  0  0  0
   57.5487   32.7069   42.1510 H   0  0  0  0  0  0  0  0  0  0  0  0
   57.4500   33.9642   44.1689 H   0  0  0  0  0  0  0  0  0  0  0  0
   58.0901   31.5826   48.2631 H   0  0  0  0  0  0  0  0  0  0  0  0
   59.4399   30.8737   47.2919 H   0  0  0  0  0  0  0  0  0  0  0  0
   59.6373   33.0114   49.4680 H   0  0  0  0  0  0  0  0  0  0  0  0
   60.2818   31.3199   49.5029 H   0  0  0  0  0  0  0  0  0  0  0  0
   62.5713   31.9997   49.9429 H   0  0  0  0  0  0  0  0  0  0  0  0
   65.8620   32.8780   48.6580 H   0  0  0  0  0  0  0  0  0  0  0  0
   64.7064   34.0657   46.7984 H   0  0  0  0  0  0  0  0  0  0  0  0
   62.5721   34.3813   45.5473 H   0  0  0  0  0  0  0  0  0  0  0  0
   56.0491   26.5414   45.8163 H   0  0  0  0  0  0  0  0  0  0  0  0
   58.4609   26.4404   46.4973 H   0  0  0  0  0  0  0  0  0  0  0  0
   59.8684   28.5051   46.2592 H   0  0  0  0  0  0  0  0  0  0  0  0
  1  2  1  0
  2  3  2  3
  3  4  1  0
  4  5  2  0
  4  6  1  0
  6  7  1  0
  7  8  1  0
  8  9  1  0
  9 10  2  0
 10 11  1  0
 11 12  1  0
 11 13  2  0
 13 14  1  0
 14 15  2  0
 15 16  1  0
 16 17  2  0
  2 18  1  0
 18 19  2  3
 19 20  1  0
 20 21  2  0
 21 22  1  0
 22 23  2  0
 23 24  1  0
 16  6  1  0
 24 19  1  0
 15  9  1  0
  1 25  1  0
  1 26  1  0
  1 27  1  0
  3 28  1  0
  7 29  1  0
  7 30  1  0
  8 31  1  0
  8 32  1  0
 10 33  1  0
 12 34  1  0
 13 35  1  0
 14 36  1  0
 21 37  1  0
 22 38  1  0
 23 39  1  0
M  CHG  1  24  -1
M  END
>  <UniqueID>  (59) 
58

>  <SMILES>  (59) 
CC(=CC(=O)N1CCc2cc(O)ccc2C1=O)N=c1nccc[n-]1

>  <Energy>  (59) 
54.655829528718314

>  <Genealogy>  (59) 
CC(=CC(=O)N1CCc2cc(O)ccc2C1=O)N=c1nccc[n-]1 (protonated)
CC(=CC(=O)N1CCc2cc(O)ccc2C1=O)N=c1nccc[n-]1 (3D coordinates assigned)
CC(=CC(=O)N1CCc2cc(O)ccc2C1=O)N=c1nccc[n-]1 (nonaromatic ring conformer: 54.655829528718314 kcal/mol)

>  <smiles>  (59) 
CC(=CC(=O)N1CCc2cc(O)ccc2C1=O)N=c1nccc[nH]1

>  <score_type>  (59) 
oracle

>  <origin>  (59) 
adg

>  <m_score__min__energy>  (59) 
-9.5700000000000003

>  <m_primary>  (59) 
energy

$$$$
59:0
     RDKit          3D

 54 57  0  0  0  0  0  0  0  0999 V2000
   56.0231   21.4895   45.1553 H   0  0  0  0  0  0  0  0  0  0  0  0
   57.0020   21.9810   45.2560 C   0  0  0  0  0  0  0  0  0  0  0  0
   57.9235   21.4214   45.0378 H   0  0  0  0  0  0  0  0  0  0  0  0
   57.0720   23.2630   45.6450 C   0  0  0  0  0  0  0  0  0  0  0  0
   58.3150   23.7960   45.7450 N   0  0  0  0  0  0  0  0  0  0  0  0
   58.5290   25.1190   45.9220 C   0  0  0  0  0  0  0  0  0  0  0  0
   59.7140   25.5410   46.0060 O   0  0  0  0  0  0  0  0  0  0  0  0
   57.4730   25.9850   45.9660 N   0  0  0  0  0  0  0  0  0  0  0  0
   57.7120   27.4020   46.0940 C   0  0  0  0  0  0  0  0  0  0  0  0
   58.3170   27.9190   47.2480 C   0  0  0  0  0  0  0  0  0  0  0  0
   58.6130   27.2404   48.0616 H   0  0  0  0  0  0  0  0  0  0  0  0
   58.5460   29.2920   47.3700 C   0  0  0  0  0  0  0  0  0  0  0  0
   59.0318   29.6860   48.2748 H   0  0  0  0  0  0  0  0  0  0  0  0
   58.1610   30.1720   46.3470 C   0  0  0  0  0  0  0  0  0  0  0  0
   58.4280   31.5790   46.4870 N   0  0  0  0  0  0  0  0  0  0  0  0
   59.0730   31.8670   47.2550 H   0  0  0  0  0  0  0  0  0  0  0  0
   57.7520   32.5950   45.7220 C   0  0  0  0  0  0  0  0  0  0  0  0
   56.6440   32.3350   45.1810 O   0  0  0  0  0  0  0  0  0  0  0  0
   58.2970   33.9960   45.5640 C   0  0  0  0  0  0  0  0  0  0  0  0
   57.5145   34.2994   44.8529 H   0  0  0  0  0  0  0  0  0  0  0  0
   59.8070   34.1770   45.6240 C   0  0  0  0  0  0  0  0  0  0  0  0
   60.4634   33.2989   45.7137 H   0  0  0  0  0  0  0  0  0  0  0  0
   60.5574   34.6726   44.9906 H   0  0  0  0  0  0  0  0  0  0  0  0
   58.9390   34.6030   46.8010 C   0  0  0  0  0  0  0  0  0  0  0  0
   58.9689   34.0327   47.7412 H   0  0  0  0  0  0  0  0  0  0  0  0
   58.8031   35.5344   47.3702 H   0  0  0  0  0  0  0  0  0  0  0  0
   57.5720   29.6500   45.1810 C   0  0  0  0  0  0  0  0  0  0  0  0
   57.2888   30.3261   44.3608 H   0  0  0  0  0  0  0  0  0  0  0  0
   57.3450   28.2760   45.0600 C   0  0  0  0  0  0  0  0  0  0  0  0
   56.8757   27.8777   44.1483 H   0  0  0  0  0  0  0  0  0  0  0  0
   56.1900   25.5070   45.9110 C   0  0  0  0  0  0  0  0  0  0  0  0
   55.2240   26.3220   45.9870 O   0  0  0  0  0  0  0  0  0  0  0  0
   55.9360   24.1120   45.8250 C   0  0  0  0  0  0  0  0  0  0  0  0
   54.6510   23.6730   45.9470 C   0  0  0  0  0  0  0  0  0  0  0  0
   53.9796   23.8619   45.0964 H   0  0  0  0  0  0  0  0  0  0  0  0
   54.0710   22.9680   47.1100 C   0  0  0  0  0  0  0  0  0  0  0  0
   54.7780   22.8550   48.3170 C   0  0  0  0  0  0  0  0  0  0  0  0
   55.7955   23.2658   48.3947 H   0  0  0  0  0  0  0  0  0  0  0  0
   54.1980   22.2240   49.4210 C   0  0  0  0  0  0  0  0  0  0  0  0
   54.7711   22.1279   50.3550 H   0  0  0  0  0  0  0  0  0  0  0  0
   52.8870   21.7090   49.3520 C   0  0  0  0  0  0  0  0  0  0  0  0
   52.2830   21.0510   50.4970 N   0  0  0  0  0  0  0  0  0  0  0  0
   52.3600   21.6560   51.8310 C   0  0  0  0  0  0  0  0  0  0  0  0
   52.2602   20.8716   52.5957 H   0  0  0  0  0  0  0  0  0  0  0  0
   53.3297   22.1617   51.9489 H   0  0  0  0  0  0  0  0  0  0  0  0
   51.5478   22.3885   51.9489 H   0  0  0  0  0  0  0  0  0  0  0  0
   51.5830   19.7690   50.3380 C   0  0  0  0  0  0  0  0  0  0  0  0
   51.3545   19.3506   51.3293 H   0  0  0  0  0  0  0  0  0  0  0  0
   50.6469   19.9287   49.7828 H   0  0  0  0  0  0  0  0  0  0  0  0
   52.2235   19.0679   49.7828 H   0  0  0  0  0  0  0  0  0  0  0  0
   52.1750   21.8590   48.1440 C   0  0  0  0  0  0  0  0  0  0  0  0
   51.1473   21.4742   48.0683 H   0  0  0  0  0  0  0  0  0  0  0  0
   52.7580   22.4900   47.0420 C   0  0  0  0  0  0  0  0  0  0  0  0
   52.1802   22.6118   46.1140 H   0  0  0  0  0  0  0  0  0  0  0  0
  1  2  1  0
  2  3  1  0
  2  4  2  0
  4  5  1  0
  5  6  1  0
  6  7  2  0
  6  8  1  0
  8  9  1  0
  9 10  2  0
 10 11  1  0
 10 12  1  0
 12 13  1  0
 12 14  2  0
 14 15  1  0
 15 16  1  0
 15 17  1  0
 17 18  2  0
 17 19  1  0
 19 20  1  0
 19 21  1  0
 21 22  1  0
 21 23  1  0
 21 24  1  0
 24 25  1  0
 24 26  1  0
 14 27  1  0
 27 28  1  0
 27 29  2  0
 29 30  1  0
  8 31  1  0
 31 32  2  0
 31 33  1  0
 33 34  2  0
 34 35  1  0
 34 36  1  0
 36 37  2  0
 37 38  1  0
 37 39  1  0
 39 40  1  0
 39 41  2  0
 41 42  1  0
 42 43  1  0
 43 44  1  0
 43 45  1  0
 43 46  1  0
 42 47  1  0
 47 48  1  0
 47 49  1  0
 47 50  1  0
 41 51  1  0
 51 52  1  0
 51 53  2  0
 53 54  1  0
 33  4  1  0
 53 36  1  0
 29  9  1  0
 24 19  1  0
M  CHG  1   5  -1
M  END
>  <UniqueID>  (60) 
59

>  <SMILES>  (60) 
C=c1[n-]c(=O)n(-c2ccc(NC(=O)C3CC3)cc2)c(=O)/c1=C/c1ccc(N(C)C)cc1

>  <Energy>  (60) 
361.5127214210701

>  <Genealogy>  (60) 
C=c1[n-]c(=O)n(-c2ccc(NC(=O)C3CC3)cc2)c(=O)c1=Cc1ccc(N(C)C)cc1 (protonated)
C=c1[n-]c(=O)n(-c2ccc(NC(=O)C3CC3)cc2)c(=O)/c1=C/c1ccc(N(C)C)cc1 (cis-trans isomerization)
C=c1[n-]c(=O)n(-c2ccc(NC(=O)C3CC3)cc2)c(=O)/c1=C/c1ccc(N(C)C)cc1 (3D coordinates assigned)
C=c1[n-]c(=O)n(-c2ccc(NC(=O)C3CC3)cc2)c(=O)/c1=C/c1ccc(N(C)C)cc1 (nonaromatic ring conformer: 361.5127214210701 kcal/mol)

>  <smiles>  (60) 
C=c1[nH]c(=O)n(-c2ccc(NC(=O)C3CC3)cc2)c(=O)c1=Cc1ccc(N(C)C)cc1

>  <score_type>  (60) 
oracle

>  <origin>  (60) 
adg

>  <m_score__min__energy>  (60) 
-9.9399999999999995

>  <m_primary>  (60) 
energy

$$$$
60:0
     RDKit          3D

 31 32  0  0  0  0  0  0  0  0999 V2000
   59.7894   27.1155   46.2686 H   0  0  0  0  0  0  0  0  0  0  0  0
   58.7080   26.9410   46.1680 C   0  0  0  0  0  0  0  0  0  0  0  0
   57.8910   27.9510   45.7730 N   0  0  0  0  0  0  0  0  0  0  0  0
   56.5450   27.7970   45.6270 C   0  0  0  0  0  0  0  0  0  0  0  0
   55.8600   28.8310   45.2190 N   0  0  0  0  0  0  0  0  0  0  0  0
   56.1890   29.7930   44.2090 C   0  0  0  0  0  0  0  0  0  0  0  0
   55.9460   29.5210   43.0030 O   0  0  0  0  0  0  0  0  0  0  0  0
   56.6560   31.0600   44.5670 O   0  0  0  0  0  0  0  0  0  0  0  0
   57.8400   31.6340   44.0230 C   0  0  0  0  0  0  0  0  0  0  0  0
   58.7089   31.3045   44.6115 H   0  0  0  0  0  0  0  0  0  0  0  0
   57.9538   31.3085   42.9784 H   0  0  0  0  0  0  0  0  0  0  0  0
   57.7460   33.1590   44.0680 C   0  0  0  0  0  0  0  0  0  0  0  0
   58.2704   33.5769   43.1960 H   0  0  0  0  0  0  0  0  0  0  0  0
   56.6835   33.4436   44.0539 H   0  0  0  0  0  0  0  0  0  0  0  0
   58.3700   33.7050   45.3250 C   0  0  0  0  0  0  0  0  0  0  0  0
   59.2070   34.8320   45.2700 C   0  0  0  0  0  0  0  0  0  0  0  0
   59.3843   35.3361   44.3085 H   0  0  0  0  0  0  0  0  0  0  0  0
   59.8160   35.3160   46.4330 C   0  0  0  0  0  0  0  0  0  0  0  0
   60.4659   36.2022   46.3853 H   0  0  0  0  0  0  0  0  0  0  0  0
   59.5990   34.6740   47.6550 C   0  0  0  0  0  0  0  0  0  0  0  0
   60.0761   35.0565   48.5693 H   0  0  0  0  0  0  0  0  0  0  0  0
   58.7760   33.5460   47.7160 C   0  0  0  0  0  0  0  0  0  0  0  0
   58.6071   33.0412   48.6786 H   0  0  0  0  0  0  0  0  0  0  0  0
   58.1670   33.0580   46.5560 C   0  0  0  0  0  0  0  0  0  0  0  0
   57.5269   32.1648   46.6070 H   0  0  0  0  0  0  0  0  0  0  0  0
   55.9670   26.5430   45.9580 C   0  0  0  0  0  0  0  0  0  0  0  0
   54.5930   26.3350   45.9790 O   0  0  0  0  0  0  0  0  0  0  0  0
   56.8000   25.4890   46.3420 C   0  0  0  0  0  0  0  0  0  0  0  0
   56.3678   24.5019   46.5631 H   0  0  0  0  0  0  0  0  0  0  0  0
   58.1760   25.6830   46.4460 C   0  0  0  0  0  0  0  0  0  0  0  0
   58.8343   24.8536   46.7438 H   0  0  0  0  0  0  0  0  0  0  0  0
  1  2  1  0
  2  3  1  0
  3  4  1  0
  4  5  2  0
  5  6  1  0
  6  7  2  0
  6  8  1  0
  8  9  1  0
  9 10  1  0
  9 11  1  0
  9 12  1  0
 12 13  1  0
 12 14  1  0
 12 15  1  0
 15 16  2  0
 16 17  1  0
 16 18  1  0
 18 19  1  0
 18 20  2  0
 20 21  1  0
 20 22  1  0
 22 23  1  0
 22 24  2  0
 24 25  1  0
  4 26  1  0
 26 27  1  0
 26 28  2  0
 28 29  1  0
 28 30  1  0
 30 31  1  0
 30  2  2  0
 24 15  1  0
M  CHG  2   3  -1  27  -1
M  END
>  <UniqueID>  (61) 
60

>  <SMILES>  (61) 
O=C(/N=c1/[n-]cccc1[O-])OCCc1ccccc1

>  <Energy>  (61) 
38.25955273844252

>  <Genealogy>  (61) 
O=C(N=c1[n-]cccc1[O-])OCCc1ccccc1 (protonated)
O=C(/N=c1/[n-]cccc1[O-])OCCc1ccccc1 (cis-trans isomerization)
O=C(/N=c1/[n-]cccc1[O-])OCCc1ccccc1 (3D coordinates assigned)
O=C(/N=c1/[n-]cccc1[O-])OCCc1ccccc1 (optimized conformer: 38.25955273844252 kcal/mol)

>  <smiles>  (61) 
O=C(N=c1[nH]cccc1O)OCCc1ccccc1

>  <score_type>  (61) 
oracle

>  <origin>  (61) 
adg

>  <m_score__min__energy>  (61) 
-12.710000000000001

>  <m_primary>  (61) 
energy

$$$$
61:0
     RDKit          3D

 62 65  0  0  0  0  0  0  0  0999 V2000
   59.4380   22.7980   45.1670 C   0  0  0  0  0  0  0  0  0  0  0  0
   58.5310   23.6650   45.8400 O   0  0  0  0  0  0  0  0  0  0  0  0
   58.8450   24.9630   46.2780 C   0  0  0  0  0  0  0  0  0  0  0  0
   60.1030   25.5440   46.0360 C   0  0  0  0  0  0  0  0  0  0  0  0
   60.3890   26.8320   46.4920 C   0  0  0  0  0  0  0  0  0  0  0  0
   59.4280   27.5690   47.2040 C   0  0  0  0  0  0  0  0  0  0  0  0
   59.7400   28.9360   47.7030 C   0  0  0  0  0  0  0  0  0  0  0  0
   60.7550   29.6320   47.1630 C   0  0  0  0  0  0  0  0  0  0  0  0
   61.1260   30.9630   47.6790 C   0  0  0  0  0  0  0  0  0  0  0  0
   62.1480   31.6320   47.1310 C   0  0  0  0  0  0  0  0  0  0  0  0
   62.5920   32.9330   47.6590 C   0  0  0  0  0  0  0  0  0  0  0  0
   63.6920   33.3980   47.2540 O   0  0  0  0  0  0  0  0  0  0  0  0
   61.7190   33.7350   48.6150 C   0  0  1  0  0  0  0  0  0  0  0  0
   62.5880   34.6040   49.5530 C   0  0  0  0  0  0  0  0  0  0  0  0
   60.8100   34.5620   47.8760 O   0  0  0  0  0  0  0  0  0  0  0  0
   60.1940   34.2360   46.6590 C   0  0  0  0  0  0  0  0  0  0  0  0
   60.8740   33.8610   45.6650 O   0  0  0  0  0  0  0  0  0  0  0  0
   58.6870   34.2610   46.5860 C   0  0  0  0  0  0  0  0  0  0  0  0
   58.0960   32.9880   47.1770 C   0  0  0  0  0  0  0  0  0  0  0  0
   57.9680   32.0100   46.0170 C   0  0  0  0  0  0  0  0  0  0  0  0
   57.9250   32.8480   44.7400 C   0  0  0  0  0  0  0  0  0  0  0  0
   58.1690   34.3000   45.1480 C   0  0  0  0  0  0  0  0  0  0  0  0
   60.8650   32.7920   49.4410 C   0  0  0  0  0  0  0  0  0  0  0  0
   60.4340   33.1570   50.5700 O   0  0  0  0  0  0  0  0  0  0  0  0
   60.4310   31.4950   48.8700 C   0  0  0  0  0  0  0  0  0  0  0  0
   59.4230   30.7950   49.4150 C   0  0  0  0  0  0  0  0  0  0  0  0
   58.8590   29.5530   48.7740 C   0  0  0  0  0  0  0  0  0  0  0  0
   58.1730   26.9870   47.4540 C   0  0  0  0  0  0  0  0  0  0  0  0
   57.8720   25.6970   46.9840 C   0  0  0  0  0  0  0  0  0  0  0  0
   56.5260   25.0890   47.2750 C   0  0  0  0  0  0  0  0  0  0  0  0
   55.5660   25.6190   46.3680 O   0  0  0  0  0  0  0  0  0  0  0  0
   54.7990   24.8100   45.5240 C   0  0  0  0  0  0  0  0  0  0  0  0
   55.4780   23.9660   44.5000 C   0  0  0  0  0  0  0  0  0  0  0  0
   53.5400   24.8190   45.5920 O   0  0  0  0  0  0  0  0  0  0  0  0
   60.0259   22.2360   45.9076 H   0  0  0  0  0  0  0  0  0  0  0  0
   58.8738   22.0948   44.5367 H   0  0  0  0  0  0  0  0  0  0  0  0
   60.1150   23.3933   44.5367 H   0  0  0  0  0  0  0  0  0  0  0  0
   60.8676   24.9788   45.4829 H   0  0  0  0  0  0  0  0  0  0  0  0
   61.3762   27.2741   46.2919 H   0  0  0  0  0  0  0  0  0  0  0  0
   61.3186   29.2018   46.3220 H   0  0  0  0  0  0  0  0  0  0  0  0
   62.6692   31.1989   46.2645 H   0  0  0  0  0  0  0  0  0  0  0  0
   62.3492   34.3652   50.5999 H   0  0  0  0  0  0  0  0  0  0  0  0
   63.6517   34.3975   49.3633 H   0  0  0  0  0  0  0  0  0  0  0  0
   62.3815   35.6676   49.3633 H   0  0  0  0  0  0  0  0  0  0  0  0
   58.3898   35.1653   47.1372 H   0  0  0  0  0  0  0  0  0  0  0  0
   58.7633   32.5794   47.9502 H   0  0  0  0  0  0  0  0  0  0  0  0
   57.1234   33.1779   47.6545 H   0  0  0  0  0  0  0  0  0  0  0  0
   58.8332   31.3311   45.9961 H   0  0  0  0  0  0  0  0  0  0  0  0
   57.0624   31.3936   46.1168 H   0  0  0  0  0  0  0  0  0  0  0  0
   58.7084   32.5149   44.0434 H   0  0  0  0  0  0  0  0  0  0  0  0
   56.9543   32.7411   44.2337 H   0  0  0  0  0  0  0  0  0  0  0  0
   58.9170   34.7609   44.4862 H   0  0  0  0  0  0  0  0  0  0  0  0
   57.2482   34.8968   45.0710 H   0  0  0  0  0  0  0  0  0  0  0  0
   58.9923   31.1414   50.3660 H   0  0  0  0  0  0  0  0  0  0  0  0
   58.7010   28.8022   49.5622 H   0  0  0  0  0  0  0  0  0  0  0  0
   57.9280   29.8572   48.2732 H   0  0  0  0  0  0  0  0  0  0  0  0
   57.4177   27.5477   48.0241 H   0  0  0  0  0  0  0  0  0  0  0  0
   56.5820   23.9970   47.1546 H   0  0  0  0  0  0  0  0  0  0  0  0
   56.2291   25.3266   48.3072 H   0  0  0  0  0  0  0  0  0  0  0  0
   56.0916   23.2033   45.0018 H   0  0  0  0  0  0  0  0  0  0  0  0
   54.7219   23.4730   43.8713 H   0  0  0  0  0  0  0  0  0  0  0  0
   56.1215   24.5989   43.8713 H   0  0  0  0  0  0  0  0  0  0  0  0
  1  2  1  0
  2  3  1  0
  3  4  2  0
  4  5  1  0
  5  6  2  0
  6  7  1  0
  7  8  2  0
  8  9  1  0
  9 10  2  0
 10 11  1  0
 11 12  2  0
 11 13  1  0
 13 14  1  0
 13 15  1  6
 15 16  1  0
 16 17  2  0
 16 18  1  0
 18 19  1  0
 19 20  1  0
 20 21  1  0
 21 22  1  0
 13 23  1  0
 23 24  2  0
 23 25  1  0
 25 26  2  0
 26 27  1  0
  6 28  1  0
 28 29  2  0
 29 30  1  0
 30 31  1  0
 31 32  1  0
 32 33  1  0
 32 34  2  0
 29  3  1  0
 27  7  1  0
 25  9  1  0
 22 18  1  0
  1 35  1  0
  1 36  1  0
  1 37  1  0
  4 38  1  0
  5 39  1  0
  8 40  1  0
 10 41  1  0
 14 42  1  0
 14 43  1  0
 14 44  1  0
 18 45  1  0
 19 46  1  0
 19 47  1  0
 20 48  1  0
 20 49  1  0
 21 50  1  0
 21 51  1  0
 22 52  1  0
 22 53  1  0
 26 54  1  0
 27 55  1  0
 27 56  1  0
 28 57  1  0
 30 58  1  0
 30 59  1  0
 33 60  1  0
 33 61  1  0
 33 62  1  0
M  END
>  <UniqueID>  (62) 
61

>  <SMILES>  (62) 
COc1ccc(C2=CC3=CC(=O)[C@@](C)(OC(=O)C4CCCC4)C(=O)C3=CC2)cc1COC(C)=O

>  <Energy>  (62) 
69.99226632978406

>  <Genealogy>  (62) 
COc1ccc(C2=CC3=CC(=O)[C@@](C)(OC(=O)C4CCCC4)C(=O)C3=CC2)cc1COC(C)=O (chirality)
COc1ccc(C2=CC3=CC(=O)[C@@](C)(OC(=O)C4CCCC4)C(=O)C3=CC2)cc1COC(C)=O (3D coordinates assigned)
COc1ccc(C2=CC3=CC(=O)[C@@](C)(OC(=O)C4CCCC4)C(=O)C3=CC2)cc1COC(C)=O (nonaromatic ring conformer: 69.99226632978406 kcal/mol)

>  <smiles>  (62) 
COc1ccc(C2=CC3=CC(=O)C(C)(OC(=O)C4CCCC4)C(=O)C3=CC2)cc1COC(C)=O

>  <score_type>  (62) 
oracle

>  <origin>  (62) 
adg

>  <m_score__min__energy>  (62) 
-9.4199999999999999

>  <m_primary>  (62) 
energy

$$$$
62:0
     RDKit          3D

 67 71  0  0  0  0  0  0  0  0999 V2000
   58.8590   33.2720   51.3600 C   0  0  0  0  0  0  0  0  0  0  0  0
   59.5550   33.3880   50.0770 N   0  0  0  0  0  0  0  0  0  0  0  0
   58.8260   33.4130   48.9600 N   0  0  0  0  0  0  0  0  0  0  0  0
   59.3730   33.5310   47.7190 C   0  0  0  0  0  0  0  0  0  0  0  0
   58.4650   33.5570   46.5070 C   0  0  0  0  0  0  0  0  0  0  0  0
   58.2840   32.2030   45.8860 C   0  0  0  0  0  0  0  0  0  0  0  0
   59.2210   31.1970   45.8530 C   0  0  0  0  0  0  0  0  0  0  0  0
   58.6620   30.1280   45.2560 N   0  0  0  0  0  0  0  0  0  0  0  0
   59.3710   28.8800   44.9570 C   0  0  0  0  0  0  0  0  0  0  0  0
   59.1760   27.8740   46.0940 C   0  0  0  0  0  0  0  0  0  0  0  0
   59.2600   28.5380   47.3930 N   0  0  0  0  0  0  0  0  0  0  0  0
   59.9500   27.9560   48.5130 C   0  0  0  0  0  0  0  0  0  0  0  0
   60.3490   26.7610   48.4470 O   0  0  0  0  0  0  0  0  0  0  0  0
   60.1970   28.7350   49.7510 C   0  0  0  0  0  0  0  0  0  0  0  0
   59.1690   29.4670   50.3690 C   0  0  0  0  0  0  0  0  0  0  0  0
   59.4280   30.2230   51.5150 C   0  0  0  0  0  0  0  0  0  0  0  0
   60.7130   30.2560   52.0590 C   0  0  0  0  0  0  0  0  0  0  0  0
   61.7510   29.5220   51.4670 C   0  0  0  0  0  0  0  0  0  0  0  0
   63.1210   29.5800   52.0160 C   0  0  0  0  0  0  0  0  0  0  0  0
   63.3760   28.9560   53.0820 O   0  0  0  0  0  0  0  0  0  0  0  0
   64.1660   30.3270   51.3660 N   0  0  0  0  0  0  0  0  0  0  0  0
   65.5750   30.0960   51.6320 C   0  0  0  0  0  0  0  0  0  0  0  0
   66.3160   31.2910   51.0460 C   0  0  0  0  0  0  0  0  0  0  0  0
   65.3130   32.0170   50.1510 C   0  0  0  0  0  0  0  0  0  0  0  0
   63.9340   31.5300   50.5790 C   0  0  0  0  0  0  0  0  0  0  0  0
   61.4920   28.7800   50.3020 C   0  0  0  0  0  0  0  0  0  0  0  0
   57.3990   30.5150   44.9340 C   0  0  0  0  0  0  0  0  0  0  0  0
   56.3780   29.7000   44.2400 C   0  0  0  0  0  0  0  0  0  0  0  0
   55.1590   29.3260   44.8740 N   0  0  0  0  0  0  0  0  0  0  0  0
   56.5910   29.3260   43.0560 O   0  0  0  0  0  0  0  0  0  0  0  0
   57.1370   31.7840   45.3200 N   0  0  0  0  0  0  0  0  0  0  0  0
   60.7760   33.6240   47.6010 C   0  0  0  0  0  0  0  0  0  0  0  0
   61.4220   33.7310   46.3500 C   0  0  0  0  0  0  0  0  0  0  0  0
   62.8130   33.8260   46.2770 C   0  0  0  0  0  0  0  0  0  0  0  0
   63.5800   33.8200   47.4400 C   0  0  0  0  0  0  0  0  0  0  0  0
   62.9610   33.7110   48.6880 C   0  0  0  0  0  0  0  0  0  0  0  0
   61.5580   33.6090   48.7810 C   0  0  0  0  0  0  0  0  0  0  0  0
   60.9160   33.4940   50.0270 C   0  0  0  0  0  0  0  0  0  0  0  0
   61.5930   33.4880   51.0940 O   0  0  0  0  0  0  0  0  0  0  0  0
   59.5811   33.3923   52.1810 H   0  0  0  0  0  0  0  0  0  0  0  0
   58.0889   34.0542   51.4314 H   0  0  0  0  0  0  0  0  0  0  0  0
   58.3842   32.2823   51.4314 H   0  0  0  0  0  0  0  0  0  0  0  0
   57.4796   33.9371   46.8144 H   0  0  0  0  0  0  0  0  0  0  0  0
   58.9364   34.2059   45.7542 H   0  0  0  0  0  0  0  0  0  0  0  0
   60.2469   31.2556   46.2455 H   0  0  0  0  0  0  0  0  0  0  0  0
   58.9767   28.4532   44.0230 H   0  0  0  0  0  0  0  0  0  0  0  0
   60.4444   29.0948   44.8489 H   0  0  0  0  0  0  0  0  0  0  0  0
   58.1873   27.4025   45.9930 H   0  0  0  0  0  0  0  0  0  0  0  0
   59.9696   27.1147   46.0336 H   0  0  0  0  0  0  0  0  0  0  0  0
   58.8130   29.4790   47.4850 H   0  0  0  0  0  0  0  0  0  0  0  0
   58.1532   29.4446   49.9475 H   0  0  0  0  0  0  0  0  0  0  0  0
   58.6167   30.7940   51.9901 H   0  0  0  0  0  0  0  0  0  0  0  0
   60.9124   30.8605   52.9561 H   0  0  0  0  0  0  0  0  0  0  0  0
   65.7533   30.0299   52.7154 H   0  0  0  0  0  0  0  0  0  0  0  0
   65.9190   29.1512   51.1859 H   0  0  0  0  0  0  0  0  0  0  0  0
   66.6616   31.9572   51.8502 H   0  0  0  0  0  0  0  0  0  0  0  0
   67.2033   30.9737   50.4786 H   0  0  0  0  0  0  0  0  0  0  0  0
   65.3940   33.1050   50.2913 H   0  0  0  0  0  0  0  0  0  0  0  0
   65.5000   31.8091   49.0871 H   0  0  0  0  0  0  0  0  0  0  0  0
   63.4293   32.2948   51.1876 H   0  0  0  0  0  0  0  0  0  0  0  0
   63.2880   31.3287   49.7117 H   0  0  0  0  0  0  0  0  0  0  0  0
   62.3098   28.2284   49.8153 H   0  0  0  0  0  0  0  0  0  0  0  0
   55.1450   28.6100   45.6340 H   0  0  0  0  0  0  0  0  0  0  0  0
   60.8249   33.7396   45.4262 H   0  0  0  0  0  0  0  0  0  0  0  0
   63.3056   33.9060   45.2967 H   0  0  0  0  0  0  0  0  0  0  0  0
   64.6751   33.9012   47.3757 H   0  0  0  0  0  0  0  0  0  0  0  0
   63.5717   33.7047   49.6028 H   0  0  0  0  0  0  0  0  0  0  0  0
  1  2  1  0
  2  3  1  0
  3  4  2  0
  4  5  1  0
  5  6  1  0
  6  7  2  0
  7  8  1  0
  8  9  1  0
  9 10  1  0
 10 11  1  0
 11 12  1  0
 12 13  2  0
 12 14  1  0
 14 15  2  0
 15 16  1  0
 16 17  2  0
 17 18  1  0
 18 19  1  0
 19 20  2  0
 19 21  1  0
 21 22  1  0
 22 23  1  0
 23 24  1  0
 24 25  1  0
 18 26  2  0
  8 27  1  0
 27 28  1  0
 28 29  1  0
 28 30  2  0
 27 31  2  0
  4 32  1  0
 32 33  2  0
 33 34  1  0
 34 35  2  0
 35 36  1  0
 36 37  2  0
 37 38  1  0
 38 39  2  0
 38  2  1  0
 31  6  1  0
 37 32  1  0
 26 14  1  0
 25 21  1  0
  1 40  1  0
  1 41  1  0
  1 42  1  0
  5 43  1  0
  5 44  1  0
  7 45  1  0
  9 46  1  0
  9 47  1  0
 10 48  1  0
 10 49  1  0
 11 50  1  0
 15 51  1  0
 16 52  1  0
 17 53  1  0
 22 54  1  0
 22 55  1  0
 23 56  1  0
 23 57  1  0
 24 58  1  0
 24 59  1  0
 25 60  1  0
 25 61  1  0
 26 62  1  0
 29 63  1  0
 33 64  1  0
 34 65  1  0
 35 66  1  0
 36 67  1  0
M  CHG  1  29  -1
M  END
>  <UniqueID>  (63) 
62

>  <SMILES>  (63) 
Cn1nc(Cc2cn(CCNC(=O)c3cccc(C(=O)N4CCCC4)c3)c(C([NH-])=O)n2)c2ccccc2c1=O

>  <Energy>  (63) 
111.94264304716235

>  <Genealogy>  (63) 
Cn1nc(Cc2cn(CCNC(=O)c3cccc(C(=O)N4CCCC4)c3)c(C([NH-])=O)n2)c2ccccc2c1=O (protonated)
Cn1nc(Cc2cn(CCNC(=O)c3cccc(C(=O)N4CCCC4)c3)c(C([NH-])=O)n2)c2ccccc2c1=O (3D coordinates assigned)
Cn1nc(Cc2cn(CCNC(=O)c3cccc(C(=O)N4CCCC4)c3)c(C([NH-])=O)n2)c2ccccc2c1=O (nonaromatic ring conformer: 111.94264304716235 kcal/mol)

>  <smiles>  (63) 
Cn1nc(Cc2cn(CCNC(=O)c3cccc(C(=O)N4CCCC4)c3)c(C(N)=O)n2)c2ccccc2c1=O

>  <score_type>  (63) 
oracle

>  <origin>  (63) 
adg

>  <m_score__min__energy>  (63) 
-14.33

>  <m_primary>  (63) 
energy

$$$$
63:0
     RDKit          3D

 51 54  0  0  0  0  0  0  0  0999 V2000
   56.6420   34.5700   44.9120 O   0  0  0  0  0  0  0  0  0  0  0  0
   57.4890   33.6420   44.8400 C   0  0  0  0  0  0  0  0  0  0  0  0
   57.4010   32.6920   43.7670 N   0  0  0  0  0  0  0  0  0  0  0  0
   57.2970   31.2800   43.9900 C   0  0  0  0  0  0  0  0  0  0  0  0
   56.0440   30.6800   44.2000 C   0  0  0  0  0  0  0  0  0  0  0  0
   55.9610   29.3570   44.6330 C   0  0  0  0  0  0  0  0  0  0  0  0
   57.1280   28.6160   44.8540 C   0  0  0  0  0  0  0  0  0  0  0  0
   57.0260   27.0440   45.6400 S   0  0  0  0  0  0  0  0  0  0  0  0
   55.5960   26.7570   46.0110 O   0  0  0  0  0  0  0  0  0  0  0  0
   57.5010   25.9770   44.6950 O   0  0  0  0  0  0  0  0  0  0  0  0
   58.0430   27.0650   47.0600 N   0  0  0  0  0  0  0  0  0  0  0  0
   58.2870   28.4280   47.5290 C   0  0  0  0  0  0  0  0  0  0  0  0
   59.6240   28.4020   48.2560 C   0  0  0  0  0  0  0  0  0  0  0  0
   60.3160   27.1310   47.7880 C   0  0  0  0  0  0  0  0  0  0  0  0
   59.3660   26.5120   46.7780 C   0  0  0  0  0  0  0  0  0  0  0  0
   58.3770   29.1880   44.5690 C   0  0  0  0  0  0  0  0  0  0  0  0
   58.4590   30.5110   44.1230 C   0  0  0  0  0  0  0  0  0  0  0  0
   58.5620   33.5440   45.8550 C   0  0  0  0  0  0  0  0  0  0  0  0
   58.5530   32.5100   46.8010 C   0  0  0  0  0  0  0  0  0  0  0  0
   59.6510   32.3170   47.6450 C   0  0  0  0  0  0  0  0  0  0  0  0
   60.7670   33.1700   47.5730 C   0  0  0  0  0  0  0  0  0  0  0  0
   61.9380   32.9040   48.3690 N   0  0  0  0  0  0  0  0  0  0  0  0
   61.9220   32.1570   49.6170 C   0  0  0  0  0  0  0  0  0  0  0  0
   63.3900   31.8050   49.9270 C   0  0  0  0  0  0  0  0  0  0  0  0
   64.2640   32.5770   48.9300 C   0  0  0  0  0  0  0  0  0  0  0  0
   63.2820   33.1710   48.0030 C   0  0  0  0  0  0  0  0  0  0  0  0
   63.6040   33.8960   47.0240 O   0  0  0  0  0  0  0  0  0  0  0  0
   60.7490   34.2370   46.6600 C   0  0  0  0  0  0  0  0  0  0  0  0
   59.6550   34.4260   45.8150 C   0  0  0  0  0  0  0  0  0  0  0  0
   55.1242   31.2565   44.0220 H   0  0  0  0  0  0  0  0  0  0  0  0
   54.9770   28.8949   44.8012 H   0  0  0  0  0  0  0  0  0  0  0  0
   58.3317   29.1211   46.6760 H   0  0  0  0  0  0  0  0  0  0  0  0
   57.4797   28.7707   48.1930 H   0  0  0  0  0  0  0  0  0  0  0  0
   60.2230   29.2858   47.9911 H   0  0  0  0  0  0  0  0  0  0  0  0
   59.4951   28.4181   49.3483 H   0  0  0  0  0  0  0  0  0  0  0  0
   61.2808   27.3681   47.3158 H   0  0  0  0  0  0  0  0  0  0  0  0
   60.5320   26.4481   48.6229 H   0  0  0  0  0  0  0  0  0  0  0  0
   59.6765   26.7720   45.7553 H   0  0  0  0  0  0  0  0  0  0  0  0
   59.3632   25.4147   46.8549 H   0  0  0  0  0  0  0  0  0  0  0  0
   59.2942   28.5943   44.6967 H   0  0  0  0  0  0  0  0  0  0  0  0
   59.4380   30.9478   43.8764 H   0  0  0  0  0  0  0  0  0  0  0  0
   57.6785   31.8475   46.8799 H   0  0  0  0  0  0  0  0  0  0  0  0
   59.6419   31.4910   48.3714 H   0  0  0  0  0  0  0  0  0  0  0  0
   61.4989   32.7727   50.4244 H   0  0  0  0  0  0  0  0  0  0  0  0
   61.3020   31.2522   49.5343 H   0  0  0  0  0  0  0  0  0  0  0  0
   63.6395   32.1032   50.9560 H   0  0  0  0  0  0  0  0  0  0  0  0
   63.5586   30.7218   49.8357 H   0  0  0  0  0  0  0  0  0  0  0  0
   64.8466   33.3584   49.4400 H   0  0  0  0  0  0  0  0  0  0  0  0
   65.0024   31.9390   48.4224 H   0  0  0  0  0  0  0  0  0  0  0  0
   61.6032   34.9284   46.6108 H   0  0  0  0  0  0  0  0  0  0  0  0
   59.6481   35.2721   45.1120 H   0  0  0  0  0  0  0  0  0  0  0  0
  1  2  2  0
  2  3  1  0
  3  4  1  0
  4  5  2  0
  5  6  1  0
  6  7  2  0
  7  8  1  0
  8  9  2  0
  8 10  2  0
  8 11  1  0
 11 12  1  0
 12 13  1  0
 13 14  1  0
 14 15  1  0
  7 16  1  0
 16 17  2  0
  2 18  1  0
 18 19  2  0
 19 20  1  0
 20 21  2  0
 21 22  1  0
 22 23  1  0
 23 24  1  0
 24 25  1  0
 25 26  1  0
 26 27  2  0
 21 28  1  0
 28 29  2  0
 17  4  1  0
 29 18  1  0
 15 11  1  0
 26 22  1  0
  5 30  1  0
  6 31  1  0
 12 32  1  0
 12 33  1  0
 13 34  1  0
 13 35  1  0
 14 36  1  0
 14 37  1  0
 15 38  1  0
 15 39  1  0
 16 40  1  0
 17 41  1  0
 19 42  1  0
 20 43  1  0
 23 44  1  0
 23 45  1  0
 24 46  1  0
 24 47  1  0
 25 48  1  0
 25 49  1  0
 28 50  1  0
 29 51  1  0
M  CHG  1   3  -1
M  END
>  <UniqueID>  (64) 
63

>  <SMILES>  (64) 
O=C([N-]c1ccc(S(=O)(=O)N2CCCC2)cc1)c1ccc(N2CCCC2=O)cc1

>  <Energy>  (64) 
71.41757931351438

>  <Genealogy>  (64) 
O=C([N-]c1ccc(S(=O)(=O)N2CCCC2)cc1)c1ccc(N2CCCC2=O)cc1 (protonated)
O=C([N-]c1ccc(S(=O)(=O)N2CCCC2)cc1)c1ccc(N2CCCC2=O)cc1 (3D coordinates assigned)
O=C([N-]c1ccc(S(=O)(=O)N2CCCC2)cc1)c1ccc(N2CCCC2=O)cc1 (nonaromatic ring conformer: 71.41757931351438 kcal/mol)

>  <smiles>  (64) 
O=C(Nc1ccc(S(=O)(=O)N2CCCC2)cc1)c1ccc(N2CCCC2=O)cc1

>  <score_type>  (64) 
oracle

>  <origin>  (64) 
adg

>  <m_score__min__energy>  (64) 
-10.619999999999999

>  <m_primary>  (64) 
energy

$$$$
64:0
     RDKit          3D

 25 27  0  0  0  0  0  0  0  0999 V2000
   57.1270   21.7940   46.3550 C   0  0  0  0  0  0  0  0  0  0  0  0
   56.6600   22.9680   45.9060 C   0  0  0  0  0  0  0  0  0  0  0  0
   55.2190   23.0960   45.6590 C   0  0  0  0  0  0  0  0  0  0  0  0
   54.6720   24.3050   45.6210 C   0  0  0  0  0  0  0  0  0  0  0  0
   55.4840   25.5250   45.7910 C   0  0  0  0  0  0  0  0  0  0  0  0
   54.7840   26.7050   45.9980 O   0  0  0  0  0  0  0  0  0  0  0  0
   56.8460   25.4700   45.7840 C   0  0  0  0  0  0  0  0  0  0  0  0
   57.7240   26.7020   45.8400 C   0  0  0  0  0  0  0  0  0  0  0  0
   57.2580   28.0200   45.6090 C   0  0  0  0  0  0  0  0  0  0  0  0
   58.1080   29.1200   45.7640 C   0  0  0  0  0  0  0  0  0  0  0  0
   59.4440   28.9320   46.1070 C   0  0  0  0  0  0  0  0  0  0  0  0
   59.9480   27.6410   46.2440 C   0  0  0  0  0  0  0  0  0  0  0  0
   59.1080   26.5330   46.0810 C   0  0  0  0  0  0  0  0  0  0  0  0
   59.6990   25.2390   46.0360 N   0  0  0  0  0  0  0  0  0  0  0  0
   58.9230   24.0910   45.7250 C   0  0  0  0  0  0  0  0  0  0  0  0
   59.5090   23.0450   45.3400 O   0  0  0  0  0  0  0  0  0  0  0  0
   57.4850   24.1590   45.7950 N   0  0  0  0  0  0  0  0  0  0  0  0
   58.2023   21.6679   46.5493 H   0  0  0  0  0  0  0  0  0  0  0  0
   56.4348   20.9570   46.5290 H   0  0  0  0  0  0  0  0  0  0  0  0
   54.5991   22.2001   45.5070 H   0  0  0  0  0  0  0  0  0  0  0  0
   53.5881   24.3994   45.4590 H   0  0  0  0  0  0  0  0  0  0  0  0
   56.2135   28.1804   45.3036 H   0  0  0  0  0  0  0  0  0  0  0  0
   57.7191   30.1380   45.6142 H   0  0  0  0  0  0  0  0  0  0  0  0
   60.0995   29.8003   46.2693 H   0  0  0  0  0  0  0  0  0  0  0  0
   61.0115   27.4911   46.4815 H   0  0  0  0  0  0  0  0  0  0  0  0
  1  2  2  0
  2  3  1  0
  3  4  2  0
  4  5  1  0
  5  6  1  0
  5  7  2  0
  7  8  1  0
  8  9  2  0
  9 10  1  0
 10 11  2  0
 11 12  1  0
 12 13  2  0
 13 14  1  0
 14 15  1  0
 15 16  2  0
 15 17  1  0
 17  2  1  0
 17  7  1  0
 13  8  1  0
  1 18  1  0
  1 19  1  0
  3 20  1  0
  4 21  1  0
  9 22  1  0
 10 23  1  0
 11 24  1  0
 12 25  1  0
M  CHG  2   6  -1  14  -1
M  END
>  <UniqueID>  (65) 
64

>  <SMILES>  (65) 
C=C1C=CC([O-])=C2c3ccccc3[N-]C(=O)N12

>  <Energy>  (65) 
45.27007194023109

>  <Genealogy>  (65) 
C=C1C=CC([O-])=C2c3ccccc3[N-]C(=O)N12 (protonated)
C=C1C=CC([O-])=C2c3ccccc3[N-]C(=O)N12 (3D coordinates assigned)
C=C1C=CC([O-])=C2c3ccccc3[N-]C(=O)N12 (nonaromatic ring conformer: 45.27007194023109 kcal/mol)

>  <smiles>  (65) 
C=C1C=CC(O)=C2c3ccccc3NC(=O)N12

>  <score_type>  (65) 
oracle

>  <origin>  (65) 
adg

>  <m_score__min__energy>  (65) 
-11.06

>  <m_primary>  (65) 
energy

$$$$
65:0
     RDKit          3D

 45 47  0  0  0  0  0  0  0  0999 V2000
   55.1510   26.6460   45.9930 O   0  0  0  0  0  0  0  0  0  0  0  0
   56.0220   25.8340   46.4090 C   0  0  0  0  0  0  0  0  0  0  0  0
   55.6480   24.4980   46.7620 N   0  0  0  0  0  0  0  0  0  0  0  0
   54.6430   23.7280   46.0360 C   0  0  0  0  0  0  0  0  0  0  0  0
   55.2970   22.8950   44.9660 C   0  0  0  0  0  0  0  0  0  0  0  0
   55.7170   21.5880   45.2490 C   0  0  0  0  0  0  0  0  0  0  0  0
   56.3590   20.8410   44.2580 C   0  0  0  0  0  0  0  0  0  0  0  0
   56.5780   21.3830   43.0310 N   0  0  0  0  0  0  0  0  0  0  0  0
   56.1860   22.6500   42.7300 C   0  0  0  0  0  0  0  0  0  0  0  0
   55.5380   23.4290   43.6910 C   0  0  0  0  0  0  0  0  0  0  0  0
   57.3860   26.2460   46.5570 N   0  0  0  0  0  0  0  0  0  0  0  0
   57.9470   27.3860   45.8850 C   0  0  0  0  0  0  0  0  0  0  0  0
   59.3330   27.4640   45.6970 C   0  0  0  0  0  0  0  0  0  0  0  0
   59.8950   28.5580   45.0380 C   0  0  0  0  0  0  0  0  0  0  0  0
   59.0770   29.5780   44.5460 C   0  0  0  0  0  0  0  0  0  0  0  0
   57.6810   29.5050   44.6960 C   0  0  0  0  0  0  0  0  0  0  0  0
   56.8090   30.5770   44.1600 C   0  0  0  0  0  0  0  0  0  0  0  0
   56.1970   30.4100   43.0700 O   0  0  0  0  0  0  0  0  0  0  0  0
   56.6560   31.8060   44.8810 N   0  0  0  0  0  0  0  0  0  0  0  0
   57.4250   33.0120   44.5990 C   0  0  0  0  0  0  0  0  0  0  0  0
   58.2130   33.4190   45.8150 C   0  0  0  0  0  0  0  0  0  0  0  0
   58.1120   32.6800   47.0050 C   0  0  0  0  0  0  0  0  0  0  0  0
   58.8220   33.0750   48.1430 C   0  0  0  0  0  0  0  0  0  0  0  0
   58.7220   32.3580   49.2890 F   0  0  0  0  0  0  0  0  0  0  0  0
   59.6320   34.2140   48.1020 C   0  0  0  0  0  0  0  0  0  0  0  0
   59.7330   34.9590   46.9240 C   0  0  0  0  0  0  0  0  0  0  0  0
   59.0250   34.5680   45.7830 C   0  0  0  0  0  0  0  0  0  0  0  0
   59.1270   35.3100   44.6500 F   0  0  0  0  0  0  0  0  0  0  0  0
   57.1240   28.3990   45.3610 C   0  0  0  0  0  0  0  0  0  0  0  0
   54.1147   23.0668   46.7387 H   0  0  0  0  0  0  0  0  0  0  0  0
   53.9313   24.4220   45.5649 H   0  0  0  0  0  0  0  0  0  0  0  0
   55.5424   21.1534   46.2443 H   0  0  0  0  0  0  0  0  0  0  0  0
   56.6876   19.8131   44.4711 H   0  0  0  0  0  0  0  0  0  0  0  0
   56.3796   23.0617   41.7285 H   0  0  0  0  0  0  0  0  0  0  0  0
   55.2188   24.4538   43.4502 H   0  0  0  0  0  0  0  0  0  0  0  0
   57.9900   25.7060   47.2170 H   0  0  0  0  0  0  0  0  0  0  0  0
   59.9819   26.6583   46.0710 H   0  0  0  0  0  0  0  0  0  0  0  0
   60.9854   28.6175   44.9055 H   0  0  0  0  0  0  0  0  0  0  0  0
   59.5278   30.4434   44.0382 H   0  0  0  0  0  0  0  0  0  0  0  0
   58.1164   32.8162   43.7662 H   0  0  0  0  0  0  0  0  0  0  0  0
   56.7344   33.8245   44.3290 H   0  0  0  0  0  0  0  0  0  0  0  0
   57.4715   31.7865   47.0420 H   0  0  0  0  0  0  0  0  0  0  0  0
   60.1902   34.5239   48.9978 H   0  0  0  0  0  0  0  0  0  0  0  0
   60.3707   35.8548   46.8941 H   0  0  0  0  0  0  0  0  0  0  0  0
   56.0322   28.3249   45.4728 H   0  0  0  0  0  0  0  0  0  0  0  0
  1  2  2  0
  2  3  1  0
  3  4  1  0
  4  5  1  0
  5  6  2  0
  6  7  1  0
  7  8  2  0
  8  9  1  0
  9 10  2  0
  2 11  1  0
 11 12  1  0
 12 13  2  0
 13 14  1  0
 14 15  2  0
 15 16  1  0
 16 17  1  0
 17 18  2  0
 17 19  1  0
 19 20  1  0
 20 21  1  0
 21 22  2  0
 22 23  1  0
 23 24  1  0
 23 25  2  0
 25 26  1  0
 26 27  2  0
 27 28  1  0
 16 29  2  0
 10  5  1  0
 29 12  1  0
 27 21  1  0
  4 30  1  0
  4 31  1  0
  6 32  1  0
  7 33  1  0
  9 34  1  0
 10 35  1  0
 11 36  1  0
 13 37  1  0
 14 38  1  0
 15 39  1  0
 20 40  1  0
 20 41  1  0
 22 42  1  0
 25 43  1  0
 26 44  1  0
 29 45  1  0
M  CHG  2   3  -1  19  -1
M  END
>  <UniqueID>  (66) 
65

>  <SMILES>  (66) 
O=C([N-]Cc1ccncc1)Nc1cccc(C(=O)[N-]Cc2cc(F)ccc2F)c1

>  <Energy>  (66) 
47.65371231625099

>  <Genealogy>  (66) 
O=C([N-]Cc1ccncc1)Nc1cccc(C(=O)[N-]Cc2cc(F)ccc2F)c1 (protonated)
O=C([N-]Cc1ccncc1)Nc1cccc(C(=O)[N-]Cc2cc(F)ccc2F)c1 (3D coordinates assigned)
O=C([N-]Cc1ccncc1)Nc1cccc(C(=O)[N-]Cc2cc(F)ccc2F)c1 (optimized conformer: 47.65371231625099 kcal/mol)

>  <smiles>  (66) 
O=C(NCc1ccncc1)Nc1cccc(C(=O)NCc2cc(F)ccc2F)c1

>  <score_type>  (66) 
oracle

>  <origin>  (66) 
adg

>  <m_score__min__energy>  (66) 
-12.48

>  <m_primary>  (66) 
energy

$$$$
66:0
     RDKit          3D

 46 47  0  0  0  0  0  0  0  0999 V2000
   56.7730   27.0420   43.8030 H   0  0  0  0  0  0  0  0  0  0  0  0
   57.7760   27.0580   43.9450 O   0  0  0  0  0  0  0  0  0  0  0  0
   58.3690   27.9240   44.8620 C   0  0  0  0  0  0  0  0  0  0  0  0
   59.4390   28.7400   44.4710 C   0  0  0  0  0  0  0  0  0  0  0  0
   59.8088   28.6997   43.4358 H   0  0  0  0  0  0  0  0  0  0  0  0
   60.0370   29.6030   45.3890 C   0  0  0  0  0  0  0  0  0  0  0  0
   60.8706   30.2472   45.0725 H   0  0  0  0  0  0  0  0  0  0  0  0
   59.5800   29.6530   46.7140 C   0  0  0  0  0  0  0  0  0  0  0  0
   60.1820   30.5800   47.6990 C   0  0  0  0  0  0  0  0  0  0  0  0
   60.3639   30.2007   48.7154 H   0  0  0  0  0  0  0  0  0  0  0  0
   60.5220   31.8560   47.4350 C   0  0  0  0  0  0  0  0  0  0  0  0
   59.5420   32.8590   46.9630 C   0  0  0  0  0  0  0  0  0  0  0  0
   58.9820   33.6070   47.8080 O   0  0  0  0  0  0  0  0  0  0  0  0
   59.2750   33.0120   45.5140 C   0  0  0  0  0  0  0  0  0  0  0  0
   60.1458   33.0849   44.8459 H   0  0  0  0  0  0  0  0  0  0  0  0
   58.0610   33.0690   44.9490 C   0  0  0  0  0  0  0  0  0  0  0  0
   57.4898   34.0034   45.0523 H   0  0  0  0  0  0  0  0  0  0  0  0
   57.4420   31.9650   44.2000 C   0  0  0  0  0  0  0  0  0  0  0  0
   57.6060   31.8910   42.8090 C   0  0  0  0  0  0  0  0  0  0  0  0
   58.2079   32.6488   42.2861 H   0  0  0  0  0  0  0  0  0  0  0  0
   57.0060   30.8560   42.0860 C   0  0  0  0  0  0  0  0  0  0  0  0
   57.1422   30.7967   40.9961 H   0  0  0  0  0  0  0  0  0  0  0  0
   56.2330   29.8960   42.7460 C   0  0  0  0  0  0  0  0  0  0  0  0
   55.7647   29.0801   42.1759 H   0  0  0  0  0  0  0  0  0  0  0  0
   56.0550   29.9730   44.1320 C   0  0  0  0  0  0  0  0  0  0  0  0
   55.2860   29.0190   44.7870 O   0  0  0  0  0  0  0  0  0  0  0  0
   56.6500   31.0100   44.8580 C   0  0  0  0  0  0  0  0  0  0  0  0
   56.4974   31.0776   45.9453 H   0  0  0  0  0  0  0  0  0  0  0  0
   62.1990   32.3710   47.6280 S   0  0  0  0  0  0  0  0  0  0  0  0
   62.4850   32.7100   49.0640 O   0  0  0  0  0  0  0  0  0  0  0  0
   63.1130   31.2540   47.2050 O   0  0  0  0  0  0  0  0  0  0  0  0
   62.5050   33.8050   46.6210 C   0  0  0  0  0  0  0  0  0  0  0  0
   62.6906   34.6748   47.2683 H   0  0  0  0  0  0  0  0  0  0  0  0
   63.3852   33.6261   45.9860 H   0  0  0  0  0  0  0  0  0  0  0  0
   61.6284   34.0009   45.9860 H   0  0  0  0  0  0  0  0  0  0  0  0
   58.4910   28.8580   47.0990 C   0  0  0  0  0  0  0  0  0  0  0  0
   58.1016   28.9258   48.1255 H   0  0  0  0  0  0  0  0  0  0  0  0
   57.8910   27.9720   46.1800 C   0  0  0  0  0  0  0  0  0  0  0  0
   56.8200   27.1320   46.5290 O   0  0  0  0  0  0  0  0  0  0  0  0
   56.8720   25.7090   46.6170 C   0  0  0  0  0  0  0  0  0  0  0  0
   56.3799   25.2747   45.7343 H   0  0  0  0  0  0  0  0  0  0  0  0
   56.3569   25.3932   47.5362 H   0  0  0  0  0  0  0  0  0  0  0  0
   58.3170   25.2230   46.6740 C   0  0  0  0  0  0  0  0  0  0  0  0
   58.6276   25.1185   47.7241 H   0  0  0  0  0  0  0  0  0  0  0  0
   58.3963   24.2487   46.1695 H   0  0  0  0  0  0  0  0  0  0  0  0
   58.9690   25.9513   46.1695 H   0  0  0  0  0  0  0  0  0  0  0  0
  1  2  1  0
  2  3  1  0
  3  4  2  0
  4  5  1  0
  4  6  1  0
  6  7  1  0
  6  8  2  0
  8  9  1  0
  9 10  1  0
  9 11  2  0
 11 12  1  0
 12 13  2  0
 12 14  1  0
 14 15  1  0
 14 16  2  3
 16 17  1  0
 16 18  1  0
 18 19  2  0
 19 20  1  0
 19 21  1  0
 21 22  1  0
 21 23  2  0
 23 24  1  0
 23 25  1  0
 25 26  1  0
 25 27  2  0
 27 28  1  0
 11 29  1  0
 29 30  2  0
 29 31  2  0
 29 32  1  0
 32 33  1  0
 32 34  1  0
 32 35  1  0
  8 36  1  0
 36 37  1  0
 36 38  2  0
 38 39  1  0
 39 40  1  0
 40 41  1  0
 40 42  1  0
 40 43  1  0
 43 44  1  0
 43 45  1  0
 43 46  1  0
 38  3  1  0
 27 18  1  0
M  CHG  1  26  -1
M  END
>  <UniqueID>  (67) 
66

>  <SMILES>  (67) 
CCOc1cc(/C=C(\C(=O)C=Cc2cccc([O-])c2)S(C)(=O)=O)ccc1O

>  <Energy>  (67) 
59.08234648730237

>  <Genealogy>  (67) 
CCOc1cc(C=C(C(=O)C=Cc2cccc([O-])c2)S(C)(=O)=O)ccc1O (protonated)
CCOc1cc(/C=C(\C(=O)C=Cc2cccc([O-])c2)S(C)(=O)=O)ccc1O (cis-trans isomerization)
CCOc1cc(/C=C(\C(=O)C=Cc2cccc([O-])c2)S(C)(=O)=O)ccc1O (3D coordinates assigned)
CCOc1cc(/C=C(\C(=O)C=Cc2cccc([O-])c2)S(C)(=O)=O)ccc1O (optimized conformer: 59.08234648730237 kcal/mol)

>  <smiles>  (67) 
CCOc1cc(C=C(C(=O)C=Cc2cccc(O)c2)S(C)(=O)=O)ccc1O

>  <score_type>  (67) 
oracle

>  <origin>  (67) 
adg

>  <m_score__min__energy>  (67) 
-12.18

>  <m_primary>  (67) 
energy

$$$$
67:0
     RDKit          3D

 51 54  0  0  0  0  0  0  0  0999 V2000
   55.1430   27.4970   45.5530 H   0  0  0  0  0  0  0  0  0  0  0  0
   55.4270   26.6170   45.9670 O   0  0  0  0  0  0  0  0  0  0  0  0
   56.7700   26.2880   46.1460 C   0  0  0  0  0  0  0  0  0  0  0  0
   57.1300   24.9380   46.2520 C   0  0  0  0  0  0  0  0  0  0  0  0
   56.3494   24.1631   46.2666 H   0  0  0  0  0  0  0  0  0  0  0  0
   58.4710   24.5720   46.3390 C   0  0  0  0  0  0  0  0  0  0  0  0
   58.7539   23.5127   46.4273 H   0  0  0  0  0  0  0  0  0  0  0  0
   59.4490   25.5620   46.3130 C   0  0  0  0  0  0  0  0  0  0  0  0
   60.5127   25.2857   46.3597 H   0  0  0  0  0  0  0  0  0  0  0  0
   59.0900   26.8690   46.2300 N   0  0  0  0  0  0  0  0  0  0  0  0
   57.7910   27.2760   46.1720 C   0  0  0  0  0  0  0  0  0  0  0  0
   57.5630   28.5590   46.1090 N   0  0  0  0  0  0  0  0  0  0  0  0
   56.7770   29.2950   45.1590 C   0  0  0  0  0  0  0  0  0  0  0  0
   55.6030   28.9190   44.8940 O   0  0  0  0  0  0  0  0  0  0  0  0
   57.2980   30.5570   44.5830 C   0  0  0  0  0  0  0  0  0  0  0  0
   57.2610   30.7810   43.1960 C   0  0  0  0  0  0  0  0  0  0  0  0
   56.8486   30.0094   42.5292 H   0  0  0  0  0  0  0  0  0  0  0  0
   57.7440   31.9760   42.6580 C   0  0  0  0  0  0  0  0  0  0  0  0
   57.7109   32.1412   41.5710 H   0  0  0  0  0  0  0  0  0  0  0  0
   58.2690   32.9620   43.4970 C   0  0  0  0  0  0  0  0  0  0  0  0
   58.6502   33.9008   43.0689 H   0  0  0  0  0  0  0  0  0  0  0  0
   58.3110   32.7580   44.8810 C   0  0  0  0  0  0  0  0  0  0  0  0
   58.9520   34.0130   45.9440 S   0  0  0  0  0  0  0  0  0  0  0  0
   57.8240   34.6110   46.7410 O   0  0  0  0  0  0  0  0  0  0  0  0
   59.5610   35.1060   45.1120 O   0  0  0  0  0  0  0  0  0  0  0  0
   60.1570   33.3730   47.0350 N   0  0  0  0  0  0  0  0  0  0  0  0
   60.0280   34.0140   48.3530 C   0  0  0  0  0  0  0  0  0  0  0  0
   60.2406   35.0890   48.2575 H   0  0  0  0  0  0  0  0  0  0  0  0
   59.0038   33.8677   48.7266 H   0  0  0  0  0  0  0  0  0  0  0  0
   61.0160   33.3880   49.3390 C   0  0  0  0  0  0  0  0  0  0  0  0
   60.9996   33.9580   50.2797 H   0  0  0  0  0  0  0  0  0  0  0  0
   60.7223   32.3443   49.5243 H   0  0  0  0  0  0  0  0  0  0  0  0
   62.3760   33.4090   48.7840 N   0  0  0  0  0  0  0  0  0  0  0  0
   63.5070   33.5250   49.6760 C   0  0  0  0  0  0  0  0  0  0  0  0
   63.3680   34.0920   50.7940 O   0  0  0  0  0  0  0  0  0  0  0  0
   64.8700   33.0250   49.2870 C   0  0  0  0  0  0  0  0  0  0  0  0
   64.7428   33.1709   48.2042 H   0  0  0  0  0  0  0  0  0  0  0  0
   65.9760   33.3200   50.2910 C   0  0  0  0  0  0  0  0  0  0  0  0
   66.9958   33.5340   49.9385 H   0  0  0  0  0  0  0  0  0  0  0  0
   66.1086   34.0395   51.1124 H   0  0  0  0  0  0  0  0  0  0  0  0
   65.4130   31.9160   50.1760 C   0  0  0  0  0  0  0  0  0  0  0  0
   66.0250   31.1124   49.7404 H   0  0  0  0  0  0  0  0  0  0  0  0
   64.9689   31.1969   50.8800 H   0  0  0  0  0  0  0  0  0  0  0  0
   62.5580   32.9700   47.3910 C   0  0  0  0  0  0  0  0  0  0  0  0
   63.5592   33.2668   47.0452 H   0  0  0  0  0  0  0  0  0  0  0  0
   62.4512   31.8762   47.3445 H   0  0  0  0  0  0  0  0  0  0  0  0
   61.5020   33.6110   46.4880 C   0  0  0  0  0  0  0  0  0  0  0  0
   61.6838   34.6942   46.4278 H   0  0  0  0  0  0  0  0  0  0  0  0
   61.5669   33.1642   45.4849 H   0  0  0  0  0  0  0  0  0  0  0  0
   57.8270   31.5570   45.4210 C   0  0  0  0  0  0  0  0  0  0  0  0
   57.8611   31.3953   46.5085 H   0  0  0  0  0  0  0  0  0  0  0  0
  1  2  1  0
  2  3  1  0
  3  4  2  0
  4  5  1  0
  4  6  1  0
  6  7  1  0
  6  8  2  0
  8  9  1  0
  8 10  1  0
 10 11  1  0
 11 12  2  0
 12 13  1  0
 13 14  2  0
 13 15  1  0
 15 16  2  0
 16 17  1  0
 16 18  1  0
 18 19  1  0
 18 20  2  0
 20 21  1  0
 20 22  1  0
 22 23  1  0
 23 24  2  0
 23 25  2  0
 23 26  1  0
 26 27  1  0
 27 28  1  0
 27 29  1  0
 27 30  1  0
 30 31  1  0
 30 32  1  0
 30 33  1  0
 33 34  1  0
 34 35  2  0
 34 36  1  0
 36 37  1  0
 36 38  1  0
 38 39  1  0
 38 40  1  0
 38 41  1  0
 41 42  1  0
 41 43  1  0
 33 44  1  0
 44 45  1  0
 44 46  1  0
 44 47  1  0
 47 48  1  0
 47 49  1  0
 22 50  2  0
 50 51  1  0
 11  3  1  0
 50 15  1  0
 47 26  1  0
 41 36  1  0
M  CHG  1  10  -1
M  END
>  <UniqueID>  (68) 
67

>  <SMILES>  (68) 
O=C(/N=c1/[n-]cccc1O)c1cccc(S(=O)(=O)N2CCN(C(=O)C3CC3)CC2)c1

>  <Energy>  (68) 
327.7195227084108

>  <Genealogy>  (68) 
O=C(N=c1[n-]cccc1O)c1cccc(S(=O)(=O)N2CCN(C(=O)C3CC3)CC2)c1 (protonated)
O=C(/N=c1/[n-]cccc1O)c1cccc(S(=O)(=O)N2CCN(C(=O)C3CC3)CC2)c1 (cis-trans isomerization)
O=C(/N=c1/[n-]cccc1O)c1cccc(S(=O)(=O)N2CCN(C(=O)C3CC3)CC2)c1 (3D coordinates assigned)
O=C(/N=c1/[n-]cccc1O)c1cccc(S(=O)(=O)N2CCN(C(=O)C3CC3)CC2)c1 (nonaromatic ring conformer: 327.7195227084108 kcal/mol)

>  <smiles>  (68) 
O=C(N=c1[nH]cccc1O)c1cccc(S(=O)(=O)N2CCN(C(=O)C3CC3)CC2)c1

>  <score_type>  (68) 
oracle

>  <origin>  (68) 
adg

>  <m_score__min__energy>  (68) 
-12.890000000000001

>  <m_primary>  (68) 
energy

$$$$
68:0
     RDKit          3D

 47 50  0  0  0  0  0  0  0  0999 V2000
   57.3720   23.6290   48.8690 O   0  0  0  0  0  0  0  0  0  0  0  0
   57.0790   23.5120   47.6500 C   0  0  0  0  0  0  0  0  0  0  0  0
   56.9950   22.1990   47.0820 N   0  0  0  0  0  0  0  0  0  0  0  0
   57.2470   21.8540   45.7130 C   0  0  0  0  0  0  0  0  0  0  0  0
   58.5160   22.1110   45.1770 C   0  0  0  0  0  0  0  0  0  0  0  0
   58.7960   21.7980   43.8430 C   0  0  0  0  0  0  0  0  0  0  0  0
   57.8060   21.2430   43.0310 C   0  0  0  0  0  0  0  0  0  0  0  0
   56.5270   21.0130   43.5460 C   0  0  0  0  0  0  0  0  0  0  0  0
   56.2380   21.3290   44.8790 C   0  0  0  0  0  0  0  0  0  0  0  0
   54.9450   21.1410   45.3540 O   0  0  0  0  0  0  0  0  0  0  0  0
   56.7670   24.7200   46.8640 C   0  0  0  0  0  0  0  0  0  0  0  0
   57.6800   25.4970   46.1810 C   0  0  0  0  0  0  0  0  0  0  0  0
   56.9130   26.5100   45.6400 C   0  0  0  0  0  0  0  0  0  0  0  0
   57.3980   27.6410   44.8320 C   0  0  0  0  0  0  0  0  0  0  0  0
   57.9220   27.4110   43.7090 O   0  0  0  0  0  0  0  0  0  0  0  0
   57.2670   28.9990   45.2910 N   0  0  0  0  0  0  0  0  0  0  0  0
   56.9600   30.0740   44.3430 C   0  0  0  0  0  0  0  0  0  0  0  0
   58.1910   30.9630   44.1660 C   0  0  0  0  0  0  0  0  0  0  0  0
   58.7150   31.3500   45.4820 N   0  0  0  0  0  0  0  0  0  0  0  0
   59.1640   32.6980   45.7120 C   0  0  0  0  0  0  0  0  0  0  0  0
   60.1840   32.9440   46.6460 C   0  0  0  0  0  0  0  0  0  0  0  0
   60.6350   34.2470   46.8730 C   0  0  0  0  0  0  0  0  0  0  0  0
   60.0710   35.3160   46.1720 C   0  0  0  0  0  0  0  0  0  0  0  0
   59.0540   35.0820   45.2420 C   0  0  0  0  0  0  0  0  0  0  0  0
   58.5980   33.7800   45.0110 C   0  0  0  0  0  0  0  0  0  0  0  0
   57.5900   33.5800   44.1250 F   0  0  0  0  0  0  0  0  0  0  0  0
   58.9830   30.2930   46.4680 C   0  0  0  0  0  0  0  0  0  0  0  0
   57.7540   29.3940   46.6180 C   0  0  0  0  0  0  0  0  0  0  0  0
   55.6260   26.3480   46.0020 N   0  0  0  0  0  0  0  0  0  0  0  0
   55.5360   25.2580   46.7470 N   0  0  0  0  0  0  0  0  0  0  0  0
   59.2959   22.5612   45.8087 H   0  0  0  0  0  0  0  0  0  0  0  0
   59.7986   21.9897   43.4330 H   0  0  0  0  0  0  0  0  0  0  0  0
   58.0322   20.9865   41.9855 H   0  0  0  0  0  0  0  0  0  0  0  0
   55.7456   20.5827   42.9024 H   0  0  0  0  0  0  0  0  0  0  0  0
   58.7656   25.3450   46.0889 H   0  0  0  0  0  0  0  0  0  0  0  0
   56.6795   29.6384   43.3727 H   0  0  0  0  0  0  0  0  0  0  0  0
   56.1246   30.6765   44.7292 H   0  0  0  0  0  0  0  0  0  0  0  0
   58.9645   30.4105   43.6124 H   0  0  0  0  0  0  0  0  0  0  0  0
   57.9102   31.8668   43.6054 H   0  0  0  0  0  0  0  0  0  0  0  0
   60.6302   32.1062   47.2018 H   0  0  0  0  0  0  0  0  0  0  0  0
   61.4353   34.4314   47.6048 H   0  0  0  0  0  0  0  0  0  0  0  0
   60.4271   36.3411   46.3519 H   0  0  0  0  0  0  0  0  0  0  0  0
   58.6110   35.9242   44.6902 H   0  0  0  0  0  0  0  0  0  0  0  0
   59.8377   29.6883   46.1307 H   0  0  0  0  0  0  0  0  0  0  0  0
   59.2133   30.7550   47.4393 H   0  0  0  0  0  0  0  0  0  0  0  0
   58.0259   28.4950   47.1905 H   0  0  0  0  0  0  0  0  0  0  0  0
   56.9625   29.9435   47.1486 H   0  0  0  0  0  0  0  0  0  0  0  0
  1  2  2  0
  2  3  1  0
  3  4  1  0
  4  5  2  0
  5  6  1  0
  6  7  2  0
  7  8  1  0
  8  9  2  0
  9 10  1  0
  2 11  1  0
 11 12  1  0
 12 13  2  0
 13 14  1  0
 14 15  2  0
 14 16  1  0
 16 17  1  0
 17 18  1  0
 18 19  1  0
 19 20  1  0
 20 21  2  0
 21 22  1  0
 22 23  2  0
 23 24  1  0
 24 25  2  0
 25 26  1  0
 19 27  1  0
 27 28  1  0
 13 29  1  0
 29 30  1  0
  9  4  1  0
 30 11  2  0
 28 16  1  0
 25 20  1  0
  5 31  1  0
  6 32  1  0
  7 33  1  0
  8 34  1  0
 12 35  1  0
 17 36  1  0
 17 37  1  0
 18 38  1  0
 18 39  1  0
 21 40  1  0
 22 41  1  0
 23 42  1  0
 24 43  1  0
 27 44  1  0
 27 45  1  0
 28 46  1  0
 28 47  1  0
M  CHG  3   3  -1  10  -1  29  -1
M  END
>  <UniqueID>  (69) 
68

>  <SMILES>  (69) 
O=C([N-]c1ccccc1[O-])c1cc(C(=O)N2CCN(c3ccccc3F)CC2)[n-]n1

>  <Energy>  (69) 
93.64350992119095

>  <Genealogy>  (69) 
O=C([N-]c1ccccc1[O-])c1cc(C(=O)N2CCN(c3ccccc3F)CC2)[n-]n1 (protonated)
O=C([N-]c1ccccc1[O-])c1cc(C(=O)N2CCN(c3ccccc3F)CC2)[n-]n1 (3D coordinates assigned)
O=C([N-]c1ccccc1[O-])c1cc(C(=O)N2CCN(c3ccccc3F)CC2)[n-]n1 (nonaromatic ring conformer: 93.64350992119095 kcal/mol)

>  <smiles>  (69) 
O=C(Nc1ccccc1O)c1cc(C(=O)N2CCN(c3ccccc3F)CC2)[nH]n1

>  <score_type>  (69) 
oracle

>  <origin>  (69) 
adg

>  <m_score__min__energy>  (69) 
-15.640000000000001

>  <m_primary>  (69) 
energy

$$$$
69:0
     RDKit          3D

 46 48  0  0  0  0  0  0  0  0999 V2000
   54.3350   26.7070   46.7490 H   0  0  0  0  0  0  0  0  0  0  0  0
   55.0620   26.5270   46.0680 O   0  0  0  0  0  0  0  0  0  0  0  0
   56.0850   25.6250   46.3440 C   0  0  0  0  0  0  0  0  0  0  0  0
   55.9000   24.4610   46.9900 N   0  0  0  0  0  0  0  0  0  0  0  0
   57.1310   23.9080   46.9630 C   0  0  0  0  0  0  0  0  0  0  0  0
   57.3790   22.7840   47.4720 O   0  0  0  0  0  0  0  0  0  0  0  0
   58.0710   24.6490   46.3390 N   0  0  0  0  0  0  0  0  0  0  0  0
   57.4040   25.7550   45.9670 C   0  0  0  0  0  0  0  0  0  0  0  0
   58.0100   26.8370   45.1720 C   0  0  0  0  0  0  0  0  0  0  0  0
   58.4404   26.5801   44.1928 H   0  0  0  0  0  0  0  0  0  0  0  0
   58.0690   28.1230   45.5720 C   0  0  0  0  0  0  0  0  0  0  0  0
   58.6650   28.5960   46.7310 C   0  0  0  0  0  0  0  0  0  0  0  0
   59.1525   27.9927   47.5110 H   0  0  0  0  0  0  0  0  0  0  0  0
   58.5290   29.9700   46.7180 C   0  0  0  0  0  0  0  0  0  0  0  0
   58.9990   30.8660   47.7940 C   0  0  0  0  0  0  0  0  0  0  0  0
   59.7640   30.4110   48.6840 O   0  0  0  0  0  0  0  0  0  0  0  0
   58.6000   32.2400   47.8670 N   0  0  0  0  0  0  0  0  0  0  0  0
   59.3280   33.2810   48.5830 C   0  0  0  0  0  0  0  0  0  0  0  0
   58.8495   34.2548   48.4019 H   0  0  0  0  0  0  0  0  0  0  0  0
   59.3162   33.0636   49.6612 H   0  0  0  0  0  0  0  0  0  0  0  0
   60.7520   33.3210   48.0920 C   0  0  0  0  0  0  0  0  0  0  0  0
   61.7830   32.9240   48.9630 C   0  0  0  0  0  0  0  0  0  0  0  0
   61.5362   32.5781   49.9776 H   0  0  0  0  0  0  0  0  0  0  0  0
   63.1150   32.9650   48.5520 C   0  0  0  0  0  0  0  0  0  0  0  0
   63.9117   32.6449   49.2396 H   0  0  0  0  0  0  0  0  0  0  0  0
   63.4390   33.4110   47.2710 C   0  0  0  0  0  0  0  0  0  0  0  0
   64.4902   33.4365   46.9481 H   0  0  0  0  0  0  0  0  0  0  0  0
   62.4320   33.8250   46.3980 C   0  0  0  0  0  0  0  0  0  0  0  0
   62.6947   34.1730   45.3881 H   0  0  0  0  0  0  0  0  0  0  0  0
   61.0830   33.8010   46.7990 C   0  0  0  0  0  0  0  0  0  0  0  0
   60.0220   34.2540   45.8300 C   0  0  0  0  0  0  0  0  0  0  0  0
   59.1503   34.6262   46.3883 H   0  0  0  0  0  0  0  0  0  0  0  0
   60.4232   35.0593   45.1971 H   0  0  0  0  0  0  0  0  0  0  0  0
   59.7178   33.4073   45.1971 H   0  0  0  0  0  0  0  0  0  0  0  0
   57.8790   30.3700   45.5990 N   0  0  0  0  0  0  0  0  0  0  0  0
   57.5530   31.7590   45.2400 C   0  0  0  0  0  0  0  0  0  0  0  0
   56.4600   31.8822   45.2257 H   0  0  0  0  0  0  0  0  0  0  0  0
   58.0009   32.4334   45.9846 H   0  0  0  0  0  0  0  0  0  0  0  0
   58.1150   32.1010   43.8630 C   0  0  0  0  0  0  0  0  0  0  0  0
   59.0494   32.6696   43.9792 H   0  0  0  0  0  0  0  0  0  0  0  0
   58.3172   31.1727   43.3086 H   0  0  0  0  0  0  0  0  0  0  0  0
   57.3834   32.7072   43.3086 H   0  0  0  0  0  0  0  0  0  0  0  0
   57.5930   29.2470   44.8900 C   0  0  0  0  0  0  0  0  0  0  0  0
   56.9330   29.2410   43.7190 C   0  0  0  0  0  0  0  0  0  0  0  0
   56.6023   30.1888   43.2692 H   0  0  0  0  0  0  0  0  0  0  0  0
   56.7236   28.2883   43.2105 H   0  0  0  0  0  0  0  0  0  0  0  0
  1  2  1  0
  2  3  1  0
  3  4  1  0
  4  5  1  0
  5  6  2  0
  5  7  1  0
  7  8  1  0
  8  9  1  0
  9 10  1  0
  9 11  2  0
 11 12  1  0
 12 13  1  0
 12 14  2  0
 14 15  1  0
 15 16  2  0
 15 17  1  0
 17 18  1  0
 18 19  1  0
 18 20  1  0
 18 21  1  0
 21 22  2  0
 22 23  1  0
 22 24  1  0
 24 25  1  0
 24 26  2  0
 26 27  1  0
 26 28  1  0
 28 29  1  0
 28 30  2  0
 30 31  1  0
 31 32  1  0
 31 33  1  0
 31 34  1  0
 14 35  1  0
 35 36  1  0
 36 37  1  0
 36 38  1  0
 36 39  1  0
 39 40  1  0
 39 41  1  0
 39 42  1  0
 35 43  1  0
 43 44  2  0
 44 45  1  0
 44 46  1  0
  8  3  2  0
 43 11  1  0
 30 21  1  0
M  CHG  3   4  -1   7  -1  17  -1
M  END
>  <UniqueID>  (70) 
69

>  <SMILES>  (70) 
C=c1/c(=C/c2[n-]c(=O)[n-]c2O)cc(C(=O)[N-]Cc2ccccc2C)n1CC

>  <Energy>  (70) 
113.24920484598906

>  <Genealogy>  (70) 
C=c1c(=Cc2[n-]c(=O)[n-]c2O)cc(C(=O)[N-]Cc2ccccc2C)n1CC (protonated)
C=c1/c(=C/c2[n-]c(=O)[n-]c2O)cc(C(=O)[N-]Cc2ccccc2C)n1CC (cis-trans isomerization)
C=c1/c(=C/c2[n-]c(=O)[n-]c2O)cc(C(=O)[N-]Cc2ccccc2C)n1CC (3D coordinates assigned)
C=c1/c(=C/c2[n-]c(=O)[n-]c2O)cc(C(=O)[N-]Cc2ccccc2C)n1CC (optimized conformer: 113.24920484598906 kcal/mol)

>  <smiles>  (70) 
C=c1c(=Cc2[nH]c(=O)[nH]c2O)cc(C(=O)NCc2ccccc2C)n1CC

>  <score_type>  (70) 
oracle

>  <origin>  (70) 
adg

>  <m_score__min__energy>  (70) 
-13.859999999999999

>  <m_primary>  (70) 
energy

$$$$
70:0
     RDKit          3D

 53 57  0  0  0  0  0  0  0  0999 V2000
   55.1360   29.2550   44.8300 N   0  0  0  0  0  0  0  0  0  0  0  0
   56.2770   30.0380   44.4890 C   0  0  0  0  0  0  0  0  0  0  0  0
   56.3200   31.2510   44.8290 O   0  0  0  0  0  0  0  0  0  0  0  0
   57.4470   29.4410   43.8150 C   0  0  0  0  0  0  0  0  0  0  0  0
   58.7200   29.5360   44.2290 C   0  0  0  0  0  0  0  0  0  0  0  0
   59.2500   28.9980   45.4990 C   0  0  0  0  0  0  0  0  0  0  0  0
   59.2640   27.6000   45.7020 C   0  0  0  0  0  0  0  0  0  0  0  0
   59.7190   27.0610   46.9160 C   0  0  0  0  0  0  0  0  0  0  0  0
   60.1370   27.9350   47.9200 C   0  0  0  0  0  0  0  0  0  0  0  0
   60.0980   29.2960   47.7410 C   0  0  0  0  0  0  0  0  0  0  0  0
   59.6490   29.8580   46.5450 C   0  0  0  0  0  0  0  0  0  0  0  0
   60.5800   30.0030   48.9510 C   0  0  0  0  0  0  0  0  0  0  0  0
   60.8880   28.9080   49.8760 N   0  0  0  0  0  0  0  0  0  0  0  0
   61.6110   29.1060   51.1020 C   0  0  0  0  0  0  0  0  0  0  0  0
   61.1460   28.6430   52.1800 O   0  0  0  0  0  0  0  0  0  0  0  0
   62.8830   29.8550   51.1370 C   0  0  0  0  0  0  0  0  0  0  0  0
   64.0020   29.3350   51.8080 C   0  0  0  0  0  0  0  0  0  0  0  0
   65.2000   30.0520   51.8390 C   0  0  0  0  0  0  0  0  0  0  0  0
   65.2870   31.3020   51.2210 C   0  0  0  0  0  0  0  0  0  0  0  0
   64.1610   31.8570   50.5890 C   0  0  0  0  0  0  0  0  0  0  0  0
   64.2190   33.1340   49.9390 N   0  0  0  0  0  0  0  0  0  0  0  0
   63.1270   34.0520   49.7950 C   0  0  0  0  0  0  0  0  0  0  0  0
   63.1430   35.1200   50.4610 O   0  0  0  0  0  0  0  0  0  0  0  0
   62.0280   33.8080   48.8380 C   0  0  0  0  0  0  0  0  0  0  0  0
   62.1770   33.8210   47.1500 S   0  0  0  0  0  0  0  0  0  0  0  0
   60.5510   33.5310   46.8440 C   0  0  0  0  0  0  0  0  0  0  0  0
   59.9130   33.4010   45.6140 C   0  0  0  0  0  0  0  0  0  0  0  0
   58.5310   33.1600   45.6060 C   0  0  0  0  0  0  0  0  0  0  0  0
   57.8200   33.0550   46.8170 C   0  0  0  0  0  0  0  0  0  0  0  0
   58.4860   33.1890   48.0480 C   0  0  0  0  0  0  0  0  0  0  0  0
   59.8640   33.4290   48.0450 C   0  0  0  0  0  0  0  0  0  0  0  0
   60.6870   33.5900   49.1660 C   0  0  0  0  0  0  0  0  0  0  0  0
   60.2150   33.5300   50.4730 O   0  0  0  0  0  0  0  0  0  0  0  0
   62.9700   31.1220   50.5380 C   0  0  0  0  0  0  0  0  0  0  0  0
   60.6380   27.5940   49.2730 C   0  0  0  0  0  0  0  0  0  0  0  0
   54.6600   29.3730   45.7520 H   0  0  0  0  0  0  0  0  0  0  0  0
   57.2591   28.8691   42.8943 H   0  0  0  0  0  0  0  0  0  0  0  0
   59.4277   30.0577   43.5680 H   0  0  0  0  0  0  0  0  0  0  0  0
   58.9159   26.9288   44.9031 H   0  0  0  0  0  0  0  0  0  0  0  0
   59.7454   25.9725   47.0723 H   0  0  0  0  0  0  0  0  0  0  0  0
   59.6068   30.9500   46.4198 H   0  0  0  0  0  0  0  0  0  0  0  0
   61.4788   30.5972   48.7293 H   0  0  0  0  0  0  0  0  0  0  0  0
   59.8472   30.7169   49.3551 H   0  0  0  0  0  0  0  0  0  0  0  0
   63.9345   28.3591   52.3111 H   0  0  0  0  0  0  0  0  0  0  0  0
   66.0777   29.6314   52.3515 H   0  0  0  0  0  0  0  0  0  0  0  0
   66.2390   31.8531   51.2291 H   0  0  0  0  0  0  0  0  0  0  0  0
   60.4772   33.4850   44.6734 H   0  0  0  0  0  0  0  0  0  0  0  0
   57.9999   33.0525   44.6487 H   0  0  0  0  0  0  0  0  0  0  0  0
   56.7363   32.8669   46.7998 H   0  0  0  0  0  0  0  0  0  0  0  0
   57.9337   33.1066   48.9957 H   0  0  0  0  0  0  0  0  0  0  0  0
   62.0932   31.5418   50.0231 H   0  0  0  0  0  0  0  0  0  0  0  0
   61.5644   27.0039   49.2139 H   0  0  0  0  0  0  0  0  0  0  0  0
   59.9338   26.9791   49.8526 H   0  0  0  0  0  0  0  0  0  0  0  0
  1  2  1  0
  2  3  2  0
  2  4  1  0
  4  5  2  3
  5  6  1  0
  6  7  2  0
  7  8  1  0
  8  9  2  0
  9 10  1  0
 10 11  2  0
 10 12  1  0
 12 13  1  0
 13 14  1  0
 14 15  2  0
 14 16  1  0
 16 17  2  0
 17 18  1  0
 18 19  2  0
 19 20  1  0
 20 21  1  0
 21 22  1  0
 22 23  2  0
 22 24  1  0
 24 25  1  0
 25 26  1  0
 26 27  2  0
 27 28  1  0
 28 29  2  0
 29 30  1  0
 30 31  2  0
 31 32  1  0
 32 33  1  0
 20 34  2  0
 13 35  1  0
 11  6  1  0
 34 16  1  0
 35  9  1  0
 32 24  2  0
 31 26  1  0
  1 36  1  0
  4 37  1  0
  5 38  1  0
  7 39  1  0
  8 40  1  0
 11 41  1  0
 12 42  1  0
 12 43  1  0
 17 44  1  0
 18 45  1  0
 19 46  1  0
 27 47  1  0
 28 48  1  0
 29 49  1  0
 30 50  1  0
 34 51  1  0
 35 52  1  0
 35 53  1  0
M  CHG  3   1  -1  21  -1  33  -1
M  END
>  <UniqueID>  (71) 
70

>  <SMILES>  (71) 
[NH-]C(=O)C=Cc1ccc2c(c1)CN(C(=O)c1cccc([N-]C(=O)c3sc4ccccc4c3[O-])c1)C2

>  <Energy>  (71) 
118.49846821088889

>  <Genealogy>  (71) 
[NH-]C(=O)C=Cc1ccc2c(c1)CN(C(=O)c1cccc([N-]C(=O)c3sc4ccccc4c3[O-])c1)C2 (protonated)
[NH-]C(=O)C=Cc1ccc2c(c1)CN(C(=O)c1cccc([N-]C(=O)c3sc4ccccc4c3[O-])c1)C2 (3D coordinates assigned)
[NH-]C(=O)C=Cc1ccc2c(c1)CN(C(=O)c1cccc([N-]C(=O)c3sc4ccccc4c3[O-])c1)C2 (nonaromatic ring conformer: 118.49846821088889 kcal/mol)

>  <smiles>  (71) 
NC(=O)C=Cc1ccc2c(c1)CN(C(=O)c1cccc(NC(=O)c3sc4ccccc4c3O)c1)C2

>  <score_type>  (71) 
oracle

>  <origin>  (71) 
adg

>  <m_score__min__energy>  (71) 
-18.32

>  <m_primary>  (71) 
energy

$$$$
71:0
     RDKit          3D

 42 43  0  0  0  0  0  0  0  0999 V2000
   56.2570   29.7530   42.8270 C   0  0  0  0  0  0  0  0  0  0  0  0
   56.1000   29.9250   44.3060 C   0  0  0  0  0  0  0  0  0  0  0  0
   55.1560   29.3330   44.8920 O   0  0  0  0  0  0  0  0  0  0  0  0
   57.0160   30.7080   45.0850 N   0  0  0  0  0  0  0  0  0  0  0  0
   58.1370   30.2210   45.8370 C   0  0  0  0  0  0  0  0  0  0  0  0
   58.8160   29.0870   45.3770 C   0  0  0  0  0  0  0  0  0  0  0  0
   59.9060   28.5800   46.0880 C   0  0  0  0  0  0  0  0  0  0  0  0
   60.3110   29.1900   47.2790 C   0  0  0  0  0  0  0  0  0  0  0  0
   59.6110   30.2940   47.7830 C   0  0  0  0  0  0  0  0  0  0  0  0
   60.0560   30.9150   49.0020 N   0  0  0  0  0  0  0  0  0  0  0  0
   59.1710   31.3450   50.0450 C   0  0  0  0  0  0  0  0  0  0  0  0
   58.1040   30.7160   50.2740 O   0  0  0  0  0  0  0  0  0  0  0  0
   59.5040   32.5530   50.8670 C   0  0  0  0  0  0  0  0  0  0  0  0
   59.4190   33.7310   50.0660 O   0  0  0  0  0  0  0  0  0  0  0  0
   59.7980   33.8240   48.7160 C   0  0  0  0  0  0  0  0  0  0  0  0
   58.8640   33.9920   47.6760 C   0  0  0  0  0  0  0  0  0  0  0  0
   59.2920   34.1050   46.3460 C   0  0  0  0  0  0  0  0  0  0  0  0
   58.2870   34.2670   45.2440 C   0  0  0  0  0  0  0  0  0  0  0  0
   60.6590   34.0100   46.0490 C   0  0  0  0  0  0  0  0  0  0  0  0
   61.5990   33.8500   47.0760 C   0  0  0  0  0  0  0  0  0  0  0  0
   63.0590   33.7290   46.7520 C   0  0  0  0  0  0  0  0  0  0  0  0
   61.1590   33.7420   48.4040 C   0  0  0  0  0  0  0  0  0  0  0  0
   58.5240   30.8110   47.0520 C   0  0  0  0  0  0  0  0  0  0  0  0
   56.9861   28.9542   42.6261 H   0  0  0  0  0  0  0  0  0  0  0  0
   55.2868   29.4837   42.3841 H   0  0  0  0  0  0  0  0  0  0  0  0
   56.6135   30.6947   42.3841 H   0  0  0  0  0  0  0  0  0  0  0  0
   58.4894   28.5923   44.4504 H   0  0  0  0  0  0  0  0  0  0  0  0
   60.4466   27.6995   45.7104 H   0  0  0  0  0  0  0  0  0  0  0  0
   61.1841   28.8010   47.8234 H   0  0  0  0  0  0  0  0  0  0  0  0
   61.0790   31.0960   49.1210 H   0  0  0  0  0  0  0  0  0  0  0  0
   58.7943   32.6303   51.7039 H   0  0  0  0  0  0  0  0  0  0  0  0
   60.5293   32.4538   51.2530 H   0  0  0  0  0  0  0  0  0  0  0  0
   57.7898   34.0349   47.9090 H   0  0  0  0  0  0  0  0  0  0  0  0
   57.2893   34.4278   45.6784 H   0  0  0  0  0  0  0  0  0  0  0  0
   58.5603   35.1327   44.6228 H   0  0  0  0  0  0  0  0  0  0  0  0
   58.2745   33.3593   44.6228 H   0  0  0  0  0  0  0  0  0  0  0  0
   60.9958   34.0614   45.0031 H   0  0  0  0  0  0  0  0  0  0  0  0
   63.6390   33.6809   47.6854 H   0  0  0  0  0  0  0  0  0  0  0  0
   63.2300   32.8136   46.1665 H   0  0  0  0  0  0  0  0  0  0  0  0
   63.3784   34.6038   46.1665 H   0  0  0  0  0  0  0  0  0  0  0  0
   61.8931   33.5911   49.2092 H   0  0  0  0  0  0  0  0  0  0  0  0
   57.9739   31.6831   47.4351 H   0  0  0  0  0  0  0  0  0  0  0  0
  1  2  1  0
  2  3  2  0
  2  4  1  0
  4  5  1  0
  5  6  2  0
  6  7  1  0
  7  8  2  0
  8  9  1  0
  9 10  1  0
 10 11  1  0
 11 12  2  0
 11 13  1  0
 13 14  1  0
 14 15  1  0
 15 16  2  0
 16 17  1  0
 17 18  1  0
 17 19  2  0
 19 20  1  0
 20 21  1  0
 20 22  2  0
  9 23  2  0
 23  5  1  0
 22 15  1  0
  1 24  1  0
  1 25  1  0
  1 26  1  0
  6 27  1  0
  7 28  1  0
  8 29  1  0
 10 30  1  0
 13 31  1  0
 13 32  1  0
 16 33  1  0
 18 34  1  0
 18 35  1  0
 18 36  1  0
 19 37  1  0
 21 38  1  0
 21 39  1  0
 21 40  1  0
 22 41  1  0
 23 42  1  0
M  CHG  1   4  -1
M  END
>  <UniqueID>  (72) 
71

>  <SMILES>  (72) 
CC(=O)[N-]c1cccc(NC(=O)COc2cc(C)cc(C)c2)c1

>  <Energy>  (72) 
42.86573859959508

>  <Genealogy>  (72) 
CC(=O)[N-]c1cccc(NC(=O)COc2cc(C)cc(C)c2)c1 (protonated)
CC(=O)[N-]c1cccc(NC(=O)COc2cc(C)cc(C)c2)c1 (3D coordinates assigned)
CC(=O)[N-]c1cccc(NC(=O)COc2cc(C)cc(C)c2)c1 (optimized conformer: 42.86573859959508 kcal/mol)

>  <smiles>  (72) 
CC(=O)Nc1cccc(NC(=O)COc2cc(C)cc(C)c2)c1

>  <score_type>  (72) 
oracle

>  <origin>  (72) 
adg

>  <m_score__min__energy>  (72) 
-9.8100000000000005

>  <m_primary>  (72) 
energy

$$$$
72:0
     RDKit          3D

 33 35  0  0  0  0  0  0  0  0999 V2000
   55.1370   26.2990   47.0540 H   0  0  0  0  0  0  0  0  0  0  0  0
   55.3520   26.3760   46.0680 O   0  0  0  0  0  0  0  0  0  0  0  0
   56.2360   27.3450   45.6040 C   0  0  0  0  0  0  0  0  0  0  0  0
   55.8350   28.5460   45.1490 N   0  0  0  0  0  0  0  0  0  0  0  0
   56.9710   29.1790   44.7860 C   0  0  0  0  0  0  0  0  0  0  0  0
   57.0030   30.5460   44.2330 C   0  0  0  0  0  0  0  0  0  0  0  0
   57.3680   30.7220   43.0400 O   0  0  0  0  0  0  0  0  0  0  0  0
   56.7080   31.6920   45.0440 N   0  0  0  0  0  0  0  0  0  0  0  0
   57.5720   32.5770   45.4460 C   0  0  0  0  0  0  0  0  0  0  0  0
   58.2130   33.3990   44.5880 N   0  0  0  0  0  0  0  0  0  0  0  0
   59.0520   34.2380   45.1960 N   0  0  0  0  0  0  0  0  0  0  0  0
   59.0630   34.1040   46.5400 C   0  0  0  0  0  0  0  0  0  0  0  0
   60.0020   34.8420   47.4390 C   0  0  0  0  0  0  0  0  0  0  0  0
   60.3161   35.7767   46.9515 H   0  0  0  0  0  0  0  0  0  0  0  0
   59.4933   35.0722   48.3867 H   0  0  0  0  0  0  0  0  0  0  0  0
   61.2120   33.9920   47.7170 C   0  0  0  0  0  0  0  0  0  0  0  0
   61.5250   32.9100   46.8810 C   0  0  0  0  0  0  0  0  0  0  0  0
   60.9073   32.7060   45.9940 H   0  0  0  0  0  0  0  0  0  0  0  0
   62.6180   32.0910   47.1710 C   0  0  0  0  0  0  0  0  0  0  0  0
   62.8657   31.2514   46.5049 H   0  0  0  0  0  0  0  0  0  0  0  0
   63.3980   32.3340   48.3040 C   0  0  0  0  0  0  0  0  0  0  0  0
   64.2580   31.6846   48.5247 H   0  0  0  0  0  0  0  0  0  0  0  0
   63.0910   33.4040   49.1650 C   0  0  0  0  0  0  0  0  0  0  0  0
   63.8780   33.6470   50.3460 N   0  0  0  0  0  0  0  0  0  0  0  0
   65.1100   33.4400   50.3420 O   0  0  0  0  0  0  0  0  0  0  0  0
   63.2850   34.1000   51.5010 O   0  0  0  0  0  0  0  0  0  0  0  0
   61.9940   34.2300   48.8600 C   0  0  0  0  0  0  0  0  0  0  0  0
   61.7456   35.0715   49.5235 H   0  0  0  0  0  0  0  0  0  0  0  0
   58.0130   32.8870   47.0470 S   0  0  0  0  0  0  0  0  0  0  0  0
   58.0810   28.3870   45.0260 C   0  0  0  0  0  0  0  0  0  0  0  0
   59.1323   28.6502   44.8377 H   0  0  0  0  0  0  0  0  0  0  0  0
   57.6070   27.2050   45.5470 C   0  0  0  0  0  0  0  0  0  0  0  0
   58.1986   26.3300   45.8543 H   0  0  0  0  0  0  0  0  0  0  0  0
  1  2  1  0
  2  3  1  0
  3  4  1  0
  4  5  1  0
  5  6  1  0
  6  7  2  0
  6  8  1  0
  8  9  2  0
  9 10  1  0
 10 11  1  0
 11 12  2  0
 12 13  1  0
 13 14  1  0
 13 15  1  0
 13 16  1  0
 16 17  2  0
 17 18  1  0
 17 19  1  0
 19 20  1  0
 19 21  2  0
 21 22  1  0
 21 23  1  0
 23 24  1  0
 24 25  2  0
 24 26  1  0
 23 27  2  0
 27 28  1  0
 12 29  1  0
  5 30  2  0
 30 31  1  0
 30 32  1  0
 32 33  1  0
 32  3  2  0
 29  9  1  0
 27 16  1  0
M  CHG  4   4  -1  10  -1  24   1  26  -1
M  END
>  <UniqueID>  (73) 
72

>  <SMILES>  (73) 
O=C(/N=c1/[n-]nc(Cc2cccc([N+](=O)[O-])c2)s1)c1ccc(O)[n-]1

>  <Energy>  (73) 
99.35802544337716

>  <Genealogy>  (73) 
O=C(N=c1[n-]nc(Cc2cccc([N+](=O)[O-])c2)s1)c1ccc(O)[n-]1 (protonated)
O=C(/N=c1/[n-]nc(Cc2cccc([N+](=O)[O-])c2)s1)c1ccc(O)[n-]1 (cis-trans isomerization)
O=C(/N=c1/[n-]nc(Cc2cccc([N+](=O)[O-])c2)s1)c1ccc(O)[n-]1 (3D coordinates assigned)
O=C(/N=c1/[n-]nc(Cc2cccc([N+](=O)[O-])c2)s1)c1ccc(O)[n-]1 (optimized conformer: 99.35802544337716 kcal/mol)

>  <smiles>  (73) 
O=C(N=c1[nH]nc(Cc2cccc([N+](=O)[O-])c2)s1)c1ccc(O)[nH]1

>  <score_type>  (73) 
oracle

>  <origin>  (73) 
adg

>  <m_score__min__energy>  (73) 
-12.15

>  <m_primary>  (73) 
energy

$$$$
73:0
     RDKit          3D

 56 58  0  0  0  0  0  0  0  0999 V2000
   58.1150   31.1500   45.1530 C   0  0  0  0  0  0  0  0  0  0  0  0
   57.7690   30.3920   46.2910 O   0  0  0  0  0  0  0  0  0  0  0  0
   58.9180   29.7780   46.8440 C   0  0  0  0  0  0  0  0  0  0  0  0
   58.5300   28.9310   48.0610 C   0  0  0  0  0  0  0  0  0  0  0  0
   59.3580   29.2800   49.2230 N   0  0  0  0  0  0  0  0  0  0  0  0
   60.3110   28.2980   49.7430 C   0  0  0  0  0  0  0  0  0  0  0  0
   59.0660   30.4650   49.9880 C   0  0  0  0  0  0  0  0  0  0  0  0
   59.4970   31.7040   49.5320 C   0  0  0  0  0  0  0  0  0  0  0  0
   59.2380   32.8700   50.2620 C   0  0  0  0  0  0  0  0  0  0  0  0
   59.6880   34.2130   49.7000 C   0  0  0  0  0  0  0  0  0  0  0  0
   60.8180   34.0770   48.6930 C   0  0  0  0  0  0  0  0  0  0  0  0
   62.1600   33.9090   49.1140 C   0  0  0  0  0  0  0  0  0  0  0  0
   62.6140   33.8400   50.8150 Cl  0  0  0  0  0  0  0  0  0  0  0  0
   63.1790   33.7650   48.1650 C   0  0  0  0  0  0  0  0  0  0  0  0
   62.8830   33.7780   46.8030 C   0  0  0  0  0  0  0  0  0  0  0  0
   61.5660   33.9300   46.3750 C   0  0  0  0  0  0  0  0  0  0  0  0
   60.5320   34.0760   47.3060 C   0  0  0  0  0  0  0  0  0  0  0  0
   58.8870   34.2400   46.6950 Cl  0  0  0  0  0  0  0  0  0  0  0  0
   58.6240   32.7450   51.5380 C   0  0  0  0  0  0  0  0  0  0  0  0
   58.5400   33.9580   52.4480 C   0  0  0  0  0  0  0  0  0  0  0  0
   58.1040   31.5230   51.9310 N   0  0  0  0  0  0  0  0  0  0  0  0
   57.2910   31.3800   53.1610 C   0  0  0  0  0  0  0  0  0  0  0  0
   55.9000   30.8620   52.8660 C   0  0  0  0  0  0  0  0  0  0  0  0
   55.2180   31.2020   51.6810 C   0  0  0  0  0  0  0  0  0  0  0  0
   53.9460   30.6820   51.4230 C   0  0  0  0  0  0  0  0  0  0  0  0
   53.3460   29.8090   52.3350 C   0  0  0  0  0  0  0  0  0  0  0  0
   51.7500   29.1590   52.0080 Cl  0  0  0  0  0  0  0  0  0  0  0  0
   54.0210   29.4530   53.5060 C   0  0  0  0  0  0  0  0  0  0  0  0
   55.2930   29.9710   53.7670 C   0  0  0  0  0  0  0  0  0  0  0  0
   58.3370   30.3940   51.1800 C   0  0  0  0  0  0  0  0  0  0  0  0
   57.8840   29.2750   51.5530 O   0  0  0  0  0  0  0  0  0  0  0  0
   58.5524   32.1083   45.4698 H   0  0  0  0  0  0  0  0  0  0  0  0
   58.8483   30.5935   44.5508 H   0  0  0  0  0  0  0  0  0  0  0  0
   57.2142   31.3394   44.5508 H   0  0  0  0  0  0  0  0  0  0  0  0
   59.3857   29.1325   46.0860 H   0  0  0  0  0  0  0  0  0  0  0  0
   59.6257   30.5585   47.1601 H   0  0  0  0  0  0  0  0  0  0  0  0
   57.4725   29.1116   48.3041 H   0  0  0  0  0  0  0  0  0  0  0  0
   58.6906   27.8701   47.8187 H   0  0  0  0  0  0  0  0  0  0  0  0
   60.2931   28.3164   50.8427 H   0  0  0  0  0  0  0  0  0  0  0  0
   60.0335   27.2943   49.3885 H   0  0  0  0  0  0  0  0  0  0  0  0
   61.3225   28.5453   49.3885 H   0  0  0  0  0  0  0  0  0  0  0  0
   60.0500   31.7700   48.5834 H   0  0  0  0  0  0  0  0  0  0  0  0
   58.8308   34.6925   49.2048 H   0  0  0  0  0  0  0  0  0  0  0  0
   60.0617   34.8169   50.5400 H   0  0  0  0  0  0  0  0  0  0  0  0
   64.2205   33.6407   48.4964 H   0  0  0  0  0  0  0  0  0  0  0  0
   63.6909   33.6680   46.0646 H   0  0  0  0  0  0  0  0  0  0  0  0
   61.3378   33.9353   45.2989 H   0  0  0  0  0  0  0  0  0  0  0  0
   58.5627   33.6309   53.4980 H   0  0  0  0  0  0  0  0  0  0  0  0
   59.3943   34.6229   52.2526 H   0  0  0  0  0  0  0  0  0  0  0  0
   57.6023   34.4988   52.2526 H   0  0  0  0  0  0  0  0  0  0  0  0
   57.7951   30.6763   53.8398 H   0  0  0  0  0  0  0  0  0  0  0  0
   57.1921   32.3749   53.6197 H   0  0  0  0  0  0  0  0  0  0  0  0
   55.6890   31.8805   50.9545 H   0  0  0  0  0  0  0  0  0  0  0  0
   53.4162   30.9606   50.5001 H   0  0  0  0  0  0  0  0  0  0  0  0
   53.5507   28.7643   54.2232 H   0  0  0  0  0  0  0  0  0  0  0  0
   55.8231   29.6786   54.6854 H   0  0  0  0  0  0  0  0  0  0  0  0
  1  2  1  0
  2  3  1  0
  3  4  1  0
  4  5  1  0
  5  6  1  0
  5  7  1  0
  7  8  2  0
  8  9  1  0
  9 10  1  0
 10 11  1  0
 11 12  2  0
 12 13  1  0
 12 14  1  0
 14 15  2  0
 15 16  1  0
 16 17  2  0
 17 18  1  0
  9 19  2  0
 19 20  1  0
 19 21  1  0
 21 22  1  0
 22 23  1  0
 23 24  2  0
 24 25  1  0
 25 26  2  0
 26 27  1  0
 26 28  1  0
 28 29  2  0
 21 30  1  0
 30 31  2  0
 30  7  1  0
 17 11  1  0
 29 23  1  0
  1 32  1  0
  1 33  1  0
  1 34  1  0
  3 35  1  0
  3 36  1  0
  4 37  1  0
  4 38  1  0
  6 39  1  0
  6 40  1  0
  6 41  1  0
  8 42  1  0
 10 43  1  0
 10 44  1  0
 14 45  1  0
 15 46  1  0
 16 47  1  0
 20 48  1  0
 20 49  1  0
 20 50  1  0
 22 51  1  0
 22 52  1  0
 24 53  1  0
 25 54  1  0
 28 55  1  0
 29 56  1  0
M  END
>  <UniqueID>  (74) 
73

>  <SMILES>  (74) 
COCCN(C)c1cc(Cc2c(Cl)cccc2Cl)c(C)n(Cc2ccc(Cl)cc2)c1=O

>  <Energy>  (74) 
74.68598518639794

>  <Genealogy>  (74) 
COCCN(C)c1cc(Cc2c(Cl)cccc2Cl)c(C)n(Cc2ccc(Cl)cc2)c1=O (3D coordinates assigned)
COCCN(C)c1cc(Cc2c(Cl)cccc2Cl)c(C)n(Cc2ccc(Cl)cc2)c1=O (optimized conformer: 74.68598518639794 kcal/mol)

>  <smiles>  (74) 
COCCN(C)c1cc(Cc2c(Cl)cccc2Cl)c(C)n(Cc2ccc(Cl)cc2)c1=O

>  <score_type>  (74) 
oracle

>  <origin>  (74) 
adg

>  <m_score__min__energy>  (74) 
-8.1699999999999999

>  <m_primary>  (74) 
energy

$$$$
74:0
     RDKit          3D

 61 64  0  0  0  0  0  0  0  0999 V2000
   53.1420   23.9060   45.0080 C   0  0  0  0  0  0  0  0  0  0  0  0
   54.3240   24.6630   45.5130 C   0  0  0  0  0  0  0  0  0  0  0  0
   55.5130   24.1230   45.9490 C   0  0  0  0  0  0  0  0  0  0  0  0
   56.2430   25.2280   46.3320 C   0  0  0  0  0  0  0  0  0  0  0  0
   57.5960   25.2090   46.9690 C   0  0  0  0  0  0  0  0  0  0  0  0
   58.0430   26.5740   47.2250 N   0  0  0  0  0  0  0  0  0  0  0  0
   59.2630   27.1140   46.7070 C   0  0  0  0  0  0  0  0  0  0  0  0
   60.1500   26.3260   46.2730 O   0  0  0  0  0  0  0  0  0  0  0  0
   59.4750   28.5870   46.6750 C   0  0  0  0  0  0  0  0  0  0  0  0
   60.2850   29.1870   47.6600 C   0  0  0  0  0  0  0  0  0  0  0  0
   60.5030   30.5770   47.6700 C   0  0  0  0  0  0  0  0  0  0  0  0
   61.3030   31.2070   48.6390 C   0  0  0  0  0  0  0  0  0  0  0  0
   61.8790   30.5070   49.5190 O   0  0  0  0  0  0  0  0  0  0  0  0
   61.4680   32.5720   48.6260 N   0  0  0  0  0  0  0  0  0  0  0  0
   62.3140   33.2250   49.6510 C   0  0  0  0  0  0  0  0  0  0  0  0
   63.7810   33.1870   49.2870 C   0  0  0  0  0  0  0  0  0  0  0  0
   64.1520   33.8420   48.2740 O   0  0  0  0  0  0  0  0  0  0  0  0
   64.7630   32.4570   50.0620 N   0  0  0  0  0  0  0  0  0  0  0  0
   64.3490   31.6900   51.2490 C   0  0  0  0  0  0  0  0  0  0  0  0
   65.4780   30.8300   51.8190 C   0  0  0  0  0  0  0  0  0  0  0  0
   66.6980   31.5340   51.8260 O   0  0  0  0  0  0  0  0  0  0  0  0
   67.1160   31.7240   50.4940 C   0  0  0  0  0  0  0  0  0  0  0  0
   66.1860   32.6980   49.7640 C   0  0  0  0  0  0  0  0  0  0  0  0
   60.8990   33.3110   47.6150 C   0  0  0  0  0  0  0  0  0  0  0  0
   61.0820   34.5570   47.5380 O   0  0  0  0  0  0  0  0  0  0  0  0
   60.1270   32.7100   46.6750 N   0  0  0  0  0  0  0  0  0  0  0  0
   59.9100   31.3740   46.6810 C   0  0  0  0  0  0  0  0  0  0  0  0
   59.1010   30.7960   45.7040 C   0  0  0  0  0  0  0  0  0  0  0  0
   58.8740   29.4140   45.6920 C   0  0  0  0  0  0  0  0  0  0  0  0
   58.0120   28.8680   44.6860 N   0  0  0  0  0  0  0  0  0  0  0  0
   58.5420   27.8710   43.7590 C   0  0  0  0  0  0  0  0  0  0  0  0
   56.5620   29.7290   44.2650 S   0  0  0  0  0  0  0  0  0  0  0  0
   56.3530   29.7670   42.4970 C   0  0  0  0  0  0  0  0  0  0  0  0
   55.3790   29.0460   44.8920 O   0  0  0  0  0  0  0  0  0  0  0  0
   56.6500   31.1440   44.7670 O   0  0  0  0  0  0  0  0  0  0  0  0
   55.5110   26.3460   46.1510 N   0  0  0  0  0  0  0  0  0  0  0  0
   54.3690   25.9680   45.6530 O   0  0  0  0  0  0  0  0  0  0  0  0
   52.5558   23.5306   45.8597 H   0  0  0  0  0  0  0  0  0  0  0  0
   52.5149   24.5709   44.3959 H   0  0  0  0  0  0  0  0  0  0  0  0
   53.4837   23.0583   44.3959 H   0  0  0  0  0  0  0  0  0  0  0  0
   55.8093   23.0642   45.9835 H   0  0  0  0  0  0  0  0  0  0  0  0
   57.5440   24.6578   47.9195 H   0  0  0  0  0  0  0  0  0  0  0  0
   58.3085   24.7154   46.2917 H   0  0  0  0  0  0  0  0  0  0  0  0
   60.7537   28.5594   48.4323 H   0  0  0  0  0  0  0  0  0  0  0  0
   62.0010   34.2746   49.7529 H   0  0  0  0  0  0  0  0  0  0  0  0
   62.1854   32.6763   50.5957 H   0  0  0  0  0  0  0  0  0  0  0  0
   64.0172   32.3950   52.0255 H   0  0  0  0  0  0  0  0  0  0  0  0
   63.5385   31.0130   50.9412 H   0  0  0  0  0  0  0  0  0  0  0  0
   65.2241   30.5410   52.8495 H   0  0  0  0  0  0  0  0  0  0  0  0
   65.5926   29.9388   51.1845 H   0  0  0  0  0  0  0  0  0  0  0  0
   68.1378   32.1312   50.4916 H   0  0  0  0  0  0  0  0  0  0  0  0
   67.0880   30.7547   49.9747 H   0  0  0  0  0  0  0  0  0  0  0  0
   66.4407   33.7236   50.0694 H   0  0  0  0  0  0  0  0  0  0  0  0
   66.3293   32.5478   48.6838 H   0  0  0  0  0  0  0  0  0  0  0  0
   58.6366   31.4312   44.9353 H   0  0  0  0  0  0  0  0  0  0  0  0
   58.9839   27.0397   44.3279 H   0  0  0  0  0  0  0  0  0  0  0  0
   57.7275   27.4897   43.1256 H   0  0  0  0  0  0  0  0  0  0  0  0
   59.3136   28.3329   43.1256 H   0  0  0  0  0  0  0  0  0  0  0  0
   55.2969   29.9590   42.2567 H   0  0  0  0  0  0  0  0  0  0  0  0
   56.9772   30.5664   42.0711 H   0  0  0  0  0  0  0  0  0  0  0  0
   56.6558   28.7991   42.0711 H   0  0  0  0  0  0  0  0  0  0  0  0
  1  2  1  0
  2  3  2  0
  3  4  1  0
  4  5  1  0
  5  6  1  0
  6  7  1  0
  7  8  2  0
  7  9  1  0
  9 10  2  0
 10 11  1  0
 11 12  1  0
 12 13  2  0
 12 14  1  0
 14 15  1  0
 15 16  1  0
 16 17  2  0
 16 18  1  0
 18 19  1  0
 19 20  1  0
 20 21  1  0
 21 22  1  0
 22 23  1  0
 14 24  1  0
 24 25  2  0
 24 26  1  0
 26 27  1  0
 27 28  1  0
 28 29  2  0
 29 30  1  0
 30 31  1  0
 30 32  1  0
 32 33  1  0
 32 34  2  0
 32 35  2  0
  4 36  2  0
 36 37  1  0
 37  2  1  0
 29  9  1  0
 27 11  2  0
 23 18  1  0
  1 38  1  0
  1 39  1  0
  1 40  1  0
  3 41  1  0
  5 42  1  0
  5 43  1  0
 10 44  1  0
 15 45  1  0
 15 46  1  0
 19 47  1  0
 19 48  1  0
 20 49  1  0
 20 50  1  0
 22 51  1  0
 22 52  1  0
 23 53  1  0
 23 54  1  0
 28 55  1  0
 31 56  1  0
 31 57  1  0
 31 58  1  0
 33 59  1  0
 33 60  1  0
 33 61  1  0
M  CHG  2   6  -1  26  -1
M  END
>  <UniqueID>  (75) 
74

>  <SMILES>  (75) 
Cc1cc(C[N-]C(=O)c2cc3c(=O)n(CC(=O)N4CCOCC4)c(=O)[n-]c3cc2N(C)S(C)(=O)=O)no1

>  <Energy>  (75) 
105.27999088520811

>  <Genealogy>  (75) 
Cc1cc(C[N-]C(=O)c2cc3c(=O)n(CC(=O)N4CCOCC4)c(=O)[n-]c3cc2N(C)S(C)(=O)=O)no1 (protonated)
Cc1cc(C[N-]C(=O)c2cc3c(=O)n(CC(=O)N4CCOCC4)c(=O)[n-]c3cc2N(C)S(C)(=O)=O)no1 (3D coordinates assigned)
Cc1cc(C[N-]C(=O)c2cc3c(=O)n(CC(=O)N4CCOCC4)c(=O)[n-]c3cc2N(C)S(C)(=O)=O)no1 (nonaromatic ring conformer: 105.27999088520811 kcal/mol)

>  <smiles>  (75) 
Cc1cc(CNC(=O)c2cc3c(=O)n(CC(=O)N4CCOCC4)c(=O)[nH]c3cc2N(C)S(C)(=O)=O)no1

>  <score_type>  (75) 
oracle

>  <origin>  (75) 
adg

>  <m_score__min__energy>  (75) 
-12.65

>  <m_primary>  (75) 
energy

$$$$
75:0
     RDKit          3D

 60 63  0  0  0  0  0  0  0  0999 V2000
   56.7495   31.0579   41.3245 H   0  0  0  0  0  0  0  0  0  0  0  0
   56.9890   30.8270   42.3730 C   0  0  0  0  0  0  0  0  0  0  0  0
   57.8112   31.3548   42.8785 H   0  0  0  0  0  0  0  0  0  0  0  0
   56.2840   29.9090   43.0300 C   0  0  0  0  0  0  0  0  0  0  0  0
   55.4668   29.3949   42.5029 H   0  0  0  0  0  0  0  0  0  0  0  0
   56.5530   29.5530   44.4340 C   0  0  0  0  0  0  0  0  0  0  0  0
   55.6030   29.1450   45.1540 O   0  0  0  0  0  0  0  0  0  0  0  0
   57.8820   29.6170   44.9820 N   0  0  0  0  0  0  0  0  0  0  0  0
   58.5410   28.3390   45.2930 C   0  0  0  0  0  0  0  0  0  0  0  0
   57.7819   27.6221   45.6393 H   0  0  0  0  0  0  0  0  0  0  0  0
   59.0374   27.9795   44.3796 H   0  0  0  0  0  0  0  0  0  0  0  0
   59.6090   28.4980   46.3850 C   0  0  0  0  0  0  0  0  0  0  0  0
   59.8126   27.5173   46.8397 H   0  0  0  0  0  0  0  0  0  0  0  0
   60.5275   28.9003   45.9328 H   0  0  0  0  0  0  0  0  0  0  0  0
   59.1390   29.4270   47.4240 N   0  0  0  0  0  0  0  0  0  0  0  0
   59.3980   29.1560   48.8110 C   0  0  0  0  0  0  0  0  0  0  0  0
   58.4310   28.9760   49.5980 O   0  0  0  0  0  0  0  0  0  0  0  0
   60.7710   29.0640   49.3450 C   0  0  0  0  0  0  0  0  0  0  0  0
   61.3671   28.1663   49.1243 H   0  0  0  0  0  0  0  0  0  0  0  0
   61.3160   30.0340   50.0880 C   0  0  0  0  0  0  0  0  0  0  0  0
   62.3867   29.9676   50.3315 H   0  0  0  0  0  0  0  0  0  0  0  0
   60.5460   31.1960   50.6000 C   0  0  0  0  0  0  0  0  0  0  0  0
   59.5650   31.0180   51.5950 C   0  0  0  0  0  0  0  0  0  0  0  0
   59.3181   30.0035   51.9413 H   0  0  0  0  0  0  0  0  0  0  0  0
   58.9030   32.1170   52.1460 C   0  0  0  0  0  0  0  0  0  0  0  0
   58.1317   31.9637   52.9151 H   0  0  0  0  0  0  0  0  0  0  0  0
   59.2170   33.4080   51.7240 C   0  0  0  0  0  0  0  0  0  0  0  0
   58.6987   34.2719   52.1656 H   0  0  0  0  0  0  0  0  0  0  0  0
   60.1880   33.6050   50.7420 C   0  0  0  0  0  0  0  0  0  0  0  0
   60.4344   34.6262   50.4158 H   0  0  0  0  0  0  0  0  0  0  0  0
   60.8540   32.5100   50.1660 C   0  0  0  0  0  0  0  0  0  0  0  0
   61.8310   32.7650   49.0830 C   0  0  0  0  0  0  0  0  0  0  0  0
   63.2020   32.8600   49.3750 C   0  0  0  0  0  0  0  0  0  0  0  0
   63.5500   32.7515   50.4128 H   0  0  0  0  0  0  0  0  0  0  0  0
   64.1260   33.0920   48.3510 C   0  0  0  0  0  0  0  0  0  0  0  0
   65.1986   33.1627   48.5844 H   0  0  0  0  0  0  0  0  0  0  0  0
   63.6880   33.2340   47.0320 C   0  0  0  0  0  0  0  0  0  0  0  0
   64.4144   33.4267   46.2288 H   0  0  0  0  0  0  0  0  0  0  0  0
   62.3250   33.1310   46.7330 C   0  0  0  0  0  0  0  0  0  0  0  0
   61.9811   33.2400   45.6938 H   0  0  0  0  0  0  0  0  0  0  0  0
   61.4000   32.8900   47.7520 C   0  0  0  0  0  0  0  0  0  0  0  0
   60.3307   32.7978   47.5111 H   0  0  0  0  0  0  0  0  0  0  0  0
   58.5880   30.7380   47.0470 C   0  0  0  0  0  0  0  0  0  0  0  0
   57.5937   30.8542   47.5029 H   0  0  0  0  0  0  0  0  0  0  0  0
   59.2724   31.5206   47.4063 H   0  0  0  0  0  0  0  0  0  0  0  0
   58.4580   30.8670   45.5170 C   0  0  2  0  0  0  0  0  0  0  0  0
   59.4551   31.0037   45.0729 H   0  0  0  0  0  0  0  0  0  0  0  0
   57.6730   32.1330   45.1020 C   0  0  0  0  0  0  0  0  0  0  0  0
   57.6304   32.1815   44.0039 H   0  0  0  0  0  0  0  0  0  0  0  0
   56.6637   32.0665   45.5343 H   0  0  0  0  0  0  0  0  0  0  0  0
   58.3230   33.3900   45.6210 C   0  0  0  0  0  0  0  0  0  0  0  0
   58.2950   33.7010   46.9890 C   0  0  0  0  0  0  0  0  0  0  0  0
   57.7719   33.0359   47.6919 H   0  0  0  0  0  0  0  0  0  0  0  0
   58.9130   34.8230   47.4490 N   0  0  0  0  0  0  0  0  0  0  0  0
   59.5730   35.6680   46.6120 C   0  0  0  0  0  0  0  0  0  0  0  0
   60.0605   36.5685   47.0137 H   0  0  0  0  0  0  0  0  0  0  0  0
   59.6330   35.3950   45.2450 C   0  0  0  0  0  0  0  0  0  0  0  0
   60.1686   36.0745   44.5657 H   0  0  0  0  0  0  0  0  0  0  0  0
   59.0060   34.2500   44.7480 C   0  0  0  0  0  0  0  0  0  0  0  0
   59.0477   34.0227   43.6725 H   0  0  0  0  0  0  0  0  0  0  0  0
  1  2  1  0
  2  3  1  0
  2  4  2  0
  4  5  1  0
  4  6  1  0
  6  7  2  0
  6  8  1  0
  8  9  1  0
  9 10  1  0
  9 11  1  0
  9 12  1  0
 12 13  1  0
 12 14  1  0
 12 15  1  0
 15 16  1  0
 16 17  2  0
 16 18  1  0
 18 19  1  0
 18 20  2  0
 20 21  1  0
 20 22  1  0
 22 23  2  0
 23 24  1  0
 23 25  1  0
 25 26  1  0
 25 27  2  0
 27 28  1  0
 27 29  1  0
 29 30  1  0
 29 31  2  0
 31 32  1  0
 32 33  2  0
 33 34  1  0
 33 35  1  0
 35 36  1  0
 35 37  2  0
 37 38  1  0
 37 39  1  0
 39 40  1  0
 39 41  2  0
 41 42  1  0
 15 43  1  0
 43 44  1  0
 43 45  1  0
 43 46  1  0
 46 47  1  6
 46 48  1  0
 48 49  1  0
 48 50  1  0
 48 51  1  0
 51 52  2  0
 52 53  1  0
 52 54  1  0
 54 55  2  0
 55 56  1  0
 55 57  1  0
 57 58  1  0
 57 59  2  0
 59 60  1  0
 46  8  1  0
 59 51  1  0
 31 22  1  0
 41 32  1  0
M  END
>  <UniqueID>  (76) 
75

>  <SMILES>  (76) 
C=CC(=O)N1CCN(C(=O)/C=C/c2ccccc2-c2ccccc2)C[C@@H]1Cc1cccnc1

>  <Energy>  (76) 
80.96112356083998

>  <Genealogy>  (76) 
C=CC(=O)N1CCN(C(=O)C=Cc2ccccc2-c2ccccc2)C[C@@H]1Cc1cccnc1 (chirality)
C=CC(=O)N1CCN(C(=O)/C=C/c2ccccc2-c2ccccc2)C[C@@H]1Cc1cccnc1 (cis-trans isomerization)
C=CC(=O)N1CCN(C(=O)/C=C/c2ccccc2-c2ccccc2)C[C@@H]1Cc1cccnc1 (3D coordinates assigned)
C=CC(=O)N1CCN(C(=O)/C=C/c2ccccc2-c2ccccc2)C[C@@H]1Cc1cccnc1 (nonaromatic ring conformer: 80.96112356083998 kcal/mol)

>  <smiles>  (76) 
C=CC(=O)N1CCN(C(=O)C=Cc2ccccc2-c2ccccc2)CC1Cc1cccnc1

>  <score_type>  (76) 
oracle

>  <origin>  (76) 
adg

>  <m_score__min__energy>  (76) 
-9.9199999999999999

>  <m_primary>  (76) 
energy

$$$$
76:0
     RDKit          3D

 59 63  0  0  0  0  0  0  0  0999 V2000
   59.3980   29.8120   47.6700 N   0  0  0  0  0  0  0  0  0  0  0  0
   58.8920   30.1980   46.7040 C   0  0  0  0  0  0  0  0  0  0  0  0
   58.2570   30.6680   45.4940 C   0  0  0  0  0  0  0  0  0  0  0  0
   58.2110   32.0520   45.2210 C   0  0  0  0  0  0  0  0  0  0  0  0
   58.7910   32.9990   46.1300 N   0  0  0  0  0  0  0  0  0  0  0  0
   58.0210   33.4730   47.2810 C   0  0  0  0  0  0  0  0  0  0  0  0
   58.8740   33.3570   48.5480 C   0  0  0  0  0  0  0  0  0  0  0  0
   60.2450   33.8490   48.3360 N   0  0  0  0  0  0  0  0  0  0  0  0
   61.1720   33.8090   49.4430 C   0  0  0  0  0  0  0  0  0  0  0  0
   60.8850   33.1330   50.4720 O   0  0  0  0  0  0  0  0  0  0  0  0
   62.5040   34.5070   49.3870 C   0  0  0  0  0  0  0  0  0  0  0  0
   63.5500   33.8310   48.5030 C   0  0  0  0  0  0  0  0  0  0  0  0
   63.6600   33.7370   50.0120 C   0  0  0  0  0  0  0  0  0  0  0  0
   60.6250   34.4030   47.0260 C   0  0  0  0  0  0  0  0  0  0  0  0
   60.1610   33.4710   45.9010 C   0  0  0  0  0  0  0  0  0  0  0  0
   57.5930   32.5130   44.0530 C   0  0  0  0  0  0  0  0  0  0  0  0
   57.0380   31.6080   43.1470 C   0  0  0  0  0  0  0  0  0  0  0  0
   57.0950   30.2360   43.4020 C   0  0  0  0  0  0  0  0  0  0  0  0
   57.6960   29.7530   44.5760 C   0  0  0  0  0  0  0  0  0  0  0  0
   57.7490   28.3350   44.8200 N   0  0  0  0  0  0  0  0  0  0  0  0
   58.7880   27.5240   44.1840 C   0  0  0  0  0  0  0  0  0  0  0  0
   58.1730   26.2250   43.6700 C   0  0  0  0  0  0  0  0  0  0  0  0
   57.3530   25.5610   44.6930 N   0  0  0  0  0  0  0  0  0  0  0  0
   56.9690   24.1950   44.4600 C   0  0  0  0  0  0  0  0  0  0  0  0
   56.6230   23.7610   43.1680 C   0  0  0  0  0  0  0  0  0  0  0  0
   56.2670   22.4240   42.9440 C   0  0  0  0  0  0  0  0  0  0  0  0
   56.2710   21.5110   44.0010 C   0  0  0  0  0  0  0  0  0  0  0  0
   56.6210   21.9350   45.2870 C   0  0  0  0  0  0  0  0  0  0  0  0
   56.9710   23.2710   45.5160 C   0  0  0  0  0  0  0  0  0  0  0  0
   56.7100   26.3210   45.7420 C   0  0  0  0  0  0  0  0  0  0  0  0
   55.9050   25.7580   46.5310 O   0  0  0  0  0  0  0  0  0  0  0  0
   57.0390   27.7690   45.9670 C   0  0  0  0  0  0  0  0  0  0  0  0
   57.7374   34.5243   47.1248 H   0  0  0  0  0  0  0  0  0  0  0  0
   57.1135   32.8614   47.3924 H   0  0  0  0  0  0  0  0  0  0  0  0
   58.4042   33.9481   49.3479 H   0  0  0  0  0  0  0  0  0  0  0  0
   58.9330   32.2933   48.8219 H   0  0  0  0  0  0  0  0  0  0  0  0
   62.1008   35.5260   49.4817 H   0  0  0  0  0  0  0  0  0  0  0  0
   63.2807   32.9413   47.9149 H   0  0  0  0  0  0  0  0  0  0  0  0
   64.2169   34.1642   47.6941 H   0  0  0  0  0  0  0  0  0  0  0  0
   63.4716   32.7784   50.5176 H   0  0  0  0  0  0  0  0  0  0  0  0
   64.4414   33.9738   50.7492 H   0  0  0  0  0  0  0  0  0  0  0  0
   60.1541   35.3889   46.8982 H   0  0  0  0  0  0  0  0  0  0  0  0
   61.7198   34.5005   46.9820 H   0  0  0  0  0  0  0  0  0  0  0  0
   60.1971   34.0162   44.9463 H   0  0  0  0  0  0  0  0  0  0  0  0
   60.8293   32.5976   45.8763 H   0  0  0  0  0  0  0  0  0  0  0  0
   57.5445   33.5927   43.8483 H   0  0  0  0  0  0  0  0  0  0  0  0
   56.5546   31.9761   42.2300 H   0  0  0  0  0  0  0  0  0  0  0  0
   56.6658   29.5281   42.6777 H   0  0  0  0  0  0  0  0  0  0  0  0
   59.2250   28.0815   43.3424 H   0  0  0  0  0  0  0  0  0  0  0  0
   59.5746   27.2933   44.9175 H   0  0  0  0  0  0  0  0  0  0  0  0
   57.5397   26.4520   42.7997 H   0  0  0  0  0  0  0  0  0  0  0  0
   58.9938   25.5448   43.3986 H   0  0  0  0  0  0  0  0  0  0  0  0
   56.6318   24.4735   42.3300 H   0  0  0  0  0  0  0  0  0  0  0  0
   55.9839   22.0931   41.9339 H   0  0  0  0  0  0  0  0  0  0  0  0
   55.9993   20.4602   43.8223 H   0  0  0  0  0  0  0  0  0  0  0  0
   56.6213   21.2171   46.1204 H   0  0  0  0  0  0  0  0  0  0  0  0
   57.2490   23.5980   46.5288 H   0  0  0  0  0  0  0  0  0  0  0  0
   56.1052   28.3290   46.1228 H   0  0  0  0  0  0  0  0  0  0  0  0
   57.6892   27.8450   46.8510 H   0  0  0  0  0  0  0  0  0  0  0  0
  1  2  3  0
  2  3  1  0
  3  4  2  0
  4  5  1  0
  5  6  1  0
  6  7  1  0
  7  8  1  0
  8  9  1  0
  9 10  2  0
  9 11  1  0
 11 12  1  0
 12 13  1  0
  8 14  1  0
 14 15  1  0
  4 16  1  0
 16 17  2  0
 17 18  1  0
 18 19  2  0
 19 20  1  0
 20 21  1  0
 21 22  1  0
 22 23  1  0
 23 24  1  0
 24 25  2  0
 25 26  1  0
 26 27  2  0
 27 28  1  0
 28 29  2  0
 23 30  1  0
 30 31  2  0
 30 32  1  0
 19  3  1  0
 32 20  1  0
 15  5  1  0
 29 24  1  0
 13 11  1  0
  6 33  1  0
  6 34  1  0
  7 35  1  0
  7 36  1  0
 11 37  1  0
 12 38  1  0
 12 39  1  0
 13 40  1  0
 13 41  1  0
 14 42  1  0
 14 43  1  0
 15 44  1  0
 15 45  1  0
 16 46  1  0
 17 47  1  0
 18 48  1  0
 21 49  1  0
 21 50  1  0
 22 51  1  0
 22 52  1  0
 25 53  1  0
 26 54  1  0
 27 55  1  0
 28 56  1  0
 29 57  1  0
 32 58  1  0
 32 59  1  0
M  END
>  <UniqueID>  (77) 
76

>  <SMILES>  (77) 
N#Cc1c(N2CCN(C(=O)C3CC3)CC2)cccc1N1CCN(c2ccccc2)C(=O)C1

>  <Energy>  (77) 
343.09485651279596

>  <Genealogy>  (77) 
N#Cc1c(N2CCN(C(=O)C3CC3)CC2)cccc1N1CCN(c2ccccc2)C(=O)C1 (3D coordinates assigned)
N#Cc1c(N2CCN(C(=O)C3CC3)CC2)cccc1N1CCN(c2ccccc2)C(=O)C1 (nonaromatic ring conformer: 343.09485651279596 kcal/mol)

>  <smiles>  (77) 
N#Cc1c(N2CCN(C(=O)C3CC3)CC2)cccc1N1CCN(c2ccccc2)C(=O)C1

>  <score_type>  (77) 
oracle

>  <origin>  (77) 
adg

>  <m_score__min__energy>  (77) 
-8.7799999999999994

>  <m_primary>  (77) 
energy

$$$$
77:0
     RDKit          3D

 41 42  0  0  0  0  0  0  0  0999 V2000
   57.5100   32.3480   40.8070 C   0  0  0  0  0  0  0  0  0  0  0  0
   57.3990   31.8310   42.0280 C   0  0  0  0  0  0  0  0  0  0  0  0
   56.6340   30.6820   42.3540 N   0  0  0  0  0  0  0  0  0  0  0  0
   56.7930   30.4840   43.7630 C   0  0  0  0  0  0  0  0  0  0  0  0
   56.1240   29.3590   44.4890 C   0  0  0  0  0  0  0  0  0  0  0  0
   57.5920   31.4160   44.3160 C   0  0  0  0  0  0  0  0  0  0  0  0
   57.9840   31.5380   45.7350 C   0  0  0  0  0  0  0  0  0  0  0  0
   58.7470   30.6710   46.2440 O   0  0  0  0  0  0  0  0  0  0  0  0
   57.5170   32.6040   46.5120 O   0  0  0  0  0  0  0  0  0  0  0  0
   58.3640   33.4190   47.3220 C   0  0  0  0  0  0  0  0  0  0  0  0
   59.6070   33.8340   46.5780 C   0  0  0  0  0  0  0  0  0  0  0  0
   59.5170   34.6880   45.6550 O   0  0  0  0  0  0  0  0  0  0  0  0
   60.8940   33.2610   46.9000 N   0  0  0  0  0  0  0  0  0  0  0  0
   60.9860   32.0550   47.7420 C   0  0  0  0  0  0  0  0  0  0  0  0
   62.3510   31.3710   47.5960 C   0  0  0  0  0  0  0  0  0  0  0  0
   63.5340   32.3370   47.8510 C   0  0  0  0  0  0  0  0  0  0  0  0
   63.9670   32.3030   49.3240 C   0  0  0  0  0  0  0  0  0  0  0  0
   63.2390   33.7910   47.4040 C   0  0  0  0  0  0  0  0  0  0  0  0
   62.1230   33.8620   46.3580 C   0  0  0  0  0  0  0  0  0  0  0  0
   58.0160   32.3180   43.2440 C   0  0  0  0  0  0  0  0  0  0  0  0
   58.7700   33.3200   43.3560 O   0  0  0  0  0  0  0  0  0  0  0  0
   58.1264   33.2442   40.6432 H   0  0  0  0  0  0  0  0  0  0  0  0
   56.9854   31.8792   39.9614 H   0  0  0  0  0  0  0  0  0  0  0  0
   56.0650   30.0990   41.6990 H   0  0  0  0  0  0  0  0  0  0  0  0
   56.2172   29.5158   45.5738 H   0  0  0  0  0  0  0  0  0  0  0  0
   55.0596   29.3263   44.2134 H   0  0  0  0  0  0  0  0  0  0  0  0
   56.6035   28.4082   44.2134 H   0  0  0  0  0  0  0  0  0  0  0  0
   57.8104   34.3204   47.6239 H   0  0  0  0  0  0  0  0  0  0  0  0
   58.6679   32.8331   48.2019 H   0  0  0  0  0  0  0  0  0  0  0  0
   60.8403   32.3415   48.7940 H   0  0  0  0  0  0  0  0  0  0  0  0
   60.2087   31.3474   47.4179 H   0  0  0  0  0  0  0  0  0  0  0  0
   62.4095   30.5444   48.3194 H   0  0  0  0  0  0  0  0  0  0  0  0
   62.4332   31.0114   46.5597 H   0  0  0  0  0  0  0  0  0  0  0  0
   64.3643   31.9760   47.2262 H   0  0  0  0  0  0  0  0  0  0  0  0
   63.0787   32.3728   49.9690 H   0  0  0  0  0  0  0  0  0  0  0  0
   64.4959   31.3606   49.5290 H   0  0  0  0  0  0  0  0  0  0  0  0
   64.6365   33.1513   49.5290 H   0  0  0  0  0  0  0  0  0  0  0  0
   62.9367   34.3773   48.2843 H   0  0  0  0  0  0  0  0  0  0  0  0
   64.1545   34.1951   46.9474 H   0  0  0  0  0  0  0  0  0  0  0  0
   61.9317   34.9137   46.0986 H   0  0  0  0  0  0  0  0  0  0  0  0
   62.4320   33.3092   45.4586 H   0  0  0  0  0  0  0  0  0  0  0  0
  1  2  2  0
  2  3  1  0
  3  4  1  0
  4  5  1  0
  4  6  2  0
  6  7  1  0
  7  8  2  0
  7  9  1  0
  9 10  1  0
 10 11  1  0
 11 12  2  0
 11 13  1  0
 13 14  1  0
 14 15  1  0
 15 16  1  0
 16 17  1  0
 16 18  1  0
 18 19  1  0
  6 20  1  0
 20 21  2  0
 20  2  1  0
 19 13  1  0
  1 22  1  0
  1 23  1  0
  3 24  1  0
  5 25  1  0
  5 26  1  0
  5 27  1  0
 10 28  1  0
 10 29  1  0
 14 30  1  0
 14 31  1  0
 15 32  1  0
 15 33  1  0
 16 34  1  0
 17 35  1  0
 17 36  1  0
 17 37  1  0
 18 38  1  0
 18 39  1  0
 19 40  1  0
 19 41  1  0
M  END
>  <UniqueID>  (78) 
77

>  <SMILES>  (78) 
C=C1NC(C)=C(C(=O)OCC(=O)N2CCC(C)CC2)C1=O

>  <Energy>  (78) 
63.32880744450636

>  <Genealogy>  (78) 
C=C1NC(C)=C(C(=O)OCC(=O)N2CCC(C)CC2)C1=O (3D coordinates assigned)
C=C1NC(C)=C(C(=O)OCC(=O)N2CCC(C)CC2)C1=O (nonaromatic ring conformer: 63.32880744450636 kcal/mol)

>  <smiles>  (78) 
C=C1NC(C)=C(C(=O)OCC(=O)N2CCC(C)CC2)C1=O

>  <score_type>  (78) 
oracle

>  <origin>  (78) 
adg

>  <m_score__min__energy>  (78) 
-7.9500000000000002

>  <m_primary>  (78) 
energy

$$$$
78:0
     RDKit          3D

 55 57  0  0  0  0  0  0  0  0999 V2000
   63.9263   31.8739   47.5081 H   0  0  0  0  0  0  0  0  0  0  0  0
   62.8870   32.1830   47.3230 C   0  0  0  0  0  0  0  0  0  0  0  0
   62.6120   33.4870   46.9100 C   0  0  0  0  0  0  0  0  0  0  0  0
   63.4349   34.2025   46.7653 H   0  0  0  0  0  0  0  0  0  0  0  0
   61.2930   33.8850   46.6800 C   0  0  0  0  0  0  0  0  0  0  0  0
   61.0820   34.9125   46.3489 H   0  0  0  0  0  0  0  0  0  0  0  0
   60.2340   32.9810   46.8690 C   0  0  0  0  0  0  0  0  0  0  0  0
   58.8170   33.4230   46.6060 C   0  0  0  0  0  0  0  0  0  0  0  0
   58.1793   32.5369   46.4714 H   0  0  0  0  0  0  0  0  0  0  0  0
   58.4616   34.0156   47.4619 H   0  0  0  0  0  0  0  0  0  0  0  0
   58.7580   34.2710   45.3640 C   0  0  0  0  0  0  0  0  0  0  0  0
   59.2630   35.4240   45.3850 O   0  0  0  0  0  0  0  0  0  0  0  0
   58.2610   33.7530   44.1220 N   0  0  0  0  0  0  0  0  0  0  0  0
   57.8500   32.5360   43.9050 C   0  0  0  0  0  0  0  0  0  0  0  0
   57.3490   31.6450   44.8390 C   0  0  0  0  0  0  0  0  0  0  0  0
   57.2573   31.7798   45.9269 H   0  0  0  0  0  0  0  0  0  0  0  0
   56.9900   30.5420   44.0780 C   0  0  0  0  0  0  0  0  0  0  0  0
   56.3450   29.3090   44.5670 C   0  0  0  0  0  0  0  0  0  0  0  0
   55.2250   29.4050   45.1420 O   0  0  0  0  0  0  0  0  0  0  0  0
   57.0200   28.0270   44.4850 N   0  0  2  0  0  0  0  0  0  0  0  0
   56.6750   27.5100   43.6430 H   0  0  0  0  0  0  0  0  0  0  0  0
   56.7800   27.1720   45.6660 C   0  0  0  0  0  0  0  0  0  0  0  0
   56.0600   27.6580   46.3408 H   0  0  0  0  0  0  0  0  0  0  0  0
   56.3646   26.2001   45.3613 H   0  0  0  0  0  0  0  0  0  0  0  0
   58.1090   26.9850   46.3750 C   0  0  0  0  0  0  0  0  0  0  0  0
   58.2356   27.7349   47.1697 H   0  0  0  0  0  0  0  0  0  0  0  0
   58.1902   26.0028   46.8636 H   0  0  0  0  0  0  0  0  0  0  0  0
   59.1490   27.1780   45.2810 C   0  0  2  0  0  0  0  0  0  0  0  0
   59.4106   26.2444   44.7614 H   0  0  0  0  0  0  0  0  0  0  0  0
   60.4560   27.6500   45.8120 N   0  0  0  0  0  0  0  0  0  0  0  0
   60.4070   27.7800   47.2810 C   0  0  0  0  0  0  0  0  0  0  0  0
   60.7590   26.8462   47.7437 H   0  0  0  0  0  0  0  0  0  0  0  0
   61.0532   28.6121   47.5972 H   0  0  0  0  0  0  0  0  0  0  0  0
   59.3723   27.9786   47.5972 H   0  0  0  0  0  0  0  0  0  0  0  0
   60.8140   28.9610   45.2390 C   0  0  0  0  0  0  0  0  0  0  0  0
   61.0091   29.6756   46.0522 H   0  0  0  0  0  0  0  0  0  0  0  0
   61.7164   28.8560   44.6187 H   0  0  0  0  0  0  0  0  0  0  0  0
   59.9835   29.3292   44.6187 H   0  0  0  0  0  0  0  0  0  0  0  0
   58.4790   28.2110   44.3710 C   0  0  0  0  0  0  0  0  0  0  0  0
   58.7549   29.2269   44.6902 H   0  0  0  0  0  0  0  0  0  0  0  0
   58.8048   28.0766   43.3290 H   0  0  0  0  0  0  0  0  0  0  0  0
   57.2500   30.7750   42.7730 N   0  0  0  0  0  0  0  0  0  0  0  0
   57.7850   31.9820   42.6800 N   0  0  0  0  0  0  0  0  0  0  0  0
   58.1340   32.6170   41.4140 C   0  0  0  0  0  0  0  0  0  0  0  0
   58.6553   33.5654   41.6109 H   0  0  0  0  0  0  0  0  0  0  0  0
   58.7921   31.9496   40.8382 H   0  0  0  0  0  0  0  0  0  0  0  0
   57.2179   32.8148   40.8382 H   0  0  0  0  0  0  0  0  0  0  0  0
   60.5100   31.6560   47.2720 C   0  0  0  0  0  0  0  0  0  0  0  0
   59.4400   30.7580   47.4300 O   0  0  0  0  0  0  0  0  0  0  0  0
   58.8980   30.3580   48.6830 C   0  0  0  0  0  0  0  0  0  0  0  0
   59.4933   30.7973   49.4970 H   0  0  0  0  0  0  0  0  0  0  0  0
   57.8575   30.7063   48.7604 H   0  0  0  0  0  0  0  0  0  0  0  0
   58.9241   29.2610   48.7604 H   0  0  0  0  0  0  0  0  0  0  0  0
   61.8460   31.2690   47.5020 C   0  0  0  0  0  0  0  0  0  0  0  0
   62.0699   30.2414   47.8243 H   0  0  0  0  0  0  0  0  0  0  0  0
  1  2  1  0
  2  3  2  0
  3  4  1  0
  3  5  1  0
  5  6  1  0
  5  7  2  0
  7  8  1  0
  8  9  1  0
  8 10  1  0
  8 11  1  0
 11 12  2  0
 11 13  1  0
 13 14  2  0
 14 15  1  0
 15 16  1  0
 15 17  2  0
 17 18  1  0
 18 19  2  0
 18 20  1  0
 20 21  1  6
 20 22  1  0
 22 23  1  0
 22 24  1  0
 22 25  1  0
 25 26  1  0
 25 27  1  0
 25 28  1  0
 28 29  1  6
 28 30  1  0
 30 31  1  0
 31 32  1  0
 31 33  1  0
 31 34  1  0
 30 35  1  0
 35 36  1  0
 35 37  1  0
 35 38  1  0
 28 39  1  0
 39 40  1  0
 39 41  1  0
 17 42  1  0
 42 43  1  0
 43 44  1  0
 44 45  1  0
 44 46  1  0
 44 47  1  0
  7 48  1  0
 48 49  1  0
 49 50  1  0
 50 51  1  0
 50 52  1  0
 50 53  1  0
 48 54  2  0
 54 55  1  0
 54  2  1  0
 43 14  1  0
 39 20  1  0
M  CHG  2  20   1  42  -1
M  END
>  <UniqueID>  (79) 
78

>  <SMILES>  (79) 
COc1ccccc1CC(=O)/N=c1\cc(C(=O)[N@@H+]2CC[C@H](N(C)C)C2)[n-]n1C

>  <Energy>  (79) 
99.60466723339559

>  <Genealogy>  (79) 
COc1ccccc1CC(=O)N=c1cc(C(=O)[NH+]2CCC(N(C)C)C2)[n-]n1C (protonated)
COc1ccccc1CC(=O)N=c1cc(C(=O)[N@@H+]2CC[C@H](N(C)C)C2)[n-]n1C (chirality)
COc1ccccc1CC(=O)/N=c1\cc(C(=O)[N@@H+]2CC[C@H](N(C)C)C2)[n-]n1C (cis-trans isomerization)
COc1ccccc1CC(=O)/N=c1\cc(C(=O)[N@@H+]2CC[C@H](N(C)C)C2)[n-]n1C (3D coordinates assigned)
COc1ccccc1CC(=O)/N=c1\cc(C(=O)[N@@H+]2CC[C@H](N(C)C)C2)[n-]n1C (nonaromatic ring conformer: 99.60466723339559 kcal/mol)

>  <smiles>  (79) 
COc1ccccc1CC(=O)N=c1cc(C(=O)N2CCC(N(C)C)C2)[nH]n1C

>  <score_type>  (79) 
oracle

>  <origin>  (79) 
adg

>  <m_score__min__energy>  (79) 
-8.0999999999999996

>  <m_primary>  (79) 
energy

$$$$
79:0
     RDKit          3D

 32 33  0  0  0  0  0  0  0  0999 V2000
   57.3880   28.2160   53.9510 H   0  0  0  0  0  0  0  0  0  0  0  0
   56.8120   28.2020   53.1210 O   0  0  0  0  0  0  0  0  0  0  0  0
   56.0060   29.2770   52.7460 C   0  0  0  0  0  0  0  0  0  0  0  0
   54.6310   29.4060   52.9730 C   0  0  0  0  0  0  0  0  0  0  0  0
   53.7010   28.3950   53.6860 C   0  0  0  0  0  0  0  0  0  0  0  0
   52.3400   28.3140   52.9600 C   0  0  0  0  0  0  0  0  0  0  0  0
   51.5304   28.2658   53.7031 H   0  0  0  0  0  0  0  0  0  0  0  0
   52.2069   29.2058   52.3300 H   0  0  0  0  0  0  0  0  0  0  0  0
   52.3136   27.4127   52.3300 H   0  0  0  0  0  0  0  0  0  0  0  0
   53.5070   28.7980   55.1650 C   0  0  0  0  0  0  0  0  0  0  0  0
   53.8915   27.9992   55.8162 H   0  0  0  0  0  0  0  0  0  0  0  0
   54.0549   29.7304   55.3659 H   0  0  0  0  0  0  0  0  0  0  0  0
   52.4364   28.9513   55.3659 H   0  0  0  0  0  0  0  0  0  0  0  0
   54.2890   26.9640   53.6900 C   0  0  0  0  0  0  0  0  0  0  0  0
   54.4273   26.6273   54.7280 H   0  0  0  0  0  0  0  0  0  0  0  0
   53.5981   26.2823   53.1724 H   0  0  0  0  0  0  0  0  0  0  0  0
   55.2596   26.9650   53.1724 H   0  0  0  0  0  0  0  0  0  0  0  0
   54.3100   30.6610   52.4030 C   0  0  0  0  0  0  0  0  0  0  0  0
   53.1020   31.2540   52.3580 C   0  0  0  0  0  0  0  0  0  0  0  0
   52.7316   31.7436   53.2707 H   0  0  0  0  0  0  0  0  0  0  0  0
   52.2430   31.2860   51.1530 C   0  0  0  0  0  0  0  0  0  0  0  0
   52.2400   30.3670   50.1680 N   0  0  0  0  0  0  0  0  0  0  0  0
   51.3040   30.8300   49.3110 C   0  0  0  0  0  0  0  0  0  0  0  0
   51.0080   30.2310   48.2440 O   0  0  0  0  0  0  0  0  0  0  0  0
   50.7120   31.9830   49.6860 N   0  0  0  0  0  0  0  0  0  0  0  0
   51.3180   32.2570   50.8530 C   0  0  0  0  0  0  0  0  0  0  0  0
   51.0300   33.3740   51.6290 O   0  0  0  0  0  0  0  0  0  0  0  0
   55.4060   31.2450   51.8710 N   0  0  0  0  0  0  0  0  0  0  0  0
   56.4330   30.4080   52.0780 C   0  0  0  0  0  0  0  0  0  0  0  0
   57.6730   30.6800   51.6750 C   0  0  0  0  0  0  0  0  0  0  0  0
   58.4838   29.9620   51.8675 H   0  0  0  0  0  0  0  0  0  0  0  0
   57.8863   31.6226   51.1496 H   0  0  0  0  0  0  0  0  0  0  0  0
  1  2  1  0
  2  3  1  0
  3  4  2  0
  4  5  1  0
  5  6  1  0
  6  7  1  0
  6  8  1  0
  6  9  1  0
  5 10  1  0
 10 11  1  0
 10 12  1  0
 10 13  1  0
  5 14  1  0
 14 15  1  0
 14 16  1  0
 14 17  1  0
  4 18  1  0
 18 19  2  0
 19 20  1  0
 19 21  1  0
 21 22  1  0
 22 23  1  0
 23 24  2  0
 23 25  1  0
 25 26  1  0
 26 27  1  0
 18 28  1  0
 28 29  1  0
 29 30  2  0
 30 31  1  0
 30 32  1  0
 29  3  1  0
 26 21  2  0
M  CHG  4  22  -1  25  -1  27  -1  28  -1
M  END
>  <UniqueID>  (80) 
79

>  <SMILES>  (80) 
C=c1[n-]/c(=C\c2[n-]c(=O)[n-]c2[O-])c(C(C)(C)C)c1O

>  <Energy>  (80) 
93.48941690396438

>  <Genealogy>  (80) 
C=c1[n-]c(=Cc2[n-]c(=O)[n-]c2[O-])c(C(C)(C)C)c1O (protonated)
C=c1[n-]/c(=C\c2[n-]c(=O)[n-]c2[O-])c(C(C)(C)C)c1O (cis-trans isomerization)
C=c1[n-]/c(=C\c2[n-]c(=O)[n-]c2[O-])c(C(C)(C)C)c1O (3D coordinates assigned)
C=c1[n-]/c(=C\c2[n-]c(=O)[n-]c2[O-])c(C(C)(C)C)c1O (optimized conformer: 93.48941690396438 kcal/mol)

>  <smiles>  (80) 
C=c1[nH]c(=Cc2[nH]c(=O)[nH]c2O)c(C(C)(C)C)c1O

>  <score_type>  (80) 
oracle

>  <origin>  (80) 
adg

>  <m_score__min__energy>  (80) 
-15.83

>  <m_primary>  (80) 
energy

$$$$
80:0
     RDKit          3D

 55 58  0  0  0  0  0  0  0  0999 V2000
   59.5140   34.9560   48.1240 O   0  0  0  0  0  0  0  0  0  0  0  0
   60.1890   34.2230   48.8910 C   0  0  0  0  0  0  0  0  0  0  0  0
   59.6440   33.7990   50.1490 N   0  0  0  0  0  0  0  0  0  0  0  0
   59.2950   32.4510   50.5050 C   0  0  0  0  0  0  0  0  0  0  0  0
   58.1030   32.2260   51.1940 C   0  0  0  0  0  0  0  0  0  0  0  0
   57.6700   30.9260   51.4510 C   0  0  0  0  0  0  0  0  0  0  0  0
   58.4110   29.8340   50.9890 C   0  0  0  0  0  0  0  0  0  0  0  0
   59.5960   30.0360   50.2650 C   0  0  0  0  0  0  0  0  0  0  0  0
   60.3390   28.8570   49.6820 C   0  0  0  0  0  0  0  0  0  0  0  0
   60.5190   28.9170   48.1530 C   0  0  0  0  0  0  0  0  0  0  0  0
   59.9250   27.7470   47.4570 N   0  0  0  0  0  0  0  0  0  0  0  0
   60.3950   27.6390   46.0600 C   0  0  0  0  0  0  0  0  0  0  0  0
   59.9920   28.8650   45.2170 C   0  0  0  0  0  0  0  0  0  0  0  0
   58.7490   29.4680   45.7180 N   0  0  0  0  0  0  0  0  0  0  0  0
   58.4680   30.8670   45.4830 C   0  0  0  0  0  0  0  0  0  0  0  0
   59.3160   31.8490   46.0280 C   0  0  0  0  0  0  0  0  0  0  0  0
   59.0260   33.2070   45.8800 C   0  0  0  0  0  0  0  0  0  0  0  0
   57.8760   33.6060   45.2000 C   0  0  0  0  0  0  0  0  0  0  0  0
   57.0160   32.6480   44.6650 C   0  0  0  0  0  0  0  0  0  0  0  0
   57.3090   31.2790   44.7840 C   0  0  0  0  0  0  0  0  0  0  0  0
   56.4460   30.3260   44.1540 N   0  0  0  0  0  0  0  0  0  0  0  0
   56.6670   29.9550   42.9790 O   0  0  0  0  0  0  0  0  0  0  0  0
   55.4370   29.7340   44.8720 O   0  0  0  0  0  0  0  0  0  0  0  0
   57.7750   28.6250   46.4220 C   0  0  0  0  0  0  0  0  0  0  0  0
   58.4430   27.7260   47.4870 C   0  0  0  0  0  0  0  0  0  0  0  0
   60.0580   31.3510   50.0670 C   0  0  0  0  0  0  0  0  0  0  0  0
   61.5470   33.7990   48.4970 C   0  0  0  0  0  0  0  0  0  0  0  0
   62.5140   33.4620   49.4590 C   0  0  0  0  0  0  0  0  0  0  0  0
   63.7740   33.1460   49.0750 N   0  0  0  0  0  0  0  0  0  0  0  0
   64.1210   33.1480   47.7640 C   0  0  0  0  0  0  0  0  0  0  0  0
   63.2030   33.4680   46.8170 N   0  0  0  0  0  0  0  0  0  0  0  0
   61.9310   33.7830   47.1530 C   0  0  0  0  0  0  0  0  0  0  0  0
   57.5006   33.0802   51.5368 H   0  0  0  0  0  0  0  0  0  0  0  0
   56.7428   30.7589   52.0188 H   0  0  0  0  0  0  0  0  0  0  0  0
   58.0631   28.8108   51.1942 H   0  0  0  0  0  0  0  0  0  0  0  0
   61.3358   28.8142   50.1452 H   0  0  0  0  0  0  0  0  0  0  0  0
   59.7317   27.9646   49.8939 H   0  0  0  0  0  0  0  0  0  0  0  0
   60.0361   29.8314   47.7779 H   0  0  0  0  0  0  0  0  0  0  0  0
   61.5994   28.9118   47.9463 H   0  0  0  0  0  0  0  0  0  0  0  0
   61.4917   27.5535   46.0602 H   0  0  0  0  0  0  0  0  0  0  0  0
   59.9259   26.7505   45.6122 H   0  0  0  0  0  0  0  0  0  0  0  0
   60.7976   29.6126   45.2628 H   0  0  0  0  0  0  0  0  0  0  0  0
   59.8270   28.5363   44.1803 H   0  0  0  0  0  0  0  0  0  0  0  0
   60.2185   31.5431   46.5774 H   0  0  0  0  0  0  0  0  0  0  0  0
   59.7057   33.9628   46.3004 H   0  0  0  0  0  0  0  0  0  0  0  0
   57.6475   34.6759   45.0857 H   0  0  0  0  0  0  0  0  0  0  0  0
   56.1003   32.9666   44.1453 H   0  0  0  0  0  0  0  0  0  0  0  0
   57.0380   29.2738   46.9179 H   0  0  0  0  0  0  0  0  0  0  0  0
   57.2962   27.9699   45.6793 H   0  0  0  0  0  0  0  0  0  0  0  0
   58.1132   28.0646   48.4803 H   0  0  0  0  0  0  0  0  0  0  0  0
   58.1370   26.6929   47.2656 H   0  0  0  0  0  0  0  0  0  0  0  0
   61.0226   31.5208   49.5662 H   0  0  0  0  0  0  0  0  0  0  0  0
   62.2473   33.4548   50.5262 H   0  0  0  0  0  0  0  0  0  0  0  0
   65.1484   32.8898   47.4676 H   0  0  0  0  0  0  0  0  0  0  0  0
   61.1991   34.0265   46.3688 H   0  0  0  0  0  0  0  0  0  0  0  0
  1  2  2  0
  2  3  1  0
  3  4  1  0
  4  5  2  0
  5  6  1  0
  6  7  2  0
  7  8  1  0
  8  9  1  0
  9 10  1  0
 10 11  1  0
 11 12  1  0
 12 13  1  0
 13 14  1  0
 14 15  1  0
 15 16  2  0
 16 17  1  0
 17 18  2  0
 18 19  1  0
 19 20  2  0
 20 21  1  0
 21 22  2  0
 21 23  1  0
 14 24  1  0
 24 25  1  0
  8 26  2  0
  2 27  1  0
 27 28  2  0
 28 29  1  0
 29 30  2  0
 30 31  1  0
 31 32  2  0
 26  4  1  0
 32 27  1  0
 25 11  1  0
 20 15  1  0
  5 33  1  0
  6 34  1  0
  7 35  1  0
  9 36  1  0
  9 37  1  0
 10 38  1  0
 10 39  1  0
 12 40  1  0
 12 41  1  0
 13 42  1  0
 13 43  1  0
 16 44  1  0
 17 45  1  0
 18 46  1  0
 19 47  1  0
 24 48  1  0
 24 49  1  0
 25 50  1  0
 25 51  1  0
 26 52  1  0
 28 53  1  0
 30 54  1  0
 32 55  1  0
M  CHG  3   3  -1  21   1  23  -1
M  END
>  <UniqueID>  (81) 
80

>  <SMILES>  (81) 
O=C([N-]c1cccc(CCN2CCN(c3ccccc3[N+](=O)[O-])CC2)c1)c1cncnc1

>  <Energy>  (81) 
83.5421214864724

>  <Genealogy>  (81) 
O=C([N-]c1cccc(CCN2CCN(c3ccccc3[N+](=O)[O-])CC2)c1)c1cncnc1 (protonated)
O=C([N-]c1cccc(CCN2CCN(c3ccccc3[N+](=O)[O-])CC2)c1)c1cncnc1 (3D coordinates assigned)
O=C([N-]c1cccc(CCN2CCN(c3ccccc3[N+](=O)[O-])CC2)c1)c1cncnc1 (nonaromatic ring conformer: 83.5421214864724 kcal/mol)

>  <smiles>  (81) 
O=C(Nc1cccc(CCN2CCN(c3ccccc3[N+](=O)[O-])CC2)c1)c1cncnc1

>  <score_type>  (81) 
oracle

>  <origin>  (81) 
adg

>  <m_score__min__energy>  (81) 
-11.449999999999999

>  <m_primary>  (81) 
energy

$$$$
81:0
     RDKit          3D

 73 77  0  0  0  0  0  0  0  0999 V2000
   55.6180   27.0580   45.7230 N   0  0  0  0  0  0  0  0  0  0  0  0
   57.2490   27.6280   45.6710 S   0  0  0  0  0  0  0  0  0  0  0  0
   57.7080   27.8470   47.0840 O   0  0  0  0  0  0  0  0  0  0  0  0
   58.1290   26.5960   45.0270 O   0  0  0  0  0  0  0  0  0  0  0  0
   57.3520   29.1510   44.7670 C   0  0  0  0  0  0  0  0  0  0  0  0
   56.5590   29.2940   43.6170 C   0  0  0  0  0  0  0  0  0  0  0  0
   56.6500   30.4400   42.8240 C   0  0  0  0  0  0  0  0  0  0  0  0
   57.5370   31.4580   43.1690 C   0  0  0  0  0  0  0  0  0  0  0  0
   58.3210   31.3420   44.3180 C   0  0  0  0  0  0  0  0  0  0  0  0
   58.2290   30.2040   45.1390 C   0  0  0  0  0  0  0  0  0  0  0  0
   59.0550   30.1600   46.3670 C   0  0  0  0  0  0  0  0  0  0  0  0
   58.5070   30.5080   47.6110 C   0  0  0  0  0  0  0  0  0  0  0  0
   59.2930   30.4660   48.7640 C   0  0  0  0  0  0  0  0  0  0  0  0
   60.6510   30.1280   48.6890 C   0  0  0  0  0  0  0  0  0  0  0  0
   61.4290   30.0910   49.8960 N   0  0  0  0  0  0  0  0  0  0  0  0
   61.6730   31.2310   50.7350 C   0  0  0  0  0  0  0  0  0  0  0  0
   61.0290   32.3030   50.5640 O   0  0  0  0  0  0  0  0  0  0  0  0
   62.6460   31.1360   51.8740 C   0  0  0  0  0  0  0  0  0  0  0  0
   63.2330   32.4930   52.1930 C   0  0  0  0  0  0  0  0  0  0  0  0
   63.2200   32.9440   53.5260 C   0  0  0  0  0  0  0  0  0  0  0  0
   63.7820   34.1750   53.8680 C   0  0  0  0  0  0  0  0  0  0  0  0
   64.3690   34.9740   52.8850 C   0  0  0  0  0  0  0  0  0  0  0  0
   64.9110   36.1710   53.2190 F   0  0  0  0  0  0  0  0  0  0  0  0
   64.4000   34.5390   51.5590 C   0  0  0  0  0  0  0  0  0  0  0  0
   63.8510   33.2970   51.2020 C   0  0  0  0  0  0  0  0  0  0  0  0
   63.9130   32.8830   49.7850 C   0  0  0  0  0  0  0  0  0  0  0  0
   64.7710   32.0200   49.4520 O   0  0  0  0  0  0  0  0  0  0  0  0
   62.9920   33.3960   48.7950 N   0  0  0  0  0  0  0  0  0  0  0  0
   62.1730   34.5900   49.0340 C   0  0  0  0  0  0  0  0  0  0  0  0
   60.7880   34.3560   48.4390 C   0  0  0  0  0  0  0  0  0  0  0  0
   60.8650   34.1990   46.9740 N   0  0  0  0  0  0  0  0  0  0  0  0
   59.5780   33.7620   46.3750 C   0  0  0  0  0  0  0  0  0  0  0  0
   59.2400   34.4820   45.0420 C   0  0  0  0  0  0  0  0  0  0  0  0
   57.7230   34.6470   44.8710 C   0  0  0  0  0  0  0  0  0  0  0  0
   57.0560   33.4950   45.3490 O   0  0  0  0  0  0  0  0  0  0  0  0
   57.0740   33.4600   46.7710 C   0  0  0  0  0  0  0  0  0  0  0  0
   58.4290   33.8690   47.3980 C   0  0  0  0  0  0  0  0  0  0  0  0
   62.0910   33.5300   46.4570 C   0  0  0  0  0  0  0  0  0  0  0  0
   62.8650   32.7010   47.5070 C   0  0  0  0  0  0  0  0  0  0  0  0
   61.2030   29.7850   47.4430 C   0  0  0  0  0  0  0  0  0  0  0  0
   60.4100   29.8060   46.2910 C   0  0  0  0  0  0  0  0  0  0  0  0
   55.1360   27.4330   44.8750 H   0  0  0  0  0  0  0  0  0  0  0  0
   55.8578   28.4939   43.3374 H   0  0  0  0  0  0  0  0  0  0  0  0
   56.0213   30.5391   41.9268 H   0  0  0  0  0  0  0  0  0  0  0  0
   57.6193   32.3535   42.5355 H   0  0  0  0  0  0  0  0  0  0  0  0
   59.0186   32.1498   44.5843 H   0  0  0  0  0  0  0  0  0  0  0  0
   57.4530   30.8154   47.6780 H   0  0  0  0  0  0  0  0  0  0  0  0
   58.8425   30.7002   49.7398 H   0  0  0  0  0  0  0  0  0  0  0  0
   61.7800   29.1590   50.2160 H   0  0  0  0  0  0  0  0  0  0  0  0
   62.1246   30.7506   52.7626 H   0  0  0  0  0  0  0  0  0  0  0  0
   63.4623   30.4576   51.5850 H   0  0  0  0  0  0  0  0  0  0  0  0
   62.7619   32.3195   54.3071 H   0  0  0  0  0  0  0  0  0  0  0  0
   63.7624   34.5161   54.9136 H   0  0  0  0  0  0  0  0  0  0  0  0
   64.8585   35.1747   50.7871 H   0  0  0  0  0  0  0  0  0  0  0  0
   62.0863   34.7697   50.1158 H   0  0  0  0  0  0  0  0  0  0  0  0
   62.6410   35.4675   48.5640 H   0  0  0  0  0  0  0  0  0  0  0  0
   60.3571   33.4436   48.8770 H   0  0  0  0  0  0  0  0  0  0  0  0
   60.1555   35.2267   48.6668 H   0  0  0  0  0  0  0  0  0  0  0  0
   59.7014   32.7019   46.1086 H   0  0  0  0  0  0  0  0  0  0  0  0
   59.7117   35.4757   45.0410 H   0  0  0  0  0  0  0  0  0  0  0  0
   59.6207   33.8720   44.2096 H   0  0  0  0  0  0  0  0  0  0  0  0
   57.3854   35.5261   45.4396 H   0  0  0  0  0  0  0  0  0  0  0  0
   57.4917   34.7826   43.8042 H   0  0  0  0  0  0  0  0  0  0  0  0
   56.3001   34.1475   47.1430 H   0  0  0  0  0  0  0  0  0  0  0  0
   56.8922   32.4155   47.0641 H   0  0  0  0  0  0  0  0  0  0  0  0
   58.3604   34.9083   47.7517 H   0  0  0  0  0  0  0  0  0  0  0  0
   58.6442   33.1858   48.2328 H   0  0  0  0  0  0  0  0  0  0  0  0
   61.7951   32.8567   45.6390 H   0  0  0  0  0  0  0  0  0  0  0  0
   62.7698   34.3324   46.1324 H   0  0  0  0  0  0  0  0  0  0  0  0
   62.3318   31.7527   47.6696 H   0  0  0  0  0  0  0  0  0  0  0  0
   63.8801   32.5346   47.1172 H   0  0  0  0  0  0  0  0  0  0  0  0
   62.2629   29.4989   47.3734 H   0  0  0  0  0  0  0  0  0  0  0  0
   60.8521   29.5431   45.3187 H   0  0  0  0  0  0  0  0  0  0  0  0
  1  2  1  0
  2  3  2  0
  2  4  2  0
  2  5  1  0
  5  6  2  0
  6  7  1  0
  7  8  2  0
  8  9  1  0
  9 10  2  0
 10 11  1  0
 11 12  2  0
 12 13  1  0
 13 14  2  0
 14 15  1  0
 15 16  1  0
 16 17  2  0
 16 18  1  0
 18 19  1  0
 19 20  2  0
 20 21  1  0
 21 22  2  0
 22 23  1  0
 22 24  1  0
 24 25  2  0
 25 26  1  0
 26 27  2  0
 26 28  1  0
 28 29  1  0
 29 30  1  0
 30 31  1  0
 31 32  1  0
 32 33  1  0
 33 34  1  0
 34 35  1  0
 35 36  1  0
 36 37  1  0
 31 38  1  0
 38 39  1  0
 14 40  1  0
 40 41  2  0
 10  5  1  0
 41 11  1  0
 25 19  1  0
 39 28  1  0
 37 32  1  0
  1 42  1  0
  6 43  1  0
  7 44  1  0
  8 45  1  0
  9 46  1  0
 12 47  1  0
 13 48  1  0
 15 49  1  0
 18 50  1  0
 18 51  1  0
 20 52  1  0
 21 53  1  0
 24 54  1  0
 29 55  1  0
 29 56  1  0
 30 57  1  0
 30 58  1  0
 32 59  1  0
 33 60  1  0
 33 61  1  0
 34 62  1  0
 34 63  1  0
 36 64  1  0
 36 65  1  0
 37 66  1  0
 37 67  1  0
 38 68  1  0
 38 69  1  0
 39 70  1  0
 39 71  1  0
 40 72  1  0
 41 73  1  0
M  CHG  1   1  -1
M  END
>  <UniqueID>  (82) 
81

>  <SMILES>  (82) 
[NH-]S(=O)(=O)c1ccccc1-c1ccc(NC(=O)Cc2ccc(F)cc2C(=O)N2CCN(C3CCOCC3)CC2)cc1

>  <Energy>  (82) 
113.08357228617915

>  <Genealogy>  (82) 
[NH-]S(=O)(=O)c1ccccc1-c1ccc(NC(=O)Cc2ccc(F)cc2C(=O)N2CCN(C3CCOCC3)CC2)cc1 (protonated)
[NH-]S(=O)(=O)c1ccccc1-c1ccc(NC(=O)Cc2ccc(F)cc2C(=O)N2CCN(C3CCOCC3)CC2)cc1 (3D coordinates assigned)
[NH-]S(=O)(=O)c1ccccc1-c1ccc(NC(=O)Cc2ccc(F)cc2C(=O)N2CCN(C3CCOCC3)CC2)cc1 (nonaromatic ring conformer: 113.08357228617915 kcal/mol)

>  <smiles>  (82) 
NS(=O)(=O)c1ccccc1-c1ccc(NC(=O)Cc2ccc(F)cc2C(=O)N2CCN(C3CCOCC3)CC2)cc1

>  <score_type>  (82) 
oracle

>  <origin>  (82) 
adg

>  <m_score__min__energy>  (82) 
-13.81

>  <m_primary>  (82) 
energy

$$$$
82:0
     RDKit          3D

 85 90  0  0  0  0  0  0  0  0999 V2000
   55.6600   30.4140   44.1770 C   0  0  0  0  0  0  0  0  0  0  0  0
   56.6780   29.6300   44.5330 C   0  0  0  0  0  0  0  0  0  0  0  0
   56.5400   28.3170   44.7830 N   0  0  0  0  0  0  0  0  0  0  0  0
   57.7540   27.8660   45.1600 C   0  0  0  0  0  0  0  0  0  0  0  0
   57.9110   26.6220   45.6440 C   0  0  0  0  0  0  0  0  0  0  0  0
   56.9960   25.4840   45.4260 C   0  0  0  0  0  0  0  0  0  0  0  0
   57.3660   24.3800   44.7390 N   0  0  0  0  0  0  0  0  0  0  0  0
   56.2240   23.6620   44.6400 C   0  0  0  0  0  0  0  0  0  0  0  0
   56.1730   22.5400   44.0760 O   0  0  0  0  0  0  0  0  0  0  0  0
   55.1510   24.2630   45.2130 N   0  0  0  0  0  0  0  0  0  0  0  0
   53.7760   23.7640   45.3210 C   0  0  0  0  0  0  0  0  0  0  0  0
   53.5980   22.6810   46.3630 C   0  0  0  0  0  0  0  0  0  0  0  0
   52.8800   21.5280   46.0190 C   0  0  0  0  0  0  0  0  0  0  0  0
   52.7630   20.4740   46.9320 C   0  0  0  0  0  0  0  0  0  0  0  0
   53.3310   20.5730   48.2030 C   0  0  0  0  0  0  0  0  0  0  0  0
   54.0600   21.7140   48.5500 C   0  0  0  0  0  0  0  0  0  0  0  0
   54.6370   21.8580   49.8900 C   0  0  0  0  0  0  0  0  0  0  0  0
   54.0390   22.5640   50.7470 O   0  0  0  0  0  0  0  0  0  0  0  0
   55.9460   21.3410   50.1750 N   0  0  0  0  0  0  0  0  0  0  0  0
   56.1660   19.8890   50.2080 C   0  0  0  0  0  0  0  0  0  0  0  0
   57.2460   19.5660   51.2450 C   0  0  0  0  0  0  0  0  0  0  0  0
   58.4090   20.4370   51.0300 N   0  0  0  0  0  0  0  0  0  0  0  0
   59.7480   19.9170   51.0330 C   0  0  0  0  0  0  0  0  0  0  0  0
   60.1720   18.8590   51.9960 C   0  0  0  0  0  0  0  0  0  0  0  0
   60.5800   20.3430   50.1970 O   0  0  0  0  0  0  0  0  0  0  0  0
   58.1920   21.8870   50.9900 C   0  0  0  0  0  0  0  0  0  0  0  0
   57.1010   22.2160   49.9760 C   0  0  0  0  0  0  0  0  0  0  0  0
   54.1500   22.7770   47.6480 C   0  0  0  0  0  0  0  0  0  0  0  0
   55.6310   25.4210   45.6820 C   0  0  0  0  0  0  0  0  0  0  0  0
   54.8480   26.4160   46.2660 O   0  0  0  0  0  0  0  0  0  0  0  0
   58.7130   28.8910   45.0570 C   0  0  0  0  0  0  0  0  0  0  0  0
   60.1630   28.7060   44.6920 C   0  0  0  0  0  0  0  0  0  0  0  0
   57.9960   30.0260   44.7150 C   0  0  0  0  0  0  0  0  0  0  0  0
   58.4770   31.4040   44.9030 C   0  0  0  0  0  0  0  0  0  0  0  0
   58.3010   32.2410   43.9710 O   0  0  0  0  0  0  0  0  0  0  0  0
   59.2430   31.7670   46.0790 N   0  0  0  0  0  0  0  0  0  0  0  0
   59.7180   33.1390   46.2830 C   0  0  0  0  0  0  0  0  0  0  0  0
   61.2410   33.1310   46.4390 C   0  0  0  0  0  0  0  0  0  0  0  0
   61.7520   32.0710   47.4690 C   0  0  0  0  0  0  0  0  0  0  0  0
   62.5890   32.7020   48.5630 C   0  0  0  0  0  0  0  0  0  0  0  0
   63.9340   32.3240   48.7390 C   0  0  0  0  0  0  0  0  0  0  0  0
   64.6910   32.8860   49.7720 C   0  0  0  0  0  0  0  0  0  0  0  0
   64.1070   33.8030   50.6490 C   0  0  0  0  0  0  0  0  0  0  0  0
   62.7690   34.1740   50.4900 C   0  0  0  0  0  0  0  0  0  0  0  0
   62.0140   33.6330   49.4500 C   0  0  0  0  0  0  0  0  0  0  0  0
   60.6210   31.2430   48.0930 C   0  0  0  0  0  0  0  0  0  0  0  0
   59.6860   30.7110   47.0110 C   0  0  0  0  0  0  0  0  0  0  0  0
   55.8307   31.4835   43.9843 H   0  0  0  0  0  0  0  0  0  0  0  0
   54.6495   29.9913   44.0760 H   0  0  0  0  0  0  0  0  0  0  0  0
   55.6410   27.7830   44.7770 H   0  0  0  0  0  0  0  0  0  0  0  0
   58.8034   26.4345   46.2592 H   0  0  0  0  0  0  0  0  0  0  0  0
   53.1206   24.6078   45.5827 H   0  0  0  0  0  0  0  0  0  0  0  0
   53.5205   23.3174   44.3487 H   0  0  0  0  0  0  0  0  0  0  0  0
   52.4071   21.4512   45.0288 H   0  0  0  0  0  0  0  0  0  0  0  0
   52.2197   19.5613   46.6460 H   0  0  0  0  0  0  0  0  0  0  0  0
   53.2054   19.7562   48.9289 H   0  0  0  0  0  0  0  0  0  0  0  0
   55.2295   19.3812   50.4820 H   0  0  0  0  0  0  0  0  0  0  0  0
   56.4910   19.5421   49.2160 H   0  0  0  0  0  0  0  0  0  0  0  0
   56.8451   19.7328   52.2557 H   0  0  0  0  0  0  0  0  0  0  0  0
   57.5516   18.5145   51.1400 H   0  0  0  0  0  0  0  0  0  0  0  0
   60.0272   19.2203   53.0248 H   0  0  0  0  0  0  0  0  0  0  0  0
   59.5670   17.9543   51.8365 H   0  0  0  0  0  0  0  0  0  0  0  0
   61.2344   18.6225   51.8365 H   0  0  0  0  0  0  0  0  0  0  0  0
   57.8836   22.2381   51.9858 H   0  0  0  0  0  0  0  0  0  0  0  0
   59.1263   22.3871   50.6949 H   0  0  0  0  0  0  0  0  0  0  0  0
   56.7898   23.2633   50.1040 H   0  0  0  0  0  0  0  0  0  0  0  0
   57.4965   22.0631   48.9610 H   0  0  0  0  0  0  0  0  0  0  0  0
   54.6614   23.7027   47.9505 H   0  0  0  0  0  0  0  0  0  0  0  0
   60.7651   28.6292   45.6094 H   0  0  0  0  0  0  0  0  0  0  0  0
   60.2776   27.7860   44.1001 H   0  0  0  0  0  0  0  0  0  0  0  0
   60.5049   29.5678   44.1001 H   0  0  0  0  0  0  0  0  0  0  0  0
   59.4410   33.7562   45.4156 H   0  0  0  0  0  0  0  0  0  0  0  0
   59.2575   33.5565   47.1905 H   0  0  0  0  0  0  0  0  0  0  0  0
   61.6911   32.9113   45.4596 H   0  0  0  0  0  0  0  0  0  0  0  0
   61.5348   34.1211   46.8177 H   0  0  0  0  0  0  0  0  0  0  0  0
   62.3849   31.3847   46.8873 H   0  0  0  0  0  0  0  0  0  0  0  0
   64.3899   31.5856   48.0630 H   0  0  0  0  0  0  0  0  0  0  0  0
   65.7476   32.6055   49.8940 H   0  0  0  0  0  0  0  0  0  0  0  0
   64.7021   34.2345   51.4673 H   0  0  0  0  0  0  0  0  0  0  0  0
   62.3114   34.8930   51.1855 H   0  0  0  0  0  0  0  0  0  0  0  0
   60.9640   33.9348   49.3216 H   0  0  0  0  0  0  0  0  0  0  0  0
   61.0548   30.3959   48.6446 H   0  0  0  0  0  0  0  0  0  0  0  0
   60.0452   31.8858   48.7750 H   0  0  0  0  0  0  0  0  0  0  0  0
   60.2142   29.9340   46.4388 H   0  0  0  0  0  0  0  0  0  0  0  0
   58.7921   30.3079   47.5095 H   0  0  0  0  0  0  0  0  0  0  0  0
  1  2  2  0
  2  3  1  0
  3  4  1  0
  4  5  2  3
  5  6  1  0
  6  7  1  0
  7  8  1  0
  8  9  2  0
  8 10  1  0
 10 11  1  0
 11 12  1  0
 12 13  2  0
 13 14  1  0
 14 15  2  0
 15 16  1  0
 16 17  1  0
 17 18  2  0
 17 19  1  0
 19 20  1  0
 20 21  1  0
 21 22  1  0
 22 23  1  0
 23 24  1  0
 23 25  2  0
 22 26  1  0
 26 27  1  0
 16 28  2  0
 10 29  1  0
 29 30  1  0
  4 31  1  0
 31 32  1  0
 31 33  2  0
 33 34  1  0
 34 35  2  0
 34 36  1  0
 36 37  1  0
 37 38  1  0
 38 39  1  0
 39 40  1  0
 40 41  2  0
 41 42  1  0
 42 43  2  0
 43 44  1  0
 44 45  2  0
 39 46  1  0
 46 47  1  0
 33  2  1  0
 47 36  1  0
 29  6  2  0
 45 40  1  0
 28 12  1  0
 27 19  1  0
  1 48  1  0
  1 49  1  0
  3 50  1  0
  5 51  1  0
 11 52  1  0
 11 53  1  0
 13 54  1  0
 14 55  1  0
 15 56  1  0
 20 57  1  0
 20 58  1  0
 21 59  1  0
 21 60  1  0
 24 61  1  0
 24 62  1  0
 24 63  1  0
 26 64  1  0
 26 65  1  0
 27 66  1  0
 27 67  1  0
 28 68  1  0
 32 69  1  0
 32 70  1  0
 32 71  1  0
 37 72  1  0
 37 73  1  0
 38 74  1  0
 38 75  1  0
 39 76  1  0
 41 77  1  0
 42 78  1  0
 43 79  1  0
 44 80  1  0
 45 81  1  0
 46 82  1  0
 46 83  1  0
 47 84  1  0
 47 85  1  0
M  CHG  2   7  -1  30  -1
M  END
>  <UniqueID>  (83) 
82

>  <SMILES>  (83) 
C=c1[nH]c(=Cc2[n-]c(=O)n(Cc3cccc(C(=O)N4CCN(C(C)=O)CC4)c3)c2[O-])c(C)c1C(=O)N1CCC(c2ccccc2)CC1

>  <Energy>  (83) 
187.4666940681931

>  <Genealogy>  (83) 
C=c1[nH]c(=Cc2[n-]c(=O)n(Cc3cccc(C(=O)N4CCN(C(C)=O)CC4)c3)c2[O-])c(C)c1C(=O)N1CCC(c2ccccc2)CC1 (protonated)
C=c1[nH]c(=Cc2[n-]c(=O)n(Cc3cccc(C(=O)N4CCN(C(C)=O)CC4)c3)c2[O-])c(C)c1C(=O)N1CCC(c2ccccc2)CC1 (3D coordinates assigned)
C=c1[nH]c(=Cc2[n-]c(=O)n(Cc3cccc(C(=O)N4CCN(C(C)=O)CC4)c3)c2[O-])c(C)c1C(=O)N1CCC(c2ccccc2)CC1 (nonaromatic ring conformer: 187.4666940681931 kcal/mol)

>  <smiles>  (83) 
C=c1[nH]c(=Cc2[nH]c(=O)n(Cc3cccc(C(=O)N4CCN(C(C)=O)CC4)c3)c2O)c(C)c1C(=O)N1CCC(c2ccccc2)CC1

>  <score_type>  (83) 
oracle

>  <origin>  (83) 
adg

>  <m_score__min__energy>  (83) 
-14.84

>  <m_primary>  (83) 
energy

$$$$
83:0
     RDKit          3D

 62 66  0  0  0  0  0  0  0  0999 V2000
   64.0910   30.8460   50.8740 C   0  0  0  0  0  0  0  0  0  0  0  0
   63.2170   31.3620   49.8040 N   0  0  0  0  0  0  0  0  0  0  0  0
   61.8990   30.9680   49.7510 C   0  0  0  0  0  0  0  0  0  0  0  0
   61.4300   30.1580   50.5960 O   0  0  0  0  0  0  0  0  0  0  0  0
   61.0910   31.4990   48.7500 C   0  0  0  0  0  0  0  0  0  0  0  0
   61.5940   32.4090   47.8810 C   0  0  0  0  0  0  0  0  0  0  0  0
   60.6330   32.8680   47.0590 N   0  0  0  0  0  0  0  0  0  0  0  0
   59.5350   32.1720   47.4560 C   0  0  0  0  0  0  0  0  0  0  0  0
   58.1770   32.4450   46.8900 C   0  0  0  0  0  0  0  0  0  0  0  0
   57.7690   31.3350   46.0950 O   0  0  0  0  0  0  0  0  0  0  0  0
   57.5760   31.4650   44.7190 C   0  0  0  0  0  0  0  0  0  0  0  0
   58.1040   32.5840   44.0600 C   0  0  0  0  0  0  0  0  0  0  0  0
   57.9940   32.6990   42.6710 C   0  0  0  0  0  0  0  0  0  0  0  0
   57.3550   31.6980   41.9330 C   0  0  0  0  0  0  0  0  0  0  0  0
   56.8150   30.5870   42.5840 C   0  0  0  0  0  0  0  0  0  0  0  0
   56.8950   30.4770   43.9800 C   0  0  0  0  0  0  0  0  0  0  0  0
   56.2760   29.3250   44.6460 C   0  0  0  0  0  0  0  0  0  0  0  0
   55.1350   29.4370   45.1650 O   0  0  0  0  0  0  0  0  0  0  0  0
   57.0090   28.1070   44.7600 N   0  0  0  0  0  0  0  0  0  0  0  0
   57.9220   27.7610   45.8110 C   0  0  0  0  0  0  0  0  0  0  0  0
   59.1530   28.4300   45.9280 C   0  0  0  0  0  0  0  0  0  0  0  0
   60.0370   28.1060   46.9590 C   0  0  0  0  0  0  0  0  0  0  0  0
   59.6990   27.1210   47.8890 C   0  0  0  0  0  0  0  0  0  0  0  0
   58.4810   26.4470   47.7800 C   0  0  0  0  0  0  0  0  0  0  0  0
   57.5790   26.7600   46.7540 C   0  0  0  0  0  0  0  0  0  0  0  0
   56.4010   25.9960   46.6640 O   0  0  0  0  0  0  0  0  0  0  0  0
   56.1100   25.0540   45.6680 C   0  0  0  0  0  0  0  0  0  0  0  0
   54.8020   24.5670   45.5540 C   0  0  0  0  0  0  0  0  0  0  0  0
   54.4910   23.6000   44.5940 C   0  0  0  0  0  0  0  0  0  0  0  0
   55.4840   23.1300   43.7290 C   0  0  0  0  0  0  0  0  0  0  0  0
   56.7830   23.6400   43.8120 C   0  0  0  0  0  0  0  0  0  0  0  0
   57.0980   24.6050   44.7750 C   0  0  0  0  0  0  0  0  0  0  0  0
   59.7850   31.3120   48.4820 N   0  0  0  0  0  0  0  0  0  0  0  0
   58.8210   30.4880   49.2130 C   0  0  0  0  0  0  0  0  0  0  0  0
   62.8900   32.8210   47.9240 N   0  0  0  0  0  0  0  0  0  0  0  0
   63.3850   33.8530   47.0040 C   0  0  0  0  0  0  0  0  0  0  0  0
   63.7010   32.3050   48.9120 C   0  0  0  0  0  0  0  0  0  0  0  0
   64.8940   32.7100   49.0110 O   0  0  0  0  0  0  0  0  0  0  0  0
   63.6604   31.1002   51.8537 H   0  0  0  0  0  0  0  0  0  0  0  0
   64.1757   29.7530   50.7832 H   0  0  0  0  0  0  0  0  0  0  0  0
   65.0889   31.2999   50.7832 H   0  0  0  0  0  0  0  0  0  0  0  0
   57.4595   32.5934   47.7104 H   0  0  0  0  0  0  0  0  0  0  0  0
   58.2111   33.3520   46.2686 H   0  0  0  0  0  0  0  0  0  0  0  0
   58.6064   33.3740   44.6375 H   0  0  0  0  0  0  0  0  0  0  0  0
   58.4108   33.5783   42.1580 H   0  0  0  0  0  0  0  0  0  0  0  0
   57.2777   31.7857   40.8392 H   0  0  0  0  0  0  0  0  0  0  0  0
   56.3247   29.7946   41.9995 H   0  0  0  0  0  0  0  0  0  0  0  0
   59.4211   29.2129   45.2033 H   0  0  0  0  0  0  0  0  0  0  0  0
   61.0020   28.6280   47.0388 H   0  0  0  0  0  0  0  0  0  0  0  0
   60.3920   26.8760   48.7073 H   0  0  0  0  0  0  0  0  0  0  0  0
   58.2267   25.6619   48.5073 H   0  0  0  0  0  0  0  0  0  0  0  0
   54.0159   24.9472   46.2229 H   0  0  0  0  0  0  0  0  0  0  0  0
   53.4656   23.2089   44.5190 H   0  0  0  0  0  0  0  0  0  0  0  0
   55.2429   22.3586   42.9828 H   0  0  0  0  0  0  0  0  0  0  0  0
   57.5587   23.2821   43.1191 H   0  0  0  0  0  0  0  0  0  0  0  0
   58.1183   25.0120   44.8331 H   0  0  0  0  0  0  0  0  0  0  0  0
   58.9732   30.6181   50.2946 H   0  0  0  0  0  0  0  0  0  0  0  0
   57.7991   30.7961   48.9469 H   0  0  0  0  0  0  0  0  0  0  0  0
   58.9662   29.4306   48.9469 H   0  0  0  0  0  0  0  0  0  0  0  0
   63.7896   34.6965   47.5826 H   0  0  0  0  0  0  0  0  0  0  0  0
   64.1779   33.4293   46.3701 H   0  0  0  0  0  0  0  0  0  0  0  0
   62.5583   34.2062   46.3701 H   0  0  0  0  0  0  0  0  0  0  0  0
  1  2  1  0
  2  3  1  0
  3  4  2  0
  3  5  1  0
  5  6  2  0
  6  7  1  0
  7  8  2  0
  8  9  1  0
  9 10  1  0
 10 11  1  0
 11 12  2  0
 12 13  1  0
 13 14  2  0
 14 15  1  0
 15 16  2  0
 16 17  1  0
 17 18  2  0
 17 19  1  0
 19 20  1  0
 20 21  2  0
 21 22  1  0
 22 23  2  0
 23 24  1  0
 24 25  2  0
 25 26  1  0
 26 27  1  0
 27 28  2  0
 28 29  1  0
 29 30  2  0
 30 31  1  0
 31 32  2  0
  8 33  1  0
 33 34  1  0
  6 35  1  0
 35 36  1  0
 35 37  1  0
 37 38  2  0
 37  2  1  0
 33  5  1  0
 16 11  1  0
 25 20  1  0
 32 27  1  0
  1 39  1  0
  1 40  1  0
  1 41  1  0
  9 42  1  0
  9 43  1  0
 12 44  1  0
 13 45  1  0
 14 46  1  0
 15 47  1  0
 21 48  1  0
 22 49  1  0
 23 50  1  0
 24 51  1  0
 28 52  1  0
 29 53  1  0
 30 54  1  0
 31 55  1  0
 32 56  1  0
 34 57  1  0
 34 58  1  0
 34 59  1  0
 36 60  1  0
 36 61  1  0
 36 62  1  0
M  CHG  1  19  -1
M  END
>  <UniqueID>  (84) 
83

>  <SMILES>  (84) 
Cn1c(=O)c2c(nc(COc3ccccc3C(=O)[N-]c3ccccc3Oc3ccccc3)n2C)n(C)c1=O

>  <Energy>  (84) 
135.47460646036203

>  <Genealogy>  (84) 
Cn1c(=O)c2c(nc(COc3ccccc3C(=O)[N-]c3ccccc3Oc3ccccc3)n2C)n(C)c1=O (protonated)
Cn1c(=O)c2c(nc(COc3ccccc3C(=O)[N-]c3ccccc3Oc3ccccc3)n2C)n(C)c1=O (3D coordinates assigned)
Cn1c(=O)c2c(nc(COc3ccccc3C(=O)[N-]c3ccccc3Oc3ccccc3)n2C)n(C)c1=O (optimized conformer: 135.47460646036203 kcal/mol)

>  <smiles>  (84) 
Cn1c(=O)c2c(nc(COc3ccccc3C(=O)Nc3ccccc3Oc3ccccc3)n2C)n(C)c1=O

>  <score_type>  (84) 
oracle

>  <origin>  (84) 
adg

>  <m_score__min__energy>  (84) 
-11.27

>  <m_primary>  (84) 
energy

$$$$
84:0
     RDKit          3D

 55 58  0  0  0  0  0  0  0  0999 V2000
   58.4983   28.0154   42.8830 H   0  0  0  0  0  0  0  0  0  0  0  0
   58.0910   27.1260   43.3860 C   0  0  0  0  0  0  0  0  0  0  0  0
   57.6599   26.3070   42.7915 H   0  0  0  0  0  0  0  0  0  0  0  0
   58.1200   27.0400   44.7250 C   0  0  0  0  0  0  0  0  0  0  0  0
   57.6400   25.9730   45.4920 C   0  0  0  0  0  0  0  0  0  0  0  0
   57.1160   24.8130   45.0470 C   0  0  0  0  0  0  0  0  0  0  0  0
   57.7959   24.0693   44.6059 H   0  0  0  0  0  0  0  0  0  0  0  0
   55.6740   24.4880   45.1210 C   0  0  0  0  0  0  0  0  0  0  0  0
   54.7310   25.4180   45.5920 C   0  0  0  0  0  0  0  0  0  0  0  0
   55.1260   26.6840   46.0100 O   0  0  0  0  0  0  0  0  0  0  0  0
   53.4130   25.0900   45.6230 N   0  0  0  0  0  0  0  0  0  0  0  0
   52.9810   23.8800   45.1880 C   0  0  0  0  0  0  0  0  0  0  0  0
   51.7560   23.5970   45.2290 O   0  0  0  0  0  0  0  0  0  0  0  0
   53.8690   22.9760   44.7010 N   0  0  0  0  0  0  0  0  0  0  0  0
   55.1980   23.2540   44.6500 C   0  0  0  0  0  0  0  0  0  0  0  0
   55.9920   22.3920   44.1870 O   0  0  0  0  0  0  0  0  0  0  0  0
   57.8380   26.3230   46.8190 C   0  0  0  0  0  0  0  0  0  0  0  0
   57.5854   25.7187   47.7027 H   0  0  0  0  0  0  0  0  0  0  0  0
   58.4140   27.5780   46.8150 C   0  0  0  0  0  0  0  0  0  0  0  0
   58.8060   28.3330   48.0470 C   0  0  0  0  0  0  0  0  0  0  0  0
   58.5088   27.7605   48.9380 H   0  0  0  0  0  0  0  0  0  0  0  0
   59.8957   28.4827   48.0541 H   0  0  0  0  0  0  0  0  0  0  0  0
   58.3015   29.3105   48.0541 H   0  0  0  0  0  0  0  0  0  0  0  0
   58.6050   28.0100   45.5460 N   0  0  0  0  0  0  0  0  0  0  0  0
   59.1750   29.3120   45.1660 C   0  0  0  0  0  0  0  0  0  0  0  0
   60.0596   29.5145   45.7877 H   0  0  0  0  0  0  0  0  0  0  0  0
   59.4559   29.2791   44.1030 H   0  0  0  0  0  0  0  0  0  0  0  0
   58.1630   30.4160   45.3680 C   0  0  0  0  0  0  0  0  0  0  0  0
   56.9410   30.1330   45.2440 O   0  0  0  0  0  0  0  0  0  0  0  0
   58.5580   31.7870   45.6270 N   0  0  0  0  0  0  0  0  0  0  0  0
   59.9440   32.1140   46.0040 C   0  0  0  0  0  0  0  0  0  0  0  0
   60.2416   31.4763   46.8494 H   0  0  0  0  0  0  0  0  0  0  0  0
   60.5844   31.9381   45.1271 H   0  0  0  0  0  0  0  0  0  0  0  0
   60.0980   33.5850   46.4150 C   0  0  0  0  0  0  0  0  0  0  0  0
   61.0478   33.7057   46.9565 H   0  0  0  0  0  0  0  0  0  0  0  0
   60.0823   34.1983   45.5020 H   0  0  0  0  0  0  0  0  0  0  0  0
   58.9430   34.0500   47.3240 C   0  0  0  0  0  0  0  0  0  0  0  0
   59.0137   35.1433   47.4219 H   0  0  0  0  0  0  0  0  0  0  0  0
   59.0860   33.4700   48.7270 C   0  0  0  0  0  0  0  0  0  0  0  0
   59.9310   34.1080   49.6550 C   0  0  0  0  0  0  0  0  0  0  0  0
   60.4483   35.0369   49.3730 H   0  0  0  0  0  0  0  0  0  0  0  0
   60.1180   33.5700   50.9330 C   0  0  0  0  0  0  0  0  0  0  0  0
   60.7724   34.0821   51.6538 H   0  0  0  0  0  0  0  0  0  0  0  0
   59.4760   32.3850   51.2950 C   0  0  0  0  0  0  0  0  0  0  0  0
   59.6232   31.9652   52.3010 H   0  0  0  0  0  0  0  0  0  0  0  0
   58.6470   31.7320   50.3810 C   0  0  0  0  0  0  0  0  0  0  0  0
   58.1444   30.7960   50.6661 H   0  0  0  0  0  0  0  0  0  0  0  0
   58.4550   32.2670   49.1030 C   0  0  0  0  0  0  0  0  0  0  0  0
   57.8059   31.7443   48.3851 H   0  0  0  0  0  0  0  0  0  0  0  0
   57.5450   33.7880   46.6910 C   0  0  0  0  0  0  0  0  0  0  0  0
   56.9054   33.3088   47.4468 H   0  0  0  0  0  0  0  0  0  0  0  0
   57.1508   34.7620   46.3657 H   0  0  0  0  0  0  0  0  0  0  0  0
   57.5910   32.8830   45.4490 C   0  0  0  0  0  0  0  0  0  0  0  0
   56.5917   32.4562   45.2784 H   0  0  0  0  0  0  0  0  0  0  0  0
   57.9050   33.4892   44.5865 H   0  0  0  0  0  0  0  0  0  0  0  0
  1  2  1  0
  2  3  1  0
  2  4  2  0
  4  5  1  0
  5  6  2  0
  6  7  1  0
  6  8  1  0
  8  9  2  0
  9 10  1  0
  9 11  1  0
 11 12  1  0
 12 13  2  0
 12 14  1  0
 14 15  1  0
 15 16  2  0
  5 17  1  0
 17 18  1  0
 17 19  2  0
 19 20  1  0
 20 21  1  0
 20 22  1  0
 20 23  1  0
 19 24  1  0
 24 25  1  0
 25 26  1  0
 25 27  1  0
 25 28  1  0
 28 29  2  0
 28 30  1  0
 30 31  1  0
 31 32  1  0
 31 33  1  0
 31 34  1  0
 34 35  1  0
 34 36  1  0
 34 37  1  0
 37 38  1  0
 37 39  1  0
 39 40  2  0
 40 41  1  0
 40 42  1  0
 42 43  1  0
 42 44  2  0
 44 45  1  0
 44 46  1  0
 46 47  1  0
 46 48  2  0
 48 49  1  0
 37 50  1  0
 50 51  1  0
 50 52  1  0
 50 53  1  0
 53 54  1  0
 53 55  1  0
 24  4  1  0
 53 30  1  0
 15  8  1  0
 48 39  1  0
M  CHG  3  10  -1  11  -1  14  -1
M  END
>  <UniqueID>  (85) 
84

>  <SMILES>  (85) 
C=c1/c(=C/c2c([O-])[n-]c(=O)[n-]c2=O)cc(C)n1CC(=O)N1CCC(c2ccccc2)CC1

>  <Energy>  (85) 
101.62493486976841

>  <Genealogy>  (85) 
C=c1c(=Cc2c([O-])[n-]c(=O)[n-]c2=O)cc(C)n1CC(=O)N1CCC(c2ccccc2)CC1 (protonated)
C=c1/c(=C/c2c([O-])[n-]c(=O)[n-]c2=O)cc(C)n1CC(=O)N1CCC(c2ccccc2)CC1 (cis-trans isomerization)
C=c1/c(=C/c2c([O-])[n-]c(=O)[n-]c2=O)cc(C)n1CC(=O)N1CCC(c2ccccc2)CC1 (3D coordinates assigned)
C=c1/c(=C/c2c([O-])[n-]c(=O)[n-]c2=O)cc(C)n1CC(=O)N1CCC(c2ccccc2)CC1 (nonaromatic ring conformer: 101.62493486976841 kcal/mol)

>  <smiles>  (85) 
C=c1c(=Cc2c(O)[nH]c(=O)[nH]c2=O)cc(C)n1CC(=O)N1CCC(c2ccccc2)CC1

>  <score_type>  (85) 
oracle

>  <origin>  (85) 
adg

>  <m_score__min__energy>  (85) 
-17.289999999999999

>  <m_primary>  (85) 
energy

$$$$
85:0
     RDKit          3D

 66 69  0  0  0  0  0  0  0  0999 V2000
   56.0870   29.4730   44.8630 O   0  0  0  0  0  0  0  0  0  0  0  0
   56.9540   30.3260   44.5300 C   0  0  0  0  0  0  0  0  0  0  0  0
   56.6470   31.7860   44.6560 C   0  0  0  0  0  0  0  0  0  0  0  0
   57.8800   32.5700   44.6470 N   0  0  0  0  0  0  0  0  0  0  0  0
   57.8970   33.9790   44.9220 C   0  0  0  0  0  0  0  0  0  0  0  0
   56.8180   34.5940   45.1400 O   0  0  0  0  0  0  0  0  0  0  0  0
   59.1960   34.7240   45.0180 C   0  0  0  0  0  0  0  0  0  0  0  0
   59.9220   34.4240   46.3050 C   0  0  0  0  0  0  0  0  0  0  0  0
   61.2000   33.8490   46.2790 C   0  0  0  0  0  0  0  0  0  0  0  0
   61.8650   33.5440   47.4690 C   0  0  0  0  0  0  0  0  0  0  0  0
   61.2660   33.8140   48.7160 C   0  0  0  0  0  0  0  0  0  0  0  0
   61.9430   33.4730   49.9480 N   0  0  0  0  0  0  0  0  0  0  0  0
   61.3270   33.5640   51.2650 C   0  0  0  0  0  0  0  0  0  0  0  0
   62.4460   33.3120   52.2660 C   0  0  0  0  0  0  0  0  0  0  0  0
   63.5640   32.6450   51.4760 C   0  0  0  0  0  0  0  0  0  0  0  0
   63.3300   33.0350   50.0210 C   0  0  0  0  0  0  0  0  0  0  0  0
   59.9900   34.4120   48.7350 C   0  0  0  0  0  0  0  0  0  0  0  0
   59.3260   34.7120   47.5410 C   0  0  0  0  0  0  0  0  0  0  0  0
   58.2220   29.9100   44.0140 N   0  0  0  0  0  0  0  0  0  0  0  0
   59.1600   29.1170   44.7990 C   0  0  0  0  0  0  0  0  0  0  0  0
   59.0840   29.5230   46.2430 C   0  0  0  0  0  0  0  0  0  0  0  0
   58.7140   28.5980   47.2310 C   0  0  0  0  0  0  0  0  0  0  0  0
   58.6150   28.9970   48.5680 C   0  0  0  0  0  0  0  0  0  0  0  0
   58.9070   30.3170   48.9350 C   0  0  0  0  0  0  0  0  0  0  0  0
   58.7450   30.8320   50.6140 S   0  0  0  0  0  0  0  0  0  0  0  0
   57.5970   30.0920   51.2420 O   0  0  0  0  0  0  0  0  0  0  0  0
   58.4050   32.2970   50.6330 O   0  0  0  0  0  0  0  0  0  0  0  0
   60.1970   30.5880   51.5650 N   0  0  0  0  0  0  0  0  0  0  0  0
   59.9660   29.8680   52.8320 C   0  0  0  0  0  0  0  0  0  0  0  0
   60.0780   28.3480   52.6670 C   0  0  0  0  0  0  0  0  0  0  0  0
   61.3170   28.0030   52.0870 O   0  0  0  0  0  0  0  0  0  0  0  0
   61.3740   28.5180   50.7740 C   0  0  0  0  0  0  0  0  0  0  0  0
   61.3290   30.0560   50.7820 C   0  0  0  0  0  0  0  0  0  0  0  0
   59.2780   31.2420   47.9490 C   0  0  0  0  0  0  0  0  0  0  0  0
   59.3690   30.8470   46.6120 C   0  0  0  0  0  0  0  0  0  0  0  0
   56.0139   32.0971   43.8120 H   0  0  0  0  0  0  0  0  0  0  0  0
   56.1221   31.9587   45.6071 H   0  0  0  0  0  0  0  0  0  0  0  0
   58.7860   32.0660   44.5050 H   0  0  0  0  0  0  0  0  0  0  0  0
   59.8363   34.4329   44.1722 H   0  0  0  0  0  0  0  0  0  0  0  0
   58.9740   35.8011   44.9948 H   0  0  0  0  0  0  0  0  0  0  0  0
   61.6831   33.6362   45.3139 H   0  0  0  0  0  0  0  0  0  0  0  0
   62.8657   33.0888   47.4325 H   0  0  0  0  0  0  0  0  0  0  0  0
   60.8951   34.5641   51.4173 H   0  0  0  0  0  0  0  0  0  0  0  0
   60.5099   32.8366   51.3803 H   0  0  0  0  0  0  0  0  0  0  0  0
   62.7953   34.2615   52.6977 H   0  0  0  0  0  0  0  0  0  0  0  0
   62.1082   32.6819   53.1020 H   0  0  0  0  0  0  0  0  0  0  0  0
   64.5445   33.0082   51.8176 H   0  0  0  0  0  0  0  0  0  0  0  0
   63.5601   31.5531   51.6095 H   0  0  0  0  0  0  0  0  0  0  0  0
   64.0061   33.8523   49.7296 H   0  0  0  0  0  0  0  0  0  0  0  0
   63.5266   32.1946   49.3390 H   0  0  0  0  0  0  0  0  0  0  0  0
   59.5118   34.6450   49.6978 H   0  0  0  0  0  0  0  0  0  0  0  0
   58.3296   35.1770   47.5719 H   0  0  0  0  0  0  0  0  0  0  0  0
   58.9050   28.0511   44.7053 H   0  0  0  0  0  0  0  0  0  0  0  0
   60.1809   29.2876   44.4266 H   0  0  0  0  0  0  0  0  0  0  0  0
   58.5010   27.5552   46.9531 H   0  0  0  0  0  0  0  0  0  0  0  0
   58.3065   28.2710   49.3347 H   0  0  0  0  0  0  0  0  0  0  0  0
   60.7127   30.1997   53.5684 H   0  0  0  0  0  0  0  0  0  0  0  0
   58.9430   30.0954   53.1663 H   0  0  0  0  0  0  0  0  0  0  0  0
   59.9949   27.8698   53.6541 H   0  0  0  0  0  0  0  0  0  0  0  0
   59.2683   28.0015   52.0079 H   0  0  0  0  0  0  0  0  0  0  0  0
   62.3095   28.1881   50.2986 H   0  0  0  0  0  0  0  0  0  0  0  0
   60.5041   28.1451   50.2134 H   0  0  0  0  0  0  0  0  0  0  0  0
   62.2662   30.4333   51.2171 H   0  0  0  0  0  0  0  0  0  0  0  0
   61.2001   30.3903   49.7420 H   0  0  0  0  0  0  0  0  0  0  0  0
   59.4983   32.2827   48.2291 H   0  0  0  0  0  0  0  0  0  0  0  0
   59.6655   31.5772   45.8446 H   0  0  0  0  0  0  0  0  0  0  0  0
  1  2  2  0
  2  3  1  0
  3  4  1  0
  4  5  1  0
  5  6  2  0
  5  7  1  0
  7  8  1  0
  8  9  2  0
  9 10  1  0
 10 11  2  0
 11 12  1  0
 12 13  1  0
 13 14  1  0
 14 15  1  0
 15 16  1  0
 11 17  1  0
 17 18  2  0
  2 19  1  0
 19 20  1  0
 20 21  1  0
 21 22  2  0
 22 23  1  0
 23 24  2  0
 24 25  1  0
 25 26  2  0
 25 27  2  0
 25 28  1  0
 28 29  1  0
 29 30  1  0
 30 31  1  0
 31 32  1  0
 32 33  1  0
 24 34  1  0
 34 35  2  0
 18  8  1  0
 35 21  1  0
 16 12  1  0
 33 28  1  0
  3 36  1  0
  3 37  1  0
  4 38  1  0
  7 39  1  0
  7 40  1  0
  9 41  1  0
 10 42  1  0
 13 43  1  0
 13 44  1  0
 14 45  1  0
 14 46  1  0
 15 47  1  0
 15 48  1  0
 16 49  1  0
 16 50  1  0
 17 51  1  0
 18 52  1  0
 20 53  1  0
 20 54  1  0
 22 55  1  0
 23 56  1  0
 29 57  1  0
 29 58  1  0
 30 59  1  0
 30 60  1  0
 32 61  1  0
 32 62  1  0
 33 63  1  0
 33 64  1  0
 34 65  1  0
 35 66  1  0
M  CHG  1  19  -1
M  END
>  <UniqueID>  (86) 
85

>  <SMILES>  (86) 
O=C(CNC(=O)Cc1ccc(N2CCCC2)cc1)[N-]Cc1ccc(S(=O)(=O)N2CCOCC2)cc1

>  <Energy>  (86) 
65.03996490068052

>  <Genealogy>  (86) 
O=C(CNC(=O)Cc1ccc(N2CCCC2)cc1)[N-]Cc1ccc(S(=O)(=O)N2CCOCC2)cc1 (protonated)
O=C(CNC(=O)Cc1ccc(N2CCCC2)cc1)[N-]Cc1ccc(S(=O)(=O)N2CCOCC2)cc1 (3D coordinates assigned)
O=C(CNC(=O)Cc1ccc(N2CCCC2)cc1)[N-]Cc1ccc(S(=O)(=O)N2CCOCC2)cc1 (nonaromatic ring conformer: 65.03996490068052 kcal/mol)

>  <smiles>  (86) 
O=C(CNC(=O)Cc1ccc(N2CCCC2)cc1)NCc1ccc(S(=O)(=O)N2CCOCC2)cc1

>  <score_type>  (86) 
oracle

>  <origin>  (86) 
adg

>  <m_score__min__energy>  (86) 
-12.15

>  <m_primary>  (86) 
energy

$$$$
86:0
     RDKit          3D

 55 58  0  0  0  0  0  0  0  0999 V2000
   59.4160   32.9490   50.0380 O   0  0  0  0  0  0  0  0  0  0  0  0
   60.1440   33.2050   49.0380 C   0  0  0  0  0  0  0  0  0  0  0  0
   59.5340   33.1760   47.6890 C   0  0  0  0  0  0  0  0  0  0  0  0
   58.5500   32.2230   47.3830 C   0  0  0  0  0  0  0  0  0  0  0  0
   57.9620   32.1920   46.1170 C   0  0  0  0  0  0  0  0  0  0  0  0
   58.3390   33.1210   45.1370 C   0  0  0  0  0  0  0  0  0  0  0  0
   57.7080   33.0720   43.7660 C   0  0  0  0  0  0  0  0  0  0  0  0
   58.0030   31.8180   43.0610 N   0  0  0  0  0  0  0  0  0  0  0  0
   56.9570   30.5290   43.5810 S   0  0  0  0  0  0  0  0  0  0  0  0
   55.8630   31.0600   44.4680 O   0  0  0  0  0  0  0  0  0  0  0  0
   56.3380   29.8570   42.3860 O   0  0  0  0  0  0  0  0  0  0  0  0
   57.9180   29.3670   44.4890 C   0  0  0  0  0  0  0  0  0  0  0  0
   57.3040   28.3250   45.2010 C   0  0  0  0  0  0  0  0  0  0  0  0
   58.0830   27.3960   45.8970 C   0  0  0  0  0  0  0  0  0  0  0  0
   59.4800   27.4980   45.8820 C   0  0  0  0  0  0  0  0  0  0  0  0
   60.4480   26.3220   46.7520 Cl  0  0  0  0  0  0  0  0  0  0  0  0
   60.0960   28.5350   45.1700 C   0  0  0  0  0  0  0  0  0  0  0  0
   61.4480   28.6400   45.1450 F   0  0  0  0  0  0  0  0  0  0  0  0
   59.3160   29.4660   44.4760 C   0  0  0  0  0  0  0  0  0  0  0  0
   59.3050   34.0900   45.4460 C   0  0  0  0  0  0  0  0  0  0  0  0
   59.8940   34.1210   46.7140 C   0  0  0  0  0  0  0  0  0  0  0  0
   61.5370   33.5240   49.2420 N   0  0  0  0  0  0  0  0  0  0  0  0
   62.5520   33.2000   48.2300 C   0  0  0  0  0  0  0  0  0  0  0  0
   63.7980   32.6070   48.8960 C   0  0  0  0  0  0  0  0  0  0  0  0
   64.2420   33.4100   50.0480 N   0  0  0  0  0  0  0  0  0  0  0  0
   65.5290   33.1550   50.6540 C   0  0  0  0  0  0  0  0  0  0  0  0
   65.9880   33.9630   51.5070 O   0  0  0  0  0  0  0  0  0  0  0  0
   66.3370   31.9360   50.2660 C   0  0  0  0  0  0  0  0  0  0  0  0
   67.4670   31.6110   51.2350 C   0  0  0  0  0  0  0  0  0  0  0  0
   66.2370   30.7170   51.1800 C   0  0  0  0  0  0  0  0  0  0  0  0
   63.4200   34.5390   50.5100 C   0  0  0  0  0  0  0  0  0  0  0  0
   61.9360   34.1560   50.5070 C   0  0  0  0  0  0  0  0  0  0  0  0
   58.2396   31.4947   48.1467 H   0  0  0  0  0  0  0  0  0  0  0  0
   57.1985   31.4342   45.8872 H   0  0  0  0  0  0  0  0  0  0  0  0
   56.6177   33.1685   43.8748 H   0  0  0  0  0  0  0  0  0  0  0  0
   58.1274   33.8981   43.1729 H   0  0  0  0  0  0  0  0  0  0  0  0
   57.8690   31.9440   42.0300 H   0  0  0  0  0  0  0  0  0  0  0  0
   56.2074   28.2391   45.2114 H   0  0  0  0  0  0  0  0  0  0  0  0
   57.5980   26.5833   46.4576 H   0  0  0  0  0  0  0  0  0  0  0  0
   59.8021   30.2795   43.9175 H   0  0  0  0  0  0  0  0  0  0  0  0
   59.6008   34.8293   44.6871 H   0  0  0  0  0  0  0  0  0  0  0  0
   60.6441   34.8904   46.9494 H   0  0  0  0  0  0  0  0  0  0  0  0
   62.1368   32.4685   47.5211 H   0  0  0  0  0  0  0  0  0  0  0  0
   62.8345   34.1212   47.6994 H   0  0  0  0  0  0  0  0  0  0  0  0
   63.5658   31.5887   49.2411 H   0  0  0  0  0  0  0  0  0  0  0  0
   64.6096   32.5997   48.1535 H   0  0  0  0  0  0  0  0  0  0  0  0
   66.2336   32.0859   49.1812 H   0  0  0  0  0  0  0  0  0  0  0  0
   68.4307   31.2439   50.8521 H   0  0  0  0  0  0  0  0  0  0  0  0
   67.9917   32.1622   52.0293 H   0  0  0  0  0  0  0  0  0  0  0  0
   66.3114   29.7045   50.7566 H   0  0  0  0  0  0  0  0  0  0  0  0
   65.5048   30.3550   51.9168 H   0  0  0  0  0  0  0  0  0  0  0  0
   63.7216   34.8127   51.5318 H   0  0  0  0  0  0  0  0  0  0  0  0
   63.5699   35.3910   49.8306 H   0  0  0  0  0  0  0  0  0  0  0  0
   61.7485   33.4520   51.3312 H   0  0  0  0  0  0  0  0  0  0  0  0
   61.3457   35.0760   50.6301 H   0  0  0  0  0  0  0  0  0  0  0  0
  1  2  2  0
  2  3  1  0
  3  4  2  0
  4  5  1  0
  5  6  2  0
  6  7  1  0
  7  8  1  0
  8  9  1  0
  9 10  2  0
  9 11  2  0
  9 12  1  0
 12 13  2  0
 13 14  1  0
 14 15  2  0
 15 16  1  0
 15 17  1  0
 17 18  1  0
 17 19  2  0
  6 20  1  0
 20 21  2  0
  2 22  1  0
 22 23  1  0
 23 24  1  0
 24 25  1  0
 25 26  1  0
 26 27  2  0
 26 28  1  0
 28 29  1  0
 29 30  1  0
 25 31  1  0
 31 32  1  0
 21  3  1  0
 32 22  1  0
 19 12  1  0
 30 28  1  0
  4 33  1  0
  5 34  1  0
  7 35  1  0
  7 36  1  0
  8 37  1  0
 13 38  1  0
 14 39  1  0
 19 40  1  0
 20 41  1  0
 21 42  1  0
 23 43  1  0
 23 44  1  0
 24 45  1  0
 24 46  1  0
 28 47  1  0
 29 48  1  0
 29 49  1  0
 30 50  1  0
 30 51  1  0
 31 52  1  0
 31 53  1  0
 32 54  1  0
 32 55  1  0
M  END
>  <UniqueID>  (87) 
86

>  <SMILES>  (87) 
O=C(c1ccc(CNS(=O)(=O)c2ccc(Cl)c(F)c2)cc1)N1CCN(C(=O)C2CC2)CC1

>  <Energy>  (87) 
326.42814400692015

>  <Genealogy>  (87) 
O=C(c1ccc(CNS(=O)(=O)c2ccc(Cl)c(F)c2)cc1)N1CCN(C(=O)C2CC2)CC1 (3D coordinates assigned)
O=C(c1ccc(CNS(=O)(=O)c2ccc(Cl)c(F)c2)cc1)N1CCN(C(=O)C2CC2)CC1 (nonaromatic ring conformer: 326.42814400692015 kcal/mol)

>  <smiles>  (87) 
O=C(c1ccc(CNS(=O)(=O)c2ccc(Cl)c(F)c2)cc1)N1CCN(C(=O)C2CC2)CC1

>  <score_type>  (87) 
oracle

>  <origin>  (87) 
adg

>  <m_score__min__energy>  (87) 
-9.6099999999999994

>  <m_primary>  (87) 
energy

$$$$
87:0
     RDKit          3D

 46 48  0  0  0  0  0  0  0  0999 V2000
   54.7480   28.9590   45.5020 H   0  0  0  0  0  0  0  0  0  0  0  0
   55.5540   28.5390   45.0540 O   0  0  0  0  0  0  0  0  0  0  0  0
   56.2810   27.5020   45.6410 C   0  0  0  0  0  0  0  0  0  0  0  0
   55.6110   26.4160   46.1060 N   0  0  0  0  0  0  0  0  0  0  0  0
   56.2670   25.3740   46.6770 C   0  0  0  0  0  0  0  0  0  0  0  0
   55.6200   24.3800   47.0950 O   0  0  0  0  0  0  0  0  0  0  0  0
   57.6200   25.4010   46.7910 N   0  0  0  0  0  0  0  0  0  0  0  0
   58.3380   26.4600   46.3440 C   0  0  0  0  0  0  0  0  0  0  0  0
   59.5930   26.4480   46.4580 O   0  0  0  0  0  0  0  0  0  0  0  0
   57.6830   27.5580   45.7640 C   0  0  0  0  0  0  0  0  0  0  0  0
   58.4530   28.7060   45.2520 C   0  0  0  0  0  0  0  0  0  0  0  0
   59.3113   28.4984   44.5960 H   0  0  0  0  0  0  0  0  0  0  0  0
   58.1730   29.9950   45.5360 C   0  0  0  0  0  0  0  0  0  0  0  0
   57.6250   30.9800   44.7080 C   0  0  0  0  0  0  0  0  0  0  0  0
   57.2260   30.8770   43.2680 C   0  0  0  0  0  0  0  0  0  0  0  0
   56.1629   30.6026   43.2008 H   0  0  0  0  0  0  0  0  0  0  0  0
   57.3865   31.8460   42.7728 H   0  0  0  0  0  0  0  0  0  0  0  0
   57.8355   30.1068   42.7728 H   0  0  0  0  0  0  0  0  0  0  0  0
   57.5240   32.1340   45.3920 N   0  0  0  0  0  0  0  0  0  0  0  0
   57.9660   31.9360   46.6240 N   0  0  0  0  0  0  0  0  0  0  0  0
   58.0400   33.0060   47.6310 C   0  0  0  0  0  0  0  0  0  0  0  0
   57.0180   33.3087   47.9029 H   0  0  0  0  0  0  0  0  0  0  0  0
   58.5850   32.6143   48.5025 H   0  0  0  0  0  0  0  0  0  0  0  0
   58.8000   34.2370   47.1110 C   0  0  0  0  0  0  0  0  0  0  0  0
   58.2151   34.7039   46.3049 H   0  0  0  0  0  0  0  0  0  0  0  0
   58.9395   34.9358   47.9490 H   0  0  0  0  0  0  0  0  0  0  0  0
   60.1600   33.8620   46.5760 C   0  0  0  0  0  0  0  0  0  0  0  0
   60.3370   33.8420   45.3280 O   0  0  0  0  0  0  0  0  0  0  0  0
   61.2610   33.5420   47.4520 N   0  0  0  0  0  0  0  0  0  0  0  0
   62.1490   32.4260   47.1050 C   0  0  0  0  0  0  0  0  0  0  0  0
   61.7267   31.4893   47.4976 H   0  0  0  0  0  0  0  0  0  0  0  0
   62.2404   32.3653   46.0105 H   0  0  0  0  0  0  0  0  0  0  0  0
   63.5380   32.6500   47.7130 C   0  0  0  0  0  0  0  0  0  0  0  0
   64.1417   31.7407   47.5757 H   0  0  0  0  0  0  0  0  0  0  0  0
   64.0086   33.5053   47.2061 H   0  0  0  0  0  0  0  0  0  0  0  0
   63.4460   32.9400   49.0950 O   0  0  0  0  0  0  0  0  0  0  0  0
   62.7740   34.1690   49.2800 C   0  0  0  0  0  0  0  0  0  0  0  0
   62.7975   34.4360   50.3469 H   0  0  0  0  0  0  0  0  0  0  0  0
   63.2793   34.9411   48.6812 H   0  0  0  0  0  0  0  0  0  0  0  0
   61.3170   34.0660   48.8200 C   0  0  0  0  0  0  0  0  0  0  0  0
   60.7693   33.3893   49.4924 H   0  0  0  0  0  0  0  0  0  0  0  0
   60.8584   35.0656   48.8437 H   0  0  0  0  0  0  0  0  0  0  0  0
   58.3970   30.6560   46.7480 C   0  0  0  0  0  0  0  0  0  0  0  0
   58.9590   30.1430   47.8520 C   0  0  0  0  0  0  0  0  0  0  0  0
   59.0809   30.7685   48.7486 H   0  0  0  0  0  0  0  0  0  0  0  0
   59.2982   29.0966   47.8611 H   0  0  0  0  0  0  0  0  0  0  0  0
  1  2  1  0
  2  3  1  0
  3  4  1  0
  4  5  1  0
  5  6  2  0
  5  7  1  0
  7  8  1  0
  8  9  2  0
  8 10  1  0
 10 11  1  0
 11 12  1  0
 11 13  2  0
 13 14  1  0
 14 15  1  0
 15 16  1  0
 15 17  1  0
 15 18  1  0
 14 19  2  0
 19 20  1  0
 20 21  1  0
 21 22  1  0
 21 23  1  0
 21 24  1  0
 24 25  1  0
 24 26  1  0
 24 27  1  0
 27 28  2  0
 27 29  1  0
 29 30  1  0
 30 31  1  0
 30 32  1  0
 30 33  1  0
 33 34  1  0
 33 35  1  0
 33 36  1  0
 36 37  1  0
 37 38  1  0
 37 39  1  0
 37 40  1  0
 40 41  1  0
 40 42  1  0
 20 43  1  0
 43 44  2  0
 44 45  1  0
 44 46  1  0
 10  3  2  0
 43 13  1  0
 40 29  1  0
M  CHG  2   4  -1   7  -1
M  END
>  <UniqueID>  (88) 
87

>  <SMILES>  (88) 
C=c1/c(=C/c2c(O)[n-]c(=O)[n-]c2=O)c(C)nn1CCC(=O)N1CCOCC1

>  <Energy>  (88) 
93.44331431379537

>  <Genealogy>  (88) 
C=c1c(=Cc2c(O)[n-]c(=O)[n-]c2=O)c(C)nn1CCC(=O)N1CCOCC1 (protonated)
C=c1/c(=C/c2c(O)[n-]c(=O)[n-]c2=O)c(C)nn1CCC(=O)N1CCOCC1 (cis-trans isomerization)
C=c1/c(=C/c2c(O)[n-]c(=O)[n-]c2=O)c(C)nn1CCC(=O)N1CCOCC1 (3D coordinates assigned)
C=c1/c(=C/c2c(O)[n-]c(=O)[n-]c2=O)c(C)nn1CCC(=O)N1CCOCC1 (nonaromatic ring conformer: 93.44331431379537 kcal/mol)

>  <smiles>  (88) 
C=c1c(=Cc2c(O)[nH]c(=O)[nH]c2=O)c(C)nn1CCC(=O)N1CCOCC1

>  <score_type>  (88) 
oracle

>  <origin>  (88) 
adg

>  <m_score__min__energy>  (88) 
-13.220000000000001

>  <m_primary>  (88) 
energy

$$$$
