0:0
     RDKit          3D

 41 43  0  0  1  0  0  0  0  0999 V2000
   57.3900   31.6420   42.0600 C   0  0  0  0  0  0  0  0  0  0  0  0
   57.4470   31.2380   43.4840 C   0  0  0  0  0  0  0  0  0  0  0  0
   57.3150   32.3840   44.4330 C   0  0  0  0  0  0  0  0  0  0  0  0
   56.1930   30.2700   43.7520 C   0  0  0  0  0  0  0  0  0  0  0  0
   56.4760   29.8890   45.0320 N   0  0  0  0  0  0  0  0  0  0  0  0
   56.8860   28.8500   45.5270 C   0  0  0  0  0  0  0  0  0  0  0  0
   56.0410   27.7850   45.4600 N   0  0  0  0  0  0  0  0  0  0  0  0
   56.2430   26.6320   46.0830 C   0  0  0  0  0  0  0  0  0  0  0  0
   55.4310   25.6510   45.9990 N   0  0  0  0  0  0  0  0  0  0  0  0
   57.3380   26.5130   46.8140 N   0  0  0  0  0  0  0  0  0  0  0  0
   58.1810   27.5540   46.8830 C   0  0  0  0  0  0  0  0  0  0  0  0
   59.7000   27.5610   47.8320 S   0  0  0  0  0  0  0  0  0  0  0  0
   60.1060   29.1830   47.3600 C   0  0  0  0  0  0  0  0  0  0  0  0
   59.0390   29.6820   46.4630 C   0  0  0  0  0  0  0  0  0  0  0  0
   58.0790   28.7830   46.2810 C   0  0  0  0  0  0  0  0  0  0  0  0
   59.5680   30.9980   45.9910 C   0  0  0  0  0  0  0  0  0  0  0  0
   59.6840   31.9020   47.1990 C   0  0  0  0  0  0  0  0  0  0  0  0
   60.8450   31.4570   47.9440 N   0  0  0  0  0  0  0  0  0  0  0  0
   60.6870   31.6780   49.3680 C   0  0  0  0  0  0  0  0  0  0  0  0
   61.2140   30.0930   47.7160 C   0  0  0  0  0  0  0  0  0  0  0  0
   57.2366   32.7292   41.9932 H   0  0  0  0  0  0  0  0  0  0  0  0
   58.3349   31.3739   41.5647 H   0  0  0  0  0  0  0  0  0  0  0  0
   56.5562   31.1229   41.5647 H   0  0  0  0  0  0  0  0  0  0  0  0
   58.4257   30.7662   43.6557 H   0  0  0  0  0  0  0  0  0  0  0  0
   57.3580   32.0108   45.4668 H   0  0  0  0  0  0  0  0  0  0  0  0
   58.1371   33.0953   44.2655 H   0  0  0  0  0  0  0  0  0  0  0  0
   56.3527   32.8898   44.2655 H   0  0  0  0  0  0  0  0  0  0  0  0
   55.2364   30.8089   43.6857 H   0  0  0  0  0  0  0  0  0  0  0  0
   56.0734   29.4465   43.0326 H   0  0  0  0  0  0  0  0  0  0  0  0
   55.1510   27.8440   44.8800 H   0  0  0  0  0  0  0  0  0  0  0  0
   55.5160   24.8740   45.3060 H   0  0  0  0  0  0  0  0  0  0  0  0
   57.5060   25.6180   47.3100 H   0  0  0  0  0  0  0  0  0  0  0  0
   60.5565   30.8611   45.5282 H   0  0  0  0  0  0  0  0  0  0  0  0
   58.8954   31.4390   45.2406 H   0  0  0  0  0  0  0  0  0  0  0  0
   59.8163   32.9462   46.8794 H   0  0  0  0  0  0  0  0  0  0  0  0
   58.7755   31.8537   47.8173 H   0  0  0  0  0  0  0  0  0  0  0  0
   61.2395   30.9052   49.9225 H   0  0  0  0  0  0  0  0  0  0  0  0
   61.0814   32.6706   49.6310 H   0  0  0  0  0  0  0  0  0  0  0  0
   59.6202   31.6259   49.6310 H   0  0  0  0  0  0  0  0  0  0  0  0
   61.9455   30.0730   46.8947 H   0  0  0  0  0  0  0  0  0  0  0  0
   61.6103   29.7244   48.6736 H   0  0  0  0  0  0  0  0  0  0  0  0
  1  2  1  0
  2  3  1  0
  2  4  1  0
  4  5  1  0
  5  6  2  0
  6  7  1  0
  7  8  1  0
  8  9  2  3
  8 10  1  0
 10 11  1  0
 11 12  1  0
 12 13  1  0
 13 14  2  0
 14 15  1  0
 14 16  1  0
 16 17  1  0
 17 18  1  0
 18 19  1  0
 18 20  1  0
 15  6  1  0
 15 11  2  0
 20 13  1  0
  1 21  1  0
  1 22  1  0
  1 23  1  0
  2 24  1  0
  3 25  1  0
  3 26  1  0
  3 27  1  0
  4 28  1  0
  4 29  1  0
  7 30  1  0
  9 31  1  0
 10 32  1  0
 16 33  1  0
 16 34  1  0
 17 35  1  0
 17 36  1  0
 19 37  1  0
 19 38  1  0
 19 39  1  0
 20 40  1  0
 20 41  1  0
M  END
>  <smiles>  (1) 
CC(C)CN=c1[nH]c(=N)[nH]c2sc3c(c12)CCN(C)C3

>  <score_type>  (1) 
oracle

>  <origin>  (1) 
adg

>  <m_score__min__energy>  (1) 
-7.2300000000000004

>  <m_primary>  (1) 
energy

$$$$
1:0
     RDKit          3D

 33 34  0  0  0  0  0  0  0  0999 V2000
   56.7310   30.5110   43.8000 C   0  0  0  0  0  0  0  0  0  0  0  0
   56.6060   31.4710   44.8450 O   0  0  0  0  0  0  0  0  0  0  0  0
   57.5840   32.4250   45.1690 C   0  0  0  0  0  0  0  0  0  0  0  0
   57.5950   33.7070   44.5850 C   0  0  0  0  0  0  0  0  0  0  0  0
   58.5920   34.6270   44.9220 C   0  0  0  0  0  0  0  0  0  0  0  0
   59.5780   34.2830   45.8480 C   0  0  0  0  0  0  0  0  0  0  0  0
   59.5750   33.0160   46.4350 C   0  0  0  0  0  0  0  0  0  0  0  0
   58.5880   32.0780   46.0940 C   0  0  0  0  0  0  0  0  0  0  0  0
   58.5850   30.7780   46.6960 N   0  0  0  0  0  0  0  0  0  0  0  0
   59.5380   29.4790   46.0550 S   0  0  0  0  0  0  0  0  0  0  0  0
   59.8130   29.6830   44.5930 O   0  0  0  0  0  0  0  0  0  0  0  0
   60.8560   29.4480   46.7770 O   0  0  0  0  0  0  0  0  0  0  0  0
   58.7090   27.9490   46.3160 C   0  0  0  0  0  0  0  0  0  0  0  0
   57.3570   27.7340   46.1470 C   0  0  0  0  0  0  0  0  0  0  0  0
   57.1640   26.3930   46.4250 C   0  0  0  0  0  0  0  0  0  0  0  0
   55.8830   25.6800   46.3800 C   0  0  0  0  0  0  0  0  0  0  0  0
   55.8120   24.4720   46.7300 O   0  0  0  0  0  0  0  0  0  0  0  0
   54.7390   26.3390   45.9480 O   0  0  0  0  0  0  0  0  0  0  0  0
   58.3050   25.8240   46.7380 O   0  0  0  0  0  0  0  0  0  0  0  0
   59.2550   26.7310   46.6860 C   0  0  0  0  0  0  0  0  0  0  0  0
   60.6930   26.4260   46.9480 C   0  0  0  0  0  0  0  0  0  0  0  0
   56.8614   29.5095   44.2358 H   0  0  0  0  0  0  0  0  0  0  0  0
   55.8234   30.5251   43.1786 H   0  0  0  0  0  0  0  0  0  0  0  0
   57.6047   30.7571   43.1786 H   0  0  0  0  0  0  0  0  0  0  0  0
   56.8155   33.9853   43.8605 H   0  0  0  0  0  0  0  0  0  0  0  0
   58.5995   35.6237   44.4566 H   0  0  0  0  0  0  0  0  0  0  0  0
   60.3583   35.0107   46.1157 H   0  0  0  0  0  0  0  0  0  0  0  0
   60.3506   32.7515   47.1689 H   0  0  0  0  0  0  0  0  0  0  0  0
   57.7850   30.5120   47.3110 H   0  0  0  0  0  0  0  0  0  0  0  0
   56.5952   28.4714   45.8538 H   0  0  0  0  0  0  0  0  0  0  0  0
   60.8681   26.3889   48.0333 H   0  0  0  0  0  0  0  0  0  0  0  0
   60.9488   25.4536   46.5018 H   0  0  0  0  0  0  0  0  0  0  0  0
   61.3215   27.2108   46.5018 H   0  0  0  0  0  0  0  0  0  0  0  0
  1  2  1  0
  2  3  1  0
  3  4  2  0
  4  5  1  0
  5  6  2  0
  6  7  1  0
  7  8  2  0
  8  9  1  0
  9 10  1  0
 10 11  2  0
 10 12  2  0
 10 13  1  0
 13 14  1  0
 14 15  2  0
 15 16  1  0
 16 17  2  0
 16 18  1  0
 15 19  1  0
 19 20  1  0
 20 21  1  0
  8  3  1  0
 20 13  2  0
  1 22  1  0
  1 23  1  0
  1 24  1  0
  4 25  1  0
  5 26  1  0
  6 27  1  0
  7 28  1  0
  9 29  1  0
 14 30  1  0
 21 31  1  0
 21 32  1  0
 21 33  1  0
M  CHG  1  18  -1
M  END
>  <UniqueID>  (2) 
1

>  <SMILES>  (2) 
COc1ccccc1NS(=O)(=O)c1cc(C(=O)[O-])oc1C

>  <Energy>  (2) 
62.41158670581488

>  <Genealogy>  (2) 
COc1ccccc1NS(=O)(=O)c1cc(C(=O)[O-])oc1C (protonated)
COc1ccccc1NS(=O)(=O)c1cc(C(=O)[O-])oc1C (3D coordinates assigned)
COc1ccccc1NS(=O)(=O)c1cc(C(=O)[O-])oc1C (optimized conformer: 62.41158670581488 kcal/mol)

>  <smiles>  (2) 
COc1ccccc1NS(=O)(=O)c1cc(C(=O)O)oc1C

>  <score_type>  (2) 
oracle

>  <origin>  (2) 
adg

>  <m_score__min__energy>  (2) 
-9.6300000000000008

>  <m_primary>  (2) 
energy

$$$$
2:0
     RDKit          3D

 38 39  0  0  0  0  0  0  0  0999 V2000
   62.2100   34.5170   49.3620 C   0  0  0  0  0  0  0  0  0  0  0  0
   60.8890   34.9250   49.0180 O   0  0  0  0  0  0  0  0  0  0  0  0
   60.1340   34.3680   47.9750 C   0  0  0  0  0  0  0  0  0  0  0  0
   60.3970   34.6460   46.6210 C   0  0  0  0  0  0  0  0  0  0  0  0
   59.6180   34.0640   45.6160 C   0  0  0  0  0  0  0  0  0  0  0  0
   58.5660   33.1920   45.9440 C   0  0  0  0  0  0  0  0  0  0  0  0
   57.7280   32.5570   44.8980 C   0  0  0  0  0  0  0  0  0  0  0  0
   56.6790   31.9460   45.2430 O   0  0  0  0  0  0  0  0  0  0  0  0
   58.0980   32.6080   43.5090 N   0  0  0  0  0  0  0  0  0  0  0  0
   57.5040   31.7590   42.5140 C   0  0  0  0  0  0  0  0  0  0  0  0
   57.3020   32.3310   40.9950 S   0  0  0  0  0  0  0  0  0  0  0  0
   57.0870   30.4190   42.8200 N   0  0  0  0  0  0  0  0  0  0  0  0
   57.7590   29.5640   43.7620 C   0  0  0  0  0  0  0  0  0  0  0  0
   59.0920   29.8010   44.1440 C   0  0  0  0  0  0  0  0  0  0  0  0
   59.7170   28.9630   45.0720 C   0  0  0  0  0  0  0  0  0  0  0  0
   59.0280   27.8760   45.6120 C   0  0  0  0  0  0  0  0  0  0  0  0
   57.7100   27.6120   45.2180 C   0  0  0  0  0  0  0  0  0  0  0  0
   56.8330   26.2490   45.9070 S   0  0  0  0  0  0  0  0  0  0  0  0
   55.1570   26.6500   46.0380 N   0  0  0  0  0  0  0  0  0  0  0  0
   57.3780   25.9290   47.2710 O   0  0  0  0  0  0  0  0  0  0  0  0
   56.9950   25.0420   45.0270 O   0  0  0  0  0  0  0  0  0  0  0  0
   57.0810   28.4570   44.2930 C   0  0  0  0  0  0  0  0  0  0  0  0
   58.3010   32.9280   47.2980 C   0  0  0  0  0  0  0  0  0  0  0  0
   59.0810   33.5080   48.3010 C   0  0  0  0  0  0  0  0  0  0  0  0
   62.3107   34.4859   50.4569 H   0  0  0  0  0  0  0  0  0  0  0  0
   62.4046   33.5169   48.9473 H   0  0  0  0  0  0  0  0  0  0  0  0
   62.9346   35.2332   48.9473 H   0  0  0  0  0  0  0  0  0  0  0  0
   61.2197   35.3247   46.3516 H   0  0  0  0  0  0  0  0  0  0  0  0
   59.8303   34.2905   44.5607 H   0  0  0  0  0  0  0  0  0  0  0  0
   58.8040   33.3020   43.1840 H   0  0  0  0  0  0  0  0  0  0  0  0
   56.2640   30.0330   42.3040 H   0  0  0  0  0  0  0  0  0  0  0  0
   59.6441   30.6482   43.7112 H   0  0  0  0  0  0  0  0  0  0  0  0
   60.7550   29.1609   45.3776 H   0  0  0  0  0  0  0  0  0  0  0  0
   59.5212   27.2250   46.3488 H   0  0  0  0  0  0  0  0  0  0  0  0
   54.7770   26.6930   45.0670 H   0  0  0  0  0  0  0  0  0  0  0  0
   56.0467   28.2500   43.9809 H   0  0  0  0  0  0  0  0  0  0  0  0
   57.4719   32.2586   47.5708 H   0  0  0  0  0  0  0  0  0  0  0  0
   58.8650   33.2862   49.3565 H   0  0  0  0  0  0  0  0  0  0  0  0
  1  2  1  0
  2  3  1  0
  3  4  2  0
  4  5  1  0
  5  6  2  0
  6  7  1  0
  7  8  2  0
  7  9  1  0
  9 10  1  0
 10 11  2  0
 10 12  1  0
 12 13  1  0
 13 14  2  0
 14 15  1  0
 15 16  2  0
 16 17  1  0
 17 18  1  0
 18 19  1  0
 18 20  2  0
 18 21  2  0
 17 22  2  0
  6 23  1  0
 23 24  2  0
 24  3  1  0
 22 13  1  0
  1 25  1  0
  1 26  1  0
  1 27  1  0
  4 28  1  0
  5 29  1  0
  9 30  1  0
 12 31  1  0
 14 32  1  0
 15 33  1  0
 16 34  1  0
 19 35  1  0
 22 36  1  0
 23 37  1  0
 24 38  1  0
M  CHG  1  19  -1
M  END
>  <UniqueID>  (3) 
2

>  <SMILES>  (3) 
COc1ccc(C(=O)NC(=S)Nc2cccc(S([NH-])(=O)=O)c2)cc1

>  <Energy>  (3) 
45.72097672593805

>  <Genealogy>  (3) 
COc1ccc(C(=O)NC(=S)Nc2cccc(S([NH-])(=O)=O)c2)cc1 (protonated)
COc1ccc(C(=O)NC(=S)Nc2cccc(S([NH-])(=O)=O)c2)cc1 (3D coordinates assigned)
COc1ccc(C(=O)NC(=S)Nc2cccc(S([NH-])(=O)=O)c2)cc1 (optimized conformer: 45.72097672593805 kcal/mol)

>  <smiles>  (3) 
COc1ccc(C(=O)NC(=S)Nc2cccc(S(N)(=O)=O)c2)cc1

>  <score_type>  (3) 
oracle

>  <origin>  (3) 
adg

>  <m_score__min__energy>  (3) 
-11.43

>  <m_primary>  (3) 
energy

$$$$
3:0
     RDKit          3D

 51 53  0  0  1  0  0  0  0  0999 V2000
   60.3290   27.2120   48.8810 C   0  0  0  0  0  0  0  0  0  0  0  0
   60.5760   27.0900   47.4050 C   0  0  0  0  0  0  0  0  0  0  0  0
   59.4600   27.5380   46.6050 N   0  0  0  0  0  0  0  0  0  0  0  0
   58.5860   26.6020   45.9560 C   0  0  0  0  0  0  0  0  0  0  0  0
   57.1490   26.7170   46.3590 C   0  0  0  0  0  0  0  0  0  0  0  0
   59.2890   28.9680   46.5090 C   0  0  0  0  0  0  0  0  0  0  0  0
   60.1830   29.7560   47.1270 N   0  0  0  0  0  0  0  0  0  0  0  0
   60.1260   31.0890   47.1110 C   0  0  0  0  0  0  0  0  0  0  0  0
   61.1140   31.9470   47.7940 C   0  0  0  0  0  0  0  0  0  0  0  0
   61.6610   32.1540   48.7530 N   0  0  0  0  0  0  0  0  0  0  0  0
   62.5510   33.0190   49.1640 C   0  0  0  0  0  0  0  0  0  0  0  0
   63.2030   33.2090   50.4430 N   0  0  0  0  0  0  0  0  0  0  0  0
   64.4330   33.2790   50.6190 C   0  0  0  0  0  0  0  0  0  0  0  0
   65.2470   32.3420   49.9700 C   0  0  0  0  0  0  0  0  0  0  0  0
   66.6110   32.3950   50.1420 C   0  0  0  0  0  0  0  0  0  0  0  0
   67.1630   33.3700   50.9510 C   0  0  0  0  0  0  0  0  0  0  0  0
   66.3300   34.2780   51.5750 C   0  0  0  0  0  0  0  0  0  0  0  0
   65.0200   34.1960   51.3860 N   0  0  0  0  0  0  0  0  0  0  0  0
   62.8480   33.8390   48.1430 C   0  0  0  0  0  0  0  0  0  0  0  0
   61.8910   33.3620   46.7160 S   0  0  0  0  0  0  0  0  0  0  0  0
   59.1090   31.6950   46.4320 C   0  0  0  0  0  0  0  0  0  0  0  0
   58.1790   30.9050   45.7900 C   0  0  0  0  0  0  0  0  0  0  0  0
   57.2340   31.5000   45.1640 N   0  0  0  0  0  0  0  0  0  0  0  0
   57.0270   31.2090   43.7640 C   0  0  0  0  0  0  0  0  0  0  0  0
   56.0410   30.0690   43.5680 C   0  0  0  0  0  0  0  0  0  0  0  0
   55.5340   29.6960   44.8640 N   0  0  0  0  0  0  0  0  0  0  0  0
   58.2980   29.5510   45.8480 N   0  0  0  0  0  0  0  0  0  0  0  0
   61.1827   26.7903   49.4317 H   0  0  0  0  0  0  0  0  0  0  0  0
   60.2094   28.2728   49.1463 H   0  0  0  0  0  0  0  0  0  0  0  0
   59.4139   26.6623   49.1463 H   0  0  0  0  0  0  0  0  0  0  0  0
   61.4575   27.6951   47.1463 H   0  0  0  0  0  0  0  0  0  0  0  0
   60.7299   26.0232   47.1852 H   0  0  0  0  0  0  0  0  0  0  0  0
   58.6530   26.7645   44.8701 H   0  0  0  0  0  0  0  0  0  0  0  0
   58.9184   25.5986   46.2604 H   0  0  0  0  0  0  0  0  0  0  0  0
   57.0753   26.7229   47.4565 H   0  0  0  0  0  0  0  0  0  0  0  0
   56.7295   27.6516   45.9583 H   0  0  0  0  0  0  0  0  0  0  0  0
   56.5862   25.8610   45.9583 H   0  0  0  0  0  0  0  0  0  0  0  0
   64.7991   31.5695   49.3276 H   0  0  0  0  0  0  0  0  0  0  0  0
   67.2598   31.6640   49.6374 H   0  0  0  0  0  0  0  0  0  0  0  0
   68.2521   33.4223   51.0962 H   0  0  0  0  0  0  0  0  0  0  0  0
   66.7494   35.0619   52.2228 H   0  0  0  0  0  0  0  0  0  0  0  0
   64.4170   34.8830   51.8660 H   0  0  0  0  0  0  0  0  0  0  0  0
   63.5663   34.6713   48.1808 H   0  0  0  0  0  0  0  0  0  0  0  0
   59.0328   32.7918   46.3976 H   0  0  0  0  0  0  0  0  0  0  0  0
   56.6355   32.1087   43.2667 H   0  0  0  0  0  0  0  0  0  0  0  0
   57.9915   30.9074   43.3296 H   0  0  0  0  0  0  0  0  0  0  0  0
   55.2129   30.3976   42.9228 H   0  0  0  0  0  0  0  0  0  0  0  0
   56.5360   29.2117   43.0883 H   0  0  0  0  0  0  0  0  0  0  0  0
   56.1450   30.0760   45.6180 H   0  0  0  0  0  0  0  0  0  0  0  0
   54.5950   30.1330   44.9830 H   0  0  0  0  0  0  0  0  0  0  0  0
   57.5710   29.0090   45.3470 H   0  0  0  0  0  0  0  0  0  0  0  0
  1  2  1  0
  2  3  1  0
  3  4  1  0
  4  5  1  0
  3  6  1  0
  6  7  2  0
  7  8  1  0
  8  9  1  0
  9 10  2  0
 10 11  1  0
 11 12  1  0
 12 13  2  0
 13 14  1  0
 14 15  2  0
 15 16  1  0
 16 17  2  0
 17 18  1  0
 11 19  2  0
 19 20  1  0
  8 21  2  0
 21 22  1  0
 22 23  2  0
 23 24  1  0
 24 25  1  0
 25 26  1  0
 22 27  1  0
 27  6  1  0
 20  9  1  0
 18 13  1  0
  1 28  1  0
  1 29  1  0
  1 30  1  0
  2 31  1  0
  2 32  1  0
  4 33  1  0
  4 34  1  0
  5 35  1  0
  5 36  1  0
  5 37  1  0
 14 38  1  0
 15 39  1  0
 16 40  1  0
 17 41  1  0
 18 42  1  0
 19 43  1  0
 21 44  1  0
 24 45  1  0
 24 46  1  0
 25 47  1  0
 25 48  1  0
 26 49  1  0
 26 50  1  0
 27 51  1  0
M  END
>  <smiles>  (4) 
CCN(CC)c1nc(-c2nc(N=c3cccc[nH]3)cs2)cc(=NCCN)[nH]1

>  <score_type>  (4) 
oracle

>  <origin>  (4) 
adg

>  <m_score__min__energy>  (4) 
-7.1100000000000003

>  <m_primary>  (4) 
energy

$$$$
4:0
     RDKit          3D

 52 55  0  0  0  0  0  0  0  0999 V2000
   59.5190   34.6570   49.2860 O   0  0  0  0  0  0  0  0  0  0  0  0
   60.1110   33.9360   48.4350 C   0  0  0  0  0  0  0  0  0  0  0  0
   59.5430   33.8760   47.0560 C   0  0  0  0  0  0  0  0  0  0  0  0
   59.6270   34.9580   46.1610 C   0  0  0  0  0  0  0  0  0  0  0  0
   59.0960   34.8540   44.8750 C   0  0  0  0  0  0  0  0  0  0  0  0
   58.4840   33.6730   44.4580 C   0  0  0  0  0  0  0  0  0  0  0  0
   58.3960   32.5680   45.3240 C   0  0  0  0  0  0  0  0  0  0  0  0
   57.7650   31.3390   44.8920 N   0  0  0  0  0  0  0  0  0  0  0  0
   57.7960   30.0980   45.6520 C   0  0  0  0  0  0  0  0  0  0  0  0
   57.1670   29.0420   44.7540 C   0  0  0  0  0  0  0  0  0  0  0  0
   56.3980   29.8110   43.6870 C   0  0  0  0  0  0  0  0  0  0  0  0
   57.0230   31.1980   43.6470 C   0  0  0  0  0  0  0  0  0  0  0  0
   58.9370   32.6830   46.6210 C   0  0  0  0  0  0  0  0  0  0  0  0
   61.3030   33.2160   48.8490 N   0  0  1  0  0  0  0  0  0  0  0  0
   62.4280   33.4480   47.9030 C   0  0  0  0  0  0  0  0  0  0  0  0
   63.8140   33.3630   48.5710 C   0  0  0  0  0  0  0  0  0  0  0  0
   63.8330   32.2680   49.6550 C   0  0  1  0  0  0  0  0  0  0  0  0
   65.1850   32.1060   50.2460 N   0  0  0  0  0  0  0  0  0  0  0  0
   66.1180   33.0860   50.0170 C   0  0  0  0  0  0  0  0  0  0  0  0
   67.4040   32.9970   50.5520 C   0  0  0  0  0  0  0  0  0  0  0  0
   67.7460   31.8980   51.3320 C   0  0  0  0  0  0  0  0  0  0  0  0
   66.8050   30.9000   51.5670 C   0  0  0  0  0  0  0  0  0  0  0  0
   65.5220   31.0130   51.0180 C   0  0  0  0  0  0  0  0  0  0  0  0
   64.6910   30.0920   51.2400 O   0  0  0  0  0  0  0  0  0  0  0  0
   62.7490   32.4930   50.7410 C   0  0  0  0  0  0  0  0  0  0  0  0
   61.6450   33.4550   50.2700 C   0  0  0  0  0  0  0  0  0  0  0  0
   60.1145   35.8921   46.4771 H   0  0  0  0  0  0  0  0  0  0  0  0
   59.1607   35.7091   44.1860 H   0  0  0  0  0  0  0  0  0  0  0  0
   58.0662   33.6046   43.4427 H   0  0  0  0  0  0  0  0  0  0  0  0
   58.8332   29.8244   45.8955 H   0  0  0  0  0  0  0  0  0  0  0  0
   57.2528   30.1940   46.6037 H   0  0  0  0  0  0  0  0  0  0  0  0
   57.9464   28.4192   44.2907 H   0  0  0  0  0  0  0  0  0  0  0  0
   56.5087   28.3674   45.3211 H   0  0  0  0  0  0  0  0  0  0  0  0
   56.4997   29.3163   42.7098 H   0  0  0  0  0  0  0  0  0  0  0  0
   55.3230   29.8569   43.9156 H   0  0  0  0  0  0  0  0  0  0  0  0
   57.7012   31.2871   42.7855 H   0  0  0  0  0  0  0  0  0  0  0  0
   56.2585   31.9819   43.5422 H   0  0  0  0  0  0  0  0  0  0  0  0
   58.8843   31.8237   47.3057 H   0  0  0  0  0  0  0  0  0  0  0  0
   61.0610   32.1960   48.7880 H   0  0  0  0  0  0  0  0  0  0  0  0
   62.3769   32.6902   47.1073 H   0  0  0  0  0  0  0  0  0  0  0  0
   62.3179   34.4696   47.5104 H   0  0  0  0  0  0  0  0  0  0  0  0
   64.5688   33.1268   47.8065 H   0  0  0  0  0  0  0  0  0  0  0  0
   64.0374   34.3308   49.0437 H   0  0  0  0  0  0  0  0  0  0  0  0
   63.5801   31.3217   49.1544 H   0  0  0  0  0  0  0  0  0  0  0  0
   65.8477   33.9565   49.4013 H   0  0  0  0  0  0  0  0  0  0  0  0
   68.1412   33.7901   50.3581 H   0  0  0  0  0  0  0  0  0  0  0  0
   68.7556   31.8178   51.7613 H   0  0  0  0  0  0  0  0  0  0  0  0
   67.0680   30.0263   52.1813 H   0  0  0  0  0  0  0  0  0  0  0  0
   62.2917   31.5243   50.9910 H   0  0  0  0  0  0  0  0  0  0  0  0
   63.2377   32.9433   51.6175 H   0  0  0  0  0  0  0  0  0  0  0  0
   60.7471   33.3016   50.8867 H   0  0  0  0  0  0  0  0  0  0  0  0
   62.0120   34.4868   50.3732 H   0  0  0  0  0  0  0  0  0  0  0  0
  1  2  2  0
  2  3  1  0
  3  4  2  0
  4  5  1  0
  5  6  2  0
  6  7  1  0
  7  8  1  0
  8  9  1  0
  9 10  1  0
 10 11  1  0
 11 12  1  0
  7 13  2  0
  2 14  1  0
 14 15  1  0
 15 16  1  0
 16 17  1  0
 17 18  1  0
 18 19  1  0
 19 20  2  0
 20 21  1  0
 21 22  2  0
 22 23  1  0
 23 24  2  0
 17 25  1  0
 25 26  1  0
 13  3  1  0
 26 14  1  0
 12  8  1  0
 23 18  1  0
  4 27  1  0
  5 28  1  0
  6 29  1  0
  9 30  1  0
  9 31  1  0
 10 32  1  0
 10 33  1  0
 11 34  1  0
 11 35  1  0
 12 36  1  0
 12 37  1  0
 13 38  1  0
 14 39  1  6
 15 40  1  0
 15 41  1  0
 16 42  1  0
 16 43  1  0
 17 44  1  1
 19 45  1  0
 20 46  1  0
 21 47  1  0
 22 48  1  0
 25 49  1  0
 25 50  1  0
 26 51  1  0
 26 52  1  0
M  CHG  1  14   1
M  END
>  <UniqueID>  (5) 
3

>  <SMILES>  (5) 
O=C(c1cccc(N2CCCC2)c1)[NH+]1CCC(n2ccccc2=O)CC1

>  <Energy>  (5) 
76.17583575371766

>  <Genealogy>  (5) 
O=C(c1cccc(N2CCCC2)c1)[NH+]1CCC(n2ccccc2=O)CC1 (protonated)
O=C(c1cccc(N2CCCC2)c1)[NH+]1CCC(n2ccccc2=O)CC1 (3D coordinates assigned)
O=C(c1cccc(N2CCCC2)c1)[NH+]1CCC(n2ccccc2=O)CC1 (nonaromatic ring conformer: 76.17583575371766 kcal/mol)

>  <smiles>  (5) 
O=C(c1cccc(N2CCCC2)c1)N1CCC(n2ccccc2=O)CC1

>  <score_type>  (5) 
oracle

>  <origin>  (5) 
adg

>  <m_score__min__energy>  (5) 
-7.3600000000000003

>  <m_primary>  (5) 
energy

$$$$
5:0
     RDKit          3D

 60 62  0  0  0  0  0  0  0  0999 V2000
   60.8689   28.1789   46.6068 H   0  0  0  0  0  0  0  0  0  0  0  0
   59.8220   28.3240   46.3020 C   0  0  0  0  0  0  0  0  0  0  0  0
   59.1240   29.4810   46.6930 C   0  0  0  0  0  0  0  0  0  0  0  0
   59.7680   30.5390   47.5140 C   0  0  0  0  0  0  0  0  0  0  0  0
   59.0310   31.2820   48.4540 C   0  0  0  0  0  0  0  0  0  0  0  0
   57.9584   31.0790   48.5895 H   0  0  0  0  0  0  0  0  0  0  0  0
   59.6480   32.2730   49.2150 C   0  0  0  0  0  0  0  0  0  0  0  0
   59.0587   32.8455   49.9464 H   0  0  0  0  0  0  0  0  0  0  0  0
   61.0130   32.5460   49.0560 C   0  0  0  0  0  0  0  0  0  0  0  0
   61.6440   33.6110   49.8610 C   0  0  0  0  0  0  0  0  0  0  0  0
   62.0080   34.6750   49.2950 O   0  0  0  0  0  0  0  0  0  0  0  0
   61.8400   33.4760   51.2760 N   0  0  0  0  0  0  0  0  0  0  0  0
   62.2990   32.2640   51.9530 C   0  0  0  0  0  0  0  0  0  0  0  0
   62.2925   32.4331   53.0399 H   0  0  0  0  0  0  0  0  0  0  0  0
   61.6240   31.4357   51.6915 H   0  0  0  0  0  0  0  0  0  0  0  0
   63.7260   31.8990   51.5070 C   0  0  0  0  0  0  0  0  0  0  0  0
   64.3644   31.8164   52.3990 H   0  0  0  0  0  0  0  0  0  0  0  0
   63.6724   30.9465   50.9594 H   0  0  0  0  0  0  0  0  0  0  0  0
   64.3110   32.9120   50.5950 N   0  0  0  0  0  0  0  0  0  0  0  0
   63.5930   33.1950   49.8860 H   0  0  0  0  0  0  0  0  0  0  0  0
   64.7520   34.1120   51.3260 C   0  0  0  0  0  0  0  0  0  0  0  0
   64.6842   33.9276   52.4083 H   0  0  0  0  0  0  0  0  0  0  0  0
   65.7936   34.3426   51.0578 H   0  0  0  0  0  0  0  0  0  0  0  0
   64.1076   34.9622   51.0578 H   0  0  0  0  0  0  0  0  0  0  0  0
   65.4510   32.3290   49.8650 C   0  0  0  0  0  0  0  0  0  0  0  0
   66.1919   31.9501   50.5844 H   0  0  0  0  0  0  0  0  0  0  0  0
   65.0970   31.5013   49.2329 H   0  0  0  0  0  0  0  0  0  0  0  0
   65.9149   33.1005   49.2329 H   0  0  0  0  0  0  0  0  0  0  0  0
   61.7750   31.7950   48.1440 C   0  0  0  0  0  0  0  0  0  0  0  0
   63.1440   32.0830   48.0110 O   0  0  0  0  0  0  0  0  0  0  0  0
   63.6860   33.0360   47.1030 C   0  0  0  0  0  0  0  0  0  0  0  0
   64.1526   33.8565   47.6678 H   0  0  0  0  0  0  0  0  0  0  0  0
   64.4428   32.5499   46.4698 H   0  0  0  0  0  0  0  0  0  0  0  0
   62.8814   33.4380   46.4698 H   0  0  0  0  0  0  0  0  0  0  0  0
   61.1450   30.7920   47.3790 C   0  0  0  0  0  0  0  0  0  0  0  0
   61.7384   30.1995   46.6671 H   0  0  0  0  0  0  0  0  0  0  0  0
   57.8210   29.6250   46.3190 N   0  0  0  0  0  0  0  0  0  0  0  0
   57.1700   28.6960   45.5600 C   0  0  0  0  0  0  0  0  0  0  0  0
   55.9270   28.8640   45.2170 N   0  0  0  0  0  0  0  0  0  0  0  0
   55.4690   29.7350   44.1350 C   0  0  0  0  0  0  0  0  0  0  0  0
   55.3412   29.1369   43.2207 H   0  0  0  0  0  0  0  0  0  0  0  0
   54.5133   30.1916   44.4317 H   0  0  0  0  0  0  0  0  0  0  0  0
   56.4660   30.8330   43.8710 C   0  0  0  0  0  0  0  0  0  0  0  0
   57.0640   30.9610   42.6070 C   0  0  0  0  0  0  0  0  0  0  0  0
   56.8316   30.2339   41.8150 H   0  0  0  0  0  0  0  0  0  0  0  0
   57.9530   32.0080   42.3510 C   0  0  0  0  0  0  0  0  0  0  0  0
   58.4110   32.1074   41.3559 H   0  0  0  0  0  0  0  0  0  0  0  0
   58.2620   32.9290   43.3550 C   0  0  0  0  0  0  0  0  0  0  0  0
   58.9636   33.7506   43.1485 H   0  0  0  0  0  0  0  0  0  0  0  0
   57.6800   32.8090   44.6260 C   0  0  0  0  0  0  0  0  0  0  0  0
   57.9740   33.8220   45.6920 C   0  0  0  0  0  0  0  0  0  0  0  0
   57.8404   33.3617   46.6821 H   0  0  0  0  0  0  0  0  0  0  0  0
   59.0112   34.1733   45.5879 H   0  0  0  0  0  0  0  0  0  0  0  0
   57.2861   34.6740   45.5879 H   0  0  0  0  0  0  0  0  0  0  0  0
   56.7640   31.7750   44.8710 C   0  0  0  0  0  0  0  0  0  0  0  0
   56.2750   31.7008   45.8535 H   0  0  0  0  0  0  0  0  0  0  0  0
   57.8470   27.5460   45.1460 C   0  0  0  0  0  0  0  0  0  0  0  0
   57.3360   26.7935   44.5275 H   0  0  0  0  0  0  0  0  0  0  0  0
   59.1760   27.3610   45.5240 C   0  0  0  0  0  0  0  0  0  0  0  0
   59.7161   26.4559   45.2092 H   0  0  0  0  0  0  0  0  0  0  0  0
  1  2  1  0
  2  3  2  0
  3  4  1  0
  4  5  2  0
  5  6  1  0
  5  7  1  0
  7  8  1  0
  7  9  2  0
  9 10  1  0
 10 11  2  0
 10 12  1  0
 12 13  1  0
 13 14  1  0
 13 15  1  0
 13 16  1  0
 16 17  1  0
 16 18  1  0
 16 19  1  0
 19 20  1  0
 19 21  1  0
 21 22  1  0
 21 23  1  0
 21 24  1  0
 19 25  1  0
 25 26  1  0
 25 27  1  0
 25 28  1  0
  9 29  1  0
 29 30  1  0
 30 31  1  0
 31 32  1  0
 31 33  1  0
 31 34  1  0
 29 35  2  0
 35 36  1  0
  3 37  1  0
 37 38  1  0
 38 39  2  0
 39 40  1  0
 40 41  1  0
 40 42  1  0
 40 43  1  0
 43 44  2  0
 44 45  1  0
 44 46  1  0
 46 47  1  0
 46 48  2  0
 48 49  1  0
 48 50  1  0
 50 51  1  0
 51 52  1  0
 51 53  1  0
 51 54  1  0
 50 55  2  0
 55 56  1  0
 38 57  1  0
 57 58  1  0
 57 59  2  0
 59 60  1  0
 59  2  1  0
 35  4  1  0
 55 43  1  0
M  CHG  3  12  -1  19   1  37  -1
M  END
>  <UniqueID>  (6) 
4

>  <SMILES>  (6) 
COc1cc(-c2ccc/c(=N/Cc3cccc(C)c3)[n-]2)ccc1C(=O)[N-]CC[NH+](C)C

>  <Energy>  (6) 
65.65450835519847

>  <Genealogy>  (6) 
COc1cc(-c2cccc(=NCc3cccc(C)c3)[n-]2)ccc1C(=O)[N-]CC[NH+](C)C (protonated)
COc1cc(-c2ccc/c(=N/Cc3cccc(C)c3)[n-]2)ccc1C(=O)[N-]CC[NH+](C)C (cis-trans isomerization)
COc1cc(-c2ccc/c(=N/Cc3cccc(C)c3)[n-]2)ccc1C(=O)[N-]CC[NH+](C)C (3D coordinates assigned)
COc1cc(-c2ccc/c(=N/Cc3cccc(C)c3)[n-]2)ccc1C(=O)[N-]CC[NH+](C)C (optimized conformer: 65.65450835519847 kcal/mol)

>  <smiles>  (6) 
COc1cc(-c2cccc(=NCc3cccc(C)c3)[nH]2)ccc1C(=O)NCCN(C)C

>  <score_type>  (6) 
oracle

>  <origin>  (6) 
adg

>  <m_score__min__energy>  (6) 
-9.3800000000000008

>  <m_primary>  (6) 
energy

$$$$
6:0
     RDKit          3D

 23 24  0  0  0  0  0  0  0  0999 V2000
   55.4820   29.6970   43.2550 N   0  0  0  0  0  0  0  0  0  0  0  0
   56.4370   30.2760   43.9000 C   0  0  0  0  0  0  0  0  0  0  0  0
   56.3810   31.2100   44.8620 N   0  0  0  0  0  0  0  0  0  0  0  0
   57.6400   31.5430   45.2650 C   0  0  0  0  0  0  0  0  0  0  0  0
   57.8830   32.5500   46.3150 C   0  0  0  0  0  0  0  0  0  0  0  0
   59.3460   32.6180   46.5920 C   0  0  0  0  0  0  0  0  0  0  0  0
   60.0230   31.6450   47.3050 C   0  0  0  0  0  0  0  0  0  0  0  0
   59.2080   30.2190   47.9060 Cl  0  0  0  0  0  0  0  0  0  0  0  0
   61.3830   31.7490   47.5660 C   0  0  0  0  0  0  0  0  0  0  0  0
   62.1110   32.8300   47.1220 C   0  0  0  0  0  0  0  0  0  0  0  0
   61.4400   33.8130   46.4050 C   0  0  0  0  0  0  0  0  0  0  0  0
   60.0900   33.7180   46.1400 C   0  0  0  0  0  0  0  0  0  0  0  0
   59.2850   34.9960   45.2260 Cl  0  0  0  0  0  0  0  0  0  0  0  0
   58.4540   30.7900   44.5230 N   0  0  0  0  0  0  0  0  0  0  0  0
   57.7620   30.0160   43.6910 N   0  0  0  0  0  0  0  0  0  0  0  0
   55.5240   29.5810   42.2160 H   0  0  0  0  0  0  0  0  0  0  0  0
   57.5262   33.5328   45.9733 H   0  0  0  0  0  0  0  0  0  0  0  0
   57.3436   32.2692   47.2316 H   0  0  0  0  0  0  0  0  0  0  0  0
   61.8868   30.9549   48.1367 H   0  0  0  0  0  0  0  0  0  0  0  0
   63.1883   32.9127   47.3281 H   0  0  0  0  0  0  0  0  0  0  0  0
   61.9987   34.6875   46.0402 H   0  0  0  0  0  0  0  0  0  0  0  0
   59.4930   30.7790   44.5520 H   0  0  0  0  0  0  0  0  0  0  0  0
   58.1340   29.3250   42.9940 H   0  0  0  0  0  0  0  0  0  0  0  0
  1  2  2  3
  2  3  1  0
  3  4  2  0
  4  5  1  0
  5  6  1  0
  6  7  2  0
  7  8  1  0
  7  9  1  0
  9 10  2  0
 10 11  1  0
 11 12  2  0
 12 13  1  0
  4 14  1  0
 14 15  1  0
 15  2  1  0
 12  6  1  0
  1 16  1  0
  5 17  1  0
  5 18  1  0
  9 19  1  0
 10 20  1  0
 11 21  1  0
 14 22  1  0
 15 23  1  0
M  END
>  <smiles>  (7) 
N=c1nc(Cc2c(Cl)cccc2Cl)[nH][nH]1

>  <score_type>  (7) 
oracle

>  <origin>  (7) 
adg

>  <m_score__min__energy>  (7) 
-6.2199999999999998

>  <m_primary>  (7) 
energy

$$$$
7:0
     RDKit          3D

 38 40  0  0  0  0  0  0  0  0999 V2000
   59.5340   32.9650   51.0740 C   0  0  0  0  0  0  0  0  0  0  0  0
   59.3320   33.3540   49.6480 C   0  0  0  0  0  0  0  0  0  0  0  0
   58.8650   32.5330   48.6450 C   0  0  0  0  0  0  0  0  0  0  0  0
   58.9260   33.3320   47.5170 C   0  0  0  0  0  0  0  0  0  0  0  0
   58.5440   32.9700   46.1320 C   0  0  0  0  0  0  0  0  0  0  0  0
   58.9620   33.7750   45.0650 C   0  0  0  0  0  0  0  0  0  0  0  0
   58.6160   33.4490   43.7530 C   0  0  0  0  0  0  0  0  0  0  0  0
   57.8400   32.3120   43.4770 C   0  0  0  0  0  0  0  0  0  0  0  0
   57.4980   31.9980   42.0450 C   0  0  0  0  0  0  0  0  0  0  0  0
   57.4370   31.4750   44.5450 C   0  0  0  0  0  0  0  0  0  0  0  0
   56.5020   29.9920   44.2730 S   0  0  0  0  0  0  0  0  0  0  0  0
   55.0450   30.3460   44.1790 O   0  0  0  0  0  0  0  0  0  0  0  0
   56.9290   29.3160   43.0010 O   0  0  0  0  0  0  0  0  0  0  0  0
   56.7190   28.8800   45.5860 N   0  0  0  0  0  0  0  0  0  0  0  0
   57.9900   28.3630   45.9970 C   0  0  0  0  0  0  0  0  0  0  0  0
   58.6680   28.7570   47.1630 C   0  0  0  0  0  0  0  0  0  0  0  0
   59.8600   28.0730   47.3650 C   0  0  0  0  0  0  0  0  0  0  0  0
   60.0680   26.9820   46.1020 S   0  0  0  0  0  0  0  0  0  0  0  0
   58.6590   27.3810   45.2760 C   0  0  0  0  0  0  0  0  0  0  0  0
   58.1620   26.6970   44.0440 C   0  0  0  0  0  0  0  0  0  0  0  0
   57.7720   31.8280   45.8620 C   0  0  0  0  0  0  0  0  0  0  0  0
   59.4040   34.5070   47.8650 O   0  0  0  0  0  0  0  0  0  0  0  0
   59.6650   34.5550   49.1380 N   0  0  0  0  0  0  0  0  0  0  0  0
   59.1268   33.7492   51.7292 H   0  0  0  0  0  0  0  0  0  0  0  0
   59.0150   32.0156   51.2721 H   0  0  0  0  0  0  0  0  0  0  0  0
   60.6092   32.8434   51.2721 H   0  0  0  0  0  0  0  0  0  0  0  0
   58.5245   31.4899   48.7225 H   0  0  0  0  0  0  0  0  0  0  0  0
   59.5680   34.6715   45.2627 H   0  0  0  0  0  0  0  0  0  0  0  0
   58.9550   34.0900   42.9258 H   0  0  0  0  0  0  0  0  0  0  0  0
   56.6880   31.2543   42.0161 H   0  0  0  0  0  0  0  0  0  0  0  0
   57.1706   32.9167   41.5363 H   0  0  0  0  0  0  0  0  0  0  0  0
   58.3855   31.5935   41.5363 H   0  0  0  0  0  0  0  0  0  0  0  0
   58.2919   29.5309   47.8483 H   0  0  0  0  0  0  0  0  0  0  0  0
   60.5509   28.2200   48.2082 H   0  0  0  0  0  0  0  0  0  0  0  0
   57.5374   25.8374   44.3285 H   0  0  0  0  0  0  0  0  0  0  0  0
   57.5648   27.4030   43.4483 H   0  0  0  0  0  0  0  0  0  0  0  0
   59.0180   26.3471   43.4483 H   0  0  0  0  0  0  0  0  0  0  0  0
   57.4243   31.2002   46.6957 H   0  0  0  0  0  0  0  0  0  0  0  0
  1  2  1  0
  2  3  1  0
  3  4  2  0
  4  5  1  0
  5  6  2  0
  6  7  1  0
  7  8  2  0
  8  9  1  0
  8 10  1  0
 10 11  1  0
 11 12  2  0
 11 13  2  0
 11 14  1  0
 14 15  1  0
 15 16  1  0
 16 17  2  0
 17 18  1  0
 18 19  1  0
 19 20  1  0
 10 21  2  0
  4 22  1  0
 22 23  1  0
 23  2  2  0
 21  5  1  0
 19 15  2  0
  1 24  1  0
  1 25  1  0
  1 26  1  0
  3 27  1  0
  6 28  1  0
  7 29  1  0
  9 30  1  0
  9 31  1  0
  9 32  1  0
 16 33  1  0
 17 34  1  0
 20 35  1  0
 20 36  1  0
 20 37  1  0
 21 38  1  0
M  CHG  1  14  -1
M  END
>  <UniqueID>  (8) 
5

>  <SMILES>  (8) 
Cc1cc(-c2ccc(C)c(S(=O)(=O)[N-]c3ccsc3C)c2)on1

>  <Energy>  (8) 
97.83642690329894

>  <Genealogy>  (8) 
Cc1cc(-c2ccc(C)c(S(=O)(=O)[N-]c3ccsc3C)c2)on1 (protonated)
Cc1cc(-c2ccc(C)c(S(=O)(=O)[N-]c3ccsc3C)c2)on1 (3D coordinates assigned)
Cc1cc(-c2ccc(C)c(S(=O)(=O)[N-]c3ccsc3C)c2)on1 (optimized conformer: 97.83642690329894 kcal/mol)

>  <smiles>  (8) 
Cc1cc(-c2ccc(C)c(S(=O)(=O)Nc3ccsc3C)c2)on1

>  <score_type>  (8) 
oracle

>  <origin>  (8) 
adg

>  <m_score__min__energy>  (8) 
-10.289999999999999

>  <m_primary>  (8) 
energy

$$$$
8:0
     RDKit          3D

 46 49  0  0  0  0  0  0  0  0999 V2000
   56.3250   22.0320   48.9630 C   0  0  0  0  0  0  0  0  0  0  0  0
   57.3890   22.3950   48.0890 O   0  0  0  0  0  0  0  0  0  0  0  0
   57.3930   23.5430   47.2810 C   0  0  0  0  0  0  0  0  0  0  0  0
   57.3560   23.3770   45.8930 C   0  0  0  0  0  0  0  0  0  0  0  0
   57.3590   24.4890   45.0440 C   0  0  0  0  0  0  0  0  0  0  0  0
   57.3990   25.7870   45.5770 C   0  0  0  0  0  0  0  0  0  0  0  0
   57.4050   26.9650   44.6880 C   0  0  0  0  0  0  0  0  0  0  0  0
   57.9890   27.0010   43.4710 N   0  0  0  0  0  0  0  0  0  0  0  0
   57.7730   28.2220   43.0110 N   0  0  0  0  0  0  0  0  0  0  0  0
   57.0770   28.8890   43.9470 C   0  0  0  0  0  0  0  0  0  0  0  0
   56.6130   30.3050   43.8160 C   0  0  0  0  0  0  0  0  0  0  0  0
   56.7460   30.9950   45.0590 O   0  0  0  0  0  0  0  0  0  0  0  0
   57.9610   31.3990   45.6350 C   0  0  0  0  0  0  0  0  0  0  0  0
   58.8140   30.4140   46.1410 C   0  0  0  0  0  0  0  0  0  0  0  0
   60.0390   30.7590   46.7180 C   0  0  0  0  0  0  0  0  0  0  0  0
   60.4340   32.1060   46.8010 C   0  0  0  0  0  0  0  0  0  0  0  0
   61.7370   32.4750   47.4110 C   0  0  0  0  0  0  0  0  0  0  0  0
   62.2070   31.8060   48.5580 C   0  0  0  0  0  0  0  0  0  0  0  0
   63.4340   32.1560   49.1290 C   0  0  0  0  0  0  0  0  0  0  0  0
   64.2060   33.1740   48.5650 C   0  0  0  0  0  0  0  0  0  0  0  0
   63.7510   33.8440   47.4270 C   0  0  0  0  0  0  0  0  0  0  0  0
   62.5250   33.4990   46.8510 C   0  0  0  0  0  0  0  0  0  0  0  0
   59.5740   33.0980   46.2970 C   0  0  0  0  0  0  0  0  0  0  0  0
   58.3480   32.7500   45.7200 C   0  0  0  0  0  0  0  0  0  0  0  0
   56.8410   28.1170   44.9810 O   0  0  0  0  0  0  0  0  0  0  0  0
   57.4360   25.9550   46.9690 C   0  0  0  0  0  0  0  0  0  0  0  0
   57.4330   24.8430   47.8170 C   0  0  0  0  0  0  0  0  0  0  0  0
   56.6535   22.1441   50.0068 H   0  0  0  0  0  0  0  0  0  0  0  0
   55.4598   22.6858   48.7787 H   0  0  0  0  0  0  0  0  0  0  0  0
   56.0398   20.9857   48.7787 H   0  0  0  0  0  0  0  0  0  0  0  0
   57.3243   22.3641   45.4653 H   0  0  0  0  0  0  0  0  0  0  0  0
   57.3299   24.3455   43.9538 H   0  0  0  0  0  0  0  0  0  0  0  0
   58.0970   28.5790   42.0850 H   0  0  0  0  0  0  0  0  0  0  0  0
   57.2194   30.8149   43.0529 H   0  0  0  0  0  0  0  0  0  0  0  0
   55.5529   30.3048   43.5224 H   0  0  0  0  0  0  0  0  0  0  0  0
   58.5178   29.3561   46.0844 H   0  0  0  0  0  0  0  0  0  0  0  0
   60.6991   29.9712   47.1101 H   0  0  0  0  0  0  0  0  0  0  0  0
   61.6045   31.0028   49.0074 H   0  0  0  0  0  0  0  0  0  0  0  0
   63.7925   31.6281   50.0250 H   0  0  0  0  0  0  0  0  0  0  0  0
   65.1711   33.4478   49.0163 H   0  0  0  0  0  0  0  0  0  0  0  0
   64.3593   34.6456   46.9827 H   0  0  0  0  0  0  0  0  0  0  0  0
   62.1735   34.0308   45.9545 H   0  0  0  0  0  0  0  0  0  0  0  0
   59.8678   34.1564   46.3570 H   0  0  0  0  0  0  0  0  0  0  0  0
   57.6834   33.5354   45.3310 H   0  0  0  0  0  0  0  0  0  0  0  0
   57.4676   26.9681   47.3965 H   0  0  0  0  0  0  0  0  0  0  0  0
   57.4620   24.9854   48.9074 H   0  0  0  0  0  0  0  0  0  0  0  0
  1  2  1  0
  2  3  1  0
  3  4  2  0
  4  5  1  0
  5  6  2  0
  6  7  1  0
  7  8  2  0
  8  9  1  0
  9 10  2  0
 10 11  1  0
 11 12  1  0
 12 13  1  0
 13 14  2  0
 14 15  1  0
 15 16  2  0
 16 17  1  0
 17 18  2  0
 18 19  1  0
 19 20  2  0
 20 21  1  0
 21 22  2  0
 16 23  1  0
 23 24  2  0
 10 25  1  0
  6 26  1  0
 26 27  2  0
 27  3  1  0
 25  7  1  0
 24 13  1  0
 22 17  1  0
  1 28  1  0
  1 29  1  0
  1 30  1  0
  4 31  1  0
  5 32  1  0
  9 33  1  0
 11 34  1  0
 11 35  1  0
 14 36  1  0
 15 37  1  0
 18 38  1  0
 19 39  1  0
 20 40  1  0
 21 41  1  0
 22 42  1  0
 23 43  1  0
 24 44  1  0
 26 45  1  0
 27 46  1  0
M  CHG  1   9   1
M  END
>  <UniqueID>  (9) 
6

>  <SMILES>  (9) 
COc1ccc(-c2n[nH+]c(COc3ccc(-c4ccccc4)cc3)o2)cc1

>  <Energy>  (9) 
89.64981628725897

>  <Genealogy>  (9) 
COc1ccc(-c2n[nH+]c(COc3ccc(-c4ccccc4)cc3)o2)cc1 (protonated)
COc1ccc(-c2n[nH+]c(COc3ccc(-c4ccccc4)cc3)o2)cc1 (3D coordinates assigned)
COc1ccc(-c2n[nH+]c(COc3ccc(-c4ccccc4)cc3)o2)cc1 (optimized conformer: 89.64981628725897 kcal/mol)

>  <smiles>  (9) 
COc1ccc(-c2nnc(COc3ccc(-c4ccccc4)cc3)o2)cc1

>  <score_type>  (9) 
oracle

>  <origin>  (9) 
adg

>  <m_score__min__energy>  (9) 
-7.29

>  <m_primary>  (9) 
energy

$$$$
9:0
     RDKit          3D

 42 44  0  0  0  0  0  0  0  0999 V2000
   60.3320   28.9170   44.9810 C   0  0  0  0  0  0  0  0  0  0  0  0
   60.0390   29.1960   46.4510 C   0  0  0  0  0  0  0  0  0  0  0  0
   58.7250   28.7560   46.7970 O   0  0  0  0  0  0  0  0  0  0  0  0
   58.2070   27.4700   46.5620 C   0  0  0  0  0  0  0  0  0  0  0  0
   58.8640   26.3010   46.9970 C   0  0  0  0  0  0  0  0  0  0  0  0
   58.2980   25.0460   46.7640 C   0  0  0  0  0  0  0  0  0  0  0  0
   57.0770   24.9410   46.0980 C   0  0  0  0  0  0  0  0  0  0  0  0
   56.4190   26.0910   45.6570 C   0  0  0  0  0  0  0  0  0  0  0  0
   56.9810   27.3610   45.8820 C   0  0  0  0  0  0  0  0  0  0  0  0
   56.3140   28.5610   45.4670 N   0  0  0  0  0  0  0  0  0  0  0  0
   56.5710   29.3570   43.9480 S   0  0  0  0  0  0  0  0  0  0  0  0
   55.2510   29.5260   43.2470 O   0  0  0  0  0  0  0  0  0  0  0  0
   57.4780   28.5140   43.0980 O   0  0  0  0  0  0  0  0  0  0  0  0
   57.3360   30.9200   44.2190 C   0  0  0  0  0  0  0  0  0  0  0  0
   57.5320   31.8040   43.1530 C   0  0  0  0  0  0  0  0  0  0  0  0
   58.1250   33.0480   43.3710 C   0  0  0  0  0  0  0  0  0  0  0  0
   58.5250   33.4300   44.6610 C   0  0  0  0  0  0  0  0  0  0  0  0
   59.0980   34.6500   44.8670 N   0  0  0  0  0  0  0  0  0  0  0  0
   59.4920   35.0530   46.1050 C   0  0  0  0  0  0  0  0  0  0  0  0
   60.0220   36.1860   46.2590 O   0  0  0  0  0  0  0  0  0  0  0  0
   59.3120   34.2180   47.2080 C   0  0  0  0  0  0  0  0  0  0  0  0
   58.7270   32.9540   47.0460 C   0  0  0  0  0  0  0  0  0  0  0  0
   58.5290   32.0780   48.2570 C   0  0  0  0  0  0  0  0  0  0  0  0
   58.3300   32.5420   45.7510 C   0  0  0  0  0  0  0  0  0  0  0  0
   57.7460   31.2830   45.5090 C   0  0  0  0  0  0  0  0  0  0  0  0
   61.1266   28.1604   44.9027 H   0  0  0  0  0  0  0  0  0  0  0  0
   59.4210   28.5442   44.4899 H   0  0  0  0  0  0  0  0  0  0  0  0
   60.6598   29.8451   44.4899 H   0  0  0  0  0  0  0  0  0  0  0  0
   60.7735   28.6632   47.0729 H   0  0  0  0  0  0  0  0  0  0  0  0
   60.1058   30.2801   46.6250 H   0  0  0  0  0  0  0  0  0  0  0  0
   59.8273   26.3779   47.5226 H   0  0  0  0  0  0  0  0  0  0  0  0
   58.8162   24.1381   47.1064 H   0  0  0  0  0  0  0  0  0  0  0  0
   56.6318   23.9510   45.9199 H   0  0  0  0  0  0  0  0  0  0  0  0
   55.4568   26.0035   45.1312 H   0  0  0  0  0  0  0  0  0  0  0  0
   57.2174   31.5173   42.1387 H   0  0  0  0  0  0  0  0  0  0  0  0
   58.2802   33.7345   42.5256 H   0  0  0  0  0  0  0  0  0  0  0  0
   59.2430   35.2990   44.0600 H   0  0  0  0  0  0  0  0  0  0  0  0
   59.6296   34.5519   48.2068 H   0  0  0  0  0  0  0  0  0  0  0  0
   58.6645   32.6775   49.1693 H   0  0  0  0  0  0  0  0  0  0  0  0
   57.5130   31.6567   48.2426 H   0  0  0  0  0  0  0  0  0  0  0  0
   59.2651   31.2607   48.2426 H   0  0  0  0  0  0  0  0  0  0  0  0
   57.6103   30.5772   46.3417 H   0  0  0  0  0  0  0  0  0  0  0  0
  1  2  1  0
  2  3  1  0
  3  4  1  0
  4  5  2  0
  5  6  1  0
  6  7  2  0
  7  8  1  0
  8  9  2  0
  9 10  1  0
 10 11  1  0
 11 12  2  0
 11 13  2  0
 11 14  1  0
 14 15  2  0
 15 16  1  0
 16 17  2  0
 17 18  1  0
 18 19  1  0
 19 20  2  0
 19 21  1  0
 21 22  2  0
 22 23  1  0
 22 24  1  0
 24 25  2  0
  9  4  1  0
 25 14  1  0
 24 17  1  0
  1 26  1  0
  1 27  1  0
  1 28  1  0
  2 29  1  0
  2 30  1  0
  5 31  1  0
  6 32  1  0
  7 33  1  0
  8 34  1  0
 15 35  1  0
 16 36  1  0
 18 37  1  0
 21 38  1  0
 23 39  1  0
 23 40  1  0
 23 41  1  0
 25 42  1  0
M  CHG  1  10  -1
M  END
>  <UniqueID>  (10) 
7

>  <SMILES>  (10) 
CCOc1ccccc1[N-]S(=O)(=O)c1ccc2[nH]c(=O)cc(C)c2c1

>  <Energy>  (10) 
49.99461223270123

>  <Genealogy>  (10) 
CCOc1ccccc1[N-]S(=O)(=O)c1ccc2[nH]c(=O)cc(C)c2c1 (protonated)
CCOc1ccccc1[N-]S(=O)(=O)c1ccc2[nH]c(=O)cc(C)c2c1 (3D coordinates assigned)
CCOc1ccccc1[N-]S(=O)(=O)c1ccc2[nH]c(=O)cc(C)c2c1 (optimized conformer: 49.99461223270123 kcal/mol)

>  <smiles>  (10) 
CCOc1ccccc1NS(=O)(=O)c1ccc2[nH]c(=O)cc(C)c2c1

>  <score_type>  (10) 
oracle

>  <origin>  (10) 
adg

>  <m_score__min__energy>  (10) 
-10.52

>  <m_primary>  (10) 
energy

$$$$
10:0
     RDKit          3D

 41 43  0  0  1  0  0  0  0  0999 V2000
   60.2010   29.5990   48.5410 C   0  0  0  0  0  0  0  0  0  0  0  0
   60.0940   31.0100   48.4650 O   0  0  0  0  0  0  0  0  0  0  0  0
   61.1840   31.8220   48.1610 C   0  0  0  0  0  0  0  0  0  0  0  0
   62.2370   31.2190   47.4530 C   0  0  0  0  0  0  0  0  0  0  0  0
   63.3600   31.9990   47.1240 C   0  0  0  0  0  0  0  0  0  0  0  0
   63.4310   33.3260   47.4880 C   0  0  0  0  0  0  0  0  0  0  0  0
   62.3800   33.8800   48.1800 C   0  0  0  0  0  0  0  0  0  0  0  0
   61.2540   33.1520   48.5250 C   0  0  0  0  0  0  0  0  0  0  0  0
   60.1120   33.7670   49.2630 C   0  0  0  0  0  0  0  0  0  0  0  0
   59.3240   34.6010   48.3710 N   0  0  0  0  0  0  0  0  0  0  0  0
   59.0250   34.1660   47.1820 C   0  0  0  0  0  0  0  0  0  0  0  0
   58.2930   33.0190   46.9750 C   0  0  0  0  0  0  0  0  0  0  0  0
   58.0350   32.6700   45.6620 C   0  0  0  0  0  0  0  0  0  0  0  0
   57.3300   31.5090   45.2890 N   0  0  0  0  0  0  0  0  0  0  0  0
   57.9180   30.2540   45.0230 C   0  0  0  0  0  0  0  0  0  0  0  0
   57.1400   29.1990   44.5820 C   0  0  0  0  0  0  0  0  0  0  0  0
   57.7490   27.9730   44.2920 C   0  0  0  0  0  0  0  0  0  0  0  0
   59.1040   27.8790   44.4620 C   0  0  0  0  0  0  0  0  0  0  0  0
   59.8820   28.9340   44.9030 C   0  0  0  0  0  0  0  0  0  0  0  0
   61.2460   28.8100   45.0620 F   0  0  0  0  0  0  0  0  0  0  0  0
   59.2970   30.1420   45.1910 C   0  0  0  0  0  0  0  0  0  0  0  0
   58.4950   33.4470   44.6450 N   0  0  0  0  0  0  0  0  0  0  0  0
   59.2090   34.5690   44.8790 C   0  0  0  0  0  0  0  0  0  0  0  0
   59.4590   34.9030   46.1540 N   0  0  0  0  0  0  0  0  0  0  0  0
   60.2245   29.2894   49.5963 H   0  0  0  0  0  0  0  0  0  0  0  0
   59.3352   29.1383   48.0429 H   0  0  0  0  0  0  0  0  0  0  0  0
   61.1264   29.2741   48.0429 H   0  0  0  0  0  0  0  0  0  0  0  0
   62.1842   30.1594   47.1622 H   0  0  0  0  0  0  0  0  0  0  0  0
   64.1930   31.5435   46.5685 H   0  0  0  0  0  0  0  0  0  0  0  0
   64.3125   33.9312   47.2297 H   0  0  0  0  0  0  0  0  0  0  0  0
   62.4358   34.9396   48.4699 H   0  0  0  0  0  0  0  0  0  0  0  0
   59.4738   32.9702   49.6727 H   0  0  0  0  0  0  0  0  0  0  0  0
   60.5077   34.3904   50.0784 H   0  0  0  0  0  0  0  0  0  0  0  0
   57.9301   32.4083   47.8149 H   0  0  0  0  0  0  0  0  0  0  0  0
   56.2780   31.5930   45.2010 H   0  0  0  0  0  0  0  0  0  0  0  0
   56.0537   29.3224   44.4605 H   0  0  0  0  0  0  0  0  0  0  0  0
   57.1590   27.1141   43.9395 H   0  0  0  0  0  0  0  0  0  0  0  0
   59.5963   26.9212   44.2378 H   0  0  0  0  0  0  0  0  0  0  0  0
   59.8972   30.9940   45.5430 H   0  0  0  0  0  0  0  0  0  0  0  0
   58.2970   33.1750   43.6620 H   0  0  0  0  0  0  0  0  0  0  0  0
   59.5749   35.1908   44.0486 H   0  0  0  0  0  0  0  0  0  0  0  0
  1  2  1  0
  2  3  1  0
  3  4  2  0
  4  5  1  0
  5  6  2  0
  6  7  1  0
  7  8  2  0
  8  9  1  0
  9 10  1  0
 10 11  2  0
 11 12  1  0
 12 13  2  0
 13 14  1  0
 14 15  1  0
 15 16  2  0
 16 17  1  0
 17 18  2  0
 18 19  1  0
 19 20  1  0
 19 21  2  0
 13 22  1  0
 22 23  1  0
 23 24  2  0
  8  3  1  0
 24 11  1  0
 21 15  1  0
  1 25  1  0
  1 26  1  0
  1 27  1  0
  4 28  1  0
  5 29  1  0
  6 30  1  0
  7 31  1  0
  9 32  1  0
  9 33  1  0
 12 34  1  0
 14 35  1  0
 16 36  1  0
 17 37  1  0
 18 38  1  0
 21 39  1  0
 22 40  1  0
 23 41  1  0
M  END
>  <smiles>  (11) 
COc1ccccc1CN=c1cc(Nc2cccc(F)c2)[nH]cn1

>  <score_type>  (11) 
oracle

>  <origin>  (11) 
adg

>  <m_score__min__energy>  (11) 
-7.7400000000000002

>  <m_primary>  (11) 
energy

$$$$
11:0
     RDKit          3D

 32 33  0  0  0  0  0  0  0  0999 V2000
   56.2660   29.3470   42.5360 C   0  0  0  0  0  0  0  0  0  0  0  0
   56.5550   30.3600   43.5970 C   0  0  0  0  0  0  0  0  0  0  0  0
   55.7140   30.5420   44.5170 O   0  0  0  0  0  0  0  0  0  0  0  0
   57.7350   31.1760   43.5090 N   0  0  0  0  0  0  0  0  0  0  0  0
   58.2000   32.0370   44.5640 C   0  0  0  0  0  0  0  0  0  0  0  0
   58.4410   33.3870   44.2890 C   0  0  0  0  0  0  0  0  0  0  0  0
   58.9030   34.2410   45.2910 C   0  0  0  0  0  0  0  0  0  0  0  0
   59.1490   33.7570   46.5820 C   0  0  0  0  0  0  0  0  0  0  0  0
   59.6460   34.9370   47.8450 S   0  0  0  0  0  0  0  0  0  0  0  0
   61.2780   34.2150   48.0180 C   0  0  0  0  0  0  0  0  0  0  0  0
   62.0000   33.8280   46.8810 C   0  0  0  0  0  0  0  0  0  0  0  0
   63.2740   33.2680   47.0170 C   0  0  0  0  0  0  0  0  0  0  0  0
   63.8300   33.0950   48.2880 C   0  0  0  0  0  0  0  0  0  0  0  0
   63.1140   33.4840   49.4240 C   0  0  0  0  0  0  0  0  0  0  0  0
   61.8390   34.0430   49.2910 C   0  0  0  0  0  0  0  0  0  0  0  0
   58.9590   32.3850   46.8650 C   0  0  0  0  0  0  0  0  0  0  0  0
   59.2500   31.8330   48.1620 N   0  0  0  0  0  0  0  0  0  0  0  0
   58.4900   32.0610   49.1250 O   0  0  0  0  0  0  0  0  0  0  0  0
   60.2700   30.9260   48.3250 O   0  0  0  0  0  0  0  0  0  0  0  0
   58.4780   31.5390   45.8490 C   0  0  0  0  0  0  0  0  0  0  0  0
   55.9932   28.3909   43.0065 H   0  0  0  0  0  0  0  0  0  0  0  0
   55.4324   29.6988   41.9104 H   0  0  0  0  0  0  0  0  0  0  0  0
   57.1598   29.2060   41.9104 H   0  0  0  0  0  0  0  0  0  0  0  0
   58.2380   31.2060   42.5940 H   0  0  0  0  0  0  0  0  0  0  0  0
   58.2651   33.7781   43.2760 H   0  0  0  0  0  0  0  0  0  0  0  0
   59.0755   35.3036   45.0650 H   0  0  0  0  0  0  0  0  0  0  0  0
   61.5640   33.9649   45.8804 H   0  0  0  0  0  0  0  0  0  0  0  0
   63.8390   32.9635   46.1236 H   0  0  0  0  0  0  0  0  0  0  0  0
   64.8315   32.6525   48.3943 H   0  0  0  0  0  0  0  0  0  0  0  0
   63.5539   33.3503   50.4233 H   0  0  0  0  0  0  0  0  0  0  0  0
   61.2762   34.3478   50.1856 H   0  0  0  0  0  0  0  0  0  0  0  0
   58.3171   30.4721   46.0632 H   0  0  0  0  0  0  0  0  0  0  0  0
  1  2  1  0
  2  3  2  0
  2  4  1  0
  4  5  1  0
  5  6  2  0
  6  7  1  0
  7  8  2  0
  8  9  1  0
  9 10  1  0
 10 11  2  0
 11 12  1  0
 12 13  2  0
 13 14  1  0
 14 15  2  0
  8 16  1  0
 16 17  1  0
 17 18  2  0
 17 19  1  0
 16 20  2  0
 20  5  1  0
 15 10  1  0
  1 21  1  0
  1 22  1  0
  1 23  1  0
  4 24  1  0
  6 25  1  0
  7 26  1  0
 11 27  1  0
 12 28  1  0
 13 29  1  0
 14 30  1  0
 15 31  1  0
 20 32  1  0
M  CHG  2  17   1  19  -1
M  END
>  <UniqueID>  (12) 
8

>  <SMILES>  (12) 
CC(=O)Nc1ccc(Sc2ccccc2)c([N+](=O)[O-])c1

>  <Energy>  (12) 
34.41009458016649

>  <Genealogy>  (12) 
CC(=O)Nc1ccc(Sc2ccccc2)c([N+](=O)[O-])c1 (3D coordinates assigned)
CC(=O)Nc1ccc(Sc2ccccc2)c([N+](=O)[O-])c1 (optimized conformer: 34.41009458016649 kcal/mol)

>  <smiles>  (12) 
CC(=O)Nc1ccc(Sc2ccccc2)c([N+](=O)[O-])c1

>  <score_type>  (12) 
oracle

>  <origin>  (12) 
adg

>  <m_score__min__energy>  (12) 
-7.8600000000000003

>  <m_primary>  (12) 
energy

$$$$
12:0
     RDKit          3D

 48 52  0  0  0  0  0  0  0  0999 V2000
   58.8088   33.8073   53.7555 H   0  0  0  0  0  0  0  0  0  0  0  0
   58.3400   33.0130   53.1560 C   0  0  0  0  0  0  0  0  0  0  0  0
   57.7330   31.9270   53.7950 C   0  0  0  0  0  0  0  0  0  0  0  0
   57.7082   31.8816   54.8938 H   0  0  0  0  0  0  0  0  0  0  0  0
   57.1560   30.8960   53.0400 C   0  0  0  0  0  0  0  0  0  0  0  0
   56.4700   29.7500   53.7250 C   0  0  0  0  0  0  0  0  0  0  0  0
   56.5455   29.8761   54.8151 H   0  0  0  0  0  0  0  0  0  0  0  0
   55.4103   29.7283   53.4309 H   0  0  0  0  0  0  0  0  0  0  0  0
   56.9515   28.8057   53.4309 H   0  0  0  0  0  0  0  0  0  0  0  0
   57.1740   30.9730   51.6400 C   0  0  0  0  0  0  0  0  0  0  0  0
   56.7082   30.1763   51.0413 H   0  0  0  0  0  0  0  0  0  0  0  0
   57.7820   32.0590   51.0020 C   0  0  0  0  0  0  0  0  0  0  0  0
   57.8117   32.1014   49.9032 H   0  0  0  0  0  0  0  0  0  0  0  0
   58.3550   33.0960   51.7570 C   0  0  0  0  0  0  0  0  0  0  0  0
   59.0090   34.2090   51.1230 N   0  0  0  0  0  0  0  0  0  0  0  0
   58.8790   35.1580   51.5410 H   0  0  0  0  0  0  0  0  0  0  0  0
   59.8430   34.0950   49.9580 C   0  0  0  0  0  0  0  0  0  0  0  0
   59.2780   34.2730   48.6910 C   0  0  0  0  0  0  0  0  0  0  0  0
   58.2066   34.5042   48.5978 H   0  0  0  0  0  0  0  0  0  0  0  0
   60.0730   34.1580   47.5330 C   0  0  0  0  0  0  0  0  0  0  0  0
   59.5760   34.3260   46.3350 N   0  0  0  0  0  0  0  0  0  0  0  0
   58.8180   33.3870   45.5560 C   0  0  0  0  0  0  0  0  0  0  0  0
   58.4880   33.6560   44.2010 C   0  0  0  0  0  0  0  0  0  0  0  0
   58.7774   34.6167   43.7500 H   0  0  0  0  0  0  0  0  0  0  0  0
   57.7950   32.7060   43.4310 C   0  0  0  0  0  0  0  0  0  0  0  0
   57.5194   32.9133   42.3865 H   0  0  0  0  0  0  0  0  0  0  0  0
   57.4690   31.4950   44.0330 C   0  0  0  0  0  0  0  0  0  0  0  0
   56.8150   30.3900   43.5330 C   0  0  0  0  0  0  0  0  0  0  0  0
   56.3997   30.2594   42.5228 H   0  0  0  0  0  0  0  0  0  0  0  0
   56.7930   29.4750   44.5810 C   0  0  0  0  0  0  0  0  0  0  0  0
   56.3403   28.4739   44.5271 H   0  0  0  0  0  0  0  0  0  0  0  0
   57.4040   29.9840   45.6750 N   0  0  0  0  0  0  0  0  0  0  0  0
   57.5330   29.5120   46.5970 H   0  0  0  0  0  0  0  0  0  0  0  0
   57.8120   31.2160   45.3280 C   0  0  0  0  0  0  0  0  0  0  0  0
   58.4990   32.1360   46.1200 C   0  0  0  0  0  0  0  0  0  0  0  0
   58.7833   31.8920   47.1542 H   0  0  0  0  0  0  0  0  0  0  0  0
   61.4340   33.8090   47.6780 C   0  0  0  0  0  0  0  0  0  0  0  0
   62.2860   33.6540   46.5640 C   0  0  0  0  0  0  0  0  0  0  0  0
   61.8914   33.8075   45.5487 H   0  0  0  0  0  0  0  0  0  0  0  0
   63.6270   33.3070   46.7420 C   0  0  0  0  0  0  0  0  0  0  0  0
   64.2828   33.1878   45.8670 H   0  0  0  0  0  0  0  0  0  0  0  0
   64.1380   33.1110   48.0250 C   0  0  0  0  0  0  0  0  0  0  0  0
   65.1950   32.8375   48.1586 H   0  0  0  0  0  0  0  0  0  0  0  0
   63.3120   33.2610   49.1390 C   0  0  0  0  0  0  0  0  0  0  0  0
   63.7209   33.1035   50.1480 H   0  0  0  0  0  0  0  0  0  0  0  0
   61.9610   33.6120   48.9800 C   0  0  0  0  0  0  0  0  0  0  0  0
   61.1590   33.7560   50.0720 N   0  0  0  0  0  0  0  0  0  0  0  0
   61.5550   33.5710   51.0220 H   0  0  0  0  0  0  0  0  0  0  0  0
  1  2  1  0
  2  3  2  0
  3  4  1  0
  3  5  1  0
  5  6  1  0
  6  7  1  0
  6  8  1  0
  6  9  1  0
  5 10  2  0
 10 11  1  0
 10 12  1  0
 12 13  1  0
 12 14  2  0
 14 15  1  0
 15 16  1  0
 15 17  1  0
 17 18  2  0
 18 19  1  0
 18 20  1  0
 20 21  2  0
 21 22  1  0
 22 23  2  0
 23 24  1  0
 23 25  1  0
 25 26  1  0
 25 27  2  0
 27 28  1  0
 28 29  1  0
 28 30  2  0
 30 31  1  0
 30 32  1  0
 32 33  1  0
 32 34  1  0
 34 35  2  0
 35 36  1  0
 20 37  1  0
 37 38  2  0
 38 39  1  0
 38 40  1  0
 40 41  1  0
 40 42  2  0
 42 43  1  0
 42 44  1  0
 44 45  1  0
 44 46  2  0
 46 47  1  0
 47 48  1  0
 14  2  1  0
 47 17  1  0
 35 22  1  0
 46 37  1  0
 34 27  1  0
M  END
>  <UniqueID>  (13) 
9

>  <SMILES>  (13) 
Cc1ccc(Nc2c/c(=N\c3ccc4cc[nH]c4c3)c3ccccc3[nH]2)cc1

>  <Energy>  (13) 
105.55571778088203

>  <Genealogy>  (13) 
Cc1ccc(Nc2c/c(=N\c3ccc4cc[nH]c4c3)c3ccccc3[nH]2)cc1 (cis-trans isomerization)
Cc1ccc(Nc2c/c(=N\c3ccc4cc[nH]c4c3)c3ccccc3[nH]2)cc1 (3D coordinates assigned)
Cc1ccc(Nc2c/c(=N\c3ccc4cc[nH]c4c3)c3ccccc3[nH]2)cc1 (optimized conformer: 105.55571778088203 kcal/mol)

>  <smiles>  (13) 
Cc1ccc(Nc2cc(=Nc3ccc4cc[nH]c4c3)c3ccccc3[nH]2)cc1

>  <score_type>  (13) 
oracle

>  <origin>  (13) 
adg

>  <m_score__min__energy>  (13) 
-9.0099999999999998

>  <m_primary>  (13) 
energy

$$$$
13:0
     RDKit          3D

 41 43  0  0  0  0  0  0  0  0999 V2000
   58.3899   35.5840   44.8439 H   0  0  0  0  0  0  0  0  0  0  0  0
   58.7600   34.6380   45.2660 C   0  0  0  0  0  0  0  0  0  0  0  0
   58.0510   33.4570   45.0500 C   0  0  0  0  0  0  0  0  0  0  0  0
   57.1162   33.4807   44.4706 H   0  0  0  0  0  0  0  0  0  0  0  0
   58.5200   32.2360   45.5660 C   0  0  0  0  0  0  0  0  0  0  0  0
   57.7560   30.9880   45.3170 C   0  0  0  0  0  0  0  0  0  0  0  0
   58.0420   29.8740   46.0440 N   0  0  0  0  0  0  0  0  0  0  0  0
   57.3800   28.7020   45.8620 C   0  0  0  0  0  0  0  0  0  0  0  0
   57.7140   27.6770   46.5950 N   0  0  0  0  0  0  0  0  0  0  0  0
   58.4910   26.5430   46.1840 C   0  0  0  0  0  0  0  0  0  0  0  0
   59.7290   26.5430   46.4200 O   0  0  0  0  0  0  0  0  0  0  0  0
   57.8910   25.4170   45.4230 C   0  0  0  0  0  0  0  0  0  0  0  0
   57.5900   25.5510   44.0560 C   0  0  0  0  0  0  0  0  0  0  0  0
   57.8016   26.4998   43.5412 H   0  0  0  0  0  0  0  0  0  0  0  0
   57.0240   24.4880   43.3460 C   0  0  0  0  0  0  0  0  0  0  0  0
   56.7872   24.6069   42.2784 H   0  0  0  0  0  0  0  0  0  0  0  0
   56.7560   23.2670   43.9910 C   0  0  0  0  0  0  0  0  0  0  0  0
   56.1870   22.1720   43.3230 O   0  0  0  0  0  0  0  0  0  0  0  0
   56.9110   21.0170   42.9110 C   0  0  0  0  0  0  0  0  0  0  0  0
   57.2568   20.4654   43.7977 H   0  0  0  0  0  0  0  0  0  0  0  0
   56.2567   20.3697   42.3085 H   0  0  0  0  0  0  0  0  0  0  0  0
   57.7787   21.3237   42.3085 H   0  0  0  0  0  0  0  0  0  0  0  0
   57.0650   23.1300   45.3480 C   0  0  0  0  0  0  0  0  0  0  0  0
   56.8609   22.1780   45.8600 H   0  0  0  0  0  0  0  0  0  0  0  0
   57.6310   24.1920   46.0600 C   0  0  0  0  0  0  0  0  0  0  0  0
   57.8742   24.0676   47.1255 H   0  0  0  0  0  0  0  0  0  0  0  0
   56.3710   28.6360   44.9400 N   0  0  0  0  0  0  0  0  0  0  0  0
   55.8100   27.7650   44.8090 H   0  0  0  0  0  0  0  0  0  0  0  0
   56.0410   29.7260   44.1930 C   0  0  0  0  0  0  0  0  0  0  0  0
   55.1060   29.6540   43.3520 O   0  0  0  0  0  0  0  0  0  0  0  0
   56.7300   30.9270   44.3640 C   0  0  0  0  0  0  0  0  0  0  0  0
   56.4726   31.8106   43.7615 H   0  0  0  0  0  0  0  0  0  0  0  0
   59.7030   32.2330   46.3330 C   0  0  0  0  0  0  0  0  0  0  0  0
   60.0812   31.2855   46.7443 H   0  0  0  0  0  0  0  0  0  0  0  0
   60.4060   33.4270   46.5790 C   0  0  0  0  0  0  0  0  0  0  0  0
   61.6970   33.4010   47.3600 C   0  0  0  0  0  0  0  0  0  0  0  0
   61.5770   34.2240   48.4640 F   0  0  0  0  0  0  0  0  0  0  0  0
   61.9910   32.1160   47.7850 F   0  0  0  0  0  0  0  0  0  0  0  0
   62.7480   33.8460   46.5770 F   0  0  0  0  0  0  0  0  0  0  0  0
   59.9380   34.6250   46.0160 C   0  0  0  0  0  0  0  0  0  0  0  0
   60.5017   35.5575   46.1663 H   0  0  0  0  0  0  0  0  0  0  0  0
  1  2  1  0
  2  3  2  0
  3  4  1  0
  3  5  1  0
  5  6  1  0
  6  7  1  0
  7  8  1  0
  8  9  2  0
  9 10  1  0
 10 11  2  0
 10 12  1  0
 12 13  2  0
 13 14  1  0
 13 15  1  0
 15 16  1  0
 15 17  2  0
 17 18  1  0
 18 19  1  0
 19 20  1  0
 19 21  1  0
 19 22  1  0
 17 23  1  0
 23 24  1  0
 23 25  2  0
 25 26  1  0
  8 27  1  0
 27 28  1  0
 27 29  1  0
 29 30  2  0
 29 31  1  0
 31 32  1  0
  5 33  2  0
 33 34  1  0
 33 35  1  0
 35 36  1  0
 36 37  1  0
 36 38  1  0
 36 39  1  0
 35 40  2  0
 40 41  1  0
 40  2  1  0
 31  6  2  0
 25 12  1  0
M  CHG  1   7  -1
M  END
>  <UniqueID>  (14) 
10

>  <SMILES>  (14) 
COc1ccc(C(=O)/N=c2/[n-]c(-c3cccc(C(F)(F)F)c3)cc(=O)[nH]2)cc1

>  <Energy>  (14) 
58.42243848156139

>  <Genealogy>  (14) 
COc1ccc(C(=O)N=c2[n-]c(-c3cccc(C(F)(F)F)c3)cc(=O)[nH]2)cc1 (protonated)
COc1ccc(C(=O)/N=c2/[n-]c(-c3cccc(C(F)(F)F)c3)cc(=O)[nH]2)cc1 (cis-trans isomerization)
COc1ccc(C(=O)/N=c2/[n-]c(-c3cccc(C(F)(F)F)c3)cc(=O)[nH]2)cc1 (3D coordinates assigned)
COc1ccc(C(=O)/N=c2/[n-]c(-c3cccc(C(F)(F)F)c3)cc(=O)[nH]2)cc1 (optimized conformer: 58.42243848156139 kcal/mol)

>  <smiles>  (14) 
COc1ccc(C(=O)N=c2[nH]c(-c3cccc(C(F)(F)F)c3)cc(=O)[nH]2)cc1

>  <score_type>  (14) 
oracle

>  <origin>  (14) 
adg

>  <m_score__min__energy>  (14) 
-9.75

>  <m_primary>  (14) 
energy

$$$$
14:0
     RDKit          3D

 28 30  0  0  0  0  0  0  0  0999 V2000
   57.1730   31.9680   41.1240 C   0  0  0  0  0  0  0  0  0  0  0  0
   57.3990   31.6780   42.5830 C   0  0  0  0  0  0  0  0  0  0  0  0
   57.9710   32.6840   43.3930 C   0  0  0  0  0  0  0  0  0  0  0  0
   58.1770   32.4090   44.7380 C   0  0  0  0  0  0  0  0  0  0  0  0
   57.8440   31.1970   45.3000 C   0  0  0  0  0  0  0  0  0  0  0  0
   58.1390   31.1720   46.6220 N   0  0  0  0  0  0  0  0  0  0  0  0
   58.6650   32.3880   46.8840 C   0  0  0  0  0  0  0  0  0  0  0  0
   59.1280   32.8580   48.1120 C   0  0  0  0  0  0  0  0  0  0  0  0
   59.6410   34.1680   48.1640 C   0  0  0  0  0  0  0  0  0  0  0  0
   59.6800   34.9720   47.0030 C   0  0  0  0  0  0  0  0  0  0  0  0
   59.2060   34.4750   45.7750 C   0  0  0  0  0  0  0  0  0  0  0  0
   58.7040   33.1750   45.7530 C   0  0  0  0  0  0  0  0  0  0  0  0
   57.2760   30.1730   44.5370 C   0  0  0  0  0  0  0  0  0  0  0  0
   56.9390   28.9150   45.1600 C   0  0  0  0  0  0  0  0  0  0  0  0
   56.6680   27.9070   45.6600 N   0  0  0  0  0  0  0  0  0  0  0  0
   57.0480   30.4120   43.1530 C   0  0  0  0  0  0  0  0  0  0  0  0
   56.4640   29.3830   42.3340 N   0  0  0  0  0  0  0  0  0  0  0  0
   56.4998   32.8319   41.0219 H   0  0  0  0  0  0  0  0  0  0  0  0
   58.1354   32.1941   40.6417 H   0  0  0  0  0  0  0  0  0  0  0  0
   56.7186   31.0900   40.6417 H   0  0  0  0  0  0  0  0  0  0  0  0
   58.2463   33.6608   42.9686 H   0  0  0  0  0  0  0  0  0  0  0  0
   57.9960   30.3870   47.2960 H   0  0  0  0  0  0  0  0  0  0  0  0
   59.0936   32.2257   49.0114 H   0  0  0  0  0  0  0  0  0  0  0  0
   60.0149   34.5693   49.1175 H   0  0  0  0  0  0  0  0  0  0  0  0
   60.0837   35.9937   47.0595 H   0  0  0  0  0  0  0  0  0  0  0  0
   59.2308   35.0910   44.8640 H   0  0  0  0  0  0  0  0  0  0  0  0
   55.8950   29.6110   41.4890 H   0  0  0  0  0  0  0  0  0  0  0  0
   56.5830   28.3690   42.5490 H   0  0  0  0  0  0  0  0  0  0  0  0
  1  2  1  0
  2  3  2  0
  3  4  1  0
  4  5  2  0
  5  6  1  0
  6  7  1  0
  7  8  2  0
  8  9  1  0
  9 10  2  0
 10 11  1  0
 11 12  2  0
  5 13  1  0
 13 14  1  0
 14 15  3  0
 13 16  2  0
 16 17  1  0
 16  2  1  0
 12  4  1  0
 12  7  1  0
  1 18  1  0
  1 19  1  0
  1 20  1  0
  3 21  1  0
  6 22  1  0
  8 23  1  0
  9 24  1  0
 10 25  1  0
 11 26  1  0
 17 27  1  0
 17 28  1  0
M  END
>  <UniqueID>  (15) 
11

>  <SMILES>  (15) 
Cc1cc2c([nH]c3ccccc32)c(C#N)c1N

>  <Energy>  (15) 
72.12638459967552

>  <Genealogy>  (15) 
Cc1cc2c([nH]c3ccccc32)c(C#N)c1N (3D coordinates assigned)
Cc1cc2c([nH]c3ccccc32)c(C#N)c1N (optimized conformer: 72.12638459967552 kcal/mol)

>  <smiles>  (15) 
Cc1cc2c([nH]c3ccccc32)c(C#N)c1N

>  <score_type>  (15) 
oracle

>  <origin>  (15) 
adg

>  <m_score__min__energy>  (15) 
-7.1900000000000004

>  <m_primary>  (15) 
energy

$$$$
15:0
     RDKit          3D

 37 38  0  0  0  0  0  0  0  0999 V2000
   55.4905   24.6336   46.7318 H   0  0  0  0  0  0  0  0  0  0  0  0
   56.1410   25.4640   46.4200 C   0  0  0  0  0  0  0  0  0  0  0  0
   55.5930   26.6320   45.9910 N   0  0  0  0  0  0  0  0  0  0  0  0
   56.3610   27.6890   45.5960 C   0  0  0  0  0  0  0  0  0  0  0  0
   55.8240   28.8070   45.1970 N   0  0  0  0  0  0  0  0  0  0  0  0
   56.3910   29.7740   44.3000 C   0  0  0  0  0  0  0  0  0  0  0  0
   56.9560   29.3660   43.2520 O   0  0  0  0  0  0  0  0  0  0  0  0
   56.2660   31.1810   44.5520 N   0  0  0  0  0  0  0  0  0  0  0  0
   57.2900   32.0570   45.0430 C   0  0  0  0  0  0  0  0  0  0  0  0
   58.1590   31.5850   46.0350 C   0  0  0  0  0  0  0  0  0  0  0  0
   58.0323   30.5673   46.4328 H   0  0  0  0  0  0  0  0  0  0  0  0
   59.1860   32.3980   46.5230 C   0  0  0  0  0  0  0  0  0  0  0  0
   59.8577   32.0190   47.3073 H   0  0  0  0  0  0  0  0  0  0  0  0
   59.3650   33.6950   46.0180 C   0  0  0  0  0  0  0  0  0  0  0  0
   60.5000   34.5490   46.5100 C   0  0  0  0  0  0  0  0  0  0  0  0
   60.2799   35.6054   46.2965 H   0  0  0  0  0  0  0  0  0  0  0  0
   61.4256   34.2492   45.9969 H   0  0  0  0  0  0  0  0  0  0  0  0
   60.6760   34.3680   47.9850 C   0  0  0  0  0  0  0  0  0  0  0  0
   59.6980   34.5540   48.7610 O   0  0  0  0  0  0  0  0  0  0  0  0
   61.9210   33.9790   48.4860 O   0  0  0  0  0  0  0  0  0  0  0  0
   62.9900   33.5580   47.6450 C   0  0  0  0  0  0  0  0  0  0  0  0
   63.4502   34.4367   47.1696 H   0  0  0  0  0  0  0  0  0  0  0  0
   62.6013   32.8823   46.8689 H   0  0  0  0  0  0  0  0  0  0  0  0
   64.0320   32.8280   48.4760 C   0  0  0  0  0  0  0  0  0  0  0  0
   63.8189   32.9773   49.5448 H   0  0  0  0  0  0  0  0  0  0  0  0
   64.0003   31.7536   48.2424 H   0  0  0  0  0  0  0  0  0  0  0  0
   65.0310   33.2247   48.2424 H   0  0  0  0  0  0  0  0  0  0  0  0
   58.5170   34.1570   44.9990 C   0  0  0  0  0  0  0  0  0  0  0  0
   58.6620   35.1645   44.5819 H   0  0  0  0  0  0  0  0  0  0  0  0
   57.4890   33.3440   44.5110 C   0  0  0  0  0  0  0  0  0  0  0  0
   56.8335   33.7123   43.7081 H   0  0  0  0  0  0  0  0  0  0  0  0
   57.7560   27.5760   45.6330 C   0  0  0  0  0  0  0  0  0  0  0  0
   58.3889   28.4197   45.3205 H   0  0  0  0  0  0  0  0  0  0  0  0
   58.3380   26.3830   46.0700 C   0  0  0  0  0  0  0  0  0  0  0  0
   59.4330   26.2838   46.1025 H   0  0  0  0  0  0  0  0  0  0  0  0
   57.5280   25.3180   46.4650 C   0  0  0  0  0  0  0  0  0  0  0  0
   57.9774   24.3744   46.8079 H   0  0  0  0  0  0  0  0  0  0  0  0
  1  2  1  0
  2  3  1  0
  3  4  1  0
  4  5  2  0
  5  6  1  0
  6  7  2  0
  6  8  1  0
  8  9  1  0
  9 10  2  0
 10 11  1  0
 10 12  1  0
 12 13  1  0
 12 14  2  0
 14 15  1  0
 15 16  1  0
 15 17  1  0
 15 18  1  0
 18 19  2  0
 18 20  1  0
 20 21  1  0
 21 22  1  0
 21 23  1  0
 21 24  1  0
 24 25  1  0
 24 26  1  0
 24 27  1  0
 14 28  1  0
 28 29  1  0
 28 30  2  0
 30 31  1  0
  4 32  1  0
 32 33  1  0
 32 34  2  0
 34 35  1  0
 34 36  1  0
 36 37  1  0
 36  2  2  0
 30  9  1  0
M  CHG  2   3  -1   8  -1
M  END
>  <UniqueID>  (16) 
12

>  <SMILES>  (16) 
CCOC(=O)Cc1ccc([N-]C(=O)/N=c2/cccc[n-]2)cc1

>  <Energy>  (16) 
37.037742746173286

>  <Genealogy>  (16) 
CCOC(=O)Cc1ccc([N-]C(=O)N=c2cccc[n-]2)cc1 (protonated)
CCOC(=O)Cc1ccc([N-]C(=O)/N=c2/cccc[n-]2)cc1 (cis-trans isomerization)
CCOC(=O)Cc1ccc([N-]C(=O)/N=c2/cccc[n-]2)cc1 (3D coordinates assigned)
CCOC(=O)Cc1ccc([N-]C(=O)/N=c2/cccc[n-]2)cc1 (optimized conformer: 37.037742746173286 kcal/mol)

>  <smiles>  (16) 
CCOC(=O)Cc1ccc(NC(=O)N=c2cccc[nH]2)cc1

>  <score_type>  (16) 
oracle

>  <origin>  (16) 
adg

>  <m_score__min__energy>  (16) 
-9.8399999999999999

>  <m_primary>  (16) 
energy

$$$$
16:0
     RDKit          3D

 55 60  0  0  0  0  0  0  0  0999 V2000
   59.2950   34.3180   46.8630 O   0  0  0  0  0  0  0  0  0  0  0  0
   58.8440   33.3330   47.5080 C   0  0  0  0  0  0  0  0  0  0  0  0
   57.9840   32.3850   46.8590 N   0  0  0  0  0  0  0  0  0  0  0  0
   57.6430   32.5110   45.4420 C   0  0  0  0  0  0  0  0  0  0  0  0
   57.5410   31.1500   44.7860 C   0  0  0  0  0  0  0  0  0  0  0  0
   56.7790   31.0370   43.6080 C   0  0  0  0  0  0  0  0  0  0  0  0
   56.6950   29.8240   42.9240 C   0  0  0  0  0  0  0  0  0  0  0  0
   57.3760   28.7070   43.3980 C   0  0  0  0  0  0  0  0  0  0  0  0
   58.1410   28.7950   44.5610 C   0  0  0  0  0  0  0  0  0  0  0  0
   58.2350   30.0050   45.2740 C   0  0  0  0  0  0  0  0  0  0  0  0
   59.0680   30.0330   46.5020 C   0  0  0  0  0  0  0  0  0  0  0  0
   58.6580   29.5610   47.7070 N   0  0  0  0  0  0  0  0  0  0  0  0
   59.6280   29.6920   48.6480 C   0  0  0  0  0  0  0  0  0  0  0  0
   59.4840   29.3190   49.9850 C   0  0  0  0  0  0  0  0  0  0  0  0
   60.5610   29.5280   50.8630 C   0  0  0  0  0  0  0  0  0  0  0  0
   61.7620   30.1010   50.3970 C   0  0  0  0  0  0  0  0  0  0  0  0
   61.8930   30.4730   49.0490 C   0  0  0  0  0  0  0  0  0  0  0  0
   60.8110   30.2570   48.2020 C   0  0  0  0  0  0  0  0  0  0  0  0
   60.6630   30.6140   46.5710 S   0  0  0  0  0  0  0  0  0  0  0  0
   59.2720   33.1280   48.9100 C   0  0  0  0  0  0  0  0  0  0  0  0
   58.3850   32.4760   49.7800 C   0  0  0  0  0  0  0  0  0  0  0  0
   58.7150   32.3050   51.1350 C   0  0  0  0  0  0  0  0  0  0  0  0
   57.7920   31.6340   52.0840 C   0  0  0  0  0  0  0  0  0  0  0  0
   57.9430   31.7560   53.4770 C   0  0  0  0  0  0  0  0  0  0  0  0
   57.0600   31.1020   54.3390 C   0  0  0  0  0  0  0  0  0  0  0  0
   56.0330   30.3240   53.8070 C   0  0  0  0  0  0  0  0  0  0  0  0
   55.9010   30.2030   52.4600 N   0  0  0  0  0  0  0  0  0  0  0  0
   56.7460   30.8270   51.5980 C   0  0  0  0  0  0  0  0  0  0  0  0
   59.9180   32.7550   51.5850 N   0  0  0  0  0  0  0  0  0  0  0  0
   60.8170   33.3700   50.7750 C   0  0  0  0  0  0  0  0  0  0  0  0
   62.0430   33.7930   51.3040 C   0  0  0  0  0  0  0  0  0  0  0  0
   62.9930   34.3970   50.4770 C   0  0  0  0  0  0  0  0  0  0  0  0
   62.7270   34.5710   49.1190 C   0  0  0  0  0  0  0  0  0  0  0  0
   61.5070   34.1550   48.5810 C   0  0  0  0  0  0  0  0  0  0  0  0
   60.5250   33.5680   49.4040 C   0  0  0  0  0  0  0  0  0  0  0  0
   57.6750   31.5390   47.3920 H   0  0  0  0  0  0  0  0  0  0  0  0
   56.6768   33.0286   45.3490 H   0  0  0  0  0  0  0  0  0  0  0  0
   58.4366   33.0838   44.9399 H   0  0  0  0  0  0  0  0  0  0  0  0
   56.2428   31.9164   43.2217 H   0  0  0  0  0  0  0  0  0  0  0  0
   56.0895   29.7505   42.0086 H   0  0  0  0  0  0  0  0  0  0  0  0
   57.3109   27.7528   42.8546 H   0  0  0  0  0  0  0  0  0  0  0  0
   58.6780   27.9070   44.9258 H   0  0  0  0  0  0  0  0  0  0  0  0
   58.5462   28.8703   50.3444 H   0  0  0  0  0  0  0  0  0  0  0  0
   60.4665   29.2426   51.9211 H   0  0  0  0  0  0  0  0  0  0  0  0
   62.6000   30.2574   51.0922 H   0  0  0  0  0  0  0  0  0  0  0  0
   62.8244   30.9222   48.6739 H   0  0  0  0  0  0  0  0  0  0  0  0
   57.4255   32.0964   49.3989 H   0  0  0  0  0  0  0  0  0  0  0  0
   58.7589   32.3683   53.8887 H   0  0  0  0  0  0  0  0  0  0  0  0
   57.1740   31.2000   55.4287 H   0  0  0  0  0  0  0  0  0  0  0  0
   55.3297   29.8082   54.4773 H   0  0  0  0  0  0  0  0  0  0  0  0
   56.6118   30.7007   50.5135 H   0  0  0  0  0  0  0  0  0  0  0  0
   62.2582   33.6492   52.3731 H   0  0  0  0  0  0  0  0  0  0  0  0
   63.9516   34.7356   50.8971 H   0  0  0  0  0  0  0  0  0  0  0  0
   63.4814   35.0379   48.4687 H   0  0  0  0  0  0  0  0  0  0  0  0
   61.3111   34.2866   47.5066 H   0  0  0  0  0  0  0  0  0  0  0  0
  1  2  2  0
  2  3  1  0
  3  4  1  0
  4  5  1  0
  5  6  2  0
  6  7  1  0
  7  8  2  0
  8  9  1  0
  9 10  2  0
 10 11  1  0
 11 12  2  0
 12 13  1  0
 13 14  2  0
 14 15  1  0
 15 16  2  0
 16 17  1  0
 17 18  2  0
 18 19  1  0
  2 20  1  0
 20 21  2  0
 21 22  1  0
 22 23  1  0
 23 24  2  0
 24 25  1  0
 25 26  2  0
 26 27  1  0
 27 28  2  0
 22 29  2  0
 29 30  1  0
 30 31  2  0
 31 32  1  0
 32 33  2  0
 33 34  1  0
 34 35  2  0
 10  5  1  0
 19 11  1  0
 35 20  1  0
 18 13  1  0
 28 23  1  0
 35 30  1  0
  3 36  1  0
  4 37  1  0
  4 38  1  0
  6 39  1  0
  7 40  1  0
  8 41  1  0
  9 42  1  0
 14 43  1  0
 15 44  1  0
 16 45  1  0
 17 46  1  0
 21 47  1  0
 24 48  1  0
 25 49  1  0
 26 50  1  0
 28 51  1  0
 31 52  1  0
 32 53  1  0
 33 54  1  0
 34 55  1  0
M  END
>  <UniqueID>  (17) 
13

>  <SMILES>  (17) 
O=C(NCc1ccccc1-c1nc2ccccc2s1)c1cc(-c2cccnc2)nc2ccccc12

>  <Energy>  (17) 
113.83406246303339

>  <Genealogy>  (17) 
O=C(NCc1ccccc1-c1nc2ccccc2s1)c1cc(-c2cccnc2)nc2ccccc12 (3D coordinates assigned)
O=C(NCc1ccccc1-c1nc2ccccc2s1)c1cc(-c2cccnc2)nc2ccccc12 (optimized conformer: 113.83406246303339 kcal/mol)

>  <smiles>  (17) 
O=C(NCc1ccccc1-c1nc2ccccc2s1)c1cc(-c2cccnc2)nc2ccccc12

>  <score_type>  (17) 
oracle

>  <origin>  (17) 
adg

>  <m_score__min__energy>  (17) 
-9.9000000000000004

>  <m_primary>  (17) 
energy

$$$$
17:0
     RDKit          3D

 38 41  0  0  0  0  0  0  0  0999 V2000
   54.8500   19.9370   45.2390 N   0  0  0  0  0  0  0  0  0  0  0  0
   56.1660   20.8880   44.6490 S   0  0  0  0  0  0  0  0  0  0  0  0
   56.2670   20.7310   43.1580 O   0  0  0  0  0  0  0  0  0  0  0  0
   57.4490   20.4130   45.2720 O   0  0  0  0  0  0  0  0  0  0  0  0
   55.8970   22.5790   45.0540 C   0  0  0  0  0  0  0  0  0  0  0  0
   54.6460   22.9950   45.5760 C   0  0  0  0  0  0  0  0  0  0  0  0
   54.4260   24.3430   45.9140 C   0  0  0  0  0  0  0  0  0  0  0  0
   55.4750   25.2380   45.7220 C   0  0  0  0  0  0  0  0  0  0  0  0
   55.4880   26.5540   45.9760 N   0  0  0  0  0  0  0  0  0  0  0  0
   56.7480   26.9160   45.6110 C   0  0  0  0  0  0  0  0  0  0  0  0
   57.2460   28.3060   45.7120 C   0  0  0  0  0  0  0  0  0  0  0  0
   56.8360   29.2790   44.7840 C   0  0  0  0  0  0  0  0  0  0  0  0
   57.3050   30.5920   44.8800 C   0  0  0  0  0  0  0  0  0  0  0  0
   58.1950   30.9610   45.9040 C   0  0  0  0  0  0  0  0  0  0  0  0
   58.6930   32.3560   46.0040 C   0  0  0  0  0  0  0  0  0  0  0  0
   58.4220   33.2890   44.9850 C   0  0  0  0  0  0  0  0  0  0  0  0
   58.8920   34.6020   45.0840 C   0  0  0  0  0  0  0  0  0  0  0  0
   59.6360   34.9990   46.1960 C   0  0  0  0  0  0  0  0  0  0  0  0
   59.9140   34.0840   47.2150 C   0  0  0  0  0  0  0  0  0  0  0  0
   60.8530   34.5830   48.6090 Cl  0  0  0  0  0  0  0  0  0  0  0  0
   59.4460   32.7680   47.1220 C   0  0  0  0  0  0  0  0  0  0  0  0
   58.6040   29.9870   46.8300 C   0  0  0  0  0  0  0  0  0  0  0  0
   58.1340   28.6740   46.7350 C   0  0  0  0  0  0  0  0  0  0  0  0
   57.5110   25.8890   45.1460 N   0  0  0  0  0  0  0  0  0  0  0  0
   56.6780   24.8430   45.2270 C   0  0  0  0  0  0  0  0  0  0  0  0
   56.9350   23.5190   44.8810 C   0  0  0  0  0  0  0  0  0  0  0  0
   54.0120   20.5610   45.2670 H   0  0  0  0  0  0  0  0  0  0  0  0
   53.8415   22.2584   45.7178 H   0  0  0  0  0  0  0  0  0  0  0  0
   53.4585   24.6782   46.3161 H   0  0  0  0  0  0  0  0  0  0  0  0
   56.1411   29.0050   43.9765 H   0  0  0  0  0  0  0  0  0  0  0  0
   56.9749   31.3436   44.1478 H   0  0  0  0  0  0  0  0  0  0  0  0
   57.8367   32.9829   44.1053 H   0  0  0  0  0  0  0  0  0  0  0  0
   58.6748   35.3242   44.2832 H   0  0  0  0  0  0  0  0  0  0  0  0
   60.0039   36.0330   46.2704 H   0  0  0  0  0  0  0  0  0  0  0  0
   59.6672   32.0510   47.9264 H   0  0  0  0  0  0  0  0  0  0  0  0
   59.3001   30.2599   47.6368 H   0  0  0  0  0  0  0  0  0  0  0  0
   58.4628   27.9227   47.4681 H   0  0  0  0  0  0  0  0  0  0  0  0
   57.9156   23.2156   44.4855 H   0  0  0  0  0  0  0  0  0  0  0  0
  1  2  1  0
  2  3  2  0
  2  4  2  0
  2  5  1  0
  5  6  2  0
  6  7  1  0
  7  8  2  0
  8  9  1  0
  9 10  1  0
 10 11  1  0
 11 12  2  0
 12 13  1  0
 13 14  2  0
 14 15  1  0
 15 16  2  0
 16 17  1  0
 17 18  2  0
 18 19  1  0
 19 20  1  0
 19 21  2  0
 14 22  1  0
 22 23  2  0
 10 24  2  0
 24 25  1  0
 25 26  2  0
 26  5  1  0
 25  8  1  0
 23 11  1  0
 21 15  1  0
  1 27  1  0
  6 28  1  0
  7 29  1  0
 12 30  1  0
 13 31  1  0
 16 32  1  0
 17 33  1  0
 18 34  1  0
 21 35  1  0
 22 36  1  0
 23 37  1  0
 26 38  1  0
M  CHG  2   1  -1   9  -1
M  END
>  <UniqueID>  (18) 
14

>  <SMILES>  (18) 
[NH-]S(=O)(=O)c1ccc2[n-]c(-c3ccc(-c4cccc(Cl)c4)cc3)nc2c1

>  <Energy>  (18) 
83.24398059262181

>  <Genealogy>  (18) 
[NH-]S(=O)(=O)c1ccc2[n-]c(-c3ccc(-c4cccc(Cl)c4)cc3)nc2c1 (protonated)
[NH-]S(=O)(=O)c1ccc2[n-]c(-c3ccc(-c4cccc(Cl)c4)cc3)nc2c1 (3D coordinates assigned)
[NH-]S(=O)(=O)c1ccc2[n-]c(-c3ccc(-c4cccc(Cl)c4)cc3)nc2c1 (optimized conformer: 83.24398059262181 kcal/mol)

>  <smiles>  (18) 
NS(=O)(=O)c1ccc2[nH]c(-c3ccc(-c4cccc(Cl)c4)cc3)nc2c1

>  <score_type>  (18) 
oracle

>  <origin>  (18) 
adg

>  <m_score__min__energy>  (18) 
-11.77

>  <m_primary>  (18) 
energy

$$$$
18:0
     RDKit          3D

 44 46  0  0  0  0  0  0  0  0999 V2000
   55.1190   30.3530   44.4690 O   0  0  0  0  0  0  0  0  0  0  0  0
   56.0780   29.5370   44.4160 C   0  0  0  0  0  0  0  0  0  0  0  0
   57.1350   29.6890   43.3600 C   0  0  0  0  0  0  0  0  0  0  0  0
   57.3700   31.1630   43.0140 C   0  0  0  0  0  0  0  0  0  0  0  0
   58.1150   31.8170   44.0830 N   0  0  0  0  0  0  0  0  0  0  0  0
   57.5350   32.7220   45.0210 C   0  0  0  0  0  0  0  0  0  0  0  0
   56.2960   32.6980   45.2500 O   0  0  0  0  0  0  0  0  0  0  0  0
   58.4050   33.6630   45.7330 C   0  0  0  0  0  0  0  0  0  0  0  0
   58.7750   33.5910   47.0610 C   0  0  0  0  0  0  0  0  0  0  0  0
   59.6100   34.6670   47.2710 C   0  0  0  0  0  0  0  0  0  0  0  0
   59.7000   35.3260   46.0610 C   0  0  0  0  0  0  0  0  0  0  0  0
   58.9690   34.7050   45.1650 O   0  0  0  0  0  0  0  0  0  0  0  0
   56.1630   28.4350   45.3260 N   0  0  0  0  0  0  0  0  0  0  0  0
   57.3130   27.6580   45.7010 C   0  0  0  0  0  0  0  0  0  0  0  0
   58.6100   28.2060   45.6600 C   0  0  0  0  0  0  0  0  0  0  0  0
   59.7230   27.4150   45.9500 C   0  0  0  0  0  0  0  0  0  0  0  0
   59.5620   26.0670   46.2610 C   0  0  0  0  0  0  0  0  0  0  0  0
   58.2870   25.5000   46.2800 C   0  0  0  0  0  0  0  0  0  0  0  0
   57.1500   26.2810   46.0020 C   0  0  0  0  0  0  0  0  0  0  0  0
   55.8110   25.6380   46.0140 C   0  0  0  0  0  0  0  0  0  0  0  0
   54.7650   26.3400   45.9750 O   0  0  0  0  0  0  0  0  0  0  0  0
   55.7020   24.2110   46.0760 N   0  0  0  0  0  0  0  0  0  0  0  0
   55.1050   23.4040   45.0170 C   0  0  0  0  0  0  0  0  0  0  0  0
   56.1540   22.5640   44.3570 C   0  0  0  0  0  0  0  0  0  0  0  0
   57.4890   22.5150   44.7070 C   0  0  0  0  0  0  0  0  0  0  0  0
   58.0730   21.6400   43.8150 C   0  0  0  0  0  0  0  0  0  0  0  0
   57.0610   21.2140   42.9790 C   0  0  0  0  0  0  0  0  0  0  0  0
   55.9300   21.7820   43.3260 O   0  0  0  0  0  0  0  0  0  0  0  0
   58.0752   29.2535   43.7292 H   0  0  0  0  0  0  0  0  0  0  0  0
   56.7950   29.1696   42.4519 H   0  0  0  0  0  0  0  0  0  0  0  0
   57.9434   31.2298   42.0776 H   0  0  0  0  0  0  0  0  0  0  0  0
   56.3979   31.6638   42.8947 H   0  0  0  0  0  0  0  0  0  0  0  0
   58.4678   32.8336   47.7972 H   0  0  0  0  0  0  0  0  0  0  0  0
   60.1052   34.9450   48.2131 H   0  0  0  0  0  0  0  0  0  0  0  0
   60.2939   36.2333   45.8761 H   0  0  0  0  0  0  0  0  0  0  0  0
   58.7468   29.2654   45.3974 H   0  0  0  0  0  0  0  0  0  0  0  0
   60.7299   27.8575   45.9329 H   0  0  0  0  0  0  0  0  0  0  0  0
   60.4415   25.4481   46.4921 H   0  0  0  0  0  0  0  0  0  0  0  0
   58.1696   24.4317   46.5147 H   0  0  0  0  0  0  0  0  0  0  0  0
   54.3336   22.7496   45.4492 H   0  0  0  0  0  0  0  0  0  0  0  0
   54.6533   24.0706   44.2676 H   0  0  0  0  0  0  0  0  0  0  0  0
   57.9829   23.0595   45.5253 H   0  0  0  0  0  0  0  0  0  0  0  0
   59.1312   21.3420   43.7775 H   0  0  0  0  0  0  0  0  0  0  0  0
   57.1839   20.5050   42.1470 H   0  0  0  0  0  0  0  0  0  0  0  0
  1  2  2  0
  2  3  1  0
  3  4  1  0
  4  5  1  0
  5  6  1  0
  6  7  2  0
  6  8  1  0
  8  9  2  0
  9 10  1  0
 10 11  2  0
 11 12  1  0
  2 13  1  0
 13 14  1  0
 14 15  2  0
 15 16  1  0
 16 17  2  0
 17 18  1  0
 18 19  2  0
 19 20  1  0
 20 21  2  0
 20 22  1  0
 22 23  1  0
 23 24  1  0
 24 25  2  0
 25 26  1  0
 26 27  2  0
 27 28  1  0
 12  8  1  0
 19 14  1  0
 28 24  1  0
  3 29  1  0
  3 30  1  0
  4 31  1  0
  4 32  1  0
  9 33  1  0
 10 34  1  0
 11 35  1  0
 15 36  1  0
 16 37  1  0
 17 38  1  0
 18 39  1  0
 23 40  1  0
 23 41  1  0
 25 42  1  0
 26 43  1  0
 27 44  1  0
M  CHG  3   5  -1  13  -1  22  -1
M  END
>  <UniqueID>  (19) 
15

>  <SMILES>  (19) 
O=C(CC[N-]C(=O)c1ccco1)[N-]c1ccccc1C(=O)[N-]Cc1ccco1

>  <Energy>  (19) 
92.13925669468556

>  <Genealogy>  (19) 
O=C(CC[N-]C(=O)c1ccco1)[N-]c1ccccc1C(=O)[N-]Cc1ccco1 (protonated)
O=C(CC[N-]C(=O)c1ccco1)[N-]c1ccccc1C(=O)[N-]Cc1ccco1 (3D coordinates assigned)
O=C(CC[N-]C(=O)c1ccco1)[N-]c1ccccc1C(=O)[N-]Cc1ccco1 (optimized conformer: 92.13925669468556 kcal/mol)

>  <smiles>  (19) 
O=C(CCNC(=O)c1ccco1)Nc1ccccc1C(=O)NCc1ccco1

>  <score_type>  (19) 
oracle

>  <origin>  (19) 
adg

>  <m_score__min__energy>  (19) 
-13.66

>  <m_primary>  (19) 
energy

$$$$
19:0
     RDKit          3D

 70 74  0  0  0  0  0  0  0  0999 V2000
   61.5660   29.5830   51.3860 C   0  0  0  0  0  0  0  0  0  0  0  0
   60.6210   29.3890   50.2880 N   0  0  0  0  0  0  0  0  0  0  0  0
   60.5920   28.3260   49.4580 C   0  0  0  0  0  0  0  0  0  0  0  0
   59.5700   28.4910   48.5520 C   0  0  0  0  0  0  0  0  0  0  0  0
   59.1710   27.5240   47.5780 N   0  0  0  0  0  0  0  0  0  0  0  0
   59.3850   27.6820   46.1710 C   0  0  0  0  0  0  0  0  0  0  0  0
   60.3180   27.0400   45.6190 O   0  0  0  0  0  0  0  0  0  0  0  0
   58.5400   28.5720   45.3510 C   0  0  0  0  0  0  0  0  0  0  0  0
   58.1280   29.8380   45.7440 C   0  0  0  0  0  0  0  0  0  0  0  0
   57.3160   30.2950   44.7310 C   0  0  0  0  0  0  0  0  0  0  0  0
   56.6470   31.5640   44.7120 N   0  0  0  0  0  0  0  0  0  0  0  0
   57.2400   32.7960   45.1460 C   0  0  0  0  0  0  0  0  0  0  0  0
   57.0180   33.8460   44.4860 O   0  0  0  0  0  0  0  0  0  0  0  0
   58.1550   32.8500   46.3030 C   0  0  0  0  0  0  0  0  0  0  0  0
   57.7930   33.0260   47.6230 C   0  0  0  0  0  0  0  0  0  0  0  0
   58.8930   33.0710   48.3980 N   0  0  0  0  0  0  0  0  0  0  0  0
   59.9610   32.9450   47.5820 C   0  0  0  0  0  0  0  0  0  0  0  0
   61.3730   32.9980   48.0350 C   0  0  0  0  0  0  0  0  0  0  0  0
   62.2760   31.9720   47.6950 C   0  0  0  0  0  0  0  0  0  0  0  0
   63.6070   32.0290   48.1150 C   0  0  0  0  0  0  0  0  0  0  0  0
   64.0560   33.1070   48.8780 C   0  0  0  0  0  0  0  0  0  0  0  0
   63.1710   34.1290   49.2280 C   0  0  0  0  0  0  0  0  0  0  0  0
   61.8360   34.0790   48.8100 C   0  0  0  0  0  0  0  0  0  0  0  0
   59.5370   32.8080   46.2700 C   0  0  0  0  0  0  0  0  0  0  0  0
   57.2650   29.3220   43.7550 C   0  0  0  0  0  0  0  0  0  0  0  0
   57.9970   28.2600   44.1480 N   0  0  0  0  0  0  0  0  0  0  0  0
   58.1240   27.0160   43.3890 C   0  0  0  0  0  0  0  0  0  0  0  0
   58.9390   29.6900   48.8330 C   0  0  0  0  0  0  0  0  0  0  0  0
   59.6090   30.2140   49.9260 C   0  0  0  0  0  0  0  0  0  0  0  0
   59.2860   31.4900   50.5920 C   0  0  0  0  0  0  0  0  0  0  0  0
   60.2270   32.2480   50.9470 O   0  0  0  0  0  0  0  0  0  0  0  0
   57.9360   31.9080   50.8370 N   0  0  0  0  0  0  0  0  0  0  0  0
   57.3450   32.2440   52.1310 C   0  0  0  0  0  0  0  0  0  0  0  0
   56.0200   31.5020   52.3470 C   0  0  0  0  0  0  0  0  0  0  0  0
   56.1430   30.0700   51.9890 N   0  0  0  0  0  0  0  0  0  0  0  0
   57.3700   29.4650   52.5450 C   0  0  0  0  0  0  0  0  0  0  0  0
   57.2750   29.2820   54.0790 C   0  0  0  0  0  0  0  0  0  0  0  0
   55.9540   29.4040   54.5780 O   0  0  0  0  0  0  0  0  0  0  0  0
   55.0630   28.6590   53.7760 C   0  0  0  0  0  0  0  0  0  0  0  0
   54.9470   29.2810   52.3680 C   0  0  0  0  0  0  0  0  0  0  0  0
   61.0399   29.4750   52.3460 H   0  0  0  0  0  0  0  0  0  0  0  0
   62.3653   28.8302   51.3192 H   0  0  0  0  0  0  0  0  0  0  0  0
   62.0040   30.5898   51.3192 H   0  0  0  0  0  0  0  0  0  0  0  0
   61.2758   27.4654   49.4990 H   0  0  0  0  0  0  0  0  0  0  0  0
   58.3948   30.3658   46.6715 H   0  0  0  0  0  0  0  0  0  0  0  0
   56.7592   33.1161   47.9878 H   0  0  0  0  0  0  0  0  0  0  0  0
   58.9050   33.2340   49.4280 H   0  0  0  0  0  0  0  0  0  0  0  0
   61.9301   31.1184   47.0935 H   0  0  0  0  0  0  0  0  0  0  0  0
   64.3030   31.2216   47.8433 H   0  0  0  0  0  0  0  0  0  0  0  0
   65.1058   33.1520   49.2035 H   0  0  0  0  0  0  0  0  0  0  0  0
   63.5242   34.9762   49.8342 H   0  0  0  0  0  0  0  0  0  0  0  0
   61.1449   34.8883   49.0883 H   0  0  0  0  0  0  0  0  0  0  0  0
   60.1726   32.6895   45.3800 H   0  0  0  0  0  0  0  0  0  0  0  0
   56.7143   29.4000   42.8060 H   0  0  0  0  0  0  0  0  0  0  0  0
   58.2105   26.1688   44.0853 H   0  0  0  0  0  0  0  0  0  0  0  0
   57.2350   26.8806   42.7555 H   0  0  0  0  0  0  0  0  0  0  0  0
   59.0220   27.0631   42.7555 H   0  0  0  0  0  0  0  0  0  0  0  0
   58.0849   30.1336   48.3003 H   0  0  0  0  0  0  0  0  0  0  0  0
   58.0474   31.9633   52.9296 H   0  0  0  0  0  0  0  0  0  0  0  0
   57.1451   33.3255   52.1515 H   0  0  0  0  0  0  0  0  0  0  0  0
   55.7315   31.5837   53.4053 H   0  0  0  0  0  0  0  0  0  0  0  0
   55.2561   31.9582   51.7002 H   0  0  0  0  0  0  0  0  0  0  0  0
   57.5255   28.4814   52.0778 H   0  0  0  0  0  0  0  0  0  0  0  0
   58.2116   30.1406   52.3322 H   0  0  0  0  0  0  0  0  0  0  0  0
   57.6539   28.2816   54.3353 H   0  0  0  0  0  0  0  0  0  0  0  0
   57.8723   30.0825   54.5399 H   0  0  0  0  0  0  0  0  0  0  0  0
   55.4345   27.6276   53.6857 H   0  0  0  0  0  0  0  0  0  0  0  0
   54.0700   28.6667   54.2492 H   0  0  0  0  0  0  0  0  0  0  0  0
   54.8136   28.4710   51.6358 H   0  0  0  0  0  0  0  0  0  0  0  0
   54.0871   29.9669   52.3785 H   0  0  0  0  0  0  0  0  0  0  0  0
  1  2  1  0
  2  3  1  0
  3  4  2  0
  4  5  1  0
  5  6  1  0
  6  7  2  0
  6  8  1  0
  8  9  2  0
  9 10  1  0
 10 11  1  0
 11 12  1  0
 12 13  2  0
 12 14  1  0
 14 15  2  0
 15 16  1  0
 16 17  1  0
 17 18  1  0
 18 19  2  0
 19 20  1  0
 20 21  2  0
 21 22  1  0
 22 23  2  0
 17 24  2  0
 10 25  2  0
 25 26  1  0
 26 27  1  0
  4 28  1  0
 28 29  2  0
 29 30  1  0
 30 31  2  0
 30 32  1  0
 32 33  1  0
 33 34  1  0
 34 35  1  0
 35 36  1  0
 36 37  1  0
 37 38  1  0
 38 39  1  0
 39 40  1  0
 29  2  1  0
 40 35  1  0
 26  8  1  0
 24 14  1  0
 23 18  1  0
  1 41  1  0
  1 42  1  0
  1 43  1  0
  3 44  1  0
  9 45  1  0
 15 46  1  0
 16 47  1  0
 19 48  1  0
 20 49  1  0
 21 50  1  0
 22 51  1  0
 23 52  1  0
 24 53  1  0
 25 54  1  0
 27 55  1  0
 27 56  1  0
 27 57  1  0
 28 58  1  0
 33 59  1  0
 33 60  1  0
 34 61  1  0
 34 62  1  0
 36 63  1  0
 36 64  1  0
 37 65  1  0
 37 66  1  0
 39 67  1  0
 39 68  1  0
 40 69  1  0
 40 70  1  0
M  CHG  3   5  -1  11  -1  32  -1
M  END
>  <UniqueID>  (20) 
16

>  <SMILES>  (20) 
Cn1cc([N-]C(=O)c2cc([N-]C(=O)c3c[nH]c(-c4ccccc4)c3)cn2C)cc1C(=O)[N-]CCN1CCOCC1

>  <Energy>  (20) 
178.32034153773793

>  <Genealogy>  (20) 
Cn1cc([N-]C(=O)c2cc([N-]C(=O)c3c[nH]c(-c4ccccc4)c3)cn2C)cc1C(=O)[N-]CCN1CCOCC1 (protonated)
Cn1cc([N-]C(=O)c2cc([N-]C(=O)c3c[nH]c(-c4ccccc4)c3)cn2C)cc1C(=O)[N-]CCN1CCOCC1 (3D coordinates assigned)
Cn1cc([N-]C(=O)c2cc([N-]C(=O)c3c[nH]c(-c4ccccc4)c3)cn2C)cc1C(=O)[N-]CCN1CCOCC1 (nonaromatic ring conformer: 178.32034153773793 kcal/mol)

>  <smiles>  (20) 
Cn1cc(NC(=O)c2cc(NC(=O)c3c[nH]c(-c4ccccc4)c3)cn2C)cc1C(=O)NCCN1CCOCC1

>  <score_type>  (20) 
oracle

>  <origin>  (20) 
adg

>  <m_score__min__energy>  (20) 
-13.82

>  <m_primary>  (20) 
energy

$$$$
20:0
     RDKit          3D

 56 59  0  0  0  0  0  0  0  0999 V2000
   63.2700   34.7904   46.7010 H   0  0  0  0  0  0  0  0  0  0  0  0
   63.4470   33.8930   47.3120 C   0  0  0  0  0  0  0  0  0  0  0  0
   64.1380   33.8630   48.4280 O   0  0  0  0  0  0  0  0  0  0  0  0
   64.1380   32.6320   48.8850 C   0  0  0  0  0  0  0  0  0  0  0  0
   64.8470   32.2010   50.1300 C   0  0  0  0  0  0  0  0  0  0  0  0
   65.9326   32.2171   49.9532 H   0  0  0  0  0  0  0  0  0  0  0  0
   64.5225   31.1831   50.3920 H   0  0  0  0  0  0  0  0  0  0  0  0
   64.5240   33.1050   51.2400 N   0  0  0  0  0  0  0  0  0  0  0  0
   63.2080   33.0770   51.8280 C   0  0  0  0  0  0  0  0  0  0  0  0
   63.0810   33.0460   53.0820 O   0  0  0  0  0  0  0  0  0  0  0  0
   61.9890   33.0640   50.9910 C   0  0  0  0  0  0  0  0  0  0  0  0
   61.6310   34.2020   50.2750 C   0  0  0  0  0  0  0  0  0  0  0  0
   62.2563   35.1050   50.3347 H   0  0  0  0  0  0  0  0  0  0  0  0
   60.5170   34.2040   49.5050 N   0  0  0  0  0  0  0  0  0  0  0  0
   60.2670   35.1020   49.0360 H   0  0  0  0  0  0  0  0  0  0  0  0
   59.7290   33.0910   49.3890 C   0  0  0  0  0  0  0  0  0  0  0  0
   58.6530   33.1050   48.6460 N   0  0  0  0  0  0  0  0  0  0  0  0
   58.5590   33.3770   47.2400 C   0  0  0  0  0  0  0  0  0  0  0  0
   59.1230   34.5390   46.6890 C   0  0  0  0  0  0  0  0  0  0  0  0
   59.5891   35.2880   47.3460 H   0  0  0  0  0  0  0  0  0  0  0  0
   59.0930   34.7450   45.3080 C   0  0  0  0  0  0  0  0  0  0  0  0
   59.5243   35.6623   44.8807 H   0  0  0  0  0  0  0  0  0  0  0  0
   58.5160   33.7880   44.4670 C   0  0  0  0  0  0  0  0  0  0  0  0
   58.4994   33.9539   43.3797 H   0  0  0  0  0  0  0  0  0  0  0  0
   57.9570   32.6150   45.0040 C   0  0  0  0  0  0  0  0  0  0  0  0
   57.3960   31.5500   44.0950 C   0  0  0  0  0  0  0  0  0  0  0  0
   56.0940   31.2410   44.4500 F   0  0  0  0  0  0  0  0  0  0  0  0
   58.1520   30.3940   44.1730 F   0  0  0  0  0  0  0  0  0  0  0  0
   57.4090   32.0120   42.7920 F   0  0  0  0  0  0  0  0  0  0  0  0
   58.0160   32.4040   46.3930 C   0  0  0  0  0  0  0  0  0  0  0  0
   57.6316   31.4651   46.8181 H   0  0  0  0  0  0  0  0  0  0  0  0
   60.0530   31.9490   50.0870 N   0  0  0  0  0  0  0  0  0  0  0  0
   59.2180   30.7340   49.9510 C   0  0  0  0  0  0  0  0  0  0  0  0
   59.4914   30.0173   50.7395 H   0  0  0  0  0  0  0  0  0  0  0  0
   58.1597   31.0185   50.0458 H   0  0  0  0  0  0  0  0  0  0  0  0
   59.4300   30.0930   48.6040 C   0  0  0  0  0  0  0  0  0  0  0  0
   60.4760   30.5260   47.7710 C   0  0  0  0  0  0  0  0  0  0  0  0
   61.1562   31.3196   48.1139 H   0  0  0  0  0  0  0  0  0  0  0  0
   60.6560   29.9530   46.5090 C   0  0  0  0  0  0  0  0  0  0  0  0
   61.4782   30.2953   45.8634 H   0  0  0  0  0  0  0  0  0  0  0  0
   59.7940   28.9460   46.0650 C   0  0  0  0  0  0  0  0  0  0  0  0
   60.0190   28.2310   44.4800 Cl  0  0  0  0  0  0  0  0  0  0  0  0
   58.7490   28.5100   46.8880 C   0  0  0  0  0  0  0  0  0  0  0  0
   58.0700   27.7175   46.5401 H   0  0  0  0  0  0  0  0  0  0  0  0
   58.5670   29.0800   48.1510 C   0  0  0  0  0  0  0  0  0  0  0  0
   57.7442   28.7342   48.7940 H   0  0  0  0  0  0  0  0  0  0  0  0
   61.1860   31.9210   50.8660 C   0  0  0  0  0  0  0  0  0  0  0  0
   61.5270   30.8620   51.4630 O   0  0  0  0  0  0  0  0  0  0  0  0
   65.4630   34.1730   51.5990 C   0  0  0  0  0  0  0  0  0  0  0  0
   65.5301   34.2494   52.6943 H   0  0  0  0  0  0  0  0  0  0  0  0
   66.4561   33.9423   51.1860 H   0  0  0  0  0  0  0  0  0  0  0  0
   65.1070   35.1284   51.1860 H   0  0  0  0  0  0  0  0  0  0  0  0
   63.4220   31.8100   48.0370 C   0  0  0  0  0  0  0  0  0  0  0  0
   63.2449   30.7301   48.1488 H   0  0  0  0  0  0  0  0  0  0  0  0
   62.9760   32.6280   47.0210 C   0  0  0  0  0  0  0  0  0  0  0  0
   62.3676   32.3326   46.1535 H   0  0  0  0  0  0  0  0  0  0  0  0
  1  2  1  0
  2  3  1  0
  3  4  1  0
  4  5  1  0
  5  6  1  0
  5  7  1  0
  5  8  1  0
  8  9  1  0
  9 10  2  0
  9 11  1  0
 11 12  2  0
 12 13  1  0
 12 14  1  0
 14 15  1  0
 14 16  1  0
 16 17  2  0
 17 18  1  0
 18 19  2  0
 19 20  1  0
 19 21  1  0
 21 22  1  0
 21 23  2  0
 23 24  1  0
 23 25  1  0
 25 26  1  0
 26 27  1  0
 26 28  1  0
 26 29  1  0
 25 30  2  0
 30 31  1  0
 16 32  1  0
 32 33  1  0
 33 34  1  0
 33 35  1  0
 33 36  1  0
 36 37  2  0
 37 38  1  0
 37 39  1  0
 39 40  1  0
 39 41  2  0
 41 42  1  0
 41 43  1  0
 43 44  1  0
 43 45  2  0
 45 46  1  0
 32 47  1  0
 47 48  2  0
  8 49  1  0
 49 50  1  0
 49 51  1  0
 49 52  1  0
  4 53  2  0
 53 54  1  0
 53 55  1  0
 55 56  1  0
 55  2  2  0
 47 11  1  0
 30 18  1  0
 45 36  1  0
M  END
>  <UniqueID>  (21) 
17

>  <SMILES>  (21) 
CN(Cc1ccco1)C(=O)c1c[nH]/c(=N\c2cccc(C(F)(F)F)c2)n(Cc2ccc(Cl)cc2)c1=O

>  <Energy>  (21) 
102.83056004394666

>  <Genealogy>  (21) 
CN(Cc1ccco1)C(=O)c1c[nH]/c(=N\c2cccc(C(F)(F)F)c2)n(Cc2ccc(Cl)cc2)c1=O (cis-trans isomerization)
CN(Cc1ccco1)C(=O)c1c[nH]/c(=N\c2cccc(C(F)(F)F)c2)n(Cc2ccc(Cl)cc2)c1=O (3D coordinates assigned)
CN(Cc1ccco1)C(=O)c1c[nH]/c(=N\c2cccc(C(F)(F)F)c2)n(Cc2ccc(Cl)cc2)c1=O (optimized conformer: 102.83056004394666 kcal/mol)

>  <smiles>  (21) 
CN(Cc1ccco1)C(=O)c1c[nH]c(=Nc2cccc(C(F)(F)F)c2)n(Cc2ccc(Cl)cc2)c1=O

>  <score_type>  (21) 
oracle

>  <origin>  (21) 
adg

>  <m_score__min__energy>  (21) 
-8.2200000000000006

>  <m_primary>  (21) 
energy

$$$$
21:0
     RDKit          3D

 52 54  0  0  0  0  0  0  0  0999 V2000
   54.0830   25.7240   45.6700 N   0  0  0  0  0  0  0  0  0  0  0  0
   53.6540   24.0750   45.3760 S   0  0  0  0  0  0  0  0  0  0  0  0
   52.1960   23.8810   45.6830 O   0  0  0  0  0  0  0  0  0  0  0  0
   53.9060   23.7800   43.9240 O   0  0  0  0  0  0  0  0  0  0  0  0
   54.6190   22.9930   46.3940 C   0  0  0  0  0  0  0  0  0  0  0  0
   54.0330   21.8070   46.8660 C   0  0  0  0  0  0  0  0  0  0  0  0
   54.7460   20.9440   47.6990 C   0  0  0  0  0  0  0  0  0  0  0  0
   56.0530   21.2520   48.0730 C   0  0  0  0  0  0  0  0  0  0  0  0
   56.6550   22.4210   47.6060 C   0  0  0  0  0  0  0  0  0  0  0  0
   55.9560   23.2940   46.7570 C   0  0  0  0  0  0  0  0  0  0  0  0
   56.6530   24.5070   46.2770 C   0  0  0  0  0  0  0  0  0  0  0  0
   57.0110   25.5110   47.1840 C   0  0  0  0  0  0  0  0  0  0  0  0
   57.7010   26.6440   46.7460 C   0  0  0  0  0  0  0  0  0  0  0  0
   58.0660   26.7820   45.3940 C   0  0  0  0  0  0  0  0  0  0  0  0
   58.8200   27.9830   44.9560 C   0  0  0  0  0  0  0  0  0  0  0  0
   60.0790   27.9240   44.8800 O   0  0  0  0  0  0  0  0  0  0  0  0
   58.1490   29.2000   44.5930 N   0  0  0  0  0  0  0  0  0  0  0  0
   58.9000   30.3700   44.1320 C   0  0  0  0  0  0  0  0  0  0  0  0
   57.9670   31.4880   43.6540 C   0  0  0  0  0  0  0  0  0  0  0  0
   56.7710   31.5930   44.5470 C   0  0  0  0  0  0  0  0  0  0  0  0
   55.8780   30.7040   44.5010 O   0  0  0  0  0  0  0  0  0  0  0  0
   56.6190   32.7330   45.4000 N   0  0  0  0  0  0  0  0  0  0  0  0
   57.3820   33.9660   45.2430 C   0  0  0  0  0  0  0  0  0  0  0  0
   58.6050   33.9290   46.1200 C   0  0  0  0  0  0  0  0  0  0  0  0
   59.8700   34.2350   45.5890 C   0  0  0  0  0  0  0  0  0  0  0  0
   61.0050   34.2030   46.4040 C   0  0  0  0  0  0  0  0  0  0  0  0
   60.8860   33.8790   47.7590 C   0  0  0  0  0  0  0  0  0  0  0  0
   59.6310   33.5880   48.3010 C   0  0  0  0  0  0  0  0  0  0  0  0
   59.4790   33.2160   50.0080 Cl  0  0  0  0  0  0  0  0  0  0  0  0
   58.4960   33.6030   47.4830 C   0  0  0  0  0  0  0  0  0  0  0  0
   57.6990   25.7710   44.4860 C   0  0  0  0  0  0  0  0  0  0  0  0
   57.0000   24.6420   44.9260 C   0  0  0  0  0  0  0  0  0  0  0  0
   53.2920   26.3150   45.3300 H   0  0  0  0  0  0  0  0  0  0  0  0
   53.0020   21.5561   46.5762 H   0  0  0  0  0  0  0  0  0  0  0  0
   54.2754   20.0182   48.0615 H   0  0  0  0  0  0  0  0  0  0  0  0
   56.6098   20.5736   48.7362 H   0  0  0  0  0  0  0  0  0  0  0  0
   57.6859   22.6607   47.9055 H   0  0  0  0  0  0  0  0  0  0  0  0
   56.7478   25.4075   48.2470 H   0  0  0  0  0  0  0  0  0  0  0  0
   57.9613   27.4353   47.4644 H   0  0  0  0  0  0  0  0  0  0  0  0
   57.1060   29.2300   44.5760 H   0  0  0  0  0  0  0  0  0  0  0  0
   59.5150   30.7488   44.9616 H   0  0  0  0  0  0  0  0  0  0  0  0
   59.5297   30.0620   43.2843 H   0  0  0  0  0  0  0  0  0  0  0  0
   58.5120   32.4435   43.6656 H   0  0  0  0  0  0  0  0  0  0  0  0
   57.6285   31.2557   42.6335 H   0  0  0  0  0  0  0  0  0  0  0  0
   57.6900   34.0726   44.1924 H   0  0  0  0  0  0  0  0  0  0  0  0
   56.7532   34.8198   45.5355 H   0  0  0  0  0  0  0  0  0  0  0  0
   59.9672   34.5011   44.5261 H   0  0  0  0  0  0  0  0  0  0  0  0
   61.9931   34.4330   45.9789 H   0  0  0  0  0  0  0  0  0  0  0  0
   61.7805   33.8531   48.3987 H   0  0  0  0  0  0  0  0  0  0  0  0
   57.5120   33.3581   47.9093 H   0  0  0  0  0  0  0  0  0  0  0  0
   57.9637   25.8694   43.4229 H   0  0  0  0  0  0  0  0  0  0  0  0
   56.7214   23.8565   44.2081 H   0  0  0  0  0  0  0  0  0  0  0  0
  1  2  1  0
  2  3  2  0
  2  4  2  0
  2  5  1  0
  5  6  2  0
  6  7  1  0
  7  8  2  0
  8  9  1  0
  9 10  2  0
 10 11  1  0
 11 12  2  0
 12 13  1  0
 13 14  2  0
 14 15  1  0
 15 16  2  0
 15 17  1  0
 17 18  1  0
 18 19  1  0
 19 20  1  0
 20 21  2  0
 20 22  1  0
 22 23  1  0
 23 24  1  0
 24 25  2  0
 25 26  1  0
 26 27  2  0
 27 28  1  0
 28 29  1  0
 28 30  2  0
 14 31  1  0
 31 32  2  0
 10  5  1  0
 32 11  1  0
 30 24  1  0
  1 33  1  0
  6 34  1  0
  7 35  1  0
  8 36  1  0
  9 37  1  0
 12 38  1  0
 13 39  1  0
 17 40  1  0
 18 41  1  0
 18 42  1  0
 19 43  1  0
 19 44  1  0
 23 45  1  0
 23 46  1  0
 25 47  1  0
 26 48  1  0
 27 49  1  0
 30 50  1  0
 31 51  1  0
 32 52  1  0
M  CHG  2   1  -1  22  -1
M  END
>  <UniqueID>  (22) 
18

>  <SMILES>  (22) 
[NH-]S(=O)(=O)c1ccccc1-c1ccc(C(=O)NCCC(=O)[N-]Cc2cccc(Cl)c2)cc1

>  <Energy>  (22) 
53.70971284227335

>  <Genealogy>  (22) 
[NH-]S(=O)(=O)c1ccccc1-c1ccc(C(=O)NCCC(=O)[N-]Cc2cccc(Cl)c2)cc1 (protonated)
[NH-]S(=O)(=O)c1ccccc1-c1ccc(C(=O)NCCC(=O)[N-]Cc2cccc(Cl)c2)cc1 (3D coordinates assigned)
[NH-]S(=O)(=O)c1ccccc1-c1ccc(C(=O)NCCC(=O)[N-]Cc2cccc(Cl)c2)cc1 (optimized conformer: 53.70971284227335 kcal/mol)

>  <smiles>  (22) 
NS(=O)(=O)c1ccccc1-c1ccc(C(=O)NCCC(=O)NCc2cccc(Cl)c2)cc1

>  <score_type>  (22) 
oracle

>  <origin>  (22) 
adg

>  <m_score__min__energy>  (22) 
-12.300000000000001

>  <m_primary>  (22) 
energy

$$$$
22:0
     RDKit          3D

 39 40  0  0  0  0  0  0  0  0999 V2000
   62.2850   32.3940   50.3310 C   0  0  0  0  0  0  0  0  0  0  0  0
   61.9800   31.6330   49.0430 C   0  0  0  0  0  0  0  0  0  0  0  0
   61.1540   32.4880   48.0950 C   0  0  0  0  0  0  0  0  0  0  0  0
   59.8150   32.1720   47.7560 C   0  0  0  0  0  0  0  0  0  0  0  0
   59.0490   30.7290   48.5630 S   0  0  0  0  0  0  0  0  0  0  0  0
   59.4440   29.5380   47.2730 C   0  0  0  0  0  0  0  0  0  0  0  0
   60.3330   29.8600   46.2360 C   0  0  0  0  0  0  0  0  0  0  0  0
   60.5950   28.9310   45.2240 C   0  0  0  0  0  0  0  0  0  0  0  0
   59.9580   27.6870   45.2320 C   0  0  0  0  0  0  0  0  0  0  0  0
   59.0570   27.3700   46.2510 C   0  0  0  0  0  0  0  0  0  0  0  0
   58.7980   28.2950   47.2670 C   0  0  0  0  0  0  0  0  0  0  0  0
   59.1600   32.8930   46.7700 N   0  0  0  0  0  0  0  0  0  0  0  0
   57.7500   32.5930   46.4150 C   0  0  0  0  0  0  0  0  0  0  0  0
   57.6330   31.9160   45.0380 C   0  0  0  0  0  0  0  0  0  0  0  0
   56.3030   31.5190   44.7960 O   0  0  0  0  0  0  0  0  0  0  0  0
   56.3190   29.9590   44.1390 S   0  0  0  0  0  0  0  0  0  0  0  0
   57.6750   29.3370   44.3200 O   0  0  0  0  0  0  0  0  0  0  0  0
   56.0170   30.0500   42.6700 O   0  0  0  0  0  0  0  0  0  0  0  0
   55.1510   29.0000   44.8750 O   0  0  0  0  0  0  0  0  0  0  0  0
   59.8250   33.9200   46.1290 C   0  0  0  0  0  0  0  0  0  0  0  0
   59.1370   34.7770   44.8970 S   0  0  0  0  0  0  0  0  0  0  0  0
   61.0960   34.2430   46.4810 N   0  0  0  0  0  0  0  0  0  0  0  0
   61.7690   33.5550   47.4310 C   0  0  0  0  0  0  0  0  0  0  0  0
   62.9600   33.8760   47.6970 O   0  0  0  0  0  0  0  0  0  0  0  0
   62.0328   31.7647   51.1972 H   0  0  0  0  0  0  0  0  0  0  0  0
   63.3547   32.6487   50.3619 H   0  0  0  0  0  0  0  0  0  0  0  0
   61.6873   33.3169   50.3619 H   0  0  0  0  0  0  0  0  0  0  0  0
   62.9260   31.3608   48.5521 H   0  0  0  0  0  0  0  0  0  0  0  0
   61.4059   30.7290   49.2944 H   0  0  0  0  0  0  0  0  0  0  0  0
   60.8242   30.8441   46.2191 H   0  0  0  0  0  0  0  0  0  0  0  0
   61.3037   29.1798   44.4203 H   0  0  0  0  0  0  0  0  0  0  0  0
   60.1663   26.9574   44.4356 H   0  0  0  0  0  0  0  0  0  0  0  0
   58.5514   26.3931   46.2542 H   0  0  0  0  0  0  0  0  0  0  0  0
   58.0836   28.0455   48.0654 H   0  0  0  0  0  0  0  0  0  0  0  0
   57.3269   31.9224   47.1774 H   0  0  0  0  0  0  0  0  0  0  0  0
   57.2006   33.5450   46.3730 H   0  0  0  0  0  0  0  0  0  0  0  0
   57.9470   32.6251   44.2579 H   0  0  0  0  0  0  0  0  0  0  0  0
   58.2789   31.0258   45.0226 H   0  0  0  0  0  0  0  0  0  0  0  0
   61.5860   35.0290   45.9920 H   0  0  0  0  0  0  0  0  0  0  0  0
  1  2  1  0
  2  3  1  0
  3  4  2  0
  4  5  1  0
  5  6  1  0
  6  7  2  0
  7  8  1  0
  8  9  2  0
  9 10  1  0
 10 11  2  0
  4 12  1  0
 12 13  1  0
 13 14  1  0
 14 15  1  0
 15 16  1  0
 16 17  2  0
 16 18  2  0
 16 19  1  0
 12 20  1  0
 20 21  2  0
 20 22  1  0
 22 23  1  0
 23 24  2  0
 23  3  1  0
 11  6  1  0
  1 25  1  0
  1 26  1  0
  1 27  1  0
  2 28  1  0
  2 29  1  0
  7 30  1  0
  8 31  1  0
  9 32  1  0
 10 33  1  0
 11 34  1  0
 13 35  1  0
 13 36  1  0
 14 37  1  0
 14 38  1  0
 22 39  1  0
M  CHG  1  19  -1
M  END
>  <UniqueID>  (23) 
19

>  <SMILES>  (23) 
CCc1c(Sc2ccccc2)n(CCOS(=O)(=O)[O-])c(=S)[nH]c1=O

>  <Energy>  (23) 
44.258018411735

>  <Genealogy>  (23) 
CCc1c(Sc2ccccc2)n(CCOS(=O)(=O)[O-])c(=S)[nH]c1=O (protonated)
CCc1c(Sc2ccccc2)n(CCOS(=O)(=O)[O-])c(=S)[nH]c1=O (3D coordinates assigned)
CCc1c(Sc2ccccc2)n(CCOS(=O)(=O)[O-])c(=S)[nH]c1=O (optimized conformer: 44.258018411735 kcal/mol)

>  <smiles>  (23) 
CCc1c(Sc2ccccc2)n(CCOS(=O)(=O)O)c(=S)[nH]c1=O

>  <score_type>  (23) 
oracle

>  <origin>  (23) 
adg

>  <m_score__min__energy>  (23) 
-11.210000000000001

>  <m_primary>  (23) 
energy

$$$$
23:0
     RDKit          3D

 50 53  0  0  0  0  0  0  0  0999 V2000
   54.8180   24.7390   45.5820 C   0  0  0  0  0  0  0  0  0  0  0  0
   56.2100   25.0980   46.0910 C   0  0  0  0  0  0  0  0  0  0  0  0
   56.6240   26.4100   45.5910 N   0  0  0  0  0  0  0  0  0  0  0  0
   57.4690   27.3370   46.3120 C   0  0  0  0  0  0  0  0  0  0  0  0
   58.1210   26.9530   47.4960 C   0  0  0  0  0  0  0  0  0  0  0  0
   58.9890   27.8290   48.1390 C   0  0  0  0  0  0  0  0  0  0  0  0
   59.1820   29.1190   47.6500 C   0  0  0  0  0  0  0  0  0  0  0  0
   58.4650   29.5830   46.5260 C   0  0  0  0  0  0  0  0  0  0  0  0
   58.5790   30.9160   46.0140 C   0  0  0  0  0  0  0  0  0  0  0  0
   59.0460   31.9330   46.7000 N   0  0  0  0  0  0  0  0  0  0  0  0
   60.3830   32.2360   47.1210 C   0  0  0  0  0  0  0  0  0  0  0  0
   60.7620   33.5510   47.4290 C   0  0  0  0  0  0  0  0  0  0  0  0
   62.0820   33.8400   47.7870 C   0  0  0  0  0  0  0  0  0  0  0  0
   63.0530   32.8200   47.8110 C   0  0  0  0  0  0  0  0  0  0  0  0
   64.4220   33.0730   48.1770 N   0  0  0  0  0  0  0  0  0  0  0  0
   65.0410   33.0080   49.7970 S   0  0  0  0  0  0  0  0  0  0  0  0
   64.5050   31.5120   50.6010 C   0  0  0  0  0  0  0  0  0  0  0  0
   66.5430   33.0860   49.7800 O   0  0  0  0  0  0  0  0  0  0  0  0
   64.5080   34.1820   50.5680 O   0  0  0  0  0  0  0  0  0  0  0  0
   62.6720   31.5140   47.4640 C   0  0  0  0  0  0  0  0  0  0  0  0
   61.3500   31.2270   47.1080 C   0  0  0  0  0  0  0  0  0  0  0  0
   58.1100   31.1780   44.7040 C   0  0  0  0  0  0  0  0  0  0  0  0
   58.2940   32.4310   44.0780 C   0  0  0  0  0  0  0  0  0  0  0  0
   57.7740   32.6710   42.8020 C   0  0  0  0  0  0  0  0  0  0  0  0
   57.0570   31.6750   42.1380 C   0  0  0  0  0  0  0  0  0  0  0  0
   56.8580   30.4340   42.7450 C   0  0  0  0  0  0  0  0  0  0  0  0
   57.3810   30.1810   44.0180 C   0  0  0  0  0  0  0  0  0  0  0  0
   57.1680   28.9770   44.5960 N   0  0  0  0  0  0  0  0  0  0  0  0
   57.6820   28.6400   45.8060 C   0  0  0  0  0  0  0  0  0  0  0  0
   54.1481   24.5662   46.4372 H   0  0  0  0  0  0  0  0  0  0  0  0
   54.4266   25.5656   44.9708 H   0  0  0  0  0  0  0  0  0  0  0  0
   54.8752   23.8262   44.9708 H   0  0  0  0  0  0  0  0  0  0  0  0
   56.1976   25.1187   47.1907 H   0  0  0  0  0  0  0  0  0  0  0  0
   56.9231   24.3421   45.7302 H   0  0  0  0  0  0  0  0  0  0  0  0
   56.2640   26.6780   44.6470 H   0  0  0  0  0  0  0  0  0  0  0  0
   57.9436   25.9525   47.9173 H   0  0  0  0  0  0  0  0  0  0  0  0
   59.5271   27.5007   49.0405 H   0  0  0  0  0  0  0  0  0  0  0  0
   59.9029   29.7852   48.1465 H   0  0  0  0  0  0  0  0  0  0  0  0
   60.0166   34.3590   47.3886 H   0  0  0  0  0  0  0  0  0  0  0  0
   62.3640   34.8698   48.0515 H   0  0  0  0  0  0  0  0  0  0  0  0
   65.1000   33.3490   47.4300 H   0  0  0  0  0  0  0  0  0  0  0  0
   64.5526   31.6448   51.6919 H   0  0  0  0  0  0  0  0  0  0  0  0
   63.4702   31.2866   50.3038 H   0  0  0  0  0  0  0  0  0  0  0  0
   65.1612   30.6807   50.3038 H   0  0  0  0  0  0  0  0  0  0  0  0
   63.4207   30.7082   47.4722 H   0  0  0  0  0  0  0  0  0  0  0  0
   61.0706   30.2037   46.8168 H   0  0  0  0  0  0  0  0  0  0  0  0
   58.8507   33.2243   44.5983 H   0  0  0  0  0  0  0  0  0  0  0  0
   57.9307   33.6476   42.3206 H   0  0  0  0  0  0  0  0  0  0  0  0
   56.6482   31.8680   41.1352 H   0  0  0  0  0  0  0  0  0  0  0  0
   56.2883   29.6524   42.2210 H   0  0  0  0  0  0  0  0  0  0  0  0
  1  2  1  0
  2  3  1  0
  3  4  1  0
  4  5  2  0
  5  6  1  0
  6  7  2  0
  7  8  1  0
  8  9  1  0
  9 10  2  3
 10 11  1  0
 11 12  2  0
 12 13  1  0
 13 14  2  0
 14 15  1  0
 15 16  1  0
 16 17  1  0
 16 18  2  0
 16 19  2  0
 14 20  1  0
 20 21  2  0
  9 22  1  0
 22 23  2  0
 23 24  1  0
 24 25  2  0
 25 26  1  0
 26 27  2  0
 27 28  1  0
 28 29  1  0
 29  4  1  0
 29  8  2  0
 21 11  1  0
 27 22  1  0
  1 30  1  0
  1 31  1  0
  1 32  1  0
  2 33  1  0
  2 34  1  0
  3 35  1  0
  5 36  1  0
  6 37  1  0
  7 38  1  0
 12 39  1  0
 13 40  1  0
 15 41  1  0
 17 42  1  0
 17 43  1  0
 17 44  1  0
 20 45  1  0
 21 46  1  0
 23 47  1  0
 24 48  1  0
 25 49  1  0
 26 50  1  0
M  CHG  1  28  -1
M  END
>  <UniqueID>  (24) 
20

>  <SMILES>  (24) 
CCNc1cccc2c(=Nc3ccc(NS(C)(=O)=O)cc3)c3ccccc3[n-]c12

>  <Energy>  (24) 
79.78954589525252

>  <Genealogy>  (24) 
CCNc1cccc2c(=Nc3ccc(NS(C)(=O)=O)cc3)c3ccccc3[n-]c12 (protonated)
CCNc1cccc2c(=Nc3ccc(NS(C)(=O)=O)cc3)c3ccccc3[n-]c12 (3D coordinates assigned)
CCNc1cccc2c(=Nc3ccc(NS(C)(=O)=O)cc3)c3ccccc3[n-]c12 (optimized conformer: 79.78954589525252 kcal/mol)

>  <smiles>  (24) 
CCNc1cccc2c(=Nc3ccc(NS(C)(=O)=O)cc3)c3ccccc3[nH]c12

>  <score_type>  (24) 
oracle

>  <origin>  (24) 
adg

>  <m_score__min__energy>  (24) 
-10.16

>  <m_primary>  (24) 
energy

$$$$
24:0
     RDKit          3D

 32 35  0  0  0  0  0  0  0  0999 V2000
   55.1410   26.7250   45.9720 O   0  0  0  0  0  0  0  0  0  0  0  0
   56.3460   26.9340   45.6740 C   0  0  0  0  0  0  0  0  0  0  0  0
   57.1750   25.8600   45.3790 O   0  0  0  0  0  0  0  0  0  0  0  0
   56.8700   28.3040   45.6400 C   0  0  0  0  0  0  0  0  0  0  0  0
   56.3700   29.3500   44.8690 C   0  0  0  0  0  0  0  0  0  0  0  0
   57.0320   30.5290   45.0130 N   0  0  0  0  0  0  0  0  0  0  0  0
   58.0530   30.4270   45.8930 C   0  0  0  0  0  0  0  0  0  0  0  0
   58.9110   31.5240   46.2290 N   0  0  0  0  0  0  0  0  0  0  0  0
   59.2690   32.5900   45.3080 C   0  0  0  0  0  0  0  0  0  0  0  0
   60.1910   33.5110   46.0950 C   0  0  1  0  0  0  0  0  0  0  0  0
   59.4950   34.2620   47.2370 C   0  0  0  0  0  0  0  0  0  0  0  0
   58.8010   35.1700   47.6650 O   0  0  0  0  0  0  0  0  0  0  0  0
   60.3230   32.9830   47.4240 C   0  0  2  0  0  0  0  0  0  0  0  0
   61.6640   33.1270   48.0930 C   0  0  0  0  0  0  0  0  0  0  0  0
   62.8190   32.6180   47.4760 C   0  0  0  0  0  0  0  0  0  0  0  0
   64.0600   32.7150   48.1130 C   0  0  0  0  0  0  0  0  0  0  0  0
   64.1560   33.3050   49.3760 C   0  0  0  0  0  0  0  0  0  0  0  0
   65.7140   33.4240   50.1740 Cl  0  0  0  0  0  0  0  0  0  0  0  0
   63.0070   33.7920   50.0070 C   0  0  0  0  0  0  0  0  0  0  0  0
   61.7630   33.6980   49.3750 C   0  0  0  0  0  0  0  0  0  0  0  0
   60.6560   34.1550   50.0150 F   0  0  0  0  0  0  0  0  0  0  0  0
   59.5370   31.6850   47.5280 C   0  0  0  0  0  0  0  0  0  0  0  0
   58.1810   28.8730   46.5310 S   0  0  0  0  0  0  0  0  0  0  0  0
   55.5076   29.2320   44.1965 H   0  0  0  0  0  0  0  0  0  0  0  0
   59.7910   32.1812   44.4303 H   0  0  0  0  0  0  0  0  0  0  0  0
   58.3821   33.1218   44.9330 H   0  0  0  0  0  0  0  0  0  0  0  0
   60.8643   33.8471   45.2926 H   0  0  0  0  0  0  0  0  0  0  0  0
   62.7468   32.1410   46.4874 H   0  0  0  0  0  0  0  0  0  0  0  0
   64.9625   32.3261   47.6188 H   0  0  0  0  0  0  0  0  0  0  0  0
   63.0819   34.2506   51.0040 H   0  0  0  0  0  0  0  0  0  0  0  0
   60.2096   30.8410   47.7410 H   0  0  0  0  0  0  0  0  0  0  0  0
   58.7992   31.7113   48.3434 H   0  0  0  0  0  0  0  0  0  0  0  0
  1  2  2  0
  2  3  1  0
  2  4  1  0
  4  5  2  0
  5  6  1  0
  6  7  2  0
  7  8  1  0
  8  9  1  0
  9 10  1  0
 10 11  1  0
 11 12  2  0
 11 13  1  0
 13 14  1  1
 14 15  2  0
 15 16  1  0
 16 17  2  0
 17 18  1  0
 17 19  1  0
 19 20  2  0
 20 21  1  0
 13 22  1  0
  7 23  1  0
 23  4  1  0
 22  8  1  0
 13 10  1  0
 20 14  1  0
  5 24  1  0
  9 25  1  0
  9 26  1  0
 10 27  1  6
 15 28  1  0
 16 29  1  0
 19 30  1  0
 22 31  1  0
 22 32  1  0
M  CHG  1   3  -1
M  END
>  <UniqueID>  (25) 
21

>  <SMILES>  (25) 
O=C([O-])c1cnc(N2C[C@H]3C(=O)[C@@]3(c3ccc(Cl)cc3F)C2)s1

>  <Energy>  (25) 
240.45799467121736

>  <Genealogy>  (25) 
O=C([O-])c1cnc(N2CC3C(=O)C3(c3ccc(Cl)cc3F)C2)s1 (protonated)
O=C([O-])c1cnc(N2C[C@H]3C(=O)[C@@]3(c3ccc(Cl)cc3F)C2)s1 (chirality)
O=C([O-])c1cnc(N2C[C@H]3C(=O)[C@@]3(c3ccc(Cl)cc3F)C2)s1 (3D coordinates assigned)
O=C([O-])c1cnc(N2C[C@H]3C(=O)[C@@]3(c3ccc(Cl)cc3F)C2)s1 (nonaromatic ring conformer: 240.45799467121736 kcal/mol)

>  <smiles>  (25) 
O=C(O)c1cnc(N2CC3C(=O)C3(c3ccc(Cl)cc3F)C2)s1

>  <score_type>  (25) 
oracle

>  <origin>  (25) 
adg

>  <m_score__min__energy>  (25) 
-9.6600000000000001

>  <m_primary>  (25) 
energy

$$$$
25:0
     RDKit          3D

 64 68  0  0  0  0  0  0  0  0999 V2000
   57.7590   28.2190   43.9980 C   0  0  0  0  0  0  0  0  0  0  0  0
   57.9760   29.6190   44.4910 C   0  0  0  0  0  0  0  0  0  0  0  0
   57.4480   30.7080   43.7810 C   0  0  0  0  0  0  0  0  0  0  0  0
   57.6810   32.0140   44.2210 C   0  0  0  0  0  0  0  0  0  0  0  0
   58.4540   32.2470   45.3660 C   0  0  0  0  0  0  0  0  0  0  0  0
   58.7170   33.8990   45.9160 S   0  0  0  0  0  0  0  0  0  0  0  0
   57.3940   34.5030   46.2960 O   0  0  0  0  0  0  0  0  0  0  0  0
   59.3250   34.7350   44.8240 O   0  0  0  0  0  0  0  0  0  0  0  0
   59.8140   33.8660   47.3000 C   0  0  0  0  0  0  0  0  0  0  0  0
   59.3040   33.9590   48.5960 C   0  0  0  0  0  0  0  0  0  0  0  0
   60.1200   33.8910   49.6940 N   0  0  0  0  0  0  0  0  0  0  0  0
   59.4750   33.9540   51.0240 C   0  0  0  0  0  0  0  0  0  0  0  0
   58.6300   32.7270   51.2740 C   0  0  0  0  0  0  0  0  0  0  0  0
   57.4970   32.8010   52.1030 C   0  0  0  0  0  0  0  0  0  0  0  0
   56.7190   31.6630   52.3360 C   0  0  0  0  0  0  0  0  0  0  0  0
   57.0550   30.4480   51.7330 C   0  0  0  0  0  0  0  0  0  0  0  0
   58.1680   30.3710   50.8910 C   0  0  0  0  0  0  0  0  0  0  0  0
   58.9510   31.5060   50.6570 C   0  0  0  0  0  0  0  0  0  0  0  0
   61.4830   33.7210   49.5380 C   0  0  0  0  0  0  0  0  0  0  0  0
   62.3590   33.6350   50.6450 C   0  0  0  0  0  0  0  0  0  0  0  0
   63.7340   33.4330   50.4740 C   0  0  0  0  0  0  0  0  0  0  0  0
   64.5950   33.3110   51.6180 N   0  0  0  0  0  0  0  0  0  0  0  0
   64.8150   34.4740   52.4900 C   0  0  0  0  0  0  0  0  0  0  0  0
   65.5000   34.0550   53.7930 C   0  0  0  0  0  0  0  0  0  0  0  0
   64.9890   32.7380   54.2050 N   0  0  0  0  0  0  0  0  0  0  0  0
   65.4010   32.4360   55.5850 C   0  0  0  0  0  0  0  0  0  0  0  0
   65.4530   31.6750   53.2860 C   0  0  0  0  0  0  0  0  0  0  0  0
   65.4060   32.1020   51.8020 C   0  0  0  0  0  0  0  0  0  0  0  0
   64.2610   33.3290   49.1820 C   0  0  0  0  0  0  0  0  0  0  0  0
   65.5860   33.1030   48.9970 F   0  0  0  0  0  0  0  0  0  0  0  0
   63.4230   33.4250   48.0720 C   0  0  0  0  0  0  0  0  0  0  0  0
   62.0370   33.6160   48.2330 C   0  0  0  0  0  0  0  0  0  0  0  0
   61.1880   33.6900   47.1170 C   0  0  0  0  0  0  0  0  0  0  0  0
   61.6560   33.5890   45.9490 O   0  0  0  0  0  0  0  0  0  0  0  0
   58.9970   31.1610   46.0670 C   0  0  0  0  0  0  0  0  0  0  0  0
   58.7660   29.8550   45.6270 C   0  0  0  0  0  0  0  0  0  0  0  0
   57.6537   27.5400   44.8570 H   0  0  0  0  0  0  0  0  0  0  0  0
   56.8445   28.1828   43.3878 H   0  0  0  0  0  0  0  0  0  0  0  0
   58.6196   27.9076   43.3878 H   0  0  0  0  0  0  0  0  0  0  0  0
   56.8488   30.5333   42.8752 H   0  0  0  0  0  0  0  0  0  0  0  0
   57.2555   32.8629   43.6657 H   0  0  0  0  0  0  0  0  0  0  0  0
   58.2212   34.0900   48.7389 H   0  0  0  0  0  0  0  0  0  0  0  0
   60.2533   34.0188   51.7986 H   0  0  0  0  0  0  0  0  0  0  0  0
   58.8244   34.8404   51.0566 H   0  0  0  0  0  0  0  0  0  0  0  0
   57.2215   33.7580   52.5702 H   0  0  0  0  0  0  0  0  0  0  0  0
   55.8406   31.7242   52.9953 H   0  0  0  0  0  0  0  0  0  0  0  0
   56.4440   29.5528   51.9209 H   0  0  0  0  0  0  0  0  0  0  0  0
   58.4286   29.4159   50.4115 H   0  0  0  0  0  0  0  0  0  0  0  0
   59.8214   31.4426   49.9874 H   0  0  0  0  0  0  0  0  0  0  0  0
   61.9513   33.7288   51.6624 H   0  0  0  0  0  0  0  0  0  0  0  0
   65.4515   35.2022   51.9660 H   0  0  0  0  0  0  0  0  0  0  0  0
   63.8401   34.9220   52.7326 H   0  0  0  0  0  0  0  0  0  0  0  0
   66.5869   33.9951   53.6348 H   0  0  0  0  0  0  0  0  0  0  0  0
   65.2880   34.7963   54.5776 H   0  0  0  0  0  0  0  0  0  0  0  0
   64.7192   32.9357   56.2889 H   0  0  0  0  0  0  0  0  0  0  0  0
   65.3649   31.3489   55.7489 H   0  0  0  0  0  0  0  0  0  0  0  0
   66.4269   32.7976   55.7489 H   0  0  0  0  0  0  0  0  0  0  0  0
   66.4904   31.4158   53.5441 H   0  0  0  0  0  0  0  0  0  0  0  0
   64.7755   30.8166   53.4046 H   0  0  0  0  0  0  0  0  0  0  0  0
   66.4304   32.3019   51.4545 H   0  0  0  0  0  0  0  0  0  0  0  0
   64.9489   31.2870   51.2216 H   0  0  0  0  0  0  0  0  0  0  0  0
   63.8486   33.3508   47.0604 H   0  0  0  0  0  0  0  0  0  0  0  0
   59.6064   31.3375   46.9656 H   0  0  0  0  0  0  0  0  0  0  0  0
   59.2055   29.0076   46.1736 H   0  0  0  0  0  0  0  0  0  0  0  0
  1  2  1  0
  2  3  2  0
  3  4  1  0
  4  5  2  0
  5  6  1  0
  6  7  2  0
  6  8  2  0
  6  9  1  0
  9 10  2  0
 10 11  1  0
 11 12  1  0
 12 13  1  0
 13 14  2  0
 14 15  1  0
 15 16  2  0
 16 17  1  0
 17 18  2  0
 11 19  1  0
 19 20  2  0
 20 21  1  0
 21 22  1  0
 22 23  1  0
 23 24  1  0
 24 25  1  0
 25 26  1  0
 25 27  1  0
 27 28  1  0
 21 29  2  0
 29 30  1  0
 29 31  1  0
 31 32  2  0
 32 33  1  0
 33 34  2  0
  5 35  1  0
 35 36  2  0
 36  2  1  0
 33  9  1  0
 18 13  1  0
 32 19  1  0
 28 22  1  0
  1 37  1  0
  1 38  1  0
  1 39  1  0
  3 40  1  0
  4 41  1  0
 10 42  1  0
 12 43  1  0
 12 44  1  0
 14 45  1  0
 15 46  1  0
 16 47  1  0
 17 48  1  0
 18 49  1  0
 20 50  1  0
 23 51  1  0
 23 52  1  0
 24 53  1  0
 24 54  1  0
 26 55  1  0
 26 56  1  0
 26 57  1  0
 27 58  1  0
 27 59  1  0
 28 60  1  0
 28 61  1  0
 31 62  1  0
 35 63  1  0
 36 64  1  0
M  END
>  <UniqueID>  (26) 
22

>  <SMILES>  (26) 
Cc1ccc(S(=O)(=O)c2cn(Cc3ccccc3)c3cc(N4CCN(C)CC4)c(F)cc3c2=O)cc1

>  <Energy>  (26) 
88.84199425655977

>  <Genealogy>  (26) 
Cc1ccc(S(=O)(=O)c2cn(Cc3ccccc3)c3cc(N4CCN(C)CC4)c(F)cc3c2=O)cc1 (3D coordinates assigned)
Cc1ccc(S(=O)(=O)c2cn(Cc3ccccc3)c3cc(N4CCN(C)CC4)c(F)cc3c2=O)cc1 (nonaromatic ring conformer: 88.84199425655977 kcal/mol)

>  <smiles>  (26) 
Cc1ccc(S(=O)(=O)c2cn(Cc3ccccc3)c3cc(N4CCN(C)CC4)c(F)cc3c2=O)cc1

>  <score_type>  (26) 
oracle

>  <origin>  (26) 
adg

>  <m_score__min__energy>  (26) 
-9.4900000000000002

>  <m_primary>  (26) 
energy

$$$$
26:0
     RDKit          3D

 43 45  0  0  1  0  0  0  0  0999 V2000
   56.4580   24.4770   44.6530 C   0  0  0  0  0  0  0  0  0  0  0  0
   55.9610   25.7680   45.7320 S   0  0  0  0  0  0  0  0  0  0  0  0
   56.2680   25.3270   47.1380 O   0  0  0  0  0  0  0  0  0  0  0  0
   54.4850   25.9440   45.6560 O   0  0  0  0  0  0  0  0  0  0  0  0
   56.7090   27.2800   45.3690 N   0  0  0  0  0  0  0  0  0  0  0  0
   57.9250   27.6910   45.9850 C   0  0  0  0  0  0  0  0  0  0  0  0
   58.8180   26.7050   46.4210 C   0  0  0  0  0  0  0  0  0  0  0  0
   60.0080   27.0970   47.0230 C   0  0  0  0  0  0  0  0  0  0  0  0
   60.3380   28.4290   47.2060 C   0  0  0  0  0  0  0  0  0  0  0  0
   59.4430   29.4060   46.7690 C   0  0  0  0  0  0  0  0  0  0  0  0
   58.2360   29.0490   46.1590 C   0  0  0  0  0  0  0  0  0  0  0  0
   59.1510   34.0720   46.7280 N   0  0  0  0  0  0  0  0  0  0  0  0
   58.6190   33.2660   45.8690 C   0  0  0  0  0  0  0  0  0  0  0  0
   58.2400   32.0280   46.2370 N   0  0  0  0  0  0  0  0  0  0  0  0
   57.6810   31.1920   45.3180 C   0  0  0  0  0  0  0  0  0  0  0  0
   57.3360   30.0410   45.6890 N   0  0  0  0  0  0  0  0  0  0  0  0
   60.4550   33.8500   47.2590 C   0  0  0  0  0  0  0  0  0  0  0  0
   60.7000   33.6860   48.5960 C   0  0  0  0  0  0  0  0  0  0  0  0
   61.9930   33.4740   49.0410 C   0  0  0  0  0  0  0  0  0  0  0  0
   63.0280   33.4320   48.1080 C   0  0  0  0  0  0  0  0  0  0  0  0
   64.3470   33.2220   48.4990 O   0  0  0  0  0  0  0  0  0  0  0  0
   62.7960   33.5960   46.7620 C   0  0  0  0  0  0  0  0  0  0  0  0
   61.5030   33.8050   46.3470 C   0  0  0  0  0  0  0  0  0  0  0  0
   58.4730   33.7380   44.6140 N   0  0  0  0  0  0  0  0  0  0  0  0
   57.9190   32.8980   43.7200 C   0  0  0  0  0  0  0  0  0  0  0  0
   57.5090   31.6210   44.0290 C   0  0  0  0  0  0  0  0  0  0  0  0
   56.8120   30.6310   42.8060 Cl  0  0  0  0  0  0  0  0  0  0  0  0
   56.7910   23.6119   45.2452 H   0  0  0  0  0  0  0  0  0  0  0  0
   55.6091   24.1821   44.0186 H   0  0  0  0  0  0  0  0  0  0  0  0
   57.2855   24.8275   44.0186 H   0  0  0  0  0  0  0  0  0  0  0  0
   56.2780   27.9540   44.6670 H   0  0  0  0  0  0  0  0  0  0  0  0
   58.5821   25.6387   46.2895 H   0  0  0  0  0  0  0  0  0  0  0  0
   60.7108   26.3232   47.3654 H   0  0  0  0  0  0  0  0  0  0  0  0
   61.2865   28.7113   47.6862 H   0  0  0  0  0  0  0  0  0  0  0  0
   59.6894   30.4693   46.9058 H   0  0  0  0  0  0  0  0  0  0  0  0
   58.3890   31.7400   47.2320 H   0  0  0  0  0  0  0  0  0  0  0  0
   59.8693   33.7228   49.3162 H   0  0  0  0  0  0  0  0  0  0  0  0
   62.2007   33.3408   50.1130 H   0  0  0  0  0  0  0  0  0  0  0  0
   64.9840   32.7440   47.8510 H   0  0  0  0  0  0  0  0  0  0  0  0
   63.6231   33.5608   46.0377 H   0  0  0  0  0  0  0  0  0  0  0  0
   61.2937   33.9389   45.2754 H   0  0  0  0  0  0  0  0  0  0  0  0
   58.7770   34.7140   44.3400 H   0  0  0  0  0  0  0  0  0  0  0  0
   57.7868   33.2512   42.6867 H   0  0  0  0  0  0  0  0  0  0  0  0
  1  2  1  0
  2  3  2  0
  2  4  2  0
  2  5  1  0
  5  6  1  0
  6  7  2  0
  7  8  1  0
  8  9  2  0
  9 10  1  0
 10 11  2  0
 11 12  1  0
 12 13  2  0
 13 14  1  0
 14 15  1  0
 15 16  2  0
 16 17  1  0
 17 18  2  0
 18 19  1  0
 19 20  2  0
 20 21  1  0
 20 22  1  0
 22 23  2  0
 15 24  1  0
 24 25  1  0
 25 26  2  0
 26 27  1  0
 11  6  1  0
 26 13  1  0
 23 17  1  0
  1 28  1  0
  1 29  1  0
  1 30  1  0
  5 31  1  0
  7 32  1  0
  8 33  1  0
  9 34  1  0
 10 35  1  0
 14 36  1  0
 18 37  1  0
 19 38  1  0
 21 39  1  0
 22 40  1  0
 23 41  1  0
 24 42  1  0
 25 43  1  0
M  END
>  <smiles>  (27) 
CS(=O)(=O)Nc1ccccc1N=c1[nH]c(=Nc2ccc(O)cc2)[nH]cc1Cl

>  <score_type>  (27) 
oracle

>  <origin>  (27) 
adg

>  <m_score__min__energy>  (27) 
-9.2100000000000009

>  <m_primary>  (27) 
energy

$$$$
27:0
     RDKit          3D

 34 35  0  0  0  0  0  0  0  0999 V2000
   57.6100   29.0520   44.0850 C   0  0  0  0  0  0  0  0  0  0  0  0
   56.4520   29.9010   44.4860 C   0  0  0  0  0  0  0  0  0  0  0  0
   55.3820   29.3510   44.8670 O   0  0  0  0  0  0  0  0  0  0  0  0
   56.5350   31.2900   44.3290 O   0  0  0  0  0  0  0  0  0  0  0  0
   57.3930   32.1390   45.0440 C   0  0  0  0  0  0  0  0  0  0  0  0
   57.3710   33.5080   44.7530 C   0  0  0  0  0  0  0  0  0  0  0  0
   58.2140   34.3920   45.4320 C   0  0  0  0  0  0  0  0  0  0  0  0
   59.1110   33.9130   46.3990 C   0  0  0  0  0  0  0  0  0  0  0  0
   59.9950   34.8690   47.1550 C   0  0  0  0  0  0  0  0  0  0  0  0
   60.3360   34.3060   48.5380 C   0  0  0  0  0  0  0  0  0  0  0  0
   61.7700   33.8520   48.5850 C   0  0  0  0  0  0  0  0  0  0  0  0
   62.4310   33.4750   47.4040 C   0  0  0  0  0  0  0  0  0  0  0  0
   63.7740   33.0830   47.4440 C   0  0  0  0  0  0  0  0  0  0  0  0
   64.4650   33.0740   48.6590 C   0  0  0  0  0  0  0  0  0  0  0  0
   63.8170   33.4610   49.8350 C   0  0  0  0  0  0  0  0  0  0  0  0
   62.4750   33.8530   49.7990 C   0  0  0  0  0  0  0  0  0  0  0  0
   59.1400   32.5410   46.6890 C   0  0  0  0  0  0  0  0  0  0  0  0
   58.2960   31.6570   46.0100 C   0  0  0  0  0  0  0  0  0  0  0  0
   58.1198   28.6783   44.9852 H   0  0  0  0  0  0  0  0  0  0  0  0
   57.2513   28.2013   43.4869 H   0  0  0  0  0  0  0  0  0  0  0  0
   58.3134   29.6500   43.4869 H   0  0  0  0  0  0  0  0  0  0  0  0
   56.6846   33.8912   43.9836 H   0  0  0  0  0  0  0  0  0  0  0  0
   58.1742   35.4681   45.2074 H   0  0  0  0  0  0  0  0  0  0  0  0
   60.9250   35.0265   46.5891 H   0  0  0  0  0  0  0  0  0  0  0  0
   59.4613   35.8226   47.2811 H   0  0  0  0  0  0  0  0  0  0  0  0
   60.1791   35.0880   49.2956 H   0  0  0  0  0  0  0  0  0  0  0  0
   59.6837   33.4439   48.7411 H   0  0  0  0  0  0  0  0  0  0  0  0
   61.8916   33.4879   46.4454 H   0  0  0  0  0  0  0  0  0  0  0  0
   64.2862   32.7817   46.5183 H   0  0  0  0  0  0  0  0  0  0  0  0
   65.5194   32.7621   48.6894 H   0  0  0  0  0  0  0  0  0  0  0  0
   64.3629   33.4573   50.7900 H   0  0  0  0  0  0  0  0  0  0  0  0
   61.9699   34.1633   50.7256 H   0  0  0  0  0  0  0  0  0  0  0  0
   59.8306   32.1584   47.4549 H   0  0  0  0  0  0  0  0  0  0  0  0
   58.3379   30.5804   46.2317 H   0  0  0  0  0  0  0  0  0  0  0  0
  1  2  1  0
  2  3  2  0
  2  4  1  0
  4  5  1  0
  5  6  2  0
  6  7  1  0
  7  8  2  0
  8  9  1  0
  9 10  1  0
 10 11  1  0
 11 12  2  0
 12 13  1  0
 13 14  2  0
 14 15  1  0
 15 16  2  0
  8 17  1  0
 17 18  2  0
 18  5  1  0
 16 11  1  0
  1 19  1  0
  1 20  1  0
  1 21  1  0
  6 22  1  0
  7 23  1  0
  9 24  1  0
  9 25  1  0
 10 26  1  0
 10 27  1  0
 12 28  1  0
 13 29  1  0
 14 30  1  0
 15 31  1  0
 16 32  1  0
 17 33  1  0
 18 34  1  0
M  END
>  <UniqueID>  (28) 
23

>  <SMILES>  (28) 
CC(=O)Oc1ccc(CCc2ccccc2)cc1

>  <Energy>  (28) 
33.55856289292227

>  <Genealogy>  (28) 
CC(=O)Oc1ccc(CCc2ccccc2)cc1 (3D coordinates assigned)
CC(=O)Oc1ccc(CCc2ccccc2)cc1 (optimized conformer: 33.55856289292227 kcal/mol)

>  <smiles>  (28) 
CC(=O)Oc1ccc(CCc2ccccc2)cc1

>  <score_type>  (28) 
oracle

>  <origin>  (28) 
adg

>  <m_score__min__energy>  (28) 
-7.54

>  <m_primary>  (28) 
energy

$$$$
28:0
     RDKit          3D

 36 38  0  0  0  0  0  0  0  0999 V2000
   59.2540   32.8150   49.5610 C   0  0  0  0  0  0  0  0  0  0  0  0
   58.8440   32.4480   48.2480 O   0  0  0  0  0  0  0  0  0  0  0  0
   58.8910   33.3010   47.1330 C   0  0  0  0  0  0  0  0  0  0  0  0
   59.6490   34.4890   47.1330 C   0  0  0  0  0  0  0  0  0  0  0  0
   59.6710   35.3110   46.0040 C   0  0  0  0  0  0  0  0  0  0  0  0
   58.9410   34.9610   44.8700 C   0  0  0  0  0  0  0  0  0  0  0  0
   58.1850   33.7860   44.8570 C   0  0  0  0  0  0  0  0  0  0  0  0
   58.1550   32.9490   45.9880 C   0  0  0  0  0  0  0  0  0  0  0  0
   57.3900   31.7360   46.0080 N   0  0  0  0  0  0  0  0  0  0  0  0
   57.1680   30.6620   44.6630 S   0  0  0  0  0  0  0  0  0  0  0  0
   55.6960   30.4510   44.4430 O   0  0  0  0  0  0  0  0  0  0  0  0
   57.7960   31.2730   43.4410 O   0  0  0  0  0  0  0  0  0  0  0  0
   57.9360   29.1000   44.9910 C   0  0  0  0  0  0  0  0  0  0  0  0
   57.7660   28.0590   44.0640 C   0  0  0  0  0  0  0  0  0  0  0  0
   58.3490   26.8100   44.2750 C   0  0  0  0  0  0  0  0  0  0  0  0
   59.1140   26.5760   45.4140 C   0  0  0  0  0  0  0  0  0  0  0  0
   59.3020   27.5940   46.3570 C   0  0  0  0  0  0  0  0  0  0  0  0
   60.0700   27.3640   47.5050 C   0  0  0  0  0  0  0  0  0  0  0  0
   60.2510   28.3820   48.4360 C   0  0  0  0  0  0  0  0  0  0  0  0
   59.6630   29.6260   48.2150 C   0  0  0  0  0  0  0  0  0  0  0  0
   58.9170   29.8480   47.0980 N   0  0  0  0  0  0  0  0  0  0  0  0
   58.7150   28.8710   46.1580 C   0  0  0  0  0  0  0  0  0  0  0  0
   58.6469   32.2716   50.3000 H   0  0  0  0  0  0  0  0  0  0  0  0
   60.3150   32.5593   49.6987 H   0  0  0  0  0  0  0  0  0  0  0  0
   59.1169   33.8977   49.6987 H   0  0  0  0  0  0  0  0  0  0  0  0
   60.2260   34.7702   48.0263 H   0  0  0  0  0  0  0  0  0  0  0  0
   60.2657   36.2364   46.0101 H   0  0  0  0  0  0  0  0  0  0  0  0
   58.9599   35.6112   43.9829 H   0  0  0  0  0  0  0  0  0  0  0  0
   57.6109   33.5140   43.9590 H   0  0  0  0  0  0  0  0  0  0  0  0
   57.1648   28.2312   43.1591 H   0  0  0  0  0  0  0  0  0  0  0  0
   58.2037   26.0063   43.5382 H   0  0  0  0  0  0  0  0  0  0  0  0
   59.5721   25.5888   45.5738 H   0  0  0  0  0  0  0  0  0  0  0  0
   60.5301   26.3787   47.6708 H   0  0  0  0  0  0  0  0  0  0  0  0
   60.8535   28.2063   49.3394 H   0  0  0  0  0  0  0  0  0  0  0  0
   59.8026   30.4341   48.9481 H   0  0  0  0  0  0  0  0  0  0  0  0
   58.5050   30.7990   46.9930 H   0  0  0  0  0  0  0  0  0  0  0  0
  1  2  1  0
  2  3  1  0
  3  4  2  0
  4  5  1  0
  5  6  2  0
  6  7  1  0
  7  8  2  0
  8  9  1  0
  9 10  1  0
 10 11  2  0
 10 12  2  0
 10 13  1  0
 13 14  2  0
 14 15  1  0
 15 16  2  0
 16 17  1  0
 17 18  2  0
 18 19  1  0
 19 20  2  0
 20 21  1  0
 21 22  2  0
  8  3  1  0
 22 13  1  0
 22 17  1  0
  1 23  1  0
  1 24  1  0
  1 25  1  0
  4 26  1  0
  5 27  1  0
  6 28  1  0
  7 29  1  0
 14 30  1  0
 15 31  1  0
 16 32  1  0
 18 33  1  0
 19 34  1  0
 20 35  1  0
 21 36  1  0
M  CHG  2   9  -1  21   1
M  END
>  <UniqueID>  (29) 
24

>  <SMILES>  (29) 
COc1ccccc1[N-]S(=O)(=O)c1cccc2ccc[nH+]c12

>  <Energy>  (29) 
48.309036008524686

>  <Genealogy>  (29) 
COc1ccccc1[N-]S(=O)(=O)c1cccc2ccc[nH+]c12 (protonated)
COc1ccccc1[N-]S(=O)(=O)c1cccc2ccc[nH+]c12 (3D coordinates assigned)
COc1ccccc1[N-]S(=O)(=O)c1cccc2ccc[nH+]c12 (optimized conformer: 48.309036008524686 kcal/mol)

>  <smiles>  (29) 
COc1ccccc1NS(=O)(=O)c1cccc2cccnc12

>  <score_type>  (29) 
oracle

>  <origin>  (29) 
adg

>  <m_score__min__energy>  (29) 
-8.4900000000000002

>  <m_primary>  (29) 
energy

$$$$
29:0
     RDKit          3D

 29 30  0  0  0  0  0  0  0  0999 V2000
   56.3500   27.0440   45.8080 O   0  0  0  0  0  0  0  0  0  0  0  0
   56.5830   28.2410   45.4960 C   0  0  0  0  0  0  0  0  0  0  0  0
   55.5510   29.0010   44.8560 N   0  0  0  0  0  0  0  0  0  0  0  0
   55.7070   29.7100   43.5900 C   0  0  0  0  0  0  0  0  0  0  0  0
   56.6500   30.8670   43.7520 C   0  0  0  0  0  0  0  0  0  0  0  0
   57.2540   31.4710   42.6380 C   0  0  0  0  0  0  0  0  0  0  0  0
   58.1430   32.5310   42.8310 C   0  0  0  0  0  0  0  0  0  0  0  0
   58.4180   32.9800   44.1240 C   0  0  0  0  0  0  0  0  0  0  0  0
   57.7970   32.3600   45.2090 C   0  0  0  0  0  0  0  0  0  0  0  0
   56.9360   31.3260   45.0030 N   0  0  0  0  0  0  0  0  0  0  0  0
   57.8740   28.8170   45.7530 N   0  0  0  0  0  0  0  0  0  0  0  0
   58.7580   28.3660   46.7930 C   0  0  0  0  0  0  0  0  0  0  0  0
   58.8680   29.1150   47.9760 C   0  0  0  0  0  0  0  0  0  0  0  0
   59.7010   28.6820   49.0130 C   0  0  0  0  0  0  0  0  0  0  0  0
   60.4210   27.4920   48.8830 C   0  0  0  0  0  0  0  0  0  0  0  0
   61.2260   27.0720   49.8890 F   0  0  0  0  0  0  0  0  0  0  0  0
   60.3020   26.7290   47.7180 C   0  0  0  0  0  0  0  0  0  0  0  0
   59.4710   27.1580   46.6790 C   0  0  0  0  0  0  0  0  0  0  0  0
   56.1078   29.0186   42.8342 H   0  0  0  0  0  0  0  0  0  0  0  0
   54.7257   30.0909   43.2706 H   0  0  0  0  0  0  0  0  0  0  0  0
   57.0293   31.1129   41.6225 H   0  0  0  0  0  0  0  0  0  0  0  0
   58.6251   33.0107   41.9665 H   0  0  0  0  0  0  0  0  0  0  0  0
   59.1169   33.8138   44.2858 H   0  0  0  0  0  0  0  0  0  0  0  0
   58.0035   32.7073   46.2321 H   0  0  0  0  0  0  0  0  0  0  0  0
   58.2190   29.5600   45.1050 H   0  0  0  0  0  0  0  0  0  0  0  0
   58.2957   30.0477   48.0877 H   0  0  0  0  0  0  0  0  0  0  0  0
   59.7892   29.2795   49.9323 H   0  0  0  0  0  0  0  0  0  0  0  0
   60.8637   25.7885   47.6185 H   0  0  0  0  0  0  0  0  0  0  0  0
   59.3740   26.5487   45.7683 H   0  0  0  0  0  0  0  0  0  0  0  0
  1  2  2  0
  2  3  1  0
  3  4  1  0
  4  5  1  0
  5  6  2  0
  6  7  1  0
  7  8  2  0
  8  9  1  0
  9 10  2  0
  2 11  1  0
 11 12  1  0
 12 13  2  0
 13 14  1  0
 14 15  2  0
 15 16  1  0
 15 17  1  0
 17 18  2  0
 10  5  1  0
 18 12  1  0
  4 19  1  0
  4 20  1  0
  6 21  1  0
  7 22  1  0
  8 23  1  0
  9 24  1  0
 11 25  1  0
 13 26  1  0
 14 27  1  0
 17 28  1  0
 18 29  1  0
M  CHG  1   3  -1
M  END
>  <UniqueID>  (30) 
25

>  <SMILES>  (30) 
O=C([N-]Cc1ccccn1)Nc1ccc(F)cc1

>  <Energy>  (30) 
31.010788370474

>  <Genealogy>  (30) 
O=C([N-]Cc1ccccn1)Nc1ccc(F)cc1 (protonated)
O=C([N-]Cc1ccccn1)Nc1ccc(F)cc1 (3D coordinates assigned)
O=C([N-]Cc1ccccn1)Nc1ccc(F)cc1 (optimized conformer: 31.010788370474 kcal/mol)

>  <smiles>  (30) 
O=C(NCc1ccccn1)Nc1ccc(F)cc1

>  <score_type>  (30) 
oracle

>  <origin>  (30) 
adg

>  <m_score__min__energy>  (30) 
-8.2300000000000004

>  <m_primary>  (30) 
energy

$$$$
30:0
     RDKit          3D

 51 55  0  0  1  0  0  0  0  0999 V2000
   55.4900   29.6830   44.8350 O   0  0  0  0  0  0  0  0  0  0  0  0
   56.7430   29.7180   44.9200 C   0  0  0  0  0  0  0  0  0  0  0  0
   57.5470   30.7710   44.4070 N   0  0  0  0  0  0  0  0  0  0  0  0
   57.8950   31.7780   45.1230 C   0  0  0  0  0  0  0  0  0  0  0  0
   58.8500   31.9640   46.0480 N   0  0  0  0  0  0  0  0  0  0  0  0
   59.0000   33.0950   46.6360 C   0  0  0  0  0  0  0  0  0  0  0  0
   58.1860   34.1800   46.3480 C   0  0  0  0  0  0  0  0  0  0  0  0
   57.0350   33.4240   45.0190 S   0  0  0  0  0  0  0  0  0  0  0  0
   57.3870   28.5920   45.5920 C   0  0  0  0  0  0  0  0  0  0  0  0
   56.7360   27.3750   45.6190 C   0  0  0  0  0  0  0  0  0  0  0  0
   57.2830   26.2590   46.2370 C   0  0  0  0  0  0  0  0  0  0  0  0
   58.5170   26.3790   46.8400 C   0  0  0  0  0  0  0  0  0  0  0  0
   59.2030   27.5960   46.8310 C   0  0  0  0  0  0  0  0  0  0  0  0
   60.4730   27.6760   47.4650 N   0  0  0  0  0  0  0  0  0  0  0  0
   60.6320   28.5690   48.3810 C   0  0  0  0  0  0  0  0  0  0  0  0
   60.3650   28.2470   49.6540 N   0  0  0  0  0  0  0  0  0  0  0  0
   60.5070   29.1240   50.6610 C   0  0  0  0  0  0  0  0  0  0  0  0
   60.9330   30.3860   50.4320 N   0  0  0  0  0  0  0  0  0  0  0  0
   61.2150   30.7570   49.1590 C   0  0  0  0  0  0  0  0  0  0  0  0
   61.0670   29.8520   48.1330 C   0  0  0  0  0  0  0  0  0  0  0  0
   61.4100   30.4790   47.0080 N   0  0  0  0  0  0  0  0  0  0  0  0
   61.7660   31.7470   47.3180 C   0  0  0  0  0  0  0  0  0  0  0  0
   61.6520   31.9360   48.6430 N   0  0  0  0  0  0  0  0  0  0  0  0
   61.9090   33.0950   49.4550 C   0  0  0  0  0  0  0  0  0  0  0  0
   60.7260   34.0430   49.4860 C   0  0  0  0  0  0  0  0  0  0  0  0
   59.6480   33.4250   50.3020 C   0  0  0  0  0  0  0  0  0  0  0  0
   59.5520   33.7910   51.6480 C   0  0  0  0  0  0  0  0  0  0  0  0
   58.5780   33.2610   52.4760 C   0  0  0  0  0  0  0  0  0  0  0  0
   57.6870   32.3590   51.9650 C   0  0  0  0  0  0  0  0  0  0  0  0
   56.7430   31.8470   52.7680 F   0  0  0  0  0  0  0  0  0  0  0  0
   57.7940   32.0050   50.6280 C   0  0  0  0  0  0  0  0  0  0  0  0
   58.7450   32.5100   49.7850 C   0  0  0  0  0  0  0  0  0  0  0  0
   58.6320   28.7080   46.2020 C   0  0  0  0  0  0  0  0  0  0  0  0
   59.4860   31.1090   46.2680 H   0  0  0  0  0  0  0  0  0  0  0  0
   59.7950   33.2065   47.3880 H   0  0  0  0  0  0  0  0  0  0  0  0
   58.1984   35.1965   46.7682 H   0  0  0  0  0  0  0  0  0  0  0  0
   55.7521   27.2868   45.1352 H   0  0  0  0  0  0  0  0  0  0  0  0
   56.7439   25.3002   46.2455 H   0  0  0  0  0  0  0  0  0  0  0  0
   58.9671   25.5055   47.3344 H   0  0  0  0  0  0  0  0  0  0  0  0
   60.0270   27.2770   49.9130 H   0  0  0  0  0  0  0  0  0  0  0  0
   60.2728   28.8101   51.6889 H   0  0  0  0  0  0  0  0  0  0  0  0
   62.0980   32.5070   46.5954 H   0  0  0  0  0  0  0  0  0  0  0  0
   62.1279   32.7672   50.4819 H   0  0  0  0  0  0  0  0  0  0  0  0
   62.7629   33.6329   49.0173 H   0  0  0  0  0  0  0  0  0  0  0  0
   61.0291   35.0002   49.9353 H   0  0  0  0  0  0  0  0  0  0  0  0
   60.3653   34.2293   48.4637 H   0  0  0  0  0  0  0  0  0  0  0  0
   60.2681   34.5179   52.0588 H   0  0  0  0  0  0  0  0  0  0  0  0
   58.5215   33.5619   53.5325 H   0  0  0  0  0  0  0  0  0  0  0  0
   57.0742   31.2781   50.2236 H   0  0  0  0  0  0  0  0  0  0  0  0
   58.7916   32.1999   48.7307 H   0  0  0  0  0  0  0  0  0  0  0  0
   59.1654   29.6700   46.1899 H   0  0  0  0  0  0  0  0  0  0  0  0
  1  2  2  0
  2  3  1  0
  3  4  2  0
  4  5  1  0
  5  6  1  0
  6  7  2  0
  7  8  1  0
  2  9  1  0
  9 10  2  0
 10 11  1  0
 11 12  2  0
 12 13  1  0
 13 14  1  0
 14 15  2  0
 15 16  1  0
 16 17  1  0
 17 18  2  0
 18 19  1  0
 19 20  2  0
 20 21  1  0
 21 22  2  0
 22 23  1  0
 23 24  1  0
 24 25  1  0
 25 26  1  0
 26 27  2  0
 27 28  1  0
 28 29  2  0
 29 30  1  0
 29 31  1  0
 31 32  2  0
 13 33  2  0
  8  4  1  0
 33  9  1  0
 20 15  1  0
 32 26  1  0
 23 19  1  0
  5 34  1  0
  6 35  1  0
  7 36  1  0
 10 37  1  0
 11 38  1  0
 12 39  1  0
 16 40  1  0
 17 41  1  0
 22 42  1  0
 24 43  1  0
 24 44  1  0
 25 45  1  0
 25 46  1  0
 27 47  1  0
 28 48  1  0
 31 49  1  0
 32 50  1  0
 33 51  1  0
M  END
>  <smiles>  (31) 
O=C(N=c1[nH]ccs1)c1cccc(N=c2[nH]cnc3c2ncn3CCc2ccc(F)cc2)c1

>  <score_type>  (31) 
oracle

>  <origin>  (31) 
adg

>  <m_score__min__energy>  (31) 
-9.6799999999999997

>  <m_primary>  (31) 
energy

$$$$
31:0
     RDKit          3D

 44 47  0  0  0  0  0  0  0  0999 V2000
   55.3260   29.2650   44.8480 N   0  0  0  0  0  0  0  0  0  0  0  0
   56.8370   30.0630   44.5970 S   0  0  0  0  0  0  0  0  0  0  0  0
   57.4930   29.5160   43.3590 O   0  0  0  0  0  0  0  0  0  0  0  0
   56.6000   31.5340   44.4070 O   0  0  0  0  0  0  0  0  0  0  0  0
   57.8780   29.8050   45.9920 C   0  0  0  0  0  0  0  0  0  0  0  0
   58.2370   28.5060   46.3760 C   0  0  0  0  0  0  0  0  0  0  0  0
   59.0550   28.3020   47.4920 C   0  0  0  0  0  0  0  0  0  0  0  0
   59.5300   29.4000   48.2320 C   0  0  0  0  0  0  0  0  0  0  0  0
   60.3460   29.2310   49.4000 N   0  0  0  0  0  0  0  0  0  0  0  0
   60.5350   28.0120   50.1280 C   0  0  0  0  0  0  0  0  0  0  0  0
   60.5990   26.9060   49.5270 O   0  0  0  0  0  0  0  0  0  0  0  0
   60.7210   28.0600   51.6110 C   0  0  0  0  0  0  0  0  0  0  0  0
   60.1620   29.2590   52.1490 O   0  0  0  0  0  0  0  0  0  0  0  0
   58.7890   29.5270   52.2770 C   0  0  0  0  0  0  0  0  0  0  0  0
   57.9200   28.7050   53.0180 C   0  0  0  0  0  0  0  0  0  0  0  0
   56.5640   29.0280   53.1250 C   0  0  0  0  0  0  0  0  0  0  0  0
   56.0470   30.1690   52.4870 C   0  0  0  0  0  0  0  0  0  0  0  0
   54.6080   30.5120   52.6040 C   0  0  0  0  0  0  0  0  0  0  0  0
   53.8300   30.0210   53.6930 C   0  0  0  0  0  0  0  0  0  0  0  0
   52.5030   30.3320   53.8040 N   0  0  0  0  0  0  0  0  0  0  0  0
   51.9410   31.1160   52.8530 C   0  0  0  0  0  0  0  0  0  0  0  0
   50.6570   31.5720   52.7180 C   0  0  0  0  0  0  0  0  0  0  0  0
   50.6130   32.3220   51.5900 N   0  0  0  0  0  0  0  0  0  0  0  0
   51.8210   32.3480   51.0250 N   0  0  0  0  0  0  0  0  0  0  0  0
   52.6330   31.6110   51.8010 C   0  0  0  0  0  0  0  0  0  0  0  0
   53.9830   31.3330   51.6330 C   0  0  0  0  0  0  0  0  0  0  0  0
   56.9180   30.9800   51.7400 C   0  0  0  0  0  0  0  0  0  0  0  0
   58.2740   30.6600   51.6390 C   0  0  0  0  0  0  0  0  0  0  0  0
   59.1430   30.6930   47.8630 C   0  0  0  0  0  0  0  0  0  0  0  0
   58.3260   30.8970   46.7470 C   0  0  0  0  0  0  0  0  0  0  0  0
   55.5220   28.2390   44.8680 H   0  0  0  0  0  0  0  0  0  0  0  0
   57.8741   27.6436   45.7976 H   0  0  0  0  0  0  0  0  0  0  0  0
   59.3278   27.2795   47.7921 H   0  0  0  0  0  0  0  0  0  0  0  0
   60.2214   27.1922   52.0663 H   0  0  0  0  0  0  0  0  0  0  0  0
   61.7979   28.0394   51.8343 H   0  0  0  0  0  0  0  0  0  0  0  0
   58.3093   27.8043   53.5153 H   0  0  0  0  0  0  0  0  0  0  0  0
   55.8952   28.3832   53.7140 H   0  0  0  0  0  0  0  0  0  0  0  0
   54.3035   29.3835   54.4542 H   0  0  0  0  0  0  0  0  0  0  0  0
   49.8173   31.3676   53.3985 H   0  0  0  0  0  0  0  0  0  0  0  0
   54.5462   31.7351   50.7780 H   0  0  0  0  0  0  0  0  0  0  0  0
   56.5290   31.8740   51.2307 H   0  0  0  0  0  0  0  0  0  0  0  0
   58.9435   31.3057   51.0517 H   0  0  0  0  0  0  0  0  0  0  0  0
   59.4840   31.5550   48.4551 H   0  0  0  0  0  0  0  0  0  0  0  0
   58.0339   31.9181   46.4607 H   0  0  0  0  0  0  0  0  0  0  0  0
  1  2  1  0
  2  3  2  0
  2  4  2  0
  2  5  1  0
  5  6  2  0
  6  7  1  0
  7  8  2  0
  8  9  1  0
  9 10  1  0
 10 11  2  0
 10 12  1  0
 12 13  1  0
 13 14  1  0
 14 15  2  0
 15 16  1  0
 16 17  2  0
 17 18  1  0
 18 19  1  0
 19 20  2  0
 20 21  1  0
 21 22  2  0
 22 23  1  0
 23 24  1  0
 24 25  2  0
 25 26  1  0
 17 27  1  0
 27 28  2  0
  8 29  1  0
 29 30  2  0
 30  5  1  0
 28 14  1  0
 26 18  2  0
 25 21  1  0
  1 31  1  0
  6 32  1  0
  7 33  1  0
 12 34  1  0
 12 35  1  0
 15 36  1  0
 16 37  1  0
 19 38  1  0
 22 39  1  0
 26 40  1  0
 27 41  1  0
 28 42  1  0
 29 43  1  0
 30 44  1  0
M  CHG  3   1  -1   9  -1  23  -1
M  END
>  <UniqueID>  (32) 
26

>  <SMILES>  (32) 
[NH-]S(=O)(=O)c1ccc([N-]C(=O)COc2ccc(-c3cnc4c[n-]nc4c3)cc2)cc1

>  <Energy>  (32) 
96.74375580737905

>  <Genealogy>  (32) 
[NH-]S(=O)(=O)c1ccc([N-]C(=O)COc2ccc(-c3cnc4c[n-]nc4c3)cc2)cc1 (protonated)
[NH-]S(=O)(=O)c1ccc([N-]C(=O)COc2ccc(-c3cnc4c[n-]nc4c3)cc2)cc1 (3D coordinates assigned)
[NH-]S(=O)(=O)c1ccc([N-]C(=O)COc2ccc(-c3cnc4c[n-]nc4c3)cc2)cc1 (optimized conformer: 96.74375580737905 kcal/mol)

>  <smiles>  (32) 
NS(=O)(=O)c1ccc(NC(=O)COc2ccc(-c3cnc4c[nH]nc4c3)cc2)cc1

>  <score_type>  (32) 
oracle

>  <origin>  (32) 
adg

>  <m_score__min__energy>  (32) 
-14.49

>  <m_primary>  (32) 
energy

$$$$
32:0
     RDKit          3D

 45 46  0  0  0  0  0  0  0  0999 V2000
   64.9090   32.3580   49.7260 C   0  0  0  0  0  0  0  0  0  0  0  0
   63.9230   33.3860   49.7560 O   0  0  0  0  0  0  0  0  0  0  0  0
   62.9360   33.5670   48.7760 C   0  0  0  0  0  0  0  0  0  0  0  0
   63.3400   33.6850   47.4450 C   0  0  0  0  0  0  0  0  0  0  0  0
   62.4010   33.8710   46.4310 C   0  0  0  0  0  0  0  0  0  0  0  0
   61.0320   33.9360   46.7320 C   0  0  0  0  0  0  0  0  0  0  0  0
   60.0460   34.1320   45.6010 C   0  0  0  0  0  0  0  0  0  0  0  0
   59.0330   33.0680   45.6010 N   0  0  0  0  0  0  0  0  0  0  0  0
   57.8890   33.3760   44.7270 C   0  0  0  0  0  0  0  0  0  0  0  0
   57.3820   32.0990   44.1240 C   0  0  0  0  0  0  0  0  0  0  0  0
   57.5200   31.9150   42.8860 O   0  0  0  0  0  0  0  0  0  0  0  0
   56.8650   31.0290   44.9260 N   0  0  0  0  0  0  0  0  0  0  0  0
   57.5120   29.7800   45.2040 C   0  0  0  0  0  0  0  0  0  0  0  0
   58.9110   29.7290   45.2130 C   0  0  0  0  0  0  0  0  0  0  0  0
   59.5720   28.5220   45.4490 C   0  0  0  0  0  0  0  0  0  0  0  0
   58.8400   27.3510   45.6570 C   0  0  0  0  0  0  0  0  0  0  0  0
   57.4400   27.3790   45.6130 C   0  0  0  0  0  0  0  0  0  0  0  0
   56.5210   25.8990   45.8640 S   0  0  0  0  0  0  0  0  0  0  0  0
   54.8360   26.2720   45.9520 N   0  0  0  0  0  0  0  0  0  0  0  0
   56.9590   25.2410   47.1420 O   0  0  0  0  0  0  0  0  0  0  0  0
   56.7600   24.9470   44.7260 O   0  0  0  0  0  0  0  0  0  0  0  0
   56.7780   28.5940   45.3800 C   0  0  0  0  0  0  0  0  0  0  0  0
   60.6050   33.8080   48.0700 C   0  0  0  0  0  0  0  0  0  0  0  0
   59.2290   33.8570   48.3570 O   0  0  0  0  0  0  0  0  0  0  0  0
   58.4070   32.7170   48.5840 C   0  0  0  0  0  0  0  0  0  0  0  0
   61.5650   33.6310   49.0870 C   0  0  0  0  0  0  0  0  0  0  0  0
   65.1779   32.0777   50.7551 H   0  0  0  0  0  0  0  0  0  0  0  0
   64.5070   31.4796   49.1999 H   0  0  0  0  0  0  0  0  0  0  0  0
   65.8034   32.7230   49.1999 H   0  0  0  0  0  0  0  0  0  0  0  0
   64.4095   33.6307   47.1936 H   0  0  0  0  0  0  0  0  0  0  0  0
   62.7359   33.9675   45.3877 H   0  0  0  0  0  0  0  0  0  0  0  0
   59.5471   35.1048   45.7222 H   0  0  0  0  0  0  0  0  0  0  0  0
   60.5927   34.0980   44.6471 H   0  0  0  0  0  0  0  0  0  0  0  0
   59.4920   32.1930   45.2530 H   0  0  0  0  0  0  0  0  0  0  0  0
   57.0900   33.8487   45.3170 H   0  0  0  0  0  0  0  0  0  0  0  0
   58.2033   34.0660   43.9301 H   0  0  0  0  0  0  0  0  0  0  0  0
   59.4928   30.6451   45.0331 H   0  0  0  0  0  0  0  0  0  0  0  0
   60.6714   28.4934   45.4711 H   0  0  0  0  0  0  0  0  0  0  0  0
   59.3639   26.4044   45.8559 H   0  0  0  0  0  0  0  0  0  0  0  0
   54.7390   27.0940   46.5900 H   0  0  0  0  0  0  0  0  0  0  0  0
   55.6792   28.6186   45.3348 H   0  0  0  0  0  0  0  0  0  0  0  0
   58.2920   32.5575   49.6663 H   0  0  0  0  0  0  0  0  0  0  0  0
   57.4184   32.8816   48.1306 H   0  0  0  0  0  0  0  0  0  0  0  0
   58.8754   31.8310   48.1306 H   0  0  0  0  0  0  0  0  0  0  0  0
   61.2393   33.5420   50.1339 H   0  0  0  0  0  0  0  0  0  0  0  0
  1  2  1  0
  2  3  1  0
  3  4  2  0
  4  5  1  0
  5  6  2  0
  6  7  1  0
  7  8  1  0
  8  9  1  0
  9 10  1  0
 10 11  2  0
 10 12  1  0
 12 13  1  0
 13 14  2  0
 14 15  1  0
 15 16  2  0
 16 17  1  0
 17 18  1  0
 18 19  1  0
 18 20  2  0
 18 21  2  0
 17 22  2  0
  6 23  1  0
 23 24  1  0
 24 25  1  0
 23 26  2  0
 26  3  1  0
 22 13  1  0
  1 27  1  0
  1 28  1  0
  1 29  1  0
  4 30  1  0
  5 31  1  0
  7 32  1  0
  7 33  1  0
  8 34  1  0
  9 35  1  0
  9 36  1  0
 14 37  1  0
 15 38  1  0
 16 39  1  0
 19 40  1  0
 22 41  1  0
 25 42  1  0
 25 43  1  0
 25 44  1  0
 26 45  1  0
M  CHG  2  12  -1  19  -1
M  END
>  <UniqueID>  (33) 
27

>  <SMILES>  (33) 
COc1ccc(CNCC(=O)[N-]c2cccc(S([NH-])(=O)=O)c2)c(OC)c1

>  <Energy>  (33) 
43.56211745723732

>  <Genealogy>  (33) 
COc1ccc(CNCC(=O)[N-]c2cccc(S([NH-])(=O)=O)c2)c(OC)c1 (protonated)
COc1ccc(CNCC(=O)[N-]c2cccc(S([NH-])(=O)=O)c2)c(OC)c1 (3D coordinates assigned)
COc1ccc(CNCC(=O)[N-]c2cccc(S([NH-])(=O)=O)c2)c(OC)c1 (optimized conformer: 43.56211745723732 kcal/mol)

>  <smiles>  (33) 
COc1ccc(CNCC(=O)Nc2cccc(S(N)(=O)=O)c2)c(OC)c1

>  <score_type>  (33) 
oracle

>  <origin>  (33) 
adg

>  <m_score__min__energy>  (33) 
-11.880000000000001

>  <m_primary>  (33) 
energy

$$$$
33:0
     RDKit          3D

 28 29  0  0  0  0  0  0  0  0999 V2000
   57.7470   27.1130   47.1420 C   0  0  0  0  0  0  0  0  0  0  0  0
   56.5830   26.7590   45.8420 S   0  0  0  0  0  0  0  0  0  0  0  0
   55.5090   25.8330   46.3380 O   0  0  0  0  0  0  0  0  0  0  0  0
   57.3130   26.0920   44.7120 O   0  0  0  0  0  0  0  0  0  0  0  0
   55.8760   28.2310   45.2570 N   0  0  0  0  0  0  0  0  0  0  0  0
   56.5850   29.4380   44.9490 C   0  0  0  0  0  0  0  0  0  0  0  0
   56.4900   30.0680   43.6980 C   0  0  0  0  0  0  0  0  0  0  0  0
   57.1920   31.2500   43.4510 C   0  0  0  0  0  0  0  0  0  0  0  0
   57.9940   31.8300   44.4400 C   0  0  0  0  0  0  0  0  0  0  0  0
   58.1350   31.1680   45.6820 C   0  0  0  0  0  0  0  0  0  0  0  0
   57.4140   29.9940   45.9310 C   0  0  0  0  0  0  0  0  0  0  0  0
   59.2950   31.7180   46.9350 S   0  0  0  0  0  0  0  0  0  0  0  0
   58.5080   33.3520   47.1670 C   0  0  0  0  0  0  0  0  0  0  0  0
   58.9700   34.4270   46.1590 C   0  0  0  0  0  0  0  0  0  0  0  0
   58.3050   34.3250   44.7750 C   0  0  0  0  0  0  0  0  0  0  0  0
   58.5850   33.0710   44.1430 O   0  0  0  0  0  0  0  0  0  0  0  0
   57.2623   26.9656   48.1184 H   0  0  0  0  0  0  0  0  0  0  0  0
   58.6103   26.4368   47.0554 H   0  0  0  0  0  0  0  0  0  0  0  0
   58.0876   28.1553   47.0554 H   0  0  0  0  0  0  0  0  0  0  0  0
   55.8606   29.6293   42.9097 H   0  0  0  0  0  0  0  0  0  0  0  0
   57.1132   31.7316   42.4652 H   0  0  0  0  0  0  0  0  0  0  0  0
   57.4999   29.5019   46.9110 H   0  0  0  0  0  0  0  0  0  0  0  0
   57.4198   33.2283   47.0645 H   0  0  0  0  0  0  0  0  0  0  0  0
   58.8050   33.7066   48.1650 H   0  0  0  0  0  0  0  0  0  0  0  0
   58.7386   35.4164   46.5803 H   0  0  0  0  0  0  0  0  0  0  0  0
   60.0475   34.2701   46.0030 H   0  0  0  0  0  0  0  0  0  0  0  0
   57.2164   34.4287   44.8943 H   0  0  0  0  0  0  0  0  0  0  0  0
   58.7106   35.1266   44.1402 H   0  0  0  0  0  0  0  0  0  0  0  0
  1  2  1  0
  2  3  2  0
  2  4  2  0
  2  5  1  0
  5  6  1  0
  6  7  2  0
  7  8  1  0
  8  9  2  0
  9 10  1  0
 10 11  2  0
 10 12  1  0
 12 13  1  0
 13 14  1  0
 14 15  1  0
 15 16  1  0
 11  6  1  0
 16  9  1  0
  1 17  1  0
  1 18  1  0
  1 19  1  0
  7 20  1  0
  8 21  1  0
 11 22  1  0
 13 23  1  0
 13 24  1  0
 14 25  1  0
 14 26  1  0
 15 27  1  0
 15 28  1  0
M  CHG  1   5  -1
M  END
>  <UniqueID>  (34) 
28

>  <SMILES>  (34) 
CS(=O)(=O)[N-]c1ccc2c(c1)SCCCO2

>  <Energy>  (34) 
34.9451970089926

>  <Genealogy>  (34) 
CS(=O)(=O)[N-]c1ccc2c(c1)SCCCO2 (protonated)
CS(=O)(=O)[N-]c1ccc2c(c1)SCCCO2 (3D coordinates assigned)
CS(=O)(=O)[N-]c1ccc2c(c1)SCCCO2 (nonaromatic ring conformer: 34.9451970089926 kcal/mol)

>  <smiles>  (34) 
CS(=O)(=O)Nc1ccc2c(c1)SCCCO2

>  <score_type>  (34) 
oracle

>  <origin>  (34) 
adg

>  <m_score__min__energy>  (34) 
-6.8200000000000003

>  <m_primary>  (34) 
energy

$$$$
34:0
     RDKit          3D

 42 44  0  0  0  0  0  0  0  0999 V2000
   56.4860   20.1060   45.1740 C   0  0  0  0  0  0  0  0  0  0  0  0
   56.5730   21.5420   44.7210 C   0  0  0  0  0  0  0  0  0  0  0  0
   56.5700   21.8180   43.3440 C   0  0  0  0  0  0  0  0  0  0  0  0
   56.6450   23.1300   42.8860 C   0  0  0  0  0  0  0  0  0  0  0  0
   56.7410   24.1850   43.7890 C   0  0  0  0  0  0  0  0  0  0  0  0
   56.7620   23.9400   45.1730 C   0  0  0  0  0  0  0  0  0  0  0  0
   56.8590   25.0270   46.1090 N   0  0  0  0  0  0  0  0  0  0  0  0
   56.1950   26.2940   46.0240 C   0  0  0  0  0  0  0  0  0  0  0  0
   54.9400   26.3470   45.9250 O   0  0  0  0  0  0  0  0  0  0  0  0
   57.0030   27.5290   46.0150 C   0  0  0  0  0  0  0  0  0  0  0  0
   58.4360   27.6910   46.8910 S   0  0  0  0  0  0  0  0  0  0  0  0
   58.6810   29.2970   46.4910 C   0  0  0  0  0  0  0  0  0  0  0  0
   59.7020   30.0720   46.9220 N   0  0  0  0  0  0  0  0  0  0  0  0
   59.7760   31.3810   46.5430 C   0  0  0  0  0  0  0  0  0  0  0  0
   60.8970   32.2350   47.0700 C   0  0  0  0  0  0  0  0  0  0  0  0
   58.8090   31.9170   45.6560 C   0  0  0  0  0  0  0  0  0  0  0  0
   58.9170   33.7840   45.1620 Br  0  0  0  0  0  0  0  0  0  0  0  0
   57.7700   31.0850   45.1530 C   0  0  0  0  0  0  0  0  0  0  0  0
   56.8220   31.6060   44.1000 C   0  0  0  0  0  0  0  0  0  0  0  0
   57.6780   29.7620   45.6530 C   0  0  0  0  0  0  0  0  0  0  0  0
   56.7010   28.7600   45.4010 C   0  0  0  0  0  0  0  0  0  0  0  0
   55.4800   28.9890   44.6890 N   0  0  0  0  0  0  0  0  0  0  0  0
   56.6280   22.6140   45.6500 C   0  0  0  0  0  0  0  0  0  0  0  0
   56.6260   22.3390   47.1370 C   0  0  0  0  0  0  0  0  0  0  0  0
   56.4837   20.0678   46.2733 H   0  0  0  0  0  0  0  0  0  0  0  0
   55.5589   19.6558   44.7895 H   0  0  0  0  0  0  0  0  0  0  0  0
   57.3519   19.5471   44.7895 H   0  0  0  0  0  0  0  0  0  0  0  0
   56.5079   20.9906   42.6218 H   0  0  0  0  0  0  0  0  0  0  0  0
   56.6283   23.3343   41.8053 H   0  0  0  0  0  0  0  0  0  0  0  0
   56.8009   25.2183   43.4167 H   0  0  0  0  0  0  0  0  0  0  0  0
   60.4170   29.6600   47.5630 H   0  0  0  0  0  0  0  0  0  0  0  0
   60.8812   32.2230   48.1698 H   0  0  0  0  0  0  0  0  0  0  0  0
   61.8590   31.8388   46.7127 H   0  0  0  0  0  0  0  0  0  0  0  0
   60.7704   33.2676   46.7127 H   0  0  0  0  0  0  0  0  0  0  0  0
   55.9578   32.0810   44.5874 H   0  0  0  0  0  0  0  0  0  0  0  0
   57.3413   32.3454   43.4727 H   0  0  0  0  0  0  0  0  0  0  0  0
   56.4761   30.7712   43.4727 H   0  0  0  0  0  0  0  0  0  0  0  0
   55.2770   29.9110   44.2480 H   0  0  0  0  0  0  0  0  0  0  0  0
   54.8050   28.2130   44.5260 H   0  0  0  0  0  0  0  0  0  0  0  0
   56.6329   23.2921   47.6862 H   0  0  0  0  0  0  0  0  0  0  0  0
   55.7237   21.7690   47.4033 H   0  0  0  0  0  0  0  0  0  0  0  0
   57.5199   21.7559   47.4033 H   0  0  0  0  0  0  0  0  0  0  0  0
  1  2  1  0
  2  3  2  0
  3  4  1  0
  4  5  2  0
  5  6  1  0
  6  7  1  0
  7  8  1  0
  8  9  2  0
  8 10  1  0
 10 11  1  0
 11 12  1  0
 12 13  2  0
 13 14  1  0
 14 15  1  0
 14 16  2  0
 16 17  1  0
 16 18  1  0
 18 19  1  0
 18 20  2  0
 20 21  1  0
 21 22  1  0
  6 23  2  0
 23 24  1  0
 23  2  1  0
 21 10  2  0
 20 12  1  0
  1 25  1  0
  1 26  1  0
  1 27  1  0
  3 28  1  0
  4 29  1  0
  5 30  1  0
 13 31  1  0
 15 32  1  0
 15 33  1  0
 15 34  1  0
 19 35  1  0
 19 36  1  0
 19 37  1  0
 22 38  1  0
 22 39  1  0
 24 40  1  0
 24 41  1  0
 24 42  1  0
M  CHG  2   7  -1  13   1
M  END
>  <UniqueID>  (35) 
29

>  <SMILES>  (35) 
Cc1cccc([N-]C(=O)c2sc3[nH+]c(C)c(Br)c(C)c3c2N)c1C

>  <Energy>  (35) 
92.14629890209845

>  <Genealogy>  (35) 
Cc1cccc([N-]C(=O)c2sc3[nH+]c(C)c(Br)c(C)c3c2N)c1C (protonated)
Cc1cccc([N-]C(=O)c2sc3[nH+]c(C)c(Br)c(C)c3c2N)c1C (3D coordinates assigned)
Cc1cccc([N-]C(=O)c2sc3[nH+]c(C)c(Br)c(C)c3c2N)c1C (optimized conformer: 92.14629890209845 kcal/mol)

>  <smiles>  (35) 
Cc1cccc(NC(=O)c2sc3nc(C)c(Br)c(C)c3c2N)c1C

>  <score_type>  (35) 
oracle

>  <origin>  (35) 
adg

>  <m_score__min__energy>  (35) 
-8.75

>  <m_primary>  (35) 
energy

$$$$
35:0
     RDKit          3D

 31 33  0  0  0  0  0  0  0  0999 V2000
   55.4600   25.8750   46.2760 O   0  0  0  0  0  0  0  0  0  0  0  0
   56.5200   25.8120   45.6200 N   0  0  0  0  0  0  0  0  0  0  0  0
   56.9570   24.5920   45.1580 O   0  0  0  0  0  0  0  0  0  0  0  0
   57.2780   26.9950   45.3500 C   0  0  0  0  0  0  0  0  0  0  0  0
   58.6510   27.0460   45.1350 C   0  0  0  0  0  0  0  0  0  0  0  0
   59.1150   28.3440   44.8940 C   0  0  0  0  0  0  0  0  0  0  0  0
   58.1070   29.3060   44.9210 C   0  0  0  0  0  0  0  0  0  0  0  0
   58.2880   30.7500   44.7000 C   0  0  0  0  0  0  0  0  0  0  0  0
   58.3050   31.3370   43.4810 N   0  0  0  0  0  0  0  0  0  0  0  0
   58.4920   32.6540   43.5170 N   0  0  0  0  0  0  0  0  0  0  0  0
   58.6290   33.1290   44.7730 C   0  0  0  0  0  0  0  0  0  0  0  0
   58.9030   34.8560   45.1610 S   0  0  0  0  0  0  0  0  0  0  0  0
   59.0250   34.5940   46.9660 C   0  0  0  0  0  0  0  0  0  0  0  0
   60.4250   34.2120   47.3660 C   0  0  0  0  0  0  0  0  0  0  0  0
   61.3690   33.8680   46.3840 C   0  0  0  0  0  0  0  0  0  0  0  0
   62.6780   33.5410   46.7510 C   0  0  0  0  0  0  0  0  0  0  0  0
   63.0530   33.5560   48.0970 C   0  0  0  0  0  0  0  0  0  0  0  0
   62.1190   33.8970   49.0800 C   0  0  0  0  0  0  0  0  0  0  0  0
   60.8090   34.2240   48.7170 C   0  0  0  0  0  0  0  0  0  0  0  0
   58.5090   31.8970   45.9160 S   0  0  0  0  0  0  0  0  0  0  0  0
   56.6370   28.5460   45.2420 S   0  0  0  0  0  0  0  0  0  0  0  0
   59.3030   26.1602   45.1525 H   0  0  0  0  0  0  0  0  0  0  0  0
   60.1717   28.5817   44.7021 H   0  0  0  0  0  0  0  0  0  0  0  0
   58.1870   30.8220   42.5800 H   0  0  0  0  0  0  0  0  0  0  0  0
   58.7447   35.5234   47.4834 H   0  0  0  0  0  0  0  0  0  0  0  0
   58.3464   33.7749   47.2463 H   0  0  0  0  0  0  0  0  0  0  0  0
   61.0775   33.8559   45.3234 H   0  0  0  0  0  0  0  0  0  0  0  0
   63.4137   33.2715   45.9789 H   0  0  0  0  0  0  0  0  0  0  0  0
   64.0836   33.2994   48.3834 H   0  0  0  0  0  0  0  0  0  0  0  0
   62.4150   33.9080   50.1394 H   0  0  0  0  0  0  0  0  0  0  0  0
   60.0762   34.4917   49.4925 H   0  0  0  0  0  0  0  0  0  0  0  0
  1  2  2  0
  2  3  1  0
  2  4  1  0
  4  5  2  0
  5  6  1  0
  6  7  2  0
  7  8  1  0
  8  9  2  0
  9 10  1  0
 10 11  2  0
 11 12  1  0
 12 13  1  0
 13 14  1  0
 14 15  2  0
 15 16  1  0
 16 17  2  0
 17 18  1  0
 18 19  2  0
 11 20  1  0
  7 21  1  0
 21  4  1  0
 20  8  1  0
 19 14  1  0
  5 22  1  0
  6 23  1  0
  9 24  1  0
 13 25  1  0
 13 26  1  0
 15 27  1  0
 16 28  1  0
 17 29  1  0
 18 30  1  0
 19 31  1  0
M  CHG  3   2   1   3  -1   9   1
M  END
>  <UniqueID>  (36) 
30

>  <SMILES>  (36) 
O=[N+]([O-])c1ccc(-c2[nH+]nc(SCc3ccccc3)s2)s1

>  <Energy>  (36) 
88.10633328506877

>  <Genealogy>  (36) 
O=[N+]([O-])c1ccc(-c2[nH+]nc(SCc3ccccc3)s2)s1 (protonated)
O=[N+]([O-])c1ccc(-c2[nH+]nc(SCc3ccccc3)s2)s1 (3D coordinates assigned)
O=[N+]([O-])c1ccc(-c2[nH+]nc(SCc3ccccc3)s2)s1 (optimized conformer: 88.10633328506877 kcal/mol)

>  <smiles>  (36) 
O=[N+]([O-])c1ccc(-c2nnc(SCc3ccccc3)s2)s1

>  <score_type>  (36) 
oracle

>  <origin>  (36) 
adg

>  <m_score__min__energy>  (36) 
-7.1399999999999997

>  <m_primary>  (36) 
energy

$$$$
36:0
     RDKit          3D

 32 34  0  0  0  0  0  0  0  0999 V2000
   55.4390   25.5480   45.9750 N   0  0  0  0  0  0  0  0  0  0  0  0
   56.3980   26.3710   46.3040 C   0  0  0  0  0  0  0  0  0  0  0  0
   56.4150   27.5340   45.6190 N   0  0  0  0  0  0  0  0  0  0  0  0
   57.3740   28.4300   45.9060 C   0  0  0  0  0  0  0  0  0  0  0  0
   57.3800   29.6020   45.2060 C   0  0  0  0  0  0  0  0  0  0  0  0
   56.4070   29.9210   44.1800 C   0  0  0  0  0  0  0  0  0  0  0  0
   55.0550   29.5170   44.3080 N   0  0  0  0  0  0  0  0  0  0  0  0
   56.7170   30.5630   43.1440 O   0  0  0  0  0  0  0  0  0  0  0  0
   58.3700   30.5220   45.5040 C   0  0  0  0  0  0  0  0  0  0  0  0
   59.3320   30.2800   46.4780 C   0  0  0  0  0  0  0  0  0  0  0  0
   60.3140   31.3370   46.6870 C   0  0  0  0  0  0  0  0  0  0  0  0
   60.0340   32.6750   46.3920 C   0  0  0  0  0  0  0  0  0  0  0  0
   61.0220   33.6380   46.6150 C   0  0  0  0  0  0  0  0  0  0  0  0
   62.2720   33.2730   47.1240 C   0  0  0  0  0  0  0  0  0  0  0  0
   63.2020   34.2590   47.3230 F   0  0  0  0  0  0  0  0  0  0  0  0
   62.5450   31.9470   47.4140 C   0  0  0  0  0  0  0  0  0  0  0  0
   63.7660   31.5870   47.9120 F   0  0  0  0  0  0  0  0  0  0  0  0
   61.5660   30.9820   47.1950 C   0  0  0  0  0  0  0  0  0  0  0  0
   59.3260   29.1150   47.1740 C   0  0  0  0  0  0  0  0  0  0  0  0
   58.3430   28.1870   46.8870 C   0  0  0  0  0  0  0  0  0  0  0  0
   58.2720   26.9690   47.5580 C   0  0  0  0  0  0  0  0  0  0  0  0
   57.2990   26.0820   47.2540 N   0  0  0  0  0  0  0  0  0  0  0  0
   54.5090   25.7110   46.3680 H   0  0  0  0  0  0  0  0  0  0  0  0
   54.7790   28.5440   44.5900 H   0  0  0  0  0  0  0  0  0  0  0  0
   54.3090   30.2270   44.1110 H   0  0  0  0  0  0  0  0  0  0  0  0
   58.3965   31.4739   44.9533 H   0  0  0  0  0  0  0  0  0  0  0  0
   59.0517   32.9649   45.9908 H   0  0  0  0  0  0  0  0  0  0  0  0
   60.8140   34.6940   46.3877 H   0  0  0  0  0  0  0  0  0  0  0  0
   61.7806   29.9279   47.4246 H   0  0  0  0  0  0  0  0  0  0  0  0
   60.0835   28.9147   47.9461 H   0  0  0  0  0  0  0  0  0  0  0  0
   59.0098   26.7282   48.3375 H   0  0  0  0  0  0  0  0  0  0  0  0
   57.2230   25.1580   47.7420 H   0  0  0  0  0  0  0  0  0  0  0  0
  1  2  2  3
  2  3  1  0
  3  4  2  0
  4  5  1  0
  5  6  1  0
  6  7  1  0
  6  8  2  0
  5  9  2  0
  9 10  1  0
 10 11  1  0
 11 12  2  0
 12 13  1  0
 13 14  2  0
 14 15  1  0
 14 16  1  0
 16 17  1  0
 16 18  2  0
 10 19  2  0
 19 20  1  0
 20 21  2  0
 21 22  1  0
 22  2  1  0
 20  4  1  0
 18 11  1  0
  1 23  1  0
  7 24  1  0
  7 25  1  0
  9 26  1  0
 12 27  1  0
 13 28  1  0
 18 29  1  0
 19 30  1  0
 21 31  1  0
 22 32  1  0
M  END
>  <smiles>  (37) 
N=c1nc2c(C(N)=O)cc(-c3ccc(F)c(F)c3)cc2c[nH]1

>  <score_type>  (37) 
oracle

>  <origin>  (37) 
adg

>  <m_score__min__energy>  (37) 
-7.6399999999999997

>  <m_primary>  (37) 
energy

$$$$
37:0
     RDKit          3D

 44 47  0  0  0  0  0  0  0  0999 V2000
   54.8006   29.5113   44.3198 H   0  0  0  0  0  0  0  0  0  0  0  0
   55.8660   29.7740   44.3970 C   0  0  0  0  0  0  0  0  0  0  0  0
   56.6680   29.1070   45.2690 N   0  0  0  0  0  0  0  0  0  0  0  0
   57.9960   29.3890   45.3990 C   0  0  0  0  0  0  0  0  0  0  0  0
   58.7930   28.6180   46.3820 C   0  0  0  0  0  0  0  0  0  0  0  0
   58.9820   29.1430   47.6240 N   0  0  0  0  0  0  0  0  0  0  0  0
   59.6980   28.4900   48.5780 C   0  0  0  0  0  0  0  0  0  0  0  0
   59.8310   29.0350   49.7520 N   0  0  0  0  0  0  0  0  0  0  0  0
   59.2590   30.2770   50.1970 C   0  0  0  0  0  0  0  0  0  0  0  0
   60.0360   31.4380   50.1210 C   0  0  0  0  0  0  0  0  0  0  0  0
   61.0503   31.3900   49.6979 H   0  0  0  0  0  0  0  0  0  0  0  0
   59.5320   32.6580   50.5790 C   0  0  0  0  0  0  0  0  0  0  0  0
   60.1466   33.5674   50.5062 H   0  0  0  0  0  0  0  0  0  0  0  0
   58.2500   32.7260   51.1290 C   0  0  0  0  0  0  0  0  0  0  0  0
   57.8581   33.6894   51.4871 H   0  0  0  0  0  0  0  0  0  0  0  0
   57.4580   31.5680   51.2270 C   0  0  0  0  0  0  0  0  0  0  0  0
   56.1540   31.6020   51.8320 N   0  0  0  0  0  0  0  0  0  0  0  0
   55.8400   32.4990   52.2650 H   0  0  0  0  0  0  0  0  0  0  0  0
   55.3280   30.4390   52.0150 C   0  0  0  0  0  0  0  0  0  0  0  0
   55.8580   29.2930   52.0310 O   0  0  0  0  0  0  0  0  0  0  0  0
   53.8680   30.5700   52.2370 C   0  0  0  0  0  0  0  0  0  0  0  0
   53.1920   29.6520   53.0630 C   0  0  0  0  0  0  0  0  0  0  0  0
   53.7517   28.8384   53.5475 H   0  0  0  0  0  0  0  0  0  0  0  0
   51.8140   29.7670   53.2720 C   0  0  0  0  0  0  0  0  0  0  0  0
   51.2959   29.0480   53.9236 H   0  0  0  0  0  0  0  0  0  0  0  0
   51.0940   30.7930   52.6550 C   0  0  0  0  0  0  0  0  0  0  0  0
   50.0108   30.8839   52.8238 H   0  0  0  0  0  0  0  0  0  0  0  0
   51.7510   31.7040   51.8230 C   0  0  0  0  0  0  0  0  0  0  0  0
   51.0330   32.7180   51.2030 O   0  0  0  0  0  0  0  0  0  0  0  0
   53.1300   31.5940   51.6130 C   0  0  0  0  0  0  0  0  0  0  0  0
   53.6413   32.3127   50.9557 H   0  0  0  0  0  0  0  0  0  0  0  0
   57.9800   30.3420   50.7830 C   0  0  0  0  0  0  0  0  0  0  0  0
   57.3843   29.4240   50.8940 H   0  0  0  0  0  0  0  0  0  0  0  0
   60.2210   27.2650   48.3010 N   0  0  0  0  0  0  0  0  0  0  0  0
   60.0540   26.6900   47.0840 C   0  0  0  0  0  0  0  0  0  0  0  0
   60.4884   25.7004   46.8790 H   0  0  0  0  0  0  0  0  0  0  0  0
   59.3320   27.3530   46.0930 C   0  0  0  0  0  0  0  0  0  0  0  0
   59.1870   26.8946   45.1036 H   0  0  0  0  0  0  0  0  0  0  0  0
   58.5540   30.4200   44.6170 C   0  0  0  0  0  0  0  0  0  0  0  0
   59.6191   30.6763   44.7161 H   0  0  0  0  0  0  0  0  0  0  0  0
   57.7440   31.1140   43.7150 C   0  0  0  0  0  0  0  0  0  0  0  0
   58.1725   31.9154   43.0953 H   0  0  0  0  0  0  0  0  0  0  0  0
   56.3920   30.7910   43.6000 C   0  0  0  0  0  0  0  0  0  0  0  0
   55.7487   31.3313   42.8899 H   0  0  0  0  0  0  0  0  0  0  0  0
  1  2  1  0
  2  3  2  0
  3  4  1  0
  4  5  1  0
  5  6  2  0
  6  7  1  0
  7  8  2  0
  8  9  1  0
  9 10  2  0
 10 11  1  0
 10 12  1  0
 12 13  1  0
 12 14  2  0
 14 15  1  0
 14 16  1  0
 16 17  1  0
 17 18  1  0
 17 19  1  0
 19 20  2  0
 19 21  1  0
 21 22  2  0
 22 23  1  0
 22 24  1  0
 24 25  1  0
 24 26  2  0
 26 27  1  0
 26 28  1  0
 28 29  1  0
 28 30  2  0
 30 31  1  0
 16 32  2  0
 32 33  1  0
  7 34  1  0
 34 35  1  0
 35 36  1  0
 35 37  2  0
 37 38  1  0
  4 39  2  0
 39 40  1  0
 39 41  1  0
 41 42  1  0
 41 43  2  0
 43 44  1  0
 43  2  1  0
 37  5  1  0
 32  9  1  0
 30 21  1  0
M  CHG  2  29  -1  34  -1
M  END
>  <UniqueID>  (38) 
31

>  <SMILES>  (38) 
O=C(Nc1cccc(/N=c2/nc(-c3ccccn3)cc[n-]2)c1)c1cccc([O-])c1

>  <Energy>  (38) 
65.86929208357918

>  <Genealogy>  (38) 
O=C(Nc1cccc(N=c2nc(-c3ccccn3)cc[n-]2)c1)c1cccc([O-])c1 (protonated)
O=C(Nc1cccc(/N=c2/nc(-c3ccccn3)cc[n-]2)c1)c1cccc([O-])c1 (cis-trans isomerization)
O=C(Nc1cccc(/N=c2/nc(-c3ccccn3)cc[n-]2)c1)c1cccc([O-])c1 (3D coordinates assigned)
O=C(Nc1cccc(/N=c2/nc(-c3ccccn3)cc[n-]2)c1)c1cccc([O-])c1 (optimized conformer: 65.86929208357918 kcal/mol)

>  <smiles>  (38) 
O=C(Nc1cccc(N=c2nc(-c3ccccn3)cc[nH]2)c1)c1cccc(O)c1

>  <score_type>  (38) 
oracle

>  <origin>  (38) 
adg

>  <m_score__min__energy>  (38) 
-15.199999999999999

>  <m_primary>  (38) 
energy

$$$$
38:0
     RDKit          3D

 47 50  0  0  0  0  0  0  0  0999 V2000
   50.1950   33.8180   53.6780 C   0  0  0  0  0  0  0  0  0  0  0  0
   50.4640   33.3350   52.3650 O   0  0  0  0  0  0  0  0  0  0  0  0
   51.1000   32.1160   52.0820 C   0  0  0  0  0  0  0  0  0  0  0  0
   51.4720   31.2080   53.0940 C   0  0  0  0  0  0  0  0  0  0  0  0
   52.0950   29.9910   52.7700 C   0  0  0  0  0  0  0  0  0  0  0  0
   52.5030   29.0280   53.8590 C   0  0  0  0  0  0  0  0  0  0  0  0
   53.9780   28.6780   53.7680 C   0  0  0  0  0  0  0  0  0  0  0  0
   54.4640   27.3990   54.1340 C   0  0  0  0  0  0  0  0  0  0  0  0
   53.6000   26.3740   54.6440 N   0  0  0  0  0  0  0  0  0  0  0  0
   55.8310   27.1150   53.9980 C   0  0  0  0  0  0  0  0  0  0  0  0
   56.7130   28.0790   53.5020 C   0  0  0  0  0  0  0  0  0  0  0  0
   57.9330   27.7900   53.4070 O   0  0  0  0  0  0  0  0  0  0  0  0
   56.2360   29.3120   53.1380 N   0  0  0  0  0  0  0  0  0  0  0  0
   56.9520   30.3710   52.6210 C   0  0  0  0  0  0  0  0  0  0  0  0
   58.4270   30.3500   52.2870 C   0  0  0  0  0  0  0  0  0  0  0  0
   58.7960   31.4400   51.3100 C   0  0  0  0  0  0  0  0  0  0  0  0
   59.4680   32.5960   51.7490 C   0  0  0  0  0  0  0  0  0  0  0  0
   59.8300   33.5920   50.8360 C   0  0  0  0  0  0  0  0  0  0  0  0
   59.5400   33.4360   49.4780 C   0  0  0  0  0  0  0  0  0  0  0  0
   58.8940   32.2810   49.0300 C   0  0  0  0  0  0  0  0  0  0  0  0
   58.5300   31.2840   49.9390 C   0  0  0  0  0  0  0  0  0  0  0  0
   56.1850   31.5050   52.3500 C   0  0  0  0  0  0  0  0  0  0  0  0
   54.5910   31.1800   52.7600 S   0  0  0  0  0  0  0  0  0  0  0  0
   54.9140   29.6090   53.2710 C   0  0  0  0  0  0  0  0  0  0  0  0
   52.3730   29.7010   51.4240 C   0  0  0  0  0  0  0  0  0  0  0  0
   52.0080   30.5980   50.4190 C   0  0  0  0  0  0  0  0  0  0  0  0
   51.3720   31.7990   50.7450 C   0  0  0  0  0  0  0  0  0  0  0  0
   51.0120   32.6810   49.7330 O   0  0  0  0  0  0  0  0  0  0  0  0
   50.5908   33.1073   54.4184 H   0  0  0  0  0  0  0  0  0  0  0  0
   50.6779   34.7968   53.8147 H   0  0  0  0  0  0  0  0  0  0  0  0
   49.1086   33.9228   53.8147 H   0  0  0  0  0  0  0  0  0  0  0  0
   51.2727   31.4545   54.1473 H   0  0  0  0  0  0  0  0  0  0  0  0
   52.3049   29.4900   54.8374 H   0  0  0  0  0  0  0  0  0  0  0  0
   51.9205   28.1028   53.7379 H   0  0  0  0  0  0  0  0  0  0  0  0
   52.8850   25.8960   54.0580 H   0  0  0  0  0  0  0  0  0  0  0  0
   53.6600   26.0830   55.6450 H   0  0  0  0  0  0  0  0  0  0  0  0
   56.2125   26.1239   54.2846 H   0  0  0  0  0  0  0  0  0  0  0  0
   59.0038   30.4915   53.2129 H   0  0  0  0  0  0  0  0  0  0  0  0
   58.6584   29.3807   51.8213 H   0  0  0  0  0  0  0  0  0  0  0  0
   59.7097   32.7169   52.8153 H   0  0  0  0  0  0  0  0  0  0  0  0
   60.3435   34.4991   51.1874 H   0  0  0  0  0  0  0  0  0  0  0  0
   59.8203   34.2224   48.7618 H   0  0  0  0  0  0  0  0  0  0  0  0
   58.6716   32.1562   47.9600 H   0  0  0  0  0  0  0  0  0  0  0  0
   58.0322   30.3715   49.5791 H   0  0  0  0  0  0  0  0  0  0  0  0
   56.5621   32.4523   51.9371 H   0  0  0  0  0  0  0  0  0  0  0  0
   52.8812   28.7617   51.1606 H   0  0  0  0  0  0  0  0  0  0  0  0
   52.2216   30.3589   49.3668 H   0  0  0  0  0  0  0  0  0  0  0  0
  1  2  1  0
  2  3  1  0
  3  4  2  0
  4  5  1  0
  5  6  1  0
  6  7  1  0
  7  8  1  0
  8  9  1  0
  8 10  2  0
 10 11  1  0
 11 12  2  0
 11 13  1  0
 13 14  1  0
 14 15  1  0
 15 16  1  0
 16 17  2  0
 17 18  1  0
 18 19  2  0
 19 20  1  0
 20 21  2  0
 14 22  2  0
 22 23  1  0
 23 24  1  0
  5 25  2  0
 25 26  1  0
 26 27  2  0
 27 28  1  0
 27  3  1  0
 24  7  2  0
 24 13  1  0
 21 16  1  0
  1 29  1  0
  1 30  1  0
  1 31  1  0
  4 32  1  0
  6 33  1  0
  6 34  1  0
  9 35  1  0
  9 36  1  0
 10 37  1  0
 15 38  1  0
 15 39  1  0
 17 40  1  0
 18 41  1  0
 19 42  1  0
 20 43  1  0
 21 44  1  0
 22 45  1  0
 25 46  1  0
 26 47  1  0
M  CHG  1  28  -1
M  END
>  <UniqueID>  (39) 
32

>  <SMILES>  (39) 
COc1cc(Cc2c(N)cc(=O)n3c(Cc4ccccc4)csc23)ccc1[O-]

>  <Energy>  (39) 
88.88021953219479

>  <Genealogy>  (39) 
COc1cc(Cc2c(N)cc(=O)n3c(Cc4ccccc4)csc23)ccc1[O-] (protonated)
COc1cc(Cc2c(N)cc(=O)n3c(Cc4ccccc4)csc23)ccc1[O-] (3D coordinates assigned)
COc1cc(Cc2c(N)cc(=O)n3c(Cc4ccccc4)csc23)ccc1[O-] (optimized conformer: 88.88021953219479 kcal/mol)

>  <smiles>  (39) 
COc1cc(Cc2c(N)cc(=O)n3c(Cc4ccccc4)csc23)ccc1O

>  <score_type>  (39) 
oracle

>  <origin>  (39) 
adg

>  <m_score__min__energy>  (39) 
-11.74

>  <m_primary>  (39) 
energy

$$$$
39:0
     RDKit          3D

 39 41  0  0  1  0  0  0  0  0999 V2000
   59.3180   32.7930   49.0960 Cl  0  0  0  0  0  0  0  0  0  0  0  0
   60.8420   33.0730   48.2830 C   0  0  0  0  0  0  0  0  0  0  0  0
   61.9910   32.9370   49.0570 C   0  0  0  0  0  0  0  0  0  0  0  0
   63.2380   33.1330   48.5220 C   0  0  0  0  0  0  0  0  0  0  0  0
   63.3420   33.4730   47.1890 C   0  0  0  0  0  0  0  0  0  0  0  0
   62.1860   33.6030   46.4340 C   0  0  0  0  0  0  0  0  0  0  0  0
   60.9260   33.4130   46.9430 C   0  0  0  0  0  0  0  0  0  0  0  0
   59.7040   33.5470   46.1600 C   0  0  0  0  0  0  0  0  0  0  0  0
   59.3070   34.7460   45.6070 C   0  0  0  0  0  0  0  0  0  0  0  0
   58.1840   34.8940   44.8800 N   0  0  0  0  0  0  0  0  0  0  0  0
   57.4290   33.8250   44.6940 N   0  0  0  0  0  0  0  0  0  0  0  0
   57.7940   32.6220   45.2300 C   0  0  0  0  0  0  0  0  0  0  0  0
   56.9760   31.6490   44.9810 N   0  0  0  0  0  0  0  0  0  0  0  0
   57.0210   31.0160   43.6770 C   0  0  0  0  0  0  0  0  0  0  0  0
   56.7410   29.5330   43.9520 C   0  0  0  0  0  0  0  0  0  0  0  0
   56.6510   29.3370   45.3870 N   0  0  0  0  0  0  0  0  0  0  0  0
   57.6940   28.5600   45.9960 C   0  0  0  0  0  0  0  0  0  0  0  0
   57.5420   27.1890   46.1140 C   0  0  0  0  0  0  0  0  0  0  0  0
   58.5160   26.4060   46.6900 C   0  0  0  0  0  0  0  0  0  0  0  0
   59.6760   27.0160   47.1620 C   0  0  0  0  0  0  0  0  0  0  0  0
   59.8420   28.3870   47.0500 C   0  0  0  0  0  0  0  0  0  0  0  0
   58.8550   29.1730   46.4670 C   0  0  0  0  0  0  0  0  0  0  0  0
   58.9160   32.4770   45.9540 N   0  0  0  0  0  0  0  0  0  0  0  0
   61.8966   32.6669   50.1191 H   0  0  0  0  0  0  0  0  0  0  0  0
   64.1385   33.0213   49.1438 H   0  0  0  0  0  0  0  0  0  0  0  0
   64.3284   33.6387   46.7312 H   0  0  0  0  0  0  0  0  0  0  0  0
   62.2843   33.8724   45.3720 H   0  0  0  0  0  0  0  0  0  0  0  0
   59.9424   35.6293   45.7687 H   0  0  0  0  0  0  0  0  0  0  0  0
   56.5480   33.9260   44.1290 H   0  0  0  0  0  0  0  0  0  0  0  0
   56.2520   31.4392   43.0140 H   0  0  0  0  0  0  0  0  0  0  0  0
   57.9868   31.1700   43.1736 H   0  0  0  0  0  0  0  0  0  0  0  0
   55.7924   29.2409   43.4779 H   0  0  0  0  0  0  0  0  0  0  0  0
   57.5513   28.9147   43.5384 H   0  0  0  0  0  0  0  0  0  0  0  0
   55.8980   29.7170   45.9810 H   0  0  0  0  0  0  0  0  0  0  0  0
   56.6227   26.7153   45.7392 H   0  0  0  0  0  0  0  0  0  0  0  0
   58.3810   25.3177   46.7762 H   0  0  0  0  0  0  0  0  0  0  0  0
   60.4647   26.4058   47.6263 H   0  0  0  0  0  0  0  0  0  0  0  0
   60.7627   28.8574   47.4256 H   0  0  0  0  0  0  0  0  0  0  0  0
   58.9874   30.2614   46.3784 H   0  0  0  0  0  0  0  0  0  0  0  0
  1  2  1  0
  2  3  2  0
  3  4  1  0
  4  5  2  0
  5  6  1  0
  6  7  2  0
  7  8  1  0
  8  9  1  0
  9 10  2  0
 10 11  1  0
 11 12  1  0
 12 13  2  0
 13 14  1  0
 14 15  1  0
 15 16  1  0
 16 17  1  0
 17 18  2  0
 18 19  1  0
 19 20  2  0
 20 21  1  0
 21 22  2  0
 12 23  1  0
  7  2  1  0
 23  8  2  0
 22 17  1  0
  3 24  1  0
  4 25  1  0
  5 26  1  0
  6 27  1  0
  9 28  1  0
 11 29  1  0
 14 30  1  0
 14 31  1  0
 15 32  1  0
 15 33  1  0
 16 34  1  0
 18 35  1  0
 19 36  1  0
 20 37  1  0
 21 38  1  0
 22 39  1  0
M  END
>  <smiles>  (40) 
Clc1ccccc1-c1cn[nH]c(=NCCNc2ccccc2)n1

>  <score_type>  (40) 
oracle

>  <origin>  (40) 
adg

>  <m_score__min__energy>  (40) 
-8.2400000000000002

>  <m_primary>  (40) 
energy

$$$$
40:0
     RDKit          3D

 39 41  0  0  0  0  0  0  0  0999 V2000
   55.8540   24.0210   44.7630 C   0  0  0  0  0  0  0  0  0  0  0  0
   56.1590   25.3240   45.9380 S   0  0  0  0  0  0  0  0  0  0  0  0
   55.0270   26.3090   45.8620 O   0  0  0  0  0  0  0  0  0  0  0  0
   56.2230   24.7700   47.3340 O   0  0  0  0  0  0  0  0  0  0  0  0
   57.6410   26.1430   45.5540 N   0  0  0  0  0  0  0  0  0  0  0  0
   57.8870   27.5420   45.7880 C   0  0  0  0  0  0  0  0  0  0  0  0
   58.5060   28.0090   46.9780 C   0  0  0  0  0  0  0  0  0  0  0  0
   58.7310   29.3820   47.1770 C   0  0  0  0  0  0  0  0  0  0  0  0
   58.3060   30.2750   46.1950 C   0  0  0  0  0  0  0  0  0  0  0  0
   57.7330   29.8310   45.0320 C   0  0  0  0  0  0  0  0  0  0  0  0
   57.4960   28.4760   44.8050 C   0  0  0  0  0  0  0  0  0  0  0  0
   57.4040   30.9000   44.1620 N   0  0  0  0  0  0  0  0  0  0  0  0
   57.5750   32.1310   44.9300 C   0  0  2  0  0  0  0  0  0  0  0  0
   58.0810   33.3170   44.0820 C   0  0  0  0  0  0  0  0  0  0  0  0
   58.3950   34.6100   44.8770 C   0  0  0  0  0  0  0  0  0  0  0  0
   59.4040   34.5100   46.0530 C   0  0  0  0  0  0  0  0  0  0  0  0
   58.9230   33.9430   47.4090 C   0  0  0  0  0  0  0  0  0  0  0  0
   58.2420   32.5540   47.3820 C   0  0  0  0  0  0  0  0  0  0  0  0
   58.5210   31.7490   46.1010 C   0  0  1  0  0  0  0  0  0  0  0  0
   55.6352   23.0865   45.3004 H   0  0  0  0  0  0  0  0  0  0  0  0
   54.9947   24.2905   44.1314 H   0  0  0  0  0  0  0  0  0  0  0  0
   56.7437   23.8811   44.1314 H   0  0  0  0  0  0  0  0  0  0  0  0
   58.4150   25.5540   45.1740 H   0  0  0  0  0  0  0  0  0  0  0  0
   58.8122   27.2892   47.7513 H   0  0  0  0  0  0  0  0  0  0  0  0
   59.2313   29.7437   48.0874 H   0  0  0  0  0  0  0  0  0  0  0  0
   57.0125   28.1407   43.8756 H   0  0  0  0  0  0  0  0  0  0  0  0
   56.8150   30.8060   43.3050 H   0  0  0  0  0  0  0  0  0  0  0  0
   56.6124   32.5068   45.3071 H   0  0  0  0  0  0  0  0  0  0  0  0
   59.0014   33.0007   43.5694 H   0  0  0  0  0  0  0  0  0  0  0  0
   57.2611   33.5727   43.3947 H   0  0  0  0  0  0  0  0  0  0  0  0
   58.7951   35.3450   44.1631 H   0  0  0  0  0  0  0  0  0  0  0  0
   57.4410   34.8810   45.3529 H   0  0  0  0  0  0  0  0  0  0  0  0
   60.2329   33.8718   45.7128 H   0  0  0  0  0  0  0  0  0  0  0  0
   59.6503   35.5581   46.2784 H   0  0  0  0  0  0  0  0  0  0  0  0
   59.7997   33.8711   48.0695 H   0  0  0  0  0  0  0  0  0  0  0  0
   58.1435   34.6392   47.7520 H   0  0  0  0  0  0  0  0  0  0  0  0
   58.6055   31.9730   48.2425 H   0  0  0  0  0  0  0  0  0  0  0  0
   57.1567   32.7292   47.4196 H   0  0  0  0  0  0  0  0  0  0  0  0
   59.5807   31.9966   45.9404 H   0  0  0  0  0  0  0  0  0  0  0  0
  1  2  1  0
  2  3  2  0
  2  4  2  0
  2  5  1  0
  5  6  1  0
  6  7  2  0
  7  8  1  0
  8  9  2  0
  9 10  1  0
 10 11  2  0
 10 12  1  0
 12 13  1  0
 13 14  1  0
 14 15  1  0
 15 16  1  0
 16 17  1  0
 17 18  1  0
 18 19  1  0
 11  6  1  0
 19 13  1  0
 19  9  1  0
  1 20  1  0
  1 21  1  0
  1 22  1  0
  5 23  1  0
  7 24  1  0
  8 25  1  0
 11 26  1  0
 12 27  1  0
 13 28  1  1
 14 29  1  0
 14 30  1  0
 15 31  1  0
 15 32  1  0
 16 33  1  0
 16 34  1  0
 17 35  1  0
 17 36  1  0
 18 37  1  0
 18 38  1  0
 19 39  1  6
M  END
>  <UniqueID>  (41) 
33

>  <SMILES>  (41) 
CS(=O)(=O)Nc1ccc2c(c1)N[C@@H]1CCCCC[C@@H]21

>  <Energy>  (41) 
68.63442311753009

>  <Genealogy>  (41) 
CS(=O)(=O)Nc1ccc2c(c1)N[C@@H]1CCCCC[C@@H]21 (chirality)
CS(=O)(=O)Nc1ccc2c(c1)N[C@@H]1CCCCC[C@@H]21 (3D coordinates assigned)
CS(=O)(=O)Nc1ccc2c(c1)N[C@@H]1CCCCC[C@@H]21 (nonaromatic ring conformer: 68.63442311753009 kcal/mol)

>  <smiles>  (41) 
CS(=O)(=O)Nc1ccc2c(c1)NC1CCCCCC21

>  <score_type>  (41) 
oracle

>  <origin>  (41) 
adg

>  <m_score__min__energy>  (41) 
-6.4699999999999998

>  <m_primary>  (41) 
energy

$$$$
41:0
     RDKit          3D

 48 52  0  0  0  0  0  0  0  0999 V2000
   59.5673   31.2228   47.1217 H   0  0  0  0  0  0  0  0  0  0  0  0
   58.8590   31.4820   46.3210 C   0  0  0  0  0  0  0  0  0  0  0  0
   57.9840   30.5110   45.8250 C   0  0  0  0  0  0  0  0  0  0  0  0
   58.0199   29.4877   46.2269 H   0  0  0  0  0  0  0  0  0  0  0  0
   57.0590   30.8320   44.8170 C   0  0  0  0  0  0  0  0  0  0  0  0
   56.1310   29.8080   44.2890 C   0  0  0  0  0  0  0  0  0  0  0  0
   55.2200   29.3330   45.0170 O   0  0  0  0  0  0  0  0  0  0  0  0
   56.2520   29.3550   42.9800 O   0  0  0  0  0  0  0  0  0  0  0  0
   57.0180   32.1480   44.3250 C   0  0  0  0  0  0  0  0  0  0  0  0
   56.2918   32.4167   43.5437 H   0  0  0  0  0  0  0  0  0  0  0  0
   57.8940   33.1180   44.8220 C   0  0  0  0  0  0  0  0  0  0  0  0
   57.8405   34.1482   44.4402 H   0  0  0  0  0  0  0  0  0  0  0  0
   58.8380   32.7890   45.8010 C   0  0  0  0  0  0  0  0  0  0  0  0
   59.7000   33.8250   46.3030 N   0  0  0  0  0  0  0  0  0  0  0  0
   60.8450   33.6650   46.9020 C   0  0  0  0  0  0  0  0  0  0  0  0
   61.9720   33.5210   46.1590 N   0  0  0  0  0  0  0  0  0  0  0  0
   63.1610   33.3320   46.7320 N   0  0  0  0  0  0  0  0  0  0  0  0
   64.0020   33.2300   46.1210 H   0  0  0  0  0  0  0  0  0  0  0  0
   63.2810   33.2720   48.0870 C   0  0  0  0  0  0  0  0  0  0  0  0
   64.5250   33.0750   48.6980 C   0  0  0  0  0  0  0  0  0  0  0  0
   65.4274   32.9591   48.0798 H   0  0  0  0  0  0  0  0  0  0  0  0
   64.6240   33.0250   50.0960 C   0  0  0  0  0  0  0  0  0  0  0  0
   65.9360   32.8000   50.7440 C   0  0  0  0  0  0  0  0  0  0  0  0
   66.8360   33.8770   50.8080 C   0  0  0  0  0  0  0  0  0  0  0  0
   66.5644   34.8406   50.3522 H   0  0  0  0  0  0  0  0  0  0  0  0
   68.0700   33.7380   51.4430 C   0  0  0  0  0  0  0  0  0  0  0  0
   68.7625   34.5916   51.4860 H   0  0  0  0  0  0  0  0  0  0  0  0
   68.4300   32.5240   52.0230 C   0  0  0  0  0  0  0  0  0  0  0  0
   69.4008   32.4261   52.5310 H   0  0  0  0  0  0  0  0  0  0  0  0
   67.5600   31.4260   51.9620 C   0  0  0  0  0  0  0  0  0  0  0  0
   67.9360   30.2010   52.5340 C   0  0  0  0  0  0  0  0  0  0  0  0
   68.9052   30.1106   53.0462 H   0  0  0  0  0  0  0  0  0  0  0  0
   67.0860   29.0970   52.4560 C   0  0  0  0  0  0  0  0  0  0  0  0
   67.3841   28.1414   52.9119 H   0  0  0  0  0  0  0  0  0  0  0  0
   65.8590   29.2030   51.8010 C   0  0  0  0  0  0  0  0  0  0  0  0
   65.1963   28.3275   51.7346 H   0  0  0  0  0  0  0  0  0  0  0  0
   65.4680   30.4160   51.2290 C   0  0  0  0  0  0  0  0  0  0  0  0
   64.5009   30.4866   50.7097 H   0  0  0  0  0  0  0  0  0  0  0  0
   66.3020   31.5520   51.3110 C   0  0  0  0  0  0  0  0  0  0  0  0
   63.4650   33.1490   50.8800 C   0  0  0  0  0  0  0  0  0  0  0  0
   63.5403   33.0921   51.9759 H   0  0  0  0  0  0  0  0  0  0  0  0
   62.2100   33.3450   50.2780 C   0  0  0  0  0  0  0  0  0  0  0  0
   60.9780   33.4880   51.1280 C   0  0  0  0  0  0  0  0  0  0  0  0
   61.2599   33.4553   52.1907 H   0  0  0  0  0  0  0  0  0  0  0  0
   60.4899   34.4488   50.9075 H   0  0  0  0  0  0  0  0  0  0  0  0
   60.2828   32.6645   50.9075 H   0  0  0  0  0  0  0  0  0  0  0  0
   62.1240   33.4070   48.8750 C   0  0  0  0  0  0  0  0  0  0  0  0
   60.9300   33.5960   48.2580 N   0  0  0  0  0  0  0  0  0  0  0  0
  1  2  1  0
  2  3  2  0
  3  4  1  0
  3  5  1  0
  5  6  1  0
  6  7  2  0
  6  8  1  0
  5  9  2  0
  9 10  1  0
  9 11  1  0
 11 12  1  0
 11 13  2  0
 13 14  1  0
 14 15  2  0
 15 16  1  0
 16 17  2  0
 17 18  1  0
 17 19  1  0
 19 20  2  0
 20 21  1  0
 20 22  1  0
 22 23  1  0
 23 24  2  0
 24 25  1  0
 24 26  1  0
 26 27  1  0
 26 28  2  0
 28 29  1  0
 28 30  1  0
 30 31  2  0
 31 32  1  0
 31 33  1  0
 33 34  1  0
 33 35  2  0
 35 36  1  0
 35 37  1  0
 37 38  1  0
 37 39  2  0
 22 40  2  0
 40 41  1  0
 40 42  1  0
 42 43  1  0
 43 44  1  0
 43 45  1  0
 43 46  1  0
 42 47  2  0
 47 48  1  0
 13  2  1  0
 48 15  1  0
 47 19  1  0
 39 23  1  0
 39 30  1  0
M  CHG  3   8  -1  17   1  48  -1
M  END
>  <UniqueID>  (42) 
34

>  <SMILES>  (42) 
Cc1cc(-c2cccc3ccccc23)cc2[nH+]n/c(=N/c3ccc(C(=O)[O-])cc3)[n-]c12

>  <Energy>  (42) 
76.71226220357897

>  <Genealogy>  (42) 
Cc1cc(-c2cccc3ccccc23)cc2[nH+]nc(=Nc3ccc(C(=O)[O-])cc3)[n-]c12 (protonated)
Cc1cc(-c2cccc3ccccc23)cc2[nH+]n/c(=N/c3ccc(C(=O)[O-])cc3)[n-]c12 (cis-trans isomerization)
Cc1cc(-c2cccc3ccccc23)cc2[nH+]n/c(=N/c3ccc(C(=O)[O-])cc3)[n-]c12 (3D coordinates assigned)
Cc1cc(-c2cccc3ccccc23)cc2[nH+]n/c(=N/c3ccc(C(=O)[O-])cc3)[n-]c12 (optimized conformer: 76.71226220357897 kcal/mol)

>  <smiles>  (42) 
Cc1cc(-c2cccc3ccccc23)cc2nnc(=Nc3ccc(C(=O)O)cc3)[nH]c12

>  <score_type>  (42) 
oracle

>  <origin>  (42) 
adg

>  <m_score__min__energy>  (42) 
-11.74

>  <m_primary>  (42) 
energy

$$$$
42:0
     RDKit          3D

 47 50  0  0  0  0  0  0  0  0999 V2000
   58.0850   26.3220   43.1520 F   0  0  0  0  0  0  0  0  0  0  0  0
   58.1080   27.4780   43.8600 C   0  0  0  0  0  0  0  0  0  0  0  0
   57.4000   28.5900   43.4000 C   0  0  0  0  0  0  0  0  0  0  0  0
   57.4190   29.7910   44.1260 C   0  0  0  0  0  0  0  0  0  0  0  0
   56.6530   30.9920   43.6370 C   0  0  0  0  0  0  0  0  0  0  0  0
   56.4490   31.9310   44.6950 O   0  0  0  0  0  0  0  0  0  0  0  0
   57.4630   32.6470   45.3500 C   0  0  0  0  0  0  0  0  0  0  0  0
   58.5040   33.2960   44.6570 C   0  0  0  0  0  0  0  0  0  0  0  0
   59.4950   33.9860   45.3620 C   0  0  0  0  0  0  0  0  0  0  0  0
   59.4720   34.0310   46.7600 C   0  0  0  0  0  0  0  0  0  0  0  0
   60.4790   34.7420   47.4270 O   0  0  0  0  0  0  0  0  0  0  0  0
   61.6910   34.2020   47.8830 C   0  0  0  0  0  0  0  0  0  0  0  0
   62.0430   34.2050   49.2470 C   0  0  0  0  0  0  0  0  0  0  0  0
   63.2530   33.6410   49.6610 C   0  0  0  0  0  0  0  0  0  0  0  0
   64.1130   33.0610   48.7260 C   0  0  0  0  0  0  0  0  0  0  0  0
   63.7600   33.0360   47.3740 C   0  0  0  0  0  0  0  0  0  0  0  0
   62.5510   33.5990   46.9550 C   0  0  0  0  0  0  0  0  0  0  0  0
   58.4200   33.4050   47.4500 C   0  0  0  0  0  0  0  0  0  0  0  0
   57.4280   32.7160   46.7470 C   0  0  0  0  0  0  0  0  0  0  0  0
   58.1380   29.8570   45.3300 C   0  0  0  0  0  0  0  0  0  0  0  0
   58.8600   28.7430   45.7950 C   0  0  0  0  0  0  0  0  0  0  0  0
   59.6250   28.8240   47.0640 C   0  0  0  0  0  0  0  0  0  0  0  0
   59.6580   27.7190   47.9350 C   0  0  0  0  0  0  0  0  0  0  0  0
   60.3780   27.7810   49.1310 C   0  0  0  0  0  0  0  0  0  0  0  0
   61.0690   28.9460   49.4730 C   0  0  0  0  0  0  0  0  0  0  0  0
   61.0380   30.0520   48.6200 C   0  0  0  0  0  0  0  0  0  0  0  0
   60.3200   29.9970   47.4200 C   0  0  0  0  0  0  0  0  0  0  0  0
   60.2770   31.0990   46.6300 F   0  0  0  0  0  0  0  0  0  0  0  0
   58.8360   27.5520   45.0500 C   0  0  0  0  0  0  0  0  0  0  0  0
   56.8249   28.5245   42.4646 H   0  0  0  0  0  0  0  0  0  0  0  0
   57.2207   31.4770   42.8292 H   0  0  0  0  0  0  0  0  0  0  0  0
   55.6717   30.6577   43.2692 H   0  0  0  0  0  0  0  0  0  0  0  0
   58.5372   33.2598   43.5581 H   0  0  0  0  0  0  0  0  0  0  0  0
   60.2992   34.4976   44.8129 H   0  0  0  0  0  0  0  0  0  0  0  0
   61.3641   34.6522   49.9880 H   0  0  0  0  0  0  0  0  0  0  0  0
   63.5285   33.6540   50.7259 H   0  0  0  0  0  0  0  0  0  0  0  0
   65.0679   32.6240   49.0535 H   0  0  0  0  0  0  0  0  0  0  0  0
   64.4343   32.5728   46.6387 H   0  0  0  0  0  0  0  0  0  0  0  0
   62.2731   33.5686   45.8911 H   0  0  0  0  0  0  0  0  0  0  0  0
   58.3772   33.4575   48.5479 H   0  0  0  0  0  0  0  0  0  0  0  0
   56.6124   32.2236   47.2968 H   0  0  0  0  0  0  0  0  0  0  0  0
   58.1367   30.7885   45.9151 H   0  0  0  0  0  0  0  0  0  0  0  0
   59.1132   26.8001   47.6725 H   0  0  0  0  0  0  0  0  0  0  0  0
   60.4007   26.9113   49.8041 H   0  0  0  0  0  0  0  0  0  0  0  0
   61.6373   28.9925   50.4137 H   0  0  0  0  0  0  0  0  0  0  0  0
   61.5800   30.9696   48.8926 H   0  0  0  0  0  0  0  0  0  0  0  0
   59.3935   26.6730   45.4057 H   0  0  0  0  0  0  0  0  0  0  0  0
  1  2  1  0
  2  3  2  0
  3  4  1  0
  4  5  1  0
  5  6  1  0
  6  7  1  0
  7  8  2  0
  8  9  1  0
  9 10  2  0
 10 11  1  0
 11 12  1  0
 12 13  2  0
 13 14  1  0
 14 15  2  0
 15 16  1  0
 16 17  2  0
 10 18  1  0
 18 19  2  0
  4 20  2  0
 20 21  1  0
 21 22  1  0
 22 23  2  0
 23 24  1  0
 24 25  2  0
 25 26  1  0
 26 27  2  0
 27 28  1  0
 21 29  2  0
 29  2  1  0
 19  7  1  0
 27 22  1  0
 17 12  1  0
  3 30  1  0
  5 31  1  0
  5 32  1  0
  8 33  1  0
  9 34  1  0
 13 35  1  0
 14 36  1  0
 15 37  1  0
 16 38  1  0
 17 39  1  0
 18 40  1  0
 19 41  1  0
 20 42  1  0
 23 43  1  0
 24 44  1  0
 25 45  1  0
 26 46  1  0
 29 47  1  0
M  END
>  <UniqueID>  (43) 
35

>  <SMILES>  (43) 
Fc1cc(COc2ccc(Oc3ccccc3)cc2)cc(-c2ccccc2F)c1

>  <Energy>  (43) 
64.28844210776509

>  <Genealogy>  (43) 
Fc1cc(COc2ccc(Oc3ccccc3)cc2)cc(-c2ccccc2F)c1 (3D coordinates assigned)
Fc1cc(COc2ccc(Oc3ccccc3)cc2)cc(-c2ccccc2F)c1 (optimized conformer: 64.28844210776509 kcal/mol)

>  <smiles>  (43) 
Fc1cc(COc2ccc(Oc3ccccc3)cc2)cc(-c2ccccc2F)c1

>  <score_type>  (43) 
oracle

>  <origin>  (43) 
adg

>  <m_score__min__energy>  (43) 
-9.0899999999999999

>  <m_primary>  (43) 
energy

$$$$
43:0
     RDKit          3D

 42 44  0  0  1  0  0  0  0  0999 V2000
   57.4540   32.0780   41.2930 C   0  0  0  0  0  0  0  0  0  0  0  0
   57.1260   31.4650   42.6040 C   0  0  0  0  0  0  0  0  0  0  0  0
   56.3030   30.3800   42.5300 N   0  0  0  0  0  0  0  0  0  0  0  0
   56.0040   29.6790   43.6260 C   0  0  0  0  0  0  0  0  0  0  0  0
   56.5220   30.0610   44.7830 N   0  0  0  0  0  0  0  0  0  0  0  0
   57.3400   31.1360   44.8920 C   0  0  0  0  0  0  0  0  0  0  0  0
   57.7360   31.4150   46.0470 N   0  0  0  0  0  0  0  0  0  0  0  0
   58.8350   31.0340   46.7880 C   0  0  0  0  0  0  0  0  0  0  0  0
   58.9110   31.0360   48.1880 C   0  0  0  0  0  0  0  0  0  0  0  0
   60.0330   30.5730   48.8460 C   0  0  0  0  0  0  0  0  0  0  0  0
   61.1310   30.0890   48.1450 C   0  0  0  0  0  0  0  0  0  0  0  0
   61.0600   30.0850   46.7700 C   0  0  0  0  0  0  0  0  0  0  0  0
   59.9550   30.5400   46.0800 C   0  0  0  0  0  0  0  0  0  0  0  0
   57.6880   31.9090   43.7720 C   0  0  0  0  0  0  0  0  0  0  0  0
   58.4460   33.1150   43.9470 C   0  0  0  0  0  0  0  0  0  0  0  0
   58.3730   34.0630   44.8190 C   0  0  0  0  0  0  0  0  0  0  0  0
   59.3450   35.0470   45.3070 C   0  0  0  0  0  0  0  0  0  0  0  0
   59.9850   34.5710   46.5350 C   0  0  0  0  0  0  0  0  0  0  0  0
   59.5160   34.6280   47.8100 C   0  0  0  0  0  0  0  0  0  0  0  0
   60.2480   34.1450   48.8910 C   0  0  0  0  0  0  0  0  0  0  0  0
   61.4930   33.5830   48.7250 C   0  0  0  0  0  0  0  0  0  0  0  0
   61.9820   33.5180   47.4360 C   0  0  0  0  0  0  0  0  0  0  0  0
   61.2610   33.9930   46.3790 C   0  0  0  0  0  0  0  0  0  0  0  0
   57.9673   33.0373   41.4550 H   0  0  0  0  0  0  0  0  0  0  0  0
   58.1108   31.4018   40.7261 H   0  0  0  0  0  0  0  0  0  0  0  0
   56.5270   32.2493   40.7261 H   0  0  0  0  0  0  0  0  0  0  0  0
   55.8840   30.0620   41.6310 H   0  0  0  0  0  0  0  0  0  0  0  0
   55.3415   28.8028   43.5691 H   0  0  0  0  0  0  0  0  0  0  0  0
   58.0600   31.4139   48.7736 H   0  0  0  0  0  0  0  0  0  0  0  0
   60.0583   30.5875   49.9456 H   0  0  0  0  0  0  0  0  0  0  0  0
   62.0252   29.7221   48.6701 H   0  0  0  0  0  0  0  0  0  0  0  0
   61.9189   29.7036   46.1983 H   0  0  0  0  0  0  0  0  0  0  0  0
   59.9454   30.5185   44.9803 H   0  0  0  0  0  0  0  0  0  0  0  0
   59.2378   33.2579   43.1969 H   0  0  0  0  0  0  0  0  0  0  0  0
   57.3834   34.1509   45.2912 H   0  0  0  0  0  0  0  0  0  0  0  0
   60.1140   35.2085   44.5373 H   0  0  0  0  0  0  0  0  0  0  0  0
   58.8196   35.9892   45.5221 H   0  0  0  0  0  0  0  0  0  0  0  0
   58.5256   35.0703   47.9932 H   0  0  0  0  0  0  0  0  0  0  0  0
   59.8209   34.2143   49.9023 H   0  0  0  0  0  0  0  0  0  0  0  0
   62.0717   33.2032   49.5799 H   0  0  0  0  0  0  0  0  0  0  0  0
   62.9726   33.0745   47.2570 H   0  0  0  0  0  0  0  0  0  0  0  0
   61.6912   33.9222   45.3691 H   0  0  0  0  0  0  0  0  0  0  0  0
  1  2  1  0
  2  3  1  0
  3  4  1  0
  4  5  2  0
  5  6  1  0
  6  7  2  0
  7  8  1  0
  8  9  2  0
  9 10  1  0
 10 11  2  0
 11 12  1  0
 12 13  2  0
  6 14  1  0
 14 15  1  0
 15 16  2  0
 16 17  1  0
 17 18  1  0
 18 19  2  0
 19 20  1  0
 20 21  2  0
 21 22  1  0
 22 23  2  0
 14  2  2  0
 23 18  1  0
 13  8  1  0
  1 24  1  0
  1 25  1  0
  1 26  1  0
  3 27  1  0
  4 28  1  0
  9 29  1  0
 10 30  1  0
 11 31  1  0
 12 32  1  0
 13 33  1  0
 15 34  1  0
 16 35  1  0
 17 36  1  0
 17 37  1  0
 19 38  1  0
 20 39  1  0
 21 40  1  0
 22 41  1  0
 23 42  1  0
M  END
>  <smiles>  (44) 
Cc1[nH]cnc(=Nc2ccccc2)c1C=CCc1ccccc1

>  <score_type>  (44) 
oracle

>  <origin>  (44) 
adg

>  <m_score__min__energy>  (44) 
-8.5999999999999996

>  <m_primary>  (44) 
energy

$$$$
44:0
     RDKit          3D

 35 36  0  0  0  0  0  0  0  0999 V2000
   60.1510   29.7210   48.1890 C   0  0  0  0  0  0  0  0  0  0  0  0
   60.8180   30.9230   46.9980 S   0  0  0  0  0  0  0  0  0  0  0  0
   59.3770   30.8420   45.9320 C   0  0  0  0  0  0  0  0  0  0  0  0
   58.8640   29.4560   45.1400 S   0  0  0  0  0  0  0  0  0  0  0  0
   57.5280   30.1540   44.3810 C   0  0  0  0  0  0  0  0  0  0  0  0
   56.5820   29.4520   43.4780 C   0  0  0  0  0  0  0  0  0  0  0  0
   55.1790   29.7420   43.5340 N   0  0  0  0  0  0  0  0  0  0  0  0
   57.0140   28.5630   42.6340 N   0  0  0  0  0  0  0  0  0  0  0  0
   57.4760   31.4990   44.7510 C   0  0  0  0  0  0  0  0  0  0  0  0
   58.5060   31.8820   45.6230 C   0  0  0  0  0  0  0  0  0  0  0  0
   58.6680   33.5200   46.2530 S   0  0  0  0  0  0  0  0  0  0  0  0
   57.3430   34.2240   46.1710 O   0  0  0  0  0  0  0  0  0  0  0  0
   59.6760   34.2810   45.4380 O   0  0  0  0  0  0  0  0  0  0  0  0
   59.2140   33.4770   47.9280 C   0  0  0  0  0  0  0  0  0  0  0  0
   58.5150   32.7170   48.8740 C   0  0  0  0  0  0  0  0  0  0  0  0
   58.9290   32.7020   50.2090 C   0  0  0  0  0  0  0  0  0  0  0  0
   60.0360   33.4610   50.6160 C   0  0  0  0  0  0  0  0  0  0  0  0
   60.5020   33.4160   52.0410 C   0  0  0  0  0  0  0  0  0  0  0  0
   60.7410   34.2140   49.6650 C   0  0  0  0  0  0  0  0  0  0  0  0
   60.3270   34.2290   48.3300 C   0  0  0  0  0  0  0  0  0  0  0  0
   60.3460   30.0725   49.2129 H   0  0  0  0  0  0  0  0  0  0  0  0
   59.0664   29.6176   48.0372 H   0  0  0  0  0  0  0  0  0  0  0  0
   60.6371   28.7460   48.0372 H   0  0  0  0  0  0  0  0  0  0  0  0
   54.7780   30.3790   44.2550 H   0  0  0  0  0  0  0  0  0  0  0  0
   54.5150   29.2790   42.8730 H   0  0  0  0  0  0  0  0  0  0  0  0
   57.7250   28.8160   41.9100 H   0  0  0  0  0  0  0  0  0  0  0  0
   56.6790   27.5760   42.6490 H   0  0  0  0  0  0  0  0  0  0  0  0
   56.7010   32.1926   44.3928 H   0  0  0  0  0  0  0  0  0  0  0  0
   57.6374   32.1300   48.5655 H   0  0  0  0  0  0  0  0  0  0  0  0
   58.3838   32.0918   50.9441 H   0  0  0  0  0  0  0  0  0  0  0  0
   59.6352   33.4997   52.7130 H   0  0  0  0  0  0  0  0  0  0  0  0
   61.0199   32.4637   52.2275 H   0  0  0  0  0  0  0  0  0  0  0  0
   61.1926   34.2516   52.2275 H   0  0  0  0  0  0  0  0  0  0  0  0
   61.6233   34.7951   49.9713 H   0  0  0  0  0  0  0  0  0  0  0  0
   60.8761   34.8327   47.5925 H   0  0  0  0  0  0  0  0  0  0  0  0
  1  2  1  0
  2  3  1  0
  3  4  1  0
  4  5  1  0
  5  6  1  0
  6  7  1  0
  6  8  2  0
  5  9  2  0
  9 10  1  0
 10 11  1  0
 11 12  2  0
 11 13  2  0
 11 14  1  0
 14 15  2  0
 15 16  1  0
 16 17  2  0
 17 18  1  0
 17 19  1  0
 19 20  2  0
 10  3  2  0
 20 14  1  0
  1 21  1  0
  1 22  1  0
  1 23  1  0
  7 24  1  0
  7 25  1  0
  8 26  1  0
  8 27  1  0
  9 28  1  0
 15 29  1  0
 16 30  1  0
 18 31  1  0
 18 32  1  0
 18 33  1  0
 19 34  1  0
 20 35  1  0
M  CHG  1   8   1
M  END
>  <UniqueID>  (45) 
36

>  <SMILES>  (45) 
CSc1sc(C(N)=[NH2+])cc1S(=O)(=O)c1ccc(C)cc1

>  <Energy>  (45) 
57.786294997476595

>  <Genealogy>  (45) 
CSc1sc(C(N)=[NH2+])cc1S(=O)(=O)c1ccc(C)cc1 (protonated)
CSc1sc(C(N)=[NH2+])cc1S(=O)(=O)c1ccc(C)cc1 (3D coordinates assigned)
CSc1sc(C(N)=[NH2+])cc1S(=O)(=O)c1ccc(C)cc1 (optimized conformer: 57.786294997476595 kcal/mol)

>  <smiles>  (45) 
CSc1sc(C(=N)N)cc1S(=O)(=O)c1ccc(C)cc1

>  <score_type>  (45) 
oracle

>  <origin>  (45) 
adg

>  <m_score__min__energy>  (45) 
-6.1500000000000004

>  <m_primary>  (45) 
energy

$$$$
45:0
     RDKit          3D

 60 63  0  0  0  0  0  0  0  0999 V2000
   59.2740   34.2430   50.6810 O   0  0  0  0  0  0  0  0  0  0  0  0
   59.7330   33.0800   50.8400 C   0  0  0  0  0  0  0  0  0  0  0  0
   59.7000   32.4550   52.2000 C   0  0  0  0  0  0  0  0  0  0  0  0
   58.4400   31.6520   52.3660 C   0  0  0  0  0  0  0  0  0  0  0  0
   57.1850   32.2720   52.2370 C   0  0  0  0  0  0  0  0  0  0  0  0
   56.0130   31.5180   52.3540 C   0  0  0  0  0  0  0  0  0  0  0  0
   56.0850   30.1430   52.5910 C   0  0  0  0  0  0  0  0  0  0  0  0
   57.3280   29.5170   52.7080 C   0  0  0  0  0  0  0  0  0  0  0  0
   58.5030   30.2670   52.5930 C   0  0  0  0  0  0  0  0  0  0  0  0
   60.2110   32.3270   49.7160 N   0  0  0  0  0  0  0  0  0  0  0  0
   60.2760   32.8780   48.3950 C   0  0  0  0  0  0  0  0  0  0  0  0
   59.1890   32.6900   47.5310 C   0  0  0  0  0  0  0  0  0  0  0  0
   59.1840   33.2620   46.2530 C   0  0  0  0  0  0  0  0  0  0  0  0
   57.7830   33.0580   45.1990 S   0  0  0  0  0  0  0  0  0  0  0  0
   58.1340   33.5340   43.8170 O   0  0  0  0  0  0  0  0  0  0  0  0
   56.6480   33.9020   45.7090 O   0  0  0  0  0  0  0  0  0  0  0  0
   57.2770   31.3870   45.1230 N   0  0  0  0  0  0  0  0  0  0  0  0
   56.6650   31.0960   43.8160 C   0  0  0  0  0  0  0  0  0  0  0  0
   55.9970   29.7090   43.8370 C   0  0  0  0  0  0  0  0  0  0  0  0
   56.6110   28.7760   44.8940 C   0  0  0  0  0  0  0  0  0  0  0  0
   58.1150   29.0190   45.0370 C   0  0  0  0  0  0  0  0  0  0  0  0
   58.4270   30.4940   45.3800 C   0  0  0  0  0  0  0  0  0  0  0  0
   60.2880   34.0100   45.8280 C   0  0  0  0  0  0  0  0  0  0  0  0
   61.3900   34.1770   46.6680 C   0  0  0  0  0  0  0  0  0  0  0  0
   61.4020   33.6110   47.9520 C   0  0  0  0  0  0  0  0  0  0  0  0
   62.5870   33.7250   48.7600 N   0  0  0  0  0  0  0  0  0  0  0  0
   62.5750   34.5690   49.9610 C   0  0  0  0  0  0  0  0  0  0  0  0
   63.6910   34.1390   50.9140 C   0  0  0  0  0  0  0  0  0  0  0  0
   63.7630   32.7290   50.9410 O   0  0  0  0  0  0  0  0  0  0  0  0
   64.3240   32.2370   49.7330 C   0  0  0  0  0  0  0  0  0  0  0  0
   63.7760   32.9200   48.4580 C   0  0  0  0  0  0  0  0  0  0  0  0
   60.5714   31.7943   52.3186 H   0  0  0  0  0  0  0  0  0  0  0  0
   59.7264   33.2474   52.9625 H   0  0  0  0  0  0  0  0  0  0  0  0
   57.1246   33.3532   52.0435 H   0  0  0  0  0  0  0  0  0  0  0  0
   55.0329   32.0083   52.2593 H   0  0  0  0  0  0  0  0  0  0  0  0
   55.1616   29.5528   52.6856 H   0  0  0  0  0  0  0  0  0  0  0  0
   57.3829   28.4337   52.8907 H   0  0  0  0  0  0  0  0  0  0  0  0
   59.4805   29.7703   52.6807 H   0  0  0  0  0  0  0  0  0  0  0  0
   60.3400   31.2960   49.8260 H   0  0  0  0  0  0  0  0  0  0  0  0
   58.3303   32.0865   47.8603 H   0  0  0  0  0  0  0  0  0  0  0  0
   55.9068   31.8608   43.5918 H   0  0  0  0  0  0  0  0  0  0  0  0
   57.4482   31.1048   43.0437 H   0  0  0  0  0  0  0  0  0  0  0  0
   54.9269   29.8361   44.0575 H   0  0  0  0  0  0  0  0  0  0  0  0
   56.1545   29.2470   42.8512 H   0  0  0  0  0  0  0  0  0  0  0  0
   56.1236   28.9607   45.8627 H   0  0  0  0  0  0  0  0  0  0  0  0
   56.4543   27.7352   44.5743 H   0  0  0  0  0  0  0  0  0  0  0  0
   58.5050   28.3763   45.8400 H   0  0  0  0  0  0  0  0  0  0  0  0
   58.5931   28.7826   44.0749 H   0  0  0  0  0  0  0  0  0  0  0  0
   58.6948   30.5602   46.4449 H   0  0  0  0  0  0  0  0  0  0  0  0
   59.2563   30.8205   44.7352 H   0  0  0  0  0  0  0  0  0  0  0  0
   60.2871   34.4681   44.8279 H   0  0  0  0  0  0  0  0  0  0  0  0
   62.2571   34.7577   46.3203 H   0  0  0  0  0  0  0  0  0  0  0  0
   62.7288   35.6186   49.6701 H   0  0  0  0  0  0  0  0  0  0  0  0
   61.6052   34.4606   50.4686 H   0  0  0  0  0  0  0  0  0  0  0  0
   64.6503   34.5495   50.5657 H   0  0  0  0  0  0  0  0  0  0  0  0
   63.4787   34.5169   51.9250 H   0  0  0  0  0  0  0  0  0  0  0  0
   65.4122   32.3939   49.7684 H   0  0  0  0  0  0  0  0  0  0  0  0
   64.0500   31.1738   49.6660 H   0  0  0  0  0  0  0  0  0  0  0  0
   64.5547   33.5731   48.0372 H   0  0  0  0  0  0  0  0  0  0  0  0
   63.4952   32.1389   47.7362 H   0  0  0  0  0  0  0  0  0  0  0  0
  1  2  2  0
  2  3  1  0
  3  4  1  0
  4  5  2  0
  5  6  1  0
  6  7  2  0
  7  8  1  0
  8  9  2  0
  2 10  1  0
 10 11  1  0
 11 12  2  0
 12 13  1  0
 13 14  1  0
 14 15  2  0
 14 16  2  0
 14 17  1  0
 17 18  1  0
 18 19  1  0
 19 20  1  0
 20 21  1  0
 21 22  1  0
 13 23  2  0
 23 24  1  0
 24 25  2  0
 25 26  1  0
 26 27  1  0
 27 28  1  0
 28 29  1  0
 29 30  1  0
 30 31  1  0
  9  4  1  0
 25 11  1  0
 31 26  1  0
 22 17  1  0
  3 32  1  0
  3 33  1  0
  5 34  1  0
  6 35  1  0
  7 36  1  0
  8 37  1  0
  9 38  1  0
 10 39  1  0
 12 40  1  0
 18 41  1  0
 18 42  1  0
 19 43  1  0
 19 44  1  0
 20 45  1  0
 20 46  1  0
 21 47  1  0
 21 48  1  0
 22 49  1  0
 22 50  1  0
 23 51  1  0
 24 52  1  0
 27 53  1  0
 27 54  1  0
 28 55  1  0
 28 56  1  0
 30 57  1  0
 30 58  1  0
 31 59  1  0
 31 60  1  0
M  END
>  <UniqueID>  (46) 
37

>  <SMILES>  (46) 
O=C(Cc1ccccc1)Nc1cc(S(=O)(=O)N2CCCCC2)ccc1N1CCOCC1

>  <Energy>  (46) 
77.75012158987697

>  <Genealogy>  (46) 
O=C(Cc1ccccc1)Nc1cc(S(=O)(=O)N2CCCCC2)ccc1N1CCOCC1 (3D coordinates assigned)
O=C(Cc1ccccc1)Nc1cc(S(=O)(=O)N2CCCCC2)ccc1N1CCOCC1 (nonaromatic ring conformer: 77.75012158987697 kcal/mol)

>  <smiles>  (46) 
O=C(Cc1ccccc1)Nc1cc(S(=O)(=O)N2CCCCC2)ccc1N1CCOCC1

>  <score_type>  (46) 
oracle

>  <origin>  (46) 
adg

>  <m_score__min__energy>  (46) 
-9.9600000000000009

>  <m_primary>  (46) 
energy

$$$$
46:0
     RDKit          3D

 44 46  0  0  1  0  0  0  0  0999 V2000
   57.6250   31.0380   42.9880 N   0  0  0  0  0  0  0  0  0  0  0  0
   56.7330   29.6260   43.4310 S   0  0  0  0  0  0  0  0  0  0  0  0
   55.3880   30.0940   43.9360 O   0  0  0  0  0  0  0  0  0  0  0  0
   56.6130   28.7660   42.2250 O   0  0  0  0  0  0  0  0  0  0  0  0
   57.6220   28.8050   44.7100 C   0  0  0  0  0  0  0  0  0  0  0  0
   58.9550   29.1160   44.8700 C   0  0  0  0  0  0  0  0  0  0  0  0
   59.6730   28.4630   45.8630 C   0  0  0  0  0  0  0  0  0  0  0  0
   59.0350   27.5140   46.6730 C   0  0  0  0  0  0  0  0  0  0  0  0
   59.8540   26.8870   47.6460 N   0  0  0  0  0  0  0  0  0  0  0  0
   60.3050   27.5810   48.6170 C   0  0  0  0  0  0  0  0  0  0  0  0
   60.3190   28.9520   48.6750 C   0  0  0  0  0  0  0  0  0  0  0  0
   60.8020   29.6580   49.7650 C   0  0  0  0  0  0  0  0  0  0  0  0
   60.8350   31.0900   49.7970 N   0  0  0  0  0  0  0  0  0  0  0  0
   60.2850   31.8510   48.7020 C   0  0  0  0  0  0  0  0  0  0  0  0
   61.0630   32.7340   47.9700 C   0  0  0  0  0  0  0  0  0  0  0  0
   60.5350   33.4430   46.9170 C   0  0  0  0  0  0  0  0  0  0  0  0
   59.2070   33.2570   46.6010 C   0  0  0  0  0  0  0  0  0  0  0  0
   58.4870   34.1470   45.2750 S   0  0  0  0  0  0  0  0  0  0  0  0
   58.5190   33.2950   43.7920 N   0  0  0  0  0  0  0  0  0  0  0  0
   59.2420   35.4250   45.1080 O   0  0  0  0  0  0  0  0  0  0  0  0
   57.0590   34.5100   45.5790 O   0  0  0  0  0  0  0  0  0  0  0  0
   58.3830   32.3930   47.2890 C   0  0  0  0  0  0  0  0  0  0  0  0
   58.9530   31.7000   48.3390 C   0  0  0  0  0  0  0  0  0  0  0  0
   61.2700   28.9110   50.7930 N   0  0  0  0  0  0  0  0  0  0  0  0
   61.2680   27.5530   50.7590 C   0  0  0  0  0  0  0  0  0  0  0  0
   60.7890   26.9010   49.6810 N   0  0  0  0  0  0  0  0  0  0  0  0
   57.7030   27.2160   46.4990 C   0  0  0  0  0  0  0  0  0  0  0  0
   57.0040   27.8730   45.5090 C   0  0  0  0  0  0  0  0  0  0  0  0
   57.0380   31.9010   43.0570 H   0  0  0  0  0  0  0  0  0  0  0  0
   58.5180   31.1380   43.5260 H   0  0  0  0  0  0  0  0  0  0  0  0
   59.4392   29.8646   44.2257 H   0  0  0  0  0  0  0  0  0  0  0  0
   60.7388   28.6898   46.0133 H   0  0  0  0  0  0  0  0  0  0  0  0
   59.9284   29.5170   47.8158 H   0  0  0  0  0  0  0  0  0  0  0  0
   61.2660   31.5500   50.6290 H   0  0  0  0  0  0  0  0  0  0  0  0
   62.1216   32.8700   48.2362 H   0  0  0  0  0  0  0  0  0  0  0  0
   61.1582   34.1423   46.3404 H   0  0  0  0  0  0  0  0  0  0  0  0
   59.0820   32.4240   43.8130 H   0  0  0  0  0  0  0  0  0  0  0  0
   57.5560   33.1640   43.4510 H   0  0  0  0  0  0  0  0  0  0  0  0
   57.3255   32.2619   47.0160 H   0  0  0  0  0  0  0  0  0  0  0  0
   58.3264   30.9999   48.9111 H   0  0  0  0  0  0  0  0  0  0  0  0
   61.6620   29.3350   51.6490 H   0  0  0  0  0  0  0  0  0  0  0  0
   61.6589   26.9831   51.6148 H   0  0  0  0  0  0  0  0  0  0  0  0
   57.2065   26.4694   47.1363 H   0  0  0  0  0  0  0  0  0  0  0  0
   55.9380   27.6485   45.3566 H   0  0  0  0  0  0  0  0  0  0  0  0
  1  2  1  0
  2  3  2  0
  2  4  2  0
  2  5  1  0
  5  6  2  0
  6  7  1  0
  7  8  2  0
  8  9  1  0
  9 10  2  0
 10 11  1  0
 11 12  2  0
 12 13  1  0
 13 14  1  0
 14 15  2  0
 15 16  1  0
 16 17  2  0
 17 18  1  0
 18 19  1  0
 18 20  2  0
 18 21  2  0
 17 22  1  0
 22 23  2  0
 12 24  1  0
 24 25  1  0
 25 26  2  0
  8 27  1  0
 27 28  2  0
 28  5  1  0
 26 10  1  0
 23 14  1  0
  1 29  1  0
  1 30  1  0
  6 31  1  0
  7 32  1  0
 11 33  1  0
 13 34  1  0
 15 35  1  0
 16 36  1  0
 19 37  1  0
 19 38  1  0
 22 39  1  0
 23 40  1  0
 24 41  1  0
 25 42  1  0
 27 43  1  0
 28 44  1  0
M  END
>  <smiles>  (47) 
NS(=O)(=O)c1ccc(N=c2cc(Nc3ccc(S(N)(=O)=O)cc3)[nH]cn2)cc1

>  <score_type>  (47) 
oracle

>  <origin>  (47) 
adg

>  <m_score__min__energy>  (47) 
-9.9499999999999993

>  <m_primary>  (47) 
energy

$$$$
47:0
     RDKit          3D

 35 36  0  0  0  0  0  0  0  0999 V2000
   56.6130   29.5010   42.6510 C   0  0  0  0  0  0  0  0  0  0  0  0
   57.4950   30.4700   43.2870 N   0  0  0  0  0  0  0  0  0  0  0  0
   57.0610   31.2700   44.3950 C   0  0  0  0  0  0  0  0  0  0  0  0
   55.8970   31.1220   44.8600 O   0  0  0  0  0  0  0  0  0  0  0  0
   57.9620   32.2780   44.9940 C   0  0  0  0  0  0  0  0  0  0  0  0
   58.1770   33.4900   44.3160 C   0  0  0  0  0  0  0  0  0  0  0  0
   58.9480   34.5010   44.8940 C   0  0  0  0  0  0  0  0  0  0  0  0
   59.5070   34.3190   46.1590 C   0  0  0  0  0  0  0  0  0  0  0  0
   59.3100   33.1180   46.8420 C   0  0  0  0  0  0  0  0  0  0  0  0
   58.5580   32.0840   46.2650 C   0  0  0  0  0  0  0  0  0  0  0  0
   58.4700   30.8310   46.9640 N   0  0  0  0  0  0  0  0  0  0  0  0
   59.4380   29.7520   46.7530 C   0  0  0  0  0  0  0  0  0  0  0  0
   58.8610   28.6940   45.8510 C   0  0  0  0  0  0  0  0  0  0  0  0
   59.3960   28.4870   44.5690 C   0  0  0  0  0  0  0  0  0  0  0  0
   58.8950   27.4670   43.7540 C   0  0  0  0  0  0  0  0  0  0  0  0
   57.8660   26.6420   44.2160 C   0  0  0  0  0  0  0  0  0  0  0  0
   57.3360   26.8330   45.4990 C   0  0  0  0  0  0  0  0  0  0  0  0
   56.2840   25.9750   45.9780 C   0  0  0  0  0  0  0  0  0  0  0  0
   55.4380   25.2860   46.3640 N   0  0  0  0  0  0  0  0  0  0  0  0
   57.8370   27.8550   46.3160 C   0  0  0  0  0  0  0  0  0  0  0  0
   56.0861   28.9222   43.4239 H   0  0  0  0  0  0  0  0  0  0  0  0
   55.8792   30.0291   42.0244 H   0  0  0  0  0  0  0  0  0  0  0  0
   57.2076   28.8199   42.0244 H   0  0  0  0  0  0  0  0  0  0  0  0
   58.4810   30.5470   42.9470 H   0  0  0  0  0  0  0  0  0  0  0  0
   57.7340   33.6438   43.3210 H   0  0  0  0  0  0  0  0  0  0  0  0
   59.1148   35.4427   44.3506 H   0  0  0  0  0  0  0  0  0  0  0  0
   60.1028   35.1217   46.6180 H   0  0  0  0  0  0  0  0  0  0  0  0
   59.7483   32.9810   47.8416 H   0  0  0  0  0  0  0  0  0  0  0  0
   57.9130   30.8050   47.8470 H   0  0  0  0  0  0  0  0  0  0  0  0
   60.3461   30.1659   46.2904 H   0  0  0  0  0  0  0  0  0  0  0  0
   59.6805   29.2970   47.7247 H   0  0  0  0  0  0  0  0  0  0  0  0
   60.2115   29.1291   44.2049 H   0  0  0  0  0  0  0  0  0  0  0  0
   59.3116   27.3138   42.7475 H   0  0  0  0  0  0  0  0  0  0  0  0
   57.4718   25.8421   43.5720 H   0  0  0  0  0  0  0  0  0  0  0  0
   57.4260   28.0002   47.3259 H   0  0  0  0  0  0  0  0  0  0  0  0
  1  2  1  0
  2  3  1  0
  3  4  2  0
  3  5  1  0
  5  6  2  0
  6  7  1  0
  7  8  2  0
  8  9  1  0
  9 10  2  0
 10 11  1  0
 11 12  1  0
 12 13  1  0
 13 14  2  0
 14 15  1  0
 15 16  2  0
 16 17  1  0
 17 18  1  0
 18 19  3  0
 17 20  2  0
 10  5  1  0
 20 13  1  0
  1 21  1  0
  1 22  1  0
  1 23  1  0
  2 24  1  0
  6 25  1  0
  7 26  1  0
  8 27  1  0
  9 28  1  0
 11 29  1  0
 12 30  1  0
 12 31  1  0
 14 32  1  0
 15 33  1  0
 16 34  1  0
 20 35  1  0
M  END
>  <UniqueID>  (48) 
38

>  <SMILES>  (48) 
CNC(=O)c1ccccc1NCc1cccc(C#N)c1

>  <Energy>  (48) 
38.39528219031329

>  <Genealogy>  (48) 
CNC(=O)c1ccccc1NCc1cccc(C#N)c1 (3D coordinates assigned)
CNC(=O)c1ccccc1NCc1cccc(C#N)c1 (optimized conformer: 38.39528219031329 kcal/mol)

>  <smiles>  (48) 
CNC(=O)c1ccccc1NCc1cccc(C#N)c1

>  <score_type>  (48) 
oracle

>  <origin>  (48) 
adg

>  <m_score__min__energy>  (48) 
-7.5700000000000003

>  <m_primary>  (48) 
energy

$$$$
48:0
     RDKit          3D

 32 33  0  0  0  0  0  0  0  0999 V2000
   56.8580   32.5970   52.3710 C   0  0  0  0  0  0  0  0  0  0  0  0
   58.2490   32.5170   52.5760 O   0  0  0  0  0  0  0  0  0  0  0  0
   58.5420   31.4000   53.3870 C   0  0  0  0  0  0  0  0  0  0  0  0
   58.3040   30.1130   52.6000 C   0  0  0  0  0  0  0  0  0  0  0  0
   57.7560   28.7540   53.6950 S   0  0  0  0  0  0  0  0  0  0  0  0
   56.0390   28.8100   53.1860 C   0  0  0  0  0  0  0  0  0  0  0  0
   55.5160   29.8070   52.4490 N   0  0  0  0  0  0  0  0  0  0  0  0
   54.2280   29.4190   52.3390 C   0  0  0  0  0  0  0  0  0  0  0  0
   53.1970   30.1810   51.6020 C   0  0  0  0  0  0  0  0  0  0  0  0
   52.7740   29.7560   50.3310 C   0  0  0  0  0  0  0  0  0  0  0  0
   51.8000   30.4740   49.6340 C   0  0  0  0  0  0  0  0  0  0  0  0
   51.2380   31.6230   50.1950 C   0  0  0  0  0  0  0  0  0  0  0  0
   50.2690   32.3280   49.4900 O   0  0  0  0  0  0  0  0  0  0  0  0
   51.6440   32.0660   51.4600 C   0  0  0  0  0  0  0  0  0  0  0  0
   51.0530   33.2260   51.9870 O   0  0  0  0  0  0  0  0  0  0  0  0
   50.3880   33.2940   53.2430 C   0  0  0  0  0  0  0  0  0  0  0  0
   52.6280   31.3390   52.1620 C   0  0  0  0  0  0  0  0  0  0  0  0
   53.9880   28.2570   52.9800 N   0  0  0  0  0  0  0  0  0  0  0  0
   55.1330   27.8750   53.5170 N   0  0  0  0  0  0  0  0  0  0  0  0
   56.3451   32.6265   53.3437 H   0  0  0  0  0  0  0  0  0  0  0  0
   56.6228   33.5102   51.8046 H   0  0  0  0  0  0  0  0  0  0  0  0
   56.5196   31.7168   51.8046 H   0  0  0  0  0  0  0  0  0  0  0  0
   59.5943   31.4449   53.7041 H   0  0  0  0  0  0  0  0  0  0  0  0
   57.8878   31.4114   54.2712 H   0  0  0  0  0  0  0  0  0  0  0  0
   57.5292   30.2956   51.8408 H   0  0  0  0  0  0  0  0  0  0  0  0
   59.2515   29.8160   52.1266 H   0  0  0  0  0  0  0  0  0  0  0  0
   53.2127   28.8524   49.8826 H   0  0  0  0  0  0  0  0  0  0  0  0
   51.4743   30.1336   48.6400 H   0  0  0  0  0  0  0  0  0  0  0  0
   51.1274   33.2184   54.0539 H   0  0  0  0  0  0  0  0  0  0  0  0
   49.8526   34.2516   53.3231 H   0  0  0  0  0  0  0  0  0  0  0  0
   49.6699   32.4646   53.3231 H   0  0  0  0  0  0  0  0  0  0  0  0
   52.9531   31.6806   53.1558 H   0  0  0  0  0  0  0  0  0  0  0  0
  1  2  1  0
  2  3  1  0
  3  4  1  0
  4  5  1  0
  5  6  1  0
  6  7  2  0
  7  8  1  0
  8  9  1  0
  9 10  2  0
 10 11  1  0
 11 12  2  0
 12 13  1  0
 12 14  1  0
 14 15  1  0
 15 16  1  0
 14 17  2  0
  8 18  2  0
 18 19  1  0
 19  6  1  0
 17  9  1  0
  1 20  1  0
  1 21  1  0
  1 22  1  0
  3 23  1  0
  3 24  1  0
  4 25  1  0
  4 26  1  0
 10 27  1  0
 11 28  1  0
 16 29  1  0
 16 30  1  0
 16 31  1  0
 17 32  1  0
M  CHG  2  13  -1  19  -1
M  END
>  <UniqueID>  (49) 
39

>  <SMILES>  (49) 
COCCSc1nc(-c2ccc([O-])c(OC)c2)n[n-]1

>  <Energy>  (49) 
59.83105454236752

>  <Genealogy>  (49) 
COCCSc1nc(-c2ccc([O-])c(OC)c2)n[n-]1 (protonated)
COCCSc1nc(-c2ccc([O-])c(OC)c2)n[n-]1 (3D coordinates assigned)
COCCSc1nc(-c2ccc([O-])c(OC)c2)n[n-]1 (optimized conformer: 59.83105454236752 kcal/mol)

>  <smiles>  (49) 
COCCSc1nc(-c2ccc(O)c(OC)c2)n[nH]1

>  <score_type>  (49) 
oracle

>  <origin>  (49) 
adg

>  <m_score__min__energy>  (49) 
-10.369999999999999

>  <m_primary>  (49) 
energy

$$$$
49:0
     RDKit          3D

 35 36  0  0  0  0  0  0  0  0999 V2000
   53.9700   23.7220   45.0350 C   0  0  0  0  0  0  0  0  0  0  0  0
   55.2350   24.1340   44.5280 O   0  0  0  0  0  0  0  0  0  0  0  0
   56.1870   24.8600   45.2630 C   0  0  0  0  0  0  0  0  0  0  0  0
   57.5480   24.5020   45.2890 C   0  0  0  0  0  0  0  0  0  0  0  0
   58.4600   25.2500   46.0370 C   0  0  0  0  0  0  0  0  0  0  0  0
   58.0310   26.3700   46.7640 C   0  0  0  0  0  0  0  0  0  0  0  0
   59.0040   27.1340   47.6250 C   0  0  0  0  0  0  0  0  0  0  0  0
   59.9360   28.0140   46.7790 C   0  0  0  0  0  0  0  0  0  0  0  0
   59.2360   29.2130   46.2940 N   0  0  0  0  0  0  0  0  0  0  0  0
   59.7920   30.4430   46.4970 C   0  0  0  0  0  0  0  0  0  0  0  0
   59.1740   31.5930   46.0020 C   0  0  0  0  0  0  0  0  0  0  0  0
   59.7430   32.8490   46.2130 O   0  0  0  0  0  0  0  0  0  0  0  0
   57.9780   31.4790   45.2870 C   0  0  0  0  0  0  0  0  0  0  0  0
   57.4270   32.5210   44.8400 O   0  0  0  0  0  0  0  0  0  0  0  0
   57.4070   30.2060   45.0720 C   0  0  0  0  0  0  0  0  0  0  0  0
   56.1480   30.0210   44.3040 C   0  0  0  0  0  0  0  0  0  0  0  0
   56.0290   30.4700   43.1320 O   0  0  0  0  0  0  0  0  0  0  0  0
   55.0730   29.3440   44.8710 O   0  0  0  0  0  0  0  0  0  0  0  0
   58.0670   29.0820   45.5980 C   0  0  0  0  0  0  0  0  0  0  0  0
   56.6740   26.7250   46.7410 C   0  0  0  0  0  0  0  0  0  0  0  0
   55.7590   25.9760   45.9950 C   0  0  0  0  0  0  0  0  0  0  0  0
   54.4180   26.3410   45.9880 O   0  0  0  0  0  0  0  0  0  0  0  0
   53.9954   23.7303   46.1347 H   0  0  0  0  0  0  0  0  0  0  0  0
   53.1905   24.4127   44.6810 H   0  0  0  0  0  0  0  0  0  0  0  0
   53.7468   22.7047   44.6810 H   0  0  0  0  0  0  0  0  0  0  0  0
   57.8951   23.6287   44.7173 H   0  0  0  0  0  0  0  0  0  0  0  0
   59.5207   24.9590   46.0560 H   0  0  0  0  0  0  0  0  0  0  0  0
   58.4401   27.7749   48.3188 H   0  0  0  0  0  0  0  0  0  0  0  0
   59.6210   26.4081   48.1749 H   0  0  0  0  0  0  0  0  0  0  0  0
   60.7942   28.3231   47.3937 H   0  0  0  0  0  0  0  0  0  0  0  0
   60.2733   27.4307   45.9096 H   0  0  0  0  0  0  0  0  0  0  0  0
   60.7356   30.5290   47.0557 H   0  0  0  0  0  0  0  0  0  0  0  0
   59.3070   33.6950   45.8650 H   0  0  0  0  0  0  0  0  0  0  0  0
   57.6360   28.0813   45.4471 H   0  0  0  0  0  0  0  0  0  0  0  0
   56.3277   27.5981   47.3135 H   0  0  0  0  0  0  0  0  0  0  0  0
  1  2  1  0
  2  3  1  0
  3  4  2  0
  4  5  1  0
  5  6  2  0
  6  7  1  0
  7  8  1  0
  8  9  1  0
  9 10  1  0
 10 11  2  0
 11 12  1  0
 11 13  1  0
 13 14  2  0
 13 15  1  0
 15 16  1  0
 16 17  2  0
 16 18  1  0
 15 19  2  0
  6 20  1  0
 20 21  2  0
 21 22  1  0
 21  3  1  0
 19  9  1  0
  1 23  1  0
  1 24  1  0
  1 25  1  0
  4 26  1  0
  5 27  1  0
  7 28  1  0
  7 29  1  0
  8 30  1  0
  8 31  1  0
 10 32  1  0
 12 33  1  0
 19 34  1  0
 20 35  1  0
M  CHG  2  18  -1  22  -1
M  END
>  <UniqueID>  (50) 
40

>  <SMILES>  (50) 
COc1ccc(CCn2cc(O)c(=O)c(C(=O)[O-])c2)cc1[O-]

>  <Energy>  (50) 
34.155538889243395

>  <Genealogy>  (50) 
COc1ccc(CCn2cc(O)c(=O)c(C(=O)[O-])c2)cc1[O-] (protonated)
COc1ccc(CCn2cc(O)c(=O)c(C(=O)[O-])c2)cc1[O-] (3D coordinates assigned)
COc1ccc(CCn2cc(O)c(=O)c(C(=O)[O-])c2)cc1[O-] (optimized conformer: 34.155538889243395 kcal/mol)

>  <smiles>  (50) 
COc1ccc(CCn2cc(O)c(=O)c(C(=O)O)c2)cc1O

>  <score_type>  (50) 
oracle

>  <origin>  (50) 
adg

>  <m_score__min__energy>  (50) 
-12.23

>  <m_primary>  (50) 
energy

$$$$
50:0
     RDKit          3D

 52 54  0  0  0  0  0  0  0  0999 V2000
   56.3560   22.9510   43.0430 C   0  0  0  0  0  0  0  0  0  0  0  0
   57.1290   24.0940   43.6910 C   0  0  0  0  0  0  0  0  0  0  0  0
   57.7360   23.6690   44.9630 N   0  0  0  0  0  0  0  0  0  0  0  0
   58.2000   22.2800   45.1070 C   0  0  0  0  0  0  0  0  0  0  0  0
   59.7020   22.1800   44.8530 C   0  0  0  0  0  0  0  0  0  0  0  0
   57.7510   24.5510   46.1060 C   0  0  0  0  0  0  0  0  0  0  0  0
   57.7690   24.0750   47.2720 O   0  0  0  0  0  0  0  0  0  0  0  0
   57.7350   26.0110   45.9450 C   0  0  0  0  0  0  0  0  0  0  0  0
   56.3480   26.9030   45.6230 S   0  0  0  0  0  0  0  0  0  0  0  0
   57.1110   28.3950   45.5830 C   0  0  0  0  0  0  0  0  0  0  0  0
   56.4110   29.6260   45.3630 N   0  0  0  0  0  0  0  0  0  0  0  0
   56.7580   30.6320   44.4020 C   0  0  0  0  0  0  0  0  0  0  0  0
   56.3500   30.4960   43.2180 O   0  0  0  0  0  0  0  0  0  0  0  0
   57.5360   31.8400   44.7700 C   0  0  0  0  0  0  0  0  0  0  0  0
   58.0820   32.6870   43.7700 C   0  0  0  0  0  0  0  0  0  0  0  0
   58.7990   33.8420   44.1200 C   0  0  0  0  0  0  0  0  0  0  0  0
   58.9670   34.1110   45.4700 C   0  0  0  0  0  0  0  0  0  0  0  0
   59.7440   35.3590   46.2480 S   0  0  0  0  0  0  0  0  0  0  0  0
   59.4350   34.8410   47.8030 N   0  0  0  0  0  0  0  0  0  0  0  0
   58.7340   33.7070   47.7410 N   0  0  0  0  0  0  0  0  0  0  0  0
   58.4700   33.2930   46.4670 C   0  0  0  0  0  0  0  0  0  0  0  0
   57.7550   32.1430   46.1360 C   0  0  0  0  0  0  0  0  0  0  0  0
   58.4830   28.2230   45.8040 C   0  0  0  0  0  0  0  0  0  0  0  0
   59.4800   29.3110   45.7520 C   0  0  0  0  0  0  0  0  0  0  0  0
   59.8940   29.6960   44.6250 O   0  0  0  0  0  0  0  0  0  0  0  0
   59.9560   29.9560   46.9510 N   0  0  0  0  0  0  0  0  0  0  0  0
   59.2290   29.8030   48.2170 C   0  0  0  0  0  0  0  0  0  0  0  0
   61.1100   30.8560   46.8700 C   0  0  0  0  0  0  0  0  0  0  0  0
   58.8310   26.8740   46.0230 C   0  0  0  0  0  0  0  0  0  0  0  0
   60.2270   26.4280   46.3630 C   0  0  0  0  0  0  0  0  0  0  0  0
   55.9231   22.3109   43.8259 H   0  0  0  0  0  0  0  0  0  0  0  0
   55.5496   23.3618   42.4178 H   0  0  0  0  0  0  0  0  0  0  0  0
   57.0375   22.3555   42.4178 H   0  0  0  0  0  0  0  0  0  0  0  0
   57.9240   24.4239   43.0060 H   0  0  0  0  0  0  0  0  0  0  0  0
   56.4289   24.9174   43.8958 H   0  0  0  0  0  0  0  0  0  0  0  0
   57.9830   21.9315   46.1275 H   0  0  0  0  0  0  0  0  0  0  0  0
   57.6757   21.6553   44.3689 H   0  0  0  0  0  0  0  0  0  0  0  0
   60.2349   22.1445   45.8146 H   0  0  0  0  0  0  0  0  0  0  0  0
   59.9170   21.2656   44.2807 H   0  0  0  0  0  0  0  0  0  0  0  0
   60.0363   23.0579   44.2807 H   0  0  0  0  0  0  0  0  0  0  0  0
   57.9416   32.4353   42.7084 H   0  0  0  0  0  0  0  0  0  0  0  0
   59.2130   34.5102   43.3505 H   0  0  0  0  0  0  0  0  0  0  0  0
   57.3667   31.4809   46.9239 H   0  0  0  0  0  0  0  0  0  0  0  0
   59.9227   29.9490   49.0581 H   0  0  0  0  0  0  0  0  0  0  0  0
   58.4248   30.5516   48.2708 H   0  0  0  0  0  0  0  0  0  0  0  0
   58.7947   28.7938   48.2708 H   0  0  0  0  0  0  0  0  0  0  0  0
   61.4439   31.1164   47.8852 H   0  0  0  0  0  0  0  0  0  0  0  0
   61.9284   30.3553   46.3320 H   0  0  0  0  0  0  0  0  0  0  0  0
   60.8238   31.7718   46.3320 H   0  0  0  0  0  0  0  0  0  0  0  0
   60.3440   26.3906   47.4561 H   0  0  0  0  0  0  0  0  0  0  0  0
   60.4055   25.4281   45.9407 H   0  0  0  0  0  0  0  0  0  0  0  0
   60.9522   27.1392   45.9407 H   0  0  0  0  0  0  0  0  0  0  0  0
  1  2  1  0
  2  3  1  0
  3  4  1  0
  4  5  1  0
  3  6  1  0
  6  7  2  0
  6  8  1  0
  8  9  1  0
  9 10  1  0
 10 11  1  0
 11 12  1  0
 12 13  2  0
 12 14  1  0
 14 15  2  0
 15 16  1  0
 16 17  2  0
 17 18  1  0
 18 19  1  0
 19 20  2  0
 20 21  1  0
 21 22  2  0
 10 23  2  0
 23 24  1  0
 24 25  2  0
 24 26  1  0
 26 27  1  0
 26 28  1  0
 23 29  1  0
 29 30  1  0
 29  8  2  0
 22 14  1  0
 21 17  1  0
  1 31  1  0
  1 32  1  0
  1 33  1  0
  2 34  1  0
  2 35  1  0
  4 36  1  0
  4 37  1  0
  5 38  1  0
  5 39  1  0
  5 40  1  0
 15 41  1  0
 16 42  1  0
 22 43  1  0
 27 44  1  0
 27 45  1  0
 27 46  1  0
 28 47  1  0
 28 48  1  0
 28 49  1  0
 30 50  1  0
 30 51  1  0
 30 52  1  0
M  CHG  1  11  -1
M  END
>  <UniqueID>  (51) 
41

>  <SMILES>  (51) 
CCN(CC)C(=O)c1sc([N-]C(=O)c2ccc3snnc3c2)c(C(=O)N(C)C)c1C

>  <Energy>  (51) 
132.0217166856478

>  <Genealogy>  (51) 
CCN(CC)C(=O)c1sc([N-]C(=O)c2ccc3snnc3c2)c(C(=O)N(C)C)c1C (protonated)
CCN(CC)C(=O)c1sc([N-]C(=O)c2ccc3snnc3c2)c(C(=O)N(C)C)c1C (3D coordinates assigned)
CCN(CC)C(=O)c1sc([N-]C(=O)c2ccc3snnc3c2)c(C(=O)N(C)C)c1C (optimized conformer: 132.0217166856478 kcal/mol)

>  <smiles>  (51) 
CCN(CC)C(=O)c1sc(NC(=O)c2ccc3snnc3c2)c(C(=O)N(C)C)c1C

>  <score_type>  (51) 
oracle

>  <origin>  (51) 
adg

>  <m_score__min__energy>  (51) 
-10.77

>  <m_primary>  (51) 
energy

$$$$
51:0
     RDKit          3D

 60 63  0  0  0  0  0  0  0  0999 V2000
   58.5420   29.3970   50.6250 C   0  0  0  0  0  0  0  0  0  0  0  0
   57.5080   29.9360   51.5180 N   0  0  0  0  0  0  0  0  0  0  0  0
   57.7230   29.4520   52.8850 C   0  0  0  0  0  0  0  0  0  0  0  0
   57.5110   31.6910   51.4760 S   0  0  0  0  0  0  0  0  0  0  0  0
   56.2530   32.2440   52.0900 O   0  0  0  0  0  0  0  0  0  0  0  0
   57.5960   32.1810   50.0580 O   0  0  0  0  0  0  0  0  0  0  0  0
   58.9090   32.2800   52.3490 N   0  0  0  0  0  0  0  0  0  0  0  0
   59.1990   33.6950   52.0400 C   0  0  0  0  0  0  0  0  0  0  0  0
   59.8850   33.8660   50.6780 C   0  0  0  0  0  0  0  0  0  0  0  0
   60.9610   32.8910   50.5110 N   0  0  0  0  0  0  0  0  0  0  0  0
   61.7970   32.9550   49.3490 C   0  0  0  0  0  0  0  0  0  0  0  0
   62.9570   33.7460   49.3710 C   0  0  0  0  0  0  0  0  0  0  0  0
   63.7900   33.8050   48.2540 C   0  0  0  0  0  0  0  0  0  0  0  0
   63.4690   33.0760   47.1070 C   0  0  0  0  0  0  0  0  0  0  0  0
   62.3170   32.2850   47.0740 C   0  0  0  0  0  0  0  0  0  0  0  0
   61.4700   32.2110   48.1970 C   0  0  0  0  0  0  0  0  0  0  0  0
   60.2380   31.4710   48.1770 N   0  0  0  0  0  0  0  0  0  0  0  0
   60.0620   30.0790   47.8830 C   0  0  0  0  0  0  0  0  0  0  0  0
   60.7210   29.1990   48.5030 O   0  0  0  0  0  0  0  0  0  0  0  0
   59.0210   29.6630   46.9260 C   0  0  0  0  0  0  0  0  0  0  0  0
   59.1000   28.3560   46.4180 C   0  0  0  0  0  0  0  0  0  0  0  0
   58.2900   27.9590   45.3570 C   0  0  0  0  0  0  0  0  0  0  0  0
   57.4210   28.8820   44.7800 C   0  0  0  0  0  0  0  0  0  0  0  0
   57.3190   30.1340   45.2970 N   0  0  0  0  0  0  0  0  0  0  0  0
   58.0470   30.5510   46.3690 C   0  0  0  0  0  0  0  0  0  0  0  0
   57.7700   31.7380   46.8490 N   0  0  0  0  0  0  0  0  0  0  0  0
   58.3570   33.0070   46.5250 C   0  0  0  0  0  0  0  0  0  0  0  0
   58.8760   33.7970   47.5600 C   0  0  0  0  0  0  0  0  0  0  0  0
   59.5010   35.0120   47.2760 C   0  0  0  0  0  0  0  0  0  0  0  0
   59.6400   35.4340   45.9510 C   0  0  0  0  0  0  0  0  0  0  0  0
   59.1690   34.6310   44.9070 C   0  0  0  0  0  0  0  0  0  0  0  0
   58.5370   33.4130   45.1850 C   0  0  0  0  0  0  0  0  0  0  0  0
   58.0400   32.3960   43.8350 Cl  0  0  0  0  0  0  0  0  0  0  0  0
   61.3260   31.9990   51.6120 C   0  0  0  0  0  0  0  0  0  0  0  0
   60.0690   31.3590   52.2200 C   0  0  0  0  0  0  0  0  0  0  0  0
   59.3593   28.9710   51.2254 H   0  0  0  0  0  0  0  0  0  0  0  0
   58.1054   28.6117   49.9904 H   0  0  0  0  0  0  0  0  0  0  0  0
   58.9357   30.2046   49.9904 H   0  0  0  0  0  0  0  0  0  0  0  0
   57.3842   30.2147   53.6016 H   0  0  0  0  0  0  0  0  0  0  0  0
   57.1523   28.5244   53.0396 H   0  0  0  0  0  0  0  0  0  0  0  0
   58.7939   29.2537   53.0396 H   0  0  0  0  0  0  0  0  0  0  0  0
   58.2530   34.2563   52.0323 H   0  0  0  0  0  0  0  0  0  0  0  0
   59.8852   34.0737   52.8118 H   0  0  0  0  0  0  0  0  0  0  0  0
   59.1419   33.7228   49.8797 H   0  0  0  0  0  0  0  0  0  0  0  0
   60.3150   34.8771   50.6250 H   0  0  0  0  0  0  0  0  0  0  0  0
   63.2099   34.3218   50.2735 H   0  0  0  0  0  0  0  0  0  0  0  0
   64.6985   34.4248   48.2765 H   0  0  0  0  0  0  0  0  0  0  0  0
   64.1255   33.1244   46.2257 H   0  0  0  0  0  0  0  0  0  0  0  0
   62.0703   31.7166   46.1651 H   0  0  0  0  0  0  0  0  0  0  0  0
   59.8074   27.6401   46.8618 H   0  0  0  0  0  0  0  0  0  0  0  0
   58.3360   26.9272   44.9786 H   0  0  0  0  0  0  0  0  0  0  0  0
   56.8173   28.5971   43.9057 H   0  0  0  0  0  0  0  0  0  0  0  0
   58.7901   33.4571   48.6027 H   0  0  0  0  0  0  0  0  0  0  0  0
   59.8844   35.6378   48.0954 H   0  0  0  0  0  0  0  0  0  0  0  0
   60.1202   36.3984   45.7289 H   0  0  0  0  0  0  0  0  0  0  0  0
   59.2956   34.9575   43.8642 H   0  0  0  0  0  0  0  0  0  0  0  0
   61.9889   31.2073   51.2328 H   0  0  0  0  0  0  0  0  0  0  0  0
   61.8414   32.5827   52.3890 H   0  0  0  0  0  0  0  0  0  0  0  0
   59.7689   30.5160   51.5802 H   0  0  0  0  0  0  0  0  0  0  0  0
   60.3379   31.0498   53.2408 H   0  0  0  0  0  0  0  0  0  0  0  0
  1  2  1  0
  2  3  1  0
  2  4  1  0
  4  5  2  0
  4  6  2  0
  4  7  1  0
  7  8  1  0
  8  9  1  0
  9 10  1  0
 10 11  1  0
 11 12  2  0
 12 13  1  0
 13 14  2  0
 14 15  1  0
 15 16  2  0
 16 17  1  0
 17 18  1  0
 18 19  2  0
 18 20  1  0
 20 21  2  0
 21 22  1  0
 22 23  2  0
 23 24  1  0
 24 25  1  0
 25 26  2  3
 26 27  1  0
 27 28  2  0
 28 29  1  0
 29 30  2  0
 30 31  1  0
 31 32  2  0
 32 33  1  0
 10 34  1  0
 34 35  1  0
 35  7  1  0
 16 11  1  0
 25 20  1  0
 32 27  1  0
  1 36  1  0
  1 37  1  0
  1 38  1  0
  3 39  1  0
  3 40  1  0
  3 41  1  0
  8 42  1  0
  8 43  1  0
  9 44  1  0
  9 45  1  0
 12 46  1  0
 13 47  1  0
 14 48  1  0
 15 49  1  0
 21 50  1  0
 22 51  1  0
 23 52  1  0
 28 53  1  0
 29 54  1  0
 30 55  1  0
 31 56  1  0
 34 57  1  0
 34 58  1  0
 35 59  1  0
 35 60  1  0
M  CHG  2  17  -1  24  -1
M  END
>  <UniqueID>  (52) 
42

>  <SMILES>  (52) 
CN(C)S(=O)(=O)N1CCN(c2ccccc2[N-]C(=O)c2ccc[n-]c2=Nc2ccccc2Cl)CC1

>  <Energy>  (52) 
95.17315936941078

>  <Genealogy>  (52) 
CN(C)S(=O)(=O)N1CCN(c2ccccc2[N-]C(=O)c2ccc[n-]c2=Nc2ccccc2Cl)CC1 (protonated)
CN(C)S(=O)(=O)N1CCN(c2ccccc2[N-]C(=O)c2ccc[n-]c2=Nc2ccccc2Cl)CC1 (3D coordinates assigned)
CN(C)S(=O)(=O)N1CCN(c2ccccc2[N-]C(=O)c2ccc[n-]c2=Nc2ccccc2Cl)CC1 (nonaromatic ring conformer: 95.17315936941078 kcal/mol)

>  <smiles>  (52) 
CN(C)S(=O)(=O)N1CCN(c2ccccc2NC(=O)c2ccc[nH]c2=Nc2ccccc2Cl)CC1

>  <score_type>  (52) 
oracle

>  <origin>  (52) 
adg

>  <m_score__min__energy>  (52) 
-11.81

>  <m_primary>  (52) 
energy

$$$$
52:0
     RDKit          3D

 26 27  0  0  0  0  0  0  0  0999 V2000
   59.6742   35.2687   44.1187 H   0  0  0  0  0  0  0  0  0  0  0  0
   59.1860   34.6450   44.8820 C   0  0  0  0  0  0  0  0  0  0  0  0
   59.4920   34.8290   46.2340 C   0  0  0  0  0  0  0  0  0  0  0  0
   60.2125   35.6039   46.5346 H   0  0  0  0  0  0  0  0  0  0  0  0
   58.8820   34.0280   47.2030 C   0  0  0  0  0  0  0  0  0  0  0  0
   59.1880   34.1970   48.5120 F   0  0  0  0  0  0  0  0  0  0  0  0
   57.9570   33.0510   46.8220 C   0  0  0  0  0  0  0  0  0  0  0  0
   57.4869   32.4157   47.5871 H   0  0  0  0  0  0  0  0  0  0  0  0
   57.6250   32.8760   45.4720 C   0  0  0  0  0  0  0  0  0  0  0  0
   56.6870   31.8470   45.1210 N   0  0  0  0  0  0  0  0  0  0  0  0
   56.9830   30.6270   44.4310 C   0  0  0  0  0  0  0  0  0  0  0  0
   57.7290   30.6310   43.4150 O   0  0  0  0  0  0  0  0  0  0  0  0
   56.3320   29.3760   44.8630 C   0  0  0  0  0  0  0  0  0  0  0  0
   55.1460   29.1510   44.5070 O   0  0  0  0  0  0  0  0  0  0  0  0
   57.0270   28.3730   45.6190 N   0  0  0  0  0  0  0  0  0  0  0  0
   56.6810   27.1250   45.7250 C   0  0  0  0  0  0  0  0  0  0  0  0
   55.4250   26.7010   45.9920 N   0  0  0  0  0  0  0  0  0  0  0  0
   55.3190   25.3730   46.0120 N   0  0  0  0  0  0  0  0  0  0  0  0
   56.4830   24.7410   45.7400 C   0  0  0  0  0  0  0  0  0  0  0  0
   56.6430   23.2600   45.7650 C   0  0  0  0  0  0  0  0  0  0  0  0
   56.6805   22.9128   46.8081 H   0  0  0  0  0  0  0  0  0  0  0  0
   55.7904   22.7904   45.2527 H   0  0  0  0  0  0  0  0  0  0  0  0
   57.5763   22.9833   45.2527 H   0  0  0  0  0  0  0  0  0  0  0  0
   57.7380   25.8400   45.4810 S   0  0  0  0  0  0  0  0  0  0  0  0
   58.2610   33.6700   44.4990 C   0  0  0  0  0  0  0  0  0  0  0  0
   58.0292   33.5225   43.4339 H   0  0  0  0  0  0  0  0  0  0  0  0
  1  2  1  0
  2  3  2  0
  3  4  1  0
  3  5  1  0
  5  6  1  0
  5  7  2  0
  7  8  1  0
  7  9  1  0
  9 10  1  0
 10 11  1  0
 11 12  2  0
 11 13  1  0
 13 14  2  0
 13 15  1  0
 15 16  2  0
 16 17  1  0
 17 18  1  0
 18 19  2  0
 19 20  1  0
 20 21  1  0
 20 22  1  0
 20 23  1  0
 19 24  1  0
  9 25  2  0
 25 26  1  0
 25  2  1  0
 24 16  1  0
M  CHG  2  10  -1  17  -1
M  END
>  <UniqueID>  (53) 
43

>  <SMILES>  (53) 
Cc1n[n-]/c(=N\C(=O)C(=O)[N-]c2cccc(F)c2)s1

>  <Energy>  (53) 
67.83329722288872

>  <Genealogy>  (53) 
Cc1n[n-]c(=NC(=O)C(=O)[N-]c2cccc(F)c2)s1 (protonated)
Cc1n[n-]/c(=N\C(=O)C(=O)[N-]c2cccc(F)c2)s1 (cis-trans isomerization)
Cc1n[n-]/c(=N\C(=O)C(=O)[N-]c2cccc(F)c2)s1 (3D coordinates assigned)
Cc1n[n-]/c(=N\C(=O)C(=O)[N-]c2cccc(F)c2)s1 (optimized conformer: 67.83329722288872 kcal/mol)

>  <smiles>  (53) 
Cc1n[nH]c(=NC(=O)C(=O)Nc2cccc(F)c2)s1

>  <score_type>  (53) 
oracle

>  <origin>  (53) 
adg

>  <m_score__min__energy>  (53) 
-10.529999999999999

>  <m_primary>  (53) 
energy

$$$$
53:0
     RDKit          3D

 47 49  0  0  0  0  0  0  0  0999 V2000
   63.5300   33.6000   47.3530 C   0  0  0  0  0  0  0  0  0  0  0  0
   62.1920   32.9370   47.2630 C   0  0  0  0  0  0  0  0  0  0  0  0
   61.8800   31.8580   48.0950 C   0  0  0  0  0  0  0  0  0  0  0  0
   60.6170   31.2720   47.9790 C   0  0  0  0  0  0  0  0  0  0  0  0
   60.2260   30.1940   48.8390 N   0  0  0  0  0  0  0  0  0  0  0  0
   59.7900   30.5010   50.2020 C   0  0  0  0  0  0  0  0  0  0  0  0
   60.5460   28.8160   48.4480 C   0  0  0  0  0  0  0  0  0  0  0  0
   59.8900   28.5020   47.1300 C   0  0  0  0  0  0  0  0  0  0  0  0
   58.5980   27.9500   47.0940 C   0  0  0  0  0  0  0  0  0  0  0  0
   57.9540   27.7440   45.8700 C   0  0  0  0  0  0  0  0  0  0  0  0
   58.5900   28.0960   44.6760 C   0  0  0  0  0  0  0  0  0  0  0  0
   59.8700   28.6570   44.7050 C   0  0  0  0  0  0  0  0  0  0  0  0
   60.5170   28.8650   45.9270 C   0  0  0  0  0  0  0  0  0  0  0  0
   59.7230   31.7750   47.0890 N   0  0  0  0  0  0  0  0  0  0  0  0
   60.0250   32.8430   46.3040 C   0  0  0  0  0  0  0  0  0  0  0  0
   59.0350   33.3810   45.4040 N   0  0  0  0  0  0  0  0  0  0  0  0
   58.9150   34.8320   45.2370 C   0  0  0  0  0  0  0  0  0  0  0  0
   58.2330   32.4950   44.5970 C   0  0  0  0  0  0  0  0  0  0  0  0
   58.2740   32.5820   43.1930 C   0  0  0  0  0  0  0  0  0  0  0  0
   57.4890   31.7330   42.4090 C   0  0  0  0  0  0  0  0  0  0  0  0
   56.6590   30.7870   43.0170 C   0  0  0  0  0  0  0  0  0  0  0  0
   56.6120   30.6860   44.4110 C   0  0  0  0  0  0  0  0  0  0  0  0
   55.7780   29.7390   45.0030 O   0  0  0  0  0  0  0  0  0  0  0  0
   57.3990   31.5380   45.1990 C   0  0  0  0  0  0  0  0  0  0  0  0
   61.2600   33.4100   46.3930 N   0  0  0  0  0  0  0  0  0  0  0  0
   63.8020   33.7348   48.4103 H   0  0  0  0  0  0  0  0  0  0  0  0
   64.2847   32.9716   46.8575 H   0  0  0  0  0  0  0  0  0  0  0  0
   63.4871   34.5811   46.8575 H   0  0  0  0  0  0  0  0  0  0  0  0
   62.6116   31.4792   48.8239 H   0  0  0  0  0  0  0  0  0  0  0  0
   60.4705   30.0219   50.9213 H   0  0  0  0  0  0  0  0  0  0  0  0
   59.8030   31.5903   50.3545 H   0  0  0  0  0  0  0  0  0  0  0  0
   58.7688   30.1216   50.3545 H   0  0  0  0  0  0  0  0  0  0  0  0
   61.6362   28.7066   48.3500 H   0  0  0  0  0  0  0  0  0  0  0  0
   60.1749   28.1218   49.2163 H   0  0  0  0  0  0  0  0  0  0  0  0
   58.0915   27.6790   48.0321 H   0  0  0  0  0  0  0  0  0  0  0  0
   56.9459   27.3045   45.8467 H   0  0  0  0  0  0  0  0  0  0  0  0
   58.0832   27.9315   43.7136 H   0  0  0  0  0  0  0  0  0  0  0  0
   60.3690   28.9353   43.7650 H   0  0  0  0  0  0  0  0  0  0  0  0
   61.5207   29.3146   45.9461 H   0  0  0  0  0  0  0  0  0  0  0  0
   58.8752   35.3128   46.2256 H   0  0  0  0  0  0  0  0  0  0  0  0
   59.7849   35.2102   44.6800 H   0  0  0  0  0  0  0  0  0  0  0  0
   57.9948   35.0621   44.6800 H   0  0  0  0  0  0  0  0  0  0  0  0
   58.9280   33.3229   42.7100 H   0  0  0  0  0  0  0  0  0  0  0  0
   57.5242   31.8091   41.3122 H   0  0  0  0  0  0  0  0  0  0  0  0
   56.0412   30.1203   42.3975 H   0  0  0  0  0  0  0  0  0  0  0  0
   55.6280   29.7180   46.0050 H   0  0  0  0  0  0  0  0  0  0  0  0
   57.3632   31.4566   46.2954 H   0  0  0  0  0  0  0  0  0  0  0  0
  1  2  1  0
  2  3  2  0
  3  4  1  0
  4  5  1  0
  5  6  1  0
  5  7  1  0
  7  8  1  0
  8  9  2  0
  9 10  1  0
 10 11  2  0
 11 12  1  0
 12 13  2  0
  4 14  2  0
 14 15  1  0
 15 16  1  0
 16 17  1  0
 16 18  1  0
 18 19  2  0
 19 20  1  0
 20 21  2  0
 21 22  1  0
 22 23  1  0
 22 24  2  0
 15 25  2  0
 25  2  1  0
 13  8  1  0
 24 18  1  0
  1 26  1  0
  1 27  1  0
  1 28  1  0
  3 29  1  0
  6 30  1  0
  6 31  1  0
  6 32  1  0
  7 33  1  0
  7 34  1  0
  9 35  1  0
 10 36  1  0
 11 37  1  0
 12 38  1  0
 13 39  1  0
 17 40  1  0
 17 41  1  0
 17 42  1  0
 19 43  1  0
 20 44  1  0
 21 45  1  0
 23 46  1  0
 24 47  1  0
M  END
>  <UniqueID>  (54) 
44

>  <SMILES>  (54) 
Cc1cc(N(C)Cc2ccccc2)nc(N(C)c2cccc(O)c2)n1

>  <Energy>  (54) 
52.8427409636808

>  <Genealogy>  (54) 
Cc1cc(N(C)Cc2ccccc2)nc(N(C)c2cccc(O)c2)n1 (3D coordinates assigned)
Cc1cc(N(C)Cc2ccccc2)nc(N(C)c2cccc(O)c2)n1 (optimized conformer: 52.8427409636808 kcal/mol)

>  <smiles>  (54) 
Cc1cc(N(C)Cc2ccccc2)nc(N(C)c2cccc(O)c2)n1

>  <score_type>  (54) 
oracle

>  <origin>  (54) 
adg

>  <m_score__min__energy>  (54) 
-9.0999999999999996

>  <m_primary>  (54) 
energy

$$$$
54:0
     RDKit          3D

 32 34  0  0  0  0  0  0  0  0999 V2000
   59.3270   34.8540   48.3460 H   0  0  0  0  0  0  0  0  0  0  0  0
   60.3180   34.6480   48.0870 N   0  0  0  0  0  0  0  0  0  0  0  0
   60.3520   34.3930   46.3770 S   0  0  0  0  0  0  0  0  0  0  0  0
   61.7440   33.9900   45.9780 O   0  0  0  0  0  0  0  0  0  0  0  0
   59.9770   35.6640   45.6700 O   0  0  0  0  0  0  0  0  0  0  0  0
   59.2120   33.1240   45.9440 C   0  0  0  0  0  0  0  0  0  0  0  0
   58.4430   33.2310   44.7770 C   0  0  0  0  0  0  0  0  0  0  0  0
   58.5561   34.1090   44.1240 H   0  0  0  0  0  0  0  0  0  0  0  0
   57.5330   32.2250   44.4410 C   0  0  0  0  0  0  0  0  0  0  0  0
   56.9210   32.3233   43.5323 H   0  0  0  0  0  0  0  0  0  0  0  0
   57.3950   31.0930   45.2530 C   0  0  0  0  0  0  0  0  0  0  0  0
   56.4260   30.0950   44.8980 N   0  0  0  0  0  0  0  0  0  0  0  0
   56.6570   28.8740   44.5060 C   0  0  0  0  0  0  0  0  0  0  0  0
   56.4926   28.6334   43.4453 H   0  0  0  0  0  0  0  0  0  0  0  0
   57.1260   27.7920   45.3970 C   0  0  0  0  0  0  0  0  0  0  0  0
   56.3710   26.8380   46.0750 C   0  0  0  0  0  0  0  0  0  0  0  0
   54.9900   26.7140   46.0000 O   0  0  0  0  0  0  0  0  0  0  0  0
   57.1340   26.0510   46.8690 N   0  0  0  0  0  0  0  0  0  0  0  0
   58.3820   26.5280   46.7030 C   0  0  0  0  0  0  0  0  0  0  0  0
   59.5400   26.0580   47.3200 C   0  0  0  0  0  0  0  0  0  0  0  0
   59.5055   25.2068   48.0159 H   0  0  0  0  0  0  0  0  0  0  0  0
   60.7550   26.7050   47.0260 C   0  0  0  0  0  0  0  0  0  0  0  0
   61.6866   26.3580   47.4969 H   0  0  0  0  0  0  0  0  0  0  0  0
   60.7860   27.7960   46.1310 C   0  0  0  0  0  0  0  0  0  0  0  0
   61.7415   28.2937   45.9091 H   0  0  0  0  0  0  0  0  0  0  0  0
   59.6030   28.2510   45.5210 C   0  0  0  0  0  0  0  0  0  0  0  0
   59.6145   29.1001   44.8218 H   0  0  0  0  0  0  0  0  0  0  0  0
   58.4150   27.5900   45.8320 C   0  0  0  0  0  0  0  0  0  0  0  0
   58.1340   31.0090   46.4460 C   0  0  0  0  0  0  0  0  0  0  0  0
   57.9951   30.1485   47.1170 H   0  0  0  0  0  0  0  0  0  0  0  0
   59.0450   32.0150   46.7830 C   0  0  0  0  0  0  0  0  0  0  0  0
   59.6322   31.9351   47.7097 H   0  0  0  0  0  0  0  0  0  0  0  0
  1  2  1  0
  2  3  1  0
  3  4  2  0
  3  5  2  0
  3  6  1  0
  6  7  2  0
  7  8  1  0
  7  9  1  0
  9 10  1  0
  9 11  2  0
 11 12  1  0
 12 13  2  0
 13 14  1  0
 13 15  1  0
 15 16  2  0
 16 17  1  0
 16 18  1  0
 18 19  1  0
 19 20  2  0
 20 21  1  0
 20 22  1  0
 22 23  1  0
 22 24  2  0
 24 25  1  0
 24 26  1  0
 26 27  1  0
 26 28  2  0
 11 29  1  0
 29 30  1  0
 29 31  2  0
 31 32  1  0
 31  6  1  0
 28 15  1  0
 28 19  1  0
M  CHG  3   2  -1  17  -1  18  -1
M  END
>  <UniqueID>  (55) 
45

>  <SMILES>  (55) 
[NH-]S(=O)(=O)c1ccc(/N=C\c2c([O-])[n-]c3ccccc23)cc1

>  <Energy>  (55) 
78.51639649088982

>  <Genealogy>  (55) 
[NH-]S(=O)(=O)c1ccc(N=Cc2c([O-])[n-]c3ccccc23)cc1 (protonated)
[NH-]S(=O)(=O)c1ccc(/N=C\c2c([O-])[n-]c3ccccc23)cc1 (cis-trans isomerization)
[NH-]S(=O)(=O)c1ccc(/N=C\c2c([O-])[n-]c3ccccc23)cc1 (3D coordinates assigned)
[NH-]S(=O)(=O)c1ccc(/N=C\c2c([O-])[n-]c3ccccc23)cc1 (optimized conformer: 78.51639649088982 kcal/mol)

>  <smiles>  (55) 
NS(=O)(=O)c1ccc(N=Cc2c(O)[nH]c3ccccc23)cc1

>  <score_type>  (55) 
oracle

>  <origin>  (55) 
adg

>  <m_score__min__energy>  (55) 
-13.66

>  <m_primary>  (55) 
energy

$$$$
55:0
     RDKit          3D

 60 61  0  0  0  0  0  0  0  0999 V2000
   63.5760   33.3290   46.9720 C   0  0  0  0  0  0  0  0  0  0  0  0
   62.1440   33.8270   47.1180 C   0  0  0  0  0  0  0  0  0  0  0  0
   61.2880   32.7410   47.6600 N   0  0  0  0  0  0  0  0  0  0  0  0
   60.5180   33.1600   48.8560 C   0  0  0  0  0  0  0  0  0  0  0  0
   59.9680   34.5770   48.7060 C   0  0  0  0  0  0  0  0  0  0  0  0
   62.0350   31.4880   47.9400 C   0  0  0  0  0  0  0  0  0  0  0  0
   61.0650   30.3000   47.9470 C   0  0  0  0  0  0  0  0  0  0  0  0
   60.6460   29.8960   46.5260 C   0  0  0  0  0  0  0  0  0  0  0  0
   59.5160   28.9390   46.5840 N   0  0  0  0  0  0  0  0  0  0  0  0
   59.5100   28.2100   47.8650 C   0  0  0  0  0  0  0  0  0  0  0  0
   59.5190   27.9990   45.4350 C   0  0  0  0  0  0  0  0  0  0  0  0
   58.4300   26.9620   45.6070 C   0  0  0  0  0  0  0  0  0  0  0  0
   58.7690   25.5980   45.6370 C   0  0  0  0  0  0  0  0  0  0  0  0
   57.7930   24.6250   45.8260 C   0  0  0  0  0  0  0  0  0  0  0  0
   56.4570   24.9930   45.9950 C   0  0  0  0  0  0  0  0  0  0  0  0
   55.4990   23.9960   46.1880 O   0  0  0  0  0  0  0  0  0  0  0  0
   56.0970   26.3500   45.9720 C   0  0  0  0  0  0  0  0  0  0  0  0
   54.7680   26.7100   46.1910 O   0  0  0  0  0  0  0  0  0  0  0  0
   57.0790   27.3420   45.7580 C   0  0  0  0  0  0  0  0  0  0  0  0
   56.7260   28.7360   45.7440 N   0  0  0  0  0  0  0  0  0  0  0  0
   56.2770   29.4580   44.5970 C   0  0  0  0  0  0  0  0  0  0  0  0
   55.0570   29.4380   44.2740 O   0  0  0  0  0  0  0  0  0  0  0  0
   57.2640   30.1730   43.7230 C   0  0  0  0  0  0  0  0  0  0  0  0
   57.7170   31.4650   44.3520 C   0  0  0  0  0  0  0  0  0  0  0  0
   58.0980   32.5530   43.5470 C   0  0  0  0  0  0  0  0  0  0  0  0
   58.5120   33.7550   44.1380 C   0  0  0  0  0  0  0  0  0  0  0  0
   58.5720   33.8740   45.5270 C   0  0  0  0  0  0  0  0  0  0  0  0
   58.9900   35.0330   46.0950 F   0  0  0  0  0  0  0  0  0  0  0  0
   58.1990   32.7960   46.3340 C   0  0  0  0  0  0  0  0  0  0  0  0
   57.7780   31.5930   45.7540 C   0  0  0  0  0  0  0  0  0  0  0  0
   64.0146   33.1765   47.9692 H   0  0  0  0  0  0  0  0  0  0  0  0
   63.5788   32.3771   46.4207 H   0  0  0  0  0  0  0  0  0  0  0  0
   64.1688   34.0738   46.4207 H   0  0  0  0  0  0  0  0  0  0  0  0
   62.1240   34.6856   47.8053 H   0  0  0  0  0  0  0  0  0  0  0  0
   61.7630   34.1330   46.1325 H   0  0  0  0  0  0  0  0  0  0  0  0
   59.6778   32.4649   49.0005 H   0  0  0  0  0  0  0  0  0  0  0  0
   61.1955   33.1451   49.7225 H   0  0  0  0  0  0  0  0  0  0  0  0
   59.7991   35.0121   49.7021 H   0  0  0  0  0  0  0  0  0  0  0  0
   60.6917   35.1947   48.1540 H   0  0  0  0  0  0  0  0  0  0  0  0
   59.0171   34.5447   48.1540 H   0  0  0  0  0  0  0  0  0  0  0  0
   62.7964   31.3341   47.1611 H   0  0  0  0  0  0  0  0  0  0  0  0
   62.5232   31.5662   48.9226 H   0  0  0  0  0  0  0  0  0  0  0  0
   61.5560   29.4426   48.4305 H   0  0  0  0  0  0  0  0  0  0  0  0
   60.1610   30.6006   48.4970 H   0  0  0  0  0  0  0  0  0  0  0  0
   60.3361   30.7924   45.9688 H   0  0  0  0  0  0  0  0  0  0  0  0
   61.4981   29.4186   46.0201 H   0  0  0  0  0  0  0  0  0  0  0  0
   59.5159   28.9300   48.6966 H   0  0  0  0  0  0  0  0  0  0  0  0
   58.6067   27.5854   47.9272 H   0  0  0  0  0  0  0  0  0  0  0  0
   60.4029   27.5706   47.9272 H   0  0  0  0  0  0  0  0  0  0  0  0
   59.3430   28.5603   44.5055 H   0  0  0  0  0  0  0  0  0  0  0  0
   60.4940   27.4920   45.3878 H   0  0  0  0  0  0  0  0  0  0  0  0
   59.8191   25.2964   45.5094 H   0  0  0  0  0  0  0  0  0  0  0  0
   58.0749   23.5619   45.8423 H   0  0  0  0  0  0  0  0  0  0  0  0
   54.5170   24.2060   46.3130 H   0  0  0  0  0  0  0  0  0  0  0  0
   58.1388   29.5249   43.5659 H   0  0  0  0  0  0  0  0  0  0  0  0
   56.7751   30.4057   42.7655 H   0  0  0  0  0  0  0  0  0  0  0  0
   58.0712   32.4609   42.4512 H   0  0  0  0  0  0  0  0  0  0  0  0
   58.7911   34.6090   43.5033 H   0  0  0  0  0  0  0  0  0  0  0  0
   58.2362   32.8927   47.4291 H   0  0  0  0  0  0  0  0  0  0  0  0
   57.4940   30.7452   46.3948 H   0  0  0  0  0  0  0  0  0  0  0  0
  1  2  1  0
  2  3  1  0
  3  4  1  0
  4  5  1  0
  3  6  1  0
  6  7  1  0
  7  8  1  0
  8  9  1  0
  9 10  1  0
  9 11  1  0
 11 12  1  0
 12 13  2  0
 13 14  1  0
 14 15  2  0
 15 16  1  0
 15 17  1  0
 17 18  1  0
 17 19  2  0
 19 20  1  0
 20 21  1  0
 21 22  2  0
 21 23  1  0
 23 24  1  0
 24 25  2  0
 25 26  1  0
 26 27  2  0
 27 28  1  0
 27 29  1  0
 29 30  2  0
 19 12  1  0
 30 24  1  0
  1 31  1  0
  1 32  1  0
  1 33  1  0
  2 34  1  0
  2 35  1  0
  4 36  1  0
  4 37  1  0
  5 38  1  0
  5 39  1  0
  5 40  1  0
  6 41  1  0
  6 42  1  0
  7 43  1  0
  7 44  1  0
  8 45  1  0
  8 46  1  0
 10 47  1  0
 10 48  1  0
 10 49  1  0
 11 50  1  0
 11 51  1  0
 13 52  1  0
 14 53  1  0
 16 54  1  0
 23 55  1  0
 23 56  1  0
 25 57  1  0
 26 58  1  0
 29 59  1  0
 30 60  1  0
M  CHG  2  18  -1  20  -1
M  END
>  <UniqueID>  (56) 
46

>  <SMILES>  (56) 
CCN(CC)CCCN(C)Cc1ccc(O)c([O-])c1[N-]C(=O)Cc1ccc(F)cc1

>  <Energy>  (56) 
62.8625433777905

>  <Genealogy>  (56) 
CCN(CC)CCCN(C)Cc1ccc(O)c([O-])c1[N-]C(=O)Cc1ccc(F)cc1 (protonated)
CCN(CC)CCCN(C)Cc1ccc(O)c([O-])c1[N-]C(=O)Cc1ccc(F)cc1 (3D coordinates assigned)
CCN(CC)CCCN(C)Cc1ccc(O)c([O-])c1[N-]C(=O)Cc1ccc(F)cc1 (optimized conformer: 62.8625433777905 kcal/mol)

>  <smiles>  (56) 
CCN(CC)CCCN(C)Cc1ccc(O)c(O)c1NC(=O)Cc1ccc(F)cc1

>  <score_type>  (56) 
oracle

>  <origin>  (56) 
adg

>  <m_score__min__energy>  (56) 
-13.59

>  <m_primary>  (56) 
energy

$$$$
56:0
     RDKit          3D

 64 69  0  0  1  0  0  0  0  0999 V2000
   54.8910   24.7190   45.4810 C   0  0  0  0  0  0  0  0  0  0  0  0
   56.1970   25.3070   45.5650 N   0  0  0  0  0  0  0  0  0  0  0  0
   56.3690   26.1600   46.7260 C   0  0  0  0  0  0  0  0  0  0  0  0
   57.7250   25.9120   47.3940 C   0  0  0  0  0  0  0  0  0  0  0  0
   58.7800   25.8220   46.4480 N   0  0  0  0  0  0  0  0  0  0  0  0
   60.0260   26.3700   46.7700 C   0  0  0  0  0  0  0  0  0  0  0  0
   60.1640   27.1500   47.9950 C   0  0  0  0  0  0  0  0  0  0  0  0
   60.7640   26.5750   49.1170 C   0  0  0  0  0  0  0  0  0  0  0  0
   60.8600   27.3460   50.2590 C   0  0  0  0  0  0  0  0  0  0  0  0
   60.3800   28.6340   50.2870 C   0  0  0  0  0  0  0  0  0  0  0  0
   59.7730   29.2270   49.1630 C   0  0  0  0  0  0  0  0  0  0  0  0
   61.0740   34.4440   47.9680 N   0  0  0  0  0  0  0  0  0  0  0  0
   60.2840   33.4580   47.6940 C   0  0  0  0  0  0  0  0  0  0  0  0
   58.6660   31.3490   47.2640 N   0  0  0  0  0  0  0  0  0  0  0  0
   58.7780   32.3230   46.3540 C   0  0  0  0  0  0  0  0  0  0  0  0
   59.3540   31.3960   48.4100 C   0  0  0  0  0  0  0  0  0  0  0  0
   57.3290   31.7160   44.4710 C   0  0  0  0  0  0  0  0  0  0  0  0
   57.5120   30.2700   44.4130 C   0  0  0  0  0  0  0  0  0  0  0  0
   58.7260   29.6910   44.1480 N   0  0  0  0  0  0  0  0  0  0  0  0
   58.5880   28.3500   44.1610 C   0  0  0  0  0  0  0  0  0  0  0  0
   59.5100   27.5330   43.9550 O   0  0  0  0  0  0  0  0  0  0  0  0
   57.2720   28.0890   44.4380 N   0  0  0  0  0  0  0  0  0  0  0  0
   56.6110   29.2530   44.5910 C   0  0  0  0  0  0  0  0  0  0  0  0
   55.2680   29.4430   44.8780 O   0  0  0  0  0  0  0  0  0  0  0  0
   58.6720   33.7000   44.5820 C   0  0  0  0  0  0  0  0  0  0  0  0
   59.5060   34.1930   45.4910 N   0  0  0  0  0  0  0  0  0  0  0  0
   59.5810   33.3850   46.5490 N   0  0  0  0  0  0  0  0  0  0  0  0
   58.1910   32.5140   45.0950 C   0  0  0  0  0  0  0  0  0  0  0  0
   59.3260   30.5470   49.3460 N   0  0  0  0  0  0  0  0  0  0  0  0
   62.4890   34.1410   48.0550 C   0  0  0  0  0  0  0  0  0  0  0  0
   62.8950   32.7500   47.6990 C   0  0  0  0  0  0  0  0  0  0  0  0
   63.1680   33.8780   46.7480 C   0  0  0  0  0  0  0  0  0  0  0  0
   60.1740   32.4810   48.6090 N   0  0  0  0  0  0  0  0  0  0  0  0
   59.6840   28.4680   48.0510 C   0  0  0  0  0  0  0  0  0  0  0  0
   58.6050   25.0030   45.3250 C   0  0  0  0  0  0  0  0  0  0  0  0
   57.2410   24.3190   45.4610 C   0  0  0  0  0  0  0  0  0  0  0  0
   54.5019   24.5438   46.4948 H   0  0  0  0  0  0  0  0  0  0  0  0
   54.2162   25.4002   44.9419 H   0  0  0  0  0  0  0  0  0  0  0  0
   54.9536   23.7622   44.9419 H   0  0  0  0  0  0  0  0  0  0  0  0
   56.3104   27.2123   46.4110 H   0  0  0  0  0  0  0  0  0  0  0  0
   55.5742   25.9296   47.4507 H   0  0  0  0  0  0  0  0  0  0  0  0
   57.9374   26.7422   48.0837 H   0  0  0  0  0  0  0  0  0  0  0  0
   57.6678   24.9524   47.9286 H   0  0  0  0  0  0  0  0  0  0  0  0
   60.7370   25.5335   46.8395 H   0  0  0  0  0  0  0  0  0  0  0  0
   60.2041   27.1040   45.9703 H   0  0  0  0  0  0  0  0  0  0  0  0
   61.1468   25.5441   49.0923 H   0  0  0  0  0  0  0  0  0  0  0  0
   61.3278   26.9229   51.1602 H   0  0  0  0  0  0  0  0  0  0  0  0
   60.4728   29.2184   51.2143 H   0  0  0  0  0  0  0  0  0  0  0  0
   56.4494   32.1610   43.9828 H   0  0  0  0  0  0  0  0  0  0  0  0
   59.6370   30.1690   43.9630 H   0  0  0  0  0  0  0  0  0  0  0  0
   56.8570   27.1160   44.5140 H   0  0  0  0  0  0  0  0  0  0  0  0
   54.7480   28.9670   45.6020 H   0  0  0  0  0  0  0  0  0  0  0  0
   58.4157   34.1494   43.6113 H   0  0  0  0  0  0  0  0  0  0  0  0
   62.6726   34.8010   48.9156 H   0  0  0  0  0  0  0  0  0  0  0  0
   63.7269   32.2664   48.2320 H   0  0  0  0  0  0  0  0  0  0  0  0
   62.3769   31.7821   47.6295 H   0  0  0  0  0  0  0  0  0  0  0  0
   64.1996   34.2228   46.5841 H   0  0  0  0  0  0  0  0  0  0  0  0
   62.9334   34.0820   45.6929 H   0  0  0  0  0  0  0  0  0  0  0  0
   60.7260   32.5560   49.4890 H   0  0  0  0  0  0  0  0  0  0  0  0
   59.2170   28.8989   47.1531 H   0  0  0  0  0  0  0  0  0  0  0  0
   58.6302   25.6115   44.4090 H   0  0  0  0  0  0  0  0  0  0  0  0
   59.4088   24.2547   45.2626 H   0  0  0  0  0  0  0  0  0  0  0  0
   57.0598   23.6906   44.5765 H   0  0  0  0  0  0  0  0  0  0  0  0
   57.2396   23.6984   46.3692 H   0  0  0  0  0  0  0  0  0  0  0  0
  1  2  1  0
  2  3  1  0
  3  4  1  0
  4  5  1  0
  5  6  1  0
  6  7  1  0
  7  8  2  0
  8  9  1  0
  9 10  2  0
 10 11  1  0
 11 12  1  0
 12 13  2  0
 13 14  1  0
 14 15  2  0
 15 16  1  0
 16 17  2  0
 17 18  1  0
 18 19  1  0
 19 20  1  0
 20 21  2  0
 20 22  1  0
 22 23  1  0
 23 24  1  0
 16 25  1  0
 25 26  2  0
 26 27  1  0
 27 28  1  0
 28 29  2  0
 29 30  1  0
 30 31  1  0
 31 32  1  0
 28 33  1  0
 11 34  2  0
  5 35  1  0
 35 36  1  0
 36  2  1  0
 34  7  1  0
 33 13  1  0
 27 15  1  0
 32 30  1  0
 23 18  2  0
  1 37  1  0
  1 38  1  0
  1 39  1  0
  3 40  1  0
  3 41  1  0
  4 42  1  0
  4 43  1  0
  6 44  1  0
  6 45  1  0
  8 46  1  0
  9 47  1  0
 10 48  1  0
 17 49  1  0
 19 50  1  0
 22 51  1  0
 24 52  1  0
 25 53  1  0
 30 54  1  0
 31 55  1  0
 31 56  1  0
 32 57  1  0
 32 58  1  0
 33 59  1  0
 34 60  1  0
 35 61  1  0
 35 62  1  0
 36 63  1  0
 36 64  1  0
M  END
>  <smiles>  (57) 
CN1CCN(Cc2cccc(N=c3nc4c(=Cc5[nH]c(=O)[nH]c5O)cnn4c(=NC4CC4)[nH]3)c2)CC1

>  <score_type>  (57) 
oracle

>  <origin>  (57) 
adg

>  <m_score__min__energy>  (57) 
-10.699999999999999

>  <m_primary>  (57) 
energy

$$$$
57:0
     RDKit          3D

 48 51  0  0  0  0  0  0  0  0999 V2000
   59.2650   25.1360   46.0010 C   0  0  0  0  0  0  0  0  0  0  0  0
   58.8830   26.5620   46.4240 C   0  0  1  0  0  0  0  0  0  0  0  0
   60.1030   27.4830   46.2580 C   0  0  0  0  0  0  0  0  0  0  0  0
   59.7320   28.9450   46.5170 C   0  0  1  0  0  0  0  0  0  0  0  0
   60.9340   29.7730   46.3530 N   0  0  0  0  0  0  0  0  0  0  0  0
   61.1920   30.9900   47.0800 C   0  0  0  0  0  0  0  0  0  0  0  0
   60.1640   31.7140   47.7190 C   0  0  0  0  0  0  0  0  0  0  0  0
   60.4580   32.8880   48.4200 C   0  0  0  0  0  0  0  0  0  0  0  0
   61.7740   33.3480   48.4980 C   0  0  0  0  0  0  0  0  0  0  0  0
   62.8000   32.6340   47.8780 C   0  0  0  0  0  0  0  0  0  0  0  0
   62.5120   31.4590   47.1770 C   0  0  0  0  0  0  0  0  0  0  0  0
   58.6380   29.3670   45.5600 C   0  0  0  0  0  0  0  0  0  0  0  0
   58.5040   30.7100   45.1590 C   0  0  0  0  0  0  0  0  0  0  0  0
   57.4880   31.0890   44.2800 C   0  0  0  0  0  0  0  0  0  0  0  0
   56.5850   30.1400   43.8060 C   0  0  0  0  0  0  0  0  0  0  0  0
   56.6720   28.8150   44.2350 C   0  0  0  0  0  0  0  0  0  0  0  0
   57.6760   28.4170   45.1450 C   0  0  0  0  0  0  0  0  0  0  0  0
   57.7110   27.0610   45.6630 N   0  0  0  0  0  0  0  0  0  0  0  0
   56.4880   26.2990   45.7100 C   0  0  0  0  0  0  0  0  0  0  0  0
   55.5420   26.7030   46.4380 O   0  0  0  0  0  0  0  0  0  0  0  0
   56.3430   25.0200   44.9620 C   0  0  0  0  0  0  0  0  0  0  0  0
   55.5520   23.9640   45.4690 C   0  0  0  0  0  0  0  0  0  0  0  0
   54.9330   24.0620   46.6700 F   0  0  0  0  0  0  0  0  0  0  0  0
   55.4160   22.7750   44.7460 C   0  0  0  0  0  0  0  0  0  0  0  0
   56.0610   22.6170   43.5190 C   0  0  0  0  0  0  0  0  0  0  0  0
   55.9200   21.4330   42.8060 O   0  0  0  0  0  0  0  0  0  0  0  0
   56.8500   23.6490   43.0100 C   0  0  0  0  0  0  0  0  0  0  0  0
   56.9940   24.8440   43.7220 C   0  0  0  0  0  0  0  0  0  0  0  0
   57.7490   25.8340   43.1820 F   0  0  0  0  0  0  0  0  0  0  0  0
   59.4301   24.5196   46.8970 H   0  0  0  0  0  0  0  0  0  0  0  0
   58.4517   24.7011   45.4015 H   0  0  0  0  0  0  0  0  0  0  0  0
   60.1868   25.1659   45.4015 H   0  0  0  0  0  0  0  0  0  0  0  0
   58.5849   26.5541   47.4828 H   0  0  0  0  0  0  0  0  0  0  0  0
   60.8822   27.1786   46.9723 H   0  0  0  0  0  0  0  0  0  0  0  0
   60.4684   27.3942   45.2243 H   0  0  0  0  0  0  0  0  0  0  0  0
   59.3527   29.0715   47.5418 H   0  0  0  0  0  0  0  0  0  0  0  0
   61.6920   29.4120   45.7280 H   0  0  0  0  0  0  0  0  0  0  0  0
   59.1261   31.3536   47.6658 H   0  0  0  0  0  0  0  0  0  0  0  0
   59.6503   33.4505   48.9112 H   0  0  0  0  0  0  0  0  0  0  0  0
   62.0018   34.2730   49.0480 H   0  0  0  0  0  0  0  0  0  0  0  0
   63.8368   32.9960   47.9408 H   0  0  0  0  0  0  0  0  0  0  0  0
   63.3268   30.8969   46.6972 H   0  0  0  0  0  0  0  0  0  0  0  0
   59.2053   31.4663   45.5413 H   0  0  0  0  0  0  0  0  0  0  0  0
   57.4003   32.1381   43.9613 H   0  0  0  0  0  0  0  0  0  0  0  0
   55.8020   30.4357   43.0922 H   0  0  0  0  0  0  0  0  0  0  0  0
   55.9513   28.0731   43.8606 H   0  0  0  0  0  0  0  0  0  0  0  0
   54.7967   21.9592   45.1470 H   0  0  0  0  0  0  0  0  0  0  0  0
   57.3611   23.5221   42.0443 H   0  0  0  0  0  0  0  0  0  0  0  0
  1  2  1  0
  2  3  1  0
  3  4  1  0
  4  5  1  0
  5  6  1  0
  6  7  2  0
  7  8  1  0
  8  9  2  0
  9 10  1  0
 10 11  2  0
  4 12  1  0
 12 13  2  0
 13 14  1  0
 14 15  2  0
 15 16  1  0
 16 17  2  0
 17 18  1  0
 18 19  1  0
 19 20  2  0
 19 21  1  0
 21 22  2  0
 22 23  1  0
 22 24  1  0
 24 25  2  0
 25 26  1  0
 25 27  1  0
 27 28  2  0
 28 29  1  0
 18  2  1  0
 28 21  1  0
 11  6  1  0
 17 12  1  0
  1 30  1  0
  1 31  1  0
  1 32  1  0
  2 33  1  1
  3 34  1  0
  3 35  1  0
  4 36  1  1
  5 37  1  0
  7 38  1  0
  8 39  1  0
  9 40  1  0
 10 41  1  0
 11 42  1  0
 13 43  1  0
 14 44  1  0
 15 45  1  0
 16 46  1  0
 24 47  1  0
 27 48  1  0
M  CHG  1  26  -1
M  END
>  <UniqueID>  (58) 
47

>  <SMILES>  (58) 
C[C@H]1C[C@@H](Nc2ccccc2)c2ccccc2N1C(=O)c1c(F)cc([O-])cc1F

>  <Energy>  (58) 
66.52975588764345

>  <Genealogy>  (58) 
CC1CC(Nc2ccccc2)c2ccccc2N1C(=O)c1c(F)cc([O-])cc1F (protonated)
C[C@H]1C[C@@H](Nc2ccccc2)c2ccccc2N1C(=O)c1c(F)cc([O-])cc1F (chirality)
C[C@H]1C[C@@H](Nc2ccccc2)c2ccccc2N1C(=O)c1c(F)cc([O-])cc1F (3D coordinates assigned)
C[C@H]1C[C@@H](Nc2ccccc2)c2ccccc2N1C(=O)c1c(F)cc([O-])cc1F (nonaromatic ring conformer: 66.52975588764345 kcal/mol)

>  <smiles>  (58) 
CC1CC(Nc2ccccc2)c2ccccc2N1C(=O)c1c(F)cc(O)cc1F

>  <score_type>  (58) 
oracle

>  <origin>  (58) 
adg

>  <m_score__min__energy>  (58) 
-10.119999999999999

>  <m_primary>  (58) 
energy

$$$$
58:0
     RDKit          3D

 40 42  0  0  0  0  0  0  0  0999 V2000
   61.3740   32.3410   47.0640 C   0  0  0  0  0  0  0  0  0  0  0  0
   60.7250   31.0190   47.3250 C   0  0  0  0  0  0  0  0  0  0  0  0
   61.1180   30.2380   48.4180 C   0  0  0  0  0  0  0  0  0  0  0  0
   60.4760   29.0220   48.6540 C   0  0  0  0  0  0  0  0  0  0  0  0
   59.4530   28.5980   47.8040 C   0  0  0  0  0  0  0  0  0  0  0  0
   59.0910   29.3960   46.7080 C   0  0  0  0  0  0  0  0  0  0  0  0
   57.9830   28.9840   45.8180 C   0  0  0  0  0  0  0  0  0  0  0  0
   57.8700   29.4190   44.5940 N   0  0  0  0  0  0  0  0  0  0  0  0
   56.9640   30.7940   44.0410 S   0  0  0  0  0  0  0  0  0  0  0  0
   57.0260   30.8900   42.5430 O   0  0  0  0  0  0  0  0  0  0  0  0
   55.5340   30.6700   44.4910 O   0  0  0  0  0  0  0  0  0  0  0  0
   57.6730   32.2450   44.7420 C   0  0  0  0  0  0  0  0  0  0  0  0
   57.4420   32.5750   46.0870 C   0  0  0  0  0  0  0  0  0  0  0  0
   58.0110   33.7300   46.6340 C   0  0  0  0  0  0  0  0  0  0  0  0
   58.8050   34.5640   45.8390 C   0  0  0  0  0  0  0  0  0  0  0  0
   59.0330   34.2420   44.4950 C   0  0  0  0  0  0  0  0  0  0  0  0
   58.4680   33.0870   43.9470 C   0  0  0  0  0  0  0  0  0  0  0  0
   57.0140   28.0560   46.3450 N   0  0  0  0  0  0  0  0  0  0  0  0
   56.6900   26.8850   45.8730 C   0  0  0  0  0  0  0  0  0  0  0  0
   57.6300   26.1650   45.1270 C   0  0  0  0  0  0  0  0  0  0  0  0
   57.2930   24.9060   44.6240 C   0  0  0  0  0  0  0  0  0  0  0  0
   56.0220   24.3800   44.8620 C   0  0  0  0  0  0  0  0  0  0  0  0
   55.1080   25.1210   45.6130 C   0  0  0  0  0  0  0  0  0  0  0  0
   55.4580   26.3420   46.0980 N   0  0  0  0  0  0  0  0  0  0  0  0
   59.7230   30.5860   46.5140 N   0  0  0  0  0  0  0  0  0  0  0  0
   61.6129   32.8275   48.0212 H   0  0  0  0  0  0  0  0  0  0  0  0
   62.2995   32.1881   46.4894 H   0  0  0  0  0  0  0  0  0  0  0  0
   60.6870   32.9797   46.4894 H   0  0  0  0  0  0  0  0  0  0  0  0
   61.9244   30.5793   49.0838 H   0  0  0  0  0  0  0  0  0  0  0  0
   60.7756   28.3980   49.5089 H   0  0  0  0  0  0  0  0  0  0  0  0
   58.9349   27.6460   47.9919 H   0  0  0  0  0  0  0  0  0  0  0  0
   56.8125   31.9242   46.7117 H   0  0  0  0  0  0  0  0  0  0  0  0
   57.8341   33.9828   47.6898 H   0  0  0  0  0  0  0  0  0  0  0  0
   59.2503   35.4729   46.2697 H   0  0  0  0  0  0  0  0  0  0  0  0
   59.6569   34.8984   43.8706 H   0  0  0  0  0  0  0  0  0  0  0  0
   58.6463   32.8368   42.8908 H   0  0  0  0  0  0  0  0  0  0  0  0
   58.6278   26.5877   44.9379 H   0  0  0  0  0  0  0  0  0  0  0  0
   58.0276   24.3304   44.0417 H   0  0  0  0  0  0  0  0  0  0  0  0
   55.7441   23.3935   44.4625 H   0  0  0  0  0  0  0  0  0  0  0  0
   54.1045   24.7170   45.8124 H   0  0  0  0  0  0  0  0  0  0  0  0
  1  2  1  0
  2  3  2  0
  3  4  1  0
  4  5  2  0
  5  6  1  0
  6  7  1  0
  7  8  2  3
  8  9  1  0
  9 10  2  0
  9 11  2  0
  9 12  1  0
 12 13  2  0
 13 14  1  0
 14 15  2  0
 15 16  1  0
 16 17  2  0
  7 18  1  0
 18 19  2  3
 19 20  1  0
 20 21  2  0
 21 22  1  0
 22 23  2  0
 23 24  1  0
  6 25  2  0
 25  2  1  0
 17 12  1  0
 24 19  1  0
  1 26  1  0
  1 27  1  0
  1 28  1  0
  3 29  1  0
  4 30  1  0
  5 31  1  0
 13 32  1  0
 14 33  1  0
 15 34  1  0
 16 35  1  0
 17 36  1  0
 20 37  1  0
 21 38  1  0
 22 39  1  0
 23 40  1  0
M  CHG  1  24  -1
M  END
>  <UniqueID>  (59) 
48

>  <SMILES>  (59) 
Cc1cccc(C(=NS(=O)(=O)c2ccccc2)N=c2cccc[n-]2)n1

>  <Energy>  (59) 
54.38953371112237

>  <Genealogy>  (59) 
Cc1cccc(C(=NS(=O)(=O)c2ccccc2)N=c2cccc[n-]2)n1 (protonated)
Cc1cccc(C(=NS(=O)(=O)c2ccccc2)N=c2cccc[n-]2)n1 (3D coordinates assigned)
Cc1cccc(C(=NS(=O)(=O)c2ccccc2)N=c2cccc[n-]2)n1 (optimized conformer: 54.38953371112237 kcal/mol)

>  <smiles>  (59) 
Cc1cccc(C(=NS(=O)(=O)c2ccccc2)N=c2cccc[nH]2)n1

>  <score_type>  (59) 
oracle

>  <origin>  (59) 
adg

>  <m_score__min__energy>  (59) 
-10.56

>  <m_primary>  (59) 
energy

$$$$
59:0
     RDKit          3D

 50 53  0  0  0  0  0  0  0  0999 V2000
   61.3610   34.9580   48.9790 O   0  0  0  0  0  0  0  0  0  0  0  0
   60.6320   33.9360   48.8580 C   0  0  0  0  0  0  0  0  0  0  0  0
   60.4400   33.0620   49.9820 N   0  0  0  0  0  0  0  0  0  0  0  0
   61.2780   33.1310   51.1770 C   0  0  0  0  0  0  0  0  0  0  0  0
   62.7320   33.0880   50.7930 C   0  0  0  0  0  0  0  0  0  0  0  0
   63.1770   32.2330   49.7700 C   0  0  0  0  0  0  0  0  0  0  0  0
   64.5340   32.1770   49.4380 C   0  0  0  0  0  0  0  0  0  0  0  0
   65.4580   32.9710   50.1280 C   0  0  0  0  0  0  0  0  0  0  0  0
   66.7750   32.9150   49.8030 F   0  0  0  0  0  0  0  0  0  0  0  0
   65.0230   33.8190   51.1510 C   0  0  0  0  0  0  0  0  0  0  0  0
   63.6660   33.8750   51.4870 C   0  0  0  0  0  0  0  0  0  0  0  0
   59.9570   33.6730   47.5650 C   0  0  0  0  0  0  0  0  0  0  0  0
   59.9880   34.6540   46.5610 C   0  0  0  0  0  0  0  0  0  0  0  0
   59.3770   34.4430   45.3670 N   0  0  0  0  0  0  0  0  0  0  0  0
   58.7190   33.2880   45.0890 C   0  0  0  0  0  0  0  0  0  0  0  0
   58.1040   33.1200   43.8440 C   0  0  0  0  0  0  0  0  0  0  0  0
   57.4310   31.9310   43.5490 C   0  0  0  0  0  0  0  0  0  0  0  0
   57.3680   30.9000   44.4970 C   0  0  0  0  0  0  0  0  0  0  0  0
   56.5100   29.4020   44.1450 S   0  0  0  0  0  0  0  0  0  0  0  0
   56.2540   29.3320   42.6650 O   0  0  0  0  0  0  0  0  0  0  0  0
   55.1940   29.3730   44.8720 O   0  0  0  0  0  0  0  0  0  0  0  0
   57.4880   28.0440   44.6460 N   0  0  0  0  0  0  0  0  0  0  0  0
   58.8690   28.1530   44.1220 C   0  0  0  0  0  0  0  0  0  0  0  0
   59.8810   28.5250   45.2210 C   0  0  0  0  0  0  0  0  0  0  0  0
   59.9030   27.5930   46.2930 O   0  0  0  0  0  0  0  0  0  0  0  0
   58.6230   27.0620   46.6180 C   0  0  0  0  0  0  0  0  0  0  0  0
   57.4370   27.9020   46.1130 C   0  0  0  0  0  0  0  0  0  0  0  0
   57.9850   31.0630   45.7450 C   0  0  0  0  0  0  0  0  0  0  0  0
   58.6650   32.2570   46.0540 C   0  0  0  0  0  0  0  0  0  0  0  0
   59.3030   32.4500   47.2960 C   0  0  0  0  0  0  0  0  0  0  0  0
   59.3110   31.5240   48.1520 O   0  0  0  0  0  0  0  0  0  0  0  0
   59.6520   32.3770   49.9730 H   0  0  0  0  0  0  0  0  0  0  0  0
   61.0709   34.0692   51.7127 H   0  0  0  0  0  0  0  0  0  0  0  0
   61.0516   32.2716   51.8252 H   0  0  0  0  0  0  0  0  0  0  0  0
   62.4544   31.6051   49.2282 H   0  0  0  0  0  0  0  0  0  0  0  0
   64.8760   31.5086   48.6341 H   0  0  0  0  0  0  0  0  0  0  0  0
   65.7489   34.4432   51.6926 H   0  0  0  0  0  0  0  0  0  0  0  0
   63.3292   34.5378   52.2977 H   0  0  0  0  0  0  0  0  0  0  0  0
   60.5127   35.6034   46.7436 H   0  0  0  0  0  0  0  0  0  0  0  0
   58.1501   33.9250   43.0958 H   0  0  0  0  0  0  0  0  0  0  0  0
   56.9486   31.8036   42.5687 H   0  0  0  0  0  0  0  0  0  0  0  0
   59.1596   27.1859   43.6857 H   0  0  0  0  0  0  0  0  0  0  0  0
   58.8813   28.9530   43.3671 H   0  0  0  0  0  0  0  0  0  0  0  0
   60.8848   28.5682   44.7733 H   0  0  0  0  0  0  0  0  0  0  0  0
   59.5745   29.4967   45.6356 H   0  0  0  0  0  0  0  0  0  0  0  0
   58.5454   26.0576   46.1763 H   0  0  0  0  0  0  0  0  0  0  0  0
   58.5566   27.0552   47.7160 H   0  0  0  0  0  0  0  0  0  0  0  0
   56.4967   27.4061   46.3956 H   0  0  0  0  0  0  0  0  0  0  0  0
   57.4919   28.9020   46.5679 H   0  0  0  0  0  0  0  0  0  0  0  0
   57.9378   30.2531   46.4879 H   0  0  0  0  0  0  0  0  0  0  0  0
  1  2  2  0
  2  3  1  0
  3  4  1  0
  4  5  1  0
  5  6  2  0
  6  7  1  0
  7  8  2  0
  8  9  1  0
  8 10  1  0
 10 11  2  0
  2 12  1  0
 12 13  2  0
 13 14  1  0
 14 15  1  0
 15 16  2  0
 16 17  1  0
 17 18  2  0
 18 19  1  0
 19 20  2  0
 19 21  2  0
 19 22  1  0
 22 23  1  0
 23 24  1  0
 24 25  1  0
 25 26  1  0
 26 27  1  0
 18 28  1  0
 28 29  2  0
 29 30  1  0
 30 31  2  0
 11  5  1  0
 30 12  1  0
 29 15  1  0
 27 22  1  0
  3 32  1  0
  4 33  1  0
  4 34  1  0
  6 35  1  0
  7 36  1  0
 10 37  1  0
 11 38  1  0
 13 39  1  0
 16 40  1  0
 17 41  1  0
 23 42  1  0
 23 43  1  0
 24 44  1  0
 24 45  1  0
 26 46  1  0
 26 47  1  0
 27 48  1  0
 27 49  1  0
 28 50  1  0
M  CHG  1  14  -1
M  END
>  <UniqueID>  (60) 
49

>  <SMILES>  (60) 
O=C(NCc1ccc(F)cc1)c1c[n-]c2ccc(S(=O)(=O)N3CCOCC3)cc2c1=O

>  <Energy>  (60) 
72.41224602793736

>  <Genealogy>  (60) 
O=C(NCc1ccc(F)cc1)c1c[n-]c2ccc(S(=O)(=O)N3CCOCC3)cc2c1=O (protonated)
O=C(NCc1ccc(F)cc1)c1c[n-]c2ccc(S(=O)(=O)N3CCOCC3)cc2c1=O (3D coordinates assigned)
O=C(NCc1ccc(F)cc1)c1c[n-]c2ccc(S(=O)(=O)N3CCOCC3)cc2c1=O (nonaromatic ring conformer: 72.41224602793736 kcal/mol)

>  <smiles>  (60) 
O=C(NCc1ccc(F)cc1)c1c[nH]c2ccc(S(=O)(=O)N3CCOCC3)cc2c1=O

>  <score_type>  (60) 
oracle

>  <origin>  (60) 
adg

>  <m_score__min__energy>  (60) 
-10.699999999999999

>  <m_primary>  (60) 
energy

$$$$
60:0
     RDKit          3D

 39 41  0  0  0  0  0  0  0  0999 V2000
   65.3410   32.5840   49.9770 C   0  0  0  0  0  0  0  0  0  0  0  0
   64.4210   31.6410   49.4370 O   0  0  0  0  0  0  0  0  0  0  0  0
   63.3230   32.0180   48.6590 C   0  0  0  0  0  0  0  0  0  0  0  0
   63.4150   33.1310   47.8270 C   0  0  0  0  0  0  0  0  0  0  0  0
   62.3170   33.4970   47.0550 C   0  0  0  0  0  0  0  0  0  0  0  0
   61.1380   32.7410   47.1280 C   0  0  0  0  0  0  0  0  0  0  0  0
   59.9520   33.1020   46.3100 C   0  0  0  0  0  0  0  0  0  0  0  0
   59.8810   34.3500   45.6640 C   0  0  0  0  0  0  0  0  0  0  0  0
   58.7620   34.6850   44.8990 C   0  0  0  0  0  0  0  0  0  0  0  0
   57.7050   33.7840   44.7690 C   0  0  0  0  0  0  0  0  0  0  0  0
   57.7540   32.5380   45.4030 C   0  0  0  0  0  0  0  0  0  0  0  0
   56.6450   31.6430   45.2410 N   0  0  0  0  0  0  0  0  0  0  0  0
   56.6490   30.2080   44.2670 S   0  0  0  0  0  0  0  0  0  0  0  0
   57.0190   30.5690   42.8560 O   0  0  0  0  0  0  0  0  0  0  0  0
   55.2840   29.5780   44.2990 O   0  0  0  0  0  0  0  0  0  0  0  0
   57.8260   29.0540   44.8920 C   0  0  0  0  0  0  0  0  0  0  0  0
   59.2020   29.3100   44.7840 C   0  0  0  0  0  0  0  0  0  0  0  0
   60.1310   28.3920   45.2840 C   0  0  0  0  0  0  0  0  0  0  0  0
   59.6910   27.2150   45.8960 C   0  0  0  0  0  0  0  0  0  0  0  0
   60.5930   26.3260   46.3810 F   0  0  0  0  0  0  0  0  0  0  0  0
   58.3230   26.9550   46.0100 C   0  0  0  0  0  0  0  0  0  0  0  0
   57.3900   27.8700   45.5120 C   0  0  0  0  0  0  0  0  0  0  0  0
   56.0660   27.6030   45.6350 F   0  0  0  0  0  0  0  0  0  0  0  0
   58.8820   32.2000   46.1740 C   0  0  0  0  0  0  0  0  0  0  0  0
   61.1020   31.6590   47.9610 N   0  0  0  0  0  0  0  0  0  0  0  0
   62.1590   31.3140   48.7000 N   0  0  0  0  0  0  0  0  0  0  0  0
   65.3033   32.5453   51.0757 H   0  0  0  0  0  0  0  0  0  0  0  0
   66.3581   32.3404   49.6363 H   0  0  0  0  0  0  0  0  0  0  0  0
   65.0724   33.5948   49.6363 H   0  0  0  0  0  0  0  0  0  0  0  0
   64.3462   33.7147   47.7807 H   0  0  0  0  0  0  0  0  0  0  0  0
   62.3732   34.3730   46.3921 H   0  0  0  0  0  0  0  0  0  0  0  0
   60.7110   35.0651   45.7621 H   0  0  0  0  0  0  0  0  0  0  0  0
   58.7138   35.6627   44.3972 H   0  0  0  0  0  0  0  0  0  0  0  0
   56.8272   34.0551   44.1640 H   0  0  0  0  0  0  0  0  0  0  0  0
   59.5509   30.2363   44.3042 H   0  0  0  0  0  0  0  0  0  0  0  0
   61.2082   28.5963   45.1956 H   0  0  0  0  0  0  0  0  0  0  0  0
   57.9790   26.0283   46.4926 H   0  0  0  0  0  0  0  0  0  0  0  0
   58.9269   31.2215   46.6746 H   0  0  0  0  0  0  0  0  0  0  0  0
   60.2310   31.0900   48.0520 H   0  0  0  0  0  0  0  0  0  0  0  0
  1  2  1  0
  2  3  1  0
  3  4  2  0
  4  5  1  0
  5  6  2  0
  6  7  1  0
  7  8  2  0
  8  9  1  0
  9 10  2  0
 10 11  1  0
 11 12  1  0
 12 13  1  0
 13 14  2  0
 13 15  2  0
 13 16  1  0
 16 17  2  0
 17 18  1  0
 18 19  2  0
 19 20  1  0
 19 21  1  0
 21 22  2  0
 22 23  1  0
 11 24  2  0
  6 25  1  0
 25 26  2  0
 26  3  1  0
 24  7  1  0
 22 16  1  0
  1 27  1  0
  1 28  1  0
  1 29  1  0
  4 30  1  0
  5 31  1  0
  8 32  1  0
  9 33  1  0
 10 34  1  0
 17 35  1  0
 18 36  1  0
 21 37  1  0
 24 38  1  0
 25 39  1  0
M  CHG  2  12  -1  25   1
M  END
>  <UniqueID>  (61) 
50

>  <SMILES>  (61) 
COc1ccc(-c2cccc([N-]S(=O)(=O)c3ccc(F)cc3F)c2)[nH+]n1

>  <Energy>  (61) 
49.601988758593215

>  <Genealogy>  (61) 
COc1ccc(-c2cccc([N-]S(=O)(=O)c3ccc(F)cc3F)c2)[nH+]n1 (protonated)
COc1ccc(-c2cccc([N-]S(=O)(=O)c3ccc(F)cc3F)c2)[nH+]n1 (3D coordinates assigned)
COc1ccc(-c2cccc([N-]S(=O)(=O)c3ccc(F)cc3F)c2)[nH+]n1 (optimized conformer: 49.601988758593215 kcal/mol)

>  <smiles>  (61) 
COc1ccc(-c2cccc(NS(=O)(=O)c3ccc(F)cc3F)c2)nn1

>  <score_type>  (61) 
oracle

>  <origin>  (61) 
adg

>  <m_score__min__energy>  (61) 
-8.8800000000000008

>  <m_primary>  (61) 
energy

$$$$
61:0
     RDKit          3D

 35 37  0  0  1  0  0  0  0  0999 V2000
   59.9290   28.1220   45.1110 C   0  0  0  0  0  0  0  0  0  0  0  0
   58.6900   27.5910   44.4760 C   0  0  1  0  0  0  0  0  0  0  0  0
   58.8960   27.4700   43.1190 O   0  0  0  0  0  0  0  0  0  0  0  0
   58.4390   26.2300   45.1120 C   0  0  1  0  0  0  0  0  0  0  0  0
   59.5440   25.7210   45.7520 O   0  0  0  0  0  0  0  0  0  0  0  0
   57.4110   26.5740   46.1670 C   0  0  2  0  0  0  0  0  0  0  0  0
   56.1340   25.8380   45.8430 C   0  0  0  0  0  0  0  0  0  0  0  0
   55.0080   26.6180   46.0060 O   0  0  0  0  0  0  0  0  0  0  0  0
   57.2500   27.9530   46.1740 O   0  0  0  0  0  0  0  0  0  0  0  0
   57.4170   28.2750   44.8510 C   0  0  1  0  0  0  0  0  0  0  0  0
   57.3650   29.6730   44.5610 N   0  0  0  0  0  0  0  0  0  0  0  0
   56.9490   30.2430   43.3900 C   0  0  0  0  0  0  0  0  0  0  0  0
   57.0270   31.5620   43.4530 N   0  0  0  0  0  0  0  0  0  0  0  0
   57.4970   31.8580   44.6750 C   0  0  0  0  0  0  0  0  0  0  0  0
   57.7490   33.1070   45.2090 C   0  0  0  0  0  0  0  0  0  0  0  0
   57.5510   34.2070   44.5600 N   0  0  0  0  0  0  0  0  0  0  0  0
   58.2270   33.1160   46.4830 N   0  0  0  0  0  0  0  0  0  0  0  0
   58.4350   31.9730   47.1620 C   0  0  0  0  0  0  0  0  0  0  0  0
   58.9140   32.0670   48.4320 F   0  0  0  0  0  0  0  0  0  0  0  0
   58.1910   30.7540   46.6460 N   0  0  0  0  0  0  0  0  0  0  0  0
   57.7180   30.6990   45.3900 C   0  0  0  0  0  0  0  0  0  0  0  0
   59.8277   28.0786   46.2055 H   0  0  0  0  0  0  0  0  0  0  0  0
   60.7908   27.5142   44.7982 H   0  0  0  0  0  0  0  0  0  0  0  0
   60.0832   29.1652   44.7982 H   0  0  0  0  0  0  0  0  0  0  0  0
   58.6290   28.3150   42.6760 H   0  0  0  0  0  0  0  0  0  0  0  0
   58.1491   25.4770   44.3643 H   0  0  0  0  0  0  0  0  0  0  0  0
   59.7000   26.1280   46.6490 H   0  0  0  0  0  0  0  0  0  0  0  0
   57.7250   26.2650   47.1749 H   0  0  0  0  0  0  0  0  0  0  0  0
   56.1790   25.5011   44.7968 H   0  0  0  0  0  0  0  0  0  0  0  0
   56.0539   24.9929   46.5425 H   0  0  0  0  0  0  0  0  0  0  0  0
   55.1570   27.4900   45.5570 H   0  0  0  0  0  0  0  0  0  0  0  0
   56.5755   27.9289   44.2328 H   0  0  0  0  0  0  0  0  0  0  0  0
   56.5967   29.6802   42.5130 H   0  0  0  0  0  0  0  0  0  0  0  0
   56.9240   34.1400   43.7270 H   0  0  0  0  0  0  0  0  0  0  0  0
   58.4230   34.0490   46.9030 H   0  0  0  0  0  0  0  0  0  0  0  0
  1  2  1  0
  2  3  1  6
  2  4  1  0
  4  5  1  0
  4  6  1  0
  6  7  1  0
  7  8  1  0
  6  9  1  0
  9 10  1  0
 10 11  1  0
 11 12  1  0
 12 13  2  0
 13 14  1  0
 14 15  1  0
 15 16  2  3
 15 17  1  0
 17 18  1  0
 18 19  1  0
 18 20  2  0
 20 21  1  0
 10  2  1  0
 21 11  1  0
 21 14  2  0
  1 22  1  0
  1 23  1  0
  1 24  1  0
  3 25  1  0
  4 26  1  6
  5 27  1  0
  6 28  1  1
  7 29  1  0
  7 30  1  0
  8 31  1  0
 10 32  1  6
 12 33  1  0
 16 34  1  0
 17 35  1  0
M  END
>  <smiles>  (62) 
CC1(O)C(O)C(CO)OC1n1cnc2c(=N)[nH]c(F)nc21

>  <score_type>  (62) 
oracle

>  <origin>  (62) 
adg

>  <m_score__min__energy>  (62) 
-6.21

>  <m_primary>  (62) 
energy

$$$$
62:0
     RDKit          3D

 58 62  0  0  0  0  0  0  0  0999 V2000
   57.6410   27.5690   46.5160 C   0  0  0  0  0  0  0  0  0  0  0  0
   58.8550   28.4470   46.6970 C   0  0  0  0  0  0  0  0  0  0  0  0
   59.6670   28.6680   45.5690 C   0  0  0  0  0  0  0  0  0  0  0  0
   60.7710   29.5130   45.6380 C   0  0  0  0  0  0  0  0  0  0  0  0
   61.0690   30.1430   46.8400 C   0  0  0  0  0  0  0  0  0  0  0  0
   60.2970   29.9190   47.9320 N   0  0  0  0  0  0  0  0  0  0  0  0
   59.2150   29.0920   47.9240 C   0  0  0  0  0  0  0  0  0  0  0  0
   58.5760   28.9560   49.0540 N   0  0  0  0  0  0  0  0  0  0  0  0
   58.5280   29.8290   50.1830 C   0  0  0  0  0  0  0  0  0  0  0  0
   57.8770   29.4830   51.2050 O   0  0  0  0  0  0  0  0  0  0  0  0
   59.1790   31.1070   50.1260 N   0  0  0  0  0  0  0  0  0  0  0  0
   59.0850   32.0830   51.1740 C   0  0  0  0  0  0  0  0  0  0  0  0
   57.9020   32.1710   51.9210 C   0  0  0  0  0  0  0  0  0  0  0  0
   57.7790   33.1140   52.9440 C   0  0  0  0  0  0  0  0  0  0  0  0
   58.8410   33.9740   53.2300 C   0  0  0  0  0  0  0  0  0  0  0  0
   60.0350   33.8780   52.5130 C   0  0  0  0  0  0  0  0  0  0  0  0
   60.1810   32.9080   51.5020 C   0  0  0  0  0  0  0  0  0  0  0  0
   61.3800   32.7540   50.7900 O   0  0  0  0  0  0  0  0  0  0  0  0
   61.5510   32.9060   49.4060 C   0  0  0  0  0  0  0  0  0  0  0  0
   60.4920   33.1940   48.6040 N   0  0  0  0  0  0  0  0  0  0  0  0
   60.6230   33.3540   47.2610 C   0  0  0  0  0  0  0  0  0  0  0  0
   59.4190   33.6640   46.4480 C   0  0  0  0  0  0  0  0  0  0  0  0
   58.1880   33.0150   46.6670 C   0  0  0  0  0  0  0  0  0  0  0  0
   57.0750   33.3380   45.8890 C   0  0  0  0  0  0  0  0  0  0  0  0
   57.1910   34.3140   44.9010 C   0  0  0  0  0  0  0  0  0  0  0  0
   58.3770   34.9450   44.7040 N   0  0  0  0  0  0  0  0  0  0  0  0
   59.4780   34.6490   45.4470 C   0  0  0  0  0  0  0  0  0  0  0  0
   61.8980   33.2400   46.6910 C   0  0  0  0  0  0  0  0  0  0  0  0
   62.9860   32.9590   47.5190 C   0  0  0  0  0  0  0  0  0  0  0  0
   64.1380   32.8670   47.0120 O   0  0  0  0  0  0  0  0  0  0  0  0
   62.8040   32.8010   48.8660 N   0  0  0  0  0  0  0  0  0  0  0  0
   63.9240   32.5250   49.7260 C   0  0  0  0  0  0  0  0  0  0  0  0
   65.0010   33.4240   49.7730 C   0  0  0  0  0  0  0  0  0  0  0  0
   66.1110   33.1510   50.5770 C   0  0  0  0  0  0  0  0  0  0  0  0
   66.1530   31.9810   51.3400 C   0  0  0  0  0  0  0  0  0  0  0  0
   65.0820   31.0830   51.3030 C   0  0  0  0  0  0  0  0  0  0  0  0
   63.9670   31.3480   50.4990 C   0  0  0  0  0  0  0  0  0  0  0  0
   62.6380   30.1980   50.4780 Cl  0  0  0  0  0  0  0  0  0  0  0  0
   57.2453   27.2828   47.5016 H   0  0  0  0  0  0  0  0  0  0  0  0
   56.8701   28.1199   45.9572 H   0  0  0  0  0  0  0  0  0  0  0  0
   57.9228   26.6644   45.9572 H   0  0  0  0  0  0  0  0  0  0  0  0
   59.4260   28.1663   44.6202 H   0  0  0  0  0  0  0  0  0  0  0  0
   61.4001   29.6800   44.7513 H   0  0  0  0  0  0  0  0  0  0  0  0
   61.9309   30.8233   46.9057 H   0  0  0  0  0  0  0  0  0  0  0  0
   59.8680   31.2700   49.3570 H   0  0  0  0  0  0  0  0  0  0  0  0
   57.0648   31.4927   51.6999 H   0  0  0  0  0  0  0  0  0  0  0  0
   56.8464   33.1790   53.5237 H   0  0  0  0  0  0  0  0  0  0  0  0
   58.7366   34.7295   54.0227 H   0  0  0  0  0  0  0  0  0  0  0  0
   60.8656   34.5630   52.7386 H   0  0  0  0  0  0  0  0  0  0  0  0
   58.1036   32.2510   47.4539 H   0  0  0  0  0  0  0  0  0  0  0  0
   56.1151   32.8268   46.0542 H   0  0  0  0  0  0  0  0  0  0  0  0
   56.3208   34.5734   44.2801 H   0  0  0  0  0  0  0  0  0  0  0  0
   60.4210   35.1845   45.2629 H   0  0  0  0  0  0  0  0  0  0  0  0
   62.0393   33.3699   45.6079 H   0  0  0  0  0  0  0  0  0  0  0  0
   64.9712   34.3467   49.1749 H   0  0  0  0  0  0  0  0  0  0  0  0
   66.9529   33.8582   50.6093 H   0  0  0  0  0  0  0  0  0  0  0  0
   67.0289   31.7665   51.9699 H   0  0  0  0  0  0  0  0  0  0  0  0
   65.1156   30.1649   51.9079 H   0  0  0  0  0  0  0  0  0  0  0  0
  1  2  1  0
  2  3  2  0
  3  4  1  0
  4  5  2  0
  5  6  1  0
  6  7  1  0
  7  8  2  3
  8  9  1  0
  9 10  2  0
  9 11  1  0
 11 12  1  0
 12 13  2  0
 13 14  1  0
 14 15  2  0
 15 16  1  0
 16 17  2  0
 17 18  1  0
 18 19  1  0
 19 20  2  0
 20 21  1  0
 21 22  1  0
 22 23  2  0
 23 24  1  0
 24 25  2  0
 25 26  1  0
 26 27  2  0
 21 28  2  0
 28 29  1  0
 29 30  2  0
 29 31  1  0
 31 32  1  0
 32 33  2  0
 33 34  1  0
 34 35  2  0
 35 36  1  0
 36 37  2  0
 37 38  1  0
  7  2  1  0
 17 12  1  0
 31 19  1  0
 37 32  1  0
 27 22  1  0
  1 39  1  0
  1 40  1  0
  1 41  1  0
  3 42  1  0
  4 43  1  0
  5 44  1  0
 11 45  1  0
 13 46  1  0
 14 47  1  0
 15 48  1  0
 16 49  1  0
 23 50  1  0
 24 51  1  0
 25 52  1  0
 27 53  1  0
 28 54  1  0
 33 55  1  0
 34 56  1  0
 35 57  1  0
 36 58  1  0
M  CHG  1   6  -1
M  END
>  <UniqueID>  (63) 
51

>  <SMILES>  (63) 
Cc1ccc[n-]c1=NC(=O)Nc1ccccc1Oc1nc(-c2cccnc2)cc(=O)n1-c1ccccc1Cl

>  <Energy>  (63) 
103.70625005123081

>  <Genealogy>  (63) 
Cc1ccc[n-]c1=NC(=O)Nc1ccccc1Oc1nc(-c2cccnc2)cc(=O)n1-c1ccccc1Cl (protonated)
Cc1ccc[n-]c1=NC(=O)Nc1ccccc1Oc1nc(-c2cccnc2)cc(=O)n1-c1ccccc1Cl (3D coordinates assigned)
Cc1ccc[n-]c1=NC(=O)Nc1ccccc1Oc1nc(-c2cccnc2)cc(=O)n1-c1ccccc1Cl (optimized conformer: 103.70625005123081 kcal/mol)

>  <smiles>  (63) 
Cc1ccc[nH]c1=NC(=O)Nc1ccccc1Oc1nc(-c2cccnc2)cc(=O)n1-c1ccccc1Cl

>  <score_type>  (63) 
oracle

>  <origin>  (63) 
adg

>  <m_score__min__energy>  (63) 
-11.720000000000001

>  <m_primary>  (63) 
energy

$$$$
63:0
     RDKit          3D

 47 50  0  0  0  0  0  0  0  0999 V2000
   54.3100   24.9480   45.5990 C   0  0  0  0  0  0  0  0  0  0  0  0
   54.8610   26.2010   45.9910 O   0  0  0  0  0  0  0  0  0  0  0  0
   56.2320   26.5030   45.9950 C   0  0  0  0  0  0  0  0  0  0  0  0
   57.1900   25.5930   46.4860 C   0  0  0  0  0  0  0  0  0  0  0  0
   58.5510   25.8990   46.4310 C   0  0  0  0  0  0  0  0  0  0  0  0
   58.9750   27.1090   45.8800 C   0  0  0  0  0  0  0  0  0  0  0  0
   58.0370   28.0240   45.4000 C   0  0  0  0  0  0  0  0  0  0  0  0
   56.6650   27.7460   45.4800 C   0  0  0  0  0  0  0  0  0  0  0  0
   55.7400   28.7280   44.9880 N   0  0  0  0  0  0  0  0  0  0  0  0
   56.0690   29.9110   44.2450 C   0  0  0  0  0  0  0  0  0  0  0  0
   55.5090   30.0960   43.1310 O   0  0  0  0  0  0  0  0  0  0  0  0
   57.0800   30.8810   44.7250 C   0  0  0  0  0  0  0  0  0  0  0  0
   57.5540   31.9030   43.8860 C   0  0  0  0  0  0  0  0  0  0  0  0
   58.4940   32.8160   44.3700 C   0  0  0  0  0  0  0  0  0  0  0  0
   58.9600   32.7060   45.6850 C   0  0  0  0  0  0  0  0  0  0  0  0
   59.8960   33.6110   46.2070 C   0  0  0  0  0  0  0  0  0  0  0  0
   60.3340   33.4920   47.5320 C   0  0  0  0  0  0  0  0  0  0  0  0
   61.2770   34.4140   48.0090 O   0  0  0  0  0  0  0  0  0  0  0  0
   62.3730   34.1020   48.8270 C   0  0  0  0  0  0  0  0  0  0  0  0
   62.3870   34.4680   50.1400 N   0  0  0  0  0  0  0  0  0  0  0  0
   63.4420   34.1990   50.9530 C   0  0  0  0  0  0  0  0  0  0  0  0
   64.5600   33.5350   50.4480 C   0  0  0  0  0  0  0  0  0  0  0  0
   64.5820   33.1570   49.1060 C   0  0  0  0  0  0  0  0  0  0  0  0
   63.4860   33.4410   48.2770 C   0  0  0  0  0  0  0  0  0  0  0  0
   63.4980   33.0420   46.8290 C   0  0  0  0  0  0  0  0  0  0  0  0
   59.8530   32.4340   48.3270 C   0  0  0  0  0  0  0  0  0  0  0  0
   58.9220   31.5280   47.8120 C   0  0  0  0  0  0  0  0  0  0  0  0
   58.4700   31.6610   46.4960 C   0  0  0  0  0  0  0  0  0  0  0  0
   57.5600   30.7850   45.9960 N   0  0  0  0  0  0  0  0  0  0  0  0
   54.0532   24.3640   46.4951 H   0  0  0  0  0  0  0  0  0  0  0  0
   53.4034   25.1175   44.9995 H   0  0  0  0  0  0  0  0  0  0  0  0
   55.0477   24.3945   44.9995 H   0  0  0  0  0  0  0  0  0  0  0  0
   56.8628   24.6347   46.9157 H   0  0  0  0  0  0  0  0  0  0  0  0
   59.2905   25.1851   46.8227 H   0  0  0  0  0  0  0  0  0  0  0  0
   60.0487   27.3415   45.8240 H   0  0  0  0  0  0  0  0  0  0  0  0
   58.3767   28.9710   44.9553 H   0  0  0  0  0  0  0  0  0  0  0  0
   57.1866   31.9840   42.8523 H   0  0  0  0  0  0  0  0  0  0  0  0
   58.8673   33.6200   43.7186 H   0  0  0  0  0  0  0  0  0  0  0  0
   60.2883   34.4189   45.5719 H   0  0  0  0  0  0  0  0  0  0  0  0
   63.4144   34.5048   52.0093 H   0  0  0  0  0  0  0  0  0  0  0  0
   65.4158   33.3118   51.1020 H   0  0  0  0  0  0  0  0  0  0  0  0
   65.4597   32.6355   48.6966 H   0  0  0  0  0  0  0  0  0  0  0  0
   63.5310   31.9453   46.7511 H   0  0  0  0  0  0  0  0  0  0  0  0
   62.5882   33.4173   46.3377 H   0  0  0  0  0  0  0  0  0  0  0  0
   64.3836   33.4713   46.3377 H   0  0  0  0  0  0  0  0  0  0  0  0
   60.2125   32.3199   49.3603 H   0  0  0  0  0  0  0  0  0  0  0  0
   58.5446   30.7096   48.4427 H   0  0  0  0  0  0  0  0  0  0  0  0
  1  2  1  0
  2  3  1  0
  3  4  2  0
  4  5  1  0
  5  6  2  0
  6  7  1  0
  7  8  2  0
  8  9  1  0
  9 10  1  0
 10 11  2  0
 10 12  1  0
 12 13  2  0
 13 14  1  0
 14 15  2  0
 15 16  1  0
 16 17  2  0
 17 18  1  0
 18 19  1  0
 19 20  2  0
 20 21  1  0
 21 22  2  0
 22 23  1  0
 23 24  2  0
 24 25  1  0
 17 26  1  0
 26 27  2  0
 27 28  1  0
 28 29  2  0
  8  3  1  0
 29 12  1  0
 28 15  1  0
 24 19  1  0
  1 30  1  0
  1 31  1  0
  1 32  1  0
  4 33  1  0
  5 34  1  0
  6 35  1  0
  7 36  1  0
 13 37  1  0
 14 38  1  0
 16 39  1  0
 21 40  1  0
 22 41  1  0
 23 42  1  0
 25 43  1  0
 25 44  1  0
 25 45  1  0
 26 46  1  0
 27 47  1  0
M  CHG  1   9  -1
M  END
>  <UniqueID>  (64) 
52

>  <SMILES>  (64) 
COc1ccccc1[N-]C(=O)c1ccc2cc(Oc3ncccc3C)ccc2n1

>  <Energy>  (64) 
65.20643809207046

>  <Genealogy>  (64) 
COc1ccccc1[N-]C(=O)c1ccc2cc(Oc3ncccc3C)ccc2n1 (protonated)
COc1ccccc1[N-]C(=O)c1ccc2cc(Oc3ncccc3C)ccc2n1 (3D coordinates assigned)
COc1ccccc1[N-]C(=O)c1ccc2cc(Oc3ncccc3C)ccc2n1 (optimized conformer: 65.20643809207046 kcal/mol)

>  <smiles>  (64) 
COc1ccccc1NC(=O)c1ccc2cc(Oc3ncccc3C)ccc2n1

>  <score_type>  (64) 
oracle

>  <origin>  (64) 
adg

>  <m_score__min__energy>  (64) 
-11.960000000000001

>  <m_primary>  (64) 
energy

$$$$
64:0
     RDKit          3D

 44 46  0  0  0  0  0  0  0  0999 V2000
   58.1330   26.8750   42.7140 C   0  0  0  0  0  0  0  0  0  0  0  0
   57.8280   26.4410   44.1220 C   0  0  0  0  0  0  0  0  0  0  0  0
   57.4600   25.1070   44.3700 C   0  0  0  0  0  0  0  0  0  0  0  0
   57.1770   24.6800   45.6680 C   0  0  0  0  0  0  0  0  0  0  0  0
   57.2680   25.5730   46.7340 C   0  0  0  0  0  0  0  0  0  0  0  0
   57.6440   26.8990   46.5060 C   0  0  0  0  0  0  0  0  0  0  0  0
   57.9200   27.3500   45.2030 C   0  0  0  0  0  0  0  0  0  0  0  0
   58.3440   28.7080   44.9820 N   0  0  0  0  0  0  0  0  0  0  0  0
   57.4350   29.8220   44.9350 C   0  0  0  0  0  0  0  0  0  0  0  0
   56.1920   29.6110   44.9160 O   0  0  0  0  0  0  0  0  0  0  0  0
   57.9630   31.2080   44.8410 C   0  0  0  0  0  0  0  0  0  0  0  0
   58.6400   31.7050   45.9110 N   0  0  0  0  0  0  0  0  0  0  0  0
   59.1780   32.9270   45.9350 N   0  0  0  0  0  0  0  0  0  0  0  0
   59.8690   33.3370   47.1300 C   0  0  0  0  0  0  0  0  0  0  0  0
   59.1610   33.8290   48.2400 C   0  0  0  0  0  0  0  0  0  0  0  0
   59.8390   34.1810   49.4090 C   0  0  0  0  0  0  0  0  0  0  0  0
   61.2250   34.0450   49.4860 C   0  0  0  0  0  0  0  0  0  0  0  0
   61.9550   33.5640   48.3850 C   0  0  0  0  0  0  0  0  0  0  0  0
   63.4460   33.3580   48.4850 C   0  0  0  0  0  0  0  0  0  0  0  0
   63.9240   33.8360   49.6920 F   0  0  0  0  0  0  0  0  0  0  0  0
   63.7630   32.0130   48.3960 F   0  0  0  0  0  0  0  0  0  0  0  0
   64.0670   34.0360   47.4540 F   0  0  0  0  0  0  0  0  0  0  0  0
   61.2640   33.1860   47.2200 C   0  0  0  0  0  0  0  0  0  0  0  0
   59.0880   33.7380   44.8360 C   0  0  0  0  0  0  0  0  0  0  0  0
   59.6410   34.8720   44.8170 O   0  0  0  0  0  0  0  0  0  0  0  0
   58.3930   33.3000   43.7110 C   0  0  0  0  0  0  0  0  0  0  0  0
   57.8030   32.0310   43.7000 C   0  0  0  0  0  0  0  0  0  0  0  0
   57.0310   31.5970   42.4820 C   0  0  0  0  0  0  0  0  0  0  0  0
   58.7653   27.7748   42.7365 H   0  0  0  0  0  0  0  0  0  0  0  0
   58.6632   26.0673   42.1881 H   0  0  0  0  0  0  0  0  0  0  0  0
   57.1935   27.1002   42.1881 H   0  0  0  0  0  0  0  0  0  0  0  0
   57.3947   24.3945   43.5345 H   0  0  0  0  0  0  0  0  0  0  0  0
   56.8814   23.6362   45.8502 H   0  0  0  0  0  0  0  0  0  0  0  0
   57.0436   25.2335   47.7559 H   0  0  0  0  0  0  0  0  0  0  0  0
   57.7249   27.5962   47.3530 H   0  0  0  0  0  0  0  0  0  0  0  0
   59.3570   28.8780   44.7960 H   0  0  0  0  0  0  0  0  0  0  0  0
   58.0676   33.9373   48.1877 H   0  0  0  0  0  0  0  0  0  0  0  0
   59.2777   34.5671   50.2726 H   0  0  0  0  0  0  0  0  0  0  0  0
   61.7501   34.3157   50.4139 H   0  0  0  0  0  0  0  0  0  0  0  0
   61.8214   32.7673   46.3691 H   0  0  0  0  0  0  0  0  0  0  0  0
   58.3078   33.9527   42.8297 H   0  0  0  0  0  0  0  0  0  0  0  0
   56.1119   31.0803   42.7953 H   0  0  0  0  0  0  0  0  0  0  0  0
   56.7685   32.4798   41.8805 H   0  0  0  0  0  0  0  0  0  0  0  0
   57.6487   30.9139   41.8805 H   0  0  0  0  0  0  0  0  0  0  0  0
  1  2  1  0
  2  3  2  0
  3  4  1  0
  4  5  2  0
  5  6  1  0
  6  7  2  0
  7  8  1  0
  8  9  1  0
  9 10  2  0
  9 11  1  0
 11 12  2  0
 12 13  1  0
 13 14  1  0
 14 15  2  0
 15 16  1  0
 16 17  2  0
 17 18  1  0
 18 19  1  0
 19 20  1  0
 19 21  1  0
 19 22  1  0
 18 23  2  0
 13 24  1  0
 24 25  2  0
 24 26  1  0
 26 27  2  0
 27 28  1  0
  7  2  1  0
 27 11  1  0
 23 14  1  0
  1 29  1  0
  1 30  1  0
  1 31  1  0
  3 32  1  0
  4 33  1  0
  5 34  1  0
  6 35  1  0
  8 36  1  0
 15 37  1  0
 16 38  1  0
 17 39  1  0
 23 40  1  0
 26 41  1  0
 28 42  1  0
 28 43  1  0
 28 44  1  0
M  END
>  <UniqueID>  (65) 
53

>  <SMILES>  (65) 
Cc1ccccc1NC(=O)c1nn(-c2cccc(C(F)(F)F)c2)c(=O)cc1C

>  <Energy>  (65) 
62.234513482542944

>  <Genealogy>  (65) 
Cc1ccccc1NC(=O)c1nn(-c2cccc(C(F)(F)F)c2)c(=O)cc1C (3D coordinates assigned)
Cc1ccccc1NC(=O)c1nn(-c2cccc(C(F)(F)F)c2)c(=O)cc1C (optimized conformer: 62.234513482542944 kcal/mol)

>  <smiles>  (65) 
Cc1ccccc1NC(=O)c1nn(-c2cccc(C(F)(F)F)c2)c(=O)cc1C

>  <score_type>  (65) 
oracle

>  <origin>  (65) 
adg

>  <m_score__min__energy>  (65) 
-8.3599999999999994

>  <m_primary>  (65) 
energy

$$$$
65:0
     RDKit          3D

 37 38  0  0  0  0  0  0  0  0999 V2000
   67.9440   33.8150   53.1650 C   0  0  0  0  0  0  0  0  0  0  0  0
   67.1570   34.5340   51.7420 S   0  0  0  0  0  0  0  0  0  0  0  0
   67.7220   33.9080   50.4980 O   0  0  0  0  0  0  0  0  0  0  0  0
   67.4140   36.0150   51.7340 O   0  0  0  0  0  0  0  0  0  0  0  0
   65.4520   34.2330   51.8310 N   0  0  0  0  0  0  0  0  0  0  0  0
   64.6360   33.7720   50.7450 C   0  0  0  0  0  0  0  0  0  0  0  0
   65.0530   32.7440   49.8820 C   0  0  0  0  0  0  0  0  0  0  0  0
   64.2260   32.3250   48.8350 C   0  0  0  0  0  0  0  0  0  0  0  0
   62.9670   32.9190   48.6340 C   0  0  0  0  0  0  0  0  0  0  0  0
   62.0990   32.4710   47.5170 C   0  0  0  0  0  0  0  0  0  0  0  0
   61.9510   33.2150   46.5100 O   0  0  0  0  0  0  0  0  0  0  0  0
   61.4650   31.1810   47.5500 N   0  0  0  0  0  0  0  0  0  0  0  0
   60.3210   30.8340   46.7510 C   0  0  0  0  0  0  0  0  0  0  0  0
   60.3140   29.6210   46.0470 C   0  0  0  0  0  0  0  0  0  0  0  0
   59.2040   29.2510   45.2810 C   0  0  0  0  0  0  0  0  0  0  0  0
   58.0790   30.0830   45.2220 C   0  0  0  0  0  0  0  0  0  0  0  0
   56.6880   29.6220   44.2460 S   0  0  0  0  0  0  0  0  0  0  0  0
   55.5320   28.8060   45.2390 N   0  0  0  0  0  0  0  0  0  0  0  0
   56.0580   30.8480   43.6470 O   0  0  0  0  0  0  0  0  0  0  0  0
   57.1230   28.7110   43.1340 O   0  0  0  0  0  0  0  0  0  0  0  0
   58.0740   31.2890   45.9340 C   0  0  0  0  0  0  0  0  0  0  0  0
   59.1830   31.6600   46.6990 C   0  0  0  0  0  0  0  0  0  0  0  0
   62.5610   33.9530   49.4970 C   0  0  0  0  0  0  0  0  0  0  0  0
   63.3890   34.3710   50.5420 C   0  0  0  0  0  0  0  0  0  0  0  0
   67.4935   34.2266   54.0802 H   0  0  0  0  0  0  0  0  0  0  0  0
   67.8069   32.7237   53.1476 H   0  0  0  0  0  0  0  0  0  0  0  0
   69.0185   34.0499   53.1476 H   0  0  0  0  0  0  0  0  0  0  0  0
   66.0332   32.2674   50.0306 H   0  0  0  0  0  0  0  0  0  0  0  0
   64.5634   31.5230   48.1620 H   0  0  0  0  0  0  0  0  0  0  0  0
   61.9270   30.4200   48.0950 H   0  0  0  0  0  0  0  0  0  0  0  0
   61.1884   28.9555   46.0978 H   0  0  0  0  0  0  0  0  0  0  0  0
   59.2146   28.3032   44.7229 H   0  0  0  0  0  0  0  0  0  0  0  0
   54.6410   29.3460   45.1750 H   0  0  0  0  0  0  0  0  0  0  0  0
   57.1935   31.9469   45.8909 H   0  0  0  0  0  0  0  0  0  0  0  0
   59.1663   32.6036   47.2641 H   0  0  0  0  0  0  0  0  0  0  0  0
   61.5841   34.4362   49.3480 H   0  0  0  0  0  0  0  0  0  0  0  0
   63.0568   35.1785   51.2110 H   0  0  0  0  0  0  0  0  0  0  0  0
  1  2  1  0
  2  3  2  0
  2  4  2  0
  2  5  1  0
  5  6  1  0
  6  7  2  0
  7  8  1  0
  8  9  2  0
  9 10  1  0
 10 11  2  0
 10 12  1  0
 12 13  1  0
 13 14  2  0
 14 15  1  0
 15 16  2  0
 16 17  1  0
 17 18  1  0
 17 19  2  0
 17 20  2  0
 16 21  1  0
 21 22  2  0
  9 23  1  0
 23 24  2  0
 24  6  1  0
 22 13  1  0
  1 25  1  0
  1 26  1  0
  1 27  1  0
  7 28  1  0
  8 29  1  0
 12 30  1  0
 14 31  1  0
 15 32  1  0
 18 33  1  0
 21 34  1  0
 22 35  1  0
 23 36  1  0
 24 37  1  0
M  CHG  2   5  -1  18  -1
M  END
>  <UniqueID>  (66) 
54

>  <SMILES>  (66) 
CS(=O)(=O)[N-]c1ccc(C(=O)Nc2ccc(S([NH-])(=O)=O)cc2)cc1

>  <Energy>  (66) 
41.678631609552

>  <Genealogy>  (66) 
CS(=O)(=O)[N-]c1ccc(C(=O)Nc2ccc(S([NH-])(=O)=O)cc2)cc1 (protonated)
CS(=O)(=O)[N-]c1ccc(C(=O)Nc2ccc(S([NH-])(=O)=O)cc2)cc1 (3D coordinates assigned)
CS(=O)(=O)[N-]c1ccc(C(=O)Nc2ccc(S([NH-])(=O)=O)cc2)cc1 (optimized conformer: 41.678631609552 kcal/mol)

>  <smiles>  (66) 
CS(=O)(=O)Nc1ccc(C(=O)Nc2ccc(S(N)(=O)=O)cc2)cc1

>  <score_type>  (66) 
oracle

>  <origin>  (66) 
adg

>  <m_score__min__energy>  (66) 
-10.619999999999999

>  <m_primary>  (66) 
energy

$$$$
66:0
     RDKit          3D

 45 47  0  0  0  0  0  0  0  0999 V2000
   57.0160   24.2020   47.5910 C   0  0  0  0  0  0  0  0  0  0  0  0
   57.4060   25.5710   47.1260 C   0  0  0  0  0  0  0  0  0  0  0  0
   58.6630   26.0960   47.4410 C   0  0  0  0  0  0  0  0  0  0  0  0
   58.9860   27.3790   46.9840 C   0  0  0  0  0  0  0  0  0  0  0  0
   60.3220   27.9770   47.2900 C   0  0  0  0  0  0  0  0  0  0  0  0
   58.0850   28.0760   46.2410 N   0  0  0  0  0  0  0  0  0  0  0  0
   56.8680   27.5520   45.9340 C   0  0  0  0  0  0  0  0  0  0  0  0
   56.0310   28.2640   45.2380 N   0  0  0  0  0  0  0  0  0  0  0  0
   56.1700   29.6480   44.8800 C   0  0  0  0  0  0  0  0  0  0  0  0
   55.1810   30.2440   44.3740 O   0  0  0  0  0  0  0  0  0  0  0  0
   57.3750   30.3780   45.1660 N   0  0  0  0  0  0  0  0  0  0  0  0
   57.7810   31.5650   44.4560 C   0  0  0  0  0  0  0  0  0  0  0  0
   57.4340   31.7420   43.2130 N   0  0  0  0  0  0  0  0  0  0  0  0
   58.6660   32.5380   45.1400 C   0  0  0  0  0  0  0  0  0  0  0  0
   58.6650   33.9130   45.0000 C   0  0  0  0  0  0  0  0  0  0  0  0
   59.6100   34.4150   45.8140 N   0  0  0  0  0  0  0  0  0  0  0  0
   59.8920   35.8360   46.0060 C   0  0  0  0  0  0  0  0  0  0  0  0
   60.1830   33.3430   46.4130 C   0  0  0  0  0  0  0  0  0  0  0  0
   61.2860   33.3950   47.3990 C   0  0  0  0  0  0  0  0  0  0  0  0
   61.0640   33.8100   48.7240 C   0  0  0  0  0  0  0  0  0  0  0  0
   62.1260   33.8680   49.6330 C   0  0  0  0  0  0  0  0  0  0  0  0
   63.4190   33.5310   49.2230 C   0  0  0  0  0  0  0  0  0  0  0  0
   63.6540   33.1450   47.9000 C   0  0  0  0  0  0  0  0  0  0  0  0
   62.5940   33.0820   46.9900 C   0  0  0  0  0  0  0  0  0  0  0  0
   59.6120   32.1800   46.0330 N   0  0  0  0  0  0  0  0  0  0  0  0
   56.5370   26.3100   46.3870 N   0  0  0  0  0  0  0  0  0  0  0  0
   57.0087   24.1765   48.6907 H   0  0  0  0  0  0  0  0  0  0  0  0
   56.0126   23.9580   47.2119 H   0  0  0  0  0  0  0  0  0  0  0  0
   57.7402   23.4659   47.2119 H   0  0  0  0  0  0  0  0  0  0  0  0
   59.3825   25.5134   48.0351 H   0  0  0  0  0  0  0  0  0  0  0  0
   60.4559   28.0369   48.3802 H   0  0  0  0  0  0  0  0  0  0  0  0
   61.1134   27.3472   46.8575 H   0  0  0  0  0  0  0  0  0  0  0  0
   60.3795   28.9868   46.8575 H   0  0  0  0  0  0  0  0  0  0  0  0
   57.9330   30.0840   45.9990 H   0  0  0  0  0  0  0  0  0  0  0  0
   56.5000   31.4380   42.8600 H   0  0  0  0  0  0  0  0  0  0  0  0
   58.0860   32.1500   42.5080 H   0  0  0  0  0  0  0  0  0  0  0  0
   58.0063   34.4948   44.3384 H   0  0  0  0  0  0  0  0  0  0  0  0
   59.9362   36.0589   47.0823 H   0  0  0  0  0  0  0  0  0  0  0  0
   60.8570   36.0845   45.5401 H   0  0  0  0  0  0  0  0  0  0  0  0
   59.0950   36.4342   45.5401 H   0  0  0  0  0  0  0  0  0  0  0  0
   60.0507   34.0904   49.0474 H   0  0  0  0  0  0  0  0  0  0  0  0
   61.9431   34.1793   50.6720 H   0  0  0  0  0  0  0  0  0  0  0  0
   64.2514   33.5695   49.9410 H   0  0  0  0  0  0  0  0  0  0  0  0
   64.6735   32.8906   47.5746 H   0  0  0  0  0  0  0  0  0  0  0  0
   62.7849   32.7858   45.9480 H   0  0  0  0  0  0  0  0  0  0  0  0
  1  2  1  0
  2  3  1  0
  3  4  2  0
  4  5  1  0
  4  6  1  0
  6  7  1  0
  7  8  2  3
  8  9  1  0
  9 10  2  0
  9 11  1  0
 11 12  1  0
 12 13  2  0
 12 14  1  0
 14 15  2  0
 15 16  1  0
 16 17  1  0
 16 18  1  0
 18 19  1  0
 19 20  2  0
 20 21  1  0
 21 22  2  0
 22 23  1  0
 23 24  2  0
 18 25  2  0
  7 26  1  0
 26  2  2  0
 25 14  1  0
 24 19  1  0
  1 27  1  0
  1 28  1  0
  1 29  1  0
  3 30  1  0
  5 31  1  0
  5 32  1  0
  5 33  1  0
 11 34  1  0
 13 35  1  0
 13 36  1  0
 15 37  1  0
 17 38  1  0
 17 39  1  0
 17 40  1  0
 20 41  1  0
 21 42  1  0
 22 43  1  0
 23 44  1  0
 24 45  1  0
M  CHG  2   6  -1  13   1
M  END
>  <UniqueID>  (67) 
55

>  <SMILES>  (67) 
Cc1cc(C)[n-]c(=NC(=O)NC(=[NH2+])c2cn(C)c(-c3ccccc3)n2)n1

>  <Energy>  (67) 
85.7613156681507

>  <Genealogy>  (67) 
Cc1cc(C)[n-]c(=NC(=O)NC(=[NH2+])c2cn(C)c(-c3ccccc3)n2)n1 (protonated)
Cc1cc(C)[n-]c(=NC(=O)NC(=[NH2+])c2cn(C)c(-c3ccccc3)n2)n1 (3D coordinates assigned)
Cc1cc(C)[n-]c(=NC(=O)NC(=[NH2+])c2cn(C)c(-c3ccccc3)n2)n1 (optimized conformer: 85.7613156681507 kcal/mol)

>  <smiles>  (67) 
Cc1cc(C)[nH]c(=NC(=O)NC(=N)c2cn(C)c(-c3ccccc3)n2)n1

>  <score_type>  (67) 
oracle

>  <origin>  (67) 
adg

>  <m_score__min__energy>  (67) 
-7.79

>  <m_primary>  (67) 
energy

$$$$
67:0
     RDKit          3D

 21 22  0  0  0  0  0  0  0  0999 V2000
   50.4770   32.9350   53.4390 C   0  0  0  0  0  0  0  0  0  0  0  0
   50.6420   33.0580   51.9980 N   0  0  0  0  0  0  0  0  0  0  0  0
   51.3680   32.1540   51.1540 C   0  0  0  0  0  0  0  0  0  0  0  0
   51.2160   32.2460   49.9080 O   0  0  0  0  0  0  0  0  0  0  0  0
   52.3190   31.1530   51.6750 C   0  0  0  0  0  0  0  0  0  0  0  0
   53.7150   31.2320   51.6630 C   0  0  0  0  0  0  0  0  0  0  0  0
   54.3190   30.1390   52.2940 C   0  0  0  0  0  0  0  0  0  0  0  0
   55.6930   29.9300   52.4460 C   0  0  0  0  0  0  0  0  0  0  0  0
   56.1310   28.7770   53.1200 C   0  0  0  0  0  0  0  0  0  0  0  0
   55.2010   27.8540   53.6350 C   0  0  0  0  0  0  0  0  0  0  0  0
   53.8230   28.0750   53.4820 C   0  0  0  0  0  0  0  0  0  0  0  0
   53.4130   29.2230   52.8080 C   0  0  0  0  0  0  0  0  0  0  0  0
   51.8510   29.7480   52.4980 S   0  0  0  0  0  0  0  0  0  0  0  0
   51.2586   33.5176   53.9486 H   0  0  0  0  0  0  0  0  0  0  0  0
   49.4871   33.3173   53.7287 H   0  0  0  0  0  0  0  0  0  0  0  0
   50.5607   31.8771   53.7287 H   0  0  0  0  0  0  0  0  0  0  0  0
   54.2761   32.0615   51.2079 H   0  0  0  0  0  0  0  0  0  0  0  0
   56.4176   30.6543   52.0456 H   0  0  0  0  0  0  0  0  0  0  0  0
   57.2084   28.5945   53.2460 H   0  0  0  0  0  0  0  0  0  0  0  0
   55.5559   26.9549   54.1600 H   0  0  0  0  0  0  0  0  0  0  0  0
   53.0879   27.3617   53.8831 H   0  0  0  0  0  0  0  0  0  0  0  0
  1  2  1  0
  2  3  1  0
  3  4  2  0
  3  5  1  0
  5  6  2  0
  6  7  1  0
  7  8  2  0
  8  9  1  0
  9 10  2  0
 10 11  1  0
 11 12  2  0
 12 13  1  0
 13  5  1  0
 12  7  1  0
  1 14  1  0
  1 15  1  0
  1 16  1  0
  6 17  1  0
  8 18  1  0
  9 19  1  0
 10 20  1  0
 11 21  1  0
M  CHG  1   2  -1
M  END
>  <UniqueID>  (68) 
56

>  <SMILES>  (68) 
C[N-]C(=O)c1cc2ccccc2s1

>  <Energy>  (68) 
54.193731867615355

>  <Genealogy>  (68) 
C[N-]C(=O)c1cc2ccccc2s1 (protonated)
C[N-]C(=O)c1cc2ccccc2s1 (3D coordinates assigned)
C[N-]C(=O)c1cc2ccccc2s1 (optimized conformer: 54.193731867615355 kcal/mol)

>  <smiles>  (68) 
CNC(=O)c1cc2ccccc2s1

>  <score_type>  (68) 
oracle

>  <origin>  (68) 
adg

>  <m_score__min__energy>  (68) 
-8.3699999999999992

>  <m_primary>  (68) 
energy

$$$$
68:0
     RDKit          3D

 24 25  0  0  0  0  0  0  0  0999 V2000
   50.7680   33.2860   53.0240 H   0  0  0  0  0  0  0  0  0  0  0  0
   50.7370   33.0890   51.9990 N   0  0  0  0  0  0  0  0  0  0  0  0
   51.4170   32.1200   51.4770 C   0  0  0  0  0  0  0  0  0  0  0  0
   52.5150   31.6440   52.1170 N   0  0  0  0  0  0  0  0  0  0  0  0
   53.2550   30.6250   51.6020 C   0  0  0  0  0  0  0  0  0  0  0  0
   54.4130   30.1630   52.3230 N   0  0  0  0  0  0  0  0  0  0  0  0
   55.6180   30.1280   51.6820 O   0  0  0  0  0  0  0  0  0  0  0  0
   56.4140   31.1350   52.2710 C   0  0  0  0  0  0  0  0  0  0  0  0
   55.8987   32.1021   52.1750 H   0  0  0  0  0  0  0  0  0  0  0  0
   57.3842   31.1601   51.7533 H   0  0  0  0  0  0  0  0  0  0  0  0
   56.6650   30.8430   53.7700 C   0  0  0  0  0  0  0  0  0  0  0  0
   56.4336   31.7478   54.3512 H   0  0  0  0  0  0  0  0  0  0  0  0
   57.7195   30.5526   53.8866 H   0  0  0  0  0  0  0  0  0  0  0  0
   55.7940   29.6840   54.2880 C   0  0  0  0  0  0  0  0  0  0  0  0
   55.7678   29.7140   55.3873 H   0  0  0  0  0  0  0  0  0  0  0  0
   56.2268   28.7326   53.9452 H   0  0  0  0  0  0  0  0  0  0  0  0
   54.3660   29.8030   53.7460 C   0  0  0  0  0  0  0  0  0  0  0  0
   53.8254   30.5817   54.3039 H   0  0  0  0  0  0  0  0  0  0  0  0
   53.8465   28.8407   53.8647 H   0  0  0  0  0  0  0  0  0  0  0  0
   52.8740   30.0620   50.3720 C   0  0  0  0  0  0  0  0  0  0  0  0
   53.4564   29.2425   49.9255 H   0  0  0  0  0  0  0  0  0  0  0  0
   51.7410   30.5640   49.7280 C   0  0  0  0  0  0  0  0  0  0  0  0
   51.3730   30.0790   48.6260 O   0  0  0  0  0  0  0  0  0  0  0  0
   51.0350   31.5790   50.2900 N   0  0  0  0  0  0  0  0  0  0  0  0
  1  2  1  0
  2  3  2  0
  3  4  1  0
  4  5  1  0
  5  6  1  0
  6  7  1  0
  7  8  1  0
  8  9  1  0
  8 10  1  0
  8 11  1  0
 11 12  1  0
 11 13  1  0
 11 14  1  0
 14 15  1  0
 14 16  1  0
 14 17  1  0
 17 18  1  0
 17 19  1  0
  5 20  2  0
 20 21  1  0
 20 22  1  0
 22 23  2  0
 22 24  1  0
 24  3  1  0
 17  6  1  0
M  CHG  2   4  -1  24  -1
M  END
>  <UniqueID>  (69) 
57

>  <SMILES>  (69) 
[H]/N=c1/[n-]c(N2CCCCO2)cc(=O)[n-]1

>  <Energy>  (69) 
28.04449649180647

>  <Genealogy>  (69) 
N=c1[n-]c(N2CCCCO2)cc(=O)[n-]1 (protonated)
[H]/N=c1/[n-]c(N2CCCCO2)cc(=O)[n-]1 (cis-trans isomerization)
[H]/N=c1/[n-]c(N2CCCCO2)cc(=O)[n-]1 (3D coordinates assigned)
[H]/N=c1/[n-]c(N2CCCCO2)cc(=O)[n-]1 (nonaromatic ring conformer: 28.04449649180647 kcal/mol)

>  <smiles>  (69) 
N=c1[nH]c(N2CCCCO2)cc(=O)[nH]1

>  <score_type>  (69) 
oracle

>  <origin>  (69) 
adg

>  <m_score__min__energy>  (69) 
-10.199999999999999

>  <m_primary>  (69) 
energy

$$$$
69:0
     RDKit          3D

 59 62  0  0  0  0  0  0  0  0999 V2000
   59.1880   33.7210   51.6850 C   0  0  0  0  0  0  0  0  0  0  0  0
   58.8630   32.3360   51.7510 O   0  0  0  0  0  0  0  0  0  0  0  0
   59.3400   31.3650   50.8560 C   0  0  0  0  0  0  0  0  0  0  0  0
   60.6040   31.4680   50.2460 C   0  0  0  0  0  0  0  0  0  0  0  0
   61.0500   30.4760   49.3720 C   0  0  0  0  0  0  0  0  0  0  0  0
   60.2410   29.3680   49.0870 C   0  0  0  0  0  0  0  0  0  0  0  0
   60.7550   28.2570   48.2040 C   0  0  0  0  0  0  0  0  0  0  0  0
   59.7650   27.0840   48.1380 C   0  0  0  0  0  0  0  0  0  0  0  0
   58.9290   27.1680   46.9410 N   0  0  0  0  0  0  0  0  0  0  0  0
   57.6220   26.5810   46.8770 C   0  0  0  0  0  0  0  0  0  0  0  0
   57.3110   25.6440   47.6600 O   0  0  0  0  0  0  0  0  0  0  0  0
   56.6250   27.0930   45.9270 C   0  0  0  0  0  0  0  0  0  0  0  0
   55.4300   26.6980   45.9940 O   0  0  0  0  0  0  0  0  0  0  0  0
   57.0200   28.0220   44.9130 N   0  0  0  0  0  0  0  0  0  0  0  0
   56.3840   29.3200   44.7230 C   0  0  0  0  0  0  0  0  0  0  0  0
   57.3130   30.4120   45.1750 C   0  0  0  0  0  0  0  0  0  0  0  0
   58.3950   30.1230   46.0460 C   0  0  0  0  0  0  0  0  0  0  0  0
   59.2490   31.1470   46.4990 C   0  0  0  0  0  0  0  0  0  0  0  0
   58.9800   32.4510   46.0770 C   0  0  0  0  0  0  0  0  0  0  0  0
   57.9430   32.7280   45.2310 C   0  0  0  0  0  0  0  0  0  0  0  0
   58.0230   34.0770   44.9660 C   0  0  0  0  0  0  0  0  0  0  0  0
   59.0870   34.5800   45.6370 N   0  0  0  0  0  0  0  0  0  0  0  0
   59.6610   33.5920   46.3180 N   0  0  0  0  0  0  0  0  0  0  0  0
   60.8270   33.7710   47.1350 C   0  0  0  0  0  0  0  0  0  0  0  0
   62.1060   33.4710   46.6380 C   0  0  0  0  0  0  0  0  0  0  0  0
   63.2330   33.6290   47.4500 C   0  0  0  0  0  0  0  0  0  0  0  0
   63.0900   34.0780   48.7660 C   0  0  0  0  0  0  0  0  0  0  0  0
   61.8180   34.3610   49.2740 C   0  0  0  0  0  0  0  0  0  0  0  0
   60.6890   34.2000   48.4650 C   0  0  0  0  0  0  0  0  0  0  0  0
   57.0790   31.7440   44.7640 C   0  0  0  0  0  0  0  0  0  0  0  0
   58.9790   29.2620   49.6900 C   0  0  0  0  0  0  0  0  0  0  0  0
   58.5230   30.2590   50.5760 C   0  0  0  0  0  0  0  0  0  0  0  0
   57.2670   30.1820   51.2000 O   0  0  0  0  0  0  0  0  0  0  0  0
   57.0700   30.0770   52.6070 C   0  0  0  0  0  0  0  0  0  0  0  0
   59.2827   34.1244   52.7040 H   0  0  0  0  0  0  0  0  0  0  0  0
   60.1406   33.8490   51.1500 H   0  0  0  0  0  0  0  0  0  0  0  0
   58.3918   34.2594   51.1500 H   0  0  0  0  0  0  0  0  0  0  0  0
   61.2446   32.3363   50.4596 H   0  0  0  0  0  0  0  0  0  0  0  0
   62.0417   30.5642   48.9043 H   0  0  0  0  0  0  0  0  0  0  0  0
   60.9104   28.6507   47.1887 H   0  0  0  0  0  0  0  0  0  0  0  0
   61.6992   27.8872   48.6303 H   0  0  0  0  0  0  0  0  0  0  0  0
   60.3281   26.1393   48.1175 H   0  0  0  0  0  0  0  0  0  0  0  0
   59.1134   27.1263   49.0232 H   0  0  0  0  0  0  0  0  0  0  0  0
   59.2680   27.7540   46.1440 H   0  0  0  0  0  0  0  0  0  0  0  0
   56.1480   29.4588   43.6576 H   0  0  0  0  0  0  0  0  0  0  0  0
   55.4582   29.3616   45.3156 H   0  0  0  0  0  0  0  0  0  0  0  0
   58.5689   29.0867   46.3713 H   0  0  0  0  0  0  0  0  0  0  0  0
   60.0986   30.9275   47.1623 H   0  0  0  0  0  0  0  0  0  0  0  0
   57.3400   34.6483   44.3201 H   0  0  0  0  0  0  0  0  0  0  0  0
   62.2214   33.1101   45.6053 H   0  0  0  0  0  0  0  0  0  0  0  0
   64.2330   33.3998   47.0530 H   0  0  0  0  0  0  0  0  0  0  0  0
   63.9779   34.2088   49.4021 H   0  0  0  0  0  0  0  0  0  0  0  0
   61.7057   34.7106   50.3109 H   0  0  0  0  0  0  0  0  0  0  0  0
   59.6889   34.4102   48.8719 H   0  0  0  0  0  0  0  0  0  0  0  0
   56.2410   31.9938   44.0967 H   0  0  0  0  0  0  0  0  0  0  0  0
   58.3402   28.3940   49.4697 H   0  0  0  0  0  0  0  0  0  0  0  0
   57.9232   30.5318   53.1316 H   0  0  0  0  0  0  0  0  0  0  0  0
   56.1449   30.6017   52.8879 H   0  0  0  0  0  0  0  0  0  0  0  0
   56.9898   29.0165   52.8879 H   0  0  0  0  0  0  0  0  0  0  0  0
  1  2  1  0
  2  3  1  0
  3  4  2  0
  4  5  1  0
  5  6  2  0
  6  7  1  0
  7  8  1  0
  8  9  1  0
  9 10  1  0
 10 11  2  0
 10 12  1  0
 12 13  2  0
 12 14  1  0
 14 15  1  0
 15 16  1  0
 16 17  2  0
 17 18  1  0
 18 19  2  0
 19 20  1  0
 20 21  1  0
 21 22  2  0
 22 23  1  0
 23 24  1  0
 24 25  2  0
 25 26  1  0
 26 27  2  0
 27 28  1  0
 28 29  2  0
 20 30  2  0
  6 31  1  0
 31 32  2  0
 32 33  1  0
 33 34  1  0
 32  3  1  0
 30 16  1  0
 23 19  1  0
 29 24  1  0
  1 35  1  0
  1 36  1  0
  1 37  1  0
  4 38  1  0
  5 39  1  0
  7 40  1  0
  7 41  1  0
  8 42  1  0
  8 43  1  0
  9 44  1  0
 15 45  1  0
 15 46  1  0
 17 47  1  0
 18 48  1  0
 21 49  1  0
 25 50  1  0
 26 51  1  0
 27 52  1  0
 28 53  1  0
 29 54  1  0
 30 55  1  0
 31 56  1  0
 34 57  1  0
 34 58  1  0
 34 59  1  0
M  CHG  1  14  -1
M  END
>  <UniqueID>  (70) 
58

>  <SMILES>  (70) 
COc1ccc(CCNC(=O)C(=O)[N-]Cc2ccc3c(cnn3-c3ccccc3)c2)cc1OC

>  <Energy>  (70) 
95.24902325946313

>  <Genealogy>  (70) 
COc1ccc(CCNC(=O)C(=O)[N-]Cc2ccc3c(cnn3-c3ccccc3)c2)cc1OC (protonated)
COc1ccc(CCNC(=O)C(=O)[N-]Cc2ccc3c(cnn3-c3ccccc3)c2)cc1OC (3D coordinates assigned)
COc1ccc(CCNC(=O)C(=O)[N-]Cc2ccc3c(cnn3-c3ccccc3)c2)cc1OC (optimized conformer: 95.24902325946313 kcal/mol)

>  <smiles>  (70) 
COc1ccc(CCNC(=O)C(=O)NCc2ccc3c(cnn3-c3ccccc3)c2)cc1OC

>  <score_type>  (70) 
oracle

>  <origin>  (70) 
adg

>  <m_score__min__energy>  (70) 
-10.859999999999999

>  <m_primary>  (70) 
energy

$$$$
70:0
     RDKit          3D

 40 42  0  0  0  0  0  0  0  0999 V2000
   57.6500   27.2300   47.2570 O   0  0  0  0  0  0  0  0  0  0  0  0
   56.7700   26.8010   46.4620 C   0  0  0  0  0  0  0  0  0  0  0  0
   56.3500   25.4360   46.5710 N   0  0  0  0  0  0  0  0  0  0  0  0
   56.4160   24.4550   45.5290 C   0  0  0  0  0  0  0  0  0  0  0  0
   57.6220   23.8370   45.1760 C   0  0  0  0  0  0  0  0  0  0  0  0
   57.4990   22.9530   44.1120 C   0  0  0  0  0  0  0  0  0  0  0  0
   55.8980   22.9700   43.6030 S   0  0  0  0  0  0  0  0  0  0  0  0
   55.3380   24.0870   44.7260 C   0  0  0  0  0  0  0  0  0  0  0  0
   56.1350   27.6960   45.5370 N   0  0  0  0  0  0  0  0  0  0  0  0
   56.7090   28.9390   45.0990 C   0  0  0  0  0  0  0  0  0  0  0  0
   57.8960   29.3950   45.6910 C   0  0  0  0  0  0  0  0  0  0  0  0
   58.4640   30.6110   45.2990 C   0  0  0  0  0  0  0  0  0  0  0  0
   57.8420   31.3980   44.3170 C   0  0  0  0  0  0  0  0  0  0  0  0
   58.4560   32.7010   43.8760 C   0  0  0  0  0  0  0  0  0  0  0  0
   57.8190   33.8440   44.5720 N   0  0  0  0  0  0  0  0  0  0  0  0
   58.7780   34.9230   44.8910 C   0  0  0  0  0  0  0  0  0  0  0  0
   59.7350   34.5300   46.0410 C   0  0  0  0  0  0  0  0  0  0  0  0
   59.3000   33.3890   46.7610 O   0  0  0  0  0  0  0  0  0  0  0  0
   57.9280   33.5070   47.0660 C   0  0  0  0  0  0  0  0  0  0  0  0
   57.0750   33.4240   45.7830 C   0  0  0  0  0  0  0  0  0  0  0  0
   56.6450   30.9540   43.7360 C   0  0  0  0  0  0  0  0  0  0  0  0
   56.0780   29.7380   44.1280 C   0  0  0  0  0  0  0  0  0  0  0  0
   58.5740   24.0327   45.6912 H   0  0  0  0  0  0  0  0  0  0  0  0
   58.3084   22.3475   43.6783 H   0  0  0  0  0  0  0  0  0  0  0  0
   54.3069   24.4604   44.8120 H   0  0  0  0  0  0  0  0  0  0  0  0
   55.1580   27.4730   45.2400 H   0  0  0  0  0  0  0  0  0  0  0  0
   58.3840   28.7910   46.4701 H   0  0  0  0  0  0  0  0  0  0  0  0
   59.4017   30.9522   45.7618 H   0  0  0  0  0  0  0  0  0  0  0  0
   59.5310   32.6904   44.1089 H   0  0  0  0  0  0  0  0  0  0  0  0
   58.3005   32.8159   42.7931 H   0  0  0  0  0  0  0  0  0  0  0  0
   59.3742   35.1444   43.9935 H   0  0  0  0  0  0  0  0  0  0  0  0
   58.2025   35.8027   45.2150 H   0  0  0  0  0  0  0  0  0  0  0  0
   60.7264   34.3177   45.6143 H   0  0  0  0  0  0  0  0  0  0  0  0
   59.7625   35.3728   46.7474 H   0  0  0  0  0  0  0  0  0  0  0  0
   57.6379   32.6924   47.7458 H   0  0  0  0  0  0  0  0  0  0  0  0
   57.7545   34.4826   47.5435 H   0  0  0  0  0  0  0  0  0  0  0  0
   56.7424   32.3841   45.6484 H   0  0  0  0  0  0  0  0  0  0  0  0
   56.2247   34.1111   45.9049 H   0  0  0  0  0  0  0  0  0  0  0  0
   56.1498   31.5660   42.9677 H   0  0  0  0  0  0  0  0  0  0  0  0
   55.1331   29.4039   43.6747 H   0  0  0  0  0  0  0  0  0  0  0  0
  1  2  2  0
  2  3  1  0
  3  4  1  0
  4  5  1  0
  5  6  2  0
  6  7  1  0
  7  8  1  0
  2  9  1  0
  9 10  1  0
 10 11  2  0
 11 12  1  0
 12 13  2  0
 13 14  1  0
 14 15  1  0
 15 16  1  0
 16 17  1  0
 17 18  1  0
 18 19  1  0
 19 20  1  0
 13 21  1  0
 21 22  2  0
  8  4  2  0
 22 10  1  0
 20 15  1  0
  5 23  1  0
  6 24  1  0
  8 25  1  0
  9 26  1  0
 11 27  1  0
 12 28  1  0
 14 29  1  0
 14 30  1  0
 16 31  1  0
 16 32  1  0
 17 33  1  0
 17 34  1  0
 19 35  1  0
 19 36  1  0
 20 37  1  0
 20 38  1  0
 21 39  1  0
 22 40  1  0
M  CHG  1   3  -1
M  END
>  <UniqueID>  (71) 
59

>  <SMILES>  (71) 
O=C([N-]c1ccsc1)Nc1ccc(CN2CCOCC2)cc1

>  <Energy>  (71) 
85.08732519089935

>  <Genealogy>  (71) 
O=C([N-]c1ccsc1)Nc1ccc(CN2CCOCC2)cc1 (protonated)
O=C([N-]c1ccsc1)Nc1ccc(CN2CCOCC2)cc1 (3D coordinates assigned)
O=C([N-]c1ccsc1)Nc1ccc(CN2CCOCC2)cc1 (nonaromatic ring conformer: 85.08732519089935 kcal/mol)

>  <smiles>  (71) 
O=C(Nc1ccc(CN2CCOCC2)cc1)Nc1ccsc1

>  <score_type>  (71) 
oracle

>  <origin>  (71) 
adg

>  <m_score__min__energy>  (71) 
-9.3000000000000007

>  <m_primary>  (71) 
energy

$$$$
71:0
     RDKit          3D

 35 37  0  0  0  0  0  0  0  0999 V2000
   63.3840   33.4620   46.7570 C   0  0  0  0  0  0  0  0  0  0  0  0
   62.3000   33.1850   47.6370 O   0  0  0  0  0  0  0  0  0  0  0  0
   60.9480   33.3320   47.2910 C   0  0  0  0  0  0  0  0  0  0  0  0
   60.2850   34.5800   47.2950 C   0  0  0  0  0  0  0  0  0  0  0  0
   58.9250   34.6660   46.9380 C   0  0  0  0  0  0  0  0  0  0  0  0
   58.2080   33.5150   46.5750 C   0  0  0  0  0  0  0  0  0  0  0  0
   58.8670   32.2840   46.5730 C   0  0  0  0  0  0  0  0  0  0  0  0
   58.3010   31.0490   46.2390 C   0  0  0  0  0  0  0  0  0  0  0  0
   59.2150   29.9930   46.3240 C   0  0  0  0  0  0  0  0  0  0  0  0
   58.9090   28.5630   46.0660 C   0  0  0  0  0  0  0  0  0  0  0  0
   59.0870   27.6250   47.0990 C   0  0  0  0  0  0  0  0  0  0  0  0
   58.8210   26.2720   46.8860 C   0  0  0  0  0  0  0  0  0  0  0  0
   58.3730   25.8360   45.6410 C   0  0  0  0  0  0  0  0  0  0  0  0
   58.1840   26.7520   44.6050 C   0  0  0  0  0  0  0  0  0  0  0  0
   58.4420   28.1240   44.8040 C   0  0  0  0  0  0  0  0  0  0  0  0
   58.2260   29.0680   43.7850 O   0  0  0  0  0  0  0  0  0  0  0  0
   56.9660   29.3820   43.1920 C   0  0  0  0  0  0  0  0  0  0  0  0
   56.0060   29.8780   44.2270 C   0  0  0  0  0  0  0  0  0  0  0  0
   55.9850   31.0980   44.5380 O   0  0  0  0  0  0  0  0  0  0  0  0
   55.1620   28.9860   44.8770 O   0  0  0  0  0  0  0  0  0  0  0  0
   60.7130   30.6100   46.8270 S   0  0  0  0  0  0  0  0  0  0  0  0
   60.2070   32.2080   46.9250 C   0  0  0  0  0  0  0  0  0  0  0  0
   64.2844   33.6921   47.3455 H   0  0  0  0  0  0  0  0  0  0  0  0
   63.5750   32.5838   46.1227 H   0  0  0  0  0  0  0  0  0  0  0  0
   63.1303   34.3242   46.1227 H   0  0  0  0  0  0  0  0  0  0  0  0
   60.8343   35.4899   47.5786 H   0  0  0  0  0  0  0  0  0  0  0  0
   58.4205   35.6435   46.9437 H   0  0  0  0  0  0  0  0  0  0  0  0
   57.1458   33.5817   46.2970 H   0  0  0  0  0  0  0  0  0  0  0  0
   57.2497   30.9217   45.9413 H   0  0  0  0  0  0  0  0  0  0  0  0
   59.4396   27.9617   48.0851 H   0  0  0  0  0  0  0  0  0  0  0  0
   58.9652   25.5487   47.7021 H   0  0  0  0  0  0  0  0  0  0  0  0
   58.1679   24.7682   45.4742 H   0  0  0  0  0  0  0  0  0  0  0  0
   57.8306   26.4005   43.6244 H   0  0  0  0  0  0  0  0  0  0  0  0
   57.1097   30.1613   42.4291 H   0  0  0  0  0  0  0  0  0  0  0  0
   56.5534   28.4716   42.7328 H   0  0  0  0  0  0  0  0  0  0  0  0
  1  2  1  0
  2  3  1  0
  3  4  2  0
  4  5  1  0
  5  6  2  0
  6  7  1  0
  7  8  1  0
  8  9  2  0
  9 10  1  0
 10 11  2  0
 11 12  1  0
 12 13  2  0
 13 14  1  0
 14 15  2  0
 15 16  1  0
 16 17  1  0
 17 18  1  0
 18 19  2  0
 18 20  1  0
  9 21  1  0
 21 22  1  0
 22  3  1  0
 22  7  2  0
 15 10  1  0
  1 23  1  0
  1 24  1  0
  1 25  1  0
  4 26  1  0
  5 27  1  0
  6 28  1  0
  8 29  1  0
 11 30  1  0
 12 31  1  0
 13 32  1  0
 14 33  1  0
 17 34  1  0
 17 35  1  0
M  CHG  1  20  -1
M  END
>  <UniqueID>  (72) 
60

>  <SMILES>  (72) 
COc1cccc2cc(-c3ccccc3OCC(=O)[O-])sc12

>  <Energy>  (72) 
71.40925452794833

>  <Genealogy>  (72) 
COc1cccc2cc(-c3ccccc3OCC(=O)[O-])sc12 (protonated)
COc1cccc2cc(-c3ccccc3OCC(=O)[O-])sc12 (3D coordinates assigned)
COc1cccc2cc(-c3ccccc3OCC(=O)[O-])sc12 (optimized conformer: 71.40925452794833 kcal/mol)

>  <smiles>  (72) 
COc1cccc2cc(-c3ccccc3OCC(=O)O)sc12

>  <score_type>  (72) 
oracle

>  <origin>  (72) 
adg

>  <m_score__min__energy>  (72) 
-9.5999999999999996

>  <m_primary>  (72) 
energy

$$$$
72:0
     RDKit          3D

 59 63  0  0  0  0  0  0  0  0999 V2000
   52.4507   30.4546   50.3402 H   0  0  0  0  0  0  0  0  0  0  0  0
   52.3790   31.2600   51.0860 C   0  0  0  0  0  0  0  0  0  0  0  0
   51.4010   32.3380   50.8760 C   0  0  0  0  0  0  0  0  0  0  0  0
   51.0250   32.6610   49.7190 O   0  0  0  0  0  0  0  0  0  0  0  0
   50.8910   33.0180   51.9710 O   0  0  0  0  0  0  0  0  0  0  0  0
   53.1840   31.2260   52.1530 C   0  0  0  0  0  0  0  0  0  0  0  0
   52.8155   31.6266   53.1089 H   0  0  0  0  0  0  0  0  0  0  0  0
   54.5490   30.6700   52.0930 C   0  0  0  0  0  0  0  0  0  0  0  0
   54.7270   29.4250   51.9670 O   0  0  0  0  0  0  0  0  0  0  0  0
   55.6790   31.5510   52.1940 N   0  0  0  0  0  0  0  0  0  0  0  0
   55.5150   32.5390   52.4960 H   0  0  0  0  0  0  0  0  0  0  0  0
   57.0290   31.0620   52.2030 C   0  0  0  0  0  0  0  0  0  0  0  0
   57.2380   29.6860   52.3500 C   0  0  0  0  0  0  0  0  0  0  0  0
   56.3770   29.0162   52.4914 H   0  0  0  0  0  0  0  0  0  0  0  0
   58.5230   29.1580   52.3190 C   0  0  0  0  0  0  0  0  0  0  0  0
   58.6715   28.0742   52.4349 H   0  0  0  0  0  0  0  0  0  0  0  0
   59.6250   29.9930   52.1420 C   0  0  0  0  0  0  0  0  0  0  0  0
   60.6351   29.5591   52.1039 H   0  0  0  0  0  0  0  0  0  0  0  0
   59.4600   31.3890   52.0110 C   0  0  0  0  0  0  0  0  0  0  0  0
   60.5700   32.2620   51.8400 C   0  0  0  0  0  0  0  0  0  0  0  0
   62.2330   31.6680   51.6780 S   0  0  0  0  0  0  0  0  0  0  0  0
   63.1930   32.7350   52.1250 O   0  0  0  0  0  0  0  0  0  0  0  0
   62.3950   30.4370   52.5240 O   0  0  0  0  0  0  0  0  0  0  0  0
   62.5670   31.2570   50.0250 N   0  0  0  0  0  0  0  0  0  0  0  0
   62.3730   32.1290   48.9060 C   0  0  0  0  0  0  0  0  0  0  0  0
   63.3760   32.2030   47.9300 C   0  0  0  0  0  0  0  0  0  0  0  0
   64.2723   31.5714   48.0180 H   0  0  0  0  0  0  0  0  0  0  0  0
   63.2440   33.0750   46.8450 C   0  0  0  0  0  0  0  0  0  0  0  0
   64.0391   33.1327   46.0870 H   0  0  0  0  0  0  0  0  0  0  0  0
   62.1040   33.8730   46.7220 C   0  0  0  0  0  0  0  0  0  0  0  0
   62.0075   34.5668   45.8739 H   0  0  0  0  0  0  0  0  0  0  0  0
   61.0840   33.7900   47.6780 C   0  0  0  0  0  0  0  0  0  0  0  0
   59.6170   34.8090   47.5170 S   0  0  0  0  0  0  0  0  0  0  0  0
   58.8500   33.6740   46.3600 C   0  0  0  0  0  0  0  0  0  0  0  0
   58.3490   34.1530   45.1440 C   0  0  0  0  0  0  0  0  0  0  0  0
   58.4149   35.2258   44.9101 H   0  0  0  0  0  0  0  0  0  0  0  0
   57.7660   33.2770   44.2260 C   0  0  0  0  0  0  0  0  0  0  0  0
   57.3807   33.6601   43.2695 H   0  0  0  0  0  0  0  0  0  0  0  0
   57.6710   31.9090   44.5220 C   0  0  0  0  0  0  0  0  0  0  0  0
   57.0890   31.0170   43.6080 C   0  0  0  0  0  0  0  0  0  0  0  0
   56.7028   31.3895   42.6477 H   0  0  0  0  0  0  0  0  0  0  0  0
   56.9990   29.6570   43.9150 C   0  0  0  0  0  0  0  0  0  0  0  0
   56.5427   28.9616   43.1952 H   0  0  0  0  0  0  0  0  0  0  0  0
   57.4870   29.1770   45.1340 C   0  0  0  0  0  0  0  0  0  0  0  0
   57.4112   28.1054   45.3704 H   0  0  0  0  0  0  0  0  0  0  0  0
   58.0710   30.0530   46.0540 C   0  0  0  0  0  0  0  0  0  0  0  0
   58.4547   29.6696   47.0110 H   0  0  0  0  0  0  0  0  0  0  0  0
   58.1680   31.4220   45.7570 C   0  0  0  0  0  0  0  0  0  0  0  0
   58.7570   32.3120   46.6700 C   0  0  0  0  0  0  0  0  0  0  0  0
   59.1454   31.9387   47.6291 H   0  0  0  0  0  0  0  0  0  0  0  0
   61.2150   32.9160   48.7650 C   0  0  0  0  0  0  0  0  0  0  0  0
   60.4098   32.8447   49.5110 H   0  0  0  0  0  0  0  0  0  0  0  0
   60.3510   33.6460   51.7770 C   0  0  0  0  0  0  0  0  0  0  0  0
   61.2066   34.3256   51.6501 H   0  0  0  0  0  0  0  0  0  0  0  0
   59.0650   34.1710   51.8730 C   0  0  0  0  0  0  0  0  0  0  0  0
   58.9151   35.2601   51.8363 H   0  0  0  0  0  0  0  0  0  0  0  0
   57.9690   33.3270   52.0150 C   0  0  0  0  0  0  0  0  0  0  0  0
   56.9579   33.7541   52.0873 H   0  0  0  0  0  0  0  0  0  0  0  0
   58.1420   31.9310   52.0670 C   0  0  0  0  0  0  0  0  0  0  0  0
  1  2  1  0
  2  3  1  0
  3  4  2  0
  3  5  1  0
  2  6  2  0
  6  7  1  0
  6  8  1  0
  8  9  2  0
  8 10  1  0
 10 11  1  0
 10 12  1  0
 12 13  2  0
 13 14  1  0
 13 15  1  0
 15 16  1  0
 15 17  2  0
 17 18  1  0
 17 19  1  0
 19 20  2  0
 20 21  1  0
 21 22  2  0
 21 23  2  0
 21 24  1  0
 24 25  1  0
 25 26  2  0
 26 27  1  0
 26 28  1  0
 28 29  1  0
 28 30  2  0
 30 31  1  0
 30 32  1  0
 32 33  1  0
 33 34  1  0
 34 35  2  0
 35 36  1  0
 35 37  1  0
 37 38  1  0
 37 39  2  0
 39 40  1  0
 40 41  1  0
 40 42  2  0
 42 43  1  0
 42 44  1  0
 44 45  1  0
 44 46  2  0
 46 47  1  0
 46 48  1  0
 48 49  2  0
 49 50  1  0
 32 51  2  0
 51 52  1  0
 20 53  1  0
 53 54  1  0
 53 55  2  0
 55 56  1  0
 55 57  1  0
 57 58  1  0
 57 59  2  0
 59 12  1  0
 59 19  1  0
 51 25  1  0
 49 34  1  0
 48 39  1  0
M  CHG  2   5  -1  24  -1
M  END
>  <UniqueID>  (73) 
61

>  <SMILES>  (73) 
O=C([O-])/C=C/C(=O)Nc1cccc2c(S(=O)(=O)[N-]c3cccc(Sc4ccc5ccccc5c4)c3)cccc12

>  <Energy>  (73) 
79.37430825789315

>  <Genealogy>  (73) 
O=C([O-])C=CC(=O)Nc1cccc2c(S(=O)(=O)[N-]c3cccc(Sc4ccc5ccccc5c4)c3)cccc12 (protonated)
O=C([O-])/C=C/C(=O)Nc1cccc2c(S(=O)(=O)[N-]c3cccc(Sc4ccc5ccccc5c4)c3)cccc12 (cis-trans isomerization)
O=C([O-])/C=C/C(=O)Nc1cccc2c(S(=O)(=O)[N-]c3cccc(Sc4ccc5ccccc5c4)c3)cccc12 (3D coordinates assigned)
O=C([O-])/C=C/C(=O)Nc1cccc2c(S(=O)(=O)[N-]c3cccc(Sc4ccc5ccccc5c4)c3)cccc12 (optimized conformer: 79.37430825789315 kcal/mol)

>  <smiles>  (73) 
O=C(O)C=CC(=O)Nc1cccc2c(S(=O)(=O)Nc3cccc(Sc4ccc5ccccc5c4)c3)cccc12

>  <score_type>  (73) 
oracle

>  <origin>  (73) 
adg

>  <m_score__min__energy>  (73) 
-16.390000000000001

>  <m_primary>  (73) 
energy

$$$$
73:0
     RDKit          3D

 38 39  0  0  0  0  0  0  0  0999 V2000
   58.0400   30.1530   43.7460 C   0  0  0  0  0  0  0  0  0  0  0  0
   56.2850   30.2380   44.0330 S   0  0  0  0  0  0  0  0  0  0  0  0
   55.5760   30.0780   42.7190 O   0  0  0  0  0  0  0  0  0  0  0  0
   55.9120   31.5710   44.6180 O   0  0  0  0  0  0  0  0  0  0  0  0
   55.7900   28.9570   45.0950 N   0  0  0  0  0  0  0  0  0  0  0  0
   56.6720   27.9570   45.6460 C   0  0  0  0  0  0  0  0  0  0  0  0
   58.0580   28.1760   45.7590 C   0  0  0  0  0  0  0  0  0  0  0  0
   58.8960   27.2060   46.3300 C   0  0  0  0  0  0  0  0  0  0  0  0
   60.3640   27.4930   46.5210 C   0  0  0  0  0  0  0  0  0  0  0  0
   60.6870   28.8840   46.1590 N   0  0  0  0  0  0  0  0  0  0  0  0
   60.7010   29.7850   47.3240 C   0  0  0  0  0  0  0  0  0  0  0  0
   60.1050   31.1240   46.9730 C   0  0  0  0  0  0  0  0  0  0  0  0
   60.9290   32.2470   46.7870 C   0  0  0  0  0  0  0  0  0  0  0  0
   60.3650   33.4990   46.5240 C   0  0  0  0  0  0  0  0  0  0  0  0
   58.9770   33.6370   46.4310 C   0  0  0  0  0  0  0  0  0  0  0  0
   58.1520   32.5210   46.5940 C   0  0  0  0  0  0  0  0  0  0  0  0
   58.7120   31.2670   46.8580 C   0  0  0  0  0  0  0  0  0  0  0  0
   58.3500   25.9880   46.7550 C   0  0  0  0  0  0  0  0  0  0  0  0
   56.9800   25.7520   46.6400 C   0  0  0  0  0  0  0  0  0  0  0  0
   56.2630   24.0920   47.2660 Br  0  0  0  0  0  0  0  0  0  0  0  0
   56.1400   26.7310   46.0930 C   0  0  0  0  0  0  0  0  0  0  0  0
   54.7740   26.4850   46.0000 O   0  0  0  0  0  0  0  0  0  0  0  0
   58.5684   30.1274   44.7104 H   0  0  0  0  0  0  0  0  0  0  0  0
   58.2745   29.2424   43.1751 H   0  0  0  0  0  0  0  0  0  0  0  0
   58.3614   31.0366   43.1751 H   0  0  0  0  0  0  0  0  0  0  0  0
   54.7800   28.9480   45.3590 H   0  0  0  0  0  0  0  0  0  0  0  0
   58.4898   29.1199   45.3949 H   0  0  0  0  0  0  0  0  0  0  0  0
   60.6278   27.3264   47.5758 H   0  0  0  0  0  0  0  0  0  0  0  0
   60.9381   26.8207   45.8664 H   0  0  0  0  0  0  0  0  0  0  0  0
   61.6540   28.8780   45.7570 H   0  0  0  0  0  0  0  0  0  0  0  0
   60.1153   29.3317   48.1373 H   0  0  0  0  0  0  0  0  0  0  0  0
   61.7437   29.9355   47.6404 H   0  0  0  0  0  0  0  0  0  0  0  0
   62.0221   32.1406   46.8486 H   0  0  0  0  0  0  0  0  0  0  0  0
   61.0144   34.3767   46.3901 H   0  0  0  0  0  0  0  0  0  0  0  0
   58.5344   34.6237   46.2296 H   0  0  0  0  0  0  0  0  0  0  0  0
   57.0602   32.6290   46.5145 H   0  0  0  0  0  0  0  0  0  0  0  0
   58.0595   30.3894   46.9761 H   0  0  0  0  0  0  0  0  0  0  0  0
   59.0048   25.2139   47.1815 H   0  0  0  0  0  0  0  0  0  0  0  0
  1  2  1  0
  2  3  2  0
  2  4  2  0
  2  5  1  0
  5  6  1  0
  6  7  2  0
  7  8  1  0
  8  9  1  0
  9 10  1  0
 10 11  1  0
 11 12  1  0
 12 13  2  0
 13 14  1  0
 14 15  2  0
 15 16  1  0
 16 17  2  0
  8 18  2  0
 18 19  1  0
 19 20  1  0
 19 21  2  0
 21 22  1  0
 21  6  1  0
 17 12  1  0
  1 23  1  0
  1 24  1  0
  1 25  1  0
  5 26  1  0
  7 27  1  0
  9 28  1  0
  9 29  1  0
 10 30  1  0
 11 31  1  0
 11 32  1  0
 13 33  1  0
 14 34  1  0
 15 35  1  0
 16 36  1  0
 17 37  1  0
 18 38  1  0
M  CHG  1  22  -1
M  END
>  <UniqueID>  (74) 
62

>  <SMILES>  (74) 
CS(=O)(=O)Nc1cc(CNCc2ccccc2)cc(Br)c1[O-]

>  <Energy>  (74) 
33.6767411506805

>  <Genealogy>  (74) 
CS(=O)(=O)Nc1cc(CNCc2ccccc2)cc(Br)c1[O-] (protonated)
CS(=O)(=O)Nc1cc(CNCc2ccccc2)cc(Br)c1[O-] (3D coordinates assigned)
CS(=O)(=O)Nc1cc(CNCc2ccccc2)cc(Br)c1[O-] (optimized conformer: 33.6767411506805 kcal/mol)

>  <smiles>  (74) 
CS(=O)(=O)Nc1cc(CNCc2ccccc2)cc(Br)c1O

>  <score_type>  (74) 
oracle

>  <origin>  (74) 
adg

>  <m_score__min__energy>  (74) 
-11.550000000000001

>  <m_primary>  (74) 
energy

$$$$
74:0
     RDKit          3D

 53 56  0  0  1  0  0  0  0  0999 V2000
   60.3780   28.7890   45.2130 C   0  0  0  0  0  0  0  0  0  0  0  0
   58.9730   28.6780   45.3060 O   0  0  0  0  0  0  0  0  0  0  0  0
   58.3300   27.5330   45.7700 C   0  0  0  0  0  0  0  0  0  0  0  0
   59.0270   26.4920   46.3470 C   0  0  0  0  0  0  0  0  0  0  0  0
   58.3430   25.3690   46.7960 C   0  0  0  0  0  0  0  0  0  0  0  0
   56.9780   25.2520   46.6880 C   0  0  0  0  0  0  0  0  0  0  0  0
   56.2750   26.3070   46.1040 C   0  0  0  0  0  0  0  0  0  0  0  0
   54.8940   26.2130   45.9820 O   0  0  0  0  0  0  0  0  0  0  0  0
   54.2270   25.0110   45.6140 C   0  0  0  0  0  0  0  0  0  0  0  0
   56.9600   27.4380   45.6510 C   0  0  0  0  0  0  0  0  0  0  0  0
   56.1550   28.4600   45.0720 N   0  0  0  0  0  0  0  0  0  0  0  0
   56.6770   29.7400   44.7600 C   0  0  0  0  0  0  0  0  0  0  0  0
   56.6820   30.1440   43.4420 C   0  0  0  0  0  0  0  0  0  0  0  0
   57.1730   31.3550   43.1260 N   0  0  0  0  0  0  0  0  0  0  0  0
   57.6380   32.1150   44.1140 C   0  0  0  0  0  0  0  0  0  0  0  0
   58.1360   33.3290   43.8470 N   0  0  0  0  0  0  0  0  0  0  0  0
   58.6160   34.1230   44.8310 C   0  0  0  0  0  0  0  0  0  0  0  0
   59.0880   35.2910   44.5130 N   0  0  0  0  0  0  0  0  0  0  0  0
   58.6220   33.7540   46.1170 N   0  0  0  0  0  0  0  0  0  0  0  0
   58.1230   32.5290   46.4270 C   0  0  0  0  0  0  0  0  0  0  0  0
   58.1380   32.1930   47.6580 N   0  0  0  0  0  0  0  0  0  0  0  0
   59.2910   31.5900   48.2340 C   0  0  0  0  0  0  0  0  0  0  0  0
   59.1720   30.3600   48.8890 C   0  0  0  0  0  0  0  0  0  0  0  0
   60.2690   29.7440   49.4600 C   0  0  0  0  0  0  0  0  0  0  0  0
   61.5120   30.3740   49.3740 C   0  0  0  0  0  0  0  0  0  0  0  0
   61.6250   31.6010   48.7190 C   0  0  0  0  0  0  0  0  0  0  0  0
   63.2480   32.3080   48.6700 S   0  0  0  0  0  0  0  0  0  0  0  0
   63.9300   32.0690   47.1040 N   0  0  0  0  0  0  0  0  0  0  0  0
   64.0600   31.5750   49.7000 O   0  0  0  0  0  0  0  0  0  0  0  0
   63.1960   33.7400   49.0420 O   0  0  0  0  0  0  0  0  0  0  0  0
   60.5470   32.2040   48.1590 C   0  0  0  0  0  0  0  0  0  0  0  0
   57.6320   31.7090   45.4330 C   0  0  0  0  0  0  0  0  0  0  0  0
   57.1440   30.5010   45.7670 N   0  0  0  0  0  0  0  0  0  0  0  0
   60.8108   28.8232   46.2237 H   0  0  0  0  0  0  0  0  0  0  0  0
   60.7794   27.9198   44.6714 H   0  0  0  0  0  0  0  0  0  0  0  0
   60.6380   29.7105   44.6714 H   0  0  0  0  0  0  0  0  0  0  0  0
   60.1205   26.5506   46.4513 H   0  0  0  0  0  0  0  0  0  0  0  0
   58.9128   24.5465   47.2530 H   0  0  0  0  0  0  0  0  0  0  0  0
   56.4555   24.3545   47.0506 H   0  0  0  0  0  0  0  0  0  0  0  0
   53.9250   24.4668   46.5210 H   0  0  0  0  0  0  0  0  0  0  0  0
   53.3349   25.2543   45.0183 H   0  0  0  0  0  0  0  0  0  0  0  0
   54.9055   24.3828   45.0183 H   0  0  0  0  0  0  0  0  0  0  0  0
   55.1540   28.2050   44.8910 H   0  0  0  0  0  0  0  0  0  0  0  0
   56.2882   29.4821   42.6566 H   0  0  0  0  0  0  0  0  0  0  0  0
   58.1620   33.6780   42.8700 H   0  0  0  0  0  0  0  0  0  0  0  0
   58.4650   36.0710   44.2510 H   0  0  0  0  0  0  0  0  0  0  0  0
   58.9890   34.3660   46.8610 H   0  0  0  0  0  0  0  0  0  0  0  0
   58.1870   29.8742   48.9507 H   0  0  0  0  0  0  0  0  0  0  0  0
   60.1651   28.7762   49.9723 H   0  0  0  0  0  0  0  0  0  0  0  0
   62.4002   29.9042   49.8216 H   0  0  0  0  0  0  0  0  0  0  0  0
   64.4480   31.1610   47.0410 H   0  0  0  0  0  0  0  0  0  0  0  0
   64.5330   32.8430   46.8070 H   0  0  0  0  0  0  0  0  0  0  0  0
   60.6590   33.1716   47.6479 H   0  0  0  0  0  0  0  0  0  0  0  0
  1  2  1  0
  2  3  1  0
  3  4  2  0
  4  5  1  0
  5  6  2  0
  6  7  1  0
  7  8  1  0
  8  9  1  0
  7 10  2  0
 10 11  1  0
 11 12  1  0
 12 13  2  0
 13 14  1  0
 14 15  2  0
 15 16  1  0
 16 17  1  0
 17 18  2  3
 17 19  1  0
 19 20  1  0
 20 21  2  0
 21 22  1  0
 22 23  2  0
 23 24  1  0
 24 25  2  0
 25 26  1  0
 26 27  1  0
 27 28  1  0
 27 29  2  0
 27 30  2  0
 26 31  2  0
 20 32  1  0
 32 33  2  0
 10  3  1  0
 33 12  1  0
 32 15  1  0
 31 22  1  0
  1 34  1  0
  1 35  1  0
  1 36  1  0
  4 37  1  0
  5 38  1  0
  6 39  1  0
  9 40  1  0
  9 41  1  0
  9 42  1  0
 11 43  1  0
 13 44  1  0
 16 45  1  0
 18 46  1  0
 19 47  1  0
 23 48  1  0
 24 49  1  0
 25 50  1  0
 28 51  1  0
 28 52  1  0
 31 53  1  0
M  END
>  <smiles>  (75) 
COc1cccc(OC)c1Nc1cnc2[nH]c(=N)[nH]c(=Nc3cccc(S(N)(=O)=O)c3)c2n1

>  <score_type>  (75) 
oracle

>  <origin>  (75) 
adg

>  <m_score__min__energy>  (75) 
-9.5700000000000003

>  <m_primary>  (75) 
energy

$$$$
75:0
     RDKit          3D

 45 47  0  0  0  0  0  0  0  0999 V2000
   56.2210   29.7960   52.7170 C   0  0  0  0  0  0  0  0  0  0  0  0
   57.1430   30.7730   52.0600 C   0  0  0  0  0  0  0  0  0  0  0  0
   57.3910   32.0200   52.6440 C   0  0  0  0  0  0  0  0  0  0  0  0
   58.2230   32.9190   51.9700 C   0  0  0  0  0  0  0  0  0  0  0  0
   58.5160   34.2640   52.5530 C   0  0  0  0  0  0  0  0  0  0  0  0
   58.7620   32.5670   50.7730 N   0  0  0  0  0  0  0  0  0  0  0  0
   58.5140   31.3500   50.2160 C   0  0  0  0  0  0  0  0  0  0  0  0
   59.0070   31.0270   49.0550 N   0  0  0  0  0  0  0  0  0  0  0  0
   60.0560   31.7240   48.3590 C   0  0  0  0  0  0  0  0  0  0  0  0
   60.3050   31.3890   46.9820 N   0  0  0  0  0  0  0  0  0  0  0  0
   59.2730   30.9690   46.0750 C   0  0  0  0  0  0  0  0  0  0  0  0
   58.2800   31.8800   45.6870 C   0  0  0  0  0  0  0  0  0  0  0  0
   57.2600   31.4880   44.8170 C   0  0  0  0  0  0  0  0  0  0  0  0
   57.2120   30.1780   44.3300 C   0  0  0  0  0  0  0  0  0  0  0  0
   55.9160   29.7250   43.2310 Cl  0  0  0  0  0  0  0  0  0  0  0  0
   58.1870   29.2500   44.7300 C   0  0  0  0  0  0  0  0  0  0  0  0
   58.1540   27.5880   44.1570 Cl  0  0  0  0  0  0  0  0  0  0  0  0
   59.2070   29.6450   45.6040 C   0  0  0  0  0  0  0  0  0  0  0  0
   60.8720   32.5090   49.0150 N   0  0  0  0  0  0  0  0  0  0  0  0
   62.1470   32.9550   48.5170 C   0  0  0  0  0  0  0  0  0  0  0  0
   62.3080   33.1380   47.2780 O   0  0  0  0  0  0  0  0  0  0  0  0
   63.2600   33.2640   49.4490 C   0  0  0  0  0  0  0  0  0  0  0  0
   64.5400   32.7180   49.2310 C   0  0  0  0  0  0  0  0  0  0  0  0
   65.5900   32.9990   50.1100 C   0  0  0  0  0  0  0  0  0  0  0  0
   65.3750   33.8230   51.2180 C   0  0  0  0  0  0  0  0  0  0  0  0
   64.1090   34.3630   51.4490 C   0  0  0  0  0  0  0  0  0  0  0  0
   63.0540   34.0850   50.5730 C   0  0  0  0  0  0  0  0  0  0  0  0
   57.6970   30.4730   50.8550 N   0  0  0  0  0  0  0  0  0  0  0  0
   56.3077   29.8878   53.8097 H   0  0  0  0  0  0  0  0  0  0  0  0
   55.1854   30.0072   52.4123 H   0  0  0  0  0  0  0  0  0  0  0  0
   56.4918   28.7743   52.4123 H   0  0  0  0  0  0  0  0  0  0  0  0
   56.9414   32.2871   53.6118 H   0  0  0  0  0  0  0  0  0  0  0  0
   58.5018   34.1987   53.6510 H   0  0  0  0  0  0  0  0  0  0  0  0
   59.5085   34.6003   52.2185 H   0  0  0  0  0  0  0  0  0  0  0  0
   57.7533   34.9827   52.2185 H   0  0  0  0  0  0  0  0  0  0  0  0
   61.2970   31.3360   46.6550 H   0  0  0  0  0  0  0  0  0  0  0  0
   58.3045   32.9107   46.0705 H   0  0  0  0  0  0  0  0  0  0  0  0
   56.4907   32.2133   44.5134 H   0  0  0  0  0  0  0  0  0  0  0  0
   59.9634   28.9137   45.9252 H   0  0  0  0  0  0  0  0  0  0  0  0
   60.5860   32.8610   49.9570 H   0  0  0  0  0  0  0  0  0  0  0  0
   64.7146   32.0657   48.3627 H   0  0  0  0  0  0  0  0  0  0  0  0
   66.5870   32.5709   49.9293 H   0  0  0  0  0  0  0  0  0  0  0  0
   66.2027   34.0458   51.9074 H   0  0  0  0  0  0  0  0  0  0  0  0
   63.9400   35.0094   52.3228 H   0  0  0  0  0  0  0  0  0  0  0  0
   62.0579   34.5107   50.7641 H   0  0  0  0  0  0  0  0  0  0  0  0
  1  2  1  0
  2  3  1  0
  3  4  2  0
  4  5  1  0
  4  6  1  0
  6  7  1  0
  7  8  2  3
  8  9  1  0
  9 10  1  0
 10 11  1  0
 11 12  2  0
 12 13  1  0
 13 14  2  0
 14 15  1  0
 14 16  1  0
 16 17  1  0
 16 18  2  0
  9 19  2  3
 19 20  1  0
 20 21  2  0
 20 22  1  0
 22 23  2  0
 23 24  1  0
 24 25  2  0
 25 26  1  0
 26 27  2  0
  7 28  1  0
 28  2  2  0
 18 11  1  0
 27 22  1  0
  1 29  1  0
  1 30  1  0
  1 31  1  0
  3 32  1  0
  5 33  1  0
  5 34  1  0
  5 35  1  0
 10 36  1  0
 12 37  1  0
 13 38  1  0
 18 39  1  0
 19 40  1  0
 23 41  1  0
 24 42  1  0
 25 43  1  0
 26 44  1  0
 27 45  1  0
M  CHG  2   6  -1  19   1
M  END
>  <UniqueID>  (76) 
63

>  <SMILES>  (76) 
Cc1cc(C)[n-]c(=NC(Nc2ccc(Cl)c(Cl)c2)=[NH+]C(=O)c2ccccc2)n1

>  <Energy>  (76) 
61.58792063948613

>  <Genealogy>  (76) 
Cc1cc(C)[n-]c(=NC(Nc2ccc(Cl)c(Cl)c2)=[NH+]C(=O)c2ccccc2)n1 (protonated)
Cc1cc(C)[n-]c(=NC(Nc2ccc(Cl)c(Cl)c2)=[NH+]C(=O)c2ccccc2)n1 (3D coordinates assigned)
Cc1cc(C)[n-]c(=NC(Nc2ccc(Cl)c(Cl)c2)=[NH+]C(=O)c2ccccc2)n1 (optimized conformer: 61.58792063948613 kcal/mol)

>  <smiles>  (76) 
Cc1cc(C)[nH]c(=NC(=NC(=O)c2ccccc2)Nc2ccc(Cl)c(Cl)c2)n1

>  <score_type>  (76) 
oracle

>  <origin>  (76) 
adg

>  <m_score__min__energy>  (76) 
-8.6500000000000004

>  <m_primary>  (76) 
energy

$$$$
76:0
     RDKit          3D

 41 44  0  0  0  0  0  0  0  0999 V2000
   57.7360   33.0220   48.2210 O   0  0  0  0  0  0  0  0  0  0  0  0
   58.9920   33.0760   48.3430 C   0  0  0  0  0  0  0  0  0  0  0  0
   59.5760   32.7100   49.5690 C   0  0  0  0  0  0  0  0  0  0  0  0
   58.7460   32.2950   50.7280 C   0  0  0  0  0  0  0  0  0  0  0  0
   58.1190   31.0360   50.7510 C   0  0  0  0  0  0  0  0  0  0  0  0
   57.3290   30.6600   51.8420 C   0  0  0  0  0  0  0  0  0  0  0  0
   57.1530   31.5390   52.9140 C   0  0  0  0  0  0  0  0  0  0  0  0
   57.7640   32.7950   52.8960 C   0  0  0  0  0  0  0  0  0  0  0  0
   58.5540   33.1750   51.8070 C   0  0  0  0  0  0  0  0  0  0  0  0
   60.9290   32.7180   49.6890 N   0  0  0  0  0  0  0  0  0  0  0  0
   61.7310   33.0860   48.6560 C   0  0  0  0  0  0  0  0  0  0  0  0
   63.1250   33.0810   48.8260 C   0  0  0  0  0  0  0  0  0  0  0  0
   63.9640   33.4510   47.7790 C   0  0  0  0  0  0  0  0  0  0  0  0
   63.4230   33.8280   46.5530 C   0  0  0  0  0  0  0  0  0  0  0  0
   62.0380   33.8410   46.3670 C   0  0  0  0  0  0  0  0  0  0  0  0
   61.1560   33.4720   47.4150 C   0  0  0  0  0  0  0  0  0  0  0  0
   59.7770   33.4700   47.2810 N   0  0  0  0  0  0  0  0  0  0  0  0
   59.0890   33.8450   46.0210 C   0  0  0  0  0  0  0  0  0  0  0  0
   58.6070   32.6170   45.2850 C   0  0  0  0  0  0  0  0  0  0  0  0
   58.8540   31.3310   45.7940 C   0  0  0  0  0  0  0  0  0  0  0  0
   58.3870   30.2000   45.1160 C   0  0  0  0  0  0  0  0  0  0  0  0
   57.6690   30.3440   43.9260 C   0  0  0  0  0  0  0  0  0  0  0  0
   57.4170   31.6180   43.4120 C   0  0  0  0  0  0  0  0  0  0  0  0
   57.8820   32.7500   44.0870 C   0  0  0  0  0  0  0  0  0  0  0  0
   58.2508   30.3436   49.9065 H   0  0  0  0  0  0  0  0  0  0  0  0
   56.8459   29.6719   51.8563 H   0  0  0  0  0  0  0  0  0  0  0  0
   56.5329   31.2416   53.7725 H   0  0  0  0  0  0  0  0  0  0  0  0
   57.6233   33.4862   53.7401 H   0  0  0  0  0  0  0  0  0  0  0  0
   59.0277   34.1677   51.7945 H   0  0  0  0  0  0  0  0  0  0  0  0
   61.3610   32.4500   50.6040 H   0  0  0  0  0  0  0  0  0  0  0  0
   63.5566   32.7827   49.7929 H   0  0  0  0  0  0  0  0  0  0  0  0
   65.0549   33.4455   47.9203 H   0  0  0  0  0  0  0  0  0  0  0  0
   64.0889   34.1171   45.7266 H   0  0  0  0  0  0  0  0  0  0  0  0
   61.6253   34.1420   45.3928 H   0  0  0  0  0  0  0  0  0  0  0  0
   58.2262   34.4847   46.2582 H   0  0  0  0  0  0  0  0  0  0  0  0
   59.8009   34.3836   45.3783 H   0  0  0  0  0  0  0  0  0  0  0  0
   59.4179   31.2128   46.7311 H   0  0  0  0  0  0  0  0  0  0  0  0
   58.5852   29.1963   45.5201 H   0  0  0  0  0  0  0  0  0  0  0  0
   57.3022   29.4539   43.3939 H   0  0  0  0  0  0  0  0  0  0  0  0
   56.8520   31.7305   42.4749 H   0  0  0  0  0  0  0  0  0  0  0  0
   57.6797   33.7512   43.6788 H   0  0  0  0  0  0  0  0  0  0  0  0
  1  2  2  0
  2  3  1  0
  3  4  1  0
  4  5  2  0
  5  6  1  0
  6  7  2  0
  7  8  1  0
  8  9  2  0
  3 10  2  0
 10 11  1  0
 11 12  2  0
 12 13  1  0
 13 14  2  0
 14 15  1  0
 15 16  2  0
 16 17  1  0
 17 18  1  0
 18 19  1  0
 19 20  2  0
 20 21  1  0
 21 22  2  0
 22 23  1  0
 23 24  2  0
 17  2  1  0
 24 19  1  0
  9  4  1  0
 16 11  1  0
  5 25  1  0
  6 26  1  0
  7 27  1  0
  8 28  1  0
  9 29  1  0
 10 30  1  0
 12 31  1  0
 13 32  1  0
 14 33  1  0
 15 34  1  0
 18 35  1  0
 18 36  1  0
 20 37  1  0
 21 38  1  0
 22 39  1  0
 23 40  1  0
 24 41  1  0
M  CHG  1  10   1
M  END
>  <UniqueID>  (77) 
64

>  <SMILES>  (77) 
O=c1c(-c2ccccc2)[nH+]c2ccccc2n1Cc1ccccc1

>  <Energy>  (77) 
64.56907587377913

>  <Genealogy>  (77) 
O=c1c(-c2ccccc2)[nH+]c2ccccc2n1Cc1ccccc1 (protonated)
O=c1c(-c2ccccc2)[nH+]c2ccccc2n1Cc1ccccc1 (3D coordinates assigned)
O=c1c(-c2ccccc2)[nH+]c2ccccc2n1Cc1ccccc1 (optimized conformer: 64.56907587377913 kcal/mol)

>  <smiles>  (77) 
O=c1c(-c2ccccc2)nc2ccccc2n1Cc1ccccc1

>  <score_type>  (77) 
oracle

>  <origin>  (77) 
adg

>  <m_score__min__energy>  (77) 
-6.3399999999999999

>  <m_primary>  (77) 
energy

$$$$
77:0
     RDKit          3D

 32 33  0  0  0  0  0  0  0  0999 V2000
   59.5520   32.1890   45.9880 C   0  0  0  0  0  0  0  0  0  0  0  0
   58.3880   31.3140   45.5940 C   0  0  0  0  0  0  0  0  0  0  0  0
   58.3640   29.9400   45.9210 C   0  0  0  0  0  0  0  0  0  0  0  0
   59.4570   29.3190   46.6220 N   0  0  0  0  0  0  0  0  0  0  0  0
   59.2790   28.1330   47.4610 C   0  0  0  0  0  0  0  0  0  0  0  0
   59.7500   26.8660   46.7370 C   0  0  0  0  0  0  0  0  0  0  0  0
   58.5870   25.9830   46.3610 C   0  0  0  0  0  0  0  0  0  0  0  0
   58.8030   24.6440   45.9960 C   0  0  0  0  0  0  0  0  0  0  0  0
   57.7290   23.8390   45.6040 C   0  0  0  0  0  0  0  0  0  0  0  0
   56.4350   24.3650   45.5690 C   0  0  0  0  0  0  0  0  0  0  0  0
   56.2110   25.7020   45.9230 C   0  0  0  0  0  0  0  0  0  0  0  0
   54.9260   26.2410   45.8880 O   0  0  0  0  0  0  0  0  0  0  0  0
   57.2860   26.5090   46.3150 C   0  0  0  0  0  0  0  0  0  0  0  0
   57.2830   29.1890   45.5700 N   0  0  0  0  0  0  0  0  0  0  0  0
   56.2330   29.7250   44.9020 C   0  0  0  0  0  0  0  0  0  0  0  0
   55.2500   29.0030   44.5930 O   0  0  0  0  0  0  0  0  0  0  0  0
   56.2420   31.0370   44.5640 N   0  0  0  0  0  0  0  0  0  0  0  0
   57.2870   31.8400   44.8890 C   0  0  0  0  0  0  0  0  0  0  0  0
   57.2540   33.0540   44.5530 O   0  0  0  0  0  0  0  0  0  0  0  0
   59.6184   32.2389   47.0849 H   0  0  0  0  0  0  0  0  0  0  0  0
   60.4829   31.7651   45.5832 H   0  0  0  0  0  0  0  0  0  0  0  0
   59.4035   33.2010   45.5832 H   0  0  0  0  0  0  0  0  0  0  0  0
   60.4230   29.7030   46.5360 H   0  0  0  0  0  0  0  0  0  0  0  0
   59.8628   28.2563   48.3851 H   0  0  0  0  0  0  0  0  0  0  0  0
   58.2085   28.0258   47.6901 H   0  0  0  0  0  0  0  0  0  0  0  0
   60.2897   27.1556   45.8233 H   0  0  0  0  0  0  0  0  0  0  0  0
   60.4069   26.3029   47.4163 H   0  0  0  0  0  0  0  0  0  0  0  0
   59.8207   24.2271   46.0186 H   0  0  0  0  0  0  0  0  0  0  0  0
   57.9031   22.7899   45.3227 H   0  0  0  0  0  0  0  0  0  0  0  0
   55.5913   23.7288   45.2632 H   0  0  0  0  0  0  0  0  0  0  0  0
   54.7680   27.2370   45.9860 H   0  0  0  0  0  0  0  0  0  0  0  0
   57.1105   27.5600   46.5882 H   0  0  0  0  0  0  0  0  0  0  0  0
  1  2  1  0
  2  3  2  0
  3  4  1  0
  4  5  1  0
  5  6  1  0
  6  7  1  0
  7  8  2  0
  8  9  1  0
  9 10  2  0
 10 11  1  0
 11 12  1  0
 11 13  2  0
  3 14  1  0
 14 15  1  0
 15 16  2  0
 15 17  1  0
 17 18  1  0
 18 19  2  0
 18  2  1  0
 13  7  1  0
  1 20  1  0
  1 21  1  0
  1 22  1  0
  4 23  1  0
  5 24  1  0
  5 25  1  0
  6 26  1  0
  6 27  1  0
  8 28  1  0
  9 29  1  0
 10 30  1  0
 12 31  1  0
 13 32  1  0
M  CHG  2  14  -1  17  -1
M  END
>  <UniqueID>  (78) 
65

>  <SMILES>  (78) 
Cc1c(NCCc2cccc(O)c2)[n-]c(=O)[n-]c1=O

>  <Energy>  (78) 
29.766704400903446

>  <Genealogy>  (78) 
Cc1c(NCCc2cccc(O)c2)[n-]c(=O)[n-]c1=O (protonated)
Cc1c(NCCc2cccc(O)c2)[n-]c(=O)[n-]c1=O (3D coordinates assigned)
Cc1c(NCCc2cccc(O)c2)[n-]c(=O)[n-]c1=O (optimized conformer: 29.766704400903446 kcal/mol)

>  <smiles>  (78) 
Cc1c(NCCc2cccc(O)c2)[nH]c(=O)[nH]c1=O

>  <score_type>  (78) 
oracle

>  <origin>  (78) 
adg

>  <m_score__min__energy>  (78) 
-10.460000000000001

>  <m_primary>  (78) 
energy

$$$$
78:0
     RDKit          3D

 45 47  0  0  0  0  0  0  0  0999 V2000
   54.1100   24.8830   45.6230 C   0  0  0  0  0  0  0  0  0  0  0  0
   54.7220   26.1180   45.9800 O   0  0  0  0  0  0  0  0  0  0  0  0
   56.0850   26.2740   46.2730 C   0  0  0  0  0  0  0  0  0  0  0  0
   56.8390   25.2550   46.8920 C   0  0  0  0  0  0  0  0  0  0  0  0
   58.1940   25.4470   47.1670 C   0  0  0  0  0  0  0  0  0  0  0  0
   58.8100   26.6520   46.8330 C   0  0  0  0  0  0  0  0  0  0  0  0
   58.0770   27.6680   46.2170 C   0  0  0  0  0  0  0  0  0  0  0  0
   56.7120   27.4830   45.9250 C   0  0  0  0  0  0  0  0  0  0  0  0
   55.9470   28.4900   45.2450 N   0  0  0  0  0  0  0  0  0  0  0  0
   56.5180   29.4170   43.8930 S   0  0  0  0  0  0  0  0  0  0  0  0
   55.3450   29.8450   43.0580 O   0  0  0  0  0  0  0  0  0  0  0  0
   57.4340   28.5620   43.0630 O   0  0  0  0  0  0  0  0  0  0  0  0
   57.4140   30.8270   44.4580 C   0  0  0  0  0  0  0  0  0  0  0  0
   57.3930   32.0200   43.7230 C   0  0  0  0  0  0  0  0  0  0  0  0
   58.0680   33.1470   44.1970 C   0  0  0  0  0  0  0  0  0  0  0  0
   58.7630   33.0930   45.4090 C   0  0  0  0  0  0  0  0  0  0  0  0
   58.8010   31.8990   46.1550 C   0  0  0  0  0  0  0  0  0  0  0  0
   59.4900   31.8480   47.4680 C   0  0  0  0  0  0  0  0  0  0  0  0
   58.8870   31.3880   48.4770 O   0  0  0  0  0  0  0  0  0  0  0  0
   60.8510   32.2800   47.6030 N   0  0  0  0  0  0  0  0  0  0  0  0
   61.8420   31.3550   48.1590 C   0  0  0  0  0  0  0  0  0  0  0  0
   63.2370   31.9820   48.0980 C   0  0  0  0  0  0  0  0  0  0  0  0
   63.3970   32.6430   46.8610 O   0  0  0  0  0  0  0  0  0  0  0  0
   62.6260   33.8360   46.8260 C   0  0  0  0  0  0  0  0  0  0  0  0
   61.2000   33.6900   47.4090 C   0  0  0  0  0  0  0  0  0  0  0  0
   58.1290   30.7660   45.6620 C   0  0  0  0  0  0  0  0  0  0  0  0
   53.8369   24.3320   46.5350 H   0  0  0  0  0  0  0  0  0  0  0  0
   53.2054   25.0802   45.0291 H   0  0  0  0  0  0  0  0  0  0  0  0
   54.8149   24.2827   45.0291 H   0  0  0  0  0  0  0  0  0  0  0  0
   56.3563   24.3035   47.1596 H   0  0  0  0  0  0  0  0  0  0  0  0
   58.7761   24.6469   47.6476 H   0  0  0  0  0  0  0  0  0  0  0  0
   59.8767   26.8028   47.0554 H   0  0  0  0  0  0  0  0  0  0  0  0
   58.5682   28.6177   45.9585 H   0  0  0  0  0  0  0  0  0  0  0  0
   56.8439   32.0688   42.7711 H   0  0  0  0  0  0  0  0  0  0  0  0
   58.0528   34.0802   43.6149 H   0  0  0  0  0  0  0  0  0  0  0  0
   59.2829   33.9878   45.7819 H   0  0  0  0  0  0  0  0  0  0  0  0
   61.5873   31.1348   49.2062 H   0  0  0  0  0  0  0  0  0  0  0  0
   61.8382   30.4258   47.5703 H   0  0  0  0  0  0  0  0  0  0  0  0
   63.3511   32.7054   48.9188 H   0  0  0  0  0  0  0  0  0  0  0  0
   63.9995   31.1954   48.1971 H   0  0  0  0  0  0  0  0  0  0  0  0
   63.1572   34.6066   47.4039 H   0  0  0  0  0  0  0  0  0  0  0  0
   62.5069   34.1031   45.7656 H   0  0  0  0  0  0  0  0  0  0  0  0
   61.1533   34.2082   48.3781 H   0  0  0  0  0  0  0  0  0  0  0  0
   60.4855   34.1322   46.6992 H   0  0  0  0  0  0  0  0  0  0  0  0
   58.1649   29.8228   46.2269 H   0  0  0  0  0  0  0  0  0  0  0  0
  1  2  1  0
  2  3  1  0
  3  4  2  0
  4  5  1  0
  5  6  2  0
  6  7  1  0
  7  8  2  0
  8  9  1  0
  9 10  1  0
 10 11  2  0
 10 12  2  0
 10 13  1  0
 13 14  2  0
 14 15  1  0
 15 16  2  0
 16 17  1  0
 17 18  1  0
 18 19  2  0
 18 20  1  0
 20 21  1  0
 21 22  1  0
 22 23  1  0
 23 24  1  0
 24 25  1  0
 17 26  2  0
  8  3  1  0
 26 13  1  0
 25 20  1  0
  1 27  1  0
  1 28  1  0
  1 29  1  0
  4 30  1  0
  5 31  1  0
  6 32  1  0
  7 33  1  0
 14 34  1  0
 15 35  1  0
 16 36  1  0
 21 37  1  0
 21 38  1  0
 22 39  1  0
 22 40  1  0
 24 41  1  0
 24 42  1  0
 25 43  1  0
 25 44  1  0
 26 45  1  0
M  CHG  1   9  -1
M  END
>  <UniqueID>  (79) 
66

>  <SMILES>  (79) 
COc1ccccc1[N-]S(=O)(=O)c1cccc(C(=O)N2CCOCC2)c1

>  <Energy>  (79) 
58.02355020480884

>  <Genealogy>  (79) 
COc1ccccc1[N-]S(=O)(=O)c1cccc(C(=O)N2CCOCC2)c1 (protonated)
COc1ccccc1[N-]S(=O)(=O)c1cccc(C(=O)N2CCOCC2)c1 (3D coordinates assigned)
COc1ccccc1[N-]S(=O)(=O)c1cccc(C(=O)N2CCOCC2)c1 (nonaromatic ring conformer: 58.02355020480884 kcal/mol)

>  <smiles>  (79) 
COc1ccccc1NS(=O)(=O)c1cccc(C(=O)N2CCOCC2)c1

>  <score_type>  (79) 
oracle

>  <origin>  (79) 
adg

>  <m_score__min__energy>  (79) 
-10.890000000000001

>  <m_primary>  (79) 
energy

$$$$
79:0
     RDKit          3D

 34 36  0  0  0  0  0  0  0  0999 V2000
   54.9087   22.3163   44.9955 H   0  0  0  0  0  0  0  0  0  0  0  0
   55.1970   23.2910   45.4160 C   0  0  0  0  0  0  0  0  0  0  0  0
   54.4810   24.4260   45.2700 N   0  0  0  0  0  0  0  0  0  0  0  0
   55.1800   25.3690   45.9300 C   0  0  0  0  0  0  0  0  0  0  0  0
   54.7780   26.6970   46.0110 O   0  0  0  0  0  0  0  0  0  0  0  0
   56.3220   24.8480   46.4980 C   0  0  0  0  0  0  0  0  0  0  0  0
   57.3780   25.5910   47.2590 C   0  0  0  0  0  0  0  0  0  0  0  0
   58.0900   24.8712   47.6890 H   0  0  0  0  0  0  0  0  0  0  0  0
   56.8998   26.1720   48.0613 H   0  0  0  0  0  0  0  0  0  0  0  0
   58.1120   26.5290   46.3470 C   0  0  0  0  0  0  0  0  0  0  0  0
   57.8440   26.4890   45.0700 N   0  0  0  0  0  0  0  0  0  0  0  0
   57.8690   27.5860   44.1450 C   0  0  0  0  0  0  0  0  0  0  0  0
   58.5460   27.4770   43.0900 O   0  0  0  0  0  0  0  0  0  0  0  0
   57.0560   28.7960   44.3580 C   0  0  0  0  0  0  0  0  0  0  0  0
   57.5010   30.0590   44.2100 N   0  0  0  0  0  0  0  0  0  0  0  0
   56.4660   30.8240   44.5280 N   0  0  0  0  0  0  0  0  0  0  0  0
   55.4310   30.0690   44.8650 N   0  0  0  0  0  0  0  0  0  0  0  0
   55.7790   28.7980   44.7700 N   0  0  0  0  0  0  0  0  0  0  0  0
   55.1620   27.9830   44.9800 H   0  0  0  0  0  0  0  0  0  0  0  0
   59.1000   27.4650   46.9330 C   0  0  0  0  0  0  0  0  0  0  0  0
   60.3050   27.3990   46.5660 O   0  0  0  0  0  0  0  0  0  0  0  0
   58.6820   28.5610   47.8710 C   0  0  0  0  0  0  0  0  0  0  0  0
   57.5869   28.6624   47.8490 H   0  0  0  0  0  0  0  0  0  0  0  0
   59.0111   28.3113   48.8905 H   0  0  0  0  0  0  0  0  0  0  0  0
   59.3100   29.8560   47.4520 C   0  0  0  0  0  0  0  0  0  0  0  0
   60.6620   30.1330   47.6250 C   0  0  0  0  0  0  0  0  0  0  0  0
   61.4158   29.4466   48.0382 H   0  0  0  0  0  0  0  0  0  0  0  0
   60.9400   31.7020   47.0910 S   0  0  0  0  0  0  0  0  0  0  0  0
   59.3560   32.0480   46.6480 C   0  0  0  0  0  0  0  0  0  0  0  0
   58.9971   32.9958   46.2204 H   0  0  0  0  0  0  0  0  0  0  0  0
   58.5800   30.9290   46.9160 C   0  0  0  0  0  0  0  0  0  0  0  0
   57.4972   30.8868   46.7267 H   0  0  0  0  0  0  0  0  0  0  0  0
   56.3390   23.5120   46.1620 C   0  0  0  0  0  0  0  0  0  0  0  0
   57.1060   22.7715   46.4327 H   0  0  0  0  0  0  0  0  0  0  0  0
  1  2  1  0
  2  3  1  0
  3  4  1  0
  4  5  1  0
  4  6  2  0
  6  7  1  0
  7  8  1  0
  7  9  1  0
  7 10  1  0
 10 11  2  0
 11 12  1  0
 12 13  2  0
 12 14  1  0
 14 15  2  0
 15 16  1  0
 16 17  1  0
 17 18  2  0
 18 19  1  0
 10 20  1  0
 20 21  2  0
 20 22  1  0
 22 23  1  0
 22 24  1  0
 22 25  1  0
 25 26  2  0
 26 27  1  0
 26 28  1  0
 28 29  1  0
 29 30  1  0
 29 31  2  0
 31 32  1  0
  6 33  1  0
 33 34  1  0
 33  2  2  0
 18 14  1  0
 31 25  1  0
M  CHG  4   3  -1   5  -1  16  -1  18   1
M  END
>  <UniqueID>  (80) 
67

>  <SMILES>  (80) 
O=C(Cc1ccsc1)/C(Cc1cc[n-]c1[O-])=N\C(=O)c1n[n-]n[nH+]1

>  <Energy>  (80) 
132.74524151184877

>  <Genealogy>  (80) 
O=C(Cc1ccsc1)C(Cc1cc[n-]c1[O-])=NC(=O)c1n[n-]n[nH+]1 (protonated)
O=C(Cc1ccsc1)/C(Cc1cc[n-]c1[O-])=N\C(=O)c1n[n-]n[nH+]1 (cis-trans isomerization)
O=C(Cc1ccsc1)/C(Cc1cc[n-]c1[O-])=N\C(=O)c1n[n-]n[nH+]1 (3D coordinates assigned)
O=C(Cc1ccsc1)/C(Cc1cc[n-]c1[O-])=N\C(=O)c1n[n-]n[nH+]1 (optimized conformer: 132.74524151184877 kcal/mol)

>  <smiles>  (80) 
O=C(Cc1ccsc1)C(Cc1cc[nH]c1O)=NC(=O)c1nn[nH]n1

>  <score_type>  (80) 
oracle

>  <origin>  (80) 
adg

>  <m_score__min__energy>  (80) 
-13.68

>  <m_primary>  (80) 
energy

$$$$
80:0
     RDKit          3D

 49 51  0  0  0  0  0  0  0  0999 V2000
   64.8590   33.0930   49.4950 C   0  0  0  0  0  0  0  0  0  0  0  0
   63.6120   33.4390   48.7360 C   0  0  0  0  0  0  0  0  0  0  0  0
   62.4710   33.8870   49.4170 C   0  0  0  0  0  0  0  0  0  0  0  0
   61.2960   34.1740   48.7140 C   0  0  0  0  0  0  0  0  0  0  0  0
   61.2500   34.0150   47.3170 C   0  0  0  0  0  0  0  0  0  0  0  0
   60.0910   34.2820   46.5730 O   0  0  0  0  0  0  0  0  0  0  0  0
   59.2280   33.3140   46.0430 C   0  0  0  0  0  0  0  0  0  0  0  0
   58.9690   32.1550   46.7800 C   0  0  0  0  0  0  0  0  0  0  0  0
   58.1300   31.1750   46.2490 C   0  0  0  0  0  0  0  0  0  0  0  0
   57.5690   31.3460   44.9760 C   0  0  0  0  0  0  0  0  0  0  0  0
   56.6730   30.3300   44.3950 C   0  0  0  0  0  0  0  0  0  0  0  0
   55.4280   30.4900   44.4890 O   0  0  0  0  0  0  0  0  0  0  0  0
   57.1690   29.1750   43.7040 N   0  0  0  0  0  0  0  0  0  0  0  0
   57.7710   27.9940   44.3250 C   0  0  0  0  0  0  0  0  0  0  0  0
   59.3080   28.0790   44.1970 C   0  0  0  0  0  0  0  0  0  0  0  0
   59.9370   28.6720   45.4610 C   0  0  0  0  0  0  0  0  0  0  0  0
   59.6920   27.8080   46.6350 N   0  0  0  0  0  0  0  0  0  0  0  0
   60.0040   28.6860   48.1150 S   0  0  0  0  0  0  0  0  0  0  0  0
   61.1130   30.0580   47.8540 C   0  0  0  0  0  0  0  0  0  0  0  0
   60.6090   27.7590   49.1310 O   0  0  0  0  0  0  0  0  0  0  0  0
   58.7040   29.2120   48.6580 O   0  0  0  0  0  0  0  0  0  0  0  0
   58.3620   27.1490   46.6570 C   0  0  0  0  0  0  0  0  0  0  0  0
   57.3170   27.8780   45.7980 C   0  0  0  0  0  0  0  0  0  0  0  0
   57.8450   32.5280   44.2740 C   0  0  0  0  0  0  0  0  0  0  0  0
   58.6660   33.4670   44.8120 N   0  0  0  0  0  0  0  0  0  0  0  0
   62.3790   33.5300   46.6460 C   0  0  0  0  0  0  0  0  0  0  0  0
   63.5530   33.2430   47.3480 C   0  0  0  0  0  0  0  0  0  0  0  0
   64.6582   33.1487   50.5751 H   0  0  0  0  0  0  0  0  0  0  0  0
   65.1764   32.0728   49.2332 H   0  0  0  0  0  0  0  0  0  0  0  0
   65.6567   33.8037   49.2332 H   0  0  0  0  0  0  0  0  0  0  0  0
   62.5000   34.0134   50.5093 H   0  0  0  0  0  0  0  0  0  0  0  0
   60.4052   34.5251   49.2554 H   0  0  0  0  0  0  0  0  0  0  0  0
   59.4236   32.0165   47.7720 H   0  0  0  0  0  0  0  0  0  0  0  0
   57.9086   30.2674   46.8298 H   0  0  0  0  0  0  0  0  0  0  0  0
   57.4350   27.0827   43.8086 H   0  0  0  0  0  0  0  0  0  0  0  0
   59.7111   27.0683   44.0359 H   0  0  0  0  0  0  0  0  0  0  0  0
   59.5511   28.7335   43.3470 H   0  0  0  0  0  0  0  0  0  0  0  0
   61.0219   28.7720   45.3091 H   0  0  0  0  0  0  0  0  0  0  0  0
   59.4800   29.6546   45.6498 H   0  0  0  0  0  0  0  0  0  0  0  0
   61.4364   30.4581   48.8263 H   0  0  0  0  0  0  0  0  0  0  0  0
   61.9918   29.7165   47.2874 H   0  0  0  0  0  0  0  0  0  0  0  0
   60.5948   30.8457   47.2874 H   0  0  0  0  0  0  0  0  0  0  0  0
   58.4731   26.1224   46.2779 H   0  0  0  0  0  0  0  0  0  0  0  0
   58.0033   27.1659   47.6967 H   0  0  0  0  0  0  0  0  0  0  0  0
   56.3704   27.3190   45.8367 H   0  0  0  0  0  0  0  0  0  0  0  0
   57.1902   28.8942   46.1997 H   0  0  0  0  0  0  0  0  0  0  0  0
   57.3952   32.6955   43.2842 H   0  0  0  0  0  0  0  0  0  0  0  0
   62.3418   33.3736   45.5578 H   0  0  0  0  0  0  0  0  0  0  0  0
   64.4338   32.8621   46.8104 H   0  0  0  0  0  0  0  0  0  0  0  0
  1  2  1  0
  2  3  2  0
  3  4  1  0
  4  5  2  0
  5  6  1  0
  6  7  1  0
  7  8  2  0
  8  9  1  0
  9 10  2  0
 10 11  1  0
 11 12  2  0
 11 13  1  0
 13 14  1  0
 14 15  1  0
 15 16  1  0
 16 17  1  0
 17 18  1  0
 18 19  1  0
 18 20  2  0
 18 21  2  0
 17 22  1  0
 22 23  1  0
 10 24  1  0
 24 25  2  0
  5 26  1  0
 26 27  2  0
 27  2  1  0
 25  7  1  0
 23 14  1  0
  1 28  1  0
  1 29  1  0
  1 30  1  0
  3 31  1  0
  4 32  1  0
  8 33  1  0
  9 34  1  0
 14 35  1  0
 15 36  1  0
 15 37  1  0
 16 38  1  0
 16 39  1  0
 19 40  1  0
 19 41  1  0
 19 42  1  0
 22 43  1  0
 22 44  1  0
 23 45  1  0
 23 46  1  0
 24 47  1  0
 26 48  1  0
 27 49  1  0
M  CHG  1  13  -1
M  END
>  <UniqueID>  (81) 
68

>  <SMILES>  (81) 
Cc1ccc(Oc2ccc(C(=O)[N-]C3CCN(S(C)(=O)=O)CC3)cn2)cc1

>  <Energy>  (81) 
60.44157363661412

>  <Genealogy>  (81) 
Cc1ccc(Oc2ccc(C(=O)[N-]C3CCN(S(C)(=O)=O)CC3)cn2)cc1 (protonated)
Cc1ccc(Oc2ccc(C(=O)[N-]C3CCN(S(C)(=O)=O)CC3)cn2)cc1 (3D coordinates assigned)
Cc1ccc(Oc2ccc(C(=O)[N-]C3CCN(S(C)(=O)=O)CC3)cn2)cc1 (nonaromatic ring conformer: 60.44157363661412 kcal/mol)

>  <smiles>  (81) 
Cc1ccc(Oc2ccc(C(=O)NC3CCN(S(C)(=O)=O)CC3)cn2)cc1

>  <score_type>  (81) 
oracle

>  <origin>  (81) 
adg

>  <m_score__min__energy>  (81) 
-10.32

>  <m_primary>  (81) 
energy

$$$$
81:0
     RDKit          3D

 29 30  0  0  0  0  0  0  0  0999 V2000
   55.8150   30.1050   42.8820 O   0  0  0  0  0  0  0  0  0  0  0  0
   56.1180   30.1110   44.1040 C   0  0  0  0  0  0  0  0  0  0  0  0
   55.7440   28.9860   44.9110 N   0  0  0  0  0  0  0  0  0  0  0  0
   56.6250   27.9710   45.4110 C   0  0  0  0  0  0  0  0  0  0  0  0
   58.0070   28.1650   45.2990 C   0  0  0  0  0  0  0  0  0  0  0  0
   58.8990   27.1940   45.7620 C   0  0  0  0  0  0  0  0  0  0  0  0
   58.4140   26.0100   46.3250 C   0  0  0  0  0  0  0  0  0  0  0  0
   57.0370   25.7920   46.4120 C   0  0  0  0  0  0  0  0  0  0  0  0
   56.1390   26.7580   45.9440 C   0  0  0  0  0  0  0  0  0  0  0  0
   54.7750   26.4940   45.9910 O   0  0  0  0  0  0  0  0  0  0  0  0
   56.9090   31.2340   44.6490 C   0  0  0  0  0  0  0  0  0  0  0  0
   56.3440   32.3310   44.9020 O   0  0  0  0  0  0  0  0  0  0  0  0
   58.3210   31.0780   44.8740 N   0  0  0  0  0  0  0  0  0  0  0  0
   59.1230   32.0130   45.6150 C   0  0  0  0  0  0  0  0  0  0  0  0
   58.8840   33.3900   45.4710 C   0  0  0  0  0  0  0  0  0  0  0  0
   59.6640   34.3190   46.1670 C   0  0  0  0  0  0  0  0  0  0  0  0
   60.6990   33.8850   46.9980 C   0  0  0  0  0  0  0  0  0  0  0  0
   60.9610   32.5180   47.1300 C   0  0  0  0  0  0  0  0  0  0  0  0
   62.2770   31.9730   48.1550 Cl  0  0  0  0  0  0  0  0  0  0  0  0
   60.1830   31.5840   46.4360 C   0  0  0  0  0  0  0  0  0  0  0  0
   58.3935   29.0885   44.8432 H   0  0  0  0  0  0  0  0  0  0  0  0
   59.9833   27.3615   45.6834 H   0  0  0  0  0  0  0  0  0  0  0  0
   59.1162   25.2505   46.6993 H   0  0  0  0  0  0  0  0  0  0  0  0
   56.6569   24.8573   46.8501 H   0  0  0  0  0  0  0  0  0  0  0  0
   58.8110   30.2940   44.3870 H   0  0  0  0  0  0  0  0  0  0  0  0
   58.0792   33.7392   44.8074 H   0  0  0  0  0  0  0  0  0  0  0  0
   59.4616   35.3949   46.0595 H   0  0  0  0  0  0  0  0  0  0  0  0
   61.3075   34.6179   47.5481 H   0  0  0  0  0  0  0  0  0  0  0  0
   60.4008   30.5101   46.5326 H   0  0  0  0  0  0  0  0  0  0  0  0
  1  2  2  0
  2  3  1  0
  3  4  1  0
  4  5  2  0
  5  6  1  0
  6  7  2  0
  7  8  1  0
  8  9  2  0
  9 10  1  0
  2 11  1  0
 11 12  2  0
 11 13  1  0
 13 14  1  0
 14 15  2  0
 15 16  1  0
 16 17  2  0
 17 18  1  0
 18 19  1  0
 18 20  2  0
  9  4  1  0
 20 14  1  0
  5 21  1  0
  6 22  1  0
  7 23  1  0
  8 24  1  0
 13 25  1  0
 15 26  1  0
 16 27  1  0
 17 28  1  0
 20 29  1  0
M  CHG  2   3  -1  10  -1
M  END
>  <UniqueID>  (82) 
69

>  <SMILES>  (82) 
O=C([N-]c1ccccc1[O-])C(=O)Nc1cccc(Cl)c1

>  <Energy>  (82) 
39.88698203179813

>  <Genealogy>  (82) 
O=C([N-]c1ccccc1[O-])C(=O)Nc1cccc(Cl)c1 (protonated)
O=C([N-]c1ccccc1[O-])C(=O)Nc1cccc(Cl)c1 (3D coordinates assigned)
O=C([N-]c1ccccc1[O-])C(=O)Nc1cccc(Cl)c1 (optimized conformer: 39.88698203179813 kcal/mol)

>  <smiles>  (82) 
O=C(Nc1cccc(Cl)c1)C(=O)Nc1ccccc1O

>  <score_type>  (82) 
oracle

>  <origin>  (82) 
adg

>  <m_score__min__energy>  (82) 
-13.77

>  <m_primary>  (82) 
energy

$$$$
82:0
     RDKit          3D

 35 37  0  0  0  0  0  0  0  0999 V2000
   59.6770   35.4319   46.3914 H   0  0  0  0  0  0  0  0  0  0  0  0
   59.0540   34.6190   45.9900 C   0  0  0  0  0  0  0  0  0  0  0  0
   58.1820   33.9250   46.8330 C   0  0  0  0  0  0  0  0  0  0  0  0
   58.1247   34.1868   47.8999 H   0  0  0  0  0  0  0  0  0  0  0  0
   57.3820   32.8980   46.3220 C   0  0  0  0  0  0  0  0  0  0  0  0
   56.7081   32.3452   46.9931 H   0  0  0  0  0  0  0  0  0  0  0  0
   57.4330   32.5680   44.9600 C   0  0  0  0  0  0  0  0  0  0  0  0
   56.6110   31.4900   44.4850 N   0  0  0  0  0  0  0  0  0  0  0  0
   56.6640   30.2510   44.8730 C   0  0  0  0  0  0  0  0  0  0  0  0
   55.6240   29.4050   44.7720 N   0  0  0  0  0  0  0  0  0  0  0  0
   56.0550   28.2430   45.2390 N   0  0  0  0  0  0  0  0  0  0  0  0
   57.3370   28.4320   45.6050 C   0  0  0  0  0  0  0  0  0  0  0  0
   58.2200   27.3630   46.1610 C   0  0  0  0  0  0  0  0  0  0  0  0
   58.6115   26.7476   45.3376 H   0  0  0  0  0  0  0  0  0  0  0  0
   57.6383   26.7330   46.8500 H   0  0  0  0  0  0  0  0  0  0  0  0
   59.3610   27.9840   46.9030 C   0  0  0  0  0  0  0  0  0  0  0  0
   60.3500   27.2700   47.2220 O   0  0  0  0  0  0  0  0  0  0  0  0
   59.2810   29.3540   47.3250 N   0  0  0  0  0  0  0  0  0  0  0  0
   58.3440   29.8170   47.2930 H   0  0  0  0  0  0  0  0  0  0  0  0
   60.3770   30.0880   47.8980 C   0  0  0  0  0  0  0  0  0  0  0  0
   60.7530   29.9180   49.2440 C   0  0  0  0  0  0  0  0  0  0  0  0
   60.1901   29.2244   49.8859 H   0  0  0  0  0  0  0  0  0  0  0  0
   61.8380   30.6260   49.7690 C   0  0  0  0  0  0  0  0  0  0  0  0
   62.1201   30.4962   50.8243 H   0  0  0  0  0  0  0  0  0  0  0  0
   62.5650   31.4990   48.9540 C   0  0  0  0  0  0  0  0  0  0  0  0
   63.6180   32.1840   49.4650 F   0  0  0  0  0  0  0  0  0  0  0  0
   62.2130   31.6580   47.6110 C   0  0  0  0  0  0  0  0  0  0  0  0
   62.7890   32.3405   46.9689 H   0  0  0  0  0  0  0  0  0  0  0  0
   61.1290   30.9500   47.0830 C   0  0  0  0  0  0  0  0  0  0  0  0
   60.8634   31.0689   46.0222 H   0  0  0  0  0  0  0  0  0  0  0  0
   57.7240   29.6650   45.3770 O   0  0  0  0  0  0  0  0  0  0  0  0
   58.3360   33.2540   44.1220 C   0  0  0  0  0  0  0  0  0  0  0  0
   58.4130   32.9813   43.0591 H   0  0  0  0  0  0  0  0  0  0  0  0
   59.1340   34.2800   44.6380 C   0  0  0  0  0  0  0  0  0  0  0  0
   59.8266   34.8214   43.9768 H   0  0  0  0  0  0  0  0  0  0  0  0
  1  2  1  0
  2  3  2  0
  3  4  1  0
  3  5  1  0
  5  6  1  0
  5  7  2  0
  7  8  1  0
  8  9  2  0
  9 10  1  0
 10 11  1  0
 11 12  2  0
 12 13  1  0
 13 14  1  0
 13 15  1  0
 13 16  1  0
 16 17  2  0
 16 18  1  0
 18 19  1  0
 18 20  1  0
 20 21  2  0
 21 22  1  0
 21 23  1  0
 23 24  1  0
 23 25  2  0
 25 26  1  0
 25 27  1  0
 27 28  1  0
 27 29  2  0
 29 30  1  0
 12 31  1  0
  7 32  1  0
 32 33  1  0
 32 34  2  0
 34 35  1  0
 34  2  1  0
 31  9  1  0
 29 20  1  0
M  CHG  1  10  -1
M  END
>  <UniqueID>  (83) 
70

>  <SMILES>  (83) 
O=C(Cc1n[n-]/c(=N/c2ccccc2)o1)Nc1ccc(F)cc1

>  <Energy>  (83) 
78.21144794641096

>  <Genealogy>  (83) 
O=C(Cc1n[n-]c(=Nc2ccccc2)o1)Nc1ccc(F)cc1 (protonated)
O=C(Cc1n[n-]/c(=N/c2ccccc2)o1)Nc1ccc(F)cc1 (cis-trans isomerization)
O=C(Cc1n[n-]/c(=N/c2ccccc2)o1)Nc1ccc(F)cc1 (3D coordinates assigned)
O=C(Cc1n[n-]/c(=N/c2ccccc2)o1)Nc1ccc(F)cc1 (optimized conformer: 78.21144794641096 kcal/mol)

>  <smiles>  (83) 
O=C(Cc1n[nH]c(=Nc2ccccc2)o1)Nc1ccc(F)cc1

>  <score_type>  (83) 
oracle

>  <origin>  (83) 
adg

>  <m_score__min__energy>  (83) 
-8.7300000000000004

>  <m_primary>  (83) 
energy

$$$$
83:0
     RDKit          3D

 46 49  0  0  1  0  0  0  0  0999 V2000
   55.8680   22.0480   45.4590 C   0  0  0  0  0  0  0  0  0  0  0  0
   55.4810   23.7330   45.8440 S   0  0  0  0  0  0  0  0  0  0  0  0
   54.1800   23.6960   46.6350 O   0  0  0  0  0  0  0  0  0  0  0  0
   55.1910   24.5290   44.6260 O   0  0  0  0  0  0  0  0  0  0  0  0
   56.7160   24.4650   46.8190 N   0  0  0  0  0  0  0  0  0  0  0  0
   57.2910   25.6850   46.3810 C   0  0  0  0  0  0  0  0  0  0  0  0
   58.6550   25.8730   46.3090 C   0  0  0  0  0  0  0  0  0  0  0  0
   59.2180   27.0580   45.8850 C   0  0  0  0  0  0  0  0  0  0  0  0
   58.4150   28.1200   45.5090 C   0  0  0  0  0  0  0  0  0  0  0  0
   58.9520   29.2830   45.0930 F   0  0  0  0  0  0  0  0  0  0  0  0
   59.0490   33.1710   45.5830 C   0  0  0  0  0  0  0  0  0  0  0  0
   57.8700   33.2050   44.7840 N   0  0  0  0  0  0  0  0  0  0  0  0
   57.4650   32.1360   44.1960 C   0  0  0  0  0  0  0  0  0  0  0  0
   56.5780   29.8110   43.0610 N   0  0  0  0  0  0  0  0  0  0  0  0
   57.0260   30.8030   42.2480 C   0  0  0  0  0  0  0  0  0  0  0  0
   57.4710   31.9700   42.8310 C   0  0  0  0  0  0  0  0  0  0  0  0
   57.9320   33.0000   42.0640 F   0  0  0  0  0  0  0  0  0  0  0  0
   56.5660   29.9580   44.4090 C   0  0  0  0  0  0  0  0  0  0  0  0
   56.1400   29.0170   45.1990 N   0  0  0  0  0  0  0  0  0  0  0  0
   57.0420   27.9560   45.5730 C   0  0  0  0  0  0  0  0  0  0  0  0
   59.7240   34.3330   45.9450 C   0  0  0  0  0  0  0  0  0  0  0  0
   60.8760   34.2490   46.7290 C   0  0  0  0  0  0  0  0  0  0  0  0
   61.3120   33.0130   47.1240 C   0  0  0  0  0  0  0  0  0  0  0  0
   62.3530   32.6300   47.8580 N   0  0  0  0  0  0  0  0  0  0  0  0
   62.4010   31.3150   47.9970 N   0  0  0  0  0  0  0  0  0  0  0  0
   61.3570   30.7950   47.3340 C   0  0  0  0  0  0  0  0  0  0  0  0
   60.6510   31.8500   46.7720 C   0  0  0  0  0  0  0  0  0  0  0  0
   59.5050   31.9250   45.9920 C   0  0  0  0  0  0  0  0  0  0  0  0
   57.0100   31.1170   44.9380 N   0  0  0  0  0  0  0  0  0  0  0  0
   56.5030   26.7630   46.0000 C   0  0  0  0  0  0  0  0  0  0  0  0
   55.1360   26.5970   46.0650 O   0  0  0  0  0  0  0  0  0  0  0  0
   55.9986   21.4795   46.3916 H   0  0  0  0  0  0  0  0  0  0  0  0
   55.0475   21.6080   44.8732 H   0  0  0  0  0  0  0  0  0  0  0  0
   56.7982   22.0101   44.8732 H   0  0  0  0  0  0  0  0  0  0  0  0
   57.0540   24.0530   47.7110 H   0  0  0  0  0  0  0  0  0  0  0  0
   59.3192   25.0462   46.6009 H   0  0  0  0  0  0  0  0  0  0  0  0
   60.3126   27.1597   45.8454 H   0  0  0  0  0  0  0  0  0  0  0  0
   56.2330   28.9100   42.6320 H   0  0  0  0  0  0  0  0  0  0  0  0
   57.0334   30.6783   41.1551 H   0  0  0  0  0  0  0  0  0  0  0  0
   59.3512   35.3138   45.6146 H   0  0  0  0  0  0  0  0  0  0  0  0
   61.4221   35.1574   47.0233 H   0  0  0  0  0  0  0  0  0  0  0  0
   63.0540   33.3040   48.2750 H   0  0  0  0  0  0  0  0  0  0  0  0
   61.1061   29.7272   47.2508 H   0  0  0  0  0  0  0  0  0  0  0  0
   58.9662   31.0108   45.7023 H   0  0  0  0  0  0  0  0  0  0  0  0
   57.0020   31.2310   45.9760 H   0  0  0  0  0  0  0  0  0  0  0  0
   54.6500   25.7810   46.3810 H   0  0  0  0  0  0  0  0  0  0  0  0
  1  2  1  0
  2  3  2  0
  2  4  2  0
  2  5  1  0
  5  6  1  0
  6  7  2  0
  7  8  1  0
  8  9  2  0
  9 10  1  0
  9 11  1  0
 11 12  1  0
 12 13  2  0
 13 14  1  0
 14 15  1  0
 15 16  2  0
 16 17  1  0
 16 18  1  0
 18 19  2  0
 19 20  1  0
 20 21  2  0
 21 22  1  0
 22 23  2  0
 23 24  1  0
 24 25  1  0
 25 26  2  0
 26 27  1  0
 27 28  2  0
 18 29  1  0
 11 30  2  0
 30 31  1  0
 30  6  1  0
 29 13  1  0
 28 20  1  0
 27 23  1  0
  1 32  1  0
  1 33  1  0
  1 34  1  0
  5 35  1  0
  7 36  1  0
  8 37  1  0
 14 38  1  0
 15 39  1  0
 21 40  1  0
 22 41  1  0
 24 42  1  0
 26 43  1  0
 28 44  1  0
 29 45  1  0
 31 46  1  0
M  END
>  <smiles>  (84) 
CS(=O)(=O)Nc1ccc(F)c(N=c2[nH]cc(F)c(=Nc3ccc4[nH]ncc4c3)[nH]2)c1O

>  <score_type>  (84) 
oracle

>  <origin>  (84) 
adg

>  <m_score__min__energy>  (84) 
-10.52

>  <m_primary>  (84) 
energy

$$$$
84:0
     RDKit          3D

 33 35  0  0  0  0  0  0  0  0999 V2000
   62.0230   34.2050   48.8630 C   0  0  0  0  0  0  0  0  0  0  0  0
   60.9670   33.8340   47.8720 C   0  0  0  0  0  0  0  0  0  0  0  0
   60.0340   32.8140   48.0420 C   0  0  0  0  0  0  0  0  0  0  0  0
   59.2300   32.8840   46.9250 C   0  0  0  0  0  0  0  0  0  0  0  0
   58.1300   32.1150   46.5520 C   0  0  0  0  0  0  0  0  0  0  0  0
   57.4830   32.4270   45.3320 C   0  0  0  0  0  0  0  0  0  0  0  0
   56.3520   31.6820   44.8620 N   0  0  0  0  0  0  0  0  0  0  0  0
   56.3880   30.0180   44.3730 S   0  0  0  0  0  0  0  0  0  0  0  0
   55.1470   29.3340   44.8740 O   0  0  0  0  0  0  0  0  0  0  0  0
   56.4150   29.9480   42.8730 O   0  0  0  0  0  0  0  0  0  0  0  0
   57.8300   29.2320   45.0060 C   0  0  0  0  0  0  0  0  0  0  0  0
   57.7160   28.2560   46.0070 C   0  0  0  0  0  0  0  0  0  0  0  0
   58.8600   27.6230   46.5040 C   0  0  0  0  0  0  0  0  0  0  0  0
   60.1220   27.9640   46.0060 C   0  0  0  0  0  0  0  0  0  0  0  0
   60.2400   28.9400   45.0130 C   0  0  0  0  0  0  0  0  0  0  0  0
   59.0980   29.5750   44.5140 C   0  0  0  0  0  0  0  0  0  0  0  0
   57.9590   33.5000   44.5410 C   0  0  0  0  0  0  0  0  0  0  0  0
   59.0710   34.2600   44.9500 C   0  0  0  0  0  0  0  0  0  0  0  0
   59.6850   33.9190   46.1520 C   0  0  0  0  0  0  0  0  0  0  0  0
   60.7450   34.5150   46.7240 N   0  0  0  0  0  0  0  0  0  0  0  0
   61.6334   34.0681   49.8825 H   0  0  0  0  0  0  0  0  0  0  0  0
   62.9040   33.5626   48.7178 H   0  0  0  0  0  0  0  0  0  0  0  0
   62.3086   35.2573   48.7178 H   0  0  0  0  0  0  0  0  0  0  0  0
   59.9561   32.1084   48.8823 H   0  0  0  0  0  0  0  0  0  0  0  0
   57.7746   31.2898   47.1866 H   0  0  0  0  0  0  0  0  0  0  0  0
   56.7250   27.9879   46.4019 H   0  0  0  0  0  0  0  0  0  0  0  0
   58.7672   26.8563   47.2873 H   0  0  0  0  0  0  0  0  0  0  0  0
   61.0209   27.4641   46.3959 H   0  0  0  0  0  0  0  0  0  0  0  0
   61.2327   29.2094   44.6231 H   0  0  0  0  0  0  0  0  0  0  0  0
   59.1944   30.3449   43.7342 H   0  0  0  0  0  0  0  0  0  0  0  0
   57.4535   33.7430   43.5947 H   0  0  0  0  0  0  0  0  0  0  0  0
   59.4428   35.0962   44.3397 H   0  0  0  0  0  0  0  0  0  0  0  0
   61.2800   35.3360   46.3630 H   0  0  0  0  0  0  0  0  0  0  0  0
  1  2  1  0
  2  3  2  0
  3  4  1  0
  4  5  2  0
  5  6  1  0
  6  7  1  0
  7  8  1  0
  8  9  2  0
  8 10  2  0
  8 11  1  0
 11 12  2  0
 12 13  1  0
 13 14  2  0
 14 15  1  0
 15 16  2  0
  6 17  2  0
 17 18  1  0
 18 19  2  0
 19 20  1  0
 20  2  1  0
 19  4  1  0
 16 11  1  0
  1 21  1  0
  1 22  1  0
  1 23  1  0
  3 24  1  0
  5 25  1  0
 12 26  1  0
 13 27  1  0
 14 28  1  0
 15 29  1  0
 16 30  1  0
 17 31  1  0
 18 32  1  0
 20 33  1  0
M  CHG  1   7  -1
M  END
>  <UniqueID>  (85) 
71

>  <SMILES>  (85) 
Cc1cc2cc([N-]S(=O)(=O)c3ccccc3)ccc2[nH]1

>  <Energy>  (85) 
69.34018503706274

>  <Genealogy>  (85) 
Cc1cc2cc([N-]S(=O)(=O)c3ccccc3)ccc2[nH]1 (protonated)
Cc1cc2cc([N-]S(=O)(=O)c3ccccc3)ccc2[nH]1 (3D coordinates assigned)
Cc1cc2cc([N-]S(=O)(=O)c3ccccc3)ccc2[nH]1 (optimized conformer: 69.34018503706274 kcal/mol)

>  <smiles>  (85) 
Cc1cc2cc(NS(=O)(=O)c3ccccc3)ccc2[nH]1

>  <score_type>  (85) 
oracle

>  <origin>  (85) 
adg

>  <m_score__min__energy>  (85) 
-9.2100000000000009

>  <m_primary>  (85) 
energy

$$$$
85:0
     RDKit          3D

 34 35  0  0  0  0  0  0  0  0999 V2000
   53.8770   23.0460   45.3720 C   0  0  0  0  0  0  0  0  0  0  0  0
   54.3930   24.3480   45.9040 C   0  0  0  0  0  0  0  0  0  0  0  0
   53.7690   25.4070   45.6350 O   0  0  0  0  0  0  0  0  0  0  0  0
   55.6000   24.4310   46.6750 N   0  0  0  0  0  0  0  0  0  0  0  0
   56.5860   25.4710   46.6120 C   0  0  0  0  0  0  0  0  0  0  0  0
   57.7170   25.3800   47.4300 C   0  0  0  0  0  0  0  0  0  0  0  0
   58.6980   26.3740   47.3900 C   0  0  0  0  0  0  0  0  0  0  0  0
   58.5680   27.4520   46.5120 C   0  0  0  0  0  0  0  0  0  0  0  0
   57.4720   27.5310   45.6460 C   0  0  0  0  0  0  0  0  0  0  0  0
   57.3760   28.6560   44.7610 N   0  0  0  0  0  0  0  0  0  0  0  0
   56.3530   29.6610   44.7640 C   0  0  0  0  0  0  0  0  0  0  0  0
   55.1410   29.3380   44.8770 O   0  0  0  0  0  0  0  0  0  0  0  0
   56.6830   31.0330   44.5270 N   0  0  0  0  0  0  0  0  0  0  0  0
   57.4920   31.8650   45.3730 C   0  0  0  0  0  0  0  0  0  0  0  0
   57.0130   33.1010   45.8480 C   0  0  0  0  0  0  0  0  0  0  0  0
   57.8190   33.9120   46.6500 C   0  0  0  0  0  0  0  0  0  0  0  0
   59.1150   33.5080   46.9750 C   0  0  0  0  0  0  0  0  0  0  0  0
   60.1260   34.5300   47.9810 Cl  0  0  0  0  0  0  0  0  0  0  0  0
   59.6120   32.2960   46.4890 C   0  0  0  0  0  0  0  0  0  0  0  0
   58.8120   31.4730   45.6810 C   0  0  0  0  0  0  0  0  0  0  0  0
   59.3450   30.2360   45.1910 N   0  0  0  0  0  0  0  0  0  0  0  0
   56.4740   26.5400   45.7040 C   0  0  0  0  0  0  0  0  0  0  0  0
   53.6150   22.3850   46.2113 H   0  0  0  0  0  0  0  0  0  0  0  0
   52.9836   23.2294   44.7570 H   0  0  0  0  0  0  0  0  0  0  0  0
   54.6535   22.5676   44.7570 H   0  0  0  0  0  0  0  0  0  0  0  0
   57.8346   24.5218   48.1080 H   0  0  0  0  0  0  0  0  0  0  0  0
   59.5744   26.3073   48.0514 H   0  0  0  0  0  0  0  0  0  0  0  0
   59.3317   28.2436   46.5012 H   0  0  0  0  0  0  0  0  0  0  0  0
   55.9967   33.4301   45.5855 H   0  0  0  0  0  0  0  0  0  0  0  0
   57.4320   34.8705   47.0261 H   0  0  0  0  0  0  0  0  0  0  0  0
   60.6365   31.9849   46.7411 H   0  0  0  0  0  0  0  0  0  0  0  0
   60.3460   29.9750   45.3350 H   0  0  0  0  0  0  0  0  0  0  0  0
   58.7370   29.5650   44.6710 H   0  0  0  0  0  0  0  0  0  0  0  0
   55.6022   26.6016   45.0361 H   0  0  0  0  0  0  0  0  0  0  0  0
  1  2  1  0
  2  3  2  0
  2  4  1  0
  4  5  1  0
  5  6  2  0
  6  7  1  0
  7  8  2  0
  8  9  1  0
  9 10  1  0
 10 11  1  0
 11 12  2  0
 11 13  1  0
 13 14  1  0
 14 15  2  0
 15 16  1  0
 16 17  2  0
 17 18  1  0
 17 19  1  0
 19 20  2  0
 20 21  1  0
  9 22  2  0
 22  5  1  0
 20 14  1  0
  1 23  1  0
  1 24  1  0
  1 25  1  0
  6 26  1  0
  7 27  1  0
  8 28  1  0
 15 29  1  0
 16 30  1  0
 19 31  1  0
 21 32  1  0
 21 33  1  0
 22 34  1  0
M  CHG  3   4  -1  10  -1  13  -1
M  END
>  <UniqueID>  (86) 
72

>  <SMILES>  (86) 
CC(=O)[N-]c1cccc([N-]C(=O)[N-]c2ccc(Cl)cc2N)c1

>  <Energy>  (86) 
44.308570646542826

>  <Genealogy>  (86) 
CC(=O)[N-]c1cccc([N-]C(=O)[N-]c2ccc(Cl)cc2N)c1 (protonated)
CC(=O)[N-]c1cccc([N-]C(=O)[N-]c2ccc(Cl)cc2N)c1 (3D coordinates assigned)
CC(=O)[N-]c1cccc([N-]C(=O)[N-]c2ccc(Cl)cc2N)c1 (optimized conformer: 44.308570646542826 kcal/mol)

>  <smiles>  (86) 
CC(=O)Nc1cccc(NC(=O)Nc2ccc(Cl)cc2N)c1

>  <score_type>  (86) 
oracle

>  <origin>  (86) 
adg

>  <m_score__min__energy>  (86) 
-11.83

>  <m_primary>  (86) 
energy

$$$$
86:0
     RDKit          3D

 40 42  0  0  0  0  0  0  0  0999 V2000
   62.1630   33.4370   50.0360 C   0  0  0  0  0  0  0  0  0  0  0  0
   63.0370   32.5650   49.5240 C   0  0  0  0  0  0  0  0  0  0  0  0
   62.6480   31.6000   48.4390 C   0  0  0  0  0  0  0  0  0  0  0  0
   61.6750   32.2140   47.5200 N   0  0  0  0  0  0  0  0  0  0  0  0
   60.3680   31.8120   47.4120 C   0  0  0  0  0  0  0  0  0  0  0  0
   59.6890   30.3920   48.2990 S   0  0  0  0  0  0  0  0  0  0  0  0
   59.4260   29.4040   46.8180 C   0  0  0  0  0  0  0  0  0  0  0  0
   60.3460   29.4710   45.7620 C   0  0  0  0  0  0  0  0  0  0  0  0
   60.1550   28.7000   44.6100 C   0  0  0  0  0  0  0  0  0  0  0  0
   59.0520   27.8490   44.5150 C   0  0  0  0  0  0  0  0  0  0  0  0
   58.1450   27.7580   45.5750 C   0  0  0  0  0  0  0  0  0  0  0  0
   58.3350   28.5260   46.7270 C   0  0  0  0  0  0  0  0  0  0  0  0
   59.5810   32.6190   46.5820 C   0  0  0  0  0  0  0  0  0  0  0  0
   58.0880   32.5800   46.4260 C   0  0  0  0  0  0  0  0  0  0  0  0
   57.7270   32.1140   45.0420 C   0  0  0  0  0  0  0  0  0  0  0  0
   58.1530   32.8400   43.9160 C   0  0  0  0  0  0  0  0  0  0  0  0
   57.8510   32.3870   42.6290 C   0  0  0  0  0  0  0  0  0  0  0  0
   57.1290   31.2020   42.4550 C   0  0  0  0  0  0  0  0  0  0  0  0
   56.7110   30.4680   43.5700 C   0  0  0  0  0  0  0  0  0  0  0  0
   57.0120   30.9180   44.8580 C   0  0  0  0  0  0  0  0  0  0  0  0
   60.5520   33.8400   45.9550 S   0  0  0  0  0  0  0  0  0  0  0  0
   61.9270   33.3120   46.7550 C   0  0  0  0  0  0  0  0  0  0  0  0
   63.3690   34.0870   46.6450 S   0  0  0  0  0  0  0  0  0  0  0  0
   62.4786   34.1304   50.8294 H   0  0  0  0  0  0  0  0  0  0  0  0
   61.1281   33.4612   49.6639 H   0  0  0  0  0  0  0  0  0  0  0  0
   64.0682   32.5532   49.9067 H   0  0  0  0  0  0  0  0  0  0  0  0
   63.5463   31.3113   47.8735 H   0  0  0  0  0  0  0  0  0  0  0  0
   62.1872   30.7148   48.9018 H   0  0  0  0  0  0  0  0  0  0  0  0
   61.2215   30.1324   45.8395 H   0  0  0  0  0  0  0  0  0  0  0  0
   60.8735   28.7643   43.7795 H   0  0  0  0  0  0  0  0  0  0  0  0
   58.8967   27.2499   43.6056 H   0  0  0  0  0  0  0  0  0  0  0  0
   57.2809   27.0812   45.5022 H   0  0  0  0  0  0  0  0  0  0  0  0
   57.6273   28.4421   47.5649 H   0  0  0  0  0  0  0  0  0  0  0  0
   57.6624   31.8866   47.1663 H   0  0  0  0  0  0  0  0  0  0  0  0
   57.6821   33.5901   46.5841 H   0  0  0  0  0  0  0  0  0  0  0  0
   58.7268   33.7691   44.0487 H   0  0  0  0  0  0  0  0  0  0  0  0
   58.1815   32.9630   41.7520 H   0  0  0  0  0  0  0  0  0  0  0  0
   56.8899   30.8472   41.4416 H   0  0  0  0  0  0  0  0  0  0  0  0
   56.1445   29.5352   43.4325 H   0  0  0  0  0  0  0  0  0  0  0  0
   56.6880   30.3337   45.7319 H   0  0  0  0  0  0  0  0  0  0  0  0
  1  2  2  0
  2  3  1  0
  3  4  1  0
  4  5  1  0
  5  6  1  0
  6  7  1  0
  7  8  2  0
  8  9  1  0
  9 10  2  0
 10 11  1  0
 11 12  2  0
  5 13  2  0
 13 14  1  0
 14 15  1  0
 15 16  2  0
 16 17  1  0
 17 18  2  0
 18 19  1  0
 19 20  2  0
 13 21  1  0
 21 22  1  0
 22 23  2  0
 22  4  1  0
 12  7  1  0
 20 15  1  0
  1 24  1  0
  1 25  1  0
  2 26  1  0
  3 27  1  0
  3 28  1  0
  8 29  1  0
  9 30  1  0
 10 31  1  0
 11 32  1  0
 12 33  1  0
 14 34  1  0
 14 35  1  0
 16 36  1  0
 17 37  1  0
 18 38  1  0
 19 39  1  0
 20 40  1  0
M  END
>  <UniqueID>  (87) 
73

>  <SMILES>  (87) 
C=CCn1c(Sc2ccccc2)c(Cc2ccccc2)sc1=S

>  <Energy>  (87) 
66.27868983058092

>  <Genealogy>  (87) 
C=CCn1c(Sc2ccccc2)c(Cc2ccccc2)sc1=S (3D coordinates assigned)
C=CCn1c(Sc2ccccc2)c(Cc2ccccc2)sc1=S (optimized conformer: 66.27868983058092 kcal/mol)

>  <smiles>  (87) 
C=CCn1c(Sc2ccccc2)c(Cc2ccccc2)sc1=S

>  <score_type>  (87) 
oracle

>  <origin>  (87) 
adg

>  <m_score__min__energy>  (87) 
-7.3499999999999996

>  <m_primary>  (87) 
energy

$$$$
87:0
     RDKit          3D

 49 52  0  0  0  0  0  0  0  0999 V2000
   60.0420   34.2310   49.1590 C   0  0  0  0  0  0  0  0  0  0  0  0
   58.8610   33.9020   48.4330 O   0  0  0  0  0  0  0  0  0  0  0  0
   58.7800   33.8440   47.0300 C   0  0  0  0  0  0  0  0  0  0  0  0
   59.3160   34.9010   46.2860 C   0  0  0  0  0  0  0  0  0  0  0  0
   59.2750   34.8740   44.8900 C   0  0  0  0  0  0  0  0  0  0  0  0
   58.7110   33.7840   44.2210 C   0  0  0  0  0  0  0  0  0  0  0  0
   58.1700   32.7190   44.9520 C   0  0  0  0  0  0  0  0  0  0  0  0
   57.5020   31.3110   44.1250 S   0  0  0  0  0  0  0  0  0  0  0  0
   56.2660   30.8590   44.8530 O   0  0  0  0  0  0  0  0  0  0  0  0
   57.1430   31.6500   42.7050 O   0  0  0  0  0  0  0  0  0  0  0  0
   58.6750   30.0290   44.1270 N   0  0  0  0  0  0  0  0  0  0  0  0
   59.1970   29.4890   45.3520 C   0  0  0  0  0  0  0  0  0  0  0  0
   59.6460   30.3470   46.3690 C   0  0  0  0  0  0  0  0  0  0  0  0
   60.1030   29.8310   47.5870 C   0  0  0  0  0  0  0  0  0  0  0  0
   60.5620   30.7560   48.6840 C   0  0  0  0  0  0  0  0  0  0  0  0
   61.9270   31.3010   48.3840 C   0  0  0  0  0  0  0  0  0  0  0  0
   62.5790   31.2820   47.1480 C   0  0  0  0  0  0  0  0  0  0  0  0
   63.7710   31.9170   47.2340 N   0  0  0  0  0  0  0  0  0  0  0  0
   63.8650   32.3380   48.5040 C   0  0  0  0  0  0  0  0  0  0  0  0
   64.8800   33.0660   49.0280 N   0  0  0  0  0  0  0  0  0  0  0  0
   64.8040   33.4620   50.3320 C   0  0  0  0  0  0  0  0  0  0  0  0
   63.6790   33.1290   51.1230 C   0  0  0  0  0  0  0  0  0  0  0  0
   63.6140   33.5270   52.4210 F   0  0  0  0  0  0  0  0  0  0  0  0
   62.6340   32.3770   50.5640 C   0  0  0  0  0  0  0  0  0  0  0  0
   62.7630   31.9950   49.2360 C   0  0  0  0  0  0  0  0  0  0  0  0
   60.1210   28.4430   47.7630 C   0  0  0  0  0  0  0  0  0  0  0  0
   59.6930   27.6230   46.7690 N   0  0  0  0  0  0  0  0  0  0  0  0
   59.2350   28.0980   45.5790 C   0  0  0  0  0  0  0  0  0  0  0  0
   58.7490   27.1180   44.5510 C   0  0  0  0  0  0  0  0  0  0  0  0
   58.1840   32.7610   46.3510 C   0  0  0  0  0  0  0  0  0  0  0  0
   59.8369   34.1739   50.2382 H   0  0  0  0  0  0  0  0  0  0  0  0
   60.8415   33.5214   48.8997 H   0  0  0  0  0  0  0  0  0  0  0  0
   60.3594   35.2518   48.8997 H   0  0  0  0  0  0  0  0  0  0  0  0
   59.7722   35.7579   46.8033 H   0  0  0  0  0  0  0  0  0  0  0  0
   59.6887   35.7150   44.3141 H   0  0  0  0  0  0  0  0  0  0  0  0
   58.6921   33.7627   43.1214 H   0  0  0  0  0  0  0  0  0  0  0  0
   58.8320   29.5250   43.2260 H   0  0  0  0  0  0  0  0  0  0  0  0
   59.6384   31.4349   46.2068 H   0  0  0  0  0  0  0  0  0  0  0  0
   59.8516   31.5911   48.7725 H   0  0  0  0  0  0  0  0  0  0  0  0
   60.6071   30.1906   49.6265 H   0  0  0  0  0  0  0  0  0  0  0  0
   62.1798   30.8168   46.2346 H   0  0  0  0  0  0  0  0  0  0  0  0
   64.4570   32.0730   46.4610 H   0  0  0  0  0  0  0  0  0  0  0  0
   65.6256   34.0459   50.7724 H   0  0  0  0  0  0  0  0  0  0  0  0
   61.7481   32.1014   51.1549 H   0  0  0  0  0  0  0  0  0  0  0  0
   60.4829   28.0149   48.7094 H   0  0  0  0  0  0  0  0  0  0  0  0
   58.3148   26.2424   45.0556 H   0  0  0  0  0  0  0  0  0  0  0  0
   57.9834   27.5958   43.9220 H   0  0  0  0  0  0  0  0  0  0  0  0
   59.5927   26.7977   43.9220 H   0  0  0  0  0  0  0  0  0  0  0  0
   57.7263   31.9424   46.9258 H   0  0  0  0  0  0  0  0  0  0  0  0
  1  2  1  0
  2  3  1  0
  3  4  2  0
  4  5  1  0
  5  6  2  0
  6  7  1  0
  7  8  1  0
  8  9  2  0
  8 10  2  0
  8 11  1  0
 11 12  1  0
 12 13  2  0
 13 14  1  0
 14 15  1  0
 15 16  1  0
 16 17  2  0
 17 18  1  0
 18 19  1  0
 19 20  2  0
 20 21  1  0
 21 22  2  0
 22 23  1  0
 22 24  1  0
 24 25  2  0
 14 26  2  0
 26 27  1  0
 27 28  2  0
 28 29  1  0
  7 30  2  0
 30  3  1  0
 28 12  1  0
 25 16  1  0
 25 19  1  0
  1 31  1  0
  1 32  1  0
  1 33  1  0
  4 34  1  0
  5 35  1  0
  6 36  1  0
 11 37  1  0
 13 38  1  0
 15 39  1  0
 15 40  1  0
 17 41  1  0
 18 42  1  0
 21 43  1  0
 24 44  1  0
 26 45  1  0
 29 46  1  0
 29 47  1  0
 29 48  1  0
 30 49  1  0
M  END
>  <UniqueID>  (88) 
74

>  <SMILES>  (88) 
COc1cccc(S(=O)(=O)Nc2cc(Cc3c[nH]c4ncc(F)cc34)cnc2C)c1

>  <Energy>  (88) 
84.20660352055157

>  <Genealogy>  (88) 
COc1cccc(S(=O)(=O)Nc2cc(Cc3c[nH]c4ncc(F)cc34)cnc2C)c1 (3D coordinates assigned)
COc1cccc(S(=O)(=O)Nc2cc(Cc3c[nH]c4ncc(F)cc34)cnc2C)c1 (optimized conformer: 84.20660352055157 kcal/mol)

>  <smiles>  (88) 
COc1cccc(S(=O)(=O)Nc2cc(Cc3c[nH]c4ncc(F)cc34)cnc2C)c1

>  <score_type>  (88) 
oracle

>  <origin>  (88) 
adg

>  <m_score__min__energy>  (88) 
-9.3900000000000006

>  <m_primary>  (88) 
energy

$$$$
88:0
     RDKit          3D

 49 52  0  0  0  0  0  0  0  0999 V2000
   57.0135   32.8075   47.1049 H   0  0  0  0  0  0  0  0  0  0  0  0
   58.0020   33.2710   46.9710 C   0  0  0  0  0  0  0  0  0  0  0  0
   58.8060   33.6030   48.0150 N   0  0  0  0  0  0  0  0  0  0  0  0
   59.9600   34.1710   47.5900 C   0  0  0  0  0  0  0  0  0  0  0  0
   60.9170   34.5640   48.3760 N   0  0  0  0  0  0  0  0  0  0  0  0
   61.9710   33.7580   48.9350 C   0  0  0  0  0  0  0  0  0  0  0  0
   61.9680   33.3790   50.2920 C   0  0  0  0  0  0  0  0  0  0  0  0
   61.1299   33.6750   50.9400 H   0  0  0  0  0  0  0  0  0  0  0  0
   63.0220   32.6300   50.8200 C   0  0  0  0  0  0  0  0  0  0  0  0
   63.0034   32.3251   51.8767 H   0  0  0  0  0  0  0  0  0  0  0  0
   64.0980   32.2680   50.0100 C   0  0  0  0  0  0  0  0  0  0  0  0
   64.9228   31.6713   50.4268 H   0  0  0  0  0  0  0  0  0  0  0  0
   64.1300   32.6620   48.6700 C   0  0  0  0  0  0  0  0  0  0  0  0
   64.9820   32.3760   48.0358 H   0  0  0  0  0  0  0  0  0  0  0  0
   63.0790   33.4220   48.1280 C   0  0  0  0  0  0  0  0  0  0  0  0
   63.1250   33.8380   46.6860 C   0  0  0  0  0  0  0  0  0  0  0  0
   63.2457   34.9295   46.6230 H   0  0  0  0  0  0  0  0  0  0  0  0
   63.9742   33.3459   46.1893 H   0  0  0  0  0  0  0  0  0  0  0  0
   62.1888   33.5433   46.1893 H   0  0  0  0  0  0  0  0  0  0  0  0
   60.0470   34.2650   45.9120 S   0  0  0  0  0  0  0  0  0  0  0  0
   58.5310   33.5650   45.7210 C   0  0  0  0  0  0  0  0  0  0  0  0
   57.7290   33.2690   44.1490 S   0  0  0  0  0  0  0  0  0  0  0  0
   57.5830   31.5100   44.4510 C   0  0  0  0  0  0  0  0  0  0  0  0
   58.6690   30.7870   44.9530 C   0  0  0  0  0  0  0  0  0  0  0  0
   59.6192   31.3002   45.1624 H   0  0  0  0  0  0  0  0  0  0  0  0
   58.5520   29.4140   45.1900 C   0  0  0  0  0  0  0  0  0  0  0  0
   59.4082   28.8545   45.5949 H   0  0  0  0  0  0  0  0  0  0  0  0
   57.3460   28.7430   44.9140 C   0  0  0  0  0  0  0  0  0  0  0  0
   57.2030   27.2870   45.1640 C   0  0  0  0  0  0  0  0  0  0  0  0
   56.8710   26.8860   46.3140 O   0  0  0  0  0  0  0  0  0  0  0  0
   57.4010   26.3290   44.1110 N   0  0  0  0  0  0  0  0  0  0  0  0
   57.3310   26.6500   43.1220 H   0  0  0  0  0  0  0  0  0  0  0  0
   57.6260   24.9320   44.3670 C   0  0  0  0  0  0  0  0  0  0  0  0
   56.8940   23.9650   43.6550 C   0  0  0  0  0  0  0  0  0  0  0  0
   56.1776   24.2837   42.8835 H   0  0  0  0  0  0  0  0  0  0  0  0
   57.0670   22.6060   43.9170 C   0  0  0  0  0  0  0  0  0  0  0  0
   56.4941   21.8590   43.3480 H   0  0  0  0  0  0  0  0  0  0  0  0
   57.9660   22.1940   44.9000 C   0  0  0  0  0  0  0  0  0  0  0  0
   58.1010   21.1221   45.1068 H   0  0  0  0  0  0  0  0  0  0  0  0
   58.6950   23.1410   45.6220 C   0  0  0  0  0  0  0  0  0  0  0  0
   59.3995   22.8098   46.3992 H   0  0  0  0  0  0  0  0  0  0  0  0
   58.5370   24.5120   45.3650 C   0  0  0  0  0  0  0  0  0  0  0  0
   59.3350   25.4520   46.0960 N   0  0  0  0  0  0  0  0  0  0  0  0
   58.8820   26.1780   46.6950 H   0  0  0  0  0  0  0  0  0  0  0  0
   60.3750   25.4150   46.1020 H   0  0  0  0  0  0  0  0  0  0  0  0
   56.2570   29.4820   44.4150 C   0  0  0  0  0  0  0  0  0  0  0  0
   55.3034   28.9748   44.2066 H   0  0  0  0  0  0  0  0  0  0  0  0
   56.3770   30.8550   44.1820 C   0  0  0  0  0  0  0  0  0  0  0  0
   55.5211   31.4214   43.7863 H   0  0  0  0  0  0  0  0  0  0  0  0
  1  2  1  0
  2  3  1  0
  3  4  1  0
  4  5  2  0
  5  6  1  0
  6  7  2  0
  7  8  1  0
  7  9  1  0
  9 10  1  0
  9 11  2  0
 11 12  1  0
 11 13  1  0
 13 14  1  0
 13 15  2  0
 15 16  1  0
 16 17  1  0
 16 18  1  0
 16 19  1  0
  4 20  1  0
 20 21  1  0
 21 22  1  0
 22 23  1  0
 23 24  2  0
 24 25  1  0
 24 26  1  0
 26 27  1  0
 26 28  2  0
 28 29  1  0
 29 30  2  0
 29 31  1  0
 31 32  1  0
 31 33  1  0
 33 34  2  0
 34 35  1  0
 34 36  1  0
 36 37  1  0
 36 38  2  0
 38 39  1  0
 38 40  1  0
 40 41  1  0
 40 42  2  0
 42 43  1  0
 43 44  1  0
 43 45  1  0
 28 46  1  0
 46 47  1  0
 46 48  2  0
 48 49  1  0
 21  2  2  0
 48 23  1  0
 15  6  1  0
 42 33  1  0
M  CHG  1   3  -1
M  END
>  <UniqueID>  (89) 
75

>  <SMILES>  (89) 
Cc1ccccc1/N=c1\[n-]cc(Sc2ccc(C(=O)Nc3ccccc3N)cc2)s1

>  <Energy>  (89) 
92.66373718734175

>  <Genealogy>  (89) 
Cc1ccccc1N=c1[n-]cc(Sc2ccc(C(=O)Nc3ccccc3N)cc2)s1 (protonated)
Cc1ccccc1/N=c1\[n-]cc(Sc2ccc(C(=O)Nc3ccccc3N)cc2)s1 (cis-trans isomerization)
Cc1ccccc1/N=c1\[n-]cc(Sc2ccc(C(=O)Nc3ccccc3N)cc2)s1 (3D coordinates assigned)
Cc1ccccc1/N=c1\[n-]cc(Sc2ccc(C(=O)Nc3ccccc3N)cc2)s1 (optimized conformer: 92.66373718734175 kcal/mol)

>  <smiles>  (89) 
Cc1ccccc1N=c1[nH]cc(Sc2ccc(C(=O)Nc3ccccc3N)cc2)s1

>  <score_type>  (89) 
oracle

>  <origin>  (89) 
adg

>  <m_score__min__energy>  (89) 
-10.84

>  <m_primary>  (89) 
energy

$$$$
89:0
     RDKit          3D

 36 38  0  0  0  0  0  0  0  0999 V2000
   58.6910   30.0180   47.5940 O   0  0  0  0  0  0  0  0  0  0  0  0
   58.4400   30.4240   46.4270 C   0  0  0  0  0  0  0  0  0  0  0  0
   58.0640   31.7650   46.2050 C   0  0  0  0  0  0  0  0  0  0  0  0
   57.8310   32.6910   47.2390 O   0  0  0  0  0  0  0  0  0  0  0  0
   58.7100   32.9860   48.3290 C   0  0  0  0  0  0  0  0  0  0  0  0
   60.1540   32.9230   47.8920 C   0  0  0  0  0  0  0  0  0  0  0  0
   60.9640   31.8530   48.3140 C   0  0  0  0  0  0  0  0  0  0  0  0
   62.3090   31.7910   47.9390 C   0  0  0  0  0  0  0  0  0  0  0  0
   62.8570   32.7880   47.1320 C   0  0  0  0  0  0  0  0  0  0  0  0
   64.1630   32.7250   46.7700 F   0  0  0  0  0  0  0  0  0  0  0  0
   62.0610   33.8470   46.6920 C   0  0  0  0  0  0  0  0  0  0  0  0
   60.7120   33.9200   47.0630 C   0  0  0  0  0  0  0  0  0  0  0  0
   59.7520   35.2670   46.4600 Cl  0  0  0  0  0  0  0  0  0  0  0  0
   57.9260   32.2050   44.8870 C   0  0  0  0  0  0  0  0  0  0  0  0
   57.4950   33.8710   44.5320 Cl  0  0  0  0  0  0  0  0  0  0  0  0
   58.1090   31.3080   43.8410 C   0  0  0  0  0  0  0  0  0  0  0  0
   58.4200   30.0140   44.1070 N   0  0  0  0  0  0  0  0  0  0  0  0
   58.5770   29.5690   45.3610 N   0  0  0  0  0  0  0  0  0  0  0  0
   58.9010   28.1800   45.5700 C   0  0  0  0  0  0  0  0  0  0  0  0
   60.1220   27.8120   46.1630 C   0  0  0  0  0  0  0  0  0  0  0  0
   60.4250   26.4640   46.3750 C   0  0  0  0  0  0  0  0  0  0  0  0
   59.5110   25.4730   46.0030 C   0  0  0  0  0  0  0  0  0  0  0  0
   58.2920   25.8300   45.4200 C   0  0  0  0  0  0  0  0  0  0  0  0
   57.1450   24.5870   44.9570 Cl  0  0  0  0  0  0  0  0  0  0  0  0
   57.9850   27.1790   45.2070 C   0  0  0  0  0  0  0  0  0  0  0  0
   58.4914   33.9968   48.7040 H   0  0  0  0  0  0  0  0  0  0  0  0
   58.5503   32.2386   49.1201 H   0  0  0  0  0  0  0  0  0  0  0  0
   60.5357   31.0593   48.9437 H   0  0  0  0  0  0  0  0  0  0  0  0
   62.9364   30.9546   48.2808 H   0  0  0  0  0  0  0  0  0  0  0  0
   62.4952   34.6282   46.0507 H   0  0  0  0  0  0  0  0  0  0  0  0
   58.0020   31.6463   42.7998 H   0  0  0  0  0  0  0  0  0  0  0  0
   58.5250   29.3590   43.2980 H   0  0  0  0  0  0  0  0  0  0  0  0
   60.8418   28.5885   46.4613 H   0  0  0  0  0  0  0  0  0  0  0  0
   61.3836   26.1823   46.8351 H   0  0  0  0  0  0  0  0  0  0  0  0
   59.7515   24.4126   46.1693 H   0  0  0  0  0  0  0  0  0  0  0  0
   57.0221   27.4564   44.7533 H   0  0  0  0  0  0  0  0  0  0  0  0
  1  2  2  0
  2  3  1  0
  3  4  1  0
  4  5  1  0
  5  6  1  0
  6  7  2  0
  7  8  1  0
  8  9  2  0
  9 10  1  0
  9 11  1  0
 11 12  2  0
 12 13  1  0
  3 14  2  0
 14 15  1  0
 14 16  1  0
 16 17  2  0
 17 18  1  0
 18 19  1  0
 19 20  2  0
 20 21  1  0
 21 22  2  0
 22 23  1  0
 23 24  1  0
 23 25  2  0
 18  2  1  0
 25 19  1  0
 12  6  1  0
  5 26  1  0
  5 27  1  0
  7 28  1  0
  8 29  1  0
 11 30  1  0
 16 31  1  0
 17 32  1  0
 20 33  1  0
 21 34  1  0
 22 35  1  0
 25 36  1  0
M  CHG  1  17   1
M  END
>  <UniqueID>  (90) 
76

>  <SMILES>  (90) 
O=c1c(OCc2ccc(F)cc2Cl)c(Cl)c[nH+]n1-c1cccc(Cl)c1

>  <Energy>  (90) 
50.93545033497

>  <Genealogy>  (90) 
O=c1c(OCc2ccc(F)cc2Cl)c(Cl)c[nH+]n1-c1cccc(Cl)c1 (protonated)
O=c1c(OCc2ccc(F)cc2Cl)c(Cl)c[nH+]n1-c1cccc(Cl)c1 (3D coordinates assigned)
O=c1c(OCc2ccc(F)cc2Cl)c(Cl)c[nH+]n1-c1cccc(Cl)c1 (optimized conformer: 50.93545033497 kcal/mol)

>  <smiles>  (90) 
O=c1c(OCc2ccc(F)cc2Cl)c(Cl)cnn1-c1cccc(Cl)c1

>  <score_type>  (90) 
oracle

>  <origin>  (90) 
adg

>  <m_score__min__energy>  (90) 
-6.3899999999999997

>  <m_primary>  (90) 
energy

$$$$
90:0
     RDKit          3D

 40 42  0  0  0  0  0  0  0  0999 V2000
   55.9910   24.7260   46.7790 O   0  0  0  0  0  0  0  0  0  0  0  0
   55.8860   25.9150   46.3800 C   0  0  0  0  0  0  0  0  0  0  0  0
   54.6600   26.3400   45.8800 O   0  0  0  0  0  0  0  0  0  0  0  0
   57.0400   26.8570   46.4400 C   0  0  0  0  0  0  0  0  0  0  0  0
   58.1890   26.4620   47.1290 C   0  0  0  0  0  0  0  0  0  0  0  0
   59.3070   27.2830   47.1980 C   0  0  0  0  0  0  0  0  0  0  0  0
   59.3420   28.5450   46.5600 C   0  0  0  0  0  0  0  0  0  0  0  0
   60.5400   29.3800   46.5800 N   0  0  0  0  0  0  0  0  0  0  0  0
   61.0390   29.8330   47.8940 C   0  0  0  0  0  0  0  0  0  0  0  0
   59.9170   29.9130   48.9510 C   0  0  0  0  0  0  0  0  0  0  0  0
   59.6900   31.3470   49.4490 C   0  0  0  0  0  0  0  0  0  0  0  0
   59.5770   32.3290   48.3110 C   0  0  0  0  0  0  0  0  0  0  0  0
   58.3120   32.7470   47.8620 C   0  0  0  0  0  0  0  0  0  0  0  0
   58.2050   33.6780   46.8240 C   0  0  0  0  0  0  0  0  0  0  0  0
   59.3580   34.2020   46.2300 C   0  0  0  0  0  0  0  0  0  0  0  0
   59.2220   35.3710   44.9300 Cl  0  0  0  0  0  0  0  0  0  0  0  0
   60.6200   33.7960   46.6770 C   0  0  0  0  0  0  0  0  0  0  0  0
   60.7300   32.8650   47.7150 C   0  0  0  0  0  0  0  0  0  0  0  0
   58.1400   29.0050   45.9260 C   0  0  0  0  0  0  0  0  0  0  0  0
   57.9850   30.3080   45.3670 C   0  0  0  0  0  0  0  0  0  0  0  0
   58.8860   31.1820   45.4510 O   0  0  0  0  0  0  0  0  0  0  0  0
   56.8300   30.6480   44.7420 N   0  0  0  0  0  0  0  0  0  0  0  0
   55.7940   29.7860   44.6470 C   0  0  0  0  0  0  0  0  0  0  0  0
   55.8870   28.5580   45.2030 N   0  0  0  0  0  0  0  0  0  0  0  0
   57.0110   28.1390   45.8460 C   0  0  0  0  0  0  0  0  0  0  0  0
   58.2087   25.4813   47.6268 H   0  0  0  0  0  0  0  0  0  0  0  0
   60.1875   26.9433   47.7631 H   0  0  0  0  0  0  0  0  0  0  0  0
   60.3410   30.2360   46.0120 H   0  0  0  0  0  0  0  0  0  0  0  0
   61.3270   28.8510   46.1370 H   0  0  0  0  0  0  0  0  0  0  0  0
   61.8052   29.1258   48.2444 H   0  0  0  0  0  0  0  0  0  0  0  0
   61.4536   30.8438   47.7662 H   0  0  0  0  0  0  0  0  0  0  0  0
   58.9829   29.5410   48.5048 H   0  0  0  0  0  0  0  0  0  0  0  0
   60.2209   29.3006   49.8128 H   0  0  0  0  0  0  0  0  0  0  0  0
   58.7605   31.3759   50.0366 H   0  0  0  0  0  0  0  0  0  0  0  0
   60.5571   31.6351   50.0614 H   0  0  0  0  0  0  0  0  0  0  0  0
   57.4029   32.3402   48.3290 H   0  0  0  0  0  0  0  0  0  0  0  0
   57.2127   33.9987   46.4741 H   0  0  0  0  0  0  0  0  0  0  0  0
   61.5269   34.2095   46.2115 H   0  0  0  0  0  0  0  0  0  0  0  0
   61.7242   32.5513   48.0660 H   0  0  0  0  0  0  0  0  0  0  0  0
   54.8765   30.0833   44.1180 H   0  0  0  0  0  0  0  0  0  0  0  0
  1  2  2  0
  2  3  1  0
  2  4  1  0
  4  5  2  0
  5  6  1  0
  6  7  2  0
  7  8  1  0
  8  9  1  0
  9 10  1  0
 10 11  1  0
 11 12  1  0
 12 13  2  0
 13 14  1  0
 14 15  2  0
 15 16  1  0
 15 17  1  0
 17 18  2  0
  7 19  1  0
 19 20  1  0
 20 21  2  0
 20 22  1  0
 22 23  1  0
 23 24  2  0
 24 25  1  0
 25  4  1  0
 18 12  1  0
 25 19  2  0
  5 26  1  0
  6 27  1  0
  8 28  1  0
  8 29  1  0
  9 30  1  0
  9 31  1  0
 10 32  1  0
 10 33  1  0
 11 34  1  0
 11 35  1  0
 13 36  1  0
 14 37  1  0
 17 38  1  0
 18 39  1  0
 23 40  1  0
M  CHG  3   3  -1   8   1  22  -1
M  END
>  <UniqueID>  (91) 
77

>  <SMILES>  (91) 
O=C([O-])c1ccc([NH2+]CCCc2ccc(Cl)cc2)c2c(=O)[n-]cnc12

>  <Energy>  (91) 
60.75833614780217

>  <Genealogy>  (91) 
O=C([O-])c1ccc([NH2+]CCCc2ccc(Cl)cc2)c2c(=O)[n-]cnc12 (protonated)
O=C([O-])c1ccc([NH2+]CCCc2ccc(Cl)cc2)c2c(=O)[n-]cnc12 (3D coordinates assigned)
O=C([O-])c1ccc([NH2+]CCCc2ccc(Cl)cc2)c2c(=O)[n-]cnc12 (optimized conformer: 60.75833614780217 kcal/mol)

>  <smiles>  (91) 
O=C(O)c1ccc(NCCCc2ccc(Cl)cc2)c2c(=O)[nH]cnc12

>  <score_type>  (91) 
oracle

>  <origin>  (91) 
adg

>  <m_score__min__energy>  (91) 
-11.460000000000001

>  <m_primary>  (91) 
energy

$$$$
91:0
     RDKit          3D

 63 66  0  0  0  0  0  0  0  0999 V2000
   58.5390   34.6530   53.4110 C   0  0  0  0  0  0  0  0  0  0  0  0
   57.9250   33.9150   52.3600 O   0  0  0  0  0  0  0  0  0  0  0  0
   58.6150   33.0830   51.4670 C   0  0  0  0  0  0  0  0  0  0  0  0
   59.6840   33.6240   50.7430 C   0  0  0  0  0  0  0  0  0  0  0  0
   60.4100   32.8310   49.8500 C   0  0  0  0  0  0  0  0  0  0  0  0
   60.0690   31.4820   49.6580 C   0  0  0  0  0  0  0  0  0  0  0  0
   60.8330   30.6550   48.7590 N   0  0  0  0  0  0  0  0  0  0  0  0
   61.2980   29.3240   49.1700 C   0  0  0  0  0  0  0  0  0  0  0  0
   60.3500   28.2610   48.7010 C   0  0  0  0  0  0  0  0  0  0  0  0
   60.0280   27.3290   49.4880 O   0  0  0  0  0  0  0  0  0  0  0  0
   59.7840   28.3300   47.3830 N   0  0  0  0  0  0  0  0  0  0  0  0
   59.0420   27.2590   46.7770 C   0  0  0  0  0  0  0  0  0  0  0  0
   59.6960   26.0630   46.4550 C   0  0  0  0  0  0  0  0  0  0  0  0
   58.9880   25.0000   45.8840 C   0  0  0  0  0  0  0  0  0  0  0  0
   57.6080   25.1110   45.6520 C   0  0  0  0  0  0  0  0  0  0  0  0
   56.8760   24.0260   45.0530 N   0  0  0  0  0  0  0  0  0  0  0  0
   57.5910   22.8090   44.6510 C   0  0  0  0  0  0  0  0  0  0  0  0
   56.6870   21.9040   43.8170 C   0  0  0  0  0  0  0  0  0  0  0  0
   55.8990   22.6990   42.9580 O   0  0  0  0  0  0  0  0  0  0  0  0
   54.8840   23.3460   43.7020 C   0  0  0  0  0  0  0  0  0  0  0  0
   55.4110   24.1020   44.9440 C   0  0  0  0  0  0  0  0  0  0  0  0
   56.9500   26.3020   45.9920 C   0  0  0  0  0  0  0  0  0  0  0  0
   57.6590   27.3660   46.5540 C   0  0  0  0  0  0  0  0  0  0  0  0
   61.1860   31.2050   47.1450 S   0  0  0  0  0  0  0  0  0  0  0  0
   62.5930   31.7340   47.1180 O   0  0  0  0  0  0  0  0  0  0  0  0
   61.0770   30.0740   46.1620 O   0  0  0  0  0  0  0  0  0  0  0  0
   60.0430   32.4760   46.6810 C   0  0  0  0  0  0  0  0  0  0  0  0
   60.5110   33.7950   46.5640 C   0  0  0  0  0  0  0  0  0  0  0  0
   59.6310   34.8350   46.2620 C   0  0  0  0  0  0  0  0  0  0  0  0
   58.2730   34.5740   46.0780 C   0  0  0  0  0  0  0  0  0  0  0  0
   57.7930   33.2690   46.1880 C   0  0  0  0  0  0  0  0  0  0  0  0
   58.6660   32.2060   46.4780 C   0  0  0  0  0  0  0  0  0  0  0  0
   58.1410   30.8720   46.5480 N   0  0  0  0  0  0  0  0  0  0  0  0
   58.1590   30.2510   47.6310 O   0  0  0  0  0  0  0  0  0  0  0  0
   57.3880   30.3720   45.5120 O   0  0  0  0  0  0  0  0  0  0  0  0
   59.0020   30.9370   50.3880 C   0  0  0  0  0  0  0  0  0  0  0  0
   58.2770   31.7300   51.2820 C   0  0  0  0  0  0  0  0  0  0  0  0
   58.2074   34.2545   54.3812 H   0  0  0  0  0  0  0  0  0  0  0  0
   59.6325   34.5630   53.3320 H   0  0  0  0  0  0  0  0  0  0  0  0
   58.2516   35.7118   53.3320 H   0  0  0  0  0  0  0  0  0  0  0  0
   59.9547   34.6816   50.8780 H   0  0  0  0  0  0  0  0  0  0  0  0
   61.2536   33.2660   49.2941 H   0  0  0  0  0  0  0  0  0  0  0  0
   62.2913   29.1388   48.7353 H   0  0  0  0  0  0  0  0  0  0  0  0
   61.3489   29.2917   50.2683 H   0  0  0  0  0  0  0  0  0  0  0  0
   59.8520   29.2330   46.8640 H   0  0  0  0  0  0  0  0  0  0  0  0
   60.7731   25.9589   46.6523 H   0  0  0  0  0  0  0  0  0  0  0  0
   59.5153   24.0727   45.6155 H   0  0  0  0  0  0  0  0  0  0  0  0
   58.4722   23.0880   44.0547 H   0  0  0  0  0  0  0  0  0  0  0  0
   57.8999   22.2645   45.5555 H   0  0  0  0  0  0  0  0  0  0  0  0
   57.3045   21.2174   43.2193 H   0  0  0  0  0  0  0  0  0  0  0  0
   56.0340   21.3201   44.4823 H   0  0  0  0  0  0  0  0  0  0  0  0
   54.3780   24.0682   43.0445 H   0  0  0  0  0  0  0  0  0  0  0  0
   54.2033   22.5627   44.0668 H   0  0  0  0  0  0  0  0  0  0  0  0
   55.1145   25.1586   44.8692 H   0  0  0  0  0  0  0  0  0  0  0  0
   54.9782   23.6305   45.8386 H   0  0  0  0  0  0  0  0  0  0  0  0
   55.8687   26.3987   45.8149 H   0  0  0  0  0  0  0  0  0  0  0  0
   57.1316   28.2930   46.8235 H   0  0  0  0  0  0  0  0  0  0  0  0
   61.5797   34.0099   46.7116 H   0  0  0  0  0  0  0  0  0  0  0  0
   60.0092   35.8637   46.1687 H   0  0  0  0  0  0  0  0  0  0  0  0
   57.5810   35.3971   45.8462 H   0  0  0  0  0  0  0  0  0  0  0  0
   56.7205   33.0696   46.0464 H   0  0  0  0  0  0  0  0  0  0  0  0
   58.7341   29.8783   50.2559 H   0  0  0  0  0  0  0  0  0  0  0  0
   57.4378   31.2939   51.8438 H   0  0  0  0  0  0  0  0  0  0  0  0
  1  2  1  0
  2  3  1  0
  3  4  2  0
  4  5  1  0
  5  6  2  0
  6  7  1  0
  7  8  1  0
  8  9  1  0
  9 10  2  0
  9 11  1  0
 11 12  1  0
 12 13  2  0
 13 14  1  0
 14 15  2  0
 15 16  1  0
 16 17  1  0
 17 18  1  0
 18 19  1  0
 19 20  1  0
 20 21  1  0
 15 22  1  0
 22 23  2  0
  7 24  1  0
 24 25  2  0
 24 26  2  0
 24 27  1  0
 27 28  2  0
 28 29  1  0
 29 30  2  0
 30 31  1  0
 31 32  2  0
 32 33  1  0
 33 34  2  0
 33 35  1  0
  6 36  1  0
 36 37  2  0
 37  3  1  0
 23 12  1  0
 32 27  1  0
 21 16  1  0
  1 38  1  0
  1 39  1  0
  1 40  1  0
  4 41  1  0
  5 42  1  0
  8 43  1  0
  8 44  1  0
 11 45  1  0
 13 46  1  0
 14 47  1  0
 17 48  1  0
 17 49  1  0
 18 50  1  0
 18 51  1  0
 20 52  1  0
 20 53  1  0
 21 54  1  0
 21 55  1  0
 22 56  1  0
 23 57  1  0
 28 58  1  0
 29 59  1  0
 30 60  1  0
 31 61  1  0
 36 62  1  0
 37 63  1  0
M  CHG  2  33   1  35  -1
M  END
>  <UniqueID>  (92) 
78

>  <SMILES>  (92) 
COc1ccc(N(CC(=O)Nc2ccc(N3CCOCC3)cc2)S(=O)(=O)c2ccccc2[N+](=O)[O-])cc1

>  <Energy>  (92) 
88.79384549928562

>  <Genealogy>  (92) 
COc1ccc(N(CC(=O)Nc2ccc(N3CCOCC3)cc2)S(=O)(=O)c2ccccc2[N+](=O)[O-])cc1 (3D coordinates assigned)
COc1ccc(N(CC(=O)Nc2ccc(N3CCOCC3)cc2)S(=O)(=O)c2ccccc2[N+](=O)[O-])cc1 (nonaromatic ring conformer: 88.79384549928562 kcal/mol)

>  <smiles>  (92) 
COc1ccc(N(CC(=O)Nc2ccc(N3CCOCC3)cc2)S(=O)(=O)c2ccccc2[N+](=O)[O-])cc1

>  <score_type>  (92) 
oracle

>  <origin>  (92) 
adg

>  <m_score__min__energy>  (92) 
-9.5099999999999998

>  <m_primary>  (92) 
energy

$$$$
92:0
     RDKit          3D

 24 26  0  0  0  0  0  0  0  0999 V2000
   56.2630   30.4770   44.5080 O   0  0  0  0  0  0  0  0  0  0  0  0
   57.3970   30.5910   45.0460 C   0  0  0  0  0  0  0  0  0  0  0  0
   57.9370   31.8390   45.4210 C   0  0  0  0  0  0  0  0  0  0  0  0
   57.3540   33.1010   45.3050 C   0  0  0  0  0  0  0  0  0  0  0  0
   58.0890   34.2170   45.7400 C   0  0  0  0  0  0  0  0  0  0  0  0
   59.3840   34.0420   46.2750 C   0  0  0  0  0  0  0  0  0  0  0  0
   59.9310   32.7950   46.3720 N   0  0  0  0  0  0  0  0  0  0  0  0
   59.2090   31.7290   45.9500 C   0  0  0  0  0  0  0  0  0  0  0  0
   59.6290   30.1190   45.9440 S   0  0  0  0  0  0  0  0  0  0  0  0
   58.2140   29.5190   45.2820 N   0  0  0  0  0  0  0  0  0  0  0  0
   57.9480   28.1300   45.0100 C   0  0  0  0  0  0  0  0  0  0  0  0
   58.0570   27.6150   43.7050 C   0  0  0  0  0  0  0  0  0  0  0  0
   57.7860   26.2660   43.4520 C   0  0  0  0  0  0  0  0  0  0  0  0
   57.3980   25.4210   44.4940 C   0  0  0  0  0  0  0  0  0  0  0  0
   57.1350   24.1150   44.2470 F   0  0  0  0  0  0  0  0  0  0  0  0
   57.2760   25.9250   45.7920 C   0  0  0  0  0  0  0  0  0  0  0  0
   57.5450   27.2730   46.0490 C   0  0  0  0  0  0  0  0  0  0  0  0
   56.3448   33.2196   44.8838 H   0  0  0  0  0  0  0  0  0  0  0  0
   57.6561   35.2254   45.6638 H   0  0  0  0  0  0  0  0  0  0  0  0
   59.9564   34.9172   46.6162 H   0  0  0  0  0  0  0  0  0  0  0  0
   58.3570   28.2768   42.8792 H   0  0  0  0  0  0  0  0  0  0  0  0
   57.8787   25.8700   42.4300 H   0  0  0  0  0  0  0  0  0  0  0  0
   56.9679   25.2603   46.6125 H   0  0  0  0  0  0  0  0  0  0  0  0
   57.4405   27.6655   47.0713 H   0  0  0  0  0  0  0  0  0  0  0  0
  1  2  2  0
  2  3  1  0
  3  4  2  0
  4  5  1  0
  5  6  2  0
  6  7  1  0
  7  8  2  0
  8  9  1  0
  9 10  1  0
 10 11  1  0
 11 12  2  0
 12 13  1  0
 13 14  2  0
 14 15  1  0
 14 16  1  0
 16 17  2  0
 10  2  1  0
 17 11  1  0
  8  3  1  0
  4 18  1  0
  5 19  1  0
  6 20  1  0
 12 21  1  0
 13 22  1  0
 16 23  1  0
 17 24  1  0
M  END
>  <UniqueID>  (93) 
79

>  <SMILES>  (93) 
O=c1c2cccnc2sn1-c1ccc(F)cc1

>  <Energy>  (93) 
74.17735964172266

>  <Genealogy>  (93) 
O=c1c2cccnc2sn1-c1ccc(F)cc1 (3D coordinates assigned)
O=c1c2cccnc2sn1-c1ccc(F)cc1 (optimized conformer: 74.17735964172266 kcal/mol)

>  <smiles>  (93) 
O=c1c2cccnc2sn1-c1ccc(F)cc1

>  <score_type>  (93) 
oracle

>  <origin>  (93) 
adg

>  <m_score__min__energy>  (93) 
-6.0599999999999996

>  <m_primary>  (93) 
energy

$$$$
93:0
     RDKit          3D

 25 26  0  0  0  0  0  0  0  0999 V2000
   55.2570   24.4940   46.3320 O   0  0  0  0  0  0  0  0  0  0  0  0
   55.7430   25.5550   45.8250 C   0  0  0  0  0  0  0  0  0  0  0  0
   55.0250   26.7120   46.0070 O   0  0  0  0  0  0  0  0  0  0  0  0
   57.0240   25.4730   45.0860 C   0  0  0  0  0  0  0  0  0  0  0  0
   57.4730   26.8630   44.7760 C   0  0  0  0  0  0  0  0  0  0  0  0
   58.1510   27.2800   43.6380 C   0  0  0  0  0  0  0  0  0  0  0  0
   58.3580   28.6140   43.7700 N   0  0  0  0  0  0  0  0  0  0  0  0
   57.8480   29.0560   44.9290 C   0  0  0  0  0  0  0  0  0  0  0  0
   57.8770   30.4300   45.4220 C   0  0  0  0  0  0  0  0  0  0  0  0
   58.4630   30.7070   46.6210 C   0  0  0  0  0  0  0  0  0  0  0  0
   58.4590   32.0380   47.0380 C   0  0  0  0  0  0  0  0  0  0  0  0
   57.8970   33.0470   46.2940 C   0  0  0  0  0  0  0  0  0  0  0  0
   57.9210   34.3210   46.7470 F   0  0  0  0  0  0  0  0  0  0  0  0
   57.3010   32.7530   45.0720 C   0  0  0  0  0  0  0  0  0  0  0  0
   57.3070   31.4370   44.6640 C   0  0  0  0  0  0  0  0  0  0  0  0
   57.3160   27.9710   45.5210 N   0  0  0  0  0  0  0  0  0  0  0  0
   55.1480   27.4870   45.3460 H   0  0  0  0  0  0  0  0  0  0  0  0
   57.7794   24.9669   45.7051 H   0  0  0  0  0  0  0  0  0  0  0  0
   56.8906   24.9003   44.1563 H   0  0  0  0  0  0  0  0  0  0  0  0
   58.4608   26.6493   42.7917 H   0  0  0  0  0  0  0  0  0  0  0  0
   58.8640   29.1720   43.0190 H   0  0  0  0  0  0  0  0  0  0  0  0
   58.9193   29.9152   47.2332 H   0  0  0  0  0  0  0  0  0  0  0  0
   58.9249   32.2901   48.0020 H   0  0  0  0  0  0  0  0  0  0  0  0
   56.8428   33.5404   44.4555 H   0  0  0  0  0  0  0  0  0  0  0  0
   56.8420   31.1779   43.7014 H   0  0  0  0  0  0  0  0  0  0  0  0
  1  2  2  0
  2  3  1  0
  2  4  1  0
  4  5  1  0
  5  6  2  0
  6  7  1  0
  7  8  1  0
  8  9  1  0
  9 10  2  0
 10 11  1  0
 11 12  2  0
 12 13  1  0
 12 14  1  0
 14 15  2  0
  8 16  2  0
 16  5  1  0
 15  9  1  0
  3 17  1  0
  4 18  1  0
  4 19  1  0
  6 20  1  0
  7 21  1  0
 10 22  1  0
 11 23  1  0
 14 24  1  0
 15 25  1  0
M  END
>  <smiles>  (94) 
O=C(O)Cc1c[nH]c(-c2ccc(F)cc2)n1

>  <score_type>  (94) 
oracle

>  <origin>  (94) 
adg

>  <m_score__min__energy>  (94) 
-6.9500000000000002

>  <m_primary>  (94) 
energy

$$$$
94:0
     RDKit          3D

 31 32  0  0  0  0  0  0  0  0999 V2000
   61.7222   30.7221   47.9857 H   0  0  0  0  0  0  0  0  0  0  0  0
   61.3850   31.6070   47.4260 C   0  0  0  0  0  0  0  0  0  0  0  0
   60.0430   31.7250   47.0520 C   0  0  0  0  0  0  0  0  0  0  0  0
   59.3287   30.9309   47.3150 H   0  0  0  0  0  0  0  0  0  0  0  0
   59.6050   32.8520   46.3430 C   0  0  0  0  0  0  0  0  0  0  0  0
   57.9130   33.0010   45.8840 S   0  0  0  0  0  0  0  0  0  0  0  0
   57.6040   34.3820   45.3800 O   0  0  0  0  0  0  0  0  0  0  0  0
   57.0780   32.7450   47.1050 O   0  0  0  0  0  0  0  0  0  0  0  0
   57.4870   31.8230   44.6810 N   0  0  0  0  0  0  0  0  0  0  0  0
   57.2380   30.5500   44.8090 C   0  0  0  0  0  0  0  0  0  0  0  0
   56.0080   30.0900   44.7830 O   0  0  0  0  0  0  0  0  0  0  0  0
   55.9950   28.8000   44.9260 N   0  0  0  0  0  0  0  0  0  0  0  0
   55.1330   28.2100   44.9290 H   0  0  0  0  0  0  0  0  0  0  0  0
   57.2650   28.3770   45.0490 C   0  0  0  0  0  0  0  0  0  0  0  0
   57.6570   26.9410   45.1980 C   0  0  0  0  0  0  0  0  0  0  0  0
   57.7259   26.6887   46.2665 H   0  0  0  0  0  0  0  0  0  0  0  0
   56.9002   26.3027   44.7186 H   0  0  0  0  0  0  0  0  0  0  0  0
   58.6331   26.7757   44.7186 H   0  0  0  0  0  0  0  0  0  0  0  0
   58.1170   29.4730   44.9900 C   0  0  0  0  0  0  0  0  0  0  0  0
   59.6150   29.4120   44.9950 C   0  0  0  0  0  0  0  0  0  0  0  0
   59.9779   29.3972   46.0333 H   0  0  0  0  0  0  0  0  0  0  0  0
   59.9465   28.4996   44.4777 H   0  0  0  0  0  0  0  0  0  0  0  0
   60.0196   30.2944   44.4777 H   0  0  0  0  0  0  0  0  0  0  0  0
   60.5240   33.8550   46.0000 C   0  0  0  0  0  0  0  0  0  0  0  0
   60.1882   34.7370   45.4349 H   0  0  0  0  0  0  0  0  0  0  0  0
   61.8660   33.7360   46.3750 C   0  0  0  0  0  0  0  0  0  0  0  0
   62.5816   34.5274   46.1075 H   0  0  0  0  0  0  0  0  0  0  0  0
   62.3030   32.6130   47.0900 C   0  0  0  0  0  0  0  0  0  0  0  0
   63.6760   32.4920   47.4730 N   0  0  0  0  0  0  0  0  0  0  0  0
   64.4200   32.3510   46.7550 H   0  0  0  0  0  0  0  0  0  0  0  0
   63.9560   32.5420   48.4780 H   0  0  0  0  0  0  0  0  0  0  0  0
  1  2  1  0
  2  3  2  0
  3  4  1  0
  3  5  1  0
  5  6  1  0
  6  7  2  0
  6  8  2  0
  6  9  1  0
  9 10  2  0
 10 11  1  0
 11 12  1  0
 12 13  1  0
 12 14  1  0
 14 15  1  0
 15 16  1  0
 15 17  1  0
 15 18  1  0
 14 19  2  0
 19 20  1  0
 20 21  1  0
 20 22  1  0
 20 23  1  0
  5 24  2  0
 24 25  1  0
 24 26  1  0
 26 27  1  0
 26 28  2  0
 28 29  1  0
 29 30  1  0
 29 31  1  0
 28  2  1  0
 19 10  1  0
M  END
>  <UniqueID>  (95) 
80

>  <SMILES>  (95) 
Cc1[nH]o/c(=N/S(=O)(=O)c2ccc(N)cc2)c1C

>  <Energy>  (95) 
70.0991276979709

>  <Genealogy>  (95) 
Cc1[nH]o/c(=N/S(=O)(=O)c2ccc(N)cc2)c1C (cis-trans isomerization)
Cc1[nH]o/c(=N/S(=O)(=O)c2ccc(N)cc2)c1C (3D coordinates assigned)
Cc1[nH]o/c(=N/S(=O)(=O)c2ccc(N)cc2)c1C (optimized conformer: 70.0991276979709 kcal/mol)

>  <smiles>  (95) 
Cc1[nH]oc(=NS(=O)(=O)c2ccc(N)cc2)c1C

>  <score_type>  (95) 
oracle

>  <origin>  (95) 
adg

>  <m_score__min__energy>  (95) 
-7.6500000000000004

>  <m_primary>  (95) 
energy

$$$$
95:0
     RDKit          3D

 44 48  0  0  0  0  0  0  0  0999 V2000
   62.7420   33.8870   45.9910 O   0  0  0  0  0  0  0  0  0  0  0  0
   62.1910   33.6790   47.1060 C   0  0  0  0  0  0  0  0  0  0  0  0
   62.9430   33.6520   48.1950 O   0  0  0  0  0  0  0  0  0  0  0  0
   62.4470   33.4940   49.4160 C   0  0  0  0  0  0  0  0  0  0  0  0
   63.3360   33.4240   50.4890 C   0  0  0  0  0  0  0  0  0  0  0  0
   62.8640   33.2970   51.7910 C   0  0  0  0  0  0  0  0  0  0  0  0
   61.4920   33.3720   52.0510 C   0  0  0  0  0  0  0  0  0  0  0  0
   61.0400   33.3910   53.3800 C   0  0  0  0  0  0  0  0  0  0  0  0
   59.6960   33.6260   53.6620 C   0  0  0  0  0  0  0  0  0  0  0  0
   58.8030   33.8880   52.6250 C   0  0  0  0  0  0  0  0  0  0  0  0
   59.2360   33.8520   51.2970 C   0  0  0  0  0  0  0  0  0  0  0  0
   60.5670   33.4980   50.9760 C   0  0  0  0  0  0  0  0  0  0  0  0
   61.0470   33.3960   49.6290 C   0  0  0  0  0  0  0  0  0  0  0  0
   60.2380   33.2080   48.4690 C   0  0  0  0  0  0  0  0  0  0  0  0
   58.9290   32.6770   48.5160 C   0  0  0  0  0  0  0  0  0  0  0  0
   58.1560   32.5640   47.3600 C   0  0  0  0  0  0  0  0  0  0  0  0
   58.6830   32.9190   46.1100 C   0  0  0  0  0  0  0  0  0  0  0  0
   57.9100   32.8190   44.8990 N   0  0  0  0  0  0  0  0  0  0  0  0
   57.3520   31.3200   44.2230 S   0  0  0  0  0  0  0  0  0  0  0  0
   57.5810   31.3330   42.7370 O   0  0  0  0  0  0  0  0  0  0  0  0
   55.8790   31.1790   44.4900 O   0  0  0  0  0  0  0  0  0  0  0  0
   58.2440   29.9740   44.9220 C   0  0  0  0  0  0  0  0  0  0  0  0
   57.5840   28.7730   45.2170 C   0  0  0  0  0  0  0  0  0  0  0  0
   58.2920   27.6960   45.7590 C   0  0  0  0  0  0  0  0  0  0  0  0
   59.6630   27.8150   46.0140 C   0  0  0  0  0  0  0  0  0  0  0  0
   60.6300   26.3430   46.7530 Br  0  0  0  0  0  0  0  0  0  0  0  0
   60.3240   29.0130   45.7260 C   0  0  0  0  0  0  0  0  0  0  0  0
   59.6170   30.0920   45.1830 C   0  0  0  0  0  0  0  0  0  0  0  0
   60.0170   33.3350   46.0330 C   0  0  0  0  0  0  0  0  0  0  0  0
   60.8110   33.4330   47.1920 C   0  0  0  0  0  0  0  0  0  0  0  0
   64.4193   33.4696   50.3036 H   0  0  0  0  0  0  0  0  0  0  0  0
   63.5714   33.1372   52.6181 H   0  0  0  0  0  0  0  0  0  0  0  0
   61.7502   33.2196   54.2024 H   0  0  0  0  0  0  0  0  0  0  0  0
   59.3401   33.6047   54.7026 H   0  0  0  0  0  0  0  0  0  0  0  0
   57.7530   34.1241   52.8527 H   0  0  0  0  0  0  0  0  0  0  0  0
   58.5318   34.1025   50.4900 H   0  0  0  0  0  0  0  0  0  0  0  0
   58.5130   32.3475   49.4795 H   0  0  0  0  0  0  0  0  0  0  0  0
   57.1229   32.1927   47.4299 H   0  0  0  0  0  0  0  0  0  0  0  0
   57.7090   33.6860   44.3520 H   0  0  0  0  0  0  0  0  0  0  0  0
   56.5057   28.6776   45.0215 H   0  0  0  0  0  0  0  0  0  0  0  0
   57.7709   26.7541   45.9852 H   0  0  0  0  0  0  0  0  0  0  0  0
   61.4014   29.1076   45.9265 H   0  0  0  0  0  0  0  0  0  0  0  0
   60.1391   31.0343   44.9605 H   0  0  0  0  0  0  0  0  0  0  0  0
   60.4510   33.5887   45.0546 H   0  0  0  0  0  0  0  0  0  0  0  0
  1  2  2  0
  2  3  1  0
  3  4  1  0
  4  5  2  0
  5  6  1  0
  6  7  2  0
  7  8  1  0
  8  9  2  0
  9 10  1  0
 10 11  2  0
 11 12  1  0
 12 13  2  0
 13 14  1  0
 14 15  2  0
 15 16  1  0
 16 17  2  0
 17 18  1  0
 18 19  1  0
 19 20  2  0
 19 21  2  0
 19 22  1  0
 22 23  2  0
 23 24  1  0
 24 25  2  0
 25 26  1  0
 25 27  1  0
 27 28  2  0
 17 29  1  0
 29 30  2  0
 30  2  1  0
 13  4  1  0
 30 14  1  0
 12  7  1  0
 28 22  1  0
  5 31  1  0
  6 32  1  0
  8 33  1  0
  9 34  1  0
 10 35  1  0
 11 36  1  0
 15 37  1  0
 16 38  1  0
 18 39  1  0
 23 40  1  0
 24 41  1  0
 27 42  1  0
 28 43  1  0
 29 44  1  0
M  END
>  <UniqueID>  (96) 
81

>  <SMILES>  (96) 
O=c1oc2ccc3ccccc3c2c2ccc(NS(=O)(=O)c3ccc(Br)cc3)cc12

>  <Energy>  (96) 
83.79878007576224

>  <Genealogy>  (96) 
O=c1oc2ccc3ccccc3c2c2ccc(NS(=O)(=O)c3ccc(Br)cc3)cc12 (3D coordinates assigned)
O=c1oc2ccc3ccccc3c2c2ccc(NS(=O)(=O)c3ccc(Br)cc3)cc12 (optimized conformer: 83.79878007576224 kcal/mol)

>  <smiles>  (96) 
O=c1oc2ccc3ccccc3c2c2ccc(NS(=O)(=O)c3ccc(Br)cc3)cc12

>  <score_type>  (96) 
oracle

>  <origin>  (96) 
adg

>  <m_score__min__energy>  (96) 
-9.8200000000000003

>  <m_primary>  (96) 
energy

$$$$
96:0
     RDKit          3D

 29 30  0  0  0  0  0  0  0  0999 V2000
   65.8460   32.8520   48.6380 H   0  0  0  0  0  0  0  0  0  0  0  0
   64.9110   32.7990   49.1020 N   0  0  0  0  0  0  0  0  0  0  0  0
   63.8220   33.1920   48.5150 C   0  0  0  0  0  0  0  0  0  0  0  0
   62.7530   33.7150   49.2730 C   0  0  0  0  0  0  0  0  0  0  0  0
   62.8090   33.8130   50.7800 C   0  0  0  0  0  0  0  0  0  0  0  0
   63.3708   32.9533   51.1741 H   0  0  0  0  0  0  0  0  0  0  0  0
   61.5240   33.8080   51.2870 F   0  0  0  0  0  0  0  0  0  0  0  0
   63.4460   34.9810   51.1600 F   0  0  0  0  0  0  0  0  0  0  0  0
   61.5790   34.0920   48.6060 C   0  0  0  0  0  0  0  0  0  0  0  0
   60.7210   34.4662   49.1838 H   0  0  0  0  0  0  0  0  0  0  0  0
   61.4870   33.9970   47.2100 C   0  0  0  0  0  0  0  0  0  0  0  0
   60.2370   34.3900   46.5150 C   0  0  0  0  0  0  0  0  0  0  0  0
   59.9890   35.6170   46.3590 O   0  0  0  0  0  0  0  0  0  0  0  0
   59.2700   33.3930   45.9940 C   0  0  0  0  0  0  0  0  0  0  0  0
   59.3190   32.0500   46.4130 C   0  0  0  0  0  0  0  0  0  0  0  0
   60.0746   31.7332   47.1470 H   0  0  0  0  0  0  0  0  0  0  0  0
   58.4120   31.1160   45.9010 C   0  0  0  0  0  0  0  0  0  0  0  0
   58.4513   30.0702   46.2398 H   0  0  0  0  0  0  0  0  0  0  0  0
   57.4550   31.5090   44.9590 C   0  0  0  0  0  0  0  0  0  0  0  0
   56.5230   30.5460   44.4330 C   0  0  0  0  0  0  0  0  0  0  0  0
   55.7730   29.7720   44.0120 N   0  0  0  0  0  0  0  0  0  0  0  0
   57.4100   32.8390   44.5250 C   0  0  0  0  0  0  0  0  0  0  0  0
   56.6608   33.1491   43.7817 H   0  0  0  0  0  0  0  0  0  0  0  0
   58.3160   33.7740   45.0350 C   0  0  0  0  0  0  0  0  0  0  0  0
   58.2818   34.8156   44.6829 H   0  0  0  0  0  0  0  0  0  0  0  0
   62.5800   33.4760   46.5020 C   0  0  0  0  0  0  0  0  0  0  0  0
   62.5248   33.3774   45.4078 H   0  0  0  0  0  0  0  0  0  0  0  0
   63.7070   33.0920   47.1580 N   0  0  0  0  0  0  0  0  0  0  0  0
   64.4960   32.7020   46.5940 H   0  0  0  0  0  0  0  0  0  0  0  0
  1  2  1  0
  2  3  2  0
  3  4  1  0
  4  5  1  0
  5  6  1  0
  5  7  1  0
  5  8  1  0
  4  9  2  0
  9 10  1  0
  9 11  1  0
 11 12  1  0
 12 13  2  0
 12 14  1  0
 14 15  2  0
 15 16  1  0
 15 17  1  0
 17 18  1  0
 17 19  2  0
 19 20  1  0
 20 21  3  0
 19 22  1  0
 22 23  1  0
 22 24  2  0
 24 25  1  0
 11 26  2  0
 26 27  1  0
 26 28  1  0
 28 29  1  0
 28  3  1  0
 24 14  1  0
M  END
>  <UniqueID>  (97) 
82

>  <SMILES>  (97) 
[H]/N=c1\[nH]cc(C(=O)c2ccc(C#N)cc2)cc1C(F)F

>  <Energy>  (97) 
36.89058984104815

>  <Genealogy>  (97) 
[H]/N=c1\[nH]cc(C(=O)c2ccc(C#N)cc2)cc1C(F)F (cis-trans isomerization)
[H]/N=c1\[nH]cc(C(=O)c2ccc(C#N)cc2)cc1C(F)F (3D coordinates assigned)
[H]/N=c1\[nH]cc(C(=O)c2ccc(C#N)cc2)cc1C(F)F (optimized conformer: 36.89058984104815 kcal/mol)

>  <smiles>  (97) 
N#Cc1ccc(C(=O)c2c[nH]c(=N)c(C(F)F)c2)cc1

>  <score_type>  (97) 
oracle

>  <origin>  (97) 
adg

>  <m_score__min__energy>  (97) 
-6.5199999999999996

>  <m_primary>  (97) 
energy

$$$$
97:0
     RDKit          3D

 39 41  0  0  0  0  0  0  0  0999 V2000
   58.5320   20.5150   46.3700 N   0  0  0  0  0  0  0  0  0  0  0  0
   57.6510   21.5020   45.7510 C   0  0  0  0  0  0  0  0  0  0  0  0
   57.2350   21.0630   44.3390 C   0  0  0  0  0  0  0  0  0  0  0  0
   56.8850   22.2400   43.4130 C   0  0  0  0  0  0  0  0  0  0  0  0
   56.3290   23.4200   44.1690 C   0  0  0  0  0  0  0  0  0  0  0  0
   55.0280   23.3810   44.6890 C   0  0  0  0  0  0  0  0  0  0  0  0
   54.5260   24.4640   45.4090 C   0  0  0  0  0  0  0  0  0  0  0  0
   55.3140   25.6000   45.6210 C   0  0  0  0  0  0  0  0  0  0  0  0
   54.7680   26.6720   46.3200 O   0  0  0  0  0  0  0  0  0  0  0  0
   56.6290   25.6550   45.1120 C   0  0  0  0  0  0  0  0  0  0  0  0
   57.4990   26.8350   45.3330 C   0  0  0  0  0  0  0  0  0  0  0  0
   57.2180   28.0810   44.8810 N   0  0  0  0  0  0  0  0  0  0  0  0
   58.1880   28.9910   45.1830 C   0  0  0  0  0  0  0  0  0  0  0  0
   58.0930   30.4190   44.7880 C   0  0  0  0  0  0  0  0  0  0  0  0
   58.3300   31.4380   45.7280 C   0  0  0  0  0  0  0  0  0  0  0  0
   58.2350   32.7760   45.3380 C   0  0  0  0  0  0  0  0  0  0  0  0
   57.9160   33.0920   44.0540 N   0  0  0  0  0  0  0  0  0  0  0  0
   57.6800   32.1320   43.1230 C   0  0  0  0  0  0  0  0  0  0  0  0
   57.7630   30.7820   43.4700 C   0  0  0  0  0  0  0  0  0  0  0  0
   59.2720   28.4630   45.8880 C   0  0  0  0  0  0  0  0  0  0  0  0
   58.9870   26.8230   46.1220 S   0  0  0  0  0  0  0  0  0  0  0  0
   57.1230   24.5580   44.3830 C   0  0  0  0  0  0  0  0  0  0  0  0
   58.2630   19.5730   46.0030 H   0  0  0  0  0  0  0  0  0  0  0  0
   59.5090   20.6950   46.0420 H   0  0  0  0  0  0  0  0  0  0  0  0
   56.7500   21.6184   46.3712 H   0  0  0  0  0  0  0  0  0  0  0  0
   58.1936   22.4558   45.6748 H   0  0  0  0  0  0  0  0  0  0  0  0
   58.0665   20.5006   43.8893 H   0  0  0  0  0  0  0  0  0  0  0  0
   56.3275   20.4501   44.4431 H   0  0  0  0  0  0  0  0  0  0  0  0
   57.7961   22.5566   42.8843 H   0  0  0  0  0  0  0  0  0  0  0  0
   56.1109   21.8961   42.7112 H   0  0  0  0  0  0  0  0  0  0  0  0
   54.4004   22.4920   44.5283 H   0  0  0  0  0  0  0  0  0  0  0  0
   53.5036   24.4249   45.8130 H   0  0  0  0  0  0  0  0  0  0  0  0
   56.3280   28.3240   44.3910 H   0  0  0  0  0  0  0  0  0  0  0  0
   58.5891   31.1824   46.7660 H   0  0  0  0  0  0  0  0  0  0  0  0
   58.4185   33.5757   46.0707 H   0  0  0  0  0  0  0  0  0  0  0  0
   57.4227   32.4186   42.0926 H   0  0  0  0  0  0  0  0  0  0  0  0
   57.5710   30.0052   42.7152 H   0  0  0  0  0  0  0  0  0  0  0  0
   60.1559   29.0216   46.2297 H   0  0  0  0  0  0  0  0  0  0  0  0
   58.1442   24.5922   43.9755 H   0  0  0  0  0  0  0  0  0  0  0  0
  1  2  1  0
  2  3  1  0
  3  4  1  0
  4  5  1  0
  5  6  2  0
  6  7  1  0
  7  8  2  0
  8  9  1  0
  8 10  1  0
 10 11  1  0
 11 12  2  0
 12 13  1  0
 13 14  1  0
 14 15  2  0
 15 16  1  0
 16 17  2  0
 17 18  1  0
 18 19  2  0
 13 20  2  0
 20 21  1  0
 10 22  2  0
 22  5  1  0
 21 11  1  0
 19 14  1  0
  1 23  1  0
  1 24  1  0
  2 25  1  0
  2 26  1  0
  3 27  1  0
  3 28  1  0
  4 29  1  0
  4 30  1  0
  6 31  1  0
  7 32  1  0
 12 33  1  0
 15 34  1  0
 16 35  1  0
 18 36  1  0
 19 37  1  0
 20 38  1  0
 22 39  1  0
M  CHG  2   9  -1  12   1
M  END
>  <UniqueID>  (98) 
83

>  <SMILES>  (98) 
NCCCc1ccc([O-])c(-c2[nH+]c(-c3ccncc3)cs2)c1

>  <Energy>  (98) 
74.01575141131013

>  <Genealogy>  (98) 
NCCCc1ccc([O-])c(-c2[nH+]c(-c3ccncc3)cs2)c1 (protonated)
NCCCc1ccc([O-])c(-c2[nH+]c(-c3ccncc3)cs2)c1 (3D coordinates assigned)
NCCCc1ccc([O-])c(-c2[nH+]c(-c3ccncc3)cs2)c1 (optimized conformer: 74.01575141131013 kcal/mol)

>  <smiles>  (98) 
NCCCc1ccc(O)c(-c2nc(-c3ccncc3)cs2)c1

>  <score_type>  (98) 
oracle

>  <origin>  (98) 
adg

>  <m_score__min__energy>  (98) 
-9.8599999999999994

>  <m_primary>  (98) 
energy

$$$$
98:0
     RDKit          3D

 54 58  0  0  0  0  0  0  0  0999 V2000
   55.6915   29.1536   43.2470 H   0  0  0  0  0  0  0  0  0  0  0  0
   56.3460   29.9770   43.5690 C   0  0  0  0  0  0  0  0  0  0  0  0
   56.5860   30.2470   44.8800 N   0  0  0  0  0  0  0  0  0  0  0  0
   57.4110   31.3040   45.0330 C   0  0  0  0  0  0  0  0  0  0  0  0
   57.7770   31.7260   46.2070 N   0  0  0  0  0  0  0  0  0  0  0  0
   57.8520   33.0850   46.6690 C   0  0  0  0  0  0  0  0  0  0  0  0
   57.2990   34.0250   46.0350 O   0  0  0  0  0  0  0  0  0  0  0  0
   58.5280   33.3560   47.9800 C   0  0  0  0  0  0  0  0  0  0  0  0
   57.8603   33.9668   48.6054 H   0  0  0  0  0  0  0  0  0  0  0  0
   58.7444   32.3898   48.4593 H   0  0  0  0  0  0  0  0  0  0  0  0
   59.8060   34.0760   47.8000 N   0  0  0  0  0  0  0  0  0  0  0  0
   60.6360   34.0010   49.0280 C   0  0  0  0  0  0  0  0  0  0  0  0
   60.2853   34.7633   49.7392 H   0  0  0  0  0  0  0  0  0  0  0  0
   60.5330   32.9874   49.4428 H   0  0  0  0  0  0  0  0  0  0  0  0
   62.1190   34.2410   48.7410 C   0  0  0  0  0  0  0  0  0  0  0  0
   62.2385   35.2238   48.2616 H   0  0  0  0  0  0  0  0  0  0  0  0
   62.6708   34.2075   49.6920 H   0  0  0  0  0  0  0  0  0  0  0  0
   62.6800   33.1560   47.8100 C   0  0  0  0  0  0  0  0  0  0  0  0
   63.5588   33.5624   47.2879 H   0  0  0  0  0  0  0  0  0  0  0  0
   62.9379   32.2881   48.4348 H   0  0  0  0  0  0  0  0  0  0  0  0
   61.6530   32.6750   46.7490 C   0  0  1  0  0  0  0  0  0  0  0  0
   62.2279   32.5996   45.8142 H   0  0  0  0  0  0  0  0  0  0  0  0
   61.0920   31.2980   47.0190 C   0  0  0  0  0  0  0  0  0  0  0  0
   60.8110   30.4290   45.9900 N   0  0  0  0  0  0  0  0  0  0  0  0
   60.3940   29.1510   46.2290 C   0  0  0  0  0  0  0  0  0  0  0  0
   60.1500   28.3660   45.2740 O   0  0  0  0  0  0  0  0  0  0  0  0
   60.2680   28.7470   47.5480 C   0  0  0  0  0  0  0  0  0  0  0  0
   59.9520   27.5530   48.1660 C   0  0  0  0  0  0  0  0  0  0  0  0
   59.6650   26.6163   47.6658 H   0  0  0  0  0  0  0  0  0  0  0  0
   60.0610   27.7490   49.5050 N   0  0  0  0  0  0  0  0  0  0  0  0
   59.9120   27.0240   50.2420 H   0  0  0  0  0  0  0  0  0  0  0  0
   60.4190   29.0070   49.7390 N   0  0  0  0  0  0  0  0  0  0  0  0
   60.7130   29.5670   51.0550 C   0  0  0  0  0  0  0  0  0  0  0  0
   60.6317   28.7752   51.8142 H   0  0  0  0  0  0  0  0  0  0  0  0
   61.7332   29.9783   51.0525 H   0  0  0  0  0  0  0  0  0  0  0  0
   59.7380   30.6670   51.3760 C   0  0  0  0  0  0  0  0  0  0  0  0
   60.2060   31.9550   51.6840 C   0  0  0  0  0  0  0  0  0  0  0  0
   61.2871   32.1574   51.6978 H   0  0  0  0  0  0  0  0  0  0  0  0
   59.3010   32.9800   51.9730 C   0  0  0  0  0  0  0  0  0  0  0  0
   59.6719   33.9857   52.2201 H   0  0  0  0  0  0  0  0  0  0  0  0
   57.9270   32.7310   51.9490 C   0  0  0  0  0  0  0  0  0  0  0  0
   57.2179   33.5360   52.1924 H   0  0  0  0  0  0  0  0  0  0  0  0
   57.4530   31.4600   51.6160 C   0  0  0  0  0  0  0  0  0  0  0  0
   56.1190   31.2240   51.5720 F   0  0  0  0  0  0  0  0  0  0  0  0
   58.3550   30.4300   51.3280 C   0  0  0  0  0  0  0  0  0  0  0  0
   57.9792   29.4307   51.0630 H   0  0  0  0  0  0  0  0  0  0  0  0
   60.5500   29.6180   48.5500 C   0  0  0  0  0  0  0  0  0  0  0  0
   60.9700   30.8830   48.3160 N   0  0  0  0  0  0  0  0  0  0  0  0
   60.5100   33.6960   46.5460 C   0  0  0  0  0  0  0  0  0  0  0  0
   60.9354   34.6066   46.0990 H   0  0  0  0  0  0  0  0  0  0  0  0
   59.7644   33.2130   45.8973 H   0  0  0  0  0  0  0  0  0  0  0  0
   57.8790   31.9430   43.5410 S   0  0  0  0  0  0  0  0  0  0  0  0
   56.9870   30.8160   42.6650 C   0  0  0  0  0  0  0  0  0  0  0  0
   56.9226   30.7542   41.5686 H   0  0  0  0  0  0  0  0  0  0  0  0
  1  2  1  0
  2  3  1  0
  3  4  1  0
  4  5  2  0
  5  6  1  0
  6  7  2  0
  6  8  1  0
  8  9  1  0
  8 10  1  0
  8 11  1  0
 11 12  1  0
 12 13  1  0
 12 14  1  0
 12 15  1  0
 15 16  1  0
 15 17  1  0
 15 18  1  0
 18 19  1  0
 18 20  1  0
 18 21  1  0
 21 22  1  6
 21 23  1  0
 23 24  2  0
 24 25  1  0
 25 26  2  0
 25 27  1  0
 27 28  1  0
 28 29  1  0
 28 30  2  0
 30 31  1  0
 30 32  1  0
 32 33  1  0
 33 34  1  0
 33 35  1  0
 33 36  1  0
 36 37  2  0
 37 38  1  0
 37 39  1  0
 39 40  1  0
 39 41  2  0
 41 42  1  0
 41 43  1  0
 43 44  1  0
 43 45  2  0
 45 46  1  0
 32 47  1  0
 47 48  1  0
 21 49  1  0
 49 50  1  0
 49 51  1  0
  4 52  1  0
 52 53  1  0
 53 54  1  0
 53  2  2  0
 49 11  1  0
 48 23  1  0
 47 27  2  0
 45 36  1  0
M  CHG  3   3  -1  30   1  48  -1
M  END
>  <UniqueID>  (99) 
84

>  <SMILES>  (99) 
O=C(CN1CCC[C@@H](c2nc(=O)c3c[nH+]n(Cc4cccc(F)c4)c3[n-]2)C1)/N=c1/[n-]ccs1

>  <Energy>  (99) 
139.38246882305268

>  <Genealogy>  (99) 
O=C(CN1CCCC(c2nc(=O)c3c[nH+]n(Cc4cccc(F)c4)c3[n-]2)C1)N=c1[n-]ccs1 (protonated)
O=C(CN1CCC[C@@H](c2nc(=O)c3c[nH+]n(Cc4cccc(F)c4)c3[n-]2)C1)N=c1[n-]ccs1 (chirality)
O=C(CN1CCC[C@@H](c2nc(=O)c3c[nH+]n(Cc4cccc(F)c4)c3[n-]2)C1)/N=c1/[n-]ccs1 (cis-trans isomerization)
O=C(CN1CCC[C@@H](c2nc(=O)c3c[nH+]n(Cc4cccc(F)c4)c3[n-]2)C1)/N=c1/[n-]ccs1 (3D coordinates assigned)
O=C(CN1CCC[C@@H](c2nc(=O)c3c[nH+]n(Cc4cccc(F)c4)c3[n-]2)C1)/N=c1/[n-]ccs1 (nonaromatic ring conformer: 139.38246882305268 kcal/mol)

>  <smiles>  (99) 
O=C(CN1CCCC(c2nc(=O)c3cnn(Cc4cccc(F)c4)c3[nH]2)C1)N=c1[nH]ccs1

>  <score_type>  (99) 
oracle

>  <origin>  (99) 
adg

>  <m_score__min__energy>  (99) 
-10.73

>  <m_primary>  (99) 
energy

$$$$
