0:0
     RDKit          3D

 47 50  0  0  0  0  0  0  0  0999 V2000
   54.0400   26.3320   46.4240 H   0  0  0  0  0  0  0  0  0  0  0  0
   54.9450   26.3460   45.9720 O   0  0  0  0  0  0  0  0  0  0  0  0
   55.9360   25.4230   46.2950 C   0  0  0  0  0  0  0  0  0  0  0  0
   55.7150   24.3390   47.0560 N   0  0  0  0  0  0  0  0  0  0  0  0
   56.9160   23.7220   47.0560 C   0  0  0  0  0  0  0  0  0  0  0  0
   57.1220   22.6420   47.6660 O   0  0  0  0  0  0  0  0  0  0  0  0
   57.8750   24.3500   46.3420 N   0  0  0  0  0  0  0  0  0  0  0  0
   57.2540   25.4480   45.8820 C   0  0  0  0  0  0  0  0  0  0  0  0
   57.8820   26.4080   44.9620 C   0  0  0  0  0  0  0  0  0  0  0  0
   58.3254   26.0032   44.0403 H   0  0  0  0  0  0  0  0  0  0  0  0
   57.9620   27.7400   45.1490 C   0  0  0  0  0  0  0  0  0  0  0  0
   57.2680   28.6480   44.3650 C   0  0  0  0  0  0  0  0  0  0  0  0
   56.6361   28.4142   43.4955 H   0  0  0  0  0  0  0  0  0  0  0  0
   57.5210   29.9000   44.8830 C   0  0  0  0  0  0  0  0  0  0  0  0
   56.9590   31.1780   44.3370 C   0  0  0  0  0  0  0  0  0  0  0  0
   56.6695   31.8364   45.1693 H   0  0  0  0  0  0  0  0  0  0  0  0
   57.7197   31.6793   43.7205 H   0  0  0  0  0  0  0  0  0  0  0  0
   56.0754   30.9562   43.7205 H   0  0  0  0  0  0  0  0  0  0  0  0
   58.3730   29.8130   45.9280 N   0  0  0  0  0  0  0  0  0  0  0  0
   58.8820   30.9240   46.6870 C   0  0  0  0  0  0  0  0  0  0  0  0
   59.3260   32.0810   46.0320 C   0  0  0  0  0  0  0  0  0  0  0  0
   59.2939   32.1347   44.9338 H   0  0  0  0  0  0  0  0  0  0  0  0
   59.8090   33.1660   46.7670 C   0  0  0  0  0  0  0  0  0  0  0  0
   60.1677   34.0649   46.2442 H   0  0  0  0  0  0  0  0  0  0  0  0
   59.8390   33.1150   48.1700 C   0  0  0  0  0  0  0  0  0  0  0  0
   60.3510   34.2550   48.9540 C   0  0  0  0  0  0  0  0  0  0  0  0
   59.5390   34.9620   49.6080 O   0  0  0  0  0  0  0  0  0  0  0  0
   61.7430   34.5930   48.9970 N   0  0  0  0  0  0  0  0  0  0  0  0
   63.0110   33.5180   49.4940 S   0  0  0  0  0  0  0  0  0  0  0  0
   63.9020   34.2100   50.4860 O   0  0  0  0  0  0  0  0  0  0  0  0
   62.4210   32.2850   50.1240 O   0  0  0  0  0  0  0  0  0  0  0  0
   63.9770   33.0830   48.0490 C   0  0  0  0  0  0  0  0  0  0  0  0
   64.9594   33.1952   48.5309 H   0  0  0  0  0  0  0  0  0  0  0  0
   63.3420   32.0490   47.1360 C   0  0  0  0  0  0  0  0  0  0  0  0
   63.9736   31.3185   46.6092 H   0  0  0  0  0  0  0  0  0  0  0  0
   62.5569   31.2872   47.2511 H   0  0  0  0  0  0  0  0  0  0  0  0
   63.3680   33.5130   46.7250 C   0  0  0  0  0  0  0  0  0  0  0  0
   64.0185   33.8417   45.9011 H   0  0  0  0  0  0  0  0  0  0  0  0
   62.6098   34.2492   46.4197 H   0  0  0  0  0  0  0  0  0  0  0  0
   59.4160   31.9470   48.8240 C   0  0  0  0  0  0  0  0  0  0  0  0
   59.4655   31.8864   49.9212 H   0  0  0  0  0  0  0  0  0  0  0  0
   58.9320   30.8600   48.0890 C   0  0  0  0  0  0  0  0  0  0  0  0
   58.5000   29.7520   48.7400 F   0  0  0  0  0  0  0  0  0  0  0  0
   58.6770   28.4990   46.0900 C   0  0  0  0  0  0  0  0  0  0  0  0
   59.6230   28.0640   46.9380 C   0  0  0  0  0  0  0  0  0  0  0  0
   60.1084   28.7689   47.6291 H   0  0  0  0  0  0  0  0  0  0  0  0
   59.9126   27.0028   46.9416 H   0  0  0  0  0  0  0  0  0  0  0  0
  1  2  1  0
  2  3  1  0
  3  4  1  0
  4  5  1  0
  5  6  2  0
  5  7  1  0
  7  8  1  0
  8  9  1  0
  9 10  1  0
  9 11  2  0
 11 12  1  0
 12 13  1  0
 12 14  2  0
 14 15  1  0
 15 16  1  0
 15 17  1  0
 15 18  1  0
 14 19  1  0
 19 20  1  0
 20 21  2  0
 21 22  1  0
 21 23  1  0
 23 24  1  0
 23 25  2  0
 25 26  1  0
 26 27  2  0
 26 28  1  0
 28 29  1  0
 29 30  2  0
 29 31  2  0
 29 32  1  0
 32 33  1  0
 32 34  1  0
 34 35  1  0
 34 36  1  0
 34 37  1  0
 37 38  1  0
 37 39  1  0
 25 40  1  0
 40 41  1  0
 40 42  2  0
 42 43  1  0
 19 44  1  0
 44 45  2  0
 45 46  1  0
 45 47  1  0
  8  3  2  0
 44 11  1  0
 42 20  1  0
 37 32  1  0
M  CHG  3   4  -1   7  -1  28  -1
M  END
>  <UniqueID>  (1) 
1

>  <SMILES>  (1) 
C=c1/c(=C\c2[n-]c(=O)[n-]c2O)cc(C)n1-c1ccc(C(=O)[N-]S(=O)(=O)C2CC2)cc1F

>  <Energy>  (1) 
394.0809019125506

>  <Genealogy>  (1) 
C=c1c(=Cc2[n-]c(=O)[n-]c2O)cc(C)n1-c1ccc(C(=O)[N-]S(=O)(=O)C2CC2)cc1F (protonated)
C=c1/c(=C\c2[n-]c(=O)[n-]c2O)cc(C)n1-c1ccc(C(=O)[N-]S(=O)(=O)C2CC2)cc1F (cis-trans isomerization)
C=c1/c(=C\c2[n-]c(=O)[n-]c2O)cc(C)n1-c1ccc(C(=O)[N-]S(=O)(=O)C2CC2)cc1F (3D coordinates assigned)
C=c1/c(=C\c2[n-]c(=O)[n-]c2O)cc(C)n1-c1ccc(C(=O)[N-]S(=O)(=O)C2CC2)cc1F (nonaromatic ring conformer: 394.0809019125506 kcal/mol)

>  <smiles>  (1) 
C=c1c(=Cc2[nH]c(=O)[nH]c2O)cc(C)n1-c1ccc(C(=O)NS(=O)(=O)C2CC2)cc1F

>  <score_type>  (1) 
oracle

>  <origin>  (1) 
adg

>  <m_score__min__energy>  (1) 
-14.26

>  <m_primary>  (1) 
energy

$$$$
1:0
     RDKit          3D

 56 58  0  0  0  0  0  0  0  0999 V2000
   50.6070   31.5710   54.2650 C   0  0  0  0  0  0  0  0  0  0  0  0
   51.7260   31.3070   53.3000 C   0  0  0  0  0  0  0  0  0  0  0  0
   52.8080   30.4940   53.6740 C   0  0  0  0  0  0  0  0  0  0  0  0
   53.8670   30.2670   52.7840 C   0  0  0  0  0  0  0  0  0  0  0  0
   55.2430   29.2900   53.2920 S   0  0  0  0  0  0  0  0  0  0  0  0
   55.6770   29.7190   54.6680 O   0  0  0  0  0  0  0  0  0  0  0  0
   54.8340   27.8440   53.3480 O   0  0  0  0  0  0  0  0  0  0  0  0
   56.5750   29.4560   52.1950 N   0  0  0  0  0  0  0  0  0  0  0  0
   57.3490   30.6520   52.0990 C   0  0  0  0  0  0  0  0  0  0  0  0
   57.7180   31.3610   53.2480 C   0  0  0  0  0  0  0  0  0  0  0  0
   58.4900   32.5190   53.1380 C   0  0  0  0  0  0  0  0  0  0  0  0
   58.8900   32.9800   51.8800 C   0  0  0  0  0  0  0  0  0  0  0  0
   58.5150   32.2830   50.7150 C   0  0  0  0  0  0  0  0  0  0  0  0
   58.9000   32.7360   49.3570 C   0  0  0  0  0  0  0  0  0  0  0  0
   59.1250   31.8990   48.3330 C   0  0  0  0  0  0  0  0  0  0  0  0
   58.5190   32.0600   46.9950 C   0  0  0  0  0  0  0  0  0  0  0  0
   57.8950   33.1290   46.7500 O   0  0  0  0  0  0  0  0  0  0  0  0
   58.6380   31.0550   45.9730 N   0  0  0  0  0  0  0  0  0  0  0  0
   57.8560   31.0910   44.7390 C   0  0  0  0  0  0  0  0  0  0  0  0
   57.4090   29.6850   44.3290 C   0  0  0  0  0  0  0  0  0  0  0  0
   58.2900   28.6590   44.9300 N   0  0  0  0  0  0  0  0  0  0  0  0
   58.5910   27.5420   43.9990 C   0  0  0  0  0  0  0  0  0  0  0  0
   57.8110   26.2660   44.3590 C   0  0  0  0  0  0  0  0  0  0  0  0
   58.0740   25.7920   45.6720 O   0  0  0  0  0  0  0  0  0  0  0  0
   58.3620   26.8260   46.6050 C   0  0  0  0  0  0  0  0  0  0  0  0
   57.7610   28.1880   46.2290 C   0  0  0  0  0  0  0  0  0  0  0  0
   57.7210   31.1300   50.8380 C   0  0  0  0  0  0  0  0  0  0  0  0
   53.8430   30.8570   51.5130 C   0  0  0  0  0  0  0  0  0  0  0  0
   52.7680   31.6630   51.1340 C   0  0  0  0  0  0  0  0  0  0  0  0
   51.7120   31.8920   52.0200 C   0  0  0  0  0  0  0  0  0  0  0  0
   50.6530   32.7030   51.6250 O   0  0  0  0  0  0  0  0  0  0  0  0
   50.9826   31.4824   55.2951 H   0  0  0  0  0  0  0  0  0  0  0  0
   50.2154   32.5862   54.1035 H   0  0  0  0  0  0  0  0  0  0  0  0
   49.8030   30.8379   54.1035 H   0  0  0  0  0  0  0  0  0  0  0  0
   52.8248   30.0321   54.6722 H   0  0  0  0  0  0  0  0  0  0  0  0
   57.3993   31.0053   54.2389 H   0  0  0  0  0  0  0  0  0  0  0  0
   58.7843   33.0702   54.0433 H   0  0  0  0  0  0  0  0  0  0  0  0
   59.5005   33.8915   51.7998 H   0  0  0  0  0  0  0  0  0  0  0  0
   59.0069   33.8163   49.1794 H   0  0  0  0  0  0  0  0  0  0  0  0
   59.7983   31.0451   48.4987 H   0  0  0  0  0  0  0  0  0  0  0  0
   59.2740   30.2370   46.1050 H   0  0  0  0  0  0  0  0  0  0  0  0
   56.9668   31.7195   44.8952 H   0  0  0  0  0  0  0  0  0  0  0  0
   58.4859   31.5051   43.9379 H   0  0  0  0  0  0  0  0  0  0  0  0
   56.3769   29.5201   44.6718 H   0  0  0  0  0  0  0  0  0  0  0  0
   57.4658   29.6016   43.2336 H   0  0  0  0  0  0  0  0  0  0  0  0
   58.3197   27.8479   42.9778 H   0  0  0  0  0  0  0  0  0  0  0  0
   59.6650   27.3165   44.0747 H   0  0  0  0  0  0  0  0  0  0  0  0
   56.7353   26.4803   44.2753 H   0  0  0  0  0  0  0  0  0  0  0  0
   58.1358   25.4806   43.6606 H   0  0  0  0  0  0  0  0  0  0  0  0
   57.9612   26.5293   47.5855 H   0  0  0  0  0  0  0  0  0  0  0  0
   59.4548   26.9511   46.6159 H   0  0  0  0  0  0  0  0  0  0  0  0
   56.6675   28.0919   46.1588 H   0  0  0  0  0  0  0  0  0  0  0  0
   58.0340   28.9184   47.0049 H   0  0  0  0  0  0  0  0  0  0  0  0
   57.3889   30.5983   49.9341 H   0  0  0  0  0  0  0  0  0  0  0  0
   54.6732   30.6846   50.8123 H   0  0  0  0  0  0  0  0  0  0  0  0
   52.7522   32.1198   50.1335 H   0  0  0  0  0  0  0  0  0  0  0  0
  1  2  1  0
  2  3  2  0
  3  4  1  0
  4  5  1  0
  5  6  2  0
  5  7  2  0
  5  8  1  0
  8  9  1  0
  9 10  2  0
 10 11  1  0
 11 12  2  0
 12 13  1  0
 13 14  1  0
 14 15  2  3
 15 16  1  0
 16 17  2  0
 16 18  1  0
 18 19  1  0
 19 20  1  0
 20 21  1  0
 21 22  1  0
 22 23  1  0
 23 24  1  0
 24 25  1  0
 25 26  1  0
 13 27  2  0
  4 28  2  0
 28 29  1  0
 29 30  2  0
 30 31  1  0
 30  2  1  0
 27  9  1  0
 26 21  1  0
  1 32  1  0
  1 33  1  0
  1 34  1  0
  3 35  1  0
 10 36  1  0
 11 37  1  0
 12 38  1  0
 14 39  1  0
 15 40  1  0
 18 41  1  0
 19 42  1  0
 19 43  1  0
 20 44  1  0
 20 45  1  0
 22 46  1  0
 22 47  1  0
 23 48  1  0
 23 49  1  0
 25 50  1  0
 25 51  1  0
 26 52  1  0
 26 53  1  0
 27 54  1  0
 28 55  1  0
 29 56  1  0
M  CHG  2   8  -1  31  -1
M  END
>  <UniqueID>  (2) 
2

>  <SMILES>  (2) 
Cc1cc(S(=O)(=O)[N-]c2cccc(C=CC(=O)NCCN3CCOCC3)c2)ccc1[O-]

>  <Energy>  (2) 
80.7096836496611

>  <Genealogy>  (2) 
Cc1cc(S(=O)(=O)[N-]c2cccc(C=CC(=O)NCCN3CCOCC3)c2)ccc1[O-] (protonated)
Cc1cc(S(=O)(=O)[N-]c2cccc(C=CC(=O)NCCN3CCOCC3)c2)ccc1[O-] (3D coordinates assigned)
Cc1cc(S(=O)(=O)[N-]c2cccc(C=CC(=O)NCCN3CCOCC3)c2)ccc1[O-] (nonaromatic ring conformer: 80.7096836496611 kcal/mol)

>  <smiles>  (2) 
Cc1cc(S(=O)(=O)Nc2cccc(C=CC(=O)NCCN3CCOCC3)c2)ccc1O

>  <score_type>  (2) 
oracle

>  <origin>  (2) 
adg

>  <m_score__min__energy>  (2) 
-13.01

>  <m_primary>  (2) 
energy

$$$$
2:0
     RDKit          3D

 63 66  0  0  0  0  0  0  0  0999 V2000
   54.5260   30.8160   52.1540 C   0  0  0  0  0  0  0  0  0  0  0  0
   55.7740   30.3640   51.6400 O   0  0  0  0  0  0  0  0  0  0  0  0
   56.8120   29.8350   52.4230 C   0  0  0  0  0  0  0  0  0  0  0  0
   56.5730   29.2590   53.6870 C   0  0  0  0  0  0  0  0  0  0  0  0
   57.6260   28.7160   54.4260 C   0  0  0  0  0  0  0  0  0  0  0  0
   58.9250   28.7370   53.9160 C   0  0  0  0  0  0  0  0  0  0  0  0
   59.1750   29.3090   52.6680 C   0  0  0  0  0  0  0  0  0  0  0  0
   58.1280   29.8660   51.9190 C   0  0  0  0  0  0  0  0  0  0  0  0
   58.4120   30.4580   50.6430 N   0  0  0  0  0  0  0  0  0  0  0  0
   58.1660   31.8910   50.4320 C   0  0  0  0  0  0  0  0  0  0  0  0
   58.8580   32.3750   49.1590 C   0  0  0  0  0  0  0  0  0  0  0  0
   60.1770   31.7350   49.0650 N   0  0  0  0  0  0  0  0  0  0  0  0
   61.1490   32.5180   47.8440 S   0  0  0  0  0  0  0  0  0  0  0  0
   61.9590   33.6130   48.4790 O   0  0  0  0  0  0  0  0  0  0  0  0
   62.1010   31.5210   47.2440 O   0  0  0  0  0  0  0  0  0  0  0  0
   60.1440   33.2100   46.5660 C   0  0  0  0  0  0  0  0  0  0  0  0
   60.1570   34.5910   46.3350 C   0  0  0  0  0  0  0  0  0  0  0  0
   59.3480   35.1430   45.3400 C   0  0  0  0  0  0  0  0  0  0  0  0
   58.5270   34.3220   44.5640 C   0  0  0  0  0  0  0  0  0  0  0  0
   58.5140   32.9290   44.7710 C   0  0  0  0  0  0  0  0  0  0  0  0
   57.6440   32.0420   43.9620 C   0  0  0  0  0  0  0  0  0  0  0  0
   57.7000   32.1030   42.7030 O   0  0  0  0  0  0  0  0  0  0  0  0
   56.7290   31.1240   44.5860 N   0  0  0  0  0  0  0  0  0  0  0  0
   55.9230   30.1800   43.8160 C   0  0  0  0  0  0  0  0  0  0  0  0
   56.7580   28.9560   43.4320 C   0  0  0  0  0  0  0  0  0  0  0  0
   57.5320   28.4470   44.6210 C   0  0  0  0  0  0  0  0  0  0  0  0
   58.9100   28.7090   44.7190 C   0  0  0  0  0  0  0  0  0  0  0  0
   59.6340   28.2740   45.8320 C   0  0  0  0  0  0  0  0  0  0  0  0
   58.9890   27.5820   46.8600 C   0  0  0  0  0  0  0  0  0  0  0  0
   57.6180   27.3270   46.7800 C   0  0  0  0  0  0  0  0  0  0  0  0
   56.8850   27.7600   45.6690 C   0  0  0  0  0  0  0  0  0  0  0  0
   55.5190   27.5070   45.6150 O   0  0  0  0  0  0  0  0  0  0  0  0
   59.3240   32.3840   45.7840 C   0  0  0  0  0  0  0  0  0  0  0  0
   60.0570   30.2900   48.7790 C   0  0  0  0  0  0  0  0  0  0  0  0
   58.8930   29.6190   49.5400 C   0  0  0  0  0  0  0  0  0  0  0  0
   54.5566   30.8049   53.2535 H   0  0  0  0  0  0  0  0  0  0  0  0
   54.3343   31.8407   51.8029 H   0  0  0  0  0  0  0  0  0  0  0  0
   53.7226   30.1517   51.8029 H   0  0  0  0  0  0  0  0  0  0  0  0
   55.5512   29.2371   54.0936 H   0  0  0  0  0  0  0  0  0  0  0  0
   57.4312   28.2705   55.4127 H   0  0  0  0  0  0  0  0  0  0  0  0
   59.7515   28.3028   54.4977 H   0  0  0  0  0  0  0  0  0  0  0  0
   60.2000   29.3232   52.2689 H   0  0  0  0  0  0  0  0  0  0  0  0
   57.0831   32.0622   50.3420 H   0  0  0  0  0  0  0  0  0  0  0  0
   58.5703   32.4496   51.2890 H   0  0  0  0  0  0  0  0  0  0  0  0
   58.2518   32.1031   48.2823 H   0  0  0  0  0  0  0  0  0  0  0  0
   58.9743   33.4684   49.1892 H   0  0  0  0  0  0  0  0  0  0  0  0
   60.8060   35.2424   46.9388 H   0  0  0  0  0  0  0  0  0  0  0  0
   59.3573   36.2292   45.1666 H   0  0  0  0  0  0  0  0  0  0  0  0
   57.8871   34.7657   43.7870 H   0  0  0  0  0  0  0  0  0  0  0  0
   56.5900   31.1470   45.6200 H   0  0  0  0  0  0  0  0  0  0  0  0
   55.0642   29.8572   44.4228 H   0  0  0  0  0  0  0  0  0  0  0  0
   55.5722   30.6752   42.8985 H   0  0  0  0  0  0  0  0  0  0  0  0
   56.0892   28.1616   43.0691 H   0  0  0  0  0  0  0  0  0  0  0  0
   57.4687   29.2449   42.6437 H   0  0  0  0  0  0  0  0  0  0  0  0
   59.4207   29.2594   43.9151 H   0  0  0  0  0  0  0  0  0  0  0  0
   60.7131   28.4766   45.8989 H   0  0  0  0  0  0  0  0  0  0  0  0
   59.5616   27.2374   47.7337 H   0  0  0  0  0  0  0  0  0  0  0  0
   57.1129   26.7843   47.5926 H   0  0  0  0  0  0  0  0  0  0  0  0
   59.3140   31.2989   45.9644 H   0  0  0  0  0  0  0  0  0  0  0  0
   59.8918   30.1589   47.6994 H   0  0  0  0  0  0  0  0  0  0  0  0
   60.9886   29.8100   49.1131 H   0  0  0  0  0  0  0  0  0  0  0  0
   58.0640   29.4415   48.8391 H   0  0  0  0  0  0  0  0  0  0  0  0
   59.2601   28.6724   49.9635 H   0  0  0  0  0  0  0  0  0  0  0  0
  1  2  1  0
  2  3  1  0
  3  4  2  0
  4  5  1  0
  5  6  2  0
  6  7  1  0
  7  8  2  0
  8  9  1  0
  9 10  1  0
 10 11  1  0
 11 12  1  0
 12 13  1  0
 13 14  2  0
 13 15  2  0
 13 16  1  0
 16 17  2  0
 17 18  1  0
 18 19  2  0
 19 20  1  0
 20 21  1  0
 21 22  2  0
 21 23  1  0
 23 24  1  0
 24 25  1  0
 25 26  1  0
 26 27  2  0
 27 28  1  0
 28 29  2  0
 29 30  1  0
 30 31  2  0
 31 32  1  0
 20 33  2  0
 12 34  1  0
 34 35  1  0
  8  3  1  0
 35  9  1  0
 33 16  1  0
 31 26  1  0
  1 36  1  0
  1 37  1  0
  1 38  1  0
  4 39  1  0
  5 40  1  0
  6 41  1  0
  7 42  1  0
 10 43  1  0
 10 44  1  0
 11 45  1  0
 11 46  1  0
 17 47  1  0
 18 48  1  0
 19 49  1  0
 23 50  1  0
 24 51  1  0
 24 52  1  0
 25 53  1  0
 25 54  1  0
 27 55  1  0
 28 56  1  0
 29 57  1  0
 30 58  1  0
 33 59  1  0
 34 60  1  0
 34 61  1  0
 35 62  1  0
 35 63  1  0
M  CHG  1  32  -1
M  END
>  <UniqueID>  (3) 
3

>  <SMILES>  (3) 
COc1ccccc1N1CCN(S(=O)(=O)c2cccc(C(=O)NCCc3ccccc3[O-])c2)CC1

>  <Energy>  (3) 
73.33806823118498

>  <Genealogy>  (3) 
COc1ccccc1N1CCN(S(=O)(=O)c2cccc(C(=O)NCCc3ccccc3[O-])c2)CC1 (protonated)
COc1ccccc1N1CCN(S(=O)(=O)c2cccc(C(=O)NCCc3ccccc3[O-])c2)CC1 (3D coordinates assigned)
COc1ccccc1N1CCN(S(=O)(=O)c2cccc(C(=O)NCCc3ccccc3[O-])c2)CC1 (nonaromatic ring conformer: 73.33806823118498 kcal/mol)

>  <smiles>  (3) 
COc1ccccc1N1CCN(S(=O)(=O)c2cccc(C(=O)NCCc3ccccc3O)c2)CC1

>  <score_type>  (3) 
oracle

>  <origin>  (3) 
adg

>  <m_score__min__energy>  (3) 
-14.94

>  <m_primary>  (3) 
energy

$$$$
3:0
     RDKit          3D

 33 34  0  0  1  0  0  0  0  0999 V2000
   58.5440   27.9610   47.8040 C   0  0  0  0  0  0  0  0  0  0  0  0
   58.1880   27.4670   46.5980 C   0  0  0  0  0  0  0  0  0  0  0  0
   58.2270   28.2470   45.3590 C   0  0  2  0  0  0  0  0  0  0  0  0
   57.0320   29.1410   45.1680 C   0  0  0  0  0  0  0  0  0  0  0  0
   55.8260   28.4610   45.1690 O   0  0  0  0  0  0  0  0  0  0  0  0
   58.3160   26.9580   44.0840 S   0  0  0  0  0  0  0  0  0  0  0  0
   58.5610   25.5360   45.2250 C   0  0  2  0  0  0  0  0  0  0  0  0
   58.0120   24.3370   44.6890 N   0  0  0  0  0  0  0  0  0  0  0  0
   56.8810   24.3150   43.9430 C   0  0  0  0  0  0  0  0  0  0  0  0
   56.3980   23.1090   43.4510 C   0  0  0  0  0  0  0  0  0  0  0  0
   55.1530   23.0480   42.6240 C   0  0  0  0  0  0  0  0  0  0  0  0
   58.6300   23.1670   44.9260 C   0  0  0  0  0  0  0  0  0  0  0  0
   56.6110   20.8180   43.2580 N   0  0  0  0  0  0  0  0  0  0  0  0
   58.1900   21.9940   44.4660 N   0  0  0  0  0  0  0  0  0  0  0  0
   57.0670   21.9390   43.7200 C   0  0  0  0  0  0  0  0  0  0  0  0
   59.6940   23.1790   45.6270 O   0  0  0  0  0  0  0  0  0  0  0  0
   57.7150   26.0810   46.3840 C   0  0  2  0  0  0  0  0  0  0  0  0
   56.3760   26.0330   45.9930 O   0  0  0  0  0  0  0  0  0  0  0  0
   58.4917   27.3215   48.6975 H   0  0  0  0  0  0  0  0  0  0  0  0
   58.8862   29.0027   47.8924 H   0  0  0  0  0  0  0  0  0  0  0  0
   59.0691   28.9545   45.3409 H   0  0  0  0  0  0  0  0  0  0  0  0
   57.0159   29.8791   45.9834 H   0  0  0  0  0  0  0  0  0  0  0  0
   57.1361   29.6123   44.1795 H   0  0  0  0  0  0  0  0  0  0  0  0
   55.9480   27.6390   44.6030 H   0  0  0  0  0  0  0  0  0  0  0  0
   59.5993   25.2587   45.4596 H   0  0  0  0  0  0  0  0  0  0  0  0
   56.3457   25.2514   43.7272 H   0  0  0  0  0  0  0  0  0  0  0  0
   54.2752   23.0050   43.2855 H   0  0  0  0  0  0  0  0  0  0  0  0
   55.0902   23.9441   41.9892 H   0  0  0  0  0  0  0  0  0  0  0  0
   55.1781   22.1500   41.9892 H   0  0  0  0  0  0  0  0  0  0  0  0
   57.0740   19.9240   43.5270 H   0  0  0  0  0  0  0  0  0  0  0  0
   58.7340   21.1120   44.6950 H   0  0  0  0  0  0  0  0  0  0  0  0
   57.8079   25.5074   47.3180 H   0  0  0  0  0  0  0  0  0  0  0  0
   56.2950   26.3490   45.0750 H   0  0  0  0  0  0  0  0  0  0  0  0
  1  2  2  0
  2  3  1  0
  3  4  1  0
  4  5  1  0
  3  6  1  0
  6  7  1  0
  7  8  1  0
  8  9  1  0
  9 10  2  0
 10 11  1  0
 10 12  1  0
 12 13  2  3
 12 14  1  0
 14 15  1  0
 15 16  2  0
  7 17  1  0
 17 18  1  0
 17  2  1  0
 15  8  1  0
  1 19  1  0
  1 20  1  0
  3 21  1  1
  4 22  1  0
  4 23  1  0
  5 24  1  0
  7 25  1  1
  9 26  1  0
 11 27  1  0
 11 28  1  0
 11 29  1  0
 13 30  1  0
 14 31  1  0
 17 32  1  1
 18 33  1  0
M  END
>  <smiles>  (4) 
C=C1C(CO)SC(n2cc(C)c(=N)[nH]c2=O)C1O

>  <score_type>  (4) 
oracle

>  <origin>  (4) 
adg

>  <m_score__min__energy>  (4) 
-6.8099999999999996

>  <m_primary>  (4) 
energy

$$$$
4:0
     RDKit          3D

 63 67  0  0  0  0  0  0  0  0999 V2000
   60.0230   29.0380   53.0260 C   0  0  0  0  0  0  0  0  0  0  0  0
   61.2320   28.2460   52.7380 N   0  0  0  0  0  0  0  0  0  0  0  0
   62.2120   29.0030   51.9330 C   0  0  0  0  0  0  0  0  0  0  0  0
   61.6900   29.2860   50.5130 C   0  0  0  0  0  0  0  0  0  0  0  0
   60.9510   28.1330   49.9900 N   0  0  0  0  0  0  0  0  0  0  0  0
   60.1740   28.2600   48.7860 C   0  0  0  0  0  0  0  0  0  0  0  0
   59.3110   29.3530   48.6180 C   0  0  0  0  0  0  0  0  0  0  0  0
   58.5340   29.4680   47.4620 C   0  0  0  0  0  0  0  0  0  0  0  0
   58.6070   28.4980   46.4540 C   0  0  0  0  0  0  0  0  0  0  0  0
   57.7580   28.6480   45.3060 N   0  0  0  0  0  0  0  0  0  0  0  0
   56.8540   29.7200   44.9910 C   0  0  0  0  0  0  0  0  0  0  0  0
   55.6200   29.4980   44.8520 O   0  0  0  0  0  0  0  0  0  0  0  0
   57.3840   31.0840   44.7660 C   0  0  0  0  0  0  0  0  0  0  0  0
   57.5980   31.5620   43.4610 C   0  0  0  0  0  0  0  0  0  0  0  0
   58.1380   32.8350   43.2540 C   0  0  0  0  0  0  0  0  0  0  0  0
   58.4710   33.6440   44.3410 C   0  0  0  0  0  0  0  0  0  0  0  0
   58.2560   33.1880   45.6510 C   0  0  0  0  0  0  0  0  0  0  0  0
   58.6250   34.0470   46.8340 C   0  0  0  0  0  0  0  0  0  0  0  0
   59.5380   33.3130   47.7280 N   0  0  0  0  0  0  0  0  0  0  0  0
   58.9920   32.6810   48.9060 C   0  0  0  0  0  0  0  0  0  0  0  0
   57.7640   32.3990   48.9710 O   0  0  0  0  0  0  0  0  0  0  0  0
   59.8910   32.3230   50.0530 C   0  0  0  0  0  0  0  0  0  0  0  0
   61.0440   33.3260   50.1590 C   0  0  0  0  0  0  0  0  0  0  0  0
   61.7400   33.4790   48.8330 C   0  0  0  0  0  0  0  0  0  0  0  0
   63.1260   33.6910   48.7760 C   0  0  0  0  0  0  0  0  0  0  0  0
   63.7600   33.8640   47.5450 C   0  0  0  0  0  0  0  0  0  0  0  0
   63.0200   33.8180   46.3630 C   0  0  0  0  0  0  0  0  0  0  0  0
   61.6370   33.6190   46.4080 C   0  0  0  0  0  0  0  0  0  0  0  0
   60.9760   33.4810   47.6450 C   0  0  0  0  0  0  0  0  0  0  0  0
   57.7020   31.9140   45.8550 C   0  0  0  0  0  0  0  0  0  0  0  0
   59.4630   27.3930   46.6300 C   0  0  0  0  0  0  0  0  0  0  0  0
   60.2490   27.2840   47.7810 C   0  0  0  0  0  0  0  0  0  0  0  0
   61.1180   26.8240   50.6290 C   0  0  0  0  0  0  0  0  0  0  0  0
   60.8990   26.9190   52.1540 C   0  0  0  0  0  0  0  0  0  0  0  0
   59.8917   29.1240   54.1148 H   0  0  0  0  0  0  0  0  0  0  0  0
   60.1296   30.0419   52.5891 H   0  0  0  0  0  0  0  0  0  0  0  0
   59.1453   28.5393   52.5891 H   0  0  0  0  0  0  0  0  0  0  0  0
   62.4196   29.9604   52.4332 H   0  0  0  0  0  0  0  0  0  0  0  0
   63.1249   28.3954   51.8464 H   0  0  0  0  0  0  0  0  0  0  0  0
   61.0220   30.1594   50.5419 H   0  0  0  0  0  0  0  0  0  0  0  0
   62.5490   29.4821   49.8544 H   0  0  0  0  0  0  0  0  0  0  0  0
   59.2455   30.1236   49.4002 H   0  0  0  0  0  0  0  0  0  0  0  0
   57.8589   30.3282   47.3426 H   0  0  0  0  0  0  0  0  0  0  0  0
   57.3391   30.9308   42.5981 H   0  0  0  0  0  0  0  0  0  0  0  0
   58.3011   33.2005   42.2294 H   0  0  0  0  0  0  0  0  0  0  0  0
   58.9029   34.6413   44.1710 H   0  0  0  0  0  0  0  0  0  0  0  0
   59.1215   34.9619   46.4784 H   0  0  0  0  0  0  0  0  0  0  0  0
   57.7113   34.3080   47.3882 H   0  0  0  0  0  0  0  0  0  0  0  0
   59.3104   32.3377   50.9872 H   0  0  0  0  0  0  0  0  0  0  0  0
   60.3056   31.3185   49.8822 H   0  0  0  0  0  0  0  0  0  0  0  0
   60.6456   34.3023   50.4724 H   0  0  0  0  0  0  0  0  0  0  0  0
   61.7690   32.9544   50.8981 H   0  0  0  0  0  0  0  0  0  0  0  0
   63.7146   33.7209   49.7048 H   0  0  0  0  0  0  0  0  0  0  0  0
   64.8456   34.0370   47.5064 H   0  0  0  0  0  0  0  0  0  0  0  0
   63.5259   33.9386   45.3937 H   0  0  0  0  0  0  0  0  0  0  0  0
   61.0611   33.5698   45.4721 H   0  0  0  0  0  0  0  0  0  0  0  0
   57.5145   31.5610   46.8798 H   0  0  0  0  0  0  0  0  0  0  0  0
   59.5132   26.6116   45.8574 H   0  0  0  0  0  0  0  0  0  0  0  0
   60.9300   26.4283   47.8993 H   0  0  0  0  0  0  0  0  0  0  0  0
   60.3867   26.1207   50.2040 H   0  0  0  0  0  0  0  0  0  0  0  0
   62.1440   26.4730   50.4442 H   0  0  0  0  0  0  0  0  0  0  0  0
   59.8405   26.7058   52.3641 H   0  0  0  0  0  0  0  0  0  0  0  0
   61.5814   26.1907   52.6166 H   0  0  0  0  0  0  0  0  0  0  0  0
  1  2  1  0
  2  3  1  0
  3  4  1  0
  4  5  1  0
  5  6  1  0
  6  7  2  0
  7  8  1  0
  8  9  2  0
  9 10  1  0
 10 11  1  0
 11 12  2  0
 11 13  1  0
 13 14  2  0
 14 15  1  0
 15 16  2  0
 16 17  1  0
 17 18  1  0
 18 19  1  0
 19 20  1  0
 20 21  2  0
 20 22  1  0
 22 23  1  0
 23 24  1  0
 24 25  2  0
 25 26  1  0
 26 27  2  0
 27 28  1  0
 28 29  2  0
 17 30  2  0
  9 31  1  0
 31 32  2  0
  5 33  1  0
 33 34  1  0
 34  2  1  0
 32  6  1  0
 30 13  1  0
 29 19  1  0
 29 24  1  0
  1 35  1  0
  1 36  1  0
  1 37  1  0
  3 38  1  0
  3 39  1  0
  4 40  1  0
  4 41  1  0
  7 42  1  0
  8 43  1  0
 14 44  1  0
 15 45  1  0
 16 46  1  0
 18 47  1  0
 18 48  1  0
 22 49  1  0
 22 50  1  0
 23 51  1  0
 23 52  1  0
 25 53  1  0
 26 54  1  0
 27 55  1  0
 28 56  1  0
 30 57  1  0
 31 58  1  0
 32 59  1  0
 33 60  1  0
 33 61  1  0
 34 62  1  0
 34 63  1  0
M  CHG  1  10  -1
M  END
>  <UniqueID>  (5) 
4

>  <SMILES>  (5) 
CN1CCN(c2ccc([N-]C(=O)c3cccc(CN4C(=O)CCc5ccccc54)c3)cc2)CC1

>  <Energy>  (5) 
87.01004829605085

>  <Genealogy>  (5) 
CN1CCN(c2ccc([N-]C(=O)c3cccc(CN4C(=O)CCc5ccccc54)c3)cc2)CC1 (protonated)
CN1CCN(c2ccc([N-]C(=O)c3cccc(CN4C(=O)CCc5ccccc54)c3)cc2)CC1 (3D coordinates assigned)
CN1CCN(c2ccc([N-]C(=O)c3cccc(CN4C(=O)CCc5ccccc54)c3)cc2)CC1 (nonaromatic ring conformer: 87.01004829605085 kcal/mol)

>  <smiles>  (5) 
CN1CCN(c2ccc(NC(=O)c3cccc(CN4C(=O)CCc5ccccc54)c3)cc2)CC1

>  <score_type>  (5) 
oracle

>  <origin>  (5) 
adg

>  <m_score__min__energy>  (5) 
-12.35

>  <m_primary>  (5) 
energy

$$$$
5:0
     RDKit          3D

 57 59  0  0  0  0  0  0  0  0999 V2000
   55.4560   28.9720   44.8880 N   0  0  0  0  0  0  0  0  0  0  0  0
   56.8720   29.0410   44.7250 C   0  0  0  0  0  0  0  0  0  0  0  0
   57.3440   29.4740   43.6390 O   0  0  0  0  0  0  0  0  0  0  0  0
   57.7790   28.6200   45.8180 C   0  0  0  0  0  0  0  0  0  0  0  0
   57.5910   27.3900   46.4720 C   0  0  0  0  0  0  0  0  0  0  0  0
   58.4400   27.0020   47.5120 C   0  0  0  0  0  0  0  0  0  0  0  0
   59.4900   27.8380   47.9230 C   0  0  0  0  0  0  0  0  0  0  0  0
   60.3970   27.4260   49.0670 C   0  0  0  0  0  0  0  0  0  0  0  0
   60.9940   28.5700   49.7950 N   0  0  0  0  0  0  0  0  0  0  0  0
   61.8230   28.1700   50.9470 C   0  0  0  0  0  0  0  0  0  0  0  0
   62.7480   29.3340   51.3280 C   0  0  0  0  0  0  0  0  0  0  0  0
   62.0770   30.6190   51.0850 N   0  0  0  0  0  0  0  0  0  0  0  0
   62.8300   31.7560   50.6500 C   0  0  0  0  0  0  0  0  0  0  0  0
   63.0240   32.7160   51.4430 O   0  0  0  0  0  0  0  0  0  0  0  0
   63.4390   31.7670   49.2800 C   0  0  0  0  0  0  0  0  0  0  0  0
   63.7980   33.4650   48.7070 S   0  0  0  0  0  0  0  0  0  0  0  0
   62.1710   33.7250   47.9940 C   0  0  0  0  0  0  0  0  0  0  0  0
   62.0010   33.6200   46.6500 N   0  0  0  0  0  0  0  0  0  0  0  0
   60.7790   33.7970   46.0830 C   0  0  0  0  0  0  0  0  0  0  0  0
   59.6730   34.0960   46.8860 C   0  0  0  0  0  0  0  0  0  0  0  0
   58.3130   34.3340   46.2800 C   0  0  0  0  0  0  0  0  0  0  0  0
   57.4490   33.0650   46.2900 C   0  0  0  0  0  0  0  0  0  0  0  0
   57.2320   32.4980   44.8820 C   0  0  0  0  0  0  0  0  0  0  0  0
   56.0620   31.7270   44.8420 O   0  0  0  0  0  0  0  0  0  0  0  0
   59.8750   34.2230   48.2650 C   0  0  0  0  0  0  0  0  0  0  0  0
   61.1120   34.0230   48.7930 N   0  0  0  0  0  0  0  0  0  0  0  0
   60.6160   30.6810   51.1070 C   0  0  0  0  0  0  0  0  0  0  0  0
   60.0190   29.6270   50.1460 C   0  0  0  0  0  0  0  0  0  0  0  0
   59.7010   29.0500   47.2490 C   0  0  0  0  0  0  0  0  0  0  0  0
   58.8500   29.4420   46.2120 C   0  0  0  0  0  0  0  0  0  0  0  0
   54.8920   29.8370   45.0430 H   0  0  0  0  0  0  0  0  0  0  0  0
   56.7691   26.7276   46.1627 H   0  0  0  0  0  0  0  0  0  0  0  0
   58.2843   26.0347   48.0120 H   0  0  0  0  0  0  0  0  0  0  0  0
   59.8082   26.8299   49.7797 H   0  0  0  0  0  0  0  0  0  0  0  0
   61.2284   26.8546   48.6285 H   0  0  0  0  0  0  0  0  0  0  0  0
   61.1737   27.9212   51.7994 H   0  0  0  0  0  0  0  0  0  0  0  0
   62.4258   27.2890   50.6818 H   0  0  0  0  0  0  0  0  0  0  0  0
   63.0087   29.2565   52.3939 H   0  0  0  0  0  0  0  0  0  0  0  0
   63.6586   29.2837   50.7129 H   0  0  0  0  0  0  0  0  0  0  0  0
   64.3775   31.1938   49.3035 H   0  0  0  0  0  0  0  0  0  0  0  0
   62.7169   31.3175   48.5825 H   0  0  0  0  0  0  0  0  0  0  0  0
   60.6593   33.7053   44.9934 H   0  0  0  0  0  0  0  0  0  0  0  0
   57.7996   35.1178   46.8563 H   0  0  0  0  0  0  0  0  0  0  0  0
   58.4562   34.6394   45.2330 H   0  0  0  0  0  0  0  0  0  0  0  0
   57.9480   32.3021   46.9056 H   0  0  0  0  0  0  0  0  0  0  0  0
   56.4641   33.3315   46.7011 H   0  0  0  0  0  0  0  0  0  0  0  0
   57.1437   33.3285   44.1662 H   0  0  0  0  0  0  0  0  0  0  0  0
   58.0889   31.8611   44.6172 H   0  0  0  0  0  0  0  0  0  0  0  0
   56.2800   30.8550   45.2670 H   0  0  0  0  0  0  0  0  0  0  0  0
   59.0326   34.4848   48.9221 H   0  0  0  0  0  0  0  0  0  0  0  0
   61.2470   34.1090   49.8270 H   0  0  0  0  0  0  0  0  0  0  0  0
   60.2599   30.4833   52.1288 H   0  0  0  0  0  0  0  0  0  0  0  0
   60.2957   31.6823   50.7831 H   0  0  0  0  0  0  0  0  0  0  0  0
   59.1493   29.1591   50.6304 H   0  0  0  0  0  0  0  0  0  0  0  0
   59.7329   30.1424   49.2173 H   0  0  0  0  0  0  0  0  0  0  0  0
   60.5424   29.6966   47.5388 H   0  0  0  0  0  0  0  0  0  0  0  0
   59.0192   30.4008   45.7000 H   0  0  0  0  0  0  0  0  0  0  0  0
  1  2  1  0
  2  3  2  0
  2  4  1  0
  4  5  2  0
  5  6  1  0
  6  7  2  0
  7  8  1  0
  8  9  1  0
  9 10  1  0
 10 11  1  0
 11 12  1  0
 12 13  1  0
 13 14  2  0
 13 15  1  0
 15 16  1  0
 16 17  1  0
 17 18  2  0
 18 19  1  0
 19 20  2  0
 20 21  1  0
 21 22  1  0
 22 23  1  0
 23 24  1  0
 20 25  1  0
 25 26  2  0
 12 27  1  0
 27 28  1  0
  7 29  1  0
 29 30  2  0
 30  4  1  0
 28  9  1  0
 26 17  1  0
  1 31  1  0
  5 32  1  0
  6 33  1  0
  8 34  1  0
  8 35  1  0
 10 36  1  0
 10 37  1  0
 11 38  1  0
 11 39  1  0
 15 40  1  0
 15 41  1  0
 19 42  1  0
 21 43  1  0
 21 44  1  0
 22 45  1  0
 22 46  1  0
 23 47  1  0
 23 48  1  0
 24 49  1  0
 25 50  1  0
 26 51  1  0
 27 52  1  0
 27 53  1  0
 28 54  1  0
 28 55  1  0
 29 56  1  0
 30 57  1  0
M  CHG  2   1  -1  26   1
M  END
>  <UniqueID>  (6) 
5

>  <SMILES>  (6) 
[NH-]C(=O)c1ccc(CN2CCN(C(=O)CSc3ncc(CCCO)c[nH+]3)CC2)cc1

>  <Energy>  (6) 
61.50757390275302

>  <Genealogy>  (6) 
[NH-]C(=O)c1ccc(CN2CCN(C(=O)CSc3ncc(CCCO)c[nH+]3)CC2)cc1 (protonated)
[NH-]C(=O)c1ccc(CN2CCN(C(=O)CSc3ncc(CCCO)c[nH+]3)CC2)cc1 (3D coordinates assigned)
[NH-]C(=O)c1ccc(CN2CCN(C(=O)CSc3ncc(CCCO)c[nH+]3)CC2)cc1 (nonaromatic ring conformer: 61.50757390275302 kcal/mol)

>  <smiles>  (6) 
NC(=O)c1ccc(CN2CCN(C(=O)CSc3ncc(CCCO)cn3)CC2)cc1

>  <score_type>  (6) 
oracle

>  <origin>  (6) 
adg

>  <m_score__min__energy>  (6) 
-10.15

>  <m_primary>  (6) 
energy

$$$$
6:0
     RDKit          3D

 26 26  0  0  0  0  0  0  0  0999 V2000
   55.9800   29.5290   45.9490 H   0  0  0  0  0  0  0  0  0  0  0  0
   56.0610   28.8000   45.2510 O   0  0  0  0  0  0  0  0  0  0  0  0
   56.2560   27.4760   45.6290 C   0  0  0  0  0  0  0  0  0  0  0  0
   55.2810   26.6870   46.1100 N   0  0  0  0  0  0  0  0  0  0  0  0
   55.9070   25.5010   46.2620 C   0  0  0  0  0  0  0  0  0  0  0  0
   55.3200   24.4750   46.6950 O   0  0  0  0  0  0  0  0  0  0  0  0
   57.2090   25.4970   45.9040 N   0  0  0  0  0  0  0  0  0  0  0  0
   57.4310   26.7670   45.5230 C   0  0  0  0  0  0  0  0  0  0  0  0
   58.7150   27.2360   44.9780 C   0  0  0  0  0  0  0  0  0  0  0  0
   59.1081   26.7321   44.0827 H   0  0  0  0  0  0  0  0  0  0  0  0
   59.4370   28.2370   45.5010 C   0  0  0  0  0  0  0  0  0  0  0  0
   60.4458   28.4145   45.0999 H   0  0  0  0  0  0  0  0  0  0  0  0
   58.9440   29.1320   46.6070 C   0  0  0  0  0  0  0  0  0  0  0  0
   59.7152   29.1954   47.3888 H   0  0  0  0  0  0  0  0  0  0  0  0
   58.0154   28.7057   47.0143 H   0  0  0  0  0  0  0  0  0  0  0  0
   58.6510   30.5120   46.0940 C   0  0  0  0  0  0  0  0  0  0  0  0
   59.4801   31.1259   45.7122 H   0  0  0  0  0  0  0  0  0  0  0  0
   57.4500   31.0030   46.0870 N   0  0  0  0  0  0  0  0  0  0  0  0
   56.7930   31.2920   44.9110 O   0  0  0  0  0  0  0  0  0  0  0  0
   57.4000   32.1210   43.9340 C   0  0  0  0  0  0  0  0  0  0  0  0
   58.4468   32.3105   44.2138 H   0  0  0  0  0  0  0  0  0  0  0  0
   56.8562   33.0754   43.8755 H   0  0  0  0  0  0  0  0  0  0  0  0
   57.3550   31.4300   42.5800 C   0  0  0  0  0  0  0  0  0  0  0  0
   57.2841   30.3420   42.7258 H   0  0  0  0  0  0  0  0  0  0  0  0
   56.4779   31.7825   42.0174 H   0  0  0  0  0  0  0  0  0  0  0  0
   58.2704   31.6657   42.0174 H   0  0  0  0  0  0  0  0  0  0  0  0
  1  2  1  0
  2  3  1  0
  3  4  1  0
  4  5  1  0
  5  6  2  0
  5  7  1  0
  7  8  1  0
  8  9  1  0
  9 10  1  0
  9 11  2  3
 11 12  1  0
 11 13  1  0
 13 14  1  0
 13 15  1  0
 13 16  1  0
 16 17  1  0
 16 18  2  0
 18 19  1  0
 19 20  1  0
 20 21  1  0
 20 22  1  0
 20 23  1  0
 23 24  1  0
 23 25  1  0
 23 26  1  0
  8  3  2  0
M  CHG  2   4  -1   7  -1
M  END
>  <UniqueID>  (7) 
6

>  <SMILES>  (7) 
CCO/N=C\CC=Cc1[n-]c(=O)[n-]c1O

>  <Energy>  (7) 
49.29425733107709

>  <Genealogy>  (7) 
CCON=CCC=Cc1[n-]c(=O)[n-]c1O (protonated)
CCO/N=C\CC=Cc1[n-]c(=O)[n-]c1O (cis-trans isomerization)
CCO/N=C\CC=Cc1[n-]c(=O)[n-]c1O (3D coordinates assigned)
CCO/N=C\CC=Cc1[n-]c(=O)[n-]c1O (optimized conformer: 49.29425733107709 kcal/mol)

>  <smiles>  (7) 
CCON=CCC=Cc1[nH]c(=O)[nH]c1O

>  <score_type>  (7) 
oracle

>  <origin>  (7) 
adg

>  <m_score__min__energy>  (7) 
-10.140000000000001

>  <m_primary>  (7) 
energy

$$$$
7:0
     RDKit          3D

 41 44  0  0  0  0  0  0  0  0999 V2000
   58.9160   25.1420   45.6990 H   0  0  0  0  0  0  0  0  0  0  0  0
   59.3930   25.4470   46.5760 N   0  0  0  0  0  0  0  0  0  0  0  0
   59.3570   26.6830   46.9630 C   0  0  0  0  0  0  0  0  0  0  0  0
   60.1020   27.0590   48.0900 O   0  0  0  0  0  0  0  0  0  0  0  0
   60.2460   28.4000   48.4170 C   0  0  0  0  0  0  0  0  0  0  0  0
   61.0980   28.8840   49.3350 N   0  0  0  0  0  0  0  0  0  0  0  0
   61.0470   30.2060   49.2570 N   0  0  0  0  0  0  0  0  0  0  0  0
   60.1590   30.5560   48.3000 C   0  0  0  0  0  0  0  0  0  0  0  0
   60.0760   31.9330   47.7850 C   0  0  0  0  0  0  0  0  0  0  0  0
   61.1720   32.5160   47.1270 C   0  0  0  0  0  0  0  0  0  0  0  0
   62.0861   31.9282   46.9566 H   0  0  0  0  0  0  0  0  0  0  0  0
   61.1030   33.8430   46.6880 C   0  0  0  0  0  0  0  0  0  0  0  0
   61.9617   34.2961   46.1709 H   0  0  0  0  0  0  0  0  0  0  0  0
   59.9440   34.5930   46.9060 C   0  0  0  0  0  0  0  0  0  0  0  0
   59.8865   35.6319   46.5492 H   0  0  0  0  0  0  0  0  0  0  0  0
   58.8580   34.0240   47.5770 C   0  0  0  0  0  0  0  0  0  0  0  0
   57.9480   34.6169   47.7513 H   0  0  0  0  0  0  0  0  0  0  0  0
   58.9270   32.7020   48.0270 C   0  0  0  0  0  0  0  0  0  0  0  0
   58.0783   32.2633   48.5723 H   0  0  0  0  0  0  0  0  0  0  0  0
   59.5910   29.4020   47.7710 C   0  0  0  0  0  0  0  0  0  0  0  0
   58.5380   29.1060   46.7670 C   0  0  0  0  0  0  0  0  0  0  0  0
   57.5890   29.9920   46.3860 C   0  0  0  0  0  0  0  0  0  0  0  0
   57.0484   30.5214   47.1844 H   0  0  0  0  0  0  0  0  0  0  0  0
   57.2150   30.3110   44.9960 C   0  0  0  0  0  0  0  0  0  0  0  0
   56.0710   29.8690   44.3660 C   0  0  0  0  0  0  0  0  0  0  0  0
   55.1600   28.9600   44.8900 O   0  0  0  0  0  0  0  0  0  0  0  0
   55.9320   30.4520   43.1620 N   0  0  0  0  0  0  0  0  0  0  0  0
   56.9970   31.2790   43.1020 C   0  0  0  0  0  0  0  0  0  0  0  0
   57.2020   32.0500   42.1270 O   0  0  0  0  0  0  0  0  0  0  0  0
   57.7960   31.2290   44.1920 N   0  0  0  0  0  0  0  0  0  0  0  0
   58.8460   32.1990   44.5280 C   0  0  0  0  0  0  0  0  0  0  0  0
   59.1782   32.0297   45.5629 H   0  0  0  0  0  0  0  0  0  0  0  0
   59.6893   32.0669   43.8341 H   0  0  0  0  0  0  0  0  0  0  0  0
   58.3160   33.6220   44.3970 C   0  0  0  0  0  0  0  0  0  0  0  0
   58.1574   34.0479   45.3987 H   0  0  0  0  0  0  0  0  0  0  0  0
   59.0457   34.2361   43.8489 H   0  0  0  0  0  0  0  0  0  0  0  0
   57.3624   33.6091   43.8489 H   0  0  0  0  0  0  0  0  0  0  0  0
   58.5310   27.6920   46.1690 C   0  0  2  0  0  0  0  0  0  0  0  0
   58.9875   27.8020   45.1743 H   0  0  0  0  0  0  0  0  0  0  0  0
   57.1530   27.1700   46.0730 C   0  0  0  0  0  0  0  0  0  0  0  0
   56.0710   26.7610   45.9980 N   0  0  0  0  0  0  0  0  0  0  0  0
  1  2  1  0
  2  3  2  0
  3  4  1  0
  4  5  1  0
  5  6  2  0
  6  7  1  0
  7  8  1  0
  8  9  1  0
  9 10  2  0
 10 11  1  0
 10 12  1  0
 12 13  1  0
 12 14  2  0
 14 15  1  0
 14 16  1  0
 16 17  1  0
 16 18  2  0
 18 19  1  0
  8 20  2  0
 20 21  1  0
 21 22  2  3
 22 23  1  0
 22 24  1  0
 24 25  2  0
 25 26  1  0
 25 27  1  0
 27 28  1  0
 28 29  2  0
 28 30  1  0
 30 31  1  0
 31 32  1  0
 31 33  1  0
 31 34  1  0
 34 35  1  0
 34 36  1  0
 34 37  1  0
 21 38  1  0
 38 39  1  6
 38 40  1  0
 40 41  3  0
 38  3  1  0
 20  5  1  0
 30 24  1  0
 18  9  1  0
M  CHG  3   7  -1  26  -1  27  -1
M  END
>  <UniqueID>  (8) 
7

>  <SMILES>  (8) 
[H]/N=C1\Oc2n[n-]c(-c3ccccc3)c2C(=Cc2c([O-])[n-]c(=O)n2CC)[C@@H]1C#N

>  <Energy>  (8) 
126.35634668515807

>  <Genealogy>  (8) 
CCn1c(C=C2c3c(n[n-]c3-c3ccccc3)OC(=N)C2C#N)c([O-])[n-]c1=O (protonated)
CCn1c(C=C2c3c(n[n-]c3-c3ccccc3)OC(=N)[C@H]2C#N)c([O-])[n-]c1=O (chirality)
[H]/N=C1\Oc2n[n-]c(-c3ccccc3)c2C(=Cc2c([O-])[n-]c(=O)n2CC)[C@@H]1C#N (cis-trans isomerization)
[H]/N=C1\Oc2n[n-]c(-c3ccccc3)c2C(=Cc2c([O-])[n-]c(=O)n2CC)[C@@H]1C#N (3D coordinates assigned)
[H]/N=C1\Oc2n[n-]c(-c3ccccc3)c2C(=Cc2c([O-])[n-]c(=O)n2CC)[C@@H]1C#N (nonaromatic ring conformer: 126.35634668515807 kcal/mol)

>  <smiles>  (8) 
CCn1c(C=C2c3c(n[nH]c3-c3ccccc3)OC(=N)C2C#N)c(O)[nH]c1=O

>  <score_type>  (8) 
oracle

>  <origin>  (8) 
adg

>  <m_score__min__energy>  (8) 
-12.710000000000001

>  <m_primary>  (8) 
energy

$$$$
8:0
     RDKit          3D

 38 40  0  0  0  0  0  0  0  0999 V2000
   58.7960   34.1540   44.9130 C   0  0  0  0  0  0  0  0  0  0  0  0
   57.5690   33.2490   44.8720 C   0  0  0  0  0  0  0  0  0  0  0  0
   57.7690   32.0920   43.8860 C   0  0  0  0  0  0  0  0  0  0  0  0
   57.1900   30.8200   44.4340 C   0  0  0  0  0  0  0  0  0  0  0  0
   55.8660   30.6260   44.6190 N   0  0  0  0  0  0  0  0  0  0  0  0
   55.6910   29.3860   45.0450 N   0  0  0  0  0  0  0  0  0  0  0  0
   56.8850   28.7800   45.1220 C   0  0  0  0  0  0  0  0  0  0  0  0
   57.0430   27.5810   45.4660 O   0  0  0  0  0  0  0  0  0  0  0  0
   57.8790   29.6570   44.7500 C   0  0  0  0  0  0  0  0  0  0  0  0
   59.6460   29.3380   44.6080 S   0  0  0  0  0  0  0  0  0  0  0  0
   59.8290   28.8020   46.3190 C   0  0  0  0  0  0  0  0  0  0  0  0
   59.9230   27.4270   46.5810 C   0  0  0  0  0  0  0  0  0  0  0  0
   60.0720   26.9610   47.8880 C   0  0  0  0  0  0  0  0  0  0  0  0
   60.1040   27.8620   48.9510 C   0  0  0  0  0  0  0  0  0  0  0  0
   59.9670   29.2310   48.7110 C   0  0  0  0  0  0  0  0  0  0  0  0
   59.8060   29.7170   47.4000 C   0  0  0  0  0  0  0  0  0  0  0  0
   59.5670   31.1680   47.2040 C   0  0  0  0  0  0  0  0  0  0  0  0
   58.4530   31.6620   47.5140 O   0  0  0  0  0  0  0  0  0  0  0  0
   60.5480   32.0260   46.5990 N   0  0  0  0  0  0  0  0  0  0  0  0
   61.6590   32.4220   47.1450 C   0  0  0  0  0  0  0  0  0  0  0  0
   62.4380   33.4140   46.6560 N   0  0  0  0  0  0  0  0  0  0  0  0
   63.5520   33.5920   47.4130 C   0  0  0  0  0  0  0  0  0  0  0  0
   63.6580   32.7310   48.4990 C   0  0  0  0  0  0  0  0  0  0  0  0
   65.0850   32.6930   49.7610 Br  0  0  0  0  0  0  0  0  0  0  0  0
   62.3200   31.7120   48.5170 S   0  0  0  0  0  0  0  0  0  0  0  0
   59.0685   34.3550   45.9596 H   0  0  0  0  0  0  0  0  0  0  0  0
   59.6353   33.6570   44.4045 H   0  0  0  0  0  0  0  0  0  0  0  0
   58.5691   35.1026   44.4045 H   0  0  0  0  0  0  0  0  0  0  0  0
   57.3920   32.8381   45.8769 H   0  0  0  0  0  0  0  0  0  0  0  0
   56.7061   33.8452   44.5405 H   0  0  0  0  0  0  0  0  0  0  0  0
   57.2695   32.3363   42.9369 H   0  0  0  0  0  0  0  0  0  0  0  0
   58.8475   31.9482   43.7245 H   0  0  0  0  0  0  0  0  0  0  0  0
   54.7620   28.9610   45.2620 H   0  0  0  0  0  0  0  0  0  0  0  0
   59.8789   26.7094   45.7484 H   0  0  0  0  0  0  0  0  0  0  0  0
   60.1643   25.8817   48.0794 H   0  0  0  0  0  0  0  0  0  0  0  0
   60.2372   27.4947   49.9793 H   0  0  0  0  0  0  0  0  0  0  0  0
   59.9851   29.9363   49.5549 H   0  0  0  0  0  0  0  0  0  0  0  0
   64.3094   34.3563   47.1847 H   0  0  0  0  0  0  0  0  0  0  0  0
  1  2  1  0
  2  3  1  0
  3  4  1  0
  4  5  1  0
  5  6  1  0
  6  7  1  0
  7  8  2  0
  7  9  1  0
  9 10  1  0
 10 11  1  0
 11 12  2  0
 12 13  1  0
 13 14  2  0
 14 15  1  0
 15 16  2  0
 16 17  1  0
 17 18  2  0
 17 19  1  0
 19 20  2  3
 20 21  1  0
 21 22  1  0
 22 23  2  0
 23 24  1  0
 23 25  1  0
  9  4  2  0
 16 11  1  0
 25 20  1  0
  1 26  1  0
  1 27  1  0
  1 28  1  0
  2 29  1  0
  2 30  1  0
  3 31  1  0
  3 32  1  0
  6 33  1  0
 12 34  1  0
 13 35  1  0
 14 36  1  0
 15 37  1  0
 22 38  1  0
M  CHG  2   5  -1  21  -1
M  END
>  <UniqueID>  (9) 
8

>  <SMILES>  (9) 
CCCc1[n-][nH]c(=O)c1Sc1ccccc1C(=O)N=c1[n-]cc(Br)s1

>  <Energy>  (9) 
104.04175697555024

>  <Genealogy>  (9) 
CCCc1[n-][nH]c(=O)c1Sc1ccccc1C(=O)N=c1[n-]cc(Br)s1 (protonated)
CCCc1[n-][nH]c(=O)c1Sc1ccccc1C(=O)N=c1[n-]cc(Br)s1 (3D coordinates assigned)
CCCc1[n-][nH]c(=O)c1Sc1ccccc1C(=O)N=c1[n-]cc(Br)s1 (optimized conformer: 104.04175697555024 kcal/mol)

>  <smiles>  (9) 
CCCc1[nH][nH]c(=O)c1Sc1ccccc1C(=O)N=c1[nH]cc(Br)s1

>  <score_type>  (9) 
oracle

>  <origin>  (9) 
adg

>  <m_score__min__energy>  (9) 
-11.699999999999999

>  <m_primary>  (9) 
energy

$$$$
9:0
     RDKit          3D

 65 69  0  0  0  0  0  0  0  0999 V2000
   55.8500   19.3310   43.9000 C   0  0  0  0  0  0  0  0  0  0  0  0
   55.9550   20.7080   43.5500 O   0  0  0  0  0  0  0  0  0  0  0  0
   56.3410   21.7270   44.4380 C   0  0  0  0  0  0  0  0  0  0  0  0
   57.5510   22.4300   44.2860 C   0  0  0  0  0  0  0  0  0  0  0  0
   57.9010   23.4360   45.1880 C   0  0  0  0  0  0  0  0  0  0  0  0
   57.0510   23.7590   46.2550 C   0  0  0  0  0  0  0  0  0  0  0  0
   57.4510   24.8190   47.2500 C   0  0  0  0  0  0  0  0  0  0  0  0
   57.3760   26.1610   46.6350 N   0  0  0  0  0  0  0  0  0  0  0  0
   56.1830   26.6180   46.1270 C   0  0  0  0  0  0  0  0  0  0  0  0
   55.1510   25.8950   46.1490 O   0  0  0  0  0  0  0  0  0  0  0  0
   56.0960   27.8610   45.5900 N   0  0  0  0  0  0  0  0  0  0  0  0
   57.1660   28.6890   45.5370 C   0  0  0  0  0  0  0  0  0  0  0  0
   57.0340   29.9660   44.9760 C   0  0  0  0  0  0  0  0  0  0  0  0
   58.1380   30.8400   44.9130 C   0  0  0  0  0  0  0  0  0  0  0  0
   58.0310   32.2100   44.3300 C   0  0  0  0  0  0  0  0  0  0  0  0
   58.4600   32.3980   43.1560 O   0  0  0  0  0  0  0  0  0  0  0  0
   57.4840   33.3280   45.0850 N   0  0  0  0  0  0  0  0  0  0  0  0
   58.2100   34.5930   44.8700 C   0  0  0  0  0  0  0  0  0  0  0  0
   59.6000   34.6600   45.5400 C   0  0  0  0  0  0  0  0  0  0  0  0
   59.7990   33.7780   46.7130 N   0  0  0  0  0  0  0  0  0  0  0  0
   61.1050   33.7620   47.3700 C   0  0  0  0  0  0  0  0  0  0  0  0
   62.2890   33.4750   46.6470 C   0  0  0  0  0  0  0  0  0  0  0  0
   63.5340   33.4590   47.2810 C   0  0  0  0  0  0  0  0  0  0  0  0
   63.6310   33.7240   48.6470 C   0  0  0  0  0  0  0  0  0  0  0  0
   62.4820   34.0050   49.3820 C   0  0  0  0  0  0  0  0  0  0  0  0
   61.2320   34.0240   48.7570 C   0  0  0  0  0  0  0  0  0  0  0  0
   58.7680   32.8190   47.1570 C   0  0  0  0  0  0  0  0  0  0  0  0
   57.3960   33.0450   46.5240 C   0  0  0  0  0  0  0  0  0  0  0  0
   59.3720   30.4030   45.4320 C   0  0  0  0  0  0  0  0  0  0  0  0
   59.5050   29.1290   45.9920 C   0  0  0  0  0  0  0  0  0  0  0  0
   58.4020   28.2620   46.0470 C   0  0  0  0  0  0  0  0  0  0  0  0
   58.4840   26.9730   46.6020 C   0  0  0  0  0  0  0  0  0  0  0  0
   59.5860   26.5660   47.0680 O   0  0  0  0  0  0  0  0  0  0  0  0
   55.8470   23.0590   46.4100 C   0  0  0  0  0  0  0  0  0  0  0  0
   55.4860   22.0410   45.5040 C   0  0  0  0  0  0  0  0  0  0  0  0
   54.2850   21.3230   45.6300 O   0  0  0  0  0  0  0  0  0  0  0  0
   53.4520   21.3390   46.7850 C   0  0  0  0  0  0  0  0  0  0  0  0
   55.8423   19.2307   44.9954 H   0  0  0  0  0  0  0  0  0  0  0  0
   54.9177   18.9179   43.4874 H   0  0  0  0  0  0  0  0  0  0  0  0
   56.7088   18.7813   43.4874 H   0  0  0  0  0  0  0  0  0  0  0  0
   58.2246   22.1851   43.4516 H   0  0  0  0  0  0  0  0  0  0  0  0
   58.8494   23.9786   45.0609 H   0  0  0  0  0  0  0  0  0  0  0  0
   56.7721   24.7786   48.1146 H   0  0  0  0  0  0  0  0  0  0  0  0
   58.4862   24.6324   47.5717 H   0  0  0  0  0  0  0  0  0  0  0  0
   56.0597   30.2896   44.5810 H   0  0  0  0  0  0  0  0  0  0  0  0
   56.5150   33.5110   44.7380 H   0  0  0  0  0  0  0  0  0  0  0  0
   58.3444   34.7314   43.7870 H   0  0  0  0  0  0  0  0  0  0  0  0
   57.6022   35.3834   45.3346 H   0  0  0  0  0  0  0  0  0  0  0  0
   60.3514   34.3888   44.7838 H   0  0  0  0  0  0  0  0  0  0  0  0
   59.6957   35.6871   45.9219 H   0  0  0  0  0  0  0  0  0  0  0  0
   62.2272   33.2614   45.5697 H   0  0  0  0  0  0  0  0  0  0  0  0
   64.4414   33.2365   46.7005 H   0  0  0  0  0  0  0  0  0  0  0  0
   64.6129   33.7111   49.1426 H   0  0  0  0  0  0  0  0  0  0  0  0
   62.5586   34.2130   50.4594 H   0  0  0  0  0  0  0  0  0  0  0  0
   60.3330   34.2457   49.3508 H   0  0  0  0  0  0  0  0  0  0  0  0
   59.1052   31.8043   46.8989 H   0  0  0  0  0  0  0  0  0  0  0  0
   58.6461   32.9616   48.2409 H   0  0  0  0  0  0  0  0  0  0  0  0
   56.7862   32.1412   46.6698 H   0  0  0  0  0  0  0  0  0  0  0  0
   56.9414   33.9202   47.0112 H   0  0  0  0  0  0  0  0  0  0  0  0
   60.2434   31.0734   45.3963 H   0  0  0  0  0  0  0  0  0  0  0  0
   60.4774   28.8046   46.3910 H   0  0  0  0  0  0  0  0  0  0  0  0
   55.1771   23.3062   47.2467 H   0  0  0  0  0  0  0  0  0  0  0  0
   54.0785   21.3270   47.6891 H   0  0  0  0  0  0  0  0  0  0  0  0
   52.8343   22.2492   46.7790 H   0  0  0  0  0  0  0  0  0  0  0  0
   52.7998   20.4532   46.7790 H   0  0  0  0  0  0  0  0  0  0  0  0
  1  2  1  0
  2  3  1  0
  3  4  2  0
  4  5  1  0
  5  6  2  0
  6  7  1  0
  7  8  1  0
  8  9  1  0
  9 10  2  0
  9 11  1  0
 11 12  1  0
 12 13  2  0
 13 14  1  0
 14 15  1  0
 15 16  2  0
 15 17  1  0
 17 18  1  0
 18 19  1  0
 19 20  1  0
 20 21  1  0
 21 22  2  0
 22 23  1  0
 23 24  2  0
 24 25  1  0
 25 26  2  0
 20 27  1  0
 27 28  1  0
 14 29  2  0
 29 30  1  0
 30 31  2  0
 31 32  1  0
 32 33  2  0
  6 34  1  0
 34 35  2  0
 35 36  1  0
 36 37  1  0
 35  3  1  0
 32  8  1  0
 31 12  1  0
 28 17  1  0
 26 21  1  0
  1 38  1  0
  1 39  1  0
  1 40  1  0
  4 41  1  0
  5 42  1  0
  7 43  1  0
  7 44  1  0
 13 45  1  0
 17 46  1  0
 18 47  1  0
 18 48  1  0
 19 49  1  0
 19 50  1  0
 22 51  1  0
 23 52  1  0
 24 53  1  0
 25 54  1  0
 26 55  1  0
 27 56  1  0
 27 57  1  0
 28 58  1  0
 28 59  1  0
 29 60  1  0
 30 61  1  0
 34 62  1  0
 37 63  1  0
 37 64  1  0
 37 65  1  0
M  CHG  2  11  -1  17   1
M  END
>  <UniqueID>  (10) 
9

>  <SMILES>  (10) 
COc1ccc(Cn2c(=O)[n-]c3cc(C(=O)[NH+]4CCN(c5ccccc5)CC4)ccc3c2=O)cc1OC

>  <Energy>  (10) 
94.13115831015664

>  <Genealogy>  (10) 
COc1ccc(Cn2c(=O)[n-]c3cc(C(=O)[NH+]4CCN(c5ccccc5)CC4)ccc3c2=O)cc1OC (protonated)
COc1ccc(Cn2c(=O)[n-]c3cc(C(=O)[NH+]4CCN(c5ccccc5)CC4)ccc3c2=O)cc1OC (3D coordinates assigned)
COc1ccc(Cn2c(=O)[n-]c3cc(C(=O)[NH+]4CCN(c5ccccc5)CC4)ccc3c2=O)cc1OC (nonaromatic ring conformer: 94.13115831015664 kcal/mol)

>  <smiles>  (10) 
COc1ccc(Cn2c(=O)[nH]c3cc(C(=O)N4CCN(c5ccccc5)CC4)ccc3c2=O)cc1OC

>  <score_type>  (10) 
oracle

>  <origin>  (10) 
adg

>  <m_score__min__energy>  (10) 
-10.869999999999999

>  <m_primary>  (10) 
energy

$$$$
10:0
     RDKit          3D

 51 54  0  0  0  0  0  0  0  0999 V2000
   56.0920   29.7270   44.9390 O   0  0  0  0  0  0  0  0  0  0  0  0
   57.3300   29.8940   45.0860 C   0  0  0  0  0  0  0  0  0  0  0  0
   58.2840   28.9730   44.3810 C   0  0  0  0  0  0  0  0  0  0  0  0
   58.0880   27.2510   44.9670 S   0  0  0  0  0  0  0  0  0  0  0  0
   58.8660   27.5250   46.5580 C   0  0  0  0  0  0  0  0  0  0  0  0
   58.9100   28.7230   47.1770 N   0  0  0  0  0  0  0  0  0  0  0  0
   59.5630   28.7010   48.3400 N   0  0  0  0  0  0  0  0  0  0  0  0
   59.6990   29.8790   49.1520 C   0  0  0  0  0  0  0  0  0  0  0  0
   58.5970   30.7230   49.3830 C   0  0  0  0  0  0  0  0  0  0  0  0
   58.7360   31.8540   50.1940 C   0  0  0  0  0  0  0  0  0  0  0  0
   59.9700   32.1470   50.7850 C   0  0  0  0  0  0  0  0  0  0  0  0
   61.0660   31.3060   50.5700 C   0  0  0  0  0  0  0  0  0  0  0  0
   60.9300   30.1710   49.7630 C   0  0  0  0  0  0  0  0  0  0  0  0
   60.0490   27.4680   48.6510 C   0  0  0  0  0  0  0  0  0  0  0  0
   60.8020   27.0710   50.0530 S   0  0  0  0  0  0  0  0  0  0  0  0
   59.6630   26.3450   47.4560 S   0  0  0  0  0  0  0  0  0  0  0  0
   57.7840   30.8960   46.0040 N   0  0  0  0  0  0  0  0  0  0  0  0
   58.0820   32.2640   45.6850 C   0  0  0  0  0  0  0  0  0  0  0  0
   57.0880   33.1020   45.1510 C   0  0  0  0  0  0  0  0  0  0  0  0
   57.3610   34.4460   44.8870 C   0  0  0  0  0  0  0  0  0  0  0  0
   58.6240   34.9700   45.1640 C   0  0  0  0  0  0  0  0  0  0  0  0
   59.6140   34.1560   45.7180 C   0  0  0  0  0  0  0  0  0  0  0  0
   59.3490   32.8040   46.0030 C   0  0  0  0  0  0  0  0  0  0  0  0
   60.4210   31.9570   46.5760 C   0  0  0  0  0  0  0  0  0  0  0  0
   60.3400   30.7040   46.4530 O   0  0  0  0  0  0  0  0  0  0  0  0
   61.5550   32.5310   47.2580 N   0  0  0  0  0  0  0  0  0  0  0  0
   61.4650   33.8430   47.9110 C   0  0  0  0  0  0  0  0  0  0  0  0
   62.3710   33.8690   49.1440 C   0  0  0  0  0  0  0  0  0  0  0  0
   63.6860   33.4710   48.8050 O   0  0  0  0  0  0  0  0  0  0  0  0
   63.6860   32.1130   48.4080 C   0  0  0  0  0  0  0  0  0  0  0  0
   62.8830   31.9230   47.1160 C   0  0  0  0  0  0  0  0  0  0  0  0
   58.0862   29.0095   43.2996 H   0  0  0  0  0  0  0  0  0  0  0  0
   59.3115   29.3014   44.5965 H   0  0  0  0  0  0  0  0  0  0  0  0
   58.4790   29.5890   46.7790 H   0  0  0  0  0  0  0  0  0  0  0  0
   57.6239   30.4927   48.9247 H   0  0  0  0  0  0  0  0  0  0  0  0
   57.8736   32.5144   50.3676 H   0  0  0  0  0  0  0  0  0  0  0  0
   60.0778   33.0394   51.4190 H   0  0  0  0  0  0  0  0  0  0  0  0
   62.0356   31.5367   51.0354 H   0  0  0  0  0  0  0  0  0  0  0  0
   61.7908   29.5043   49.6063 H   0  0  0  0  0  0  0  0  0  0  0  0
   56.0877   32.6963   44.9394 H   0  0  0  0  0  0  0  0  0  0  0  0
   56.5795   35.0920   44.4603 H   0  0  0  0  0  0  0  0  0  0  0  0
   58.8402   36.0262   44.9456 H   0  0  0  0  0  0  0  0  0  0  0  0
   60.6082   34.5748   45.9331 H   0  0  0  0  0  0  0  0  0  0  0  0
   61.7843   34.6248   47.2062 H   0  0  0  0  0  0  0  0  0  0  0  0
   60.4250   34.0257   48.2193 H   0  0  0  0  0  0  0  0  0  0  0  0
   62.3964   34.8901   49.5523 H   0  0  0  0  0  0  0  0  0  0  0  0
   61.9709   33.1693   49.8926 H   0  0  0  0  0  0  0  0  0  0  0  0
   64.7229   31.7867   48.2394 H   0  0  0  0  0  0  0  0  0  0  0  0
   63.2202   31.5132   49.2038 H   0  0  0  0  0  0  0  0  0  0  0  0
   63.4160   32.4024   46.2817 H   0  0  0  0  0  0  0  0  0  0  0  0
   62.7688   30.8474   46.9160 H   0  0  0  0  0  0  0  0  0  0  0  0
  1  2  2  0
  2  3  1  0
  3  4  1  0
  4  5  1  0
  5  6  2  0
  6  7  1  0
  7  8  1  0
  8  9  2  0
  9 10  1  0
 10 11  2  0
 11 12  1  0
 12 13  2  0
  7 14  1  0
 14 15  2  0
 14 16  1  0
  2 17  1  0
 17 18  1  0
 18 19  2  0
 19 20  1  0
 20 21  2  0
 21 22  1  0
 22 23  2  0
 23 24  1  0
 24 25  2  0
 24 26  1  0
 26 27  1  0
 27 28  1  0
 28 29  1  0
 29 30  1  0
 30 31  1  0
 16  5  1  0
 23 18  1  0
 31 26  1  0
 13  8  1  0
  3 32  1  0
  3 33  1  0
  6 34  1  0
  9 35  1  0
 10 36  1  0
 11 37  1  0
 12 38  1  0
 13 39  1  0
 19 40  1  0
 20 41  1  0
 21 42  1  0
 22 43  1  0
 27 44  1  0
 27 45  1  0
 28 46  1  0
 28 47  1  0
 30 48  1  0
 30 49  1  0
 31 50  1  0
 31 51  1  0
M  CHG  2   6   1  17  -1
M  END
>  <UniqueID>  (11) 
10

>  <SMILES>  (11) 
O=C(CSc1[nH+]n(-c2ccccc2)c(=S)s1)[N-]c1ccccc1C(=O)N1CCOCC1

>  <Energy>  (11) 
104.71296233341202

>  <Genealogy>  (11) 
O=C(CSc1[nH+]n(-c2ccccc2)c(=S)s1)[N-]c1ccccc1C(=O)N1CCOCC1 (protonated)
O=C(CSc1[nH+]n(-c2ccccc2)c(=S)s1)[N-]c1ccccc1C(=O)N1CCOCC1 (3D coordinates assigned)
O=C(CSc1[nH+]n(-c2ccccc2)c(=S)s1)[N-]c1ccccc1C(=O)N1CCOCC1 (nonaromatic ring conformer: 104.71296233341202 kcal/mol)

>  <smiles>  (11) 
O=C(CSc1nn(-c2ccccc2)c(=S)s1)Nc1ccccc1C(=O)N1CCOCC1

>  <score_type>  (11) 
oracle

>  <origin>  (11) 
adg

>  <m_score__min__energy>  (11) 
-8.7899999999999991

>  <m_primary>  (11) 
energy

$$$$
11:0
     RDKit          3D

 54 57  0  0  0  0  0  0  0  0999 V2000
   54.3180   24.9460   45.6690 O   0  0  0  0  0  0  0  0  0  0  0  0
   54.3890   23.7720   45.2180 C   0  0  0  0  0  0  0  0  0  0  0  0
   53.2200   23.0360   45.0650 O   0  0  0  0  0  0  0  0  0  0  0  0
   55.6940   23.2320   44.7840 C   0  0  0  0  0  0  0  0  0  0  0  0
   56.7560   22.9990   45.5570 C   0  0  0  0  0  0  0  0  0  0  0  0
   56.9320   23.4050   46.9680 C   0  0  0  0  0  0  0  0  0  0  0  0
   57.0180   22.5390   47.8780 O   0  0  0  0  0  0  0  0  0  0  0  0
   56.9880   24.8010   47.2880 N   0  0  0  0  0  0  0  0  0  0  0  0
   57.4850   25.8550   46.4490 C   0  0  0  0  0  0  0  0  0  0  0  0
   58.8180   25.8880   46.0030 C   0  0  0  0  0  0  0  0  0  0  0  0
   59.2680   26.9490   45.2130 C   0  0  0  0  0  0  0  0  0  0  0  0
   58.3990   27.9860   44.8680 C   0  0  0  0  0  0  0  0  0  0  0  0
   57.0650   27.9650   45.3090 C   0  0  0  0  0  0  0  0  0  0  0  0
   56.1510   29.0260   44.9950 N   0  0  0  0  0  0  0  0  0  0  0  0
   56.5060   30.3450   44.5560 C   0  0  0  0  0  0  0  0  0  0  0  0
   55.9230   30.8200   43.5460 O   0  0  0  0  0  0  0  0  0  0  0  0
   57.5680   31.1350   45.2220 C   0  0  0  0  0  0  0  0  0  0  0  0
   58.2160   30.6500   46.3700 C   0  0  0  0  0  0  0  0  0  0  0  0
   59.2170   31.4020   46.9900 C   0  0  0  0  0  0  0  0  0  0  0  0
   59.5960   32.6490   46.4720 C   0  0  0  0  0  0  0  0  0  0  0  0
   60.6360   33.4150   47.1080 N   0  0  0  0  0  0  0  0  0  0  0  0
   61.9780   33.4660   46.5160 C   0  0  0  0  0  0  0  0  0  0  0  0
   62.9740   34.0660   47.5110 C   0  0  0  0  0  0  0  0  0  0  0  0
   62.6770   33.5970   48.8090 O   0  0  0  0  0  0  0  0  0  0  0  0
   61.4990   34.2180   49.2990 C   0  0  0  0  0  0  0  0  0  0  0  0
   60.3370   34.2530   48.2780 C   0  0  0  0  0  0  0  0  0  0  0  0
   58.9670   33.1240   45.3090 C   0  0  0  0  0  0  0  0  0  0  0  0
   57.9640   32.3730   44.6890 C   0  0  0  0  0  0  0  0  0  0  0  0
   56.6260   26.9110   46.1200 C   0  0  0  0  0  0  0  0  0  0  0  0
   57.8540   22.3320   44.8030 C   0  0  0  0  0  0  0  0  0  0  0  0
   57.3170   22.1730   43.3810 C   0  0  0  0  0  0  0  0  0  0  0  0
   55.9300   22.8180   43.3740 C   0  0  0  0  0  0  0  0  0  0  0  0
   59.5083   25.0765   46.2767 H   0  0  0  0  0  0  0  0  0  0  0  0
   60.3102   26.9674   44.8617 H   0  0  0  0  0  0  0  0  0  0  0  0
   58.7595   28.8213   44.2496 H   0  0  0  0  0  0  0  0  0  0  0  0
   57.9332   29.6709   46.7839 H   0  0  0  0  0  0  0  0  0  0  0  0
   59.7120   31.0128   47.8919 H   0  0  0  0  0  0  0  0  0  0  0  0
   62.2975   32.4470   46.2523 H   0  0  0  0  0  0  0  0  0  0  0  0
   61.9483   34.0961   45.6149 H   0  0  0  0  0  0  0  0  0  0  0  0
   63.9953   33.7639   47.2359 H   0  0  0  0  0  0  0  0  0  0  0  0
   62.9001   35.1633   47.4899 H   0  0  0  0  0  0  0  0  0  0  0  0
   61.1615   33.6666   50.1890 H   0  0  0  0  0  0  0  0  0  0  0  0
   61.7587   35.2632   49.5228 H   0  0  0  0  0  0  0  0  0  0  0  0
   59.4220   33.8810   48.7621 H   0  0  0  0  0  0  0  0  0  0  0  0
   60.2004   35.2906   47.9392 H   0  0  0  0  0  0  0  0  0  0  0  0
   59.2657   34.0933   44.8834 H   0  0  0  0  0  0  0  0  0  0  0  0
   57.4813   32.7543   43.7771 H   0  0  0  0  0  0  0  0  0  0  0  0
   55.5948   26.9126   46.5029 H   0  0  0  0  0  0  0  0  0  0  0  0
   58.7601   22.9557   44.8067 H   0  0  0  0  0  0  0  0  0  0  0  0
   58.1347   21.3665   45.2492 H   0  0  0  0  0  0  0  0  0  0  0  0
   57.9781   22.6825   42.6645 H   0  0  0  0  0  0  0  0  0  0  0  0
   57.2681   21.1141   43.0870 H   0  0  0  0  0  0  0  0  0  0  0  0
   55.9127   23.6917   42.7059 H   0  0  0  0  0  0  0  0  0  0  0  0
   55.1543   22.1288   43.0091 H   0  0  0  0  0  0  0  0  0  0  0  0
  1  2  2  0
  2  3  1  0
  2  4  1  0
  4  5  2  0
  5  6  1  0
  6  7  2  0
  6  8  1  0
  8  9  1  0
  9 10  2  0
 10 11  1  0
 11 12  2  0
 12 13  1  0
 13 14  1  0
 14 15  1  0
 15 16  2  0
 15 17  1  0
 17 18  2  0
 18 19  1  0
 19 20  2  0
 20 21  1  0
 21 22  1  0
 22 23  1  0
 23 24  1  0
 24 25  1  0
 25 26  1  0
 20 27  1  0
 27 28  2  0
 13 29  2  0
  5 30  1  0
 30 31  1  0
 31 32  1  0
 32  4  1  0
 29  9  1  0
 28 17  1  0
 26 21  1  0
 10 33  1  0
 11 34  1  0
 12 35  1  0
 18 36  1  0
 19 37  1  0
 22 38  1  0
 22 39  1  0
 23 40  1  0
 23 41  1  0
 25 42  1  0
 25 43  1  0
 26 44  1  0
 26 45  1  0
 27 46  1  0
 28 47  1  0
 29 48  1  0
 30 49  1  0
 30 50  1  0
 31 51  1  0
 31 52  1  0
 32 53  1  0
 32 54  1  0
M  CHG  3   3  -1   8  -1  14  -1
M  END
>  <UniqueID>  (12) 
11

>  <SMILES>  (12) 
O=C([O-])C1=C(C(=O)[N-]c2cccc([N-]C(=O)c3ccc(N4CCOCC4)cc3)c2)CCC1

>  <Energy>  (12) 
86.59857411933417

>  <Genealogy>  (12) 
O=C([O-])C1=C(C(=O)[N-]c2cccc([N-]C(=O)c3ccc(N4CCOCC4)cc3)c2)CCC1 (protonated)
O=C([O-])C1=C(C(=O)[N-]c2cccc([N-]C(=O)c3ccc(N4CCOCC4)cc3)c2)CCC1 (3D coordinates assigned)
O=C([O-])C1=C(C(=O)[N-]c2cccc([N-]C(=O)c3ccc(N4CCOCC4)cc3)c2)CCC1 (nonaromatic ring conformer: 86.59857411933417 kcal/mol)

>  <smiles>  (12) 
O=C(O)C1=C(C(=O)Nc2cccc(NC(=O)c3ccc(N4CCOCC4)cc3)c2)CCC1

>  <score_type>  (12) 
oracle

>  <origin>  (12) 
adg

>  <m_score__min__energy>  (12) 
-14.81

>  <m_primary>  (12) 
energy

$$$$
12:0
     RDKit          3D

 37 39  0  0  0  0  0  0  0  0999 V2000
   59.2850   30.8830   52.0780 O   0  0  0  0  0  0  0  0  0  0  0  0
   58.3800   30.1480   51.6030 C   0  0  0  0  0  0  0  0  0  0  0  0
   58.0620   30.1910   50.2050 N   0  0  0  0  0  0  0  0  0  0  0  0
   58.9790   30.0540   49.1090 C   0  0  0  0  0  0  0  0  0  0  0  0
   59.7320   31.1400   48.6230 C   0  0  0  0  0  0  0  0  0  0  0  0
   60.5960   30.9650   47.5380 C   0  0  0  0  0  0  0  0  0  0  0  0
   60.7060   29.7150   46.9210 C   0  0  0  0  0  0  0  0  0  0  0  0
   59.9420   28.6390   47.3840 C   0  0  0  0  0  0  0  0  0  0  0  0
   60.0670   27.0740   46.6010 Cl  0  0  0  0  0  0  0  0  0  0  0  0
   59.0760   28.8120   48.4700 C   0  0  0  0  0  0  0  0  0  0  0  0
   57.6680   29.2720   52.4840 N   0  0  0  0  0  0  0  0  0  0  0  0
   56.3990   29.5360   53.0980 C   0  0  0  0  0  0  0  0  0  0  0  0
   56.2990   30.0590   54.3990 C   0  0  0  0  0  0  0  0  0  0  0  0
   55.0440   30.3170   54.9580 C   0  0  0  0  0  0  0  0  0  0  0  0
   53.8830   30.0770   54.2210 C   0  0  0  0  0  0  0  0  0  0  0  0
   53.9700   29.5940   52.9060 C   0  0  0  0  0  0  0  0  0  0  0  0
   52.7200   29.3090   52.1200 C   0  0  0  0  0  0  0  0  0  0  0  0
   52.0930   30.5920   51.6660 C   0  0  0  0  0  0  0  0  0  0  0  0
   51.7460   31.6610   52.4640 C   0  0  0  0  0  0  0  0  0  0  0  0
   51.1330   32.5610   51.6170 C   0  0  0  0  0  0  0  0  0  0  0  0
   50.6270   33.7930   52.0130 O   0  0  0  0  0  0  0  0  0  0  0  0
   51.0690   32.1120   50.3490 N   0  0  0  0  0  0  0  0  0  0  0  0
   51.6550   30.8990   50.3930 C   0  0  0  0  0  0  0  0  0  0  0  0
   51.7850   30.0700   49.2850 O   0  0  0  0  0  0  0  0  0  0  0  0
   55.2330   29.3250   52.3520 C   0  0  0  0  0  0  0  0  0  0  0  0
   59.6403   32.1279   49.0979 H   0  0  0  0  0  0  0  0  0  0  0  0
   61.1911   31.8132   47.1685 H   0  0  0  0  0  0  0  0  0  0  0  0
   61.3926   29.5782   46.0725 H   0  0  0  0  0  0  0  0  0  0  0  0
   58.4676   27.9666   48.8238 H   0  0  0  0  0  0  0  0  0  0  0  0
   57.2107   30.2658   54.9787 H   0  0  0  0  0  0  0  0  0  0  0  0
   54.9710   30.7106   55.9826 H   0  0  0  0  0  0  0  0  0  0  0  0
   52.8977   30.2668   54.6718 H   0  0  0  0  0  0  0  0  0  0  0  0
   52.9741   28.6975   51.2416 H   0  0  0  0  0  0  0  0  0  0  0  0
   52.0081   28.7673   52.7601 H   0  0  0  0  0  0  0  0  0  0  0  0
   51.9204   31.7725   53.5443 H   0  0  0  0  0  0  0  0  0  0  0  0
   52.6400   30.0650   48.7420 H   0  0  0  0  0  0  0  0  0  0  0  0
   55.3064   28.9450   51.3223 H   0  0  0  0  0  0  0  0  0  0  0  0
  1  2  2  0
  2  3  1  0
  3  4  1  0
  4  5  2  0
  5  6  1  0
  6  7  2  0
  7  8  1  0
  8  9  1  0
  8 10  2  0
  2 11  1  0
 11 12  1  0
 12 13  2  0
 13 14  1  0
 14 15  2  0
 15 16  1  0
 16 17  1  0
 17 18  1  0
 18 19  1  0
 19 20  2  0
 20 21  1  0
 20 22  1  0
 22 23  1  0
 23 24  1  0
 16 25  2  0
 10  4  1  0
 25 12  1  0
 23 18  2  0
  5 26  1  0
  6 27  1  0
  7 28  1  0
 10 29  1  0
 13 30  1  0
 14 31  1  0
 15 32  1  0
 17 33  1  0
 17 34  1  0
 19 35  1  0
 24 36  1  0
 25 37  1  0
M  CHG  4   3  -1  11  -1  21  -1  22  -1
M  END
>  <UniqueID>  (13) 
12

>  <SMILES>  (13) 
O=C([N-]c1cccc(Cl)c1)[N-]c1cccc(Cc2cc([O-])[n-]c2O)c1

>  <Energy>  (13) 
70.00489960115539

>  <Genealogy>  (13) 
O=C([N-]c1cccc(Cl)c1)[N-]c1cccc(Cc2cc([O-])[n-]c2O)c1 (protonated)
O=C([N-]c1cccc(Cl)c1)[N-]c1cccc(Cc2cc([O-])[n-]c2O)c1 (3D coordinates assigned)
O=C([N-]c1cccc(Cl)c1)[N-]c1cccc(Cc2cc([O-])[n-]c2O)c1 (optimized conformer: 70.00489960115539 kcal/mol)

>  <smiles>  (13) 
O=C(Nc1cccc(Cl)c1)Nc1cccc(Cc2cc(O)[nH]c2O)c1

>  <score_type>  (13) 
oracle

>  <origin>  (13) 
adg

>  <m_score__min__energy>  (13) 
-17.420000000000002

>  <m_primary>  (13) 
energy

$$$$
13:0
     RDKit          3D

 39 40  0  0  0  0  0  0  0  0999 V2000
   59.3730   29.3990   48.0780 C   0  0  0  0  0  0  0  0  0  0  0  0
   60.1630   28.9160   46.9570 N   0  0  0  0  0  0  0  0  0  0  0  0
   59.8900   29.2250   45.5860 C   0  0  0  0  0  0  0  0  0  0  0  0
   60.7430   28.9120   44.7140 O   0  0  0  0  0  0  0  0  0  0  0  0
   58.6210   29.8580   45.1660 C   0  0  0  0  0  0  0  0  0  0  0  0
   58.5760   31.2160   45.1310 N   0  0  0  0  0  0  0  0  0  0  0  0
   57.4260   31.8850   44.8830 C   0  0  0  0  0  0  0  0  0  0  0  0
   57.4170   33.6760   44.8810 S   0  0  0  0  0  0  0  0  0  0  0  0
   57.7680   33.8460   46.6660 C   0  0  0  0  0  0  0  0  0  0  0  0
   59.2200   33.6020   46.9730 C   0  0  0  0  0  0  0  0  0  0  0  0
   59.5930   32.8570   48.1040 C   0  0  0  0  0  0  0  0  0  0  0  0
   60.9420   32.5940   48.3600 C   0  0  0  0  0  0  0  0  0  0  0  0
   61.9280   33.0870   47.5000 C   0  0  0  0  0  0  0  0  0  0  0  0
   63.2360   32.8390   47.7560 F   0  0  0  0  0  0  0  0  0  0  0  0
   61.5640   33.8410   46.3810 C   0  0  0  0  0  0  0  0  0  0  0  0
   60.2160   34.0980   46.1150 C   0  0  0  0  0  0  0  0  0  0  0  0
   56.2740   31.2020   44.6910 N   0  0  0  0  0  0  0  0  0  0  0  0
   56.2500   29.8460   44.6890 C   0  0  0  0  0  0  0  0  0  0  0  0
   55.1500   29.2620   44.5030 O   0  0  0  0  0  0  0  0  0  0  0  0
   57.4420   29.1120   44.8980 C   0  0  0  0  0  0  0  0  0  0  0  0
   57.4600   27.5820   44.8170 C   0  0  0  0  0  0  0  0  0  0  0  0
   58.3840   27.0940   43.6960 C   0  0  0  0  0  0  0  0  0  0  0  0
   57.8170   26.9310   46.1620 C   0  0  0  0  0  0  0  0  0  0  0  0
   59.8560   29.1037   49.0212 H   0  0  0  0  0  0  0  0  0  0  0  0
   59.3012   30.4956   48.0305 H   0  0  0  0  0  0  0  0  0  0  0  0
   58.3642   28.9631   48.0305 H   0  0  0  0  0  0  0  0  0  0  0  0
   57.5021   34.8642   46.9862 H   0  0  0  0  0  0  0  0  0  0  0  0
   57.1724   33.0950   47.2057 H   0  0  0  0  0  0  0  0  0  0  0  0
   58.8210   32.4793   48.7906 H   0  0  0  0  0  0  0  0  0  0  0  0
   61.2281   31.9983   49.2394 H   0  0  0  0  0  0  0  0  0  0  0  0
   62.3404   34.2333   45.7077 H   0  0  0  0  0  0  0  0  0  0  0  0
   59.9343   34.6900   45.2318 H   0  0  0  0  0  0  0  0  0  0  0  0
   56.4360   27.2633   44.5723 H   0  0  0  0  0  0  0  0  0  0  0  0
   59.2759   26.6230   44.1349 H   0  0  0  0  0  0  0  0  0  0  0  0
   57.8502   26.3602   43.0742 H   0  0  0  0  0  0  0  0  0  0  0  0
   58.6891   27.9486   43.0742 H   0  0  0  0  0  0  0  0  0  0  0  0
   57.4656   27.5717   46.9842 H   0  0  0  0  0  0  0  0  0  0  0  0
   57.3330   25.9457   46.2324 H   0  0  0  0  0  0  0  0  0  0  0  0
   58.9080   26.8094   46.2324 H   0  0  0  0  0  0  0  0  0  0  0  0
  1  2  1  0
  2  3  1  0
  3  4  2  0
  3  5  1  0
  5  6  1  0
  6  7  1  0
  7  8  1  0
  8  9  1  0
  9 10  1  0
 10 11  2  0
 11 12  1  0
 12 13  2  0
 13 14  1  0
 13 15  1  0
 15 16  2  0
  7 17  2  0
 17 18  1  0
 18 19  2  0
 18 20  1  0
 20 21  1  0
 21 22  1  0
 21 23  1  0
 20  5  2  0
 16 10  1  0
  1 24  1  0
  1 25  1  0
  1 26  1  0
  9 27  1  0
  9 28  1  0
 11 29  1  0
 12 30  1  0
 15 31  1  0
 16 32  1  0
 21 33  1  0
 22 34  1  0
 22 35  1  0
 22 36  1  0
 23 37  1  0
 23 38  1  0
 23 39  1  0
M  CHG  2   2  -1   6  -1
M  END
>  <UniqueID>  (14) 
13

>  <SMILES>  (14) 
C[N-]C(=O)c1[n-]c(SCc2ccc(F)cc2)nc(=O)c1C(C)C

>  <Energy>  (14) 
38.3291390156873

>  <Genealogy>  (14) 
C[N-]C(=O)c1[n-]c(SCc2ccc(F)cc2)nc(=O)c1C(C)C (protonated)
C[N-]C(=O)c1[n-]c(SCc2ccc(F)cc2)nc(=O)c1C(C)C (3D coordinates assigned)
C[N-]C(=O)c1[n-]c(SCc2ccc(F)cc2)nc(=O)c1C(C)C (optimized conformer: 38.3291390156873 kcal/mol)

>  <smiles>  (14) 
CNC(=O)c1[nH]c(SCc2ccc(F)cc2)nc(=O)c1C(C)C

>  <score_type>  (14) 
oracle

>  <origin>  (14) 
adg

>  <m_score__min__energy>  (14) 
-11.779999999999999

>  <m_primary>  (14) 
energy

$$$$
14:0
     RDKit          3D

 38 40  0  0  0  0  0  0  0  0999 V2000
   56.7250   32.9900   52.1580 O   0  0  0  0  0  0  0  0  0  0  0  0
   57.4380   32.0600   51.6930 C   0  0  0  0  0  0  0  0  0  0  0  0
   57.2190   30.7060   52.1140 N   0  0  0  0  0  0  0  0  0  0  0  0
   56.0310   30.1810   52.7260 C   0  0  0  0  0  0  0  0  0  0  0  0
   56.0130   28.9280   53.3640 C   0  0  0  0  0  0  0  0  0  0  0  0
   54.8280   28.4430   53.9240 C   0  0  0  0  0  0  0  0  0  0  0  0
   53.6530   29.1930   53.8420 C   0  0  0  0  0  0  0  0  0  0  0  0
   53.6520   30.4370   53.1910 C   0  0  0  0  0  0  0  0  0  0  0  0
   52.3750   31.2250   53.0600 C   0  0  0  0  0  0  0  0  0  0  0  0
   51.8750   31.1960   51.6330 C   0  0  0  0  0  0  0  0  0  0  0  0
   51.2500   32.3170   51.0590 C   0  0  0  0  0  0  0  0  0  0  0  0
   51.0400   33.4740   51.8010 O   0  0  0  0  0  0  0  0  0  0  0  0
   50.8400   32.2790   49.7650 N   0  0  0  0  0  0  0  0  0  0  0  0
   51.0260   31.1730   49.0030 C   0  0  0  0  0  0  0  0  0  0  0  0
   50.6360   31.1610   47.8060 O   0  0  0  0  0  0  0  0  0  0  0  0
   51.6310   30.0790   49.5280 N   0  0  0  0  0  0  0  0  0  0  0  0
   52.0610   30.0640   50.8170 C   0  0  0  0  0  0  0  0  0  0  0  0
   52.6200   29.0280   51.2660 O   0  0  0  0  0  0  0  0  0  0  0  0
   54.8440   30.9180   52.6250 C   0  0  0  0  0  0  0  0  0  0  0  0
   58.4660   32.3590   50.6680 C   0  0  0  0  0  0  0  0  0  0  0  0
   58.5350   31.6030   49.4840 C   0  0  0  0  0  0  0  0  0  0  0  0
   59.5020   31.8840   48.5150 C   0  0  0  0  0  0  0  0  0  0  0  0
   60.4220   32.9290   48.7070 C   0  0  0  0  0  0  0  0  0  0  0  0
   61.4170   33.2170   47.7070 N   0  0  0  0  0  0  0  0  0  0  0  0
   62.5150   32.6210   47.7100 O   0  0  0  0  0  0  0  0  0  0  0  0
   61.1740   34.1540   46.7280 O   0  0  0  0  0  0  0  0  0  0  0  0
   60.3530   33.6860   49.8900 C   0  0  0  0  0  0  0  0  0  0  0  0
   59.3860   33.4040   50.8580 C   0  0  0  0  0  0  0  0  0  0  0  0
   56.9334   28.3284   53.4224 H   0  0  0  0  0  0  0  0  0  0  0  0
   54.8209   27.4669   54.4312 H   0  0  0  0  0  0  0  0  0  0  0  0
   52.7247   28.8078   54.2891 H   0  0  0  0  0  0  0  0  0  0  0  0
   51.6111   30.7875   53.7196 H   0  0  0  0  0  0  0  0  0  0  0  0
   52.5719   32.2689   53.3454 H   0  0  0  0  0  0  0  0  0  0  0  0
   54.8455   31.8831   52.0971 H   0  0  0  0  0  0  0  0  0  0  0  0
   57.8210   30.7827   49.3191 H   0  0  0  0  0  0  0  0  0  0  0  0
   59.5434   31.2826   47.5949 H   0  0  0  0  0  0  0  0  0  0  0  0
   61.0663   34.5070   50.0546 H   0  0  0  0  0  0  0  0  0  0  0  0
   59.3444   34.0058   51.7778 H   0  0  0  0  0  0  0  0  0  0  0  0
  1  2  2  0
  2  3  1  0
  3  4  1  0
  4  5  2  0
  5  6  1  0
  6  7  2  0
  7  8  1  0
  8  9  1  0
  9 10  1  0
 10 11  2  0
 11 12  1  0
 11 13  1  0
 13 14  1  0
 14 15  2  0
 14 16  1  0
 16 17  1  0
 17 18  2  0
  8 19  2  0
  2 20  1  0
 20 21  2  0
 21 22  1  0
 22 23  2  0
 23 24  1  0
 24 25  2  0
 24 26  1  0
 23 27  1  0
 27 28  2  0
 19  4  1  0
 28 20  1  0
 17 10  1  0
  5 29  1  0
  6 30  1  0
  7 31  1  0
  9 32  1  0
  9 33  1  0
 19 34  1  0
 21 35  1  0
 22 36  1  0
 27 37  1  0
 28 38  1  0
M  CHG  6   3  -1  12  -1  13  -1  16  -1  24   1  26  -1
M  END
>  <UniqueID>  (15) 
14

>  <SMILES>  (15) 
O=C([N-]c1cccc(Cc2c([O-])[n-]c(=O)[n-]c2=O)c1)c1ccc([N+](=O)[O-])cc1

>  <Energy>  (15) 
48.43702873451137

>  <Genealogy>  (15) 
O=C([N-]c1cccc(Cc2c([O-])[n-]c(=O)[n-]c2=O)c1)c1ccc([N+](=O)[O-])cc1 (protonated)
O=C([N-]c1cccc(Cc2c([O-])[n-]c(=O)[n-]c2=O)c1)c1ccc([N+](=O)[O-])cc1 (3D coordinates assigned)
O=C([N-]c1cccc(Cc2c([O-])[n-]c(=O)[n-]c2=O)c1)c1ccc([N+](=O)[O-])cc1 (optimized conformer: 48.43702873451137 kcal/mol)

>  <smiles>  (15) 
O=C(Nc1cccc(Cc2c(O)[nH]c(=O)[nH]c2=O)c1)c1ccc([N+](=O)[O-])cc1

>  <score_type>  (15) 
oracle

>  <origin>  (15) 
adg

>  <m_score__min__energy>  (15) 
-17.399999999999999

>  <m_primary>  (15) 
energy

$$$$
15:0
     RDKit          3D

 57 59  0  0  0  0  0  0  0  0999 V2000
   59.2860   35.4450   44.8780 C   0  0  0  0  0  0  0  0  0  0  0  0
   58.2270   34.5840   45.2850 O   0  0  0  0  0  0  0  0  0  0  0  0
   58.3220   33.1870   45.3780 C   0  0  0  0  0  0  0  0  0  0  0  0
   57.8130   32.3470   44.3700 C   0  0  0  0  0  0  0  0  0  0  0  0
   57.8970   30.9610   44.4910 C   0  0  0  0  0  0  0  0  0  0  0  0
   58.4820   30.3770   45.6270 C   0  0  0  0  0  0  0  0  0  0  0  0
   58.5560   28.8960   45.7620 C   0  0  0  0  0  0  0  0  0  0  0  0
   59.8000   28.2470   45.8390 C   0  0  0  0  0  0  0  0  0  0  0  0
   59.8700   26.8600   45.9880 C   0  0  0  0  0  0  0  0  0  0  0  0
   58.7030   26.0910   46.0520 C   0  0  0  0  0  0  0  0  0  0  0  0
   58.8360   24.7110   46.2300 O   0  0  0  0  0  0  0  0  0  0  0  0
   57.4410   26.7220   45.9390 C   0  0  0  0  0  0  0  0  0  0  0  0
   56.1580   25.9320   45.9720 C   0  0  0  0  0  0  0  0  0  0  0  0
   56.1650   25.0440   47.1300 N   0  0  0  0  0  0  0  0  0  0  0  0
   56.0890   23.3850   46.6200 S   0  0  0  0  0  0  0  0  0  0  0  0
   54.4170   22.8020   46.7940 C   0  0  0  0  0  0  0  0  0  0  0  0
   56.5090   23.2420   45.1820 O   0  0  0  0  0  0  0  0  0  0  0  0
   56.9940   22.5580   47.4910 O   0  0  0  0  0  0  0  0  0  0  0  0
   57.3820   28.1230   45.8180 C   0  0  0  0  0  0  0  0  0  0  0  0
   58.9930   31.2140   46.6330 C   0  0  0  0  0  0  0  0  0  0  0  0
   58.9310   32.6100   46.5100 C   0  0  0  0  0  0  0  0  0  0  0  0
   59.5780   33.6040   47.8240 S   0  0  0  0  0  0  0  0  0  0  0  0
   59.3010   32.9620   49.1560 O   0  0  0  0  0  0  0  0  0  0  0  0
   58.8880   34.9400   47.7970 O   0  0  0  0  0  0  0  0  0  0  0  0
   61.2960   33.8390   47.6170 N   0  0  0  0  0  0  0  0  0  0  0  0
   61.9510   32.5520   47.3120 C   0  0  0  0  0  0  0  0  0  0  0  0
   63.4610   32.6230   47.5780 C   0  0  0  0  0  0  0  0  0  0  0  0
   63.7670   32.9330   48.9970 N   0  0  0  0  0  0  0  0  0  0  0  0
   64.1950   31.7300   49.7300 C   0  0  0  0  0  0  0  0  0  0  0  0
   62.6560   33.6010   49.7130 C   0  0  0  0  0  0  0  0  0  0  0  0
   61.8810   34.5460   48.7830 C   0  0  0  0  0  0  0  0  0  0  0  0
   59.7886   35.8536   45.7671 H   0  0  0  0  0  0  0  0  0  0  0  0
   60.0102   34.8763   44.2763 H   0  0  0  0  0  0  0  0  0  0  0  0
   58.8771   36.2701   44.2763 H   0  0  0  0  0  0  0  0  0  0  0  0
   57.3444   32.7885   43.4781 H   0  0  0  0  0  0  0  0  0  0  0  0
   57.5018   30.3188   43.6901 H   0  0  0  0  0  0  0  0  0  0  0  0
   60.7269   28.8365   45.7814 H   0  0  0  0  0  0  0  0  0  0  0  0
   60.8515   26.3679   46.0556 H   0  0  0  0  0  0  0  0  0  0  0  0
   58.0550   24.1010   46.4400 H   0  0  0  0  0  0  0  0  0  0  0  0
   55.3041   26.6217   46.0436 H   0  0  0  0  0  0  0  0  0  0  0  0
   56.0702   25.3353   45.0521 H   0  0  0  0  0  0  0  0  0  0  0  0
   54.1682   22.7152   47.8620 H   0  0  0  0  0  0  0  0  0  0  0  0
   53.7288   23.5132   46.3138 H   0  0  0  0  0  0  0  0  0  0  0  0
   54.3203   21.8171   46.3138 H   0  0  0  0  0  0  0  0  0  0  0  0
   56.4027   28.6213   45.7664 H   0  0  0  0  0  0  0  0  0  0  0  0
   59.4482   30.7684   47.5298 H   0  0  0  0  0  0  0  0  0  0  0  0
   61.5115   31.7666   47.9444 H   0  0  0  0  0  0  0  0  0  0  0  0
   61.7944   32.3243   46.2473 H   0  0  0  0  0  0  0  0  0  0  0  0
   63.9116   31.6526   47.3224 H   0  0  0  0  0  0  0  0  0  0  0  0
   63.8750   33.4325   46.9589 H   0  0  0  0  0  0  0  0  0  0  0  0
   64.1285   31.9169   50.8120 H   0  0  0  0  0  0  0  0  0  0  0  0
   63.5419   30.8861   49.4628 H   0  0  0  0  0  0  0  0  0  0  0  0
   65.2343   31.4882   49.4628 H   0  0  0  0  0  0  0  0  0  0  0  0
   61.9677   32.8354   50.1004 H   0  0  0  0  0  0  0  0  0  0  0  0
   63.0806   34.1948   50.5359 H   0  0  0  0  0  0  0  0  0  0  0  0
   61.0677   35.0162   49.3553 H   0  0  0  0  0  0  0  0  0  0  0  0
   62.5898   35.2948   48.3998 H   0  0  0  0  0  0  0  0  0  0  0  0
  1  2  1  0
  2  3  1  0
  3  4  2  0
  4  5  1  0
  5  6  2  0
  6  7  1  0
  7  8  2  0
  8  9  1  0
  9 10  2  0
 10 11  1  0
 10 12  1  0
 12 13  1  0
 13 14  1  0
 14 15  1  0
 15 16  1  0
 15 17  2  0
 15 18  2  0
 12 19  2  0
  6 20  1  0
 20 21  2  0
 21 22  1  0
 22 23  2  0
 22 24  2  0
 22 25  1  0
 25 26  1  0
 26 27  1  0
 27 28  1  0
 28 29  1  0
 28 30  1  0
 30 31  1  0
 21  3  1  0
 31 25  1  0
 19  7  1  0
  1 32  1  0
  1 33  1  0
  1 34  1  0
  4 35  1  0
  5 36  1  0
  8 37  1  0
  9 38  1  0
 11 39  1  0
 13 40  1  0
 13 41  1  0
 16 42  1  0
 16 43  1  0
 16 44  1  0
 19 45  1  0
 20 46  1  0
 26 47  1  0
 26 48  1  0
 27 49  1  0
 27 50  1  0
 29 51  1  0
 29 52  1  0
 29 53  1  0
 30 54  1  0
 30 55  1  0
 31 56  1  0
 31 57  1  0
M  CHG  1  14  -1
M  END
>  <UniqueID>  (16) 
15

>  <SMILES>  (16) 
COc1ccc(-c2ccc(O)c(C[N-]S(C)(=O)=O)c2)cc1S(=O)(=O)N1CCN(C)CC1

>  <Energy>  (16) 
68.96145181733533

>  <Genealogy>  (16) 
COc1ccc(-c2ccc(O)c(C[N-]S(C)(=O)=O)c2)cc1S(=O)(=O)N1CCN(C)CC1 (protonated)
COc1ccc(-c2ccc(O)c(C[N-]S(C)(=O)=O)c2)cc1S(=O)(=O)N1CCN(C)CC1 (3D coordinates assigned)
COc1ccc(-c2ccc(O)c(C[N-]S(C)(=O)=O)c2)cc1S(=O)(=O)N1CCN(C)CC1 (nonaromatic ring conformer: 68.96145181733533 kcal/mol)

>  <smiles>  (16) 
COc1ccc(-c2ccc(O)c(CNS(C)(=O)=O)c2)cc1S(=O)(=O)N1CCN(C)CC1

>  <score_type>  (16) 
oracle

>  <origin>  (16) 
adg

>  <m_score__min__energy>  (16) 
-10.75

>  <m_primary>  (16) 
energy

$$$$
16:0
     RDKit          3D

 50 52  0  0  0  0  0  0  0  0999 V2000
   58.3180   25.5310   48.1700 O   0  0  0  0  0  0  0  0  0  0  0  0
   58.2100   26.4700   47.3360 C   0  0  0  0  0  0  0  0  0  0  0  0
   59.1950   27.5870   47.3490 C   0  0  0  0  0  0  0  0  0  0  0  0
   58.9830   28.3810   48.5120 O   0  0  0  0  0  0  0  0  0  0  0  0
   59.1120   29.7720   48.5060 C   0  0  0  0  0  0  0  0  0  0  0  0
   58.4800   30.4770   49.3370 O   0  0  0  0  0  0  0  0  0  0  0  0
   59.9770   30.4150   47.5140 C   0  0  0  0  0  0  0  0  0  0  0  0
   61.2200   30.1970   47.5310 O   0  0  0  0  0  0  0  0  0  0  0  0
   59.4010   31.2720   46.5220 N   0  0  0  0  0  0  0  0  0  0  0  0
   58.4990   30.8460   45.4890 C   0  0  0  0  0  0  0  0  0  0  0  0
   58.5460   29.5020   45.0980 C   0  0  0  0  0  0  0  0  0  0  0  0
   57.6490   29.0060   44.1490 C   0  0  0  0  0  0  0  0  0  0  0  0
   56.7070   29.8560   43.5660 C   0  0  0  0  0  0  0  0  0  0  0  0
   56.6810   31.2110   43.9090 C   0  0  0  0  0  0  0  0  0  0  0  0
   57.5780   31.7270   44.8570 C   0  0  0  0  0  0  0  0  0  0  0  0
   57.5620   33.1800   45.1230 C   0  0  0  0  0  0  0  0  0  0  0  0
   56.6650   33.6810   45.8570 O   0  0  0  0  0  0  0  0  0  0  0  0
   58.5790   34.0200   44.5590 N   0  0  0  0  0  0  0  0  0  0  0  0
   59.2700   35.0730   45.2960 C   0  0  0  0  0  0  0  0  0  0  0  0
   59.9740   34.5130   46.5000 C   0  0  0  0  0  0  0  0  0  0  0  0
   61.2410   33.9190   46.3690 C   0  0  0  0  0  0  0  0  0  0  0  0
   61.9030   33.4130   47.4930 C   0  0  0  0  0  0  0  0  0  0  0  0
   61.3070   33.4960   48.7540 C   0  0  0  0  0  0  0  0  0  0  0  0
   60.0490   34.0890   48.8920 C   0  0  0  0  0  0  0  0  0  0  0  0
   59.3820   34.5990   47.7710 C   0  0  0  0  0  0  0  0  0  0  0  0
   57.1520   26.4810   46.3710 N   0  0  0  0  0  0  0  0  0  0  0  0
   56.5800   25.3310   45.7290 C   0  0  0  0  0  0  0  0  0  0  0  0
   57.3700   24.2370   45.3280 C   0  0  0  0  0  0  0  0  0  0  0  0
   56.7780   23.1280   44.7110 C   0  0  0  0  0  0  0  0  0  0  0  0
   55.4000   23.1060   44.4900 C   0  0  0  0  0  0  0  0  0  0  0  0
   54.6060   24.1740   44.9140 C   0  0  0  0  0  0  0  0  0  0  0  0
   55.1920   25.2830   45.5350 C   0  0  0  0  0  0  0  0  0  0  0  0
   54.3920   26.3410   45.9490 O   0  0  0  0  0  0  0  0  0  0  0  0
   60.2160   27.1778   47.3633 H   0  0  0  0  0  0  0  0  0  0  0  0
   59.0657   28.2059   46.4489 H   0  0  0  0  0  0  0  0  0  0  0  0
   59.2960   28.8310   45.5422 H   0  0  0  0  0  0  0  0  0  0  0  0
   57.6847   27.9450   43.8607 H   0  0  0  0  0  0  0  0  0  0  0  0
   55.9853   29.4594   42.8367 H   0  0  0  0  0  0  0  0  0  0  0  0
   55.9500   31.8796   43.4309 H   0  0  0  0  0  0  0  0  0  0  0  0
   60.0098   35.5487   44.6354 H   0  0  0  0  0  0  0  0  0  0  0  0
   58.5269   35.8098   45.6350 H   0  0  0  0  0  0  0  0  0  0  0  0
   61.7143   33.8516   45.3783 H   0  0  0  0  0  0  0  0  0  0  0  0
   62.8944   32.9490   47.3837 H   0  0  0  0  0  0  0  0  0  0  0  0
   61.8270   33.0953   49.6366 H   0  0  0  0  0  0  0  0  0  0  0  0
   59.5808   34.1555   49.8852 H   0  0  0  0  0  0  0  0  0  0  0  0
   58.3934   35.0674   47.8860 H   0  0  0  0  0  0  0  0  0  0  0  0
   58.4564   24.2533   45.5000 H   0  0  0  0  0  0  0  0  0  0  0  0
   57.3987   22.2745   44.4006 H   0  0  0  0  0  0  0  0  0  0  0  0
   54.9388   22.2466   43.9813 H   0  0  0  0  0  0  0  0  0  0  0  0
   53.5173   24.1434   44.7595 H   0  0  0  0  0  0  0  0  0  0  0  0
  1  2  2  0
  2  3  1  0
  3  4  1  0
  4  5  1  0
  5  6  2  0
  5  7  1  0
  7  8  2  0
  7  9  1  0
  9 10  1  0
 10 11  2  0
 11 12  1  0
 12 13  2  0
 13 14  1  0
 14 15  2  0
 15 16  1  0
 16 17  2  0
 16 18  1  0
 18 19  1  0
 19 20  1  0
 20 21  2  0
 21 22  1  0
 22 23  2  0
 23 24  1  0
 24 25  2  0
  2 26  1  0
 26 27  1  0
 27 28  2  0
 28 29  1  0
 29 30  2  0
 30 31  1  0
 31 32  2  0
 32 33  1  0
 15 10  1  0
 25 20  1  0
 32 27  1  0
  3 34  1  0
  3 35  1  0
 11 36  1  0
 12 37  1  0
 13 38  1  0
 14 39  1  0
 19 40  1  0
 19 41  1  0
 21 42  1  0
 22 43  1  0
 23 44  1  0
 24 45  1  0
 25 46  1  0
 28 47  1  0
 29 48  1  0
 30 49  1  0
 31 50  1  0
M  CHG  4   9  -1  18  -1  26  -1  33  -1
M  END
>  <UniqueID>  (17) 
16

>  <SMILES>  (17) 
O=C(COC(=O)C(=O)[N-]c1ccccc1C(=O)[N-]Cc1ccccc1)[N-]c1ccccc1[O-]

>  <Energy>  (17) 
61.05448506024187

>  <Genealogy>  (17) 
O=C(COC(=O)C(=O)[N-]c1ccccc1C(=O)[N-]Cc1ccccc1)[N-]c1ccccc1[O-] (protonated)
O=C(COC(=O)C(=O)[N-]c1ccccc1C(=O)[N-]Cc1ccccc1)[N-]c1ccccc1[O-] (3D coordinates assigned)
O=C(COC(=O)C(=O)[N-]c1ccccc1C(=O)[N-]Cc1ccccc1)[N-]c1ccccc1[O-] (optimized conformer: 61.05448506024187 kcal/mol)

>  <smiles>  (17) 
O=C(COC(=O)C(=O)Nc1ccccc1C(=O)NCc1ccccc1)Nc1ccccc1O

>  <score_type>  (17) 
oracle

>  <origin>  (17) 
adg

>  <m_score__min__energy>  (17) 
-16.539999999999999

>  <m_primary>  (17) 
energy

$$$$
17:0
     RDKit          3D

 41 43  0  0  0  0  0  0  0  0999 V2000
   59.2660   35.6580   44.9840 N   0  0  0  0  0  0  0  0  0  0  0  0
   58.9450   34.5460   44.9690 C   0  0  0  0  0  0  0  0  0  0  0  0
   58.5450   33.1630   44.9820 C   0  0  0  0  0  0  0  0  0  0  0  0
   58.1080   32.5870   43.7790 C   0  0  0  0  0  0  0  0  0  0  0  0
   57.6810   31.2580   43.7470 C   0  0  0  0  0  0  0  0  0  0  0  0
   57.6780   30.4960   44.9150 C   0  0  0  0  0  0  0  0  0  0  0  0
   58.1110   31.0600   46.1180 C   0  0  0  0  0  0  0  0  0  0  0  0
   58.5630   32.3880   46.1620 C   0  0  0  0  0  0  0  0  0  0  0  0
   59.1120   33.0410   47.7550 S   0  0  0  0  0  0  0  0  0  0  0  0
   60.8730   32.8380   47.4050 C   0  0  0  0  0  0  0  0  0  0  0  0
   61.5450   33.9130   46.8010 C   0  0  0  0  0  0  0  0  0  0  0  0
   62.9180   33.8580   46.5720 C   0  0  0  0  0  0  0  0  0  0  0  0
   63.6380   32.7220   46.9320 C   0  0  0  0  0  0  0  0  0  0  0  0
   62.9790   31.6210   47.4810 C   0  0  0  0  0  0  0  0  0  0  0  0
   61.5840   31.6370   47.6870 C   0  0  0  0  0  0  0  0  0  0  0  0
   60.9100   30.3800   48.1300 C   0  0  0  0  0  0  0  0  0  0  0  0
   60.6110   30.2090   49.3420 O   0  0  0  0  0  0  0  0  0  0  0  0
   60.5680   29.3550   47.1830 N   0  0  0  0  0  0  0  0  0  0  0  0
   60.2230   27.9970   47.5990 C   0  0  0  0  0  0  0  0  0  0  0  0
   59.2250   27.4010   46.6430 C   0  0  0  0  0  0  0  0  0  0  0  0
   58.2130   26.5450   47.1080 C   0  0  0  0  0  0  0  0  0  0  0  0
   57.3110   25.9690   46.2070 C   0  0  0  0  0  0  0  0  0  0  0  0
   57.4140   26.2410   44.8410 C   0  0  0  0  0  0  0  0  0  0  0  0
   58.4220   27.0870   44.3700 C   0  0  0  0  0  0  0  0  0  0  0  0
   59.3270   27.6650   45.2670 C   0  0  0  0  0  0  0  0  0  0  0  0
   58.1019   33.1859   42.8563 H   0  0  0  0  0  0  0  0  0  0  0  0
   57.3465   30.8114   42.7991 H   0  0  0  0  0  0  0  0  0  0  0  0
   57.3349   29.4512   44.8893 H   0  0  0  0  0  0  0  0  0  0  0  0
   58.0975   30.4579   47.0385 H   0  0  0  0  0  0  0  0  0  0  0  0
   60.9803   34.8094   46.5051 H   0  0  0  0  0  0  0  0  0  0  0  0
   63.4330   34.7116   46.1070 H   0  0  0  0  0  0  0  0  0  0  0  0
   64.7275   32.6922   46.7835 H   0  0  0  0  0  0  0  0  0  0  0  0
   63.5568   30.7267   47.7574 H   0  0  0  0  0  0  0  0  0  0  0  0
   60.5110   29.5820   46.1650 H   0  0  0  0  0  0  0  0  0  0  0  0
   61.1320   27.3776   47.6090 H   0  0  0  0  0  0  0  0  0  0  0  0
   59.7815   28.0302   48.6060 H   0  0  0  0  0  0  0  0  0  0  0  0
   58.1295   26.3271   48.1830 H   0  0  0  0  0  0  0  0  0  0  0  0
   56.5189   25.3004   46.5752 H   0  0  0  0  0  0  0  0  0  0  0  0
   56.7014   25.7891   44.1353 H   0  0  0  0  0  0  0  0  0  0  0  0
   58.5038   27.2985   43.2936 H   0  0  0  0  0  0  0  0  0  0  0  0
   60.1210   28.3284   44.8935 H   0  0  0  0  0  0  0  0  0  0  0  0
  1  2  3  0
  2  3  1  0
  3  4  2  0
  4  5  1  0
  5  6  2  0
  6  7  1  0
  7  8  2  0
  8  9  1  0
  9 10  1  0
 10 11  2  0
 11 12  1  0
 12 13  2  0
 13 14  1  0
 14 15  2  0
 15 16  1  0
 16 17  2  0
 16 18  1  0
 18 19  1  0
 19 20  1  0
 20 21  2  0
 21 22  1  0
 22 23  2  0
 23 24  1  0
 24 25  2  0
  8  3  1  0
 15 10  1  0
 25 20  1  0
  4 26  1  0
  5 27  1  0
  6 28  1  0
  7 29  1  0
 11 30  1  0
 12 31  1  0
 13 32  1  0
 14 33  1  0
 18 34  1  0
 19 35  1  0
 19 36  1  0
 21 37  1  0
 22 38  1  0
 23 39  1  0
 24 40  1  0
 25 41  1  0
M  END
>  <UniqueID>  (18) 
17

>  <SMILES>  (18) 
N#Cc1ccccc1Sc1ccccc1C(=O)NCc1ccccc1

>  <Energy>  (18) 
45.90499373442837

>  <Genealogy>  (18) 
N#Cc1ccccc1Sc1ccccc1C(=O)NCc1ccccc1 (3D coordinates assigned)
N#Cc1ccccc1Sc1ccccc1C(=O)NCc1ccccc1 (optimized conformer: 45.90499373442837 kcal/mol)

>  <smiles>  (18) 
N#Cc1ccccc1Sc1ccccc1C(=O)NCc1ccccc1

>  <score_type>  (18) 
oracle

>  <origin>  (18) 
adg

>  <m_score__min__energy>  (18) 
-8.3599999999999994

>  <m_primary>  (18) 
energy

$$$$
18:0
     RDKit          3D

 64 66  0  0  0  0  0  0  0  0999 V2000
   57.9745   25.3515   44.8269 H   0  0  0  0  0  0  0  0  0  0  0  0
   57.5340   26.3540   44.9320 C   0  0  0  0  0  0  0  0  0  0  0  0
   56.5970   26.5540   46.0380 C   0  0  0  0  0  0  0  0  0  0  0  0
   57.0480   26.8940   47.1630 O   0  0  0  0  0  0  0  0  0  0  0  0
   55.1780   26.4440   45.8530 N   0  0  0  0  0  0  0  0  0  0  0  0
   54.4700   25.1910   45.6210 C   0  0  0  0  0  0  0  0  0  0  0  0
   53.5280   25.2037   46.1889 H   0  0  0  0  0  0  0  0  0  0  0  0
   54.2792   25.1005   44.5415 H   0  0  0  0  0  0  0  0  0  0  0  0
   55.3010   23.9770   46.0630 C   0  0  0  0  0  0  0  0  0  0  0  0
   56.2825   24.3320   46.4105 H   0  0  0  0  0  0  0  0  0  0  0  0
   54.7413   23.4688   46.8620 H   0  0  0  0  0  0  0  0  0  0  0  0
   55.5130   22.9920   44.9750 N   0  0  0  0  0  0  0  0  0  0  0  0
   55.9440   23.7070   43.7540 C   0  0  0  0  0  0  0  0  0  0  0  0
   55.1142   24.3356   43.3987 H   0  0  0  0  0  0  0  0  0  0  0  0
   56.8233   24.3167   44.0092 H   0  0  0  0  0  0  0  0  0  0  0  0
   56.3490   22.7330   42.6280 C   0  0  0  0  0  0  0  0  0  0  0  0
   55.7254   22.9311   41.7438 H   0  0  0  0  0  0  0  0  0  0  0  0
   57.4139   22.8925   42.4030 H   0  0  0  0  0  0  0  0  0  0  0  0
   56.1780   21.3870   43.0160 O   0  0  0  0  0  0  0  0  0  0  0  0
   56.9730   21.1280   44.1520 C   0  0  0  0  0  0  0  0  0  0  0  0
   56.8868   20.0630   44.4136 H   0  0  0  0  0  0  0  0  0  0  0  0
   58.0143   21.3886   43.9118 H   0  0  0  0  0  0  0  0  0  0  0  0
   56.5270   21.9780   45.3580 C   0  0  0  0  0  0  0  0  0  0  0  0
   56.0952   21.3138   46.1211 H   0  0  0  0  0  0  0  0  0  0  0  0
   57.4091   22.5077   45.7469 H   0  0  0  0  0  0  0  0  0  0  0  0
   57.9070   27.2810   44.0320 C   0  0  0  0  0  0  0  0  0  0  0  0
   58.3329   26.8838   43.0988 H   0  0  0  0  0  0  0  0  0  0  0  0
   57.8280   28.7760   44.1130 C   0  0  0  0  0  0  0  0  0  0  0  0
   58.6770   29.5970   44.8830 C   0  0  0  0  0  0  0  0  0  0  0  0
   59.4318   29.1349   45.5362 H   0  0  0  0  0  0  0  0  0  0  0  0
   58.5730   30.9920   44.8280 C   0  0  0  0  0  0  0  0  0  0  0  0
   59.2675   31.6150   45.4108 H   0  0  0  0  0  0  0  0  0  0  0  0
   57.5870   31.6020   44.0330 C   0  0  0  0  0  0  0  0  0  0  0  0
   57.4670   33.0270   43.8840 N   0  0  0  0  0  0  0  0  0  0  0  0
   57.4890   34.0490   44.8880 C   0  0  0  0  0  0  0  0  0  0  0  0
   56.4000   34.5630   45.2440 O   0  0  0  0  0  0  0  0  0  0  0  0
   58.7240   34.5370   45.4260 N   0  0  0  0  0  0  0  0  0  0  0  0
   59.4960   34.0100   46.3360 C   0  0  0  0  0  0  0  0  0  0  0  0
   60.8710   34.0870   46.2880 C   0  0  0  0  0  0  0  0  0  0  0  0
   61.4929   34.5677   45.5185 H   0  0  0  0  0  0  0  0  0  0  0  0
   61.2940   33.4210   47.4300 C   0  0  0  0  0  0  0  0  0  0  0  0
   62.7270   33.1510   47.8590 C   0  0  0  0  0  0  0  0  0  0  0  0
   63.6920   33.6240   46.7520 C   0  0  0  0  0  0  0  0  0  0  0  0
   64.5895   34.0639   47.2113 H   0  0  0  0  0  0  0  0  0  0  0  0
   63.9826   32.7662   46.1277 H   0  0  0  0  0  0  0  0  0  0  0  0
   63.1920   34.3791   46.1277 H   0  0  0  0  0  0  0  0  0  0  0  0
   62.9650   31.6450   48.1040 C   0  0  0  0  0  0  0  0  0  0  0  0
   62.9958   31.4499   49.1861 H   0  0  0  0  0  0  0  0  0  0  0  0
   62.1472   31.0660   47.6502 H   0  0  0  0  0  0  0  0  0  0  0  0
   63.9215   31.3464   47.6502 H   0  0  0  0  0  0  0  0  0  0  0  0
   63.0110   33.9290   49.1570 C   0  0  0  0  0  0  0  0  0  0  0  0
   62.7788   33.2930   50.0240 H   0  0  0  0  0  0  0  0  0  0  0  0
   64.0722   34.2169   49.1872 H   0  0  0  0  0  0  0  0  0  0  0  0
   62.3848   34.8329   49.1872 H   0  0  0  0  0  0  0  0  0  0  0  0
   60.2190   32.9330   48.0830 N   0  0  0  0  0  0  0  0  0  0  0  0
   59.1250   33.2880   47.4260 N   0  0  0  0  0  0  0  0  0  0  0  0
   57.8070   32.8090   47.8290 C   0  0  0  0  0  0  0  0  0  0  0  0
   57.7450   32.7865   48.9270 H   0  0  0  0  0  0  0  0  0  0  0  0
   57.0344   33.4838   47.4319 H   0  0  0  0  0  0  0  0  0  0  0  0
   57.6480   31.7956   47.4319 H   0  0  0  0  0  0  0  0  0  0  0  0
   56.7300   30.7930   43.2860 C   0  0  0  0  0  0  0  0  0  0  0  0
   55.9549   31.2557   42.6575 H   0  0  0  0  0  0  0  0  0  0  0  0
   56.8460   29.4030   43.3280 C   0  0  0  0  0  0  0  0  0  0  0  0
   56.1550   28.7861   42.7348 H   0  0  0  0  0  0  0  0  0  0  0  0
  1  2  1  0
  2  3  1  0
  3  4  2  0
  3  5  1  0
  5  6  1  0
  6  7  1  0
  6  8  1  0
  6  9  1  0
  9 10  1  0
  9 11  1  0
  9 12  1  0
 12 13  1  0
 13 14  1  0
 13 15  1  0
 13 16  1  0
 16 17  1  0
 16 18  1  0
 16 19  1  0
 19 20  1  0
 20 21  1  0
 20 22  1  0
 20 23  1  0
 23 24  1  0
 23 25  1  0
  2 26  2  3
 26 27  1  0
 26 28  1  0
 28 29  2  0
 29 30  1  0
 29 31  1  0
 31 32  1  0
 31 33  2  0
 33 34  1  0
 34 35  1  0
 35 36  2  0
 35 37  1  0
 37 38  2  0
 38 39  1  0
 39 40  1  0
 39 41  2  0
 41 42  1  0
 42 43  1  0
 43 44  1  0
 43 45  1  0
 43 46  1  0
 42 47  1  0
 47 48  1  0
 47 49  1  0
 47 50  1  0
 42 51  1  0
 51 52  1  0
 51 53  1  0
 51 54  1  0
 41 55  1  0
 55 56  1  0
 56 57  1  0
 57 58  1  0
 57 59  1  0
 57 60  1  0
 33 61  1  0
 61 62  1  0
 61 63  2  0
 63 64  1  0
 23 12  1  0
 63 28  1  0
 56 38  1  0
M  CHG  3   5  -1  34  -1  55  -1
M  END
>  <UniqueID>  (19) 
18

>  <SMILES>  (19) 
Cn1[n-]c(C(C)(C)C)c/c1=N/C(=O)[N-]c1ccc(C=CC(=O)[N-]CCN2CCOCC2)cc1

>  <Energy>  (19) 
129.48316558228356

>  <Genealogy>  (19) 
Cn1[n-]c(C(C)(C)C)cc1=NC(=O)[N-]c1ccc(C=CC(=O)[N-]CCN2CCOCC2)cc1 (protonated)
Cn1[n-]c(C(C)(C)C)c/c1=N/C(=O)[N-]c1ccc(C=CC(=O)[N-]CCN2CCOCC2)cc1 (cis-trans isomerization)
Cn1[n-]c(C(C)(C)C)c/c1=N/C(=O)[N-]c1ccc(C=CC(=O)[N-]CCN2CCOCC2)cc1 (3D coordinates assigned)
Cn1[n-]c(C(C)(C)C)c/c1=N/C(=O)[N-]c1ccc(C=CC(=O)[N-]CCN2CCOCC2)cc1 (nonaromatic ring conformer: 129.48316558228356 kcal/mol)

>  <smiles>  (19) 
Cn1[nH]c(C(C)(C)C)cc1=NC(=O)Nc1ccc(C=CC(=O)NCCN2CCOCC2)cc1

>  <score_type>  (19) 
oracle

>  <origin>  (19) 
adg

>  <m_score__min__energy>  (19) 
-13.41

>  <m_primary>  (19) 
energy

$$$$
19:0
     RDKit          3D

 48 51  0  0  0  0  0  0  0  0999 V2000
   54.7860   26.7100   47.1220 H   0  0  0  0  0  0  0  0  0  0  0  0
   55.0790   26.4340   46.1930 O   0  0  0  0  0  0  0  0  0  0  0  0
   54.8890   25.1310   45.7480 C   0  0  0  0  0  0  0  0  0  0  0  0
   53.7850   24.4070   45.9950 N   0  0  0  0  0  0  0  0  0  0  0  0
   54.0330   23.2550   45.3350 C   0  0  0  0  0  0  0  0  0  0  0  0
   53.2170   22.2970   45.3130 O   0  0  0  0  0  0  0  0  0  0  0  0
   55.2180   23.2150   44.6880 N   0  0  0  0  0  0  0  0  0  0  0  0
   55.7720   24.4040   44.9810 C   0  0  0  0  0  0  0  0  0  0  0  0
   57.0340   24.8800   44.3960 C   0  0  0  0  0  0  0  0  0  0  0  0
   57.3734   24.3927   43.4701 H   0  0  0  0  0  0  0  0  0  0  0  0
   57.8110   25.8610   44.8950 C   0  0  0  0  0  0  0  0  0  0  0  0
   58.4890   26.7620   44.0890 C   0  0  0  0  0  0  0  0  0  0  0  0
   58.5242   26.7604   42.9896 H   0  0  0  0  0  0  0  0  0  0  0  0
   59.1110   27.6610   44.9300 C   0  0  0  0  0  0  0  0  0  0  0  0
   59.8870   28.8570   44.4680 C   0  0  0  0  0  0  0  0  0  0  0  0
   60.2509   29.4178   45.3415 H   0  0  0  0  0  0  0  0  0  0  0  0
   60.7433   28.5267   43.8617 H   0  0  0  0  0  0  0  0  0  0  0  0
   59.2364   29.5044   43.8617 H   0  0  0  0  0  0  0  0  0  0  0  0
   58.8570   27.3520   46.2200 N   0  0  0  0  0  0  0  0  0  0  0  0
   59.3600   28.0580   47.3670 C   0  0  0  0  0  0  0  0  0  0  0  0
   60.2000   27.3910   48.2720 C   0  0  0  0  0  0  0  0  0  0  0  0
   60.4553   26.3342   48.1045 H   0  0  0  0  0  0  0  0  0  0  0  0
   60.7130   28.0610   49.3830 C   0  0  0  0  0  0  0  0  0  0  0  0
   61.3732   27.5330   50.0868 H   0  0  0  0  0  0  0  0  0  0  0  0
   60.3890   29.4010   49.6020 C   0  0  0  0  0  0  0  0  0  0  0  0
   60.7914   29.9264   50.4806 H   0  0  0  0  0  0  0  0  0  0  0  0
   59.5550   30.0760   48.7080 C   0  0  0  0  0  0  0  0  0  0  0  0
   59.2972   31.1296   48.8909 H   0  0  0  0  0  0  0  0  0  0  0  0
   59.0430   29.4190   47.5770 C   0  0  0  0  0  0  0  0  0  0  0  0
   58.1470   30.1390   46.6500 C   0  0  0  0  0  0  0  0  0  0  0  0
   57.2180   29.5030   46.0820 O   0  0  0  0  0  0  0  0  0  0  0  0
   58.3280   31.5380   46.3600 N   0  0  0  0  0  0  0  0  0  0  0  0
   58.1820   32.5690   47.3740 C   0  0  0  0  0  0  0  0  0  0  0  0
   57.1772   32.5291   47.8199 H   0  0  0  0  0  0  0  0  0  0  0  0
   58.9038   32.4380   48.1937 H   0  0  0  0  0  0  0  0  0  0  0  0
   58.3890   33.8920   46.6480 C   0  0  0  0  0  0  0  0  0  0  0  0
   57.6548   34.6368   46.9891 H   0  0  0  0  0  0  0  0  0  0  0  0
   59.3864   34.3129   46.8429 H   0  0  0  0  0  0  0  0  0  0  0  0
   58.1850   33.5810   45.1690 C   0  0  1  0  0  0  0  0  0  0  0  0
   57.1675   33.8376   44.8390 H   0  0  0  0  0  0  0  0  0  0  0  0
   59.0430   34.3280   44.3800 F   0  0  0  0  0  0  0  0  0  0  0  0
   58.4590   32.0900   45.0210 C   0  0  0  0  0  0  0  0  0  0  0  0
   57.7264   31.6297   44.3417 H   0  0  0  0  0  0  0  0  0  0  0  0
   59.4548   31.8976   44.5950 H   0  0  0  0  0  0  0  0  0  0  0  0
   58.0950   26.2280   46.2210 C   0  0  0  0  0  0  0  0  0  0  0  0
   57.7780   25.5590   47.3390 C   0  0  0  0  0  0  0  0  0  0  0  0
   58.0636   25.9631   48.3214 H   0  0  0  0  0  0  0  0  0  0  0  0
   57.2324   24.6061   47.2737 H   0  0  0  0  0  0  0  0  0  0  0  0
  1  2  1  0
  2  3  1  0
  3  4  1  0
  4  5  1  0
  5  6  2  0
  5  7  1  0
  7  8  1  0
  8  9  1  0
  9 10  1  0
  9 11  2  0
 11 12  1  0
 12 13  1  0
 12 14  2  0
 14 15  1  0
 15 16  1  0
 15 17  1  0
 15 18  1  0
 14 19  1  0
 19 20  1  0
 20 21  2  0
 21 22  1  0
 21 23  1  0
 23 24  1  0
 23 25  2  0
 25 26  1  0
 25 27  1  0
 27 28  1  0
 27 29  2  0
 29 30  1  0
 30 31  2  0
 30 32  1  0
 32 33  1  0
 33 34  1  0
 33 35  1  0
 33 36  1  0
 36 37  1  0
 36 38  1  0
 36 39  1  0
 39 40  1  6
 39 41  1  0
 39 42  1  0
 42 43  1  0
 42 44  1  0
 19 45  1  0
 45 46  2  0
 46 47  1  0
 46 48  1  0
  8  3  2  0
 45 11  1  0
 29 20  1  0
 42 32  1  0
M  CHG  2   4  -1   7  -1
M  END
>  <UniqueID>  (20) 
19

>  <SMILES>  (20) 
C=c1/c(=C\c2[n-]c(=O)[n-]c2O)cc(C)n1-c1ccccc1C(=O)N1CC[C@@H](F)C1

>  <Energy>  (20) 
129.53077535985952

>  <Genealogy>  (20) 
C=c1c(=Cc2[n-]c(=O)[n-]c2O)cc(C)n1-c1ccccc1C(=O)N1CCC(F)C1 (protonated)
C=c1c(=Cc2[n-]c(=O)[n-]c2O)cc(C)n1-c1ccccc1C(=O)N1CC[C@@H](F)C1 (chirality)
C=c1/c(=C\c2[n-]c(=O)[n-]c2O)cc(C)n1-c1ccccc1C(=O)N1CC[C@@H](F)C1 (cis-trans isomerization)
C=c1/c(=C\c2[n-]c(=O)[n-]c2O)cc(C)n1-c1ccccc1C(=O)N1CC[C@@H](F)C1 (3D coordinates assigned)
C=c1/c(=C\c2[n-]c(=O)[n-]c2O)cc(C)n1-c1ccccc1C(=O)N1CC[C@@H](F)C1 (nonaromatic ring conformer: 129.53077535985952 kcal/mol)

>  <smiles>  (20) 
C=c1c(=Cc2[nH]c(=O)[nH]c2O)cc(C)n1-c1ccccc1C(=O)N1CCC(F)C1

>  <score_type>  (20) 
oracle

>  <origin>  (20) 
adg

>  <m_score__min__energy>  (20) 
-13.43

>  <m_primary>  (20) 
energy

$$$$
20:0
     RDKit          3D

 33 35  0  0  0  0  0  0  0  0999 V2000
   60.5680   28.8670   44.5480 C   0  0  0  0  0  0  0  0  0  0  0  0
   59.2590   28.6160   44.1130 O   0  0  0  0  0  0  0  0  0  0  0  0
   58.4600   27.7090   44.7410 C   0  0  0  0  0  0  0  0  0  0  0  0
   58.1800   26.5290   44.0650 C   0  0  0  0  0  0  0  0  0  0  0  0
   57.3790   25.5580   44.6230 C   0  0  0  0  0  0  0  0  0  0  0  0
   56.8760   25.8180   45.8760 C   0  0  0  0  0  0  0  0  0  0  0  0
   57.1560   27.0020   46.5560 C   0  0  0  0  0  0  0  0  0  0  0  0
   57.9720   27.9930   45.9910 C   0  0  0  0  0  0  0  0  0  0  0  0
   58.2800   29.4680   46.9280 S   0  0  0  0  0  0  0  0  0  0  0  0
   58.1360   30.9830   45.8860 C   0  0  0  0  0  0  0  0  0  0  0  0
   57.2910   30.9820   44.8420 C   0  0  0  0  0  0  0  0  0  0  0  0
   56.4480   29.9810   44.2030 C   0  0  0  0  0  0  0  0  0  0  0  0
   56.7320   29.4360   42.9170 N   0  0  0  0  0  0  0  0  0  0  0  0
   55.4410   29.5810   44.7900 O   0  0  0  0  0  0  0  0  0  0  0  0
   57.3970   32.6590   44.1170 S   0  0  0  0  0  0  0  0  0  0  0  0
   58.5650   33.1700   45.2920 C   0  0  0  0  0  0  0  0  0  0  0  0
   59.2070   34.3860   45.4110 N   0  0  0  0  0  0  0  0  0  0  0  0
   60.1240   34.6020   46.3660 C   0  0  0  0  0  0  0  0  0  0  0  0
   60.3910   33.5930   47.1960 N   0  0  0  0  0  0  0  0  0  0  0  0
   59.7900   32.4020   47.1160 C   0  0  0  0  0  0  0  0  0  0  0  0
   60.1430   31.5420   47.9560 O   0  0  0  0  0  0  0  0  0  0  0  0
   58.8120   32.1210   46.1310 C   0  0  0  0  0  0  0  0  0  0  0  0
   60.5943   28.8720   45.6477 H   0  0  0  0  0  0  0  0  0  0  0  0
   61.2375   28.0809   44.1688 H   0  0  0  0  0  0  0  0  0  0  0  0
   60.8992   29.8450   44.1688 H   0  0  0  0  0  0  0  0  0  0  0  0
   58.6064   26.3667   43.0641 H   0  0  0  0  0  0  0  0  0  0  0  0
   57.1528   24.6211   44.0929 H   0  0  0  0  0  0  0  0  0  0  0  0
   56.2318   25.0674   46.3573 H   0  0  0  0  0  0  0  0  0  0  0  0
   56.7281   27.1625   47.5566 H   0  0  0  0  0  0  0  0  0  0  0  0
   57.6600   29.0320   42.6540 H   0  0  0  0  0  0  0  0  0  0  0  0
   55.9180   29.4700   42.2310 H   0  0  0  0  0  0  0  0  0  0  0  0
   58.9850   35.1430   44.7630 H   0  0  0  0  0  0  0  0  0  0  0  0
   60.6347   35.5716   46.4606 H   0  0  0  0  0  0  0  0  0  0  0  0
  1  2  1  0
  2  3  1  0
  3  4  2  0
  4  5  1  0
  5  6  2  0
  6  7  1  0
  7  8  2  0
  8  9  1  0
  9 10  1  0
 10 11  2  0
 11 12  1  0
 12 13  1  0
 12 14  2  0
 11 15  1  0
 15 16  1  0
 16 17  1  0
 17 18  1  0
 18 19  2  0
 19 20  1  0
 20 21  2  0
 20 22  1  0
  8  3  1  0
 22 10  1  0
 22 16  2  0
  1 23  1  0
  1 24  1  0
  1 25  1  0
  4 26  1  0
  5 27  1  0
  6 28  1  0
  7 29  1  0
 13 30  1  0
 13 31  1  0
 17 32  1  0
 18 33  1  0
M  END
>  <smiles>  (21) 
COc1ccccc1Sc1c(C(N)=O)sc2[nH]cnc(=O)c12

>  <score_type>  (21) 
oracle

>  <origin>  (21) 
adg

>  <m_score__min__energy>  (21) 
-6.7599999999999998

>  <m_primary>  (21) 
energy

$$$$
21:0
     RDKit          3D

 74 77  0  0  0  0  0  0  0  0999 V2000
   57.5490   32.3240   50.3310 N   0  0  0  0  0  0  0  0  0  0  0  0
   58.9510   32.1460   49.9620 C   0  0  0  0  0  0  0  0  0  0  0  0
   59.1030   30.9240   49.0950 C   0  0  0  0  0  0  0  0  0  0  0  0
   59.8510   30.9860   47.9070 C   0  0  0  0  0  0  0  0  0  0  0  0
   60.0610   29.8340   47.1420 C   0  0  0  0  0  0  0  0  0  0  0  0
   59.5220   28.6030   47.5520 C   0  0  0  0  0  0  0  0  0  0  0  0
   59.8700   27.3470   46.8010 C   0  0  0  0  0  0  0  0  0  0  0  0
   58.7550   26.4120   46.8970 N   0  0  0  0  0  0  0  0  0  0  0  0
   57.4630   26.6850   46.3430 C   0  0  0  0  0  0  0  0  0  0  0  0
   56.4240   26.4070   47.0060 O   0  0  0  0  0  0  0  0  0  0  0  0
   57.3700   27.2390   44.9460 C   0  0  2  0  0  0  0  0  0  0  0  0
   58.0950   26.3460   43.9160 C   0  0  0  0  0  0  0  0  0  0  0  0
   57.7250   24.8920   44.0670 C   0  0  0  0  0  0  0  0  0  0  0  0
   58.4500   24.0590   44.9360 C   0  0  0  0  0  0  0  0  0  0  0  0
   58.1470   22.6890   45.0190 C   0  0  0  0  0  0  0  0  0  0  0  0
   57.1010   22.1550   44.2620 C   0  0  0  0  0  0  0  0  0  0  0  0
   56.3510   22.9870   43.4240 C   0  0  0  0  0  0  0  0  0  0  0  0
   56.6540   24.3510   43.3350 C   0  0  0  0  0  0  0  0  0  0  0  0
   57.9560   28.5860   44.9390 N   0  0  0  0  0  0  0  0  0  0  0  0
   57.1590   29.7820   44.8790 C   0  0  0  0  0  0  0  0  0  0  0  0
   55.8990   29.7080   44.8630 O   0  0  0  0  0  0  0  0  0  0  0  0
   57.8510   31.1170   44.8580 C   0  0  0  0  0  0  0  0  0  0  0  0
   57.0470   32.1690   45.4810 N   0  0  0  0  0  0  0  0  0  0  0  0
   57.5430   33.2200   46.3200 C   0  0  0  0  0  0  0  0  0  0  0  0
   57.0150   33.3890   47.4490 O   0  0  0  0  0  0  0  0  0  0  0  0
   58.6880   34.1130   45.9080 C   0  0  0  0  0  0  0  0  0  0  0  0
   59.8770   33.9900   46.8270 C   0  0  0  0  0  0  0  0  0  0  0  0
   59.8230   34.4710   48.1460 C   0  0  0  0  0  0  0  0  0  0  0  0
   60.9360   34.3730   48.9850 C   0  0  0  0  0  0  0  0  0  0  0  0
   62.1460   33.8250   48.5140 C   0  0  0  0  0  0  0  0  0  0  0  0
   63.3000   33.7240   49.3780 N   0  0  0  0  0  0  0  0  0  0  0  0
   63.3660   34.2820   50.7220 C   0  0  0  0  0  0  0  0  0  0  0  0
   64.8140   34.1320   51.1700 C   0  0  0  0  0  0  0  0  0  0  0  0
   65.4400   33.1160   50.2210 C   0  0  0  0  0  0  0  0  0  0  0  0
   64.5550   33.0940   48.9850 C   0  0  0  0  0  0  0  0  0  0  0  0
   62.2020   33.3740   47.1810 C   0  0  0  0  0  0  0  0  0  0  0  0
   61.0830   33.4590   46.3460 C   0  0  0  0  0  0  0  0  0  0  0  0
   58.7850   28.5390   48.7480 C   0  0  0  0  0  0  0  0  0  0  0  0
   58.5780   29.6920   49.5130 C   0  0  0  0  0  0  0  0  0  0  0  0
   57.0460   32.7070   49.4980 H   0  0  0  0  0  0  0  0  0  0  0  0
   57.4910   33.0530   51.0790 H   0  0  0  0  0  0  0  0  0  0  0  0
   59.2974   33.0311   49.4083 H   0  0  0  0  0  0  0  0  0  0  0  0
   59.5518   32.0189   50.8746 H   0  0  0  0  0  0  0  0  0  0  0  0
   60.2739   31.9462   47.5767 H   0  0  0  0  0  0  0  0  0  0  0  0
   60.6508   29.8921   46.2153 H   0  0  0  0  0  0  0  0  0  0  0  0
   60.0583   27.5891   45.7446 H   0  0  0  0  0  0  0  0  0  0  0  0
   60.7737   26.8934   47.2341 H   0  0  0  0  0  0  0  0  0  0  0  0
   56.3099   27.2724   44.6543 H   0  0  0  0  0  0  0  0  0  0  0  0
   57.8218   26.6784   42.9036 H   0  0  0  0  0  0  0  0  0  0  0  0
   59.1774   26.4401   44.0880 H   0  0  0  0  0  0  0  0  0  0  0  0
   59.2571   24.4804   45.5532 H   0  0  0  0  0  0  0  0  0  0  0  0
   58.7345   22.0360   45.6812 H   0  0  0  0  0  0  0  0  0  0  0  0
   56.8676   21.0819   44.3249 H   0  0  0  0  0  0  0  0  0  0  0  0
   55.5220   22.5690   42.8341 H   0  0  0  0  0  0  0  0  0  0  0  0
   56.0498   25.0037   42.6878 H   0  0  0  0  0  0  0  0  0  0  0  0
   58.9820   28.6870   45.1290 H   0  0  0  0  0  0  0  0  0  0  0  0
   58.8032   31.0305   45.4020 H   0  0  0  0  0  0  0  0  0  0  0  0
   58.0131   31.3956   43.8063 H   0  0  0  0  0  0  0  0  0  0  0  0
   58.9999   33.8391   44.8893 H   0  0  0  0  0  0  0  0  0  0  0  0
   58.3343   35.1534   45.9572 H   0  0  0  0  0  0  0  0  0  0  0  0
   58.8960   34.9289   48.5216 H   0  0  0  0  0  0  0  0  0  0  0  0
   60.8671   34.7273   50.0241 H   0  0  0  0  0  0  0  0  0  0  0  0
   63.0782   35.3436   50.7093 H   0  0  0  0  0  0  0  0  0  0  0  0
   62.6775   33.7648   51.4065 H   0  0  0  0  0  0  0  0  0  0  0  0
   65.3386   35.0962   51.0990 H   0  0  0  0  0  0  0  0  0  0  0  0
   64.8814   33.8025   52.2173 H   0  0  0  0  0  0  0  0  0  0  0  0
   66.4621   33.4224   49.9535 H   0  0  0  0  0  0  0  0  0  0  0  0
   65.5080   32.1209   50.6849 H   0  0  0  0  0  0  0  0  0  0  0  0
   65.0265   33.6587   48.1672 H   0  0  0  0  0  0  0  0  0  0  0  0
   64.3945   32.0679   48.6226 H   0  0  0  0  0  0  0  0  0  0  0  0
   63.1387   32.9490   46.7911 H   0  0  0  0  0  0  0  0  0  0  0  0
   61.1491   33.1073   45.3058 H   0  0  0  0  0  0  0  0  0  0  0  0
   58.3692   27.5776   49.0837 H   0  0  0  0  0  0  0  0  0  0  0  0
   58.0005   29.6322   50.4473 H   0  0  0  0  0  0  0  0  0  0  0  0
  1  2  1  0
  2  3  1  0
  3  4  2  0
  4  5  1  0
  5  6  2  0
  6  7  1  0
  7  8  1  0
  8  9  1  0
  9 10  2  0
  9 11  1  0
 11 12  1  0
 12 13  1  0
 13 14  2  0
 14 15  1  0
 15 16  2  0
 16 17  1  0
 17 18  2  0
 11 19  1  0
 19 20  1  0
 20 21  2  0
 20 22  1  0
 22 23  1  0
 23 24  1  0
 24 25  2  0
 24 26  1  0
 26 27  1  0
 27 28  2  0
 28 29  1  0
 29 30  2  0
 30 31  1  0
 31 32  1  0
 32 33  1  0
 33 34  1  0
 34 35  1  0
 30 36  1  0
 36 37  2  0
  6 38  1  0
 38 39  2  0
 39  3  1  0
 18 13  1  0
 37 27  1  0
 35 31  1  0
  1 40  1  0
  1 41  1  0
  2 42  1  0
  2 43  1  0
  4 44  1  0
  5 45  1  0
  7 46  1  0
  7 47  1  0
 11 48  1  6
 12 49  1  0
 12 50  1  0
 14 51  1  0
 15 52  1  0
 16 53  1  0
 17 54  1  0
 18 55  1  0
 19 56  1  0
 22 57  1  0
 22 58  1  0
 26 59  1  0
 26 60  1  0
 28 61  1  0
 29 62  1  0
 32 63  1  0
 32 64  1  0
 33 65  1  0
 33 66  1  0
 34 67  1  0
 34 68  1  0
 35 69  1  0
 35 70  1  0
 36 71  1  0
 37 72  1  0
 38 73  1  0
 39 74  1  0
M  CHG  2   8  -1  23  -1
M  END
>  <UniqueID>  (22) 
20

>  <SMILES>  (22) 
NCc1ccc(C[N-]C(=O)[C@H](Cc2ccccc2)NC(=O)C[N-]C(=O)Cc2ccc(N3CCCC3)cc2)cc1

>  <Energy>  (22) 
65.57598427031894

>  <Genealogy>  (22) 
NCc1ccc(C[N-]C(=O)C(Cc2ccccc2)NC(=O)C[N-]C(=O)Cc2ccc(N3CCCC3)cc2)cc1 (protonated)
NCc1ccc(C[N-]C(=O)[C@H](Cc2ccccc2)NC(=O)C[N-]C(=O)Cc2ccc(N3CCCC3)cc2)cc1 (chirality)
NCc1ccc(C[N-]C(=O)[C@H](Cc2ccccc2)NC(=O)C[N-]C(=O)Cc2ccc(N3CCCC3)cc2)cc1 (3D coordinates assigned)
NCc1ccc(C[N-]C(=O)[C@H](Cc2ccccc2)NC(=O)C[N-]C(=O)Cc2ccc(N3CCCC3)cc2)cc1 (nonaromatic ring conformer: 65.57598427031894 kcal/mol)

>  <smiles>  (22) 
NCc1ccc(CNC(=O)C(Cc2ccccc2)NC(=O)CNC(=O)Cc2ccc(N3CCCC3)cc2)cc1

>  <score_type>  (22) 
oracle

>  <origin>  (22) 
adg

>  <m_score__min__energy>  (22) 
-11.51

>  <m_primary>  (22) 
energy

$$$$
22:0
     RDKit          3D

 44 45  0  0  0  0  0  0  0  0999 V2000
   56.6300   34.5940   45.1930 C   0  0  0  0  0  0  0  0  0  0  0  0
   57.9750   34.0830   45.5940 C   0  0  0  0  0  0  0  0  0  0  0  0
   58.6200   34.5040   46.6540 O   0  0  0  0  0  0  0  0  0  0  0  0
   59.7700   33.8670   46.6810 C   0  0  0  0  0  0  0  0  0  0  0  0
   60.7880   34.0400   47.7640 C   0  0  0  0  0  0  0  0  0  0  0  0
   60.6680   32.9410   48.8270 C   0  0  0  0  0  0  0  0  0  0  0  0
   60.1910   31.6400   48.2330 C   0  0  0  0  0  0  0  0  0  0  0  0
   58.9580   31.0950   48.6230 C   0  0  0  0  0  0  0  0  0  0  0  0
   58.5400   29.8610   48.1170 C   0  0  0  0  0  0  0  0  0  0  0  0
   59.3680   29.1380   47.2400 C   0  0  0  0  0  0  0  0  0  0  0  0
   58.9430   27.8400   46.6770 C   0  0  0  0  0  0  0  0  0  0  0  0
   57.8840   27.1230   47.0890 C   0  0  0  0  0  0  0  0  0  0  0  0
   56.7030   26.7820   46.2730 C   0  0  0  0  0  0  0  0  0  0  0  0
   56.3320   25.5790   46.2130 O   0  0  0  0  0  0  0  0  0  0  0  0
   55.9390   27.7960   45.6130 N   0  0  0  0  0  0  0  0  0  0  0  0
   56.6730   29.0820   44.7190 S   0  0  0  0  0  0  0  0  0  0  0  0
   55.4910   29.7370   43.5660 C   0  0  0  0  0  0  0  0  0  0  0  0
   57.8690   28.5640   43.9750 O   0  0  0  0  0  0  0  0  0  0  0  0
   57.0930   30.1780   45.6570 O   0  0  0  0  0  0  0  0  0  0  0  0
   60.5870   29.6960   46.8290 C   0  0  0  0  0  0  0  0  0  0  0  0
   61.0020   30.9330   47.3300 C   0  0  0  0  0  0  0  0  0  0  0  0
   59.9160   33.0050   45.6540 N   0  0  0  0  0  0  0  0  0  0  0  0
   58.7650   33.1300   44.9660 C   0  0  0  0  0  0  0  0  0  0  0  0
   58.4850   32.3580   43.7400 C   0  0  0  0  0  0  0  0  0  0  0  0
   58.5250   30.9300   43.7200 N   0  0  0  0  0  0  0  0  0  0  0  0
   58.2400   32.9780   42.6710 O   0  0  0  0  0  0  0  0  0  0  0  0
   56.0395   34.8183   46.0936 H   0  0  0  0  0  0  0  0  0  0  0  0
   56.7489   35.5096   44.5951 H   0  0  0  0  0  0  0  0  0  0  0  0
   56.1110   33.8304   44.5951 H   0  0  0  0  0  0  0  0  0  0  0  0
   61.7934   33.9996   47.3196 H   0  0  0  0  0  0  0  0  0  0  0  0
   60.6142   35.0114   48.2499 H   0  0  0  0  0  0  0  0  0  0  0  0
   61.6539   32.7820   49.2882 H   0  0  0  0  0  0  0  0  0  0  0  0
   59.9306   33.2669   49.5753 H   0  0  0  0  0  0  0  0  0  0  0  0
   58.3173   31.6417   49.3305 H   0  0  0  0  0  0  0  0  0  0  0  0
   57.5598   29.4539   48.4058 H   0  0  0  0  0  0  0  0  0  0  0  0
   59.5428   27.4265   45.8528 H   0  0  0  0  0  0  0  0  0  0  0  0
   57.8988   26.7579   48.1265 H   0  0  0  0  0  0  0  0  0  0  0  0
   54.6582   30.1985   44.1170 H   0  0  0  0  0  0  0  0  0  0  0  0
   55.9767   30.4947   42.9335 H   0  0  0  0  0  0  0  0  0  0  0  0
   55.1061   28.9235   42.9335 H   0  0  0  0  0  0  0  0  0  0  0  0
   61.2200   29.1573   46.1085 H   0  0  0  0  0  0  0  0  0  0  0  0
   61.9681   31.3548   47.0157 H   0  0  0  0  0  0  0  0  0  0  0  0
   58.9630   30.3850   44.4920 H   0  0  0  0  0  0  0  0  0  0  0  0
   58.2360   30.4140   42.8590 H   0  0  0  0  0  0  0  0  0  0  0  0
  1  2  1  0
  2  3  1  0
  3  4  1  0
  4  5  1  0
  5  6  1  0
  6  7  1  0
  7  8  2  0
  8  9  1  0
  9 10  2  0
 10 11  1  0
 11 12  2  3
 12 13  1  0
 13 14  2  0
 13 15  1  0
 15 16  1  0
 16 17  1  0
 16 18  2  0
 16 19  2  0
 10 20  1  0
 20 21  2  0
  4 22  2  0
 22 23  1  0
 23 24  1  0
 24 25  1  0
 24 26  2  0
 23  2  2  0
 21  7  1  0
  1 27  1  0
  1 28  1  0
  1 29  1  0
  5 30  1  0
  5 31  1  0
  6 32  1  0
  6 33  1  0
  8 34  1  0
  9 35  1  0
 11 36  1  0
 12 37  1  0
 17 38  1  0
 17 39  1  0
 17 40  1  0
 20 41  1  0
 21 42  1  0
 25 43  1  0
 25 44  1  0
M  CHG  1  15  -1
M  END
>  <UniqueID>  (23) 
21

>  <SMILES>  (23) 
Cc1oc(CCc2ccc(C=CC(=O)[N-]S(C)(=O)=O)cc2)nc1C(N)=O

>  <Energy>  (23) 
71.33384193335783

>  <Genealogy>  (23) 
Cc1oc(CCc2ccc(C=CC(=O)[N-]S(C)(=O)=O)cc2)nc1C(N)=O (protonated)
Cc1oc(CCc2ccc(C=CC(=O)[N-]S(C)(=O)=O)cc2)nc1C(N)=O (3D coordinates assigned)
Cc1oc(CCc2ccc(C=CC(=O)[N-]S(C)(=O)=O)cc2)nc1C(N)=O (optimized conformer: 71.33384193335783 kcal/mol)

>  <smiles>  (23) 
Cc1oc(CCc2ccc(C=CC(=O)NS(C)(=O)=O)cc2)nc1C(N)=O

>  <score_type>  (23) 
oracle

>  <origin>  (23) 
adg

>  <m_score__min__energy>  (23) 
-11.33

>  <m_primary>  (23) 
energy

$$$$
23:0
     RDKit          3D

 36 37  0  0  0  0  0  0  0  0999 V2000
   59.7730   27.9460   44.6190 C   0  0  0  0  0  0  0  0  0  0  0  0
   59.5620   27.7270   46.0900 C   0  0  0  0  0  0  0  0  0  0  0  0
   59.7870   28.6540   47.0930 C   0  0  0  0  0  0  0  0  0  0  0  0
   60.2670   30.0700   46.9620 C   0  0  0  0  0  0  0  0  0  0  0  0
   59.2650   30.8880   46.1920 C   0  0  0  0  0  0  0  0  0  0  0  0
   59.3670   32.2870   46.1740 C   0  0  0  0  0  0  0  0  0  0  0  0
   58.4170   33.0530   45.4940 C   0  0  0  0  0  0  0  0  0  0  0  0
   57.3550   32.4300   44.8340 C   0  0  0  0  0  0  0  0  0  0  0  0
   57.2310   31.0300   44.8460 C   0  0  0  0  0  0  0  0  0  0  0  0
   56.0980   30.3720   44.1520 C   0  0  0  0  0  0  0  0  0  0  0  0
   55.1480   29.6000   44.8850 N   0  0  0  0  0  0  0  0  0  0  0  0
   55.9610   30.4880   42.9050 O   0  0  0  0  0  0  0  0  0  0  0  0
   58.1940   30.2650   45.5300 C   0  0  0  0  0  0  0  0  0  0  0  0
   59.3160   28.0570   48.2460 C   0  0  0  0  0  0  0  0  0  0  0  0
   58.8300   26.8360   47.9490 N   0  0  0  0  0  0  0  0  0  0  0  0
   58.9810   26.6400   46.6480 N   0  0  0  0  0  0  0  0  0  0  0  0
   58.4780   25.4470   45.9630 C   0  0  0  0  0  0  0  0  0  0  0  0
   57.1960   25.7540   45.1810 C   0  0  0  0  0  0  0  0  0  0  0  0
   56.0000   25.7790   46.0810 C   0  0  0  0  0  0  0  0  0  0  0  0
   55.1620   26.7150   45.9970 O   0  0  0  0  0  0  0  0  0  0  0  0
   55.8340   24.7910   47.0420 O   0  0  0  0  0  0  0  0  0  0  0  0
   60.5292   28.7308   44.4699 H   0  0  0  0  0  0  0  0  0  0  0  0
   60.1190   27.0106   44.1549 H   0  0  0  0  0  0  0  0  0  0  0  0
   58.8254   28.2569   44.1549 H   0  0  0  0  0  0  0  0  0  0  0  0
   60.3973   30.5040   47.9644 H   0  0  0  0  0  0  0  0  0  0  0  0
   61.2261   30.0761   46.4233 H   0  0  0  0  0  0  0  0  0  0  0  0
   60.1980   32.7826   46.6972 H   0  0  0  0  0  0  0  0  0  0  0  0
   58.5054   34.1493   45.4782 H   0  0  0  0  0  0  0  0  0  0  0  0
   56.6104   33.0395   44.3010 H   0  0  0  0  0  0  0  0  0  0  0  0
   55.1590   28.5570   44.8460 H   0  0  0  0  0  0  0  0  0  0  0  0
   58.1073   29.1685   45.5464 H   0  0  0  0  0  0  0  0  0  0  0  0
   59.3347   28.5077   49.2493 H   0  0  0  0  0  0  0  0  0  0  0  0
   59.2461   25.0843   45.2641 H   0  0  0  0  0  0  0  0  0  0  0  0
   58.2489   24.6823   46.7198 H   0  0  0  0  0  0  0  0  0  0  0  0
   57.2993   26.7357   44.6956 H   0  0  0  0  0  0  0  0  0  0  0  0
   57.0492   24.9618   44.4321 H   0  0  0  0  0  0  0  0  0  0  0  0
  1  2  1  0
  2  3  2  0
  3  4  1  0
  4  5  1  0
  5  6  2  0
  6  7  1  0
  7  8  2  0
  8  9  1  0
  9 10  1  0
 10 11  1  0
 10 12  2  0
  9 13  2  0
  3 14  1  0
 14 15  2  0
 15 16  1  0
 16 17  1  0
 17 18  1  0
 18 19  1  0
 19 20  2  0
 19 21  1  0
 16  2  1  0
 13  5  1  0
  1 22  1  0
  1 23  1  0
  1 24  1  0
  4 25  1  0
  4 26  1  0
  6 27  1  0
  7 28  1  0
  8 29  1  0
 11 30  1  0
 13 31  1  0
 14 32  1  0
 17 33  1  0
 17 34  1  0
 18 35  1  0
 18 36  1  0
M  CHG  2  11  -1  21  -1
M  END
>  <UniqueID>  (24) 
22

>  <SMILES>  (24) 
Cc1c(Cc2cccc(C([NH-])=O)c2)cnn1CCC(=O)[O-]

>  <Energy>  (24) 
59.53553245892668

>  <Genealogy>  (24) 
Cc1c(Cc2cccc(C([NH-])=O)c2)cnn1CCC(=O)[O-] (protonated)
Cc1c(Cc2cccc(C([NH-])=O)c2)cnn1CCC(=O)[O-] (3D coordinates assigned)
Cc1c(Cc2cccc(C([NH-])=O)c2)cnn1CCC(=O)[O-] (optimized conformer: 59.53553245892668 kcal/mol)

>  <smiles>  (24) 
Cc1c(Cc2cccc(C(N)=O)c2)cnn1CCC(=O)O

>  <score_type>  (24) 
oracle

>  <origin>  (24) 
adg

>  <m_score__min__energy>  (24) 
-12.880000000000001

>  <m_primary>  (24) 
energy

$$$$
24:0
     RDKit          3D

 52 55  0  0  0  0  0  0  0  0999 V2000
   56.6840   26.1130   47.2110 O   0  0  0  0  0  0  0  0  0  0  0  0
   56.6490   26.4170   45.9900 C   0  0  0  0  0  0  0  0  0  0  0  0
   57.3780   25.5410   45.0030 C   0  0  0  0  0  0  0  0  0  0  0  0
   56.5520   24.3570   44.5780 C   0  0  0  0  0  0  0  0  0  0  0  0
   56.9450   23.4640   43.6510 N   0  0  0  0  0  0  0  0  0  0  0  0
   55.9070   22.6030   43.5800 C   0  0  0  0  0  0  0  0  0  0  0  0
   55.9020   21.6090   42.8080 O   0  0  0  0  0  0  0  0  0  0  0  0
   54.8730   22.8970   44.3960 N   0  0  0  0  0  0  0  0  0  0  0  0
   55.2880   24.0130   45.0180 C   0  0  0  0  0  0  0  0  0  0  0  0
   54.5170   24.6870   45.9630 O   0  0  0  0  0  0  0  0  0  0  0  0
   55.9030   27.5790   45.5930 N   0  0  0  0  0  0  0  0  0  0  0  0
   56.4470   28.8580   45.2450 C   0  0  0  0  0  0  0  0  0  0  0  0
   55.7230   29.6930   44.3870 C   0  0  0  0  0  0  0  0  0  0  0  0
   56.2270   30.9480   44.0330 C   0  0  0  0  0  0  0  0  0  0  0  0
   57.4400   31.3980   44.5640 C   0  0  0  0  0  0  0  0  0  0  0  0
   57.9230   32.6970   44.1920 N   0  0  0  0  0  0  0  0  0  0  0  0
   58.0970   33.8130   45.0750 C   0  0  0  0  0  0  0  0  0  0  0  0
   57.5770   34.9150   44.7610 O   0  0  0  0  0  0  0  0  0  0  0  0
   58.8240   33.6890   46.3610 C   0  0  0  0  0  0  0  0  0  0  0  0
   60.0990   34.2570   46.5260 C   0  0  0  0  0  0  0  0  0  0  0  0
   60.7700   34.1510   47.7460 C   0  0  0  0  0  0  0  0  0  0  0  0
   60.1810   33.4710   48.8240 C   0  0  0  0  0  0  0  0  0  0  0  0
   60.8620   33.3460   50.0840 N   0  0  0  0  0  0  0  0  0  0  0  0
   60.2210   33.5270   51.3550 C   0  0  0  0  0  0  0  0  0  0  0  0
   58.9230   33.4620   51.4510 N   0  0  0  0  0  0  0  0  0  0  0  0
   58.2110   33.5800   52.7230 C   0  0  0  0  0  0  0  0  0  0  0  0
   58.9600   34.5080   53.6790 C   0  0  0  0  0  0  0  0  0  0  0  0
   60.4060   34.0290   53.8300 C   0  0  0  0  0  0  0  0  0  0  0  0
   61.0150   33.7940   52.5200 N   0  0  0  0  0  0  0  0  0  0  0  0
   58.9340   32.8570   48.6460 C   0  0  0  0  0  0  0  0  0  0  0  0
   58.2570   32.9720   47.4280 C   0  0  0  0  0  0  0  0  0  0  0  0
   58.1670   30.5620   45.4300 C   0  0  0  0  0  0  0  0  0  0  0  0
   57.6650   29.3040   45.7780 C   0  0  0  0  0  0  0  0  0  0  0  0
   57.6249   26.1388   44.1132 H   0  0  0  0  0  0  0  0  0  0  0  0
   58.2863   25.1613   45.4938 H   0  0  0  0  0  0  0  0  0  0  0  0
   54.7730   25.6020   46.3110 H   0  0  0  0  0  0  0  0  0  0  0  0
   54.7529   29.3605   43.9892 H   0  0  0  0  0  0  0  0  0  0  0  0
   55.6664   31.5850   43.3330 H   0  0  0  0  0  0  0  0  0  0  0  0
   60.5720   34.7892   45.6875 H   0  0  0  0  0  0  0  0  0  0  0  0
   61.7660   34.6029   47.8632 H   0  0  0  0  0  0  0  0  0  0  0  0
   61.8590   33.0350   50.0780 H   0  0  0  0  0  0  0  0  0  0  0  0
   57.2063   33.9876   52.5376 H   0  0  0  0  0  0  0  0  0  0  0  0
   58.1404   32.5828   53.1819 H   0  0  0  0  0  0  0  0  0  0  0  0
   58.9534   35.5316   53.2762 H   0  0  0  0  0  0  0  0  0  0  0  0
   58.4663   34.4965   54.6619 H   0  0  0  0  0  0  0  0  0  0  0  0
   60.9858   34.7955   54.3650 H   0  0  0  0  0  0  0  0  0  0  0  0
   60.4076   33.0847   54.3941 H   0  0  0  0  0  0  0  0  0  0  0  0
   62.0570   33.7690   52.4510 H   0  0  0  0  0  0  0  0  0  0  0  0
   58.4853   32.2814   49.4690 H   0  0  0  0  0  0  0  0  0  0  0  0
   57.2725   32.4973   47.3042 H   0  0  0  0  0  0  0  0  0  0  0  0
   59.1329   30.8984   45.8347 H   0  0  0  0  0  0  0  0  0  0  0  0
   58.2274   28.6622   46.4721 H   0  0  0  0  0  0  0  0  0  0  0  0
  1  2  2  0
  2  3  1  0
  3  4  1  0
  4  5  1  0
  5  6  1  0
  6  7  2  0
  6  8  1  0
  8  9  1  0
  9 10  1  0
  2 11  1  0
 11 12  1  0
 12 13  2  0
 13 14  1  0
 14 15  2  0
 15 16  1  0
 16 17  1  0
 17 18  2  0
 17 19  1  0
 19 20  2  0
 20 21  1  0
 21 22  2  0
 22 23  1  0
 23 24  1  0
 24 25  2  0
 25 26  1  0
 26 27  1  0
 27 28  1  0
 28 29  1  0
 22 30  1  0
 30 31  2  0
 15 32  1  0
 32 33  2  0
  9  4  2  0
 33 12  1  0
 31 19  1  0
 29 24  1  0
  3 34  1  0
  3 35  1  0
 10 36  1  0
 13 37  1  0
 14 38  1  0
 20 39  1  0
 21 40  1  0
 23 41  1  0
 26 42  1  0
 26 43  1  0
 27 44  1  0
 27 45  1  0
 28 46  1  0
 28 47  1  0
 29 48  1  0
 30 49  1  0
 31 50  1  0
 32 51  1  0
 33 52  1  0
M  CHG  4   5  -1   8  -1  11  -1  16  -1
M  END
>  <UniqueID>  (25) 
23

>  <SMILES>  (25) 
O=C(Cc1[n-]c(=O)[n-]c1O)[N-]c1ccc([N-]C(=O)c2ccc(NC3=NCCCN3)cc2)cc1

>  <Energy>  (25) 
96.19271122178105

>  <Genealogy>  (25) 
O=C(Cc1[n-]c(=O)[n-]c1O)[N-]c1ccc([N-]C(=O)c2ccc(NC3=NCCCN3)cc2)cc1 (protonated)
O=C(Cc1[n-]c(=O)[n-]c1O)[N-]c1ccc([N-]C(=O)c2ccc(NC3=NCCCN3)cc2)cc1 (3D coordinates assigned)
O=C(Cc1[n-]c(=O)[n-]c1O)[N-]c1ccc([N-]C(=O)c2ccc(NC3=NCCCN3)cc2)cc1 (nonaromatic ring conformer: 96.19271122178105 kcal/mol)

>  <smiles>  (25) 
O=C(Cc1[nH]c(=O)[nH]c1O)Nc1ccc(NC(=O)c2ccc(NC3=NCCCN3)cc2)cc1

>  <score_type>  (25) 
oracle

>  <origin>  (25) 
adg

>  <m_score__min__energy>  (25) 
-15.18

>  <m_primary>  (25) 
energy

$$$$
25:0
     RDKit          3D

 50 53  0  0  0  0  0  0  0  0999 V2000
   56.2920   30.0010   42.3770 O   0  0  0  0  0  0  0  0  0  0  0  0
   55.9130   29.5210   43.4780 C   0  0  0  0  0  0  0  0  0  0  0  0
   54.5560   29.3370   43.7130 O   0  0  0  0  0  0  0  0  0  0  0  0
   56.8910   29.1540   44.5130 C   0  0  0  0  0  0  0  0  0  0  0  0
   57.3870   27.9140   44.6440 N   0  0  0  0  0  0  0  0  0  0  0  0
   58.2180   27.9420   45.7080 C   0  0  0  0  0  0  0  0  0  0  0  0
   58.6140   26.7810   46.2610 C   0  0  0  0  0  0  0  0  0  0  0  0
   57.6960   25.7600   46.7960 C   0  0  0  0  0  0  0  0  0  0  0  0
   58.1110   24.6310   47.3950 N   0  0  0  0  0  0  0  0  0  0  0  0
   56.9660   23.9420   47.5940 C   0  0  0  0  0  0  0  0  0  0  0  0
   56.9420   22.8180   48.1580 O   0  0  0  0  0  0  0  0  0  0  0  0
   55.8520   24.5480   47.1310 N   0  0  0  0  0  0  0  0  0  0  0  0
   56.3300   25.6930   46.6170 C   0  0  0  0  0  0  0  0  0  0  0  0
   55.5430   26.6390   45.9680 O   0  0  0  0  0  0  0  0  0  0  0  0
   58.3460   29.2550   46.2140 C   0  0  0  0  0  0  0  0  0  0  0  0
   59.2890   29.7780   47.0550 C   0  0  0  0  0  0  0  0  0  0  0  0
   60.7170   30.0020   46.6020 C   0  0  0  0  0  0  0  0  0  0  0  0
   61.6560   30.4660   47.7360 C   0  0  0  0  0  0  0  0  0  0  0  0
   61.0700   31.4720   48.6520 N   0  0  0  0  0  0  0  0  0  0  0  0
   61.4850   33.1080   48.1990 S   0  0  0  0  0  0  0  0  0  0  0  0
   62.6430   33.5730   49.0380 O   0  0  0  0  0  0  0  0  0  0  0  0
   61.8990   33.1300   46.7540 O   0  0  0  0  0  0  0  0  0  0  0  0
   60.1020   34.2180   48.4250 C   0  0  0  0  0  0  0  0  0  0  0  0
   59.2680   34.2810   47.1760 C   0  0  0  0  0  0  0  0  0  0  0  0
   59.7810   34.8720   46.0100 C   0  0  0  0  0  0  0  0  0  0  0  0
   58.9930   34.9570   44.8580 C   0  0  0  0  0  0  0  0  0  0  0  0
   57.6860   34.4610   44.8650 C   0  0  0  0  0  0  0  0  0  0  0  0
   57.1650   33.8830   46.0260 C   0  0  0  0  0  0  0  0  0  0  0  0
   57.9490   33.7950   47.1790 C   0  0  0  0  0  0  0  0  0  0  0  0
   59.6260   31.3360   48.9440 C   0  0  0  0  0  0  0  0  0  0  0  0
   59.0570   29.9760   48.5340 C   0  0  0  0  0  0  0  0  0  0  0  0
   57.4140   29.9860   45.4780 C   0  0  0  0  0  0  0  0  0  0  0  0
   57.0840   31.3280   45.6250 O   0  0  0  0  0  0  0  0  0  0  0  0
   59.6942   26.5809   46.3174 H   0  0  0  0  0  0  0  0  0  0  0  0
   55.9010   27.1440   45.1660 H   0  0  0  0  0  0  0  0  0  0  0  0
   61.1050   29.0574   46.1930 H   0  0  0  0  0  0  0  0  0  0  0  0
   60.6962   30.8044   45.8498 H   0  0  0  0  0  0  0  0  0  0  0  0
   61.9374   29.5842   48.3303 H   0  0  0  0  0  0  0  0  0  0  0  0
   62.5146   30.9517   47.2493 H   0  0  0  0  0  0  0  0  0  0  0  0
   59.4803   33.8569   49.2576 H   0  0  0  0  0  0  0  0  0  0  0  0
   60.4862   35.2244   48.6474 H   0  0  0  0  0  0  0  0  0  0  0  0
   60.8066   35.2696   46.0029 H   0  0  0  0  0  0  0  0  0  0  0  0
   59.4020   35.4147   43.9452 H   0  0  0  0  0  0  0  0  0  0  0  0
   57.0680   34.5256   43.9573 H   0  0  0  0  0  0  0  0  0  0  0  0
   56.1352   33.4964   46.0319 H   0  0  0  0  0  0  0  0  0  0  0  0
   57.5329   33.3440   48.0919 H   0  0  0  0  0  0  0  0  0  0  0  0
   59.4734   31.4679   50.0253 H   0  0  0  0  0  0  0  0  0  0  0  0
   59.0988   32.1028   48.3575 H   0  0  0  0  0  0  0  0  0  0  0  0
   59.5629   29.1783   49.0977 H   0  0  0  0  0  0  0  0  0  0  0  0
   57.9793   29.9405   48.7516 H   0  0  0  0  0  0  0  0  0  0  0  0
  1  2  2  0
  2  3  1  0
  2  4  1  0
  4  5  1  0
  5  6  1  0
  6  7  2  3
  7  8  1  0
  8  9  1  0
  9 10  1  0
 10 11  2  0
 10 12  1  0
 12 13  1  0
 13 14  1  0
  6 15  1  0
 15 16  2  3
 16 17  1  0
 17 18  1  0
 18 19  1  0
 19 20  1  0
 20 21  2  0
 20 22  2  0
 20 23  1  0
 23 24  1  0
 24 25  2  0
 25 26  1  0
 26 27  2  0
 27 28  1  0
 28 29  2  0
 19 30  1  0
 30 31  1  0
 15 32  1  0
 32 33  1  0
 32  4  2  0
 13  8  2  0
 31 16  1  0
 29 24  1  0
  7 34  1  0
 14 35  1  0
 17 36  1  0
 17 37  1  0
 18 38  1  0
 18 39  1  0
 23 40  1  0
 23 41  1  0
 25 42  1  0
 26 43  1  0
 27 44  1  0
 28 45  1  0
 29 46  1  0
 30 47  1  0
 30 48  1  0
 31 49  1  0
 31 50  1  0
M  CHG  5   3  -1   5  -1   9  -1  12  -1  33  -1
M  END
>  <UniqueID>  (26) 
24

>  <SMILES>  (26) 
O=C([O-])c1[n-]c(=Cc2[n-]c(=O)[n-]c2O)c(=C2CCN(S(=O)(=O)Cc3ccccc3)CC2)c1[O-]

>  <Energy>  (26) 
137.93307588048032

>  <Genealogy>  (26) 
O=C([O-])c1[n-]c(=Cc2[n-]c(=O)[n-]c2O)c(=C2CCN(S(=O)(=O)Cc3ccccc3)CC2)c1[O-] (protonated)
O=C([O-])c1[n-]c(=Cc2[n-]c(=O)[n-]c2O)c(=C2CCN(S(=O)(=O)Cc3ccccc3)CC2)c1[O-] (3D coordinates assigned)
O=C([O-])c1[n-]c(=Cc2[n-]c(=O)[n-]c2O)c(=C2CCN(S(=O)(=O)Cc3ccccc3)CC2)c1[O-] (nonaromatic ring conformer: 137.93307588048032 kcal/mol)

>  <smiles>  (26) 
O=C(O)c1[nH]c(=Cc2[nH]c(=O)[nH]c2O)c(=C2CCN(S(=O)(=O)Cc3ccccc3)CC2)c1O

>  <score_type>  (26) 
oracle

>  <origin>  (26) 
adg

>  <m_score__min__energy>  (26) 
-17.920000000000002

>  <m_primary>  (26) 
energy

$$$$
26:0
     RDKit          3D

 49 53  0  0  0  0  0  0  0  0999 V2000
   61.2230   28.5950   45.0950 C   0  0  0  0  0  0  0  0  0  0  0  0
   60.2130   29.0310   46.0640 N   0  0  0  0  0  0  0  0  0  0  0  0
   58.8250   29.0230   45.6790 C   0  0  0  0  0  0  0  0  0  0  0  0
   58.0270   27.8900   45.9160 C   0  0  0  0  0  0  0  0  0  0  0  0
   56.6860   27.8780   45.5220 C   0  0  0  0  0  0  0  0  0  0  0  0
   56.1310   28.9930   44.8880 C   0  0  0  0  0  0  0  0  0  0  0  0
   54.7980   28.9790   44.4960 O   0  0  0  0  0  0  0  0  0  0  0  0
   56.9180   30.1230   44.6470 C   0  0  0  0  0  0  0  0  0  0  0  0
   58.2600   30.1380   45.0380 C   0  0  0  0  0  0  0  0  0  0  0  0
   60.5870   29.3390   47.4280 C   0  0  0  0  0  0  0  0  0  0  0  0
   60.6990   28.3110   48.4050 C   0  0  0  0  0  0  0  0  0  0  0  0
   61.0850   28.6040   49.7250 C   0  0  0  0  0  0  0  0  0  0  0  0
   61.3450   29.9350   50.0460 C   0  0  0  0  0  0  0  0  0  0  0  0
   61.2400   30.9350   49.1170 C   0  0  0  0  0  0  0  0  0  0  0  0
   60.8690   30.6770   47.7980 C   0  0  0  0  0  0  0  0  0  0  0  0
   61.6000   32.1070   49.6780 N   0  0  0  0  0  0  0  0  0  0  0  0
   61.7400   33.4120   49.0290 C   0  0  0  0  0  0  0  0  0  0  0  0
   60.6390   33.6070   48.0380 C   0  0  0  0  0  0  0  0  0  0  0  0
   59.3420   33.3090   48.3160 N   0  0  0  0  0  0  0  0  0  0  0  0
   58.7310   33.5720   47.1520 C   0  0  0  0  0  0  0  0  0  0  0  0
   57.3770   33.4390   46.8510 C   0  0  0  0  0  0  0  0  0  0  0  0
   56.9640   33.7650   45.5450 C   0  0  0  0  0  0  0  0  0  0  0  0
   57.9050   34.2060   44.5870 C   0  0  0  0  0  0  0  0  0  0  0  0
   59.2670   34.3250   44.9280 C   0  0  0  0  0  0  0  0  0  0  0  0
   59.6370   33.9970   46.2300 C   0  0  0  0  0  0  0  0  0  0  0  0
   60.8650   34.0240   46.7650 N   0  0  0  0  0  0  0  0  0  0  0  0
   61.9410   31.7740   50.9480 C   0  0  0  0  0  0  0  0  0  0  0  0
   62.3890   32.6010   51.7890 O   0  0  0  0  0  0  0  0  0  0  0  0
   61.7720   30.4550   51.2150 N   0  0  0  0  0  0  0  0  0  0  0  0
   62.1270   29.7360   52.4350 C   0  0  0  0  0  0  0  0  0  0  0  0
   62.1050   28.2143   45.6309 H   0  0  0  0  0  0  0  0  0  0  0  0
   60.8050   27.7972   44.4635 H   0  0  0  0  0  0  0  0  0  0  0  0
   61.5169   29.4464   44.4635 H   0  0  0  0  0  0  0  0  0  0  0  0
   58.4597   27.0095   46.4135 H   0  0  0  0  0  0  0  0  0  0  0  0
   56.0662   26.9892   45.7113 H   0  0  0  0  0  0  0  0  0  0  0  0
   56.4808   31.0011   44.1492 H   0  0  0  0  0  0  0  0  0  0  0  0
   58.8768   31.0276   44.8427 H   0  0  0  0  0  0  0  0  0  0  0  0
   60.4802   27.2704   48.1234 H   0  0  0  0  0  0  0  0  0  0  0  0
   61.1786   27.8089   50.4793 H   0  0  0  0  0  0  0  0  0  0  0  0
   60.7971   31.4922   47.0630 H   0  0  0  0  0  0  0  0  0  0  0  0
   61.6908   34.2050   49.7898 H   0  0  0  0  0  0  0  0  0  0  0  0
   62.7081   33.4560   48.5086 H   0  0  0  0  0  0  0  0  0  0  0  0
   56.6567   33.0918   47.6065 H   0  0  0  0  0  0  0  0  0  0  0  0
   55.9030   33.6760   45.2687 H   0  0  0  0  0  0  0  0  0  0  0  0
   57.5721   34.4578   43.5693 H   0  0  0  0  0  0  0  0  0  0  0  0
   60.0111   34.6647   44.1925 H   0  0  0  0  0  0  0  0  0  0  0  0
   61.8325   30.3325   53.3110 H   0  0  0  0  0  0  0  0  0  0  0  0
   61.6027   28.7692   52.4566 H   0  0  0  0  0  0  0  0  0  0  0  0
   63.2133   29.5645   52.4566 H   0  0  0  0  0  0  0  0  0  0  0  0
  1  2  1  0
  2  3  1  0
  3  4  2  0
  4  5  1  0
  5  6  2  0
  6  7  1  0
  6  8  1  0
  8  9  2  0
  2 10  1  0
 10 11  2  0
 11 12  1  0
 12 13  2  0
 13 14  1  0
 14 15  2  0
 14 16  1  0
 16 17  1  0
 17 18  1  0
 18 19  2  0
 19 20  1  0
 20 21  2  0
 21 22  1  0
 22 23  2  0
 23 24  1  0
 24 25  2  0
 25 26  1  0
 16 27  1  0
 27 28  2  0
 27 29  1  0
 29 30  1  0
  9  3  1  0
 15 10  1  0
 26 18  1  0
 29 13  1  0
 25 20  1  0
  1 31  1  0
  1 32  1  0
  1 33  1  0
  4 34  1  0
  5 35  1  0
  8 36  1  0
  9 37  1  0
 11 38  1  0
 12 39  1  0
 15 40  1  0
 17 41  1  0
 17 42  1  0
 21 43  1  0
 22 44  1  0
 23 45  1  0
 24 46  1  0
 30 47  1  0
 30 48  1  0
 30 49  1  0
M  CHG  2   7  -1  26  -1
M  END
>  <UniqueID>  (27) 
25

>  <SMILES>  (27) 
CN(c1ccc([O-])cc1)c1ccc2c(c1)n(Cc1nc3ccccc3[n-]1)c(=O)n2C

>  <Energy>  (27) 
136.87118422705353

>  <Genealogy>  (27) 
CN(c1ccc([O-])cc1)c1ccc2c(c1)n(Cc1nc3ccccc3[n-]1)c(=O)n2C (protonated)
CN(c1ccc([O-])cc1)c1ccc2c(c1)n(Cc1nc3ccccc3[n-]1)c(=O)n2C (3D coordinates assigned)
CN(c1ccc([O-])cc1)c1ccc2c(c1)n(Cc1nc3ccccc3[n-]1)c(=O)n2C (optimized conformer: 136.87118422705353 kcal/mol)

>  <smiles>  (27) 
CN(c1ccc(O)cc1)c1ccc2c(c1)n(Cc1nc3ccccc3[nH]1)c(=O)n2C

>  <score_type>  (27) 
oracle

>  <origin>  (27) 
adg

>  <m_score__min__energy>  (27) 
-12.949999999999999

>  <m_primary>  (27) 
energy

$$$$
27:0
     RDKit          3D

 41 43  0  0  0  0  0  0  0  0999 V2000
   56.5760   29.3090   51.5530 H   0  0  0  0  0  0  0  0  0  0  0  0
   57.5600   29.4280   51.7590 O   0  0  0  0  0  0  0  0  0  0  0  0
   58.4530   29.9000   50.7990 C   0  0  0  0  0  0  0  0  0  0  0  0
   59.6360   29.1960   50.5520 C   0  0  0  0  0  0  0  0  0  0  0  0
   59.8613   28.2833   51.1232 H   0  0  0  0  0  0  0  0  0  0  0  0
   60.5320   29.6500   49.5810 C   0  0  0  0  0  0  0  0  0  0  0  0
   61.4574   29.0892   49.3831 H   0  0  0  0  0  0  0  0  0  0  0  0
   60.2550   30.8160   48.8600 C   0  0  0  0  0  0  0  0  0  0  0  0
   60.9553   31.1610   48.0851 H   0  0  0  0  0  0  0  0  0  0  0  0
   59.0830   31.5490   49.1230 C   0  0  0  0  0  0  0  0  0  0  0  0
   58.7390   32.7310   48.3790 N   0  0  0  0  0  0  0  0  0  0  0  0
   58.4090   32.7990   47.1230 C   0  0  0  0  0  0  0  0  0  0  0  0
   58.1770   31.6500   46.4370 N   0  0  0  0  0  0  0  0  0  0  0  0
   57.8190   31.6630   45.1240 C   0  0  0  0  0  0  0  0  0  0  0  0
   57.5760   30.4330   44.4220 N   0  0  0  0  0  0  0  0  0  0  0  0
   57.2680   30.4840   43.4240 H   0  0  0  0  0  0  0  0  0  0  0  0
   57.5430   29.1530   45.0740 C   0  0  0  0  0  0  0  0  0  0  0  0
   58.7280   28.6300   45.6080 C   0  0  0  0  0  0  0  0  0  0  0  0
   59.6661   29.1970   45.5163 H   0  0  0  0  0  0  0  0  0  0  0  0
   58.7250   27.3950   46.2550 C   0  0  0  0  0  0  0  0  0  0  0  0
   59.6583   26.9939   46.6770 H   0  0  0  0  0  0  0  0  0  0  0  0
   57.5400   26.6670   46.3680 C   0  0  0  0  0  0  0  0  0  0  0  0
   57.5462   25.6917   46.8767 H   0  0  0  0  0  0  0  0  0  0  0  0
   56.3430   27.1660   45.8400 C   0  0  0  0  0  0  0  0  0  0  0  0
   55.1600   26.3660   45.9820 N   0  0  0  0  0  0  0  0  0  0  0  0
   55.0740   24.6380   45.8420 S   0  0  0  0  0  0  0  0  0  0  0  0
   55.5460   24.0300   47.1310 O   0  0  0  0  0  0  0  0  0  0  0  0
   53.6570   24.2070   45.5910 O   0  0  0  0  0  0  0  0  0  0  0  0
   56.1400   24.0630   44.5350 C   0  0  0  0  0  0  0  0  0  0  0  0
   57.0288   23.5836   44.9710 H   0  0  0  0  0  0  0  0  0  0  0  0
   55.5982   23.3348   43.9136 H   0  0  0  0  0  0  0  0  0  0  0  0
   56.4510   24.9157   43.9136 H   0  0  0  0  0  0  0  0  0  0  0  0
   56.3360   28.4430   45.2350 C   0  0  0  0  0  0  0  0  0  0  0  0
   55.1390   29.0350   44.8510 O   0  0  0  0  0  0  0  0  0  0  0  0
   57.6580   32.8880   44.4710 C   0  0  0  0  0  0  0  0  0  0  0  0
   57.3577   32.9253   43.4135 H   0  0  0  0  0  0  0  0  0  0  0  0
   57.8860   34.0620   45.1880 C   0  0  0  0  0  0  0  0  0  0  0  0
   57.7687   35.0390   44.6963 H   0  0  0  0  0  0  0  0  0  0  0  0
   58.2530   33.9980   46.4940 N   0  0  0  0  0  0  0  0  0  0  0  0
   58.1740   31.0680   50.0760 C   0  0  0  0  0  0  0  0  0  0  0  0
   57.2349   31.6113   50.2576 H   0  0  0  0  0  0  0  0  0  0  0  0
  1  2  1  0
  2  3  1  0
  3  4  2  0
  4  5  1  0
  4  6  1  0
  6  7  1  0
  6  8  2  0
  8  9  1  0
  8 10  1  0
 10 11  1  0
 11 12  2  0
 12 13  1  0
 13 14  2  0
 14 15  1  0
 15 16  1  0
 15 17  1  0
 17 18  2  0
 18 19  1  0
 18 20  1  0
 20 21  1  0
 20 22  2  0
 22 23  1  0
 22 24  1  0
 24 25  1  0
 25 26  1  0
 26 27  2  0
 26 28  2  0
 26 29  1  0
 29 30  1  0
 29 31  1  0
 29 32  1  0
 24 33  2  0
 33 34  1  0
 14 35  1  0
 35 36  1  0
 35 37  2  0
 37 38  1  0
 37 39  1  0
 10 40  2  0
 40 41  1  0
 40  3  1  0
 39 12  1  0
 33 17  1  0
M  CHG  3  25  -1  34  -1  39  -1
M  END
>  <UniqueID>  (28) 
26

>  <SMILES>  (28) 
CS(=O)(=O)[N-]c1cccc(Nc2cc[n-]/c(=N\c3cccc(O)c3)n2)c1[O-]

>  <Energy>  (28) 
57.73176760082388

>  <Genealogy>  (28) 
CS(=O)(=O)[N-]c1cccc(Nc2cc[n-]c(=Nc3cccc(O)c3)n2)c1[O-] (protonated)
CS(=O)(=O)[N-]c1cccc(Nc2cc[n-]/c(=N\c3cccc(O)c3)n2)c1[O-] (cis-trans isomerization)
CS(=O)(=O)[N-]c1cccc(Nc2cc[n-]/c(=N\c3cccc(O)c3)n2)c1[O-] (3D coordinates assigned)
CS(=O)(=O)[N-]c1cccc(Nc2cc[n-]/c(=N\c3cccc(O)c3)n2)c1[O-] (optimized conformer: 57.73176760082388 kcal/mol)

>  <smiles>  (28) 
CS(=O)(=O)Nc1cccc(Nc2cc[nH]c(=Nc3cccc(O)c3)n2)c1O

>  <score_type>  (28) 
oracle

>  <origin>  (28) 
adg

>  <m_score__min__energy>  (28) 
-15.93

>  <m_primary>  (28) 
energy

$$$$
28:0
     RDKit          3D

 34 36  0  0  0  0  0  0  0  0999 V2000
   57.1550   30.5910   44.0260 C   0  0  0  0  0  0  0  0  0  0  0  0
   57.8210   30.1530   45.1080 C   0  0  0  0  0  0  0  0  0  0  0  0
   57.8180   28.8510   45.6360 C   0  0  0  0  0  0  0  0  0  0  0  0
   57.3400   27.6940   45.1350 C   0  0  0  0  0  0  0  0  0  0  0  0
   57.1820   26.4320   45.8860 C   0  0  0  0  0  0  0  0  0  0  0  0
   55.9130   25.9690   46.2780 C   0  0  0  0  0  0  0  0  0  0  0  0
   54.7690   26.7070   45.9970 O   0  0  0  0  0  0  0  0  0  0  0  0
   55.7980   24.7840   46.9300 N   0  0  0  0  0  0  0  0  0  0  0  0
   56.8890   24.0230   47.2000 C   0  0  0  0  0  0  0  0  0  0  0  0
   56.7580   22.9300   47.8100 O   0  0  0  0  0  0  0  0  0  0  0  0
   58.1210   24.4360   46.8060 N   0  0  0  0  0  0  0  0  0  0  0  0
   58.2900   25.6140   46.1510 C   0  0  0  0  0  0  0  0  0  0  0  0
   59.4480   25.9630   45.7950 O   0  0  0  0  0  0  0  0  0  0  0  0
   58.4480   28.9290   46.8660 C   0  0  0  0  0  0  0  0  0  0  0  0
   58.8610   30.2360   47.0230 C   0  0  0  0  0  0  0  0  0  0  0  0
   59.6030   30.7550   48.2170 C   0  0  0  0  0  0  0  0  0  0  0  0
   58.4920   30.9780   45.9550 N   0  0  0  0  0  0  0  0  0  0  0  0
   58.7490   32.3850   45.7940 C   0  0  0  0  0  0  0  0  0  0  0  0
   57.7610   33.2360   45.2750 C   0  0  0  0  0  0  0  0  0  0  0  0
   58.0450   34.5940   45.1060 C   0  0  0  0  0  0  0  0  0  0  0  0
   59.3070   35.0860   45.4460 C   0  0  0  0  0  0  0  0  0  0  0  0
   60.2700   34.2090   45.9470 C   0  0  0  0  0  0  0  0  0  0  0  0
   59.9750   32.8910   46.1050 N   0  0  0  0  0  0  0  0  0  0  0  0
   57.2423   31.6424   43.7147 H   0  0  0  0  0  0  0  0  0  0  0  0
   56.5226   29.8981   43.4517 H   0  0  0  0  0  0  0  0  0  0  0  0
   57.0422   27.6896   44.0761 H   0  0  0  0  0  0  0  0  0  0  0  0
   58.5919   28.1061   47.5816 H   0  0  0  0  0  0  0  0  0  0  0  0
   59.1074   30.4084   49.1358 H   0  0  0  0  0  0  0  0  0  0  0  0
   60.6379   30.3828   48.1958 H   0  0  0  0  0  0  0  0  0  0  0  0
   59.6083   31.8548   48.1958 H   0  0  0  0  0  0  0  0  0  0  0  0
   56.7721   32.8378   45.0037 H   0  0  0  0  0  0  0  0  0  0  0  0
   57.2772   35.2729   44.7066 H   0  0  0  0  0  0  0  0  0  0  0  0
   59.5396   36.1537   45.3202 H   0  0  0  0  0  0  0  0  0  0  0  0
   61.2688   34.5843   46.2144 H   0  0  0  0  0  0  0  0  0  0  0  0
  1  2  2  0
  2  3  1  0
  3  4  2  3
  4  5  1  0
  5  6  2  0
  6  7  1  0
  6  8  1  0
  8  9  1  0
  9 10  2  0
  9 11  1  0
 11 12  1  0
 12 13  2  0
  3 14  1  0
 14 15  2  0
 15 16  1  0
 15 17  1  0
 17 18  1  0
 18 19  2  0
 19 20  1  0
 20 21  2  0
 21 22  1  0
 22 23  2  0
 17  2  1  0
 23 18  1  0
 12  5  1  0
  1 24  1  0
  1 25  1  0
  4 26  1  0
 14 27  1  0
 16 28  1  0
 16 29  1  0
 16 30  1  0
 19 31  1  0
 20 32  1  0
 21 33  1  0
 22 34  1  0
M  CHG  3   7  -1   8  -1  11  -1
M  END
>  <UniqueID>  (29) 
27

>  <SMILES>  (29) 
C=c1c(=Cc2c([O-])[n-]c(=O)[n-]c2=O)cc(C)n1-c1ccccn1

>  <Energy>  (29) 
86.24268458116954

>  <Genealogy>  (29) 
C=c1c(=Cc2c([O-])[n-]c(=O)[n-]c2=O)cc(C)n1-c1ccccn1 (protonated)
C=c1c(=Cc2c([O-])[n-]c(=O)[n-]c2=O)cc(C)n1-c1ccccn1 (3D coordinates assigned)
C=c1c(=Cc2c([O-])[n-]c(=O)[n-]c2=O)cc(C)n1-c1ccccn1 (optimized conformer: 86.24268458116954 kcal/mol)

>  <smiles>  (29) 
C=c1c(=Cc2c(O)[nH]c(=O)[nH]c2=O)cc(C)n1-c1ccccn1

>  <score_type>  (29) 
oracle

>  <origin>  (29) 
adg

>  <m_score__min__energy>  (29) 
-15.119999999999999

>  <m_primary>  (29) 
energy

$$$$
29:0
     RDKit          3D

 48 51  0  0  0  0  0  0  0  0999 V2000
   56.4690   29.6200   44.3800 C   0  0  0  0  0  0  0  0  0  0  0  0
   57.6710   29.1640   44.7650 C   0  0  0  0  0  0  0  0  0  0  0  0
   58.1250   27.8330   44.7480 C   0  0  0  0  0  0  0  0  0  0  0  0
   57.4770   26.6780   44.4960 C   0  0  0  0  0  0  0  0  0  0  0  0
   56.9960   25.7260   45.5080 C   0  0  0  0  0  0  0  0  0  0  0  0
   57.7560   24.7470   46.0290 N   0  0  0  0  0  0  0  0  0  0  0  0
   56.9680   24.2190   46.9920 C   0  0  0  0  0  0  0  0  0  0  0  0
   57.3300   23.2490   47.7060 O   0  0  0  0  0  0  0  0  0  0  0  0
   55.7680   24.8200   47.1350 N   0  0  0  0  0  0  0  0  0  0  0  0
   55.8070   25.7820   46.1990 C   0  0  0  0  0  0  0  0  0  0  0  0
   54.7910   26.7070   46.0000 O   0  0  0  0  0  0  0  0  0  0  0  0
   59.4710   27.8780   45.0750 C   0  0  0  0  0  0  0  0  0  0  0  0
   59.7790   29.1990   45.3280 C   0  0  0  0  0  0  0  0  0  0  0  0
   61.1270   29.6980   45.7470 C   0  0  0  0  0  0  0  0  0  0  0  0
   58.6890   29.9770   45.1510 N   0  0  0  0  0  0  0  0  0  0  0  0
   58.6620   31.4080   45.2760 C   0  0  0  0  0  0  0  0  0  0  0  0
   58.0040   32.1820   44.3110 C   0  0  0  0  0  0  0  0  0  0  0  0
   57.9620   33.5710   44.4340 C   0  0  0  0  0  0  0  0  0  0  0  0
   58.5830   34.1990   45.5160 C   0  0  0  0  0  0  0  0  0  0  0  0
   59.2580   33.4400   46.4870 C   0  0  0  0  0  0  0  0  0  0  0  0
   59.9250   34.1190   47.6220 C   0  0  0  0  0  0  0  0  0  0  0  0
   59.2850   34.9740   48.2930 O   0  0  0  0  0  0  0  0  0  0  0  0
   61.2870   33.8160   47.9740 N   0  0  0  0  0  0  0  0  0  0  0  0
   62.3320   33.8450   46.9450 C   0  0  0  0  0  0  0  0  0  0  0  0
   63.4900   32.9350   47.3650 C   0  0  0  0  0  0  0  0  0  0  0  0
   63.9420   33.2650   48.6650 O   0  0  0  0  0  0  0  0  0  0  0  0
   62.9190   33.0030   49.6090 C   0  0  0  0  0  0  0  0  0  0  0  0
   61.7110   33.9170   49.3720 C   0  0  0  0  0  0  0  0  0  0  0  0
   59.2730   32.0370   46.3730 C   0  0  0  0  0  0  0  0  0  0  0  0
   59.8450   31.2730   47.3410 F   0  0  0  0  0  0  0  0  0  0  0  0
   56.2415   30.6942   44.4456 H   0  0  0  0  0  0  0  0  0  0  0  0
   55.7113   28.9196   43.9988 H   0  0  0  0  0  0  0  0  0  0  0  0
   57.2920   26.4258   43.4414 H   0  0  0  0  0  0  0  0  0  0  0  0
   60.1620   27.0235   45.1236 H   0  0  0  0  0  0  0  0  0  0  0  0
   61.1849   29.7194   46.8453 H   0  0  0  0  0  0  0  0  0  0  0  0
   61.9050   29.0283   45.3518 H   0  0  0  0  0  0  0  0  0  0  0  0
   61.2814   30.7129   45.3518 H   0  0  0  0  0  0  0  0  0  0  0  0
   57.5189   31.6927   43.4535 H   0  0  0  0  0  0  0  0  0  0  0  0
   57.4384   34.1732   43.6769 H   0  0  0  0  0  0  0  0  0  0  0  0
   58.5434   35.2944   45.6086 H   0  0  0  0  0  0  0  0  0  0  0  0
   61.9158   33.4913   45.9902 H   0  0  0  0  0  0  0  0  0  0  0  0
   62.7003   34.8747   46.8264 H   0  0  0  0  0  0  0  0  0  0  0  0
   63.1485   31.8894   47.3565 H   0  0  0  0  0  0  0  0  0  0  0  0
   64.3209   33.0720   46.6573 H   0  0  0  0  0  0  0  0  0  0  0  0
   62.6014   31.9541   49.5146 H   0  0  0  0  0  0  0  0  0  0  0  0
   63.3132   33.1948   50.6179 H   0  0  0  0  0  0  0  0  0  0  0  0
   60.8841   33.6089   50.0288 H   0  0  0  0  0  0  0  0  0  0  0  0
   61.9899   34.9573   49.5955 H   0  0  0  0  0  0  0  0  0  0  0  0
  1  2  2  0
  2  3  1  0
  3  4  2  3
  4  5  1  0
  5  6  1  0
  6  7  1  0
  7  8  2  0
  7  9  1  0
  9 10  1  0
 10 11  1  0
  3 12  1  0
 12 13  2  0
 13 14  1  0
 13 15  1  0
 15 16  1  0
 16 17  2  0
 17 18  1  0
 18 19  2  0
 19 20  1  0
 20 21  1  0
 21 22  2  0
 21 23  1  0
 23 24  1  0
 24 25  1  0
 25 26  1  0
 26 27  1  0
 27 28  1  0
 20 29  2  0
 29 30  1  0
 15  2  1  0
 29 16  1  0
 10  5  2  0
 28 23  1  0
  1 31  1  0
  1 32  1  0
  4 33  1  0
 12 34  1  0
 14 35  1  0
 14 36  1  0
 14 37  1  0
 17 38  1  0
 18 39  1  0
 19 40  1  0
 24 41  1  0
 24 42  1  0
 25 43  1  0
 25 44  1  0
 27 45  1  0
 27 46  1  0
 28 47  1  0
 28 48  1  0
M  CHG  3   6  -1   9  -1  11  -1
M  END
>  <UniqueID>  (30) 
28

>  <SMILES>  (30) 
C=c1c(=Cc2[n-]c(=O)[n-]c2[O-])cc(C)n1-c1cccc(C(=O)N2CCOCC2)c1F

>  <Energy>  (30) 
133.30499074912555

>  <Genealogy>  (30) 
C=c1c(=Cc2[n-]c(=O)[n-]c2[O-])cc(C)n1-c1cccc(C(=O)N2CCOCC2)c1F (protonated)
C=c1c(=Cc2[n-]c(=O)[n-]c2[O-])cc(C)n1-c1cccc(C(=O)N2CCOCC2)c1F (3D coordinates assigned)
C=c1c(=Cc2[n-]c(=O)[n-]c2[O-])cc(C)n1-c1cccc(C(=O)N2CCOCC2)c1F (nonaromatic ring conformer: 133.30499074912555 kcal/mol)

>  <smiles>  (30) 
C=c1c(=Cc2[nH]c(=O)[nH]c2O)cc(C)n1-c1cccc(C(=O)N2CCOCC2)c1F

>  <score_type>  (30) 
oracle

>  <origin>  (30) 
adg

>  <m_score__min__energy>  (30) 
-16.719999999999999

>  <m_primary>  (30) 
energy

$$$$
30:0
     RDKit          3D

 64 67  0  0  0  0  0  0  0  0999 V2000
   56.3900   25.4700   45.9720 C   0  0  0  0  0  0  0  0  0  0  0  0
   57.0710   26.7550   46.0730 N   0  0  0  0  0  0  0  0  0  0  0  0
   58.2990   26.9060   46.7940 C   0  0  0  0  0  0  0  0  0  0  0  0
   58.8540   25.8960   47.3040 O   0  0  0  0  0  0  0  0  0  0  0  0
   58.8760   28.2550   46.9990 C   0  0  0  0  0  0  0  0  0  0  0  0
   58.8900   28.7690   48.3090 C   0  0  0  0  0  0  0  0  0  0  0  0
   59.4300   30.0270   48.5790 C   0  0  0  0  0  0  0  0  0  0  0  0
   59.9540   30.7980   47.5440 C   0  0  0  0  0  0  0  0  0  0  0  0
   59.9390   30.3140   46.2370 C   0  0  0  0  0  0  0  0  0  0  0  0
   59.4140   29.0400   45.9420 C   0  0  0  0  0  0  0  0  0  0  0  0
   59.4130   28.6080   44.4870 C   0  0  0  0  0  0  0  0  0  0  0  0
   58.0570   28.1850   44.0790 N   0  0  0  0  0  0  0  0  0  0  0  0
   58.1340   27.0750   43.1130 C   0  0  0  0  0  0  0  0  0  0  0  0
   57.2600   29.3070   43.5310 C   0  0  0  0  0  0  0  0  0  0  0  0
   56.2210   29.7460   44.5210 C   0  0  0  0  0  0  0  0  0  0  0  0
   55.5350   28.8720   45.1170 O   0  0  0  0  0  0  0  0  0  0  0  0
   56.0440   31.1360   44.8200 N   0  0  0  0  0  0  0  0  0  0  0  0
   57.0710   32.1370   44.8050 C   0  0  0  0  0  0  0  0  0  0  0  0
   57.7670   32.4650   43.6280 C   0  0  0  0  0  0  0  0  0  0  0  0
   58.8050   33.4000   43.6630 C   0  0  0  0  0  0  0  0  0  0  0  0
   59.1670   34.0030   44.8690 C   0  0  0  0  0  0  0  0  0  0  0  0
   58.4920   33.6770   46.0550 C   0  0  0  0  0  0  0  0  0  0  0  0
   58.8670   34.3300   47.3610 C   0  0  0  0  0  0  0  0  0  0  0  0
   60.2980   34.0150   47.7210 C   0  0  0  0  0  0  0  0  0  0  0  0
   61.2420   34.1880   46.7550 N   0  0  0  0  0  0  0  0  0  0  0  0
   62.5240   33.8810   46.9520 N   0  0  0  0  0  0  0  0  0  0  0  0
   62.9600   33.3680   48.1280 C   0  0  0  0  0  0  0  0  0  0  0  0
   64.1790   33.0750   48.2620 O   0  0  0  0  0  0  0  0  0  0  0  0
   62.0480   33.1660   49.1740 C   0  0  0  0  0  0  0  0  0  0  0  0
   60.6960   33.4970   48.9780 C   0  0  0  0  0  0  0  0  0  0  0  0
   59.7400   33.2200   50.1200 C   0  0  0  0  0  0  0  0  0  0  0  0
   60.3460   33.6790   51.4570 C   0  0  0  0  0  0  0  0  0  0  0  0
   61.8100   33.2260   51.6830 C   0  0  0  0  0  0  0  0  0  0  0  0
   62.4560   32.5200   50.4780 C   0  0  0  0  0  0  0  0  0  0  0  0
   57.4480   32.7350   46.0150 C   0  0  0  0  0  0  0  0  0  0  0  0
   56.1851   25.0833   46.9812 H   0  0  0  0  0  0  0  0  0  0  0  0
   55.4419   25.5991   45.4293 H   0  0  0  0  0  0  0  0  0  0  0  0
   57.0291   24.7580   45.4293 H   0  0  0  0  0  0  0  0  0  0  0  0
   56.6420   27.5860   45.6030 H   0  0  0  0  0  0  0  0  0  0  0  0
   58.4696   28.1711   49.1311 H   0  0  0  0  0  0  0  0  0  0  0  0
   59.4419   30.4102   49.6100 H   0  0  0  0  0  0  0  0  0  0  0  0
   60.3799   31.7893   47.7582 H   0  0  0  0  0  0  0  0  0  0  0  0
   60.3428   30.9354   45.4241 H   0  0  0  0  0  0  0  0  0  0  0  0
   59.7349   29.4509   43.8579 H   0  0  0  0  0  0  0  0  0  0  0  0
   60.1042   27.7611   44.3645 H   0  0  0  0  0  0  0  0  0  0  0  0
   58.2002   26.1205   43.6558 H   0  0  0  0  0  0  0  0  0  0  0  0
   57.2336   27.0758   42.4811 H   0  0  0  0  0  0  0  0  0  0  0  0
   59.0256   27.2001   42.4811 H   0  0  0  0  0  0  0  0  0  0  0  0
   57.9287   30.1518   43.3094 H   0  0  0  0  0  0  0  0  0  0  0  0
   56.7568   28.9708   42.6124 H   0  0  0  0  0  0  0  0  0  0  0  0
   57.4936   31.9843   42.6771 H   0  0  0  0  0  0  0  0  0  0  0  0
   59.3385   33.6617   42.7373 H   0  0  0  0  0  0  0  0  0  0  0  0
   59.9856   34.7375   44.8895 H   0  0  0  0  0  0  0  0  0  0  0  0
   58.7494   35.4197   47.2672 H   0  0  0  0  0  0  0  0  0  0  0  0
   58.2088   33.9428   48.1528 H   0  0  0  0  0  0  0  0  0  0  0  0
   58.7997   33.7629   49.9440 H   0  0  0  0  0  0  0  0  0  0  0  0
   59.5510   32.1375   50.1695 H   0  0  0  0  0  0  0  0  0  0  0  0
   60.3168   34.7781   51.4891 H   0  0  0  0  0  0  0  0  0  0  0  0
   59.7457   33.2117   52.2515 H   0  0  0  0  0  0  0  0  0  0  0  0
   62.4112   34.1156   51.9221 H   0  0  0  0  0  0  0  0  0  0  0  0
   61.7855   32.4891   52.4994 H   0  0  0  0  0  0  0  0  0  0  0  0
   63.5503   32.5737   50.5766 H   0  0  0  0  0  0  0  0  0  0  0  0
   62.1149   31.4743   50.4669 H   0  0  0  0  0  0  0  0  0  0  0  0
   56.9223   32.4651   46.9428 H   0  0  0  0  0  0  0  0  0  0  0  0
  1  2  1  0
  2  3  1  0
  3  4  2  0
  3  5  1  0
  5  6  2  0
  6  7  1  0
  7  8  2  0
  8  9  1  0
  9 10  2  0
 10 11  1  0
 11 12  1  0
 12 13  1  0
 12 14  1  0
 14 15  1  0
 15 16  2  0
 15 17  1  0
 17 18  1  0
 18 19  2  0
 19 20  1  0
 20 21  2  0
 21 22  1  0
 22 23  1  0
 23 24  1  0
 24 25  2  0
 25 26  1  0
 26 27  1  0
 27 28  2  0
 27 29  1  0
 29 30  2  0
 30 31  1  0
 31 32  1  0
 32 33  1  0
 33 34  1  0
 22 35  2  0
 10  5  1  0
 35 18  1  0
 30 24  1  0
 34 29  1  0
  1 36  1  0
  1 37  1  0
  1 38  1  0
  2 39  1  0
  6 40  1  0
  7 41  1  0
  8 42  1  0
  9 43  1  0
 11 44  1  0
 11 45  1  0
 13 46  1  0
 13 47  1  0
 13 48  1  0
 14 49  1  0
 14 50  1  0
 19 51  1  0
 20 52  1  0
 21 53  1  0
 23 54  1  0
 23 55  1  0
 31 56  1  0
 31 57  1  0
 32 58  1  0
 32 59  1  0
 33 60  1  0
 33 61  1  0
 34 62  1  0
 34 63  1  0
 35 64  1  0
M  CHG  2  17  -1  26  -1
M  END
>  <UniqueID>  (31) 
29

>  <SMILES>  (31) 
CNC(=O)c1ccccc1CN(C)CC(=O)[N-]c1cccc(Cc2n[n-]c(=O)c3c2CCCC3)c1

>  <Energy>  (31) 
84.5962393085756

>  <Genealogy>  (31) 
CNC(=O)c1ccccc1CN(C)CC(=O)[N-]c1cccc(Cc2n[n-]c(=O)c3c2CCCC3)c1 (protonated)
CNC(=O)c1ccccc1CN(C)CC(=O)[N-]c1cccc(Cc2n[n-]c(=O)c3c2CCCC3)c1 (3D coordinates assigned)
CNC(=O)c1ccccc1CN(C)CC(=O)[N-]c1cccc(Cc2n[n-]c(=O)c3c2CCCC3)c1 (nonaromatic ring conformer: 84.5962393085756 kcal/mol)

>  <smiles>  (31) 
CNC(=O)c1ccccc1CN(C)CC(=O)Nc1cccc(Cc2n[nH]c(=O)c3c2CCCC3)c1

>  <score_type>  (31) 
oracle

>  <origin>  (31) 
adg

>  <m_score__min__energy>  (31) 
-14.31

>  <m_primary>  (31) 
energy

$$$$
31:0
     RDKit          3D

 39 41  0  0  0  0  0  0  0  0999 V2000
   53.6430   22.2370   44.5550 H   0  0  0  0  0  0  0  0  0  0  0  0
   53.8770   23.0780   45.0700 O   0  0  0  0  0  0  0  0  0  0  0  0
   55.1600   23.6260   45.0520 C   0  0  0  0  0  0  0  0  0  0  0  0
   55.4180   24.7630   45.8270 C   0  0  0  0  0  0  0  0  0  0  0  0
   54.6155   25.1992   46.4400 H   0  0  0  0  0  0  0  0  0  0  0  0
   56.6910   25.3500   45.8280 C   0  0  0  0  0  0  0  0  0  0  0  0
   56.9820   26.5020   46.6280 N   0  0  0  0  0  0  0  0  0  0  0  0
   58.2890   26.9800   46.9750 C   0  0  0  0  0  0  0  0  0  0  0  0
   58.8910   26.4430   47.9430 O   0  0  0  0  0  0  0  0  0  0  0  0
   58.9950   28.0460   46.1810 C   0  0  0  0  0  0  0  0  0  0  0  0
   58.8338   29.0192   46.6677 H   0  0  0  0  0  0  0  0  0  0  0  0
   60.0657   27.7964   46.1463 H   0  0  0  0  0  0  0  0  0  0  0  0
   58.3720   28.1310   44.4640 S   0  0  0  0  0  0  0  0  0  0  0  0
   57.6440   29.7570   44.6470 C   0  0  0  0  0  0  0  0  0  0  0  0
   56.3120   29.9770   44.6920 N   0  0  0  0  0  0  0  0  0  0  0  0
   56.0010   31.2650   44.8260 N   0  0  0  0  0  0  0  0  0  0  0  0
   57.0900   32.0660   44.8740 C   0  0  0  0  0  0  0  0  0  0  0  0
   57.0430   33.3550   45.0330 N   0  0  0  0  0  0  0  0  0  0  0  0
   58.1250   34.1660   45.5100 C   0  0  0  0  0  0  0  0  0  0  0  0
   58.4800   35.1640   44.8290 O   0  0  0  0  0  0  0  0  0  0  0  0
   58.7830   33.9080   46.8070 C   0  0  0  0  0  0  0  0  0  0  0  0
   58.3540   32.7160   47.9160 S   0  0  0  0  0  0  0  0  0  0  0  0
   59.4800   33.1380   49.0910 C   0  0  0  0  0  0  0  0  0  0  0  0
   59.6232   32.6325   50.0574 H   0  0  0  0  0  0  0  0  0  0  0  0
   60.1980   34.2340   48.6320 C   0  0  0  0  0  0  0  0  0  0  0  0
   60.9997   34.7140   49.2125 H   0  0  0  0  0  0  0  0  0  0  0  0
   59.8060   34.6710   47.3610 C   0  0  0  0  0  0  0  0  0  0  0  0
   60.2618   35.5324   46.8509 H   0  0  0  0  0  0  0  0  0  0  0  0
   58.5210   31.1910   44.7690 S   0  0  0  0  0  0  0  0  0  0  0  0
   57.7200   24.7600   45.0870 C   0  0  0  0  0  0  0  0  0  0  0  0
   58.7319   25.1903   45.1180 H   0  0  0  0  0  0  0  0  0  0  0  0
   57.4710   23.6280   44.3080 C   0  0  0  0  0  0  0  0  0  0  0  0
   58.2830   23.1837   43.7137 H   0  0  0  0  0  0  0  0  0  0  0  0
   56.1860   23.0520   44.2790 C   0  0  0  0  0  0  0  0  0  0  0  0
   55.8970   21.9170   43.5040 O   0  0  0  0  0  0  0  0  0  0  0  0
   56.8780   21.0290   42.9780 C   0  0  0  0  0  0  0  0  0  0  0  0
   57.4146   20.5432   43.8063 H   0  0  0  0  0  0  0  0  0  0  0  0
   56.3859   20.2630   42.3607 H   0  0  0  0  0  0  0  0  0  0  0  0
   57.5913   21.5947   42.3607 H   0  0  0  0  0  0  0  0  0  0  0  0
  1  2  1  0
  2  3  1  0
  3  4  2  0
  4  5  1  0
  4  6  1  0
  6  7  1  0
  7  8  1  0
  8  9  2  0
  8 10  1  0
 10 11  1  0
 10 12  1  0
 10 13  1  0
 13 14  1  0
 14 15  2  0
 15 16  1  0
 16 17  1  0
 17 18  2  0
 18 19  1  0
 19 20  2  0
 19 21  1  0
 21 22  1  0
 22 23  1  0
 23 24  1  0
 23 25  2  0
 25 26  1  0
 25 27  1  0
 27 28  1  0
 17 29  1  0
  6 30  2  0
 30 31  1  0
 30 32  1  0
 32 33  1  0
 32 34  2  0
 34 35  1  0
 35 36  1  0
 36 37  1  0
 36 38  1  0
 36 39  1  0
 34  3  1  0
 29 14  1  0
 27 21  2  0
M  CHG  2   7  -1  16  -1
M  END
>  <UniqueID>  (32) 
30

>  <SMILES>  (32) 
COc1ccc([N-]C(=O)CSc2n[n-]/c(=N\C(=O)c3cccs3)s2)cc1O

>  <Energy>  (32) 
108.51989396810455

>  <Genealogy>  (32) 
COc1ccc([N-]C(=O)CSc2n[n-]c(=NC(=O)c3cccs3)s2)cc1O (protonated)
COc1ccc([N-]C(=O)CSc2n[n-]/c(=N\C(=O)c3cccs3)s2)cc1O (cis-trans isomerization)
COc1ccc([N-]C(=O)CSc2n[n-]/c(=N\C(=O)c3cccs3)s2)cc1O (3D coordinates assigned)
COc1ccc([N-]C(=O)CSc2n[n-]/c(=N\C(=O)c3cccs3)s2)cc1O (optimized conformer: 108.51989396810455 kcal/mol)

>  <smiles>  (32) 
COc1ccc(NC(=O)CSc2n[nH]c(=NC(=O)c3cccs3)s2)cc1O

>  <score_type>  (32) 
oracle

>  <origin>  (32) 
adg

>  <m_score__min__energy>  (32) 
-11.210000000000001

>  <m_primary>  (32) 
energy

$$$$
32:0
     RDKit          3D

 42 44  0  0  0  0  0  0  0  0999 V2000
   59.2240   26.5490   46.6140 C   0  0  0  0  0  0  0  0  0  0  0  0
   59.2350   27.9990   47.0170 C   0  0  0  0  0  0  0  0  0  0  0  0
   60.2120   28.4360   47.9280 C   0  0  0  0  0  0  0  0  0  0  0  0
   60.3010   29.7910   48.2950 C   0  0  0  0  0  0  0  0  0  0  0  0
   61.3290   30.2350   49.2030 N   0  0  0  0  0  0  0  0  0  0  0  0
   61.9240   31.4520   48.7070 C   0  0  0  0  0  0  0  0  0  0  0  0
   62.8010   31.4210   47.6060 C   0  0  0  0  0  0  0  0  0  0  0  0
   63.3670   32.6050   47.1200 C   0  0  0  0  0  0  0  0  0  0  0  0
   63.0570   33.8280   47.7200 C   0  0  0  0  0  0  0  0  0  0  0  0
   62.1740   33.8720   48.8030 C   0  0  0  0  0  0  0  0  0  0  0  0
   61.6070   32.6920   49.2950 C   0  0  0  0  0  0  0  0  0  0  0  0
   59.4080   30.7140   47.7300 C   0  0  0  0  0  0  0  0  0  0  0  0
   58.4220   30.2880   46.8390 C   0  0  0  0  0  0  0  0  0  0  0  0
   58.3030   28.9340   46.5010 C   0  0  0  0  0  0  0  0  0  0  0  0
   57.2610   28.5580   45.5910 N   0  0  0  0  0  0  0  0  0  0  0  0
   56.4280   29.4810   44.8770 C   0  0  0  0  0  0  0  0  0  0  0  0
   55.1730   29.3420   44.8790 O   0  0  0  0  0  0  0  0  0  0  0  0
   57.0290   30.6720   44.1960 C   0  0  0  0  0  0  0  0  0  0  0  0
   56.6450   31.8890   44.8380 O   0  0  0  0  0  0  0  0  0  0  0  0
   57.5550   32.8660   45.2610 C   0  0  0  0  0  0  0  0  0  0  0  0
   58.5040   33.4530   44.4400 C   0  0  0  0  0  0  0  0  0  0  0  0
   59.2940   34.3990   45.1090 C   0  0  0  0  0  0  0  0  0  0  0  0
   58.9660   34.5530   46.4520 C   0  0  0  0  0  0  0  0  0  0  0  0
   57.6920   33.5110   46.8140 S   0  0  0  0  0  0  0  0  0  0  0  0
   59.2192   25.9180   47.5150 H   0  0  0  0  0  0  0  0  0  0  0  0
   58.3243   26.3414   46.0162 H   0  0  0  0  0  0  0  0  0  0  0  0
   60.1205   26.3278   46.0162 H   0  0  0  0  0  0  0  0  0  0  0  0
   60.9160   27.7092   48.3595 H   0  0  0  0  0  0  0  0  0  0  0  0
   62.0570   29.4880   49.3060 H   0  0  0  0  0  0  0  0  0  0  0  0
   60.9270   30.4000   50.1570 H   0  0  0  0  0  0  0  0  0  0  0  0
   63.0425   30.4614   47.1255 H   0  0  0  0  0  0  0  0  0  0  0  0
   64.0572   32.5727   46.2641 H   0  0  0  0  0  0  0  0  0  0  0  0
   63.5079   34.7567   47.3401 H   0  0  0  0  0  0  0  0  0  0  0  0
   61.9247   34.8367   49.2691 H   0  0  0  0  0  0  0  0  0  0  0  0
   60.9102   32.7325   50.1452 H   0  0  0  0  0  0  0  0  0  0  0  0
   59.4855   31.7798   47.9909 H   0  0  0  0  0  0  0  0  0  0  0  0
   57.7319   31.0224   46.3981 H   0  0  0  0  0  0  0  0  0  0  0  0
   58.1252   30.5839   44.2224 H   0  0  0  0  0  0  0  0  0  0  0  0
   56.6641   30.6980   43.1586 H   0  0  0  0  0  0  0  0  0  0  0  0
   58.6251   33.2034   43.3756 H   0  0  0  0  0  0  0  0  0  0  0  0
   60.0981   34.9664   44.6176 H   0  0  0  0  0  0  0  0  0  0  0  0
   59.4557   35.2393   47.1586 H   0  0  0  0  0  0  0  0  0  0  0  0
  1  2  1  0
  2  3  2  0
  3  4  1  0
  4  5  1  0
  5  6  1  0
  6  7  2  0
  7  8  1  0
  8  9  2  0
  9 10  1  0
 10 11  2  0
  4 12  2  0
 12 13  1  0
 13 14  2  0
 14 15  1  0
 15 16  1  0
 16 17  2  0
 16 18  1  0
 18 19  1  0
 19 20  1  0
 20 21  2  0
 21 22  1  0
 22 23  2  0
 23 24  1  0
 14  2  1  0
 24 20  1  0
 11  6  1  0
  1 25  1  0
  1 26  1  0
  1 27  1  0
  3 28  1  0
  5 29  1  0
  5 30  1  0
  7 31  1  0
  8 32  1  0
  9 33  1  0
 10 34  1  0
 11 35  1  0
 12 36  1  0
 13 37  1  0
 18 38  1  0
 18 39  1  0
 21 40  1  0
 22 41  1  0
 23 42  1  0
M  CHG  2   5   1  15  -1
M  END
>  <UniqueID>  (33) 
31

>  <SMILES>  (33) 
Cc1cc([NH2+]c2ccccc2)ccc1[N-]C(=O)COc1cccs1

>  <Energy>  (33) 
76.9595190453775

>  <Genealogy>  (33) 
Cc1cc([NH2+]c2ccccc2)ccc1[N-]C(=O)COc1cccs1 (protonated)
Cc1cc([NH2+]c2ccccc2)ccc1[N-]C(=O)COc1cccs1 (3D coordinates assigned)
Cc1cc([NH2+]c2ccccc2)ccc1[N-]C(=O)COc1cccs1 (optimized conformer: 76.9595190453775 kcal/mol)

>  <smiles>  (33) 
Cc1cc(Nc2ccccc2)ccc1NC(=O)COc1cccs1

>  <score_type>  (33) 
oracle

>  <origin>  (33) 
adg

>  <m_score__min__energy>  (33) 
-8.0399999999999991

>  <m_primary>  (33) 
energy

$$$$
33:0
     RDKit          3D

 48 50  0  0  0  0  0  0  0  0999 V2000
   60.7598   29.8829   47.6942 H   0  0  0  0  0  0  0  0  0  0  0  0
   60.9160   30.9550   47.5040 C   0  0  0  0  0  0  0  0  0  0  0  0
   59.8520   31.7570   47.2400 N   0  0  0  0  0  0  0  0  0  0  0  0
   59.9880   33.0910   47.0080 C   0  0  0  0  0  0  0  0  0  0  0  0
   58.9150   33.7820   46.7450 N   0  0  0  0  0  0  0  0  0  0  0  0
   58.3890   34.1080   45.4490 C   0  0  0  0  0  0  0  0  0  0  0  0
   58.6740   35.2040   44.8960 O   0  0  0  0  0  0  0  0  0  0  0  0
   57.5100   33.1240   44.7430 C   0  0  0  0  0  0  0  0  0  0  0  0
   56.4577   33.3412   44.9785 H   0  0  0  0  0  0  0  0  0  0  0  0
   57.6745   33.2063   43.6585 H   0  0  0  0  0  0  0  0  0  0  0  0
   57.8320   31.7660   45.1750 N   0  0  0  0  0  0  0  0  0  0  0  0
   58.4610   31.6300   46.0000 H   0  0  0  0  0  0  0  0  0  0  0  0
   57.2440   30.6140   44.5530 C   0  0  0  0  0  0  0  0  0  0  0  0
   56.3430   30.7630   43.6820 O   0  0  0  0  0  0  0  0  0  0  0  0
   57.6590   29.2500   44.9540 C   0  0  0  0  0  0  0  0  0  0  0  0
   59.0210   28.9110   45.0200 C   0  0  0  0  0  0  0  0  0  0  0  0
   59.7858   29.6757   44.8190 H   0  0  0  0  0  0  0  0  0  0  0  0
   59.4090   27.6060   45.3400 C   0  0  0  0  0  0  0  0  0  0  0  0
   60.4772   27.3480   45.3893 H   0  0  0  0  0  0  0  0  0  0  0  0
   58.4450   26.6300   45.5970 C   0  0  0  0  0  0  0  0  0  0  0  0
   58.7550   25.5999   45.8268 H   0  0  0  0  0  0  0  0  0  0  0  0
   57.0830   26.9590   45.5630 C   0  0  0  0  0  0  0  0  0  0  0  0
   55.8720   25.7190   45.8830 S   0  0  0  0  0  0  0  0  0  0  0  0
   56.2030   25.0490   47.1870 O   0  0  0  0  0  0  0  0  0  0  0  0
   54.5010   26.3240   46.0030 O   0  0  0  0  0  0  0  0  0  0  0  0
   55.8770   24.5290   44.6180 N   0  0  0  0  0  0  0  0  0  0  0  0
   56.8690   23.5090   44.4330 C   0  0  0  0  0  0  0  0  0  0  0  0
   58.0480   23.4640   45.2000 C   0  0  0  0  0  0  0  0  0  0  0  0
   58.2400   24.2403   45.9553 H   0  0  0  0  0  0  0  0  0  0  0  0
   58.9760   22.4370   45.0060 C   0  0  0  0  0  0  0  0  0  0  0  0
   59.8834   22.3934   45.6262 H   0  0  0  0  0  0  0  0  0  0  0  0
   58.7550   21.4680   44.0290 C   0  0  0  0  0  0  0  0  0  0  0  0
   59.4937   20.6688   43.8690 H   0  0  0  0  0  0  0  0  0  0  0  0
   57.5940   21.5130   43.2530 C   0  0  0  0  0  0  0  0  0  0  0  0
   57.4206   20.7495   42.4804 H   0  0  0  0  0  0  0  0  0  0  0  0
   56.6520   22.5260   43.4560 C   0  0  0  0  0  0  0  0  0  0  0  0
   55.5180   22.5440   42.7110 F   0  0  0  0  0  0  0  0  0  0  0  0
   56.6960   28.2720   45.2600 C   0  0  0  0  0  0  0  0  0  0  0  0
   55.6291   28.5397   45.2616 H   0  0  0  0  0  0  0  0  0  0  0  0
   61.2800   33.6600   47.0200 C   0  0  0  0  0  0  0  0  0  0  0  0
   61.4122   34.7351   46.8287 H   0  0  0  0  0  0  0  0  0  0  0  0
   62.3940   32.8480   47.2770 C   0  0  0  0  0  0  0  0  0  0  0  0
   63.7710   33.4430   47.3020 C   0  0  0  0  0  0  0  0  0  0  0  0
   64.0917   33.5816   48.3451 H   0  0  0  0  0  0  0  0  0  0  0  0
   64.4717   32.7674   46.7896 H   0  0  0  0  0  0  0  0  0  0  0  0
   63.7592   34.4163   46.7896 H   0  0  0  0  0  0  0  0  0  0  0  0
   62.2060   31.4850   47.5350 C   0  0  0  0  0  0  0  0  0  0  0  0
   63.0669   30.8383   47.7599 H   0  0  0  0  0  0  0  0  0  0  0  0
  1  2  1  0
  2  3  1  0
  3  4  1  0
  4  5  2  0
  5  6  1  0
  6  7  2  0
  6  8  1  0
  8  9  1  0
  8 10  1  0
  8 11  1  0
 11 12  1  0
 11 13  1  0
 13 14  2  0
 13 15  1  0
 15 16  2  0
 16 17  1  0
 16 18  1  0
 18 19  1  0
 18 20  2  0
 20 21  1  0
 20 22  1  0
 22 23  1  0
 23 24  2  0
 23 25  2  0
 23 26  1  0
 26 27  1  0
 27 28  2  0
 28 29  1  0
 28 30  1  0
 30 31  1  0
 30 32  2  0
 32 33  1  0
 32 34  1  0
 34 35  1  0
 34 36  2  0
 36 37  1  0
 22 38  2  0
 38 39  1  0
  4 40  1  0
 40 41  1  0
 40 42  2  0
 42 43  1  0
 43 44  1  0
 43 45  1  0
 43 46  1  0
 42 47  1  0
 47 48  1  0
 47  2  2  0
 38 15  1  0
 36 27  1  0
M  CHG  2   3  -1  26  -1
M  END
>  <UniqueID>  (34) 
32

>  <SMILES>  (34) 
Cc1cc[n-]/c(=N/C(=O)CNC(=O)c2cccc(S(=O)(=O)[N-]c3ccccc3F)c2)c1

>  <Energy>  (34) 
59.68129500022124

>  <Genealogy>  (34) 
Cc1cc[n-]c(=NC(=O)CNC(=O)c2cccc(S(=O)(=O)[N-]c3ccccc3F)c2)c1 (protonated)
Cc1cc[n-]/c(=N/C(=O)CNC(=O)c2cccc(S(=O)(=O)[N-]c3ccccc3F)c2)c1 (cis-trans isomerization)
Cc1cc[n-]/c(=N/C(=O)CNC(=O)c2cccc(S(=O)(=O)[N-]c3ccccc3F)c2)c1 (3D coordinates assigned)
Cc1cc[n-]/c(=N/C(=O)CNC(=O)c2cccc(S(=O)(=O)[N-]c3ccccc3F)c2)c1 (optimized conformer: 59.68129500022124 kcal/mol)

>  <smiles>  (34) 
Cc1cc[nH]c(=NC(=O)CNC(=O)c2cccc(S(=O)(=O)Nc3ccccc3F)c2)c1

>  <score_type>  (34) 
oracle

>  <origin>  (34) 
adg

>  <m_score__min__energy>  (34) 
-12.17

>  <m_primary>  (34) 
energy

$$$$
34:0
     RDKit          3D

 69 71  0  0  0  0  0  0  0  0999 V2000
   52.9320   24.3385   46.5668 H   0  0  0  0  0  0  0  0  0  0  0  0
   52.7320   23.7960   45.6310 C   0  0  0  0  0  0  0  0  0  0  0  0
   51.6870   22.9370   45.5940 C   0  0  0  0  0  0  0  0  0  0  0  0
   50.4600   23.2290   44.7610 C   0  0  0  0  0  0  0  0  0  0  0  0
   49.6063   23.4322   45.4243 H   0  0  0  0  0  0  0  0  0  0  0  0
   50.6483   24.1074   44.1262 H   0  0  0  0  0  0  0  0  0  0  0  0
   50.2324   22.3599   44.1262 H   0  0  0  0  0  0  0  0  0  0  0  0
   51.7290   21.6570   46.4090 C   0  0  0  0  0  0  0  0  0  0  0  0
   51.4095   21.8812   47.4374 H   0  0  0  0  0  0  0  0  0  0  0  0
   51.0566   20.9297   45.9305 H   0  0  0  0  0  0  0  0  0  0  0  0
   53.1360   21.0420   46.4510 C   0  0  0  0  0  0  0  0  0  0  0  0
   53.0417   19.9488   46.5287 H   0  0  0  0  0  0  0  0  0  0  0  0
   53.6588   21.3365   45.5291 H   0  0  0  0  0  0  0  0  0  0  0  0
   53.9490   21.5440   47.6230 C   0  0  0  0  0  0  0  0  0  0  0  0
   53.4333   21.7301   48.5766 H   0  0  0  0  0  0  0  0  0  0  0  0
   55.2790   21.7750   47.5550 C   0  0  0  0  0  0  0  0  0  0  0  0
   56.1500   20.7870   46.8190 C   0  0  0  0  0  0  0  0  0  0  0  0
   56.6962   20.1674   47.5455 H   0  0  0  0  0  0  0  0  0  0  0  0
   55.5207   20.1427   46.1875 H   0  0  0  0  0  0  0  0  0  0  0  0
   56.8681   21.3306   46.1875 H   0  0  0  0  0  0  0  0  0  0  0  0
   55.9020   22.9880   48.2070 C   0  0  0  0  0  0  0  0  0  0  0  0
   55.8487   22.8843   49.3008 H   0  0  0  0  0  0  0  0  0  0  0  0
   56.9543   23.0709   47.8973 H   0  0  0  0  0  0  0  0  0  0  0  0
   55.3564   23.8916   47.8973 H   0  0  0  0  0  0  0  0  0  0  0  0
   53.6350   24.0440   44.4490 C   0  0  0  0  0  0  0  0  0  0  0  0
   53.2857   24.9381   43.9118 H   0  0  0  0  0  0  0  0  0  0  0  0
   53.6023   23.1610   43.7939 H   0  0  0  0  0  0  0  0  0  0  0  0
   55.0670   24.2610   44.8910 C   0  0  0  0  0  0  0  0  0  0  0  0
   55.3970   25.4110   45.6360 C   0  0  0  0  0  0  0  0  0  0  0  0
   54.4080   26.3290   45.9820 O   0  0  0  0  0  0  0  0  0  0  0  0
   56.7220   25.6410   46.0340 C   0  0  0  0  0  0  0  0  0  0  0  0
   57.0780   26.8890   46.7350 C   0  0  0  0  0  0  0  0  0  0  0  0
   56.7885   26.9727   47.7929 H   0  0  0  0  0  0  0  0  0  0  0  0
   57.7310   27.9400   46.1860 C   0  0  0  0  0  0  0  0  0  0  0  0
   56.9940   28.8560   45.2990 C   0  0  0  0  0  0  0  0  0  0  0  0
   55.7880   28.6370   44.9990 O   0  0  0  0  0  0  0  0  0  0  0  0
   57.6310   29.9490   44.7240 O   0  0  0  0  0  0  0  0  0  0  0  0
   58.8990   30.4640   45.1240 C   0  0  1  0  0  0  0  0  0  0  0  0
   59.3447   30.7652   44.1645 H   0  0  0  0  0  0  0  0  0  0  0  0
   58.7420   31.5870   46.0960 C   0  0  0  0  0  0  0  0  0  0  0  0
   57.9280   32.4860   45.9490 O   0  0  0  0  0  0  0  0  0  0  0  0
   59.7160   31.5570   47.2140 C   0  0  0  0  0  0  0  0  0  0  0  0
   60.4024   32.4155   47.1717 H   0  0  0  0  0  0  0  0  0  0  0  0
   59.2553   31.6179   48.2110 H   0  0  0  0  0  0  0  0  0  0  0  0
   60.4290   30.2790   46.9540 C   0  0  0  0  0  0  0  0  0  0  0  0
   61.3920   29.9230   47.6200 O   0  0  0  0  0  0  0  0  0  0  0  0
   59.8530   29.4540   45.8270 C   0  0  2  0  0  0  0  0  0  0  0  0
   60.9590   28.9910   44.8620 C   0  0  0  0  0  0  0  0  0  0  0  0
   61.8223   28.6296   45.4400 H   0  0  0  0  0  0  0  0  0  0  0  0
   60.5758   28.1778   44.2281 H   0  0  0  0  0  0  0  0  0  0  0  0
   61.2694   29.8347   44.2281 H   0  0  0  0  0  0  0  0  0  0  0  0
   59.1630   28.2460   46.4400 C   0  0  0  0  0  0  0  0  0  0  0  0
   59.8440   27.5040   47.1990 O   0  0  0  0  0  0  0  0  0  0  0  0
   57.7260   24.7370   45.6640 C   0  0  0  0  0  0  0  0  0  0  0  0
   58.7713   24.9447   45.9363 H   0  0  0  0  0  0  0  0  0  0  0  0
   57.4150   23.5710   44.9510 C   0  0  0  0  0  0  0  0  0  0  0  0
   58.5320   22.6460   44.5330 C   0  0  0  0  0  0  0  0  0  0  0  0
   58.6981   22.7461   43.4502 H   0  0  0  0  0  0  0  0  0  0  0  0
   58.2479   21.6126   44.7806 H   0  0  0  0  0  0  0  0  0  0  0  0
   59.8210   22.9920   45.2720 C   0  0  0  0  0  0  0  0  0  0  0  0
   59.6456   22.9449   46.3569 H   0  0  0  0  0  0  0  0  0  0  0  0
   60.6063   22.2728   44.9960 H   0  0  0  0  0  0  0  0  0  0  0  0
   60.1406   24.0077   44.9960 H   0  0  0  0  0  0  0  0  0  0  0  0
   56.0770   23.3250   44.5720 C   0  0  0  0  0  0  0  0  0  0  0  0
   55.7620   22.1650   43.8550 O   0  0  0  0  0  0  0  0  0  0  0  0
   56.3130   21.9110   42.5670 C   0  0  0  0  0  0  0  0  0  0  0  0
   57.3069   21.4528   42.6773 H   0  0  0  0  0  0  0  0  0  0  0  0
   55.6529   21.2263   42.0143 H   0  0  0  0  0  0  0  0  0  0  0  0
   56.4049   22.8576   42.0143 H   0  0  0  0  0  0  0  0  0  0  0  0
  1  2  1  0
  2  3  2  3
  3  4  1  0
  4  5  1  0
  4  6  1  0
  4  7  1  0
  3  8  1  0
  8  9  1  0
  8 10  1  0
  8 11  1  0
 11 12  1  0
 11 13  1  0
 11 14  1  0
 14 15  1  0
 14 16  2  3
 16 17  1  0
 17 18  1  0
 17 19  1  0
 17 20  1  0
 16 21  1  0
 21 22  1  0
 21 23  1  0
 21 24  1  0
  2 25  1  0
 25 26  1  0
 25 27  1  0
 25 28  1  0
 28 29  2  0
 29 30  1  0
 29 31  1  0
 31 32  1  0
 32 33  1  0
 32 34  2  0
 34 35  1  0
 35 36  2  0
 35 37  1  0
 37 38  1  0
 38 39  1  6
 38 40  1  0
 40 41  2  0
 40 42  1  0
 42 43  1  0
 42 44  1  0
 42 45  1  0
 45 46  2  0
 45 47  1  0
 47 48  1  6
 48 49  1  0
 48 50  1  0
 48 51  1  0
 47 52  1  0
 52 53  2  0
 31 54  2  0
 54 55  1  0
 54 56  1  0
 56 57  1  0
 57 58  1  0
 57 59  1  0
 57 60  1  0
 60 61  1  0
 60 62  1  0
 60 63  1  0
 56 64  2  0
 64 65  1  0
 65 66  1  0
 66 67  1  0
 66 68  1  0
 66 69  1  0
 64 28  1  0
 52 34  1  0
 47 38  1  0
M  CHG  1  30  -1
M  END
>  <UniqueID>  (35) 
33

>  <SMILES>  (35) 
CCc1cc(/C=C2/C(=O)O[C@H]3C(=O)CC(=O)[C@@]3(C)C2=O)c([O-])c(CC=C(C)CCC=C(C)C)c1OC

>  <Energy>  (35) 
80.23910579787417

>  <Genealogy>  (35) 
CCc1cc(C=C2C(=O)OC3C(=O)CC(=O)C3(C)C2=O)c([O-])c(CC=C(C)CCC=C(C)C)c1OC (protonated)
CCc1cc(C=C2C(=O)O[C@H]3C(=O)CC(=O)[C@@]3(C)C2=O)c([O-])c(CC=C(C)CCC=C(C)C)c1OC (chirality)
CCc1cc(/C=C2/C(=O)O[C@H]3C(=O)CC(=O)[C@@]3(C)C2=O)c([O-])c(CC=C(C)CCC=C(C)C)c1OC (cis-trans isomerization)
CCc1cc(/C=C2/C(=O)O[C@H]3C(=O)CC(=O)[C@@]3(C)C2=O)c([O-])c(CC=C(C)CCC=C(C)C)c1OC (3D coordinates assigned)
CCc1cc(/C=C2/C(=O)O[C@H]3C(=O)CC(=O)[C@@]3(C)C2=O)c([O-])c(CC=C(C)CCC=C(C)C)c1OC (nonaromatic ring conformer: 80.23910579787417 kcal/mol)

>  <smiles>  (35) 
CCc1cc(C=C2C(=O)OC3C(=O)CC(=O)C3(C)C2=O)c(O)c(CC=C(C)CCC=C(C)C)c1OC

>  <score_type>  (35) 
oracle

>  <origin>  (35) 
adg

>  <m_score__min__energy>  (35) 
-12.130000000000001

>  <m_primary>  (35) 
energy

$$$$
35:0
     RDKit          3D

 69 72  0  0  1  0  0  0  0  0999 V2000
   61.6920   33.8530   50.7130 C   0  0  0  0  0  0  0  0  0  0  0  0
   60.4430   34.2120   50.0350 C   0  0  0  0  0  0  0  0  0  0  0  0
   59.3490   34.0310   50.6430 O   0  0  0  0  0  0  0  0  0  0  0  0
   60.3600   34.7590   48.7260 N   0  0  0  0  0  0  0  0  0  0  0  0
   59.5780   34.2520   47.8340 C   0  0  0  0  0  0  0  0  0  0  0  0
   59.6140   34.7760   46.5410 C   0  0  0  0  0  0  0  0  0  0  0  0
   58.7730   34.2400   45.5620 C   0  0  0  0  0  0  0  0  0  0  0  0
   57.9430   33.2060   45.9400 C   0  0  0  0  0  0  0  0  0  0  0  0
   56.9970   32.5470   44.9830 C   0  0  0  0  0  0  0  0  0  0  0  0
   57.7570   32.1840   43.7000 C   0  0  0  0  0  0  0  0  0  0  0  0
   59.4360   29.2130   47.4350 N   0  0  0  0  0  0  0  0  0  0  0  0
   58.6930   29.1190   46.4150 C   0  0  0  0  0  0  0  0  0  0  0  0
   57.0450   28.8010   44.2560 N   0  0  0  0  0  0  0  0  0  0  0  0
   57.0750   27.8630   45.2120 C   0  0  0  0  0  0  0  0  0  0  0  0
   57.8900   28.0070   46.2910 C   0  0  0  0  0  0  0  0  0  0  0  0
   57.8910   27.0390   47.2300 F   0  0  0  0  0  0  0  0  0  0  0  0
   57.8360   29.8780   44.3970 C   0  0  0  0  0  0  0  0  0  0  0  0
   57.8080   30.7690   43.4920 N   0  0  0  0  0  0  0  0  0  0  0  0
   60.0040   30.4160   47.9950 C   0  0  2  0  0  0  0  0  0  0  0  0
   61.5120   30.2120   47.7550 C   0  0  0  0  0  0  0  0  0  0  0  0
   62.2910   31.4370   47.7140 C   0  0  0  0  0  0  0  0  0  0  0  0
   63.3260   31.7010   48.6000 C   0  0  0  0  0  0  0  0  0  0  0  0
   64.0160   32.8770   48.5280 C   0  0  0  0  0  0  0  0  0  0  0  0
   63.7470   33.8650   47.5980 C   0  0  0  0  0  0  0  0  0  0  0  0
   62.7180   33.6080   46.7130 C   0  0  0  0  0  0  0  0  0  0  0  0
   62.0100   32.4310   46.7670 C   0  0  0  0  0  0  0  0  0  0  0  0
   59.8790   30.4680   49.4990 C   0  0  0  0  0  0  0  0  0  0  0  0
   60.1850   31.5310   50.0300 O   0  0  0  0  0  0  0  0  0  0  0  0
   59.4250   29.2960   50.1720 N   0  0  0  0  0  0  0  0  0  0  0  0
   59.2540   29.1870   51.5720 C   0  0  0  0  0  0  0  0  0  0  0  0
   60.0480   28.3810   52.3480 C   0  0  0  0  0  0  0  0  0  0  0  0
   59.8980   28.2640   53.7360 C   0  0  0  0  0  0  0  0  0  0  0  0
   58.9150   28.9870   54.3430 C   0  0  0  0  0  0  0  0  0  0  0  0
   58.1250   29.7900   53.5660 C   0  0  0  0  0  0  0  0  0  0  0  0
   58.2630   29.9160   52.1810 C   0  0  0  0  0  0  0  0  0  0  0  0
   57.3400   30.8190   51.5320 C   0  0  0  0  0  0  0  0  0  0  0  0
   56.0760   30.5570   51.5760 O   0  0  0  0  0  0  0  0  0  0  0  0
   57.6300   31.9690   50.8430 O   0  0  0  0  0  0  0  0  0  0  0  0
   58.6580   30.0650   45.4440 N   0  0  0  0  0  0  0  0  0  0  0  0
   57.9390   32.7150   47.2330 C   0  0  0  0  0  0  0  0  0  0  0  0
   58.7530   33.2410   48.1650 N   0  0  0  0  0  0  0  0  0  0  0  0
   61.5434   33.8957   51.8021 H   0  0  0  0  0  0  0  0  0  0  0  0
   61.9868   32.8337   50.4229 H   0  0  0  0  0  0  0  0  0  0  0  0
   62.4831   34.5601   50.4229 H   0  0  0  0  0  0  0  0  0  0  0  0
   60.2972   35.6023   46.2950 H   0  0  0  0  0  0  0  0  0  0  0  0
   58.7732   34.6271   44.5324 H   0  0  0  0  0  0  0  0  0  0  0  0
   56.5868   31.6341   45.4396 H   0  0  0  0  0  0  0  0  0  0  0  0
   56.1713   33.2335   44.7444 H   0  0  0  0  0  0  0  0  0  0  0  0
   57.2508   32.6514   42.8425 H   0  0  0  0  0  0  0  0  0  0  0  0
   58.7891   32.5512   43.7998 H   0  0  0  0  0  0  0  0  0  0  0  0
   56.4200   28.7240   43.3980 H   0  0  0  0  0  0  0  0  0  0  0  0
   56.4368   26.9714   45.1237 H   0  0  0  0  0  0  0  0  0  0  0  0
   59.5237   31.3062   47.5628 H   0  0  0  0  0  0  0  0  0  0  0  0
   61.9060   29.5824   48.5664 H   0  0  0  0  0  0  0  0  0  0  0  0
   61.6088   29.7488   46.7620 H   0  0  0  0  0  0  0  0  0  0  0  0
   63.5924   30.9575   49.3657 H   0  0  0  0  0  0  0  0  0  0  0  0
   64.8296   33.0479   49.2483 H   0  0  0  0  0  0  0  0  0  0  0  0
   64.3205   34.8031   47.5650 H   0  0  0  0  0  0  0  0  0  0  0  0
   62.4605   34.3587   45.9513 H   0  0  0  0  0  0  0  0  0  0  0  0
   61.1976   32.2642   46.0444 H   0  0  0  0  0  0  0  0  0  0  0  0
   59.2360   28.4880   49.5410 H   0  0  0  0  0  0  0  0  0  0  0  0
   60.8410   27.7983   51.8564 H   0  0  0  0  0  0  0  0  0  0  0  0
   60.5568   27.6054   54.3210 H   0  0  0  0  0  0  0  0  0  0  0  0
   58.7605   28.9266   55.4304 H   0  0  0  0  0  0  0  0  0  0  0  0
   57.3335   30.3714   54.0615 H   0  0  0  0  0  0  0  0  0  0  0  0
   58.5000   32.4960   50.9710 H   0  0  0  0  0  0  0  0  0  0  0  0
   59.2540   30.9190   45.5070 H   0  0  0  0  0  0  0  0  0  0  0  0
   57.2649   31.8881   47.5009 H   0  0  0  0  0  0  0  0  0  0  0  0
   58.7170   32.8390   49.1300 H   0  0  0  0  0  0  0  0  0  0  0  0
  1  2  1  0
  2  3  2  0
  2  4  1  0
  4  5  2  0
  5  6  1  0
  6  7  2  0
  7  8  1  0
  8  9  1  0
  9 10  1  0
 10 11  1  0
 11 12  2  0
 12 13  1  0
 13 14  1  0
 14 15  2  0
 15 16  1  0
 15 17  1  0
 17 18  2  0
 18 19  1  0
 19 20  1  0
 20 21  1  0
 21 22  2  0
 22 23  1  0
 23 24  2  0
 24 25  1  0
 25 26  2  0
 19 27  1  0
 27 28  2  0
 27 29  1  0
 29 30  1  0
 30 31  2  0
 31 32  1  0
 32 33  2  0
 33 34  1  0
 34 35  2  0
 35 36  1  0
 36 37  2  0
 36 38  1  0
 17 39  1  0
  8 40  2  0
 40 41  1  0
 41  5  1  0
 39 12  1  0
 26 21  1  0
 35 30  1  0
  1 42  1  0
  1 43  1  0
  1 44  1  0
  6 45  1  0
  7 46  1  0
  9 47  1  0
  9 48  1  0
 10 49  1  0
 10 50  1  0
 13 51  1  0
 14 52  1  0
 19 53  1  6
 20 54  1  0
 20 55  1  0
 22 56  1  0
 23 57  1  0
 24 58  1  0
 25 59  1  0
 26 60  1  0
 29 61  1  0
 31 62  1  0
 32 63  1  0
 33 64  1  0
 34 65  1  0
 38 66  1  0
 39 67  1  0
 40 68  1  0
 41 69  1  0
M  END
>  <smiles>  (36) 
CC(=O)N=c1ccc(CCN=c2[nH]cc(F)c(=NC(Cc3ccccc3)C(=O)Nc3ccccc3C(=O)O)[nH]2)c[nH]1

>  <score_type>  (36) 
oracle

>  <origin>  (36) 
adg

>  <m_score__min__energy>  (36) 
-10.33

>  <m_primary>  (36) 
energy

$$$$
36:0
     RDKit          3D

 53 55  0  0  0  0  0  0  0  0999 V2000
   60.6050   30.1540   48.9570 C   0  0  0  0  0  0  0  0  0  0  0  0
   59.3980   30.6630   49.6820 C   0  0  0  0  0  0  0  0  0  0  0  0
   58.6440   29.9420   50.5860 C   0  0  0  0  0  0  0  0  0  0  0  0
   57.7020   30.8510   51.0230 C   0  0  0  0  0  0  0  0  0  0  0  0
   56.7820   30.5880   51.9020 N   0  0  0  0  0  0  0  0  0  0  0  0
   56.7680   29.4630   52.7950 C   0  0  0  0  0  0  0  0  0  0  0  0
   57.8360   29.0190   53.2990 O   0  0  0  0  0  0  0  0  0  0  0  0
   55.4660   28.8120   53.1360 C   0  0  0  0  0  0  0  0  0  0  0  0
   54.3200   29.6480   52.6330 C   0  0  0  0  0  0  0  0  0  0  0  0
   54.0210   29.6910   51.2640 C   0  0  0  0  0  0  0  0  0  0  0  0
   52.9800   30.4960   50.7930 C   0  0  0  0  0  0  0  0  0  0  0  0
   52.2260   31.2800   51.6840 C   0  0  0  0  0  0  0  0  0  0  0  0
   51.1290   32.1410   51.1880 C   0  0  0  0  0  0  0  0  0  0  0  0
   50.9740   32.3320   49.9520 O   0  0  0  0  0  0  0  0  0  0  0  0
   50.2610   32.7580   52.0810 O   0  0  0  0  0  0  0  0  0  0  0  0
   52.5360   31.2420   53.0540 C   0  0  0  0  0  0  0  0  0  0  0  0
   53.5750   30.4350   53.5250 C   0  0  0  0  0  0  0  0  0  0  0  0
   57.8840   32.0510   50.4350 N   0  0  0  0  0  0  0  0  0  0  0  0
   58.9210   31.9280   49.6200 N   0  0  0  0  0  0  0  0  0  0  0  0
   59.4620   33.0420   48.8410 C   0  0  0  0  0  0  0  0  0  0  0  0
   58.8900   33.0350   47.4480 C   0  0  0  0  0  0  0  0  0  0  0  0
   58.8880   34.2140   46.6820 C   0  0  0  0  0  0  0  0  0  0  0  0
   58.3870   34.2040   45.3790 C   0  0  0  0  0  0  0  0  0  0  0  0
   57.8910   33.0200   44.8260 C   0  0  0  0  0  0  0  0  0  0  0  0
   57.9100   31.8280   45.5700 C   0  0  0  0  0  0  0  0  0  0  0  0
   57.4010   30.5660   44.9900 C   0  0  0  0  0  0  0  0  0  0  0  0
   56.1690   30.4690   44.7380 O   0  0  0  0  0  0  0  0  0  0  0  0
   58.2680   29.4410   44.7340 N   0  0  0  0  0  0  0  0  0  0  0  0
   57.8580   28.4360   43.7520 C   0  0  0  0  0  0  0  0  0  0  0  0
   59.4690   29.2220   45.5480 C   0  0  0  0  0  0  0  0  0  0  0  0
   58.3900   31.8480   46.8890 C   0  0  0  0  0  0  0  0  0  0  0  0
   61.3633   29.8342   49.6868 H   0  0  0  0  0  0  0  0  0  0  0  0
   60.3202   29.2993   48.3258 H   0  0  0  0  0  0  0  0  0  0  0  0
   61.0182   30.9545   48.3258 H   0  0  0  0  0  0  0  0  0  0  0  0
   58.7654   28.8910   50.8870 H   0  0  0  0  0  0  0  0  0  0  0  0
   55.4233   27.8175   52.6679 H   0  0  0  0  0  0  0  0  0  0  0  0
   55.3879   28.7160   54.2290 H   0  0  0  0  0  0  0  0  0  0  0  0
   54.6090   29.0878   50.5566 H   0  0  0  0  0  0  0  0  0  0  0  0
   52.7490   30.5163   49.7177 H   0  0  0  0  0  0  0  0  0  0  0  0
   51.9559   31.8526   53.7616 H   0  0  0  0  0  0  0  0  0  0  0  0
   53.8100   30.4164   54.5994 H   0  0  0  0  0  0  0  0  0  0  0  0
   59.2018   33.9898   49.3349 H   0  0  0  0  0  0  0  0  0  0  0  0
   60.5551   32.9361   48.7784 H   0  0  0  0  0  0  0  0  0  0  0  0
   59.2824   35.1471   47.1107 H   0  0  0  0  0  0  0  0  0  0  0  0
   58.3826   35.1304   44.7859 H   0  0  0  0  0  0  0  0  0  0  0  0
   57.4840   33.0213   43.8040 H   0  0  0  0  0  0  0  0  0  0  0  0
   57.4925   27.5400   44.2751 H   0  0  0  0  0  0  0  0  0  0  0  0
   57.0551   28.8456   43.1215 H   0  0  0  0  0  0  0  0  0  0  0  0
   58.7183   28.1671   43.1215 H   0  0  0  0  0  0  0  0  0  0  0  0
   59.2031   29.2705   46.6143 H   0  0  0  0  0  0  0  0  0  0  0  0
   59.8910   28.2321   45.3200 H   0  0  0  0  0  0  0  0  0  0  0  0
   60.2132   29.9992   45.3200 H   0  0  0  0  0  0  0  0  0  0  0  0
   58.3743   30.9264   47.4894 H   0  0  0  0  0  0  0  0  0  0  0  0
  1  2  1  0
  2  3  2  0
  3  4  1  0
  4  5  2  3
  5  6  1  0
  6  7  2  0
  6  8  1  0
  8  9  1  0
  9 10  2  0
 10 11  1  0
 11 12  2  0
 12 13  1  0
 13 14  2  0
 13 15  1  0
 12 16  1  0
 16 17  2  0
  4 18  1  0
 18 19  1  0
 19 20  1  0
 20 21  1  0
 21 22  2  0
 22 23  1  0
 23 24  2  0
 24 25  1  0
 25 26  1  0
 26 27  2  0
 26 28  1  0
 28 29  1  0
 28 30  1  0
 25 31  2  0
 19  2  1  0
 31 21  1  0
 17  9  1  0
  1 32  1  0
  1 33  1  0
  1 34  1  0
  3 35  1  0
  8 36  1  0
  8 37  1  0
 10 38  1  0
 11 39  1  0
 16 40  1  0
 17 41  1  0
 20 42  1  0
 20 43  1  0
 22 44  1  0
 23 45  1  0
 24 46  1  0
 29 47  1  0
 29 48  1  0
 29 49  1  0
 30 50  1  0
 30 51  1  0
 30 52  1  0
 31 53  1  0
M  CHG  2  15  -1  18  -1
M  END
>  <UniqueID>  (37) 
34

>  <SMILES>  (37) 
Cc1cc(=NC(=O)Cc2ccc(C(=O)[O-])cc2)[n-]n1Cc1cccc(C(=O)N(C)C)c1

>  <Energy>  (37) 
86.70679861197561

>  <Genealogy>  (37) 
Cc1cc(=NC(=O)Cc2ccc(C(=O)[O-])cc2)[n-]n1Cc1cccc(C(=O)N(C)C)c1 (protonated)
Cc1cc(=NC(=O)Cc2ccc(C(=O)[O-])cc2)[n-]n1Cc1cccc(C(=O)N(C)C)c1 (3D coordinates assigned)
Cc1cc(=NC(=O)Cc2ccc(C(=O)[O-])cc2)[n-]n1Cc1cccc(C(=O)N(C)C)c1 (optimized conformer: 86.70679861197561 kcal/mol)

>  <smiles>  (37) 
Cc1cc(=NC(=O)Cc2ccc(C(=O)O)cc2)[nH]n1Cc1cccc(C(=O)N(C)C)c1

>  <score_type>  (37) 
oracle

>  <origin>  (37) 
adg

>  <m_score__min__energy>  (37) 
-14.09

>  <m_primary>  (37) 
energy

$$$$
37:0
     RDKit          3D

 29 30  0  0  0  0  0  0  0  0999 V2000
   56.2770   29.8760   42.5160 O   0  0  0  0  0  0  0  0  0  0  0  0
   56.6910   29.7780   43.7010 C   0  0  0  0  0  0  0  0  0  0  0  0
   57.2800   28.4740   44.1710 C   0  0  0  0  0  0  0  0  0  0  0  0
   57.1950   28.3380   45.6980 C   0  0  0  0  0  0  0  0  0  0  0  0
   57.2540   26.8890   46.1350 C   0  0  0  0  0  0  0  0  0  0  0  0
   56.0790   26.1250   46.2510 C   0  0  0  0  0  0  0  0  0  0  0  0
   54.8360   26.6990   46.0060 O   0  0  0  0  0  0  0  0  0  0  0  0
   56.1510   24.8130   46.6040 N   0  0  0  0  0  0  0  0  0  0  0  0
   57.3490   24.2180   46.8430 C   0  0  0  0  0  0  0  0  0  0  0  0
   57.3980   23.0030   47.1680 O   0  0  0  0  0  0  0  0  0  0  0  0
   58.4970   24.9330   46.7310 N   0  0  0  0  0  0  0  0  0  0  0  0
   58.4790   26.2440   46.3830 C   0  0  0  0  0  0  0  0  0  0  0  0
   59.5700   26.8680   46.2810 O   0  0  0  0  0  0  0  0  0  0  0  0
   56.4310   30.8450   44.6220 N   0  0  0  0  0  0  0  0  0  0  0  0
   57.2050   31.8600   44.8870 C   0  0  0  0  0  0  0  0  0  0  0  0
   57.8180   32.6300   43.8780 C   0  0  0  0  0  0  0  0  0  0  0  0
   58.6310   33.7090   44.2350 C   0  0  0  0  0  0  0  0  0  0  0  0
   58.8210   34.0220   45.5820 C   0  0  0  0  0  0  0  0  0  0  0  0
   59.8360   35.3750   46.0440 Cl  0  0  0  0  0  0  0  0  0  0  0  0
   58.1810   33.2530   46.5560 C   0  0  0  0  0  0  0  0  0  0  0  0
   57.3950   32.2060   46.1890 N   0  0  0  0  0  0  0  0  0  0  0  0
   56.7275   27.6439   43.7066 H   0  0  0  0  0  0  0  0  0  0  0  0
   58.3405   28.4487   43.8800 H   0  0  0  0  0  0  0  0  0  0  0  0
   58.0366   28.8819   46.1518 H   0  0  0  0  0  0  0  0  0  0  0  0
   56.2323   28.7566   46.0267 H   0  0  0  0  0  0  0  0  0  0  0  0
   55.2690   24.2570   46.6880 H   0  0  0  0  0  0  0  0  0  0  0  0
   57.6577   32.3835   42.8180 H   0  0  0  0  0  0  0  0  0  0  0  0
   59.1207   34.3110   43.4554 H   0  0  0  0  0  0  0  0  0  0  0  0
   58.3128   33.4944   47.6211 H   0  0  0  0  0  0  0  0  0  0  0  0
  1  2  2  0
  2  3  1  0
  3  4  1  0
  4  5  1  0
  5  6  2  0
  6  7  1  0
  6  8  1  0
  8  9  1  0
  9 10  2  0
  9 11  1  0
 11 12  1  0
 12 13  2  0
  2 14  1  0
 14 15  2  3
 15 16  1  0
 16 17  2  0
 17 18  1  0
 18 19  1  0
 18 20  2  0
 20 21  1  0
 12  5  1  0
 21 15  1  0
  3 22  1  0
  3 23  1  0
  4 24  1  0
  4 25  1  0
  8 26  1  0
 16 27  1  0
 17 28  1  0
 20 29  1  0
M  CHG  3   7  -1  11  -1  21  -1
M  END
>  <UniqueID>  (38) 
35

>  <SMILES>  (38) 
O=C(CCc1c([O-])[nH]c(=O)[n-]c1=O)N=c1ccc(Cl)c[n-]1

>  <Energy>  (38) 
38.603978238523

>  <Genealogy>  (38) 
O=C(CCc1c([O-])[nH]c(=O)[n-]c1=O)N=c1ccc(Cl)c[n-]1 (protonated)
O=C(CCc1c([O-])[nH]c(=O)[n-]c1=O)N=c1ccc(Cl)c[n-]1 (3D coordinates assigned)
O=C(CCc1c([O-])[nH]c(=O)[n-]c1=O)N=c1ccc(Cl)c[n-]1 (optimized conformer: 38.603978238523 kcal/mol)

>  <smiles>  (38) 
O=C(CCc1c(O)[nH]c(=O)[nH]c1=O)N=c1ccc(Cl)c[nH]1

>  <score_type>  (38) 
oracle

>  <origin>  (38) 
adg

>  <m_score__min__energy>  (38) 
-14.630000000000001

>  <m_primary>  (38) 
energy

$$$$
38:0
     RDKit          3D

 51 53  0  0  0  0  0  0  0  0999 V2000
   57.6320   34.3380   45.0710 C   0  0  0  0  0  0  0  0  0  0  0  0
   58.6600   33.4700   45.6620 N   0  0  0  0  0  0  0  0  0  0  0  0
   59.8750   34.0020   45.9970 C   0  0  0  0  0  0  0  0  0  0  0  0
   60.8820   33.2030   46.5600 C   0  0  0  0  0  0  0  0  0  0  0  0
   62.1950   33.7790   46.9380 C   0  0  0  0  0  0  0  0  0  0  0  0
   63.0770   33.9420   46.0550 O   0  0  0  0  0  0  0  0  0  0  0  0
   62.4720   34.2260   48.2750 N   0  0  0  0  0  0  0  0  0  0  0  0
   61.8650   33.8290   49.3570 C   0  0  0  0  0  0  0  0  0  0  0  0
   60.6130   34.2160   49.8030 C   0  0  0  0  0  0  0  0  0  0  0  0
   60.4520   33.5030   50.9810 C   0  0  0  0  0  0  0  0  0  0  0  0
   59.2660   33.5460   51.8550 C   0  0  0  0  0  0  0  0  0  0  0  0
   59.0060   34.6070   52.4850 O   0  0  0  0  0  0  0  0  0  0  0  0
   58.3820   32.4150   51.9740 N   0  0  0  0  0  0  0  0  0  0  0  0
   57.6430   31.9190   50.8040 C   0  0  0  0  0  0  0  0  0  0  0  0
   58.5350   31.0630   49.8940 C   0  0  0  0  0  0  0  0  0  0  0  0
   59.1890   29.8920   50.6550 C   0  0  0  0  0  0  0  0  0  0  0  0
   60.0120   30.3150   51.8170 N   0  0  2  0  0  0  0  0  0  0  0  0
   61.1800   29.4220   51.9460 C   0  0  0  0  0  0  0  0  0  0  0  0
   59.2920   30.4280   53.1150 C   0  0  0  0  0  0  0  0  0  0  0  0
   58.3600   31.6470   53.2250 C   0  0  0  0  0  0  0  0  0  0  0  0
   61.5320   32.7250   51.2060 N   0  0  0  0  0  0  0  0  0  0  0  0
   62.3790   32.9200   50.2080 N   0  0  0  0  0  0  0  0  0  0  0  0
   63.6930   32.2930   50.1260 C   0  0  0  0  0  0  0  0  0  0  0  0
   60.6330   31.8370   46.7350 C   0  0  0  0  0  0  0  0  0  0  0  0
   59.3990   31.2980   46.3760 C   0  0  0  0  0  0  0  0  0  0  0  0
   59.0800   29.4270   46.6320 Br  0  0  0  0  0  0  0  0  0  0  0  0
   58.4130   32.1330   45.8350 C   0  0  0  0  0  0  0  0  0  0  0  0
   57.2980   31.6420   45.5060 O   0  0  0  0  0  0  0  0  0  0  0  0
   57.0568   34.8237   45.8731 H   0  0  0  0  0  0  0  0  0  0  0  0
   58.1143   35.1063   44.4488 H   0  0  0  0  0  0  0  0  0  0  0  0
   56.9554   33.7338   44.4488 H   0  0  0  0  0  0  0  0  0  0  0  0
   60.0654   35.0713   45.8226 H   0  0  0  0  0  0  0  0  0  0  0  0
   59.9119   34.9220   49.3339 H   0  0  0  0  0  0  0  0  0  0  0  0
   56.7954   31.3089   51.1494 H   0  0  0  0  0  0  0  0  0  0  0  0
   57.2924   32.7863   50.2253 H   0  0  0  0  0  0  0  0  0  0  0  0
   57.9209   30.6559   49.0772 H   0  0  0  0  0  0  0  0  0  0  0  0
   59.3394   31.7061   49.5074 H   0  0  0  0  0  0  0  0  0  0  0  0
   58.3919   29.2269   51.0188 H   0  0  0  0  0  0  0  0  0  0  0  0
   59.8671   29.3908   49.9486 H   0  0  0  0  0  0  0  0  0  0  0  0
   60.3920   31.2680   51.5950 H   0  0  0  0  0  0  0  0  0  0  0  0
   61.3982   29.2552   53.0112 H   0  0  0  0  0  0  0  0  0  0  0  0
   60.9607   28.4591   51.4615 H   0  0  0  0  0  0  0  0  0  0  0  0
   62.0517   29.8861   51.4615 H   0  0  0  0  0  0  0  0  0  0  0  0
   58.6869   29.5197   53.2522 H   0  0  0  0  0  0  0  0  0  0  0  0
   60.0627   30.5533   53.8898 H   0  0  0  0  0  0  0  0  0  0  0  0
   57.3339   31.3035   53.4227 H   0  0  0  0  0  0  0  0  0  0  0  0
   58.7051   32.2903   54.0478 H   0  0  0  0  0  0  0  0  0  0  0  0
   64.0760   32.1102   51.1408 H   0  0  0  0  0  0  0  0  0  0  0  0
   63.6103   31.3373   49.5877 H   0  0  0  0  0  0  0  0  0  0  0  0
   64.3839   32.9585   49.5877 H   0  0  0  0  0  0  0  0  0  0  0  0
   61.4135   31.1869   47.1571 H   0  0  0  0  0  0  0  0  0  0  0  0
  1  2  1  0
  2  3  1  0
  3  4  2  0
  4  5  1  0
  5  6  2  0
  5  7  1  0
  7  8  2  3
  8  9  1  0
  9 10  2  0
 10 11  1  0
 11 12  2  0
 11 13  1  0
 13 14  1  0
 14 15  1  0
 15 16  1  0
 16 17  1  0
 17 18  1  0
 17 19  1  0
 19 20  1  0
 10 21  1  0
 21 22  1  0
 22 23  1  0
  4 24  1  0
 24 25  2  0
 25 26  1  0
 25 27  1  0
 27 28  2  0
 27  2  1  0
 22  8  1  0
 20 13  1  0
  1 29  1  0
  1 30  1  0
  1 31  1  0
  3 32  1  0
  9 33  1  0
 14 34  1  0
 14 35  1  0
 15 36  1  0
 15 37  1  0
 16 38  1  0
 16 39  1  0
 17 40  1  6
 18 41  1  0
 18 42  1  0
 18 43  1  0
 19 44  1  0
 19 45  1  0
 20 46  1  0
 20 47  1  0
 23 48  1  0
 23 49  1  0
 23 50  1  0
 24 51  1  0
M  CHG  2  17   1  21  -1
M  END
>  <UniqueID>  (39) 
36

>  <SMILES>  (39) 
Cn1cc(C(=O)N=c2cc(C(=O)N3CCC[N@H+](C)CC3)[n-]n2C)cc(Br)c1=O

>  <Energy>  (39) 
104.01532482972306

>  <Genealogy>  (39) 
Cn1cc(C(=O)N=c2cc(C(=O)N3CCC[NH+](C)CC3)[n-]n2C)cc(Br)c1=O (protonated)
Cn1cc(C(=O)N=c2cc(C(=O)N3CCC[N@H+](C)CC3)[n-]n2C)cc(Br)c1=O (chirality)
Cn1cc(C(=O)N=c2cc(C(=O)N3CCC[N@H+](C)CC3)[n-]n2C)cc(Br)c1=O (3D coordinates assigned)
Cn1cc(C(=O)N=c2cc(C(=O)N3CCC[N@H+](C)CC3)[n-]n2C)cc(Br)c1=O (nonaromatic ring conformer: 104.01532482972306 kcal/mol)

>  <smiles>  (39) 
CN1CCCN(C(=O)c2cc(=NC(=O)c3cc(Br)c(=O)n(C)c3)n(C)[nH]2)CC1

>  <score_type>  (39) 
oracle

>  <origin>  (39) 
adg

>  <m_score__min__energy>  (39) 
-6.46

>  <m_primary>  (39) 
energy

$$$$
39:0
     RDKit          3D

 56 59  0  0  0  0  0  0  0  0999 V2000
   58.5640   34.0600   53.5720 O   0  0  0  0  0  0  0  0  0  0  0  0
   59.2620   34.1830   52.5350 C   0  0  0  0  0  0  0  0  0  0  0  0
   58.9000   33.4650   51.3540 N   0  0  0  0  0  0  0  0  0  0  0  0
   59.2910   32.1300   50.9940 C   0  0  0  0  0  0  0  0  0  0  0  0
   58.4410   31.0290   51.2260 C   0  0  0  0  0  0  0  0  0  0  0  0
   58.8060   29.7490   50.7990 C   0  0  0  0  0  0  0  0  0  0  0  0
   60.0060   29.5540   50.1120 C   0  0  0  0  0  0  0  0  0  0  0  0
   60.4440   27.9330   49.4820 S   0  0  0  0  0  0  0  0  0  0  0  0
   59.4110   28.1170   48.0290 C   0  0  0  0  0  0  0  0  0  0  0  0
   59.4610   29.2940   47.2740 C   0  0  0  0  0  0  0  0  0  0  0  0
   58.6190   29.4510   46.1690 C   0  0  0  0  0  0  0  0  0  0  0  0
   57.7530   28.4180   45.7850 C   0  0  0  0  0  0  0  0  0  0  0  0
   56.9070   28.6040   44.6430 N   0  0  0  0  0  0  0  0  0  0  0  0
   55.9490   29.6540   44.4900 C   0  0  0  0  0  0  0  0  0  0  0  0
   54.7720   29.3690   44.1420 O   0  0  0  0  0  0  0  0  0  0  0  0
   56.3080   31.0140   44.7670 N   0  0  0  0  0  0  0  0  0  0  0  0
   57.4070   31.7190   44.1110 C   0  0  0  0  0  0  0  0  0  0  0  0
   57.9380   32.8090   45.0020 C   0  0  0  0  0  0  0  0  0  0  0  0
   58.6490   33.8930   44.4590 C   0  0  0  0  0  0  0  0  0  0  0  0
   59.1200   34.9140   45.2900 C   0  0  0  0  0  0  0  0  0  0  0  0
   58.8880   34.8600   46.6680 C   0  0  0  0  0  0  0  0  0  0  0  0
   58.1940   33.7790   47.2170 C   0  0  0  0  0  0  0  0  0  0  0  0
   57.7250   32.7520   46.3900 C   0  0  0  0  0  0  0  0  0  0  0  0
   57.6990   27.2400   46.5530 C   0  0  0  0  0  0  0  0  0  0  0  0
   58.5240   27.0940   47.6690 C   0  0  0  0  0  0  0  0  0  0  0  0
   60.8650   30.6340   49.8930 C   0  0  0  0  0  0  0  0  0  0  0  0
   60.5370   31.9160   50.3510 C   0  0  0  0  0  0  0  0  0  0  0  0
   61.4710   32.9440   50.1140 O   0  0  0  0  0  0  0  0  0  0  0  0
   62.1370   33.1730   48.9030 C   0  0  0  0  0  0  0  0  0  0  0  0
   61.3630   33.4540   47.7690 C   0  0  0  0  0  0  0  0  0  0  0  0
   61.9740   33.7610   46.5530 C   0  0  0  0  0  0  0  0  0  0  0  0
   63.3690   33.7770   46.4580 C   0  0  0  0  0  0  0  0  0  0  0  0
   64.1520   33.4690   47.5710 C   0  0  0  0  0  0  0  0  0  0  0  0
   63.5510   33.1390   48.7990 C   0  0  0  0  0  0  0  0  0  0  0  0
   64.4170   32.7280   49.9260 C   0  0  0  0  0  0  0  0  0  0  0  0
   65.0960   33.5780   50.5620 O   0  0  0  0  0  0  0  0  0  0  0  0
   64.4660   31.3890   50.3150 O   0  0  0  0  0  0  0  0  0  0  0  0
   60.1453   34.8386   52.5361 H   0  0  0  0  0  0  0  0  0  0  0  0
   57.4837   31.1785   51.7468 H   0  0  0  0  0  0  0  0  0  0  0  0
   58.1463   28.8932   51.0047 H   0  0  0  0  0  0  0  0  0  0  0  0
   60.1624   30.0953   47.5497 H   0  0  0  0  0  0  0  0  0  0  0  0
   58.6363   30.3908   45.5976 H   0  0  0  0  0  0  0  0  0  0  0  0
   58.2147   31.0056   43.8905 H   0  0  0  0  0  0  0  0  0  0  0  0
   57.0355   32.1698   43.1789 H   0  0  0  0  0  0  0  0  0  0  0  0
   58.8356   33.9383   43.3759 H   0  0  0  0  0  0  0  0  0  0  0  0
   59.6739   35.7611   44.8592 H   0  0  0  0  0  0  0  0  0  0  0  0
   59.2518   35.6683   47.3193 H   0  0  0  0  0  0  0  0  0  0  0  0
   58.0158   33.7349   48.3016 H   0  0  0  0  0  0  0  0  0  0  0  0
   57.1880   31.8976   46.8277 H   0  0  0  0  0  0  0  0  0  0  0  0
   57.0056   26.4332   46.2732 H   0  0  0  0  0  0  0  0  0  0  0  0
   58.4777   26.1726   48.2681 H   0  0  0  0  0  0  0  0  0  0  0  0
   61.8107   30.4752   49.3541 H   0  0  0  0  0  0  0  0  0  0  0  0
   60.2654   33.4323   47.8382 H   0  0  0  0  0  0  0  0  0  0  0  0
   61.3592   33.9902   45.6701 H   0  0  0  0  0  0  0  0  0  0  0  0
   63.8506   34.0332   45.5028 H   0  0  0  0  0  0  0  0  0  0  0  0
   65.2487   33.4844   47.4873 H   0  0  0  0  0  0  0  0  0  0  0  0
  1  2  2  0
  2  3  1  0
  3  4  1  0
  4  5  2  0
  5  6  1  0
  6  7  2  0
  7  8  1  0
  8  9  1  0
  9 10  2  0
 10 11  1  0
 11 12  2  0
 12 13  1  0
 13 14  1  0
 14 15  2  0
 14 16  1  0
 16 17  1  0
 17 18  1  0
 18 19  2  0
 19 20  1  0
 20 21  2  0
 21 22  1  0
 22 23  2  0
 12 24  1  0
 24 25  2  0
  7 26  1  0
 26 27  2  0
 27 28  1  0
 28 29  1  0
 29 30  2  0
 30 31  1  0
 31 32  2  0
 32 33  1  0
 33 34  2  0
 34 35  1  0
 35 36  2  0
 35 37  1  0
 27  4  1  0
 34 29  1  0
 25  9  1  0
 23 18  1  0
  2 38  1  0
  5 39  1  0
  6 40  1  0
 10 41  1  0
 11 42  1  0
 17 43  1  0
 17 44  1  0
 19 45  1  0
 20 46  1  0
 21 47  1  0
 22 48  1  0
 23 49  1  0
 24 50  1  0
 25 51  1  0
 26 52  1  0
 30 53  1  0
 31 54  1  0
 32 55  1  0
 33 56  1  0
M  CHG  4   3  -1  13  -1  16  -1  37  -1
M  END
>  <UniqueID>  (40) 
37

>  <SMILES>  (40) 
O=C[N-]c1ccc(Sc2ccc([N-]C(=O)[N-]Cc3ccccc3)cc2)cc1Oc1ccccc1C(=O)[O-]

>  <Energy>  (40) 
72.90304390770187

>  <Genealogy>  (40) 
O=C[N-]c1ccc(Sc2ccc([N-]C(=O)[N-]Cc3ccccc3)cc2)cc1Oc1ccccc1C(=O)[O-] (protonated)
O=C[N-]c1ccc(Sc2ccc([N-]C(=O)[N-]Cc3ccccc3)cc2)cc1Oc1ccccc1C(=O)[O-] (3D coordinates assigned)
O=C[N-]c1ccc(Sc2ccc([N-]C(=O)[N-]Cc3ccccc3)cc2)cc1Oc1ccccc1C(=O)[O-] (optimized conformer: 72.90304390770187 kcal/mol)

>  <smiles>  (40) 
O=CNc1ccc(Sc2ccc(NC(=O)NCc3ccccc3)cc2)cc1Oc1ccccc1C(=O)O

>  <score_type>  (40) 
oracle

>  <origin>  (40) 
adg

>  <m_score__min__energy>  (40) 
-15.880000000000001

>  <m_primary>  (40) 
energy

$$$$
40:0
     RDKit          3D

 56 60  0  0  0  0  0  0  0  0999 V2000
   58.1340   28.2800   47.9290 O   0  0  0  0  0  0  0  0  0  0  0  0
   58.5730   27.2260   47.3930 C   0  0  0  0  0  0  0  0  0  0  0  0
   60.0620   27.0510   47.2670 C   0  0  0  0  0  0  0  0  0  0  0  0
   60.6390   27.5750   45.6160 S   0  0  0  0  0  0  0  0  0  0  0  0
   59.7130   29.1070   45.6200 C   0  0  0  0  0  0  0  0  0  0  0  0
   58.4150   29.1200   45.1840 N   0  0  0  0  0  0  0  0  0  0  0  0
   57.6760   30.2640   45.2030 C   0  0  0  0  0  0  0  0  0  0  0  0
   56.4840   30.2600   44.7990 O   0  0  0  0  0  0  0  0  0  0  0  0
   58.2730   31.4240   45.6800 C   0  0  0  0  0  0  0  0  0  0  0  0
   57.6530   32.9770   45.8490 S   0  0  0  0  0  0  0  0  0  0  0  0
   59.1110   33.5680   46.4770 C   0  0  0  0  0  0  0  0  0  0  0  0
   59.2870   35.1070   47.0180 S   0  0  0  0  0  0  0  0  0  0  0  0
   60.0640   32.5970   46.5670 N   0  0  0  0  0  0  0  0  0  0  0  0
   61.3940   32.7760   47.0880 C   0  0  0  0  0  0  0  0  0  0  0  0
   61.8420   32.0050   48.1740 C   0  0  0  0  0  0  0  0  0  0  0  0
   63.1390   32.1680   48.6690 C   0  0  0  0  0  0  0  0  0  0  0  0
   63.9990   33.1030   48.0870 C   0  0  0  0  0  0  0  0  0  0  0  0
   63.5640   33.8740   47.0060 C   0  0  0  0  0  0  0  0  0  0  0  0
   62.2670   33.7100   46.5050 C   0  0  0  0  0  0  0  0  0  0  0  0
   59.5820   31.4030   46.1170 C   0  0  0  0  0  0  0  0  0  0  0  0
   60.2980   30.2490   46.0820 N   0  0  0  0  0  0  0  0  0  0  0  0
   57.6410   26.2610   46.8590 N   0  0  0  0  0  0  0  0  0  0  0  0
   58.0240   24.8650   46.6220 C   0  0  0  0  0  0  0  0  0  0  0  0
   56.8480   23.9140   46.9240 C   0  0  0  0  0  0  0  0  0  0  0  0
   55.5150   24.4270   46.5010 N   0  0  0  0  0  0  0  0  0  0  0  0
   54.6970   23.3760   45.8630 C   0  0  0  0  0  0  0  0  0  0  0  0
   55.5220   22.5990   44.8720 C   0  0  0  0  0  0  0  0  0  0  0  0
   55.9490   21.2910   45.1630 C   0  0  0  0  0  0  0  0  0  0  0  0
   56.6970   20.5710   44.2270 C   0  0  0  0  0  0  0  0  0  0  0  0
   57.0230   21.1500   42.9950 C   0  0  0  0  0  0  0  0  0  0  0  0
   56.6000   22.4470   42.6980 C   0  0  0  0  0  0  0  0  0  0  0  0
   55.8480   23.1700   43.6310 C   0  0  0  0  0  0  0  0  0  0  0  0
   55.5870   25.6230   45.6420 C   0  0  0  0  0  0  0  0  0  0  0  0
   56.3440   26.7370   46.3650 C   0  0  0  0  0  0  0  0  0  0  0  0
   60.5629   27.6599   48.0341 H   0  0  0  0  0  0  0  0  0  0  0  0
   60.3048   25.9869   47.4040 H   0  0  0  0  0  0  0  0  0  0  0  0
   61.1683   31.2691   48.6372 H   0  0  0  0  0  0  0  0  0  0  0  0
   63.4832   31.5592   49.5181 H   0  0  0  0  0  0  0  0  0  0  0  0
   65.0183   33.2320   48.4798 H   0  0  0  0  0  0  0  0  0  0  0  0
   64.2410   34.6103   46.5483 H   0  0  0  0  0  0  0  0  0  0  0  0
   61.9297   34.3153   45.6507 H   0  0  0  0  0  0  0  0  0  0  0  0
   58.3220   24.7468   45.5698 H   0  0  0  0  0  0  0  0  0  0  0  0
   58.8615   24.6118   47.2887 H   0  0  0  0  0  0  0  0  0  0  0  0
   57.0319   22.9634   46.4019 H   0  0  0  0  0  0  0  0  0  0  0  0
   56.8081   23.8030   48.0177 H   0  0  0  0  0  0  0  0  0  0  0  0
   54.3193   22.6910   46.6364 H   0  0  0  0  0  0  0  0  0  0  0  0
   53.8564   23.8493   45.3345 H   0  0  0  0  0  0  0  0  0  0  0  0
   55.6936   20.8332   46.1300 H   0  0  0  0  0  0  0  0  0  0  0  0
   57.0297   19.5485   44.4588 H   0  0  0  0  0  0  0  0  0  0  0  0
   57.6130   20.5826   42.2602 H   0  0  0  0  0  0  0  0  0  0  0  0
   56.8580   22.9010   41.7298 H   0  0  0  0  0  0  0  0  0  0  0  0
   55.5110   24.1893   43.3914 H   0  0  0  0  0  0  0  0  0  0  0  0
   56.1122   25.3710   44.7089 H   0  0  0  0  0  0  0  0  0  0  0  0
   54.5675   25.9669   45.4132 H   0  0  0  0  0  0  0  0  0  0  0  0
   56.5097   27.5705   45.6665 H   0  0  0  0  0  0  0  0  0  0  0  0
   55.7425   27.0665   47.2250 H   0  0  0  0  0  0  0  0  0  0  0  0
  1  2  2  0
  2  3  1  0
  3  4  1  0
  4  5  1  0
  5  6  2  0
  6  7  1  0
  7  8  2  0
  7  9  1  0
  9 10  1  0
 10 11  1  0
 11 12  2  0
 11 13  1  0
 13 14  1  0
 14 15  2  0
 15 16  1  0
 16 17  2  0
 17 18  1  0
 18 19  2  0
 13 20  1  0
 20 21  1  0
  2 22  1  0
 22 23  1  0
 23 24  1  0
 24 25  1  0
 25 26  1  0
 26 27  1  0
 27 28  2  0
 28 29  1  0
 29 30  2  0
 30 31  1  0
 31 32  2  0
 25 33  1  0
 33 34  1  0
 21  5  1  0
 34 22  1  0
 20  9  2  0
 32 27  1  0
 19 14  1  0
  3 35  1  0
  3 36  1  0
 15 37  1  0
 16 38  1  0
 17 39  1  0
 18 40  1  0
 19 41  1  0
 23 42  1  0
 23 43  1  0
 24 44  1  0
 24 45  1  0
 26 46  1  0
 26 47  1  0
 28 48  1  0
 29 49  1  0
 30 50  1  0
 31 51  1  0
 32 52  1  0
 33 53  1  0
 33 54  1  0
 34 55  1  0
 34 56  1  0
M  CHG  1  21  -1
M  END
>  <UniqueID>  (41) 
38

>  <SMILES>  (41) 
O=C(CSc1nc(=O)c2sc(=S)n(-c3ccccc3)c2[n-]1)N1CCN(Cc2ccccc2)CC1

>  <Energy>  (41) 
109.48200153761825

>  <Genealogy>  (41) 
O=C(CSc1nc(=O)c2sc(=S)n(-c3ccccc3)c2[n-]1)N1CCN(Cc2ccccc2)CC1 (protonated)
O=C(CSc1nc(=O)c2sc(=S)n(-c3ccccc3)c2[n-]1)N1CCN(Cc2ccccc2)CC1 (3D coordinates assigned)
O=C(CSc1nc(=O)c2sc(=S)n(-c3ccccc3)c2[n-]1)N1CCN(Cc2ccccc2)CC1 (nonaromatic ring conformer: 109.48200153761825 kcal/mol)

>  <smiles>  (41) 
O=C(CSc1nc(=O)c2sc(=S)n(-c3ccccc3)c2[nH]1)N1CCN(Cc2ccccc2)CC1

>  <score_type>  (41) 
oracle

>  <origin>  (41) 
adg

>  <m_score__min__energy>  (41) 
-10.75

>  <m_primary>  (41) 
energy

$$$$
41:0
     RDKit          3D

 51 54  0  0  0  0  0  0  0  0999 V2000
   57.4550   30.4460   50.8940 O   0  0  0  0  0  0  0  0  0  0  0  0
   58.5430   30.9770   50.5410 C   0  0  0  0  0  0  0  0  0  0  0  0
   58.5560   32.2380   49.7780 C   0  0  0  0  0  0  0  0  0  0  0  0
   59.5200   32.6100   48.9220 C   0  0  0  0  0  0  0  0  0  0  0  0
   59.2920   33.3410   47.6570 C   0  0  0  0  0  0  0  0  0  0  0  0
   59.7720   34.6570   47.4720 C   0  0  0  0  0  0  0  0  0  0  0  0
   59.5930   35.3230   46.2430 C   0  0  0  0  0  0  0  0  0  0  0  0
   58.9460   34.6840   45.1740 C   0  0  0  0  0  0  0  0  0  0  0  0
   58.4900   33.3810   45.3680 C   0  0  0  0  0  0  0  0  0  0  0  0
   58.6640   32.7210   46.5680 C   0  0  0  0  0  0  0  0  0  0  0  0
   58.0640   31.3940   46.4230 C   0  0  0  0  0  0  0  0  0  0  0  0
   58.0050   30.5140   47.3230 O   0  0  0  0  0  0  0  0  0  0  0  0
   57.5200   31.2350   45.1080 N   0  0  0  0  0  0  0  0  0  0  0  0
   56.8510   30.0740   44.5860 C   0  0  0  0  0  0  0  0  0  0  0  0
   55.5910   30.0710   44.5050 O   0  0  0  0  0  0  0  0  0  0  0  0
   57.6340   28.8640   44.1430 C   0  0  0  0  0  0  0  0  0  0  0  0
   57.9030   27.8990   45.2730 C   0  0  0  0  0  0  0  0  0  0  0  0
   59.2260   27.5750   45.6130 C   0  0  0  0  0  0  0  0  0  0  0  0
   59.4910   26.6660   46.6420 C   0  0  0  0  0  0  0  0  0  0  0  0
   58.4360   26.0700   47.3370 C   0  0  0  0  0  0  0  0  0  0  0  0
   57.1160   26.3700   46.9950 C   0  0  0  0  0  0  0  0  0  0  0  0
   56.8430   27.2750   45.9630 C   0  0  0  0  0  0  0  0  0  0  0  0
   55.5200   27.5460   45.6280 O   0  0  0  0  0  0  0  0  0  0  0  0
   57.7940   32.4820   44.4550 C   0  0  0  0  0  0  0  0  0  0  0  0
   57.4900   32.7510   43.2630 O   0  0  0  0  0  0  0  0  0  0  0  0
   59.7820   30.3320   50.8350 N   0  0  0  0  0  0  0  0  0  0  0  0
   60.7640   29.6240   49.5990 S   0  0  0  0  0  0  0  0  0  0  0  0
   61.5050   28.4400   50.1590 O   0  0  0  0  0  0  0  0  0  0  0  0
   59.8850   29.1510   48.4760 O   0  0  0  0  0  0  0  0  0  0  0  0
   61.8910   30.8330   48.9910 C   0  0  0  0  0  0  0  0  0  0  0  0
   61.9590   31.1200   47.6190 C   0  0  0  0  0  0  0  0  0  0  0  0
   62.8880   32.0480   47.1400 C   0  0  0  0  0  0  0  0  0  0  0  0
   63.7540   32.6960   48.0280 C   0  0  0  0  0  0  0  0  0  0  0  0
   63.6940   32.4100   49.3940 C   0  0  0  0  0  0  0  0  0  0  0  0
   62.7670   31.4810   49.8760 C   0  0  0  0  0  0  0  0  0  0  0  0
   57.7106   32.9270   49.9213 H   0  0  0  0  0  0  0  0  0  0  0  0
   60.5575   32.3519   49.1806 H   0  0  0  0  0  0  0  0  0  0  0  0
   60.2912   35.1674   48.2965 H   0  0  0  0  0  0  0  0  0  0  0  0
   59.9632   36.3516   46.1206 H   0  0  0  0  0  0  0  0  0  0  0  0
   58.8029   35.1964   44.2112 H   0  0  0  0  0  0  0  0  0  0  0  0
   57.0622   28.3412   43.3622 H   0  0  0  0  0  0  0  0  0  0  0  0
   58.6062   29.2161   43.7678 H   0  0  0  0  0  0  0  0  0  0  0  0
   60.0599   28.0394   45.0662 H   0  0  0  0  0  0  0  0  0  0  0  0
   60.5306   26.4202   46.9043 H   0  0  0  0  0  0  0  0  0  0  0  0
   58.6453   25.3640   48.1541 H   0  0  0  0  0  0  0  0  0  0  0  0
   56.2873   25.8931   47.5389 H   0  0  0  0  0  0  0  0  0  0  0  0
   61.2791   30.6131   46.9184 H   0  0  0  0  0  0  0  0  0  0  0  0
   62.9385   32.2693   46.0637 H   0  0  0  0  0  0  0  0  0  0  0  0
   64.4813   33.4299   47.6507 H   0  0  0  0  0  0  0  0  0  0  0  0
   64.3772   32.9165   50.0916 H   0  0  0  0  0  0  0  0  0  0  0  0
   62.7240   31.2572   50.9521 H   0  0  0  0  0  0  0  0  0  0  0  0
  1  2  2  0
  2  3  1  0
  3  4  2  3
  4  5  1  0
  5  6  2  0
  6  7  1  0
  7  8  2  0
  8  9  1  0
  9 10  2  0
 10 11  1  0
 11 12  2  0
 11 13  1  0
 13 14  1  0
 14 15  2  0
 14 16  1  0
 16 17  1  0
 17 18  2  0
 18 19  1  0
 19 20  2  0
 20 21  1  0
 21 22  2  0
 22 23  1  0
 13 24  1  0
 24 25  2  0
  2 26  1  0
 26 27  1  0
 27 28  2  0
 27 29  2  0
 27 30  1  0
 30 31  2  0
 31 32  1  0
 32 33  2  0
 33 34  1  0
 34 35  2  0
 10  5  1  0
 22 17  1  0
 35 30  1  0
 24  9  1  0
  3 36  1  0
  4 37  1  0
  6 38  1  0
  7 39  1  0
  8 40  1  0
 16 41  1  0
 16 42  1  0
 18 43  1  0
 19 44  1  0
 20 45  1  0
 21 46  1  0
 31 47  1  0
 32 48  1  0
 33 49  1  0
 34 50  1  0
 35 51  1  0
M  CHG  2  23  -1  26  -1
M  END
>  <UniqueID>  (42) 
39

>  <SMILES>  (42) 
O=C(C=Cc1cccc2c1C(=O)N(C(=O)Cc1ccccc1[O-])C2=O)[N-]S(=O)(=O)c1ccccc1

>  <Energy>  (42) 
98.97910019899419

>  <Genealogy>  (42) 
O=C(C=Cc1cccc2c1C(=O)N(C(=O)Cc1ccccc1[O-])C2=O)[N-]S(=O)(=O)c1ccccc1 (protonated)
O=C(C=Cc1cccc2c1C(=O)N(C(=O)Cc1ccccc1[O-])C2=O)[N-]S(=O)(=O)c1ccccc1 (3D coordinates assigned)
O=C(C=Cc1cccc2c1C(=O)N(C(=O)Cc1ccccc1[O-])C2=O)[N-]S(=O)(=O)c1ccccc1 (nonaromatic ring conformer: 98.97910019899419 kcal/mol)

>  <smiles>  (42) 
O=C(C=Cc1cccc2c1C(=O)N(C(=O)Cc1ccccc1O)C2=O)NS(=O)(=O)c1ccccc1

>  <score_type>  (42) 
oracle

>  <origin>  (42) 
adg

>  <m_score__min__energy>  (42) 
-14.779999999999999

>  <m_primary>  (42) 
energy

$$$$
42:0
     RDKit          3D

 40 42  0  0  0  0  0  0  0  0999 V2000
   57.1531   32.6162   52.2337 H   0  0  0  0  0  0  0  0  0  0  0  0
   58.0420   32.6980   51.5910 C   0  0  0  0  0  0  0  0  0  0  0  0
   58.2130   31.8180   50.5190 C   0  0  0  0  0  0  0  0  0  0  0  0
   57.4560   31.0462   50.3160 H   0  0  0  0  0  0  0  0  0  0  0  0
   59.3450   31.9170   49.7040 C   0  0  0  0  0  0  0  0  0  0  0  0
   59.4712   31.2279   48.8559 H   0  0  0  0  0  0  0  0  0  0  0  0
   60.3230   32.8940   49.9640 C   0  0  0  0  0  0  0  0  0  0  0  0
   61.5450   32.9750   49.1310 C   0  0  0  0  0  0  0  0  0  0  0  0
   62.7220   32.3520   49.5840 C   0  0  0  0  0  0  0  0  0  0  0  0
   62.7051   31.7635   50.5132 H   0  0  0  0  0  0  0  0  0  0  0  0
   63.9120   32.4750   48.8630 C   0  0  0  0  0  0  0  0  0  0  0  0
   64.8255   31.9787   49.2225 H   0  0  0  0  0  0  0  0  0  0  0  0
   63.9440   33.2260   47.6880 C   0  0  0  0  0  0  0  0  0  0  0  0
   64.8863   33.3348   47.1310 H   0  0  0  0  0  0  0  0  0  0  0  0
   62.7810   33.8400   47.2180 C   0  0  0  0  0  0  0  0  0  0  0  0
   62.8142   34.4388   46.2958 H   0  0  0  0  0  0  0  0  0  0  0  0
   61.5730   33.6990   47.9120 C   0  0  0  0  0  0  0  0  0  0  0  0
   60.4270   34.3020   47.3700 O   0  0  0  0  0  0  0  0  0  0  0  0
   59.4200   33.6170   46.6740 C   0  0  0  0  0  0  0  0  0  0  0  0
   58.2230   34.2370   46.2890 C   0  0  0  0  0  0  0  0  0  0  0  0
   58.0361   35.2872   46.5574 H   0  0  0  0  0  0  0  0  0  0  0  0
   57.2700   33.5220   45.5660 C   0  0  0  0  0  0  0  0  0  0  0  0
   56.3336   34.0086   45.2557 H   0  0  0  0  0  0  0  0  0  0  0  0
   57.5080   32.1830   45.2360 C   0  0  0  0  0  0  0  0  0  0  0  0
   56.6090   31.5470   44.5400 N   0  0  0  0  0  0  0  0  0  0  0  0
   56.4750   29.8270   44.3330 S   0  0  0  0  0  0  0  0  0  0  0  0
   55.1450   29.3830   44.8700 O   0  0  0  0  0  0  0  0  0  0  0  0
   57.5610   29.1260   45.0990 O   0  0  0  0  0  0  0  0  0  0  0  0
   56.5560   29.4070   42.6030 C   0  0  0  0  0  0  0  0  0  0  0  0
   56.7633   28.3320   42.4960 H   0  0  0  0  0  0  0  0  0  0  0  0
   55.5954   29.6448   42.1226 H   0  0  0  0  0  0  0  0  0  0  0  0
   57.3592   29.9849   42.1226 H   0  0  0  0  0  0  0  0  0  0  0  0
   58.6700   31.5860   45.6480 N   0  0  0  0  0  0  0  0  0  0  0  0
   58.8770   30.5870   45.4340 H   0  0  0  0  0  0  0  0  0  0  0  0
   59.6090   32.2700   46.3580 C   0  0  0  0  0  0  0  0  0  0  0  0
   60.5251   31.7568   46.6858 H   0  0  0  0  0  0  0  0  0  0  0  0
   60.1340   33.7850   51.0350 C   0  0  0  0  0  0  0  0  0  0  0  0
   60.8815   34.5667   51.2353 H   0  0  0  0  0  0  0  0  0  0  0  0
   59.0010   33.6820   51.8460 C   0  0  0  0  0  0  0  0  0  0  0  0
   58.8635   34.3772   52.6873 H   0  0  0  0  0  0  0  0  0  0  0  0
  1  2  1  0
  2  3  2  0
  3  4  1  0
  3  5  1  0
  5  6  1  0
  5  7  2  0
  7  8  1  0
  8  9  2  0
  9 10  1  0
  9 11  1  0
 11 12  1  0
 11 13  2  0
 13 14  1  0
 13 15  1  0
 15 16  1  0
 15 17  2  0
 17 18  1  0
 18 19  1  0
 19 20  1  0
 20 21  1  0
 20 22  2  0
 22 23  1  0
 22 24  1  0
 24 25  2  0
 25 26  1  0
 26 27  2  0
 26 28  2  0
 26 29  1  0
 29 30  1  0
 29 31  1  0
 29 32  1  0
 24 33  1  0
 33 34  1  0
 33 35  1  0
 35 36  1  0
  7 37  1  0
 37 38  1  0
 37 39  2  0
 39 40  1  0
 39  2  1  0
 17  8  1  0
 35 19  2  0
M  END
>  <UniqueID>  (43) 
40

>  <SMILES>  (43) 
CS(=O)(=O)/N=c1/ccc(Oc2ccccc2-c2ccccc2)c[nH]1

>  <Energy>  (43) 
55.94898096015571

>  <Genealogy>  (43) 
CS(=O)(=O)/N=c1/ccc(Oc2ccccc2-c2ccccc2)c[nH]1 (cis-trans isomerization)
CS(=O)(=O)/N=c1/ccc(Oc2ccccc2-c2ccccc2)c[nH]1 (3D coordinates assigned)
CS(=O)(=O)/N=c1/ccc(Oc2ccccc2-c2ccccc2)c[nH]1 (optimized conformer: 55.94898096015571 kcal/mol)

>  <smiles>  (43) 
CS(=O)(=O)N=c1ccc(Oc2ccccc2-c2ccccc2)c[nH]1

>  <score_type>  (43) 
oracle

>  <origin>  (43) 
adg

>  <m_score__min__energy>  (43) 
-8.4499999999999993

>  <m_primary>  (43) 
energy

$$$$
43:0
     RDKit          3D

 28 29  0  0  0  0  0  0  0  0999 V2000
   57.4360   23.5550   47.6970 O   0  0  0  0  0  0  0  0  0  0  0  0
   57.0710   24.5260   46.9830 C   0  0  0  0  0  0  0  0  0  0  0  0
   58.0210   25.3770   46.4170 C   0  0  0  0  0  0  0  0  0  0  0  0
   57.5750   26.4500   45.6350 C   0  0  0  0  0  0  0  0  0  0  0  0
   58.5550   27.3750   44.9710 C   0  0  0  0  0  0  0  0  0  0  0  0
   57.8840   28.1850   43.9450 N   0  0  0  0  0  0  0  0  0  0  0  0
   57.7890   29.5580   44.3800 C   0  0  0  0  0  0  0  0  0  0  0  0
   58.9300   30.2350   44.8390 C   0  0  0  0  0  0  0  0  0  0  0  0
   58.8350   31.5530   45.2860 C   0  0  0  0  0  0  0  0  0  0  0  0
   57.5900   32.1940   45.2820 C   0  0  0  0  0  0  0  0  0  0  0  0
   57.4640   33.6100   45.7640 C   0  0  0  0  0  0  0  0  0  0  0  0
   56.9650   33.6410   47.0560 F   0  0  0  0  0  0  0  0  0  0  0  0
   58.7070   34.2170   45.7490 F   0  0  0  0  0  0  0  0  0  0  0  0
   56.6050   34.3100   44.9360 F   0  0  0  0  0  0  0  0  0  0  0  0
   56.4890   31.5190   44.8500 N   0  0  0  0  0  0  0  0  0  0  0  0
   56.5530   30.2350   44.4090 C   0  0  0  0  0  0  0  0  0  0  0  0
   55.4970   29.6600   44.0300 O   0  0  0  0  0  0  0  0  0  0  0  0
   56.2410   26.6220   45.4320 N   0  0  0  0  0  0  0  0  0  0  0  0
   55.3320   25.7820   45.9920 C   0  0  0  0  0  0  0  0  0  0  0  0
   54.1030   25.9660   45.7950 O   0  0  0  0  0  0  0  0  0  0  0  0
   55.7480   24.7440   46.7630 N   0  0  0  0  0  0  0  0  0  0  0  0
   59.0956   25.2090   46.5812 H   0  0  0  0  0  0  0  0  0  0  0  0
   58.9942   28.0412   45.7282 H   0  0  0  0  0  0  0  0  0  0  0  0
   59.3423   26.7747   44.4917 H   0  0  0  0  0  0  0  0  0  0  0  0
   56.9280   27.8010   43.7560 H   0  0  0  0  0  0  0  0  0  0  0  0
   58.4260   28.1360   43.0490 H   0  0  0  0  0  0  0  0  0  0  0  0
   59.9039   29.7236   44.8462 H   0  0  0  0  0  0  0  0  0  0  0  0
   59.7310   32.0846   45.6389 H   0  0  0  0  0  0  0  0  0  0  0  0
  1  2  2  0
  2  3  1  0
  3  4  2  0
  4  5  1  0
  5  6  1  0
  6  7  1  0
  7  8  2  0
  8  9  1  0
  9 10  2  0
 10 11  1  0
 11 12  1  0
 11 13  1  0
 11 14  1  0
 10 15  1  0
 15 16  1  0
 16 17  2  0
  4 18  1  0
 18 19  1  0
 19 20  2  0
 19 21  1  0
 21  2  1  0
 16  7  1  0
  3 22  1  0
  5 23  1  0
  5 24  1  0
  6 25  1  0
  6 26  1  0
  8 27  1  0
  9 28  1  0
M  CHG  4   6   1  15  -1  18  -1  21  -1
M  END
>  <UniqueID>  (44) 
41

>  <SMILES>  (44) 
O=c1cc(C[NH2+]c2ccc(C(F)(F)F)[n-]c2=O)[n-]c(=O)[n-]1

>  <Energy>  (44) 
30.6892994262793

>  <Genealogy>  (44) 
O=c1cc(C[NH2+]c2ccc(C(F)(F)F)[n-]c2=O)[n-]c(=O)[n-]1 (protonated)
O=c1cc(C[NH2+]c2ccc(C(F)(F)F)[n-]c2=O)[n-]c(=O)[n-]1 (3D coordinates assigned)
O=c1cc(C[NH2+]c2ccc(C(F)(F)F)[n-]c2=O)[n-]c(=O)[n-]1 (optimized conformer: 30.6892994262793 kcal/mol)

>  <smiles>  (44) 
O=c1cc(CNc2ccc(C(F)(F)F)[nH]c2=O)[nH]c(=O)[nH]1

>  <score_type>  (44) 
oracle

>  <origin>  (44) 
adg

>  <m_score__min__energy>  (44) 
-10.83

>  <m_primary>  (44) 
energy

$$$$
44:0
     RDKit          3D

 56 60  0  0  0  0  0  0  0  0999 V2000
   63.6790   34.1840   48.1000 O   0  0  0  0  0  0  0  0  0  0  0  0
   62.7520   33.3650   48.3490 C   0  0  0  0  0  0  0  0  0  0  0  0
   63.0120   31.9980   48.2940 O   0  0  0  0  0  0  0  0  0  0  0  0
   61.4030   33.8420   48.6960 C   0  0  0  0  0  0  0  0  0  0  0  0
   61.1340   34.1040   49.8990 O   0  0  0  0  0  0  0  0  0  0  0  0
   60.3450   34.0360   47.6420 C   0  0  0  0  0  0  0  0  0  0  0  0
   60.6650   33.2650   46.3560 C   0  0  0  0  0  0  0  0  0  0  0  0
   59.5480   32.3690   45.8830 C   0  0  0  0  0  0  0  0  0  0  0  0
   58.6870   32.7120   44.8850 N   0  0  0  0  0  0  0  0  0  0  0  0
   57.8440   31.6650   44.8330 C   0  0  0  0  0  0  0  0  0  0  0  0
   56.7460   31.5020   43.9930 C   0  0  0  0  0  0  0  0  0  0  0  0
   55.9790   30.3320   44.1360 C   0  0  0  0  0  0  0  0  0  0  0  0
   56.3230   29.3640   45.1100 C   0  0  0  0  0  0  0  0  0  0  0  0
   55.5530   28.2150   45.2450 O   0  0  0  0  0  0  0  0  0  0  0  0
   57.4390   29.5610   45.9440 C   0  0  0  0  0  0  0  0  0  0  0  0
   58.1790   30.7330   45.7700 C   0  0  0  0  0  0  0  0  0  0  0  0
   59.2550   31.1650   46.4500 N   0  0  0  0  0  0  0  0  0  0  0  0
   59.9090   30.5100   47.5900 C   0  0  0  0  0  0  0  0  0  0  0  0
   59.1120   30.6930   48.8570 C   0  0  0  0  0  0  0  0  0  0  0  0
   58.5430   31.9400   49.1580 C   0  0  0  0  0  0  0  0  0  0  0  0
   57.7830   32.1100   50.3190 C   0  0  0  0  0  0  0  0  0  0  0  0
   57.5770   31.0420   51.1970 C   0  0  0  0  0  0  0  0  0  0  0  0
   56.8100   31.2680   52.3490 O   0  0  0  0  0  0  0  0  0  0  0  0
   55.4060   31.5180   52.3470 C   0  0  0  0  0  0  0  0  0  0  0  0
   54.6640   30.2500   52.6990 C   0  0  0  0  0  0  0  0  0  0  0  0
   55.3970   29.1930   53.2700 C   0  0  0  0  0  0  0  0  0  0  0  0
   54.7810   27.9790   53.5730 C   0  0  0  0  0  0  0  0  0  0  0  0
   53.4270   27.7990   53.3110 C   0  0  0  0  0  0  0  0  0  0  0  0
   52.6780   28.8340   52.7550 C   0  0  0  0  0  0  0  0  0  0  0  0
   53.2730   30.0730   52.4470 C   0  0  0  0  0  0  0  0  0  0  0  0
   52.4050   31.1350   51.8710 C   0  0  0  0  0  0  0  0  0  0  0  0
   51.6400   31.9860   52.5800 N   0  0  0  0  0  0  0  0  0  0  0  0
   51.0200   32.7200   51.6740 N   0  0  0  0  0  0  0  0  0  0  0  0
   51.3770   32.3340   50.4620 N   0  0  0  0  0  0  0  0  0  0  0  0
   52.2410   31.3390   50.5520 N   0  0  0  0  0  0  0  0  0  0  0  0
   58.1390   29.7880   50.8950 C   0  0  0  0  0  0  0  0  0  0  0  0
   58.8860   29.6110   49.7270 C   0  0  0  0  0  0  0  0  0  0  0  0
   59.3813   33.6824   48.0373 H   0  0  0  0  0  0  0  0  0  0  0  0
   60.3055   35.1070   47.3943 H   0  0  0  0  0  0  0  0  0  0  0  0
   60.8838   33.9936   45.5615 H   0  0  0  0  0  0  0  0  0  0  0  0
   61.5219   32.6130   46.5811 H   0  0  0  0  0  0  0  0  0  0  0  0
   56.4869   32.2631   43.2423 H   0  0  0  0  0  0  0  0  0  0  0  0
   55.1062   30.1680   43.4869 H   0  0  0  0  0  0  0  0  0  0  0  0
   57.7188   28.8186   46.7059 H   0  0  0  0  0  0  0  0  0  0  0  0
   60.0049   29.4347   47.3789 H   0  0  0  0  0  0  0  0  0  0  0  0
   60.8989   30.9679   47.7329 H   0  0  0  0  0  0  0  0  0  0  0  0
   58.6960   32.7893   48.4759 H   0  0  0  0  0  0  0  0  0  0  0  0
   57.3432   33.0929   50.5436 H   0  0  0  0  0  0  0  0  0  0  0  0
   55.1719   32.2966   53.0879 H   0  0  0  0  0  0  0  0  0  0  0  0
   55.0970   31.8560   51.3469 H   0  0  0  0  0  0  0  0  0  0  0  0
   56.4686   29.3259   53.4798 H   0  0  0  0  0  0  0  0  0  0  0  0
   55.3670   27.1624   54.0200 H   0  0  0  0  0  0  0  0  0  0  0  0
   52.9463   26.8372   53.5433 H   0  0  0  0  0  0  0  0  0  0  0  0
   51.6074   28.6814   52.5538 H   0  0  0  0  0  0  0  0  0  0  0  0
   57.9896   28.9420   51.5821 H   0  0  0  0  0  0  0  0  0  0  0  0
   59.2994   28.6203   49.4868 H   0  0  0  0  0  0  0  0  0  0  0  0
  1  2  2  0
  2  3  1  0
  2  4  1  0
  4  5  2  0
  4  6  1  0
  6  7  1  0
  7  8  1  0
  8  9  2  0
  9 10  1  0
 10 11  2  0
 11 12  1  0
 12 13  2  0
 13 14  1  0
 13 15  1  0
 15 16  2  0
 16 17  1  0
 17 18  1  0
 18 19  1  0
 19 20  2  0
 20 21  1  0
 21 22  2  0
 22 23  1  0
 23 24  1  0
 24 25  1  0
 25 26  2  0
 26 27  1  0
 27 28  2  0
 28 29  1  0
 29 30  2  0
 30 31  1  0
 31 32  1  0
 32 33  2  0
 33 34  1  0
 34 35  1  0
 22 36  1  0
 36 37  2  0
 17  8  1  0
 37 19  1  0
 16 10  1  0
 30 25  1  0
 35 31  2  0
  6 38  1  0
  6 39  1  0
  7 40  1  0
  7 41  1  0
 11 42  1  0
 12 43  1  0
 15 44  1  0
 18 45  1  0
 18 46  1  0
 20 47  1  0
 21 48  1  0
 24 49  1  0
 24 50  1  0
 26 51  1  0
 27 52  1  0
 28 53  1  0
 29 54  1  0
 36 55  1  0
 37 56  1  0
M  CHG  3   3  -1  14  -1  34  -1
M  END
>  <UniqueID>  (45) 
42

>  <SMILES>  (45) 
O=C([O-])C(=O)CCc1nc2ccc([O-])cc2n1Cc1ccc(OCc2ccccc2-c2nn[n-]n2)cc1

>  <Energy>  (45) 
138.70979908478267

>  <Genealogy>  (45) 
O=C([O-])C(=O)CCc1nc2ccc([O-])cc2n1Cc1ccc(OCc2ccccc2-c2nn[n-]n2)cc1 (protonated)
O=C([O-])C(=O)CCc1nc2ccc([O-])cc2n1Cc1ccc(OCc2ccccc2-c2nn[n-]n2)cc1 (3D coordinates assigned)
O=C([O-])C(=O)CCc1nc2ccc([O-])cc2n1Cc1ccc(OCc2ccccc2-c2nn[n-]n2)cc1 (optimized conformer: 138.70979908478267 kcal/mol)

>  <smiles>  (45) 
O=C(O)C(=O)CCc1nc2ccc(O)cc2n1Cc1ccc(OCc2ccccc2-c2nn[nH]n2)cc1

>  <score_type>  (45) 
oracle

>  <origin>  (45) 
adg

>  <m_score__min__energy>  (45) 
-15.06

>  <m_primary>  (45) 
energy

$$$$
45:0
     RDKit          3D

 48 50  0  0  0  0  0  0  0  0999 V2000
   55.5350   28.8560   45.0970 N   0  0  0  0  0  0  0  0  0  0  0  0
   56.6040   29.9330   44.2690 S   0  0  0  0  0  0  0  0  0  0  0  0
   56.1120   31.3460   44.4210 O   0  0  0  0  0  0  0  0  0  0  0  0
   56.6320   29.5860   42.8060 O   0  0  0  0  0  0  0  0  0  0  0  0
   58.2200   29.7880   44.9500 C   0  0  0  0  0  0  0  0  0  0  0  0
   59.0040   28.6620   44.6690 C   0  0  0  0  0  0  0  0  0  0  0  0
   60.2840   28.5470   45.2140 C   0  0  0  0  0  0  0  0  0  0  0  0
   60.7860   29.5470   46.0500 C   0  0  0  0  0  0  0  0  0  0  0  0
   60.0040   30.6750   46.3590 C   0  0  0  0  0  0  0  0  0  0  0  0
   60.5250   31.7470   47.2420 C   0  0  0  0  0  0  0  0  0  0  0  0
   60.6790   31.5150   48.4720 O   0  0  0  0  0  0  0  0  0  0  0  0
   60.8710   33.0380   46.7150 N   0  0  0  0  0  0  0  0  0  0  0  0
   61.1470   34.1830   47.5800 C   0  0  0  0  0  0  0  0  0  0  0  0
   62.3580   33.9120   48.4290 C   0  0  0  0  0  0  0  0  0  0  0  0
   62.3810   34.3050   49.7740 C   0  0  0  0  0  0  0  0  0  0  0  0
   63.4960   34.0240   50.5660 C   0  0  0  0  0  0  0  0  0  0  0  0
   64.5920   33.3500   50.0060 C   0  0  0  0  0  0  0  0  0  0  0  0
   65.7530   33.0300   50.7980 N   0  0  0  0  0  0  0  0  0  0  0  0
   66.4770   31.7760   50.5460 C   0  0  0  0  0  0  0  0  0  0  0  0
   67.6080   31.5990   51.5680 C   0  0  0  0  0  0  0  0  0  0  0  0
   68.6970   32.6940   51.4870 C   0  0  0  0  0  0  0  0  0  0  0  0
   68.3850   33.7550   50.6030 O   0  0  0  0  0  0  0  0  0  0  0  0
   67.5280   34.7030   51.2080 C   0  0  0  0  0  0  0  0  0  0  0  0
   66.2930   33.9920   51.7700 C   0  0  0  0  0  0  0  0  0  0  0  0
   64.5360   32.9600   48.7010 N   0  0  0  0  0  0  0  0  0  0  0  0
   63.4620   33.2230   47.9110 C   0  0  0  0  0  0  0  0  0  0  0  0
   58.7200   30.7890   45.7940 C   0  0  0  0  0  0  0  0  0  0  0  0
   54.7160   29.4220   45.4130 H   0  0  0  0  0  0  0  0  0  0  0  0
   58.6107   27.8673   44.0181 H   0  0  0  0  0  0  0  0  0  0  0  0
   60.8999   27.6651   44.9841 H   0  0  0  0  0  0  0  0  0  0  0  0
   61.7986   29.4521   46.4692 H   0  0  0  0  0  0  0  0  0  0  0  0
   60.9730   33.1690   45.6850 H   0  0  0  0  0  0  0  0  0  0  0  0
   61.3303   35.0720   46.9587 H   0  0  0  0  0  0  0  0  0  0  0  0
   60.2804   34.3552   48.2352 H   0  0  0  0  0  0  0  0  0  0  0  0
   61.5197   34.8354   50.2062 H   0  0  0  0  0  0  0  0  0  0  0  0
   63.5152   34.3291   51.6227 H   0  0  0  0  0  0  0  0  0  0  0  0
   65.7780   30.9306   50.6284 H   0  0  0  0  0  0  0  0  0  0  0  0
   66.9102   31.8099   49.5354 H   0  0  0  0  0  0  0  0  0  0  0  0
   67.1703   31.6186   52.5770 H   0  0  0  0  0  0  0  0  0  0  0  0
   68.0985   30.6408   51.3414 H   0  0  0  0  0  0  0  0  0  0  0  0
   68.8404   33.1138   52.4936 H   0  0  0  0  0  0  0  0  0  0  0  0
   69.6042   32.2109   51.0951 H   0  0  0  0  0  0  0  0  0  0  0  0
   68.0618   35.2107   52.0248 H   0  0  0  0  0  0  0  0  0  0  0  0
   67.2141   35.4438   50.4579 H   0  0  0  0  0  0  0  0  0  0  0  0
   66.5730   33.4564   52.6891 H   0  0  0  0  0  0  0  0  0  0  0  0
   65.5210   34.7457   51.9842 H   0  0  0  0  0  0  0  0  0  0  0  0
   63.4597   32.8938   46.8614 H   0  0  0  0  0  0  0  0  0  0  0  0
   58.1031   31.6720   46.0169 H   0  0  0  0  0  0  0  0  0  0  0  0
  1  2  1  0
  2  3  2  0
  2  4  2  0
  2  5  1  0
  5  6  2  0
  6  7  1  0
  7  8  2  0
  8  9  1  0
  9 10  1  0
 10 11  2  0
 10 12  1  0
 12 13  1  0
 13 14  1  0
 14 15  2  0
 15 16  1  0
 16 17  2  0
 17 18  1  0
 18 19  1  0
 19 20  1  0
 20 21  1  0
 21 22  1  0
 22 23  1  0
 23 24  1  0
 17 25  1  0
 25 26  2  0
  9 27  2  0
 27  5  1  0
 26 14  1  0
 24 18  1  0
  1 28  1  0
  6 29  1  0
  7 30  1  0
  8 31  1  0
 12 32  1  0
 13 33  1  0
 13 34  1  0
 15 35  1  0
 16 36  1  0
 19 37  1  0
 19 38  1  0
 20 39  1  0
 20 40  1  0
 21 41  1  0
 21 42  1  0
 23 43  1  0
 23 44  1  0
 24 45  1  0
 24 46  1  0
 26 47  1  0
 27 48  1  0
M  CHG  1   1  -1
M  END
>  <UniqueID>  (46) 
43

>  <SMILES>  (46) 
[NH-]S(=O)(=O)c1cccc(C(=O)NCc2ccc(N3CCCOCC3)nc2)c1

>  <Energy>  (46) 
58.54314093133054

>  <Genealogy>  (46) 
[NH-]S(=O)(=O)c1cccc(C(=O)NCc2ccc(N3CCCOCC3)nc2)c1 (protonated)
[NH-]S(=O)(=O)c1cccc(C(=O)NCc2ccc(N3CCCOCC3)nc2)c1 (3D coordinates assigned)
[NH-]S(=O)(=O)c1cccc(C(=O)NCc2ccc(N3CCCOCC3)nc2)c1 (nonaromatic ring conformer: 58.54314093133054 kcal/mol)

>  <smiles>  (46) 
NS(=O)(=O)c1cccc(C(=O)NCc2ccc(N3CCCOCC3)nc2)c1

>  <score_type>  (46) 
oracle

>  <origin>  (46) 
adg

>  <m_score__min__energy>  (46) 
-9.4900000000000002

>  <m_primary>  (46) 
energy

$$$$
46:0
     RDKit          3D

 46 47  0  0  0  0  0  0  0  0999 V2000
   59.5786   33.9574   49.2592 H   0  0  0  0  0  0  0  0  0  0  0  0
   59.7680   33.5040   48.2750 C   0  0  0  0  0  0  0  0  0  0  0  0
   56.6190   30.5590   44.1370 C   0  0  0  0  0  0  0  0  0  0  0  0
   55.9170   29.8420   44.9000 O   0  0  0  0  0  0  0  0  0  0  0  0
   56.6190   30.2900   42.6670 C   0  0  0  0  0  0  0  0  0  0  0  0
   57.6561   30.2240   42.3063 H   0  0  0  0  0  0  0  0  0  0  0  0
   56.1005   29.3405   42.4680 H   0  0  0  0  0  0  0  0  0  0  0  0
   56.1005   31.1075   42.1447 H   0  0  0  0  0  0  0  0  0  0  0  0
   57.6920   34.0050   45.2980 C   0  0  0  0  0  0  0  0  0  0  0  0
   57.4174   34.8060   44.5959 H   0  0  0  0  0  0  0  0  0  0  0  0
   57.4520   31.6500   44.6800 C   0  0  0  0  0  0  0  0  0  0  0  0
   55.9111   32.7024   45.6666 H   0  0  0  0  0  0  0  0  0  0  0  0
   56.9250   32.7430   45.2420 C   0  0  0  0  0  0  0  0  0  0  0  0
   58.7060   34.2370   46.1540 C   0  0  0  0  0  0  0  0  0  0  0  0
   58.5467   31.5606   44.6201 H   0  0  0  0  0  0  0  0  0  0  0  0
   58.7590   33.4290   47.3960 C   0  0  0  0  0  0  0  0  0  0  0  0
   57.9314   32.7354   47.6059 H   0  0  0  0  0  0  0  0  0  0  0  0
   61.1270   33.0010   47.9740 C   0  0  0  0  0  0  0  0  0  0  0  0
   61.4460   31.8040   47.4780 C   0  0  0  0  0  0  0  0  0  0  0  0
   60.5150   30.6710   47.2630 C   0  0  0  0  0  0  0  0  0  0  0  0
   60.4000   30.0870   45.9920 C   0  0  0  0  0  0  0  0  0  0  0  0
   61.0050   30.4709   45.1574 H   0  0  0  0  0  0  0  0  0  0  0  0
   59.5210   29.0200   45.7800 C   0  0  0  0  0  0  0  0  0  0  0  0
   59.4391   28.5684   44.7803 H   0  0  0  0  0  0  0  0  0  0  0  0
   58.7430   28.5230   46.8370 C   0  0  0  0  0  0  0  0  0  0  0  0
   57.8240   27.3580   46.6170 C   0  0  0  0  0  0  0  0  0  0  0  0
   57.5052   26.9538   47.5891 H   0  0  0  0  0  0  0  0  0  0  0  0
   56.9413   27.6892   46.0503 H   0  0  0  0  0  0  0  0  0  0  0  0
   58.3516   26.5767   46.0503 H   0  0  0  0  0  0  0  0  0  0  0  0
   58.8860   29.0770   48.1160 C   0  0  0  0  0  0  0  0  0  0  0  0
   58.3028   28.6718   48.9561 H   0  0  0  0  0  0  0  0  0  0  0  0
   59.7660   30.1420   48.3300 C   0  0  0  0  0  0  0  0  0  0  0  0
   59.8734   30.5687   49.3382 H   0  0  0  0  0  0  0  0  0  0  0  0
   62.9070   31.6860   47.2230 C   0  0  0  0  0  0  0  0  0  0  0  0
   63.3158   30.7920   47.7165 H   0  0  0  0  0  0  0  0  0  0  0  0
   63.1353   31.5830   46.1519 H   0  0  0  0  0  0  0  0  0  0  0  0
   63.5100   32.9560   47.8230 C   0  0  0  0  0  0  0  0  0  0  0  0
   64.1108   32.7107   48.7112 H   0  0  0  0  0  0  0  0  0  0  0  0
   64.1751   33.4621   47.1078 H   0  0  0  0  0  0  0  0  0  0  0  0
   62.3270   33.8440   48.2110 C   0  0  0  0  0  0  0  0  0  0  0  0
   62.3925   34.1363   49.2694 H   0  0  0  0  0  0  0  0  0  0  0  0
   62.3002   34.7777   47.6301 H   0  0  0  0  0  0  0  0  0  0  0  0
   59.7490   35.2950   45.8830 C   0  0  0  0  0  0  0  0  0  0  0  0
   60.1329   35.6844   46.8375 H   0  0  0  0  0  0  0  0  0  0  0  0
   60.5765   34.8551   45.3071 H   0  0  0  0  0  0  0  0  0  0  0  0
   59.2973   36.1161   45.3071 H   0  0  0  0  0  0  0  0  0  0  0  0
  1  2  1  0
  2  3  1  0
  3  4  2  0
  3  5  1  0
  5  6  1  0
  5  7  1  0
  5  8  1  0
  2  9  2  0
  9 10  1  0
  9 11  1  0
 11 12  1  0
 11 13  2  0
 13 14  1  0
 14 15  1  0
 14 16  2  0
 16 17  1  0
 16 18  1  0
 18 19  2  0
 19 20  1  0
 20 21  2  0
 21 22  1  0
 21 23  1  0
 23 24  1  0
 23 25  2  0
 25 26  1  0
 26 27  1  0
 26 28  1  0
 26 29  1  0
 25 30  1  0
 30 31  1  0
 30 32  2  0
 32 33  1  0
 19 34  1  0
 34 35  1  0
 34 36  1  0
 34 37  1  0
 37 38  1  0
 37 39  1  0
 37 40  1  0
 40 41  1  0
 40 42  1  0
 13 43  1  0
 43 44  1  0
 43 45  1  0
 43 46  1  0
 40 18  1  0
 32 20  1  0
M  END
>  <UniqueID>  (47) 
44

>  <SMILES>  (47) 
CC(=O)/C=C/C=C(C)/C=C/C1=C(c2ccc(C)cc2)CCC1

>  <Energy>  (47) 
54.214581908410636

>  <Genealogy>  (47) 
CC(=O)/C=C/C=C(C)/C=C/C1=C(c2ccc(C)cc2)CCC1 (cis-trans isomerization)
CC(=O)/C=C/C=C(C)/C=C/C1=C(c2ccc(C)cc2)CCC1 (3D coordinates assigned)
CC(=O)/C=C/C=C(C)/C=C/C1=C(c2ccc(C)cc2)CCC1 (nonaromatic ring conformer: 54.214581908410636 kcal/mol)

>  <smiles>  (47) 
CC(=O)C=CC=C(C)C=CC1=C(c2ccc(C)cc2)CCC1

>  <score_type>  (47) 
oracle

>  <origin>  (47) 
adg

>  <m_score__min__energy>  (47) 
-8.5099999999999998

>  <m_primary>  (47) 
energy

$$$$
47:0
     RDKit          3D

 50 52  0  0  0  0  0  0  0  0999 V2000
   55.7505   24.6023   47.9724 H   0  0  0  0  0  0  0  0  0  0  0  0
   56.5290   24.6880   47.2000 C   0  0  0  0  0  0  0  0  0  0  0  0
   56.9270   25.9490   46.7560 C   0  0  0  0  0  0  0  0  0  0  0  0
   56.4727   26.8506   47.1928 H   0  0  0  0  0  0  0  0  0  0  0  0
   57.9030   26.0750   45.7560 C   0  0  0  0  0  0  0  0  0  0  0  0
   58.3560   27.3650   45.3100 N   0  0  0  0  0  0  0  0  0  0  0  0
   59.3720   27.4840   45.0980 H   0  0  0  0  0  0  0  0  0  0  0  0
   57.4850   28.4760   45.0470 C   0  0  0  0  0  0  0  0  0  0  0  0
   56.2450   28.2920   44.9160 O   0  0  0  0  0  0  0  0  0  0  0  0
   58.0460   29.7870   44.8820 N   0  0  0  0  0  0  0  0  0  0  0  0
   59.0820   29.8900   44.9540 H   0  0  0  0  0  0  0  0  0  0  0  0
   57.2620   30.9730   44.6630 C   0  0  0  0  0  0  0  0  0  0  0  0
   56.0170   30.9580   44.8610 O   0  0  0  0  0  0  0  0  0  0  0  0
   57.8930   32.2180   44.3330 N   0  0  0  0  0  0  0  0  0  0  0  0
   58.3740   33.1100   45.1560 C   0  0  0  0  0  0  0  0  0  0  0  0
   59.1390   34.2120   44.7150 C   0  0  0  0  0  0  0  0  0  0  0  0
   59.3534   34.3440   43.6442 H   0  0  0  0  0  0  0  0  0  0  0  0
   59.6210   35.1320   45.6460 C   0  0  0  0  0  0  0  0  0  0  0  0
   60.2269   35.9870   45.3115 H   0  0  0  0  0  0  0  0  0  0  0  0
   59.3350   34.9680   47.0000 C   0  0  0  0  0  0  0  0  0  0  0  0
   59.7184   35.6850   47.7409 H   0  0  0  0  0  0  0  0  0  0  0  0
   58.5570   33.8840   47.4040 C   0  0  0  0  0  0  0  0  0  0  0  0
   58.3186   33.7482   48.4692 H   0  0  0  0  0  0  0  0  0  0  0  0
   58.0910   32.9930   46.4870 N   0  0  0  0  0  0  0  0  0  0  0  0
   57.5110   32.1910   46.8240 H   0  0  0  0  0  0  0  0  0  0  0  0
   58.4880   24.9180   45.2230 C   0  0  0  0  0  0  0  0  0  0  0  0
   59.2707   25.0099   44.4556 H   0  0  0  0  0  0  0  0  0  0  0  0
   58.0870   23.6390   45.6570 C   0  0  0  0  0  0  0  0  0  0  0  0
   58.6160   22.4670   45.0900 O   0  0  0  0  0  0  0  0  0  0  0  0
   59.9990   22.2360   44.8480 C   0  0  0  0  0  0  0  0  0  0  0  0
   60.5294   22.1474   45.8076 H   0  0  0  0  0  0  0  0  0  0  0  0
   60.1204   21.3051   44.2746 H   0  0  0  0  0  0  0  0  0  0  0  0
   60.4164   23.0769   44.2746 H   0  0  0  0  0  0  0  0  0  0  0  0
   57.1130   23.5290   46.6700 C   0  0  0  0  0  0  0  0  0  0  0  0
   56.6830   22.2090   47.1770 C   0  0  0  0  0  0  0  0  0  0  0  0
   57.0320   21.8610   48.3380 O   0  0  0  0  0  0  0  0  0  0  0  0
   55.9130   21.3000   46.3650 N   0  0  0  0  0  0  0  0  0  0  0  0
   54.8920   20.4430   46.9740 C   0  0  0  0  0  0  0  0  0  0  0  0
   55.1200   20.3038   48.0411 H   0  0  0  0  0  0  0  0  0  0  0  0
   53.9056   20.9179   46.8667 H   0  0  0  0  0  0  0  0  0  0  0  0
   54.8790   19.0810   46.2740 C   0  0  0  0  0  0  0  0  0  0  0  0
   55.8144   18.5495   46.5033 H   0  0  0  0  0  0  0  0  0  0  0  0
   54.0124   18.5084   46.6362 H   0  0  0  0  0  0  0  0  0  0  0  0
   54.7650   19.2340   44.8710 O   0  0  0  0  0  0  0  0  0  0  0  0
   55.9160   19.8850   44.3660 C   0  0  0  0  0  0  0  0  0  0  0  0
   56.8113   19.3252   44.6743 H   0  0  0  0  0  0  0  0  0  0  0  0
   55.8468   19.9227   43.2688 H   0  0  0  0  0  0  0  0  0  0  0  0
   56.0100   21.3160   44.9010 C   0  0  0  0  0  0  0  0  0  0  0  0
   56.9728   21.7562   44.6024 H   0  0  0  0  0  0  0  0  0  0  0  0
   55.1870   21.9165   44.4863 H   0  0  0  0  0  0  0  0  0  0  0  0
  1  2  1  0
  2  3  2  0
  3  4  1  0
  3  5  1  0
  5  6  1  0
  6  7  1  0
  6  8  1  0
  8  9  2  0
  8 10  1  0
 10 11  1  0
 10 12  1  0
 12 13  2  0
 12 14  1  0
 14 15  2  0
 15 16  1  0
 16 17  1  0
 16 18  2  0
 18 19  1  0
 18 20  1  0
 20 21  1  0
 20 22  2  0
 22 23  1  0
 22 24  1  0
 24 25  1  0
  5 26  2  0
 26 27  1  0
 26 28  1  0
 28 29  1  0
 29 30  1  0
 30 31  1  0
 30 32  1  0
 30 33  1  0
 28 34  2  0
 34 35  1  0
 35 36  2  0
 35 37  1  0
 37 38  1  0
 38 39  1  0
 38 40  1  0
 38 41  1  0
 41 42  1  0
 41 43  1  0
 41 44  1  0
 44 45  1  0
 45 46  1  0
 45 47  1  0
 45 48  1  0
 48 49  1  0
 48 50  1  0
 34  2  1  0
 48 37  1  0
 24 15  1  0
M  END
>  <UniqueID>  (48) 
45

>  <SMILES>  (48) 
COc1cc(NC(=O)NC(=O)/N=c2\cccc[nH]2)ccc1C(=O)N1CCOCC1

>  <Energy>  (48) 
70.1971658352582

>  <Genealogy>  (48) 
COc1cc(NC(=O)NC(=O)/N=c2\cccc[nH]2)ccc1C(=O)N1CCOCC1 (cis-trans isomerization)
COc1cc(NC(=O)NC(=O)/N=c2\cccc[nH]2)ccc1C(=O)N1CCOCC1 (3D coordinates assigned)
COc1cc(NC(=O)NC(=O)/N=c2\cccc[nH]2)ccc1C(=O)N1CCOCC1 (nonaromatic ring conformer: 70.1971658352582 kcal/mol)

>  <smiles>  (48) 
COc1cc(NC(=O)NC(=O)N=c2cccc[nH]2)ccc1C(=O)N1CCOCC1

>  <score_type>  (48) 
oracle

>  <origin>  (48) 
adg

>  <m_score__min__energy>  (48) 
-8.5

>  <m_primary>  (48) 
energy

$$$$
48:0
     RDKit          3D

 58 61  0  0  0  0  0  0  0  0999 V2000
   59.7750   33.8040   51.4110 C   0  0  0  0  0  0  0  0  0  0  0  0
   59.5450   33.6000   49.9780 N   0  0  0  0  0  0  0  0  0  0  0  0
   60.1110   34.5600   49.0060 C   0  0  0  0  0  0  0  0  0  0  0  0
   61.3890   34.0450   48.3870 C   0  0  0  0  0  0  0  0  0  0  0  0
   61.5170   33.9460   46.9910 C   0  0  0  0  0  0  0  0  0  0  0  0
   62.7080   33.4800   46.4240 C   0  0  0  0  0  0  0  0  0  0  0  0
   63.7710   33.0930   47.2440 C   0  0  0  0  0  0  0  0  0  0  0  0
   63.6450   33.1640   48.6340 C   0  0  0  0  0  0  0  0  0  0  0  0
   62.4600   33.6370   49.2060 C   0  0  0  0  0  0  0  0  0  0  0  0
   58.7950   32.4330   49.5630 C   0  0  0  0  0  0  0  0  0  0  0  0
   57.8040   32.0540   50.2450 O   0  0  0  0  0  0  0  0  0  0  0  0
   59.1820   31.6280   48.3890 C   0  0  0  0  0  0  0  0  0  0  0  0
   58.5940   31.8910   47.1440 C   0  0  0  0  0  0  0  0  0  0  0  0
   58.9000   31.0960   46.0380 C   0  0  0  0  0  0  0  0  0  0  0  0
   59.8030   30.0260   46.1590 C   0  0  0  0  0  0  0  0  0  0  0  0
   60.0740   29.1140   44.9890 C   0  0  0  0  0  0  0  0  0  0  0  0
   59.4060   27.8050   45.1840 N   0  0  0  0  0  0  0  0  0  0  0  0
   60.0050   26.8540   45.9760 C   0  0  0  0  0  0  0  0  0  0  0  0
   61.1480   27.0490   46.4740 O   0  0  0  0  0  0  0  0  0  0  0  0
   59.3600   25.6520   46.2520 C   0  0  0  0  0  0  0  0  0  0  0  0
   58.1040   25.4140   45.7040 C   0  0  0  0  0  0  0  0  0  0  0  0
   57.3830   24.2130   46.0330 N   0  0  0  0  0  0  0  0  0  0  0  0
   57.5570   23.0060   45.2060 C   0  0  0  0  0  0  0  0  0  0  0  0
   57.2940   21.7000   45.9950 C   0  0  0  0  0  0  0  0  0  0  0  0
   57.0690   21.9180   47.3710 O   0  0  0  0  0  0  0  0  0  0  0  0
   56.0000   22.8230   47.5300 C   0  0  0  0  0  0  0  0  0  0  0  0
   56.4730   24.2330   47.1830 C   0  0  0  0  0  0  0  0  0  0  0  0
   57.5400   26.3550   44.9030 N   0  0  0  0  0  0  0  0  0  0  0  0
   58.1660   27.5370   44.6380 C   0  0  0  0  0  0  0  0  0  0  0  0
   57.3910   28.6130   43.6590 S   0  0  0  0  0  0  0  0  0  0  0  0
   60.4250   29.7950   47.3980 C   0  0  0  0  0  0  0  0  0  0  0  0
   60.1220   30.5950   48.5030 C   0  0  0  0  0  0  0  0  0  0  0  0
   59.0739   33.1822   51.9871 H   0  0  0  0  0  0  0  0  0  0  0  0
   60.8078   33.5195   51.6607 H   0  0  0  0  0  0  0  0  0  0  0  0
   59.6159   34.8634   51.6607 H   0  0  0  0  0  0  0  0  0  0  0  0
   59.3743   34.7347   48.2081 H   0  0  0  0  0  0  0  0  0  0  0  0
   60.3425   35.4923   49.5419 H   0  0  0  0  0  0  0  0  0  0  0  0
   60.6777   34.2360   46.3418 H   0  0  0  0  0  0  0  0  0  0  0  0
   62.8078   33.4181   45.3303 H   0  0  0  0  0  0  0  0  0  0  0  0
   64.7081   32.7320   46.7950 H   0  0  0  0  0  0  0  0  0  0  0  0
   64.4785   32.8476   49.2784 H   0  0  0  0  0  0  0  0  0  0  0  0
   62.3637   33.6907   50.3005 H   0  0  0  0  0  0  0  0  0  0  0  0
   57.8880   32.7279   47.0380 H   0  0  0  0  0  0  0  0  0  0  0  0
   58.4314   31.3084   45.0657 H   0  0  0  0  0  0  0  0  0  0  0  0
   59.6920   29.5817   44.0696 H   0  0  0  0  0  0  0  0  0  0  0  0
   61.1589   28.9509   44.9095 H   0  0  0  0  0  0  0  0  0  0  0  0
   59.8379   24.8991   46.8960 H   0  0  0  0  0  0  0  0  0  0  0  0
   56.8550   23.0541   44.3605 H   0  0  0  0  0  0  0  0  0  0  0  0
   58.6025   22.9841   44.8648 H   0  0  0  0  0  0  0  0  0  0  0  0
   56.4075   21.2069   45.5695 H   0  0  0  0  0  0  0  0  0  0  0  0
   58.1960   21.0767   45.9058 H   0  0  0  0  0  0  0  0  0  0  0  0
   55.1750   22.5376   46.8608 H   0  0  0  0  0  0  0  0  0  0  0  0
   55.6503   22.7990   48.5727 H   0  0  0  0  0  0  0  0  0  0  0  0
   55.5996   24.8560   46.9400 H   0  0  0  0  0  0  0  0  0  0  0  0
   57.0111   24.6456   48.0491 H   0  0  0  0  0  0  0  0  0  0  0  0
   56.6030   26.1650   44.4810 H   0  0  0  0  0  0  0  0  0  0  0  0
   61.1555   28.9787   47.4986 H   0  0  0  0  0  0  0  0  0  0  0  0
   60.6229   30.4133   49.4653 H   0  0  0  0  0  0  0  0  0  0  0  0
  1  2  1  0
  2  3  1  0
  3  4  1  0
  4  5  2  0
  5  6  1  0
  6  7  2  0
  7  8  1  0
  8  9  2  0
  2 10  1  0
 10 11  2  0
 10 12  1  0
 12 13  2  0
 13 14  1  0
 14 15  2  0
 15 16  1  0
 16 17  1  0
 17 18  1  0
 18 19  2  0
 18 20  1  0
 20 21  2  0
 21 22  1  0
 22 23  1  0
 23 24  1  0
 24 25  1  0
 25 26  1  0
 26 27  1  0
 21 28  1  0
 28 29  1  0
 29 30  2  0
 15 31  1  0
 31 32  2  0
  9  4  1  0
 32 12  1  0
 29 17  1  0
 27 22  1  0
  1 33  1  0
  1 34  1  0
  1 35  1  0
  3 36  1  0
  3 37  1  0
  5 38  1  0
  6 39  1  0
  7 40  1  0
  8 41  1  0
  9 42  1  0
 13 43  1  0
 14 44  1  0
 16 45  1  0
 16 46  1  0
 20 47  1  0
 23 48  1  0
 23 49  1  0
 24 50  1  0
 24 51  1  0
 26 52  1  0
 26 53  1  0
 27 54  1  0
 27 55  1  0
 28 56  1  0
 31 57  1  0
 32 58  1  0
M  END
>  <UniqueID>  (49) 
46

>  <SMILES>  (49) 
CN(Cc1ccccc1)C(=O)c1ccc(Cn2c(=O)cc(N3CCOCC3)[nH]c2=S)cc1

>  <Energy>  (49) 
77.69592171872736

>  <Genealogy>  (49) 
CN(Cc1ccccc1)C(=O)c1ccc(Cn2c(=O)cc(N3CCOCC3)[nH]c2=S)cc1 (3D coordinates assigned)
CN(Cc1ccccc1)C(=O)c1ccc(Cn2c(=O)cc(N3CCOCC3)[nH]c2=S)cc1 (nonaromatic ring conformer: 77.69592171872736 kcal/mol)

>  <smiles>  (49) 
CN(Cc1ccccc1)C(=O)c1ccc(Cn2c(=O)cc(N3CCOCC3)[nH]c2=S)cc1

>  <score_type>  (49) 
oracle

>  <origin>  (49) 
adg

>  <m_score__min__energy>  (49) 
-9.1300000000000008

>  <m_primary>  (49) 
energy

$$$$
49:0
     RDKit          3D

 42 44  0  0  0  0  0  0  0  0999 V2000
   56.8970   24.9290   44.5910 C   0  0  0  0  0  0  0  0  0  0  0  0
   55.8400   25.6770   45.8130 S   0  0  0  0  0  0  0  0  0  0  0  0
   56.3000   25.3170   47.1970 O   0  0  0  0  0  0  0  0  0  0  0  0
   54.4420   25.1620   45.6190 O   0  0  0  0  0  0  0  0  0  0  0  0
   55.8290   27.4010   45.6210 N   0  0  0  0  0  0  0  0  0  0  0  0
   56.9570   28.2120   45.2620 C   0  0  0  0  0  0  0  0  0  0  0  0
   58.2760   27.8480   45.5820 C   0  0  0  0  0  0  0  0  0  0  0  0
   59.3430   28.6690   45.2070 C   0  0  0  0  0  0  0  0  0  0  0  0
   59.1060   29.8540   44.5090 C   0  0  0  0  0  0  0  0  0  0  0  0
   57.7950   30.2290   44.1720 C   0  0  0  0  0  0  0  0  0  0  0  0
   57.5320   31.4870   43.4350 C   0  0  0  0  0  0  0  0  0  0  0  0
   57.4780   31.4660   42.1760 O   0  0  0  0  0  0  0  0  0  0  0  0
   57.2840   32.7280   44.1110 N   0  0  0  0  0  0  0  0  0  0  0  0
   57.9660   33.2060   45.2800 C   0  0  0  0  0  0  0  0  0  0  0  0
   58.7170   34.3940   45.2650 C   0  0  0  0  0  0  0  0  0  0  0  0
   59.3580   34.8400   46.4240 C   0  0  0  0  0  0  0  0  0  0  0  0
   59.2310   34.1190   47.6250 C   0  0  0  0  0  0  0  0  0  0  0  0
   59.8870   34.5290   48.8340 N   0  0  0  0  0  0  0  0  0  0  0  0
   61.1200   34.0170   49.3550 C   0  0  0  0  0  0  0  0  0  0  0  0
   61.4090   34.1530   50.5740 O   0  0  0  0  0  0  0  0  0  0  0  0
   62.0350   33.2800   48.4720 C   0  0  0  0  0  0  0  0  0  0  0  0
   63.0510   33.8320   47.7010 C   0  0  0  0  0  0  0  0  0  0  0  0
   63.7590   32.8790   46.9590 C   0  0  0  0  0  0  0  0  0  0  0  0
   63.3050   31.5800   47.1410 C   0  0  0  0  0  0  0  0  0  0  0  0
   62.0220   31.6170   48.2270 S   0  0  0  0  0  0  0  0  0  0  0  0
   58.4820   32.9370   47.6370 C   0  0  0  0  0  0  0  0  0  0  0  0
   57.8420   32.4900   46.4770 C   0  0  0  0  0  0  0  0  0  0  0  0
   56.7260   29.4060   44.5660 C   0  0  0  0  0  0  0  0  0  0  0  0
   57.6957   24.3638   45.0936 H   0  0  0  0  0  0  0  0  0  0  0  0
   56.3053   24.2474   43.9622 H   0  0  0  0  0  0  0  0  0  0  0  0
   57.3430   25.7137   43.9622 H   0  0  0  0  0  0  0  0  0  0  0  0
   58.4693   26.9137   46.1295 H   0  0  0  0  0  0  0  0  0  0  0  0
   60.3731   28.3802   45.4629 H   0  0  0  0  0  0  0  0  0  0  0  0
   59.9503   30.4977   44.2212 H   0  0  0  0  0  0  0  0  0  0  0  0
   58.8007   34.9762   44.3354 H   0  0  0  0  0  0  0  0  0  0  0  0
   59.9638   35.7578   46.3969 H   0  0  0  0  0  0  0  0  0  0  0  0
   63.2761   34.9084   47.6763 H   0  0  0  0  0  0  0  0  0  0  0  0
   64.5967   33.1357   46.2939 H   0  0  0  0  0  0  0  0  0  0  0  0
   63.7144   30.6807   46.6577 H   0  0  0  0  0  0  0  0  0  0  0  0
   58.3961   32.3549   48.5664 H   0  0  0  0  0  0  0  0  0  0  0  0
   57.2380   31.5711   46.5049 H   0  0  0  0  0  0  0  0  0  0  0  0
   55.6947   29.7030   44.3249 H   0  0  0  0  0  0  0  0  0  0  0  0
  1  2  1  0
  2  3  2  0
  2  4  2  0
  2  5  1  0
  5  6  1  0
  6  7  2  0
  7  8  1  0
  8  9  2  0
  9 10  1  0
 10 11  1  0
 11 12  2  0
 11 13  1  0
 13 14  1  0
 14 15  2  0
 15 16  1  0
 16 17  2  0
 17 18  1  0
 18 19  1  0
 19 20  2  0
 19 21  1  0
 21 22  2  0
 22 23  1  0
 23 24  2  0
 24 25  1  0
 17 26  1  0
 26 27  2  0
 10 28  2  0
 28  6  1  0
 27 14  1  0
 25 21  1  0
  1 29  1  0
  1 30  1  0
  1 31  1  0
  7 32  1  0
  8 33  1  0
  9 34  1  0
 15 35  1  0
 16 36  1  0
 22 37  1  0
 23 38  1  0
 24 39  1  0
 26 40  1  0
 27 41  1  0
 28 42  1  0
M  CHG  3   5  -1  13  -1  18  -1
M  END
>  <UniqueID>  (50) 
47

>  <SMILES>  (50) 
CS(=O)(=O)[N-]c1cccc(C(=O)[N-]c2ccc([N-]C(=O)c3cccs3)cc2)c1

>  <Energy>  (50) 
79.0329287303505

>  <Genealogy>  (50) 
CS(=O)(=O)[N-]c1cccc(C(=O)[N-]c2ccc([N-]C(=O)c3cccs3)cc2)c1 (protonated)
CS(=O)(=O)[N-]c1cccc(C(=O)[N-]c2ccc([N-]C(=O)c3cccs3)cc2)c1 (3D coordinates assigned)
CS(=O)(=O)[N-]c1cccc(C(=O)[N-]c2ccc([N-]C(=O)c3cccs3)cc2)c1 (optimized conformer: 79.0329287303505 kcal/mol)

>  <smiles>  (50) 
CS(=O)(=O)Nc1cccc(C(=O)Nc2ccc(NC(=O)c3cccs3)cc2)c1

>  <score_type>  (50) 
oracle

>  <origin>  (50) 
adg

>  <m_score__min__energy>  (50) 
-13.369999999999999

>  <m_primary>  (50) 
energy

$$$$
50:0
     RDKit          3D

 42 44  0  0  0  0  0  0  0  0999 V2000
   64.8380   32.7760   49.3560 C   0  0  0  0  0  0  0  0  0  0  0  0
   63.5480   33.2140   48.2130 S   0  0  0  0  0  0  0  0  0  0  0  0
   64.1280   33.3410   46.8320 O   0  0  0  0  0  0  0  0  0  0  0  0
   62.9570   34.5380   48.6100 O   0  0  0  0  0  0  0  0  0  0  0  0
   62.3060   32.0030   48.2460 N   0  0  0  0  0  0  0  0  0  0  0  0
   62.1580   30.9660   47.2410 C   0  0  0  0  0  0  0  0  0  0  0  0
   60.8760   30.2260   47.6580 C   0  0  0  0  0  0  0  0  0  0  0  0
   60.4140   30.9310   48.8460 N   0  0  0  0  0  0  0  0  0  0  0  0
   61.2060   31.9020   49.1360 C   0  0  0  0  0  0  0  0  0  0  0  0
   60.9040   32.9950   50.5320 S   0  0  0  0  0  0  0  0  0  0  0  0
   60.1900   34.3500   49.5350 C   0  0  0  0  0  0  0  0  0  0  0  0
   59.6090   33.8370   48.2460 C   0  0  0  0  0  0  0  0  0  0  0  0
   60.2560   34.0870   47.0260 C   0  0  0  0  0  0  0  0  0  0  0  0
   59.7460   33.5610   45.8360 C   0  0  0  0  0  0  0  0  0  0  0  0
   58.5770   32.7790   45.8430 C   0  0  0  0  0  0  0  0  0  0  0  0
   58.0400   32.2130   44.5800 C   0  0  0  0  0  0  0  0  0  0  0  0
   57.3060   31.0110   44.5890 C   0  0  0  0  0  0  0  0  0  0  0  0
   56.7990   30.4820   43.3990 C   0  0  0  0  0  0  0  0  0  0  0  0
   57.0200   31.1430   42.1880 C   0  0  0  0  0  0  0  0  0  0  0  0
   57.7470   32.3350   42.1660 C   0  0  0  0  0  0  0  0  0  0  0  0
   58.2540   32.8700   43.3540 C   0  0  0  0  0  0  0  0  0  0  0  0
   57.9310   32.5350   47.0690 C   0  0  0  0  0  0  0  0  0  0  0  0
   58.4440   33.0570   48.2590 C   0  0  0  0  0  0  0  0  0  0  0  0
   64.4728   32.9000   50.3862 H   0  0  0  0  0  0  0  0  0  0  0  0
   65.1308   31.7281   49.1944 H   0  0  0  0  0  0  0  0  0  0  0  0
   65.7083   33.4290   49.1944 H   0  0  0  0  0  0  0  0  0  0  0  0
   62.0476   31.4055   46.2387 H   0  0  0  0  0  0  0  0  0  0  0  0
   63.0325   30.3010   47.1861 H   0  0  0  0  0  0  0  0  0  0  0  0
   60.1216   30.2759   46.8590 H   0  0  0  0  0  0  0  0  0  0  0  0
   61.0550   29.1578   47.8503 H   0  0  0  0  0  0  0  0  0  0  0  0
   59.5480   30.6940   49.3810 H   0  0  0  0  0  0  0  0  0  0  0  0
   59.3948   34.8406   50.1155 H   0  0  0  0  0  0  0  0  0  0  0  0
   60.9932   35.0616   49.2932 H   0  0  0  0  0  0  0  0  0  0  0  0
   61.1691   34.7000   47.0064 H   0  0  0  0  0  0  0  0  0  0  0  0
   60.2632   33.7602   44.8858 H   0  0  0  0  0  0  0  0  0  0  0  0
   57.1306   30.4851   45.5391 H   0  0  0  0  0  0  0  0  0  0  0  0
   56.2250   29.5438   43.4157 H   0  0  0  0  0  0  0  0  0  0  0  0
   56.6214   30.7245   41.2521 H   0  0  0  0  0  0  0  0  0  0  0  0
   57.9212   32.8541   41.2120 H   0  0  0  0  0  0  0  0  0  0  0  0
   58.8239   33.8106   43.3303 H   0  0  0  0  0  0  0  0  0  0  0  0
   57.0140   31.9279   47.0906 H   0  0  0  0  0  0  0  0  0  0  0  0
   57.9313   32.8550   49.2110 H   0  0  0  0  0  0  0  0  0  0  0  0
  1  2  1  0
  2  3  2  0
  2  4  2  0
  2  5  1  0
  5  6  1  0
  6  7  1  0
  7  8  1  0
  8  9  2  0
  9 10  1  0
 10 11  1  0
 11 12  1  0
 12 13  2  0
 13 14  1  0
 14 15  2  0
 15 16  1  0
 16 17  2  0
 17 18  1  0
 18 19  2  0
 19 20  1  0
 20 21  2  0
 15 22  1  0
 22 23  2  0
  9  5  1  0
 23 12  1  0
 21 16  1  0
  1 24  1  0
  1 25  1  0
  1 26  1  0
  6 27  1  0
  6 28  1  0
  7 29  1  0
  7 30  1  0
  8 31  1  0
 11 32  1  0
 11 33  1  0
 13 34  1  0
 14 35  1  0
 17 36  1  0
 18 37  1  0
 19 38  1  0
 20 39  1  0
 21 40  1  0
 22 41  1  0
 23 42  1  0
M  CHG  1   8   1
M  END
>  <UniqueID>  (51) 
48

>  <SMILES>  (51) 
CS(=O)(=O)N1CC[NH+]=C1SCc1ccc(-c2ccccc2)cc1

>  <Energy>  (51) 
51.6284405103864

>  <Genealogy>  (51) 
CS(=O)(=O)N1CC[NH+]=C1SCc1ccc(-c2ccccc2)cc1 (protonated)
CS(=O)(=O)N1CC[NH+]=C1SCc1ccc(-c2ccccc2)cc1 (3D coordinates assigned)
CS(=O)(=O)N1CC[NH+]=C1SCc1ccc(-c2ccccc2)cc1 (nonaromatic ring conformer: 51.6284405103864 kcal/mol)

>  <smiles>  (51) 
CS(=O)(=O)N1CCN=C1SCc1ccc(-c2ccccc2)cc1

>  <score_type>  (51) 
oracle

>  <origin>  (51) 
adg

>  <m_score__min__energy>  (51) 
-6.9199999999999999

>  <m_primary>  (51) 
energy

$$$$
51:0
     RDKit          3D

 43 45  0  0  0  0  0  0  0  0999 V2000
   59.4237   25.7487   47.4125 H   0  0  0  0  0  0  0  0  0  0  0  0
   59.9790   26.6870   47.2670 C   0  0  0  0  0  0  0  0  0  0  0  0
   61.0621   26.7202   47.4564 H   0  0  0  0  0  0  0  0  0  0  0  0
   59.3330   27.7950   46.8570 C   0  0  0  0  0  0  0  0  0  0  0  0
   57.9580   27.8000   46.4690 C   0  0  0  0  0  0  0  0  0  0  0  0
   57.0570   26.8270   46.7940 C   0  0  0  0  0  0  0  0  0  0  0  0
   56.5363   26.9335   47.7571 H   0  0  0  0  0  0  0  0  0  0  0  0
   56.7130   25.6420   45.9750 C   0  0  0  0  0  0  0  0  0  0  0  0
   57.6890   24.6820   45.6570 C   0  0  0  0  0  0  0  0  0  0  0  0
   58.7274   24.8275   45.9894 H   0  0  0  0  0  0  0  0  0  0  0  0
   57.3490   23.5450   44.9220 C   0  0  0  0  0  0  0  0  0  0  0  0
   58.1251   22.8090   44.6653 H   0  0  0  0  0  0  0  0  0  0  0  0
   56.0280   23.3340   44.5090 C   0  0  0  0  0  0  0  0  0  0  0  0
   55.7390   22.1770   43.7710 O   0  0  0  0  0  0  0  0  0  0  0  0
   56.7230   21.3190   43.2030 C   0  0  0  0  0  0  0  0  0  0  0  0
   57.2883   20.8261   44.0077 H   0  0  0  0  0  0  0  0  0  0  0  0
   56.2302   20.5570   42.5812 H   0  0  0  0  0  0  0  0  0  0  0  0
   57.4108   21.9109   42.5812 H   0  0  0  0  0  0  0  0  0  0  0  0
   55.0430   24.2790   44.8500 C   0  0  0  0  0  0  0  0  0  0  0  0
   54.0007   24.1192   44.5369 H   0  0  0  0  0  0  0  0  0  0  0  0
   55.3810   25.4210   45.5850 C   0  0  0  0  0  0  0  0  0  0  0  0
   54.3870   26.3370   45.9160 O   0  0  0  0  0  0  0  0  0  0  0  0
   57.5100   28.9160   45.7150 C   0  0  0  0  0  0  0  0  0  0  0  0
   56.3350   28.9260   45.2470 O   0  0  0  0  0  0  0  0  0  0  0  0
   58.3200   30.0060   45.5190 N   0  0  0  0  0  0  0  0  0  0  0  0
   57.8330   31.1560   44.7270 C   0  0  0  0  0  0  0  0  0  0  0  0
   58.2954   31.1310   43.7292 H   0  0  0  0  0  0  0  0  0  0  0  0
   56.7386   31.0905   44.6375 H   0  0  0  0  0  0  0  0  0  0  0  0
   58.1920   32.4520   45.4090 C   0  0  0  0  0  0  0  0  0  0  0  0
   58.7860   33.4970   44.6820 C   0  0  0  0  0  0  0  0  0  0  0  0
   58.9679   33.3797   43.6035 H   0  0  0  0  0  0  0  0  0  0  0  0
   59.1470   34.6860   45.3240 C   0  0  0  0  0  0  0  0  0  0  0  0
   59.6113   35.5011   44.7495 H   0  0  0  0  0  0  0  0  0  0  0  0
   58.9190   34.8400   46.6930 C   0  0  0  0  0  0  0  0  0  0  0  0
   59.2027   35.7761   47.1961 H   0  0  0  0  0  0  0  0  0  0  0  0
   58.3300   33.8040   47.4240 C   0  0  0  0  0  0  0  0  0  0  0  0
   58.1498   33.9257   48.5023 H   0  0  0  0  0  0  0  0  0  0  0  0
   57.9700   32.6140   46.7860 C   0  0  0  0  0  0  0  0  0  0  0  0
   57.5103   31.7999   47.3656 H   0  0  0  0  0  0  0  0  0  0  0  0
   59.5840   30.0150   46.0420 C   0  0  0  0  0  0  0  0  0  0  0  0
   60.3280   31.0270   45.9050 O   0  0  0  0  0  0  0  0  0  0  0  0
   60.0690   28.9290   46.6930 N   0  0  0  0  0  0  0  0  0  0  0  0
   61.0630   28.9630   47.0220 H   0  0  0  0  0  0  0  0  0  0  0  0
  1  2  1  0
  2  3  1  0
  2  4  2  0
  4  5  1  0
  5  6  2  0
  6  7  1  0
  6  8  1  0
  8  9  2  0
  9 10  1  0
  9 11  1  0
 11 12  1  0
 11 13  2  0
 13 14  1  0
 14 15  1  0
 15 16  1  0
 15 17  1  0
 15 18  1  0
 13 19  1  0
 19 20  1  0
 19 21  2  0
 21 22  1  0
  5 23  1  0
 23 24  2  0
 23 25  1  0
 25 26  1  0
 26 27  1  0
 26 28  1  0
 26 29  1  0
 29 30  2  0
 30 31  1  0
 30 32  1  0
 32 33  1  0
 32 34  2  0
 34 35  1  0
 34 36  1  0
 36 37  1  0
 36 38  2  0
 38 39  1  0
 25 40  1  0
 40 41  2  0
 40 42  1  0
 42 43  1  0
 42  4  1  0
 21  8  1  0
 38 29  1  0
M  CHG  1  22  -1
M  END
>  <UniqueID>  (52) 
49

>  <SMILES>  (52) 
C=c1[nH]c(=O)n(Cc2ccccc2)c(=O)/c1=C/c1ccc(OC)cc1[O-]

>  <Energy>  (52) 
73.32119095716959

>  <Genealogy>  (52) 
C=c1[nH]c(=O)n(Cc2ccccc2)c(=O)c1=Cc1ccc(OC)cc1[O-] (protonated)
C=c1[nH]c(=O)n(Cc2ccccc2)c(=O)/c1=C/c1ccc(OC)cc1[O-] (cis-trans isomerization)
C=c1[nH]c(=O)n(Cc2ccccc2)c(=O)/c1=C/c1ccc(OC)cc1[O-] (3D coordinates assigned)
C=c1[nH]c(=O)n(Cc2ccccc2)c(=O)/c1=C/c1ccc(OC)cc1[O-] (optimized conformer: 73.32119095716959 kcal/mol)

>  <smiles>  (52) 
C=c1[nH]c(=O)n(Cc2ccccc2)c(=O)c1=Cc1ccc(OC)cc1O

>  <score_type>  (52) 
oracle

>  <origin>  (52) 
adg

>  <m_score__min__energy>  (52) 
-12.43

>  <m_primary>  (52) 
energy

$$$$
52:0
     RDKit          3D

 27 28  0  0  0  0  0  0  0  0999 V2000
   58.3710   22.4380   45.2850 C   0  0  0  0  0  0  0  0  0  0  0  0
   57.3990   23.5520   45.5120 C   0  0  0  0  0  0  0  0  0  0  0  0
   56.0370   23.2790   45.6700 C   0  0  0  0  0  0  0  0  0  0  0  0
   55.1590   24.3400   45.8790 C   0  0  0  0  0  0  0  0  0  0  0  0
   53.9270   24.1190   46.0240 O   0  0  0  0  0  0  0  0  0  0  0  0
   55.6520   25.6470   45.9280 C   0  0  0  0  0  0  0  0  0  0  0  0
   54.7770   26.7090   46.1370 O   0  0  0  0  0  0  0  0  0  0  0  0
   57.0380   25.8540   45.7620 C   0  0  0  0  0  0  0  0  0  0  0  0
   57.6510   27.1990   45.7990 C   0  0  0  0  0  0  0  0  0  0  0  0
   58.1120   27.6650   46.8760 O   0  0  0  0  0  0  0  0  0  0  0  0
   57.7090   27.9630   44.5810 N   0  0  0  0  0  0  0  0  0  0  0  0
   57.5500   29.2490   44.4490 C   0  0  0  0  0  0  0  0  0  0  0  0
   58.6130   30.0660   44.1950 N   0  0  0  0  0  0  0  0  0  0  0  0
   58.4740   31.4110   44.0530 C   0  0  0  0  0  0  0  0  0  0  0  0
   57.2150   31.9980   44.1660 C   0  0  0  0  0  0  0  0  0  0  0  0
   56.1070   31.1920   44.4250 C   0  0  0  0  0  0  0  0  0  0  0  0
   56.2630   29.8090   44.5690 C   0  0  0  0  0  0  0  0  0  0  0  0
   55.1400   29.0230   44.8280 O   0  0  0  0  0  0  0  0  0  0  0  0
   57.8380   24.8070   45.5640 O   0  0  0  0  0  0  0  0  0  0  0  0
   58.7127   22.0463   46.2544 H   0  0  0  0  0  0  0  0  0  0  0  0
   57.8808   21.6337   44.7168 H   0  0  0  0  0  0  0  0  0  0  0  0
   59.2343   22.8147   44.7168 H   0  0  0  0  0  0  0  0  0  0  0  0
   55.6652   22.2445   45.6300 H   0  0  0  0  0  0  0  0  0  0  0  0
   59.3557   32.0362   43.8488 H   0  0  0  0  0  0  0  0  0  0  0  0
   57.0966   33.0857   44.0521 H   0  0  0  0  0  0  0  0  0  0  0  0
   55.1084   31.6443   44.5163 H   0  0  0  0  0  0  0  0  0  0  0  0
   55.1910   28.0150   44.9100 H   0  0  0  0  0  0  0  0  0  0  0  0
  1  2  1  0
  2  3  2  0
  3  4  1  0
  4  5  2  0
  4  6  1  0
  6  7  1  0
  6  8  2  0
  8  9  1  0
  9 10  2  0
  9 11  1  0
 11 12  2  3
 12 13  1  0
 13 14  1  0
 14 15  2  0
 15 16  1  0
 16 17  2  0
 17 18  1  0
  8 19  1  0
 19  2  1  0
 17 12  1  0
  1 20  1  0
  1 21  1  0
  1 22  1  0
  3 23  1  0
 14 24  1  0
 15 25  1  0
 16 26  1  0
 18 27  1  0
M  CHG  2   7  -1  13  -1
M  END
>  <UniqueID>  (53) 
50

>  <SMILES>  (53) 
Cc1cc(=O)c([O-])c(C(=O)N=c2[n-]cccc2O)o1

>  <Energy>  (53) 
33.20663884077156

>  <Genealogy>  (53) 
Cc1cc(=O)c([O-])c(C(=O)N=c2[n-]cccc2O)o1 (protonated)
Cc1cc(=O)c([O-])c(C(=O)N=c2[n-]cccc2O)o1 (3D coordinates assigned)
Cc1cc(=O)c([O-])c(C(=O)N=c2[n-]cccc2O)o1 (optimized conformer: 33.20663884077156 kcal/mol)

>  <smiles>  (53) 
Cc1cc(=O)c(O)c(C(=O)N=c2[nH]cccc2O)o1

>  <score_type>  (53) 
oracle

>  <origin>  (53) 
adg

>  <m_score__min__energy>  (53) 
-11.92

>  <m_primary>  (53) 
energy

$$$$
53:0
     RDKit          3D

 29 30  0  0  0  0  0  0  0  0999 V2000
   55.2050   28.6990   45.6480 H   0  0  0  0  0  0  0  0  0  0  0  0
   55.1560   29.3440   44.8270 N   0  0  0  0  0  0  0  0  0  0  0  0
   56.3380   29.7350   44.1280 C   0  0  0  0  0  0  0  0  0  0  0  0
   56.4900   29.3540   42.9370 O   0  0  0  0  0  0  0  0  0  0  0  0
   57.3650   30.5810   44.8000 C   0  0  0  0  0  0  0  0  0  0  0  0
   57.0150   31.8740   45.2350 C   0  0  0  0  0  0  0  0  0  0  0  0
   55.9919   32.2443   45.0733 H   0  0  0  0  0  0  0  0  0  0  0  0
   57.9510   32.6890   45.8680 C   0  0  0  0  0  0  0  0  0  0  0  0
   57.6717   33.6985   46.2040 H   0  0  0  0  0  0  0  0  0  0  0  0
   59.2430   32.2130   46.0710 C   0  0  0  0  0  0  0  0  0  0  0  0
   59.9911   32.8470   46.5693 H   0  0  0  0  0  0  0  0  0  0  0  0
   59.5790   30.9670   45.6540 N   0  0  0  0  0  0  0  0  0  0  0  0
   58.6970   30.1420   45.0200 C   0  0  0  0  0  0  0  0  0  0  0  0
   59.0620   28.9420   44.6610 N   0  0  0  0  0  0  0  0  0  0  0  0
   58.4370   27.7000   45.0260 C   0  0  0  0  0  0  0  0  0  0  0  0
   58.0640   27.5040   46.3630 C   0  0  0  0  0  0  0  0  0  0  0  0
   58.2788   28.2824   47.1100 H   0  0  0  0  0  0  0  0  0  0  0  0
   57.4210   26.3260   46.7530 C   0  0  0  0  0  0  0  0  0  0  0  0
   57.1430   26.1768   47.8068 H   0  0  0  0  0  0  0  0  0  0  0  0
   57.1290   25.3340   45.8070 C   0  0  0  0  0  0  0  0  0  0  0  0
   56.3050   23.8580   46.2980 S   0  0  0  0  0  0  0  0  0  0  0  0
   54.8960   24.1760   46.7120 O   0  0  0  0  0  0  0  0  0  0  0  0
   56.2620   22.8920   45.1470 O   0  0  0  0  0  0  0  0  0  0  0  0
   57.1460   23.1400   47.6250 N   0  0  0  0  0  0  0  0  0  0  0  0
   58.1580   23.3680   47.5030 H   0  0  0  0  0  0  0  0  0  0  0  0
   57.4630   25.5430   44.4620 C   0  0  0  0  0  0  0  0  0  0  0  0
   57.2182   24.7772   43.7112 H   0  0  0  0  0  0  0  0  0  0  0  0
   58.1060   26.7210   44.0710 C   0  0  0  0  0  0  0  0  0  0  0  0
   58.3544   26.8834   43.0118 H   0  0  0  0  0  0  0  0  0  0  0  0
  1  2  1  0
  2  3  1  0
  3  4  2  0
  3  5  1  0
  5  6  2  0
  6  7  1  0
  6  8  1  0
  8  9  1  0
  8 10  2  0
 10 11  1  0
 10 12  1  0
 12 13  1  0
 13 14  2  0
 14 15  1  0
 15 16  2  0
 16 17  1  0
 16 18  1  0
 18 19  1  0
 18 20  2  0
 20 21  1  0
 21 22  2  0
 21 23  2  0
 21 24  1  0
 24 25  1  0
 20 26  1  0
 26 27  1  0
 26 28  2  0
 28 29  1  0
 13  5  1  0
 28 15  1  0
M  CHG  3   2  -1  12  -1  24  -1
M  END
>  <UniqueID>  (54) 
51

>  <SMILES>  (54) 
[NH-]C(=O)c1ccc[n-]/c1=N\c1ccc(S([NH-])(=O)=O)cc1

>  <Energy>  (54) 
39.41771405175066

>  <Genealogy>  (54) 
[NH-]C(=O)c1ccc[n-]c1=Nc1ccc(S([NH-])(=O)=O)cc1 (protonated)
[NH-]C(=O)c1ccc[n-]/c1=N\c1ccc(S([NH-])(=O)=O)cc1 (cis-trans isomerization)
[NH-]C(=O)c1ccc[n-]/c1=N\c1ccc(S([NH-])(=O)=O)cc1 (3D coordinates assigned)
[NH-]C(=O)c1ccc[n-]/c1=N\c1ccc(S([NH-])(=O)=O)cc1 (optimized conformer: 39.41771405175066 kcal/mol)

>  <smiles>  (54) 
NC(=O)c1ccc[nH]c1=Nc1ccc(S(N)(=O)=O)cc1

>  <score_type>  (54) 
oracle

>  <origin>  (54) 
adg

>  <m_score__min__energy>  (54) 
-12.130000000000001

>  <m_primary>  (54) 
energy

$$$$
54:0
     RDKit          3D

 51 53  0  0  0  0  0  0  0  0999 V2000
   66.7720   30.1300   51.2780 C   0  0  0  0  0  0  0  0  0  0  0  0
   66.5930   31.3140   52.2160 C   0  0  0  0  0  0  0  0  0  0  0  0
   65.5760   32.1730   51.7110 O   0  0  0  0  0  0  0  0  0  0  0  0
   65.5160   32.5680   50.3710 C   0  0  0  0  0  0  0  0  0  0  0  0
   66.5800   32.8150   49.7370 O   0  0  0  0  0  0  0  0  0  0  0  0
   64.2400   32.6950   49.7190 N   0  0  0  0  0  0  0  0  0  0  0  0
   63.0050   32.5540   50.4990 C   0  0  0  0  0  0  0  0  0  0  0  0
   61.8390   33.2330   49.7740 C   0  0  0  0  0  0  0  0  0  0  0  0
   61.6500   32.7020   48.4070 N   0  0  0  0  0  0  0  0  0  0  0  0
   60.6670   33.8000   47.4650 S   0  0  0  0  0  0  0  0  0  0  0  0
   61.5450   34.5830   46.5300 O   0  0  0  0  0  0  0  0  0  0  0  0
   59.9840   34.7730   48.3860 O   0  0  0  0  0  0  0  0  0  0  0  0
   59.4470   32.9310   46.5290 C   0  0  0  0  0  0  0  0  0  0  0  0
   59.5810   31.5550   46.2990 C   0  0  0  0  0  0  0  0  0  0  0  0
   58.6060   30.8620   45.5760 C   0  0  0  0  0  0  0  0  0  0  0  0
   57.4930   31.5430   45.0540 C   0  0  0  0  0  0  0  0  0  0  0  0
   56.4590   30.8630   44.3300 N   0  0  0  0  0  0  0  0  0  0  0  0
   55.8380   29.6290   44.7070 C   0  0  0  0  0  0  0  0  0  0  0  0
   54.7750   29.2840   44.1260 O   0  0  0  0  0  0  0  0  0  0  0  0
   56.4990   28.7370   45.6220 N   0  0  0  0  0  0  0  0  0  0  0  0
   56.6170   27.4400   45.5580 C   0  0  0  0  0  0  0  0  0  0  0  0
   57.7510   26.7960   45.0180 C   0  0  0  0  0  0  0  0  0  0  0  0
   57.7920   25.3990   44.9760 C   0  0  0  0  0  0  0  0  0  0  0  0
   56.7150   24.6540   45.4570 C   0  0  0  0  0  0  0  0  0  0  0  0
   56.7580   22.7450   45.4050 Br  0  0  0  0  0  0  0  0  0  0  0  0
   55.6010   25.3210   45.9670 C   0  0  0  0  0  0  0  0  0  0  0  0
   55.5780   26.6800   46.0010 N   0  0  0  0  0  0  0  0  0  0  0  0
   57.3540   32.9150   45.2990 C   0  0  0  0  0  0  0  0  0  0  0  0
   58.3290   33.6080   46.0210 C   0  0  0  0  0  0  0  0  0  0  0  0
   62.9000   32.3440   47.6920 C   0  0  0  0  0  0  0  0  0  0  0  0
   64.1520   33.0020   48.2870 C   0  0  0  0  0  0  0  0  0  0  0  0
   66.9108   29.2122   51.8683 H   0  0  0  0  0  0  0  0  0  0  0  0
   65.8793   30.0265   50.6437 H   0  0  0  0  0  0  0  0  0  0  0  0
   67.6554   30.2950   50.6437 H   0  0  0  0  0  0  0  0  0  0  0  0
   66.3037   30.9508   53.2132 H   0  0  0  0  0  0  0  0  0  0  0  0
   67.5393   31.8703   52.2873 H   0  0  0  0  0  0  0  0  0  0  0  0
   62.7783   31.4856   50.6300 H   0  0  0  0  0  0  0  0  0  0  0  0
   63.1442   33.0322   51.4798 H   0  0  0  0  0  0  0  0  0  0  0  0
   60.9171   33.0656   50.3503 H   0  0  0  0  0  0  0  0  0  0  0  0
   62.0690   34.3056   49.6923 H   0  0  0  0  0  0  0  0  0  0  0  0
   60.4579   31.0177   46.6894 H   0  0  0  0  0  0  0  0  0  0  0  0
   58.7103   29.7789   45.4149 H   0  0  0  0  0  0  0  0  0  0  0  0
   58.5949   27.3878   44.6337 H   0  0  0  0  0  0  0  0  0  0  0  0
   58.6739   24.8871   44.5635 H   0  0  0  0  0  0  0  0  0  0  0  0
   54.7407   24.7471   46.3419 H   0  0  0  0  0  0  0  0  0  0  0  0
   56.4710   33.4507   44.9203 H   0  0  0  0  0  0  0  0  0  0  0  0
   58.2191   34.6891   46.1916 H   0  0  0  0  0  0  0  0  0  0  0  0
   63.0260   31.2521   47.7352 H   0  0  0  0  0  0  0  0  0  0  0  0
   62.8000   32.7104   46.6596 H   0  0  0  0  0  0  0  0  0  0  0  0
   65.0459   32.6164   47.7749 H   0  0  0  0  0  0  0  0  0  0  0  0
   64.0895   34.0919   48.1517 H   0  0  0  0  0  0  0  0  0  0  0  0
  1  2  1  0
  2  3  1  0
  3  4  1  0
  4  5  2  0
  4  6  1  0
  6  7  1  0
  7  8  1  0
  8  9  1  0
  9 10  1  0
 10 11  2  0
 10 12  2  0
 10 13  1  0
 13 14  2  0
 14 15  1  0
 15 16  2  0
 16 17  1  0
 17 18  1  0
 18 19  2  0
 18 20  1  0
 20 21  2  3
 21 22  1  0
 22 23  2  0
 23 24  1  0
 24 25  1  0
 24 26  2  0
 26 27  1  0
 16 28  1  0
 28 29  2  0
  9 30  1  0
 30 31  1  0
 31  6  1  0
 29 13  1  0
 27 21  1  0
  1 32  1  0
  1 33  1  0
  1 34  1  0
  2 35  1  0
  2 36  1  0
  7 37  1  0
  7 38  1  0
  8 39  1  0
  8 40  1  0
 14 41  1  0
 15 42  1  0
 22 43  1  0
 23 44  1  0
 26 45  1  0
 28 46  1  0
 29 47  1  0
 30 48  1  0
 30 49  1  0
 31 50  1  0
 31 51  1  0
M  CHG  2  17  -1  27  -1
M  END
>  <UniqueID>  (55) 
52

>  <SMILES>  (55) 
CCOC(=O)N1CCN(S(=O)(=O)c2ccc([N-]C(=O)N=c3ccc(Br)c[n-]3)cc2)CC1

>  <Energy>  (55) 
62.42104143093955

>  <Genealogy>  (55) 
CCOC(=O)N1CCN(S(=O)(=O)c2ccc([N-]C(=O)N=c3ccc(Br)c[n-]3)cc2)CC1 (protonated)
CCOC(=O)N1CCN(S(=O)(=O)c2ccc([N-]C(=O)N=c3ccc(Br)c[n-]3)cc2)CC1 (3D coordinates assigned)
CCOC(=O)N1CCN(S(=O)(=O)c2ccc([N-]C(=O)N=c3ccc(Br)c[n-]3)cc2)CC1 (nonaromatic ring conformer: 62.42104143093955 kcal/mol)

>  <smiles>  (55) 
CCOC(=O)N1CCN(S(=O)(=O)c2ccc(NC(=O)N=c3ccc(Br)c[nH]3)cc2)CC1

>  <score_type>  (55) 
oracle

>  <origin>  (55) 
adg

>  <m_score__min__energy>  (55) 
-11.859999999999999

>  <m_primary>  (55) 
energy

$$$$
55:0
     RDKit          3D

 35 36  0  0  0  0  0  0  0  0999 V2000
   55.5500   23.3580   43.0000 C   0  0  0  0  0  0  0  0  0  0  0  0
   55.9040   22.0340   42.6200 O   0  0  0  0  0  0  0  0  0  0  0  0
   56.6430   21.1860   43.4490 C   0  0  0  0  0  0  0  0  0  0  0  0
   56.2150   20.0360   43.7410 O   0  0  0  0  0  0  0  0  0  0  0  0
   57.9330   21.6690   44.0350 C   0  0  0  0  0  0  0  0  0  0  0  0
   57.7120   22.3380   45.3600 C   0  0  0  0  0  0  0  0  0  0  0  0
   58.0250   23.6210   45.6270 N   0  0  0  0  0  0  0  0  0  0  0  0
   57.7340   23.7580   46.9380 C   0  0  0  0  0  0  0  0  0  0  0  0
   57.9290   24.8770   47.5720 N   0  0  0  0  0  0  0  0  0  0  0  0
   57.7530   26.2040   47.0480 C   0  0  0  0  0  0  0  0  0  0  0  0
   56.7970   26.4980   46.0580 C   0  0  0  0  0  0  0  0  0  0  0  0
   56.6830   27.7970   45.5550 C   0  0  0  0  0  0  0  0  0  0  0  0
   57.5360   28.8120   46.0010 C   0  0  0  0  0  0  0  0  0  0  0  0
   57.3690   30.1350   45.4700 N   0  0  0  0  0  0  0  0  0  0  0  0
   56.5070   30.5200   44.3920 C   0  0  0  0  0  0  0  0  0  0  0  0
   57.0900   31.1800   43.1880 C   0  0  0  0  0  0  0  0  0  0  0  0
   55.2570   30.3960   44.4880 O   0  0  0  0  0  0  0  0  0  0  0  0
   58.4960   28.5170   46.9850 C   0  0  0  0  0  0  0  0  0  0  0  0
   58.6110   27.2180   47.4890 C   0  0  0  0  0  0  0  0  0  0  0  0
   57.2870   22.6260   47.5300 N   0  0  0  0  0  0  0  0  0  0  0  0
   57.2840   21.7370   46.5240 C   0  0  0  0  0  0  0  0  0  0  0  0
   56.9090   20.4050   46.6830 O   0  0  0  0  0  0  0  0  0  0  0  0
   55.5303   23.4316   44.0974 H   0  0  0  0  0  0  0  0  0  0  0  0
   56.2906   24.0652   42.5983 H   0  0  0  0  0  0  0  0  0  0  0  0
   54.5553   23.6012   42.5983 H   0  0  0  0  0  0  0  0  0  0  0  0
   58.6069   20.8109   44.1746 H   0  0  0  0  0  0  0  0  0  0  0  0
   58.3755   22.4023   43.3447 H   0  0  0  0  0  0  0  0  0  0  0  0
   56.1377   25.7032   45.6790 H   0  0  0  0  0  0  0  0  0  0  0  0
   55.9149   28.0235   44.8009 H   0  0  0  0  0  0  0  0  0  0  0  0
   57.7875   31.9696   43.5043 H   0  0  0  0  0  0  0  0  0  0  0  0
   57.6294   30.4339   42.5859 H   0  0  0  0  0  0  0  0  0  0  0  0
   56.2831   31.6232   42.5859 H   0  0  0  0  0  0  0  0  0  0  0  0
   59.1588   29.3109   47.3596 H   0  0  0  0  0  0  0  0  0  0  0  0
   59.3829   26.9908   48.2390 H   0  0  0  0  0  0  0  0  0  0  0  0
   56.7100   19.8110   45.8880 H   0  0  0  0  0  0  0  0  0  0  0  0
  1  2  1  0
  2  3  1  0
  3  4  2  0
  3  5  1  0
  5  6  1  0
  6  7  1  0
  7  8  1  0
  8  9  2  3
  9 10  1  0
 10 11  2  0
 11 12  1  0
 12 13  2  0
 13 14  1  0
 14 15  1  0
 15 16  1  0
 15 17  2  0
 13 18  1  0
 18 19  2  0
  8 20  1  0
 20 21  1  0
 21 22  1  0
 21  6  2  0
 19 10  1  0
  1 23  1  0
  1 24  1  0
  1 25  1  0
  5 26  1  0
  5 27  1  0
 11 28  1  0
 12 29  1  0
 16 30  1  0
 16 31  1  0
 16 32  1  0
 18 33  1  0
 19 34  1  0
 22 35  1  0
M  CHG  3   7  -1  14  -1  20  -1
M  END
>  <UniqueID>  (56) 
53

>  <SMILES>  (56) 
COC(=O)Cc1[n-]c(=Nc2ccc([N-]C(C)=O)cc2)[n-]c1O

>  <Energy>  (56) 
67.54696958198194

>  <Genealogy>  (56) 
COC(=O)Cc1[n-]c(=Nc2ccc([N-]C(C)=O)cc2)[n-]c1O (protonated)
COC(=O)Cc1[n-]c(=Nc2ccc([N-]C(C)=O)cc2)[n-]c1O (3D coordinates assigned)
COC(=O)Cc1[n-]c(=Nc2ccc([N-]C(C)=O)cc2)[n-]c1O (optimized conformer: 67.54696958198194 kcal/mol)

>  <smiles>  (56) 
COC(=O)Cc1[nH]c(=Nc2ccc(NC(C)=O)cc2)[nH]c1O

>  <score_type>  (56) 
oracle

>  <origin>  (56) 
adg

>  <m_score__min__energy>  (56) 
-10.52

>  <m_primary>  (56) 
energy

$$$$
56:0
     RDKit          3D

 56 59  0  0  0  0  0  0  0  0999 V2000
   59.4670   33.5980   49.1280 O   0  0  0  0  0  0  0  0  0  0  0  0
   60.1550   33.5290   48.0730 C   0  0  0  0  0  0  0  0  0  0  0  0
   59.4700   33.6230   46.7670 C   0  0  0  0  0  0  0  0  0  0  0  0
   59.3730   34.8530   46.0960 C   0  0  0  0  0  0  0  0  0  0  0  0
   58.7040   34.9370   44.8730 C   0  0  0  0  0  0  0  0  0  0  0  0
   58.1180   33.7990   44.3130 C   0  0  0  0  0  0  0  0  0  0  0  0
   58.2010   32.5650   44.9730 C   0  0  0  0  0  0  0  0  0  0  0  0
   57.5270   31.3510   44.3950 C   0  0  0  0  0  0  0  0  0  0  0  0
   57.0950   30.4650   45.4820 N   0  0  0  0  0  0  0  0  0  0  0  0
   58.0180   29.3300   45.6720 C   0  0  1  0  0  0  0  0  0  0  0  0
   59.0350   29.2010   44.4960 C   0  0  0  0  0  0  0  0  0  0  0  0
   60.4150   28.6180   44.8790 C   0  0  0  0  0  0  0  0  0  0  0  0
   60.3730   27.7860   46.1630 C   0  0  0  0  0  0  0  0  0  0  0  0
   59.8610   28.6090   47.2620 N   0  0  0  0  0  0  0  0  0  0  0  0
   60.4060   28.4790   48.5880 C   0  0  0  0  0  0  0  0  0  0  0  0
   60.8350   29.6160   49.2910 C   0  0  0  0  0  0  0  0  0  0  0  0
   61.3670   29.4900   50.5790 C   0  0  0  0  0  0  0  0  0  0  0  0
   61.4790   28.2300   51.1740 C   0  0  0  0  0  0  0  0  0  0  0  0
   62.0120   28.1190   52.4560 O   0  0  0  0  0  0  0  0  0  0  0  0
   61.0530   27.0920   50.4760 C   0  0  0  0  0  0  0  0  0  0  0  0
   60.5200   27.2150   49.1900 C   0  0  0  0  0  0  0  0  0  0  0  0
   58.7200   29.4460   47.0010 C   0  0  0  0  0  0  0  0  0  0  0  0
   58.2920   30.2400   47.8840 O   0  0  0  0  0  0  0  0  0  0  0  0
   58.8600   32.4870   46.2110 C   0  0  0  0  0  0  0  0  0  0  0  0
   61.5790   33.3430   48.1670 N   0  0  0  0  0  0  0  0  0  0  0  0
   62.3050   33.4980   49.4160 C   0  0  0  0  0  0  0  0  0  0  0  0
   63.7480   33.1300   49.1000 C   0  0  0  0  0  0  0  0  0  0  0  0
   63.6920   32.3270   47.8040 C   0  0  0  0  0  0  0  0  0  0  0  0
   62.3900   32.7320   47.1250 C   0  0  0  0  0  0  0  0  0  0  0  0
   59.8259   35.7539   46.5356 H   0  0  0  0  0  0  0  0  0  0  0  0
   58.6382   35.9020   44.3491 H   0  0  0  0  0  0  0  0  0  0  0  0
   57.5897   33.8716   43.3509 H   0  0  0  0  0  0  0  0  0  0  0  0
   56.6513   31.6633   43.8070 H   0  0  0  0  0  0  0  0  0  0  0  0
   58.2340   30.8147   43.7450 H   0  0  0  0  0  0  0  0  0  0  0  0
   57.0330   31.0180   46.3700 H   0  0  0  0  0  0  0  0  0  0  0  0
   57.4223   28.4052   45.6732 H   0  0  0  0  0  0  0  0  0  0  0  0
   58.5899   28.5473   43.7315 H   0  0  0  0  0  0  0  0  0  0  0  0
   59.2242   30.2254   44.1427 H   0  0  0  0  0  0  0  0  0  0  0  0
   60.7661   27.9773   44.0567 H   0  0  0  0  0  0  0  0  0  0  0  0
   61.0943   29.4650   45.0558 H   0  0  0  0  0  0  0  0  0  0  0  0
   59.7128   26.9184   46.0163 H   0  0  0  0  0  0  0  0  0  0  0  0
   61.3874   27.4378   46.4075 H   0  0  0  0  0  0  0  0  0  0  0  0
   60.7526   30.6101   48.8273 H   0  0  0  0  0  0  0  0  0  0  0  0
   61.6982   30.3855   51.1252 H   0  0  0  0  0  0  0  0  0  0  0  0
   61.5770   28.5740   53.2510 H   0  0  0  0  0  0  0  0  0  0  0  0
   61.1384   26.0991   50.9416 H   0  0  0  0  0  0  0  0  0  0  0  0
   60.1882   26.3179   48.6467 H   0  0  0  0  0  0  0  0  0  0  0  0
   58.8985   31.5284   46.7492 H   0  0  0  0  0  0  0  0  0  0  0  0
   62.2427   34.5377   49.7697 H   0  0  0  0  0  0  0  0  0  0  0  0
   61.8877   32.8620   50.2106 H   0  0  0  0  0  0  0  0  0  0  0  0
   64.3547   34.0374   48.9636 H   0  0  0  0  0  0  0  0  0  0  0  0
   64.2094   32.5544   49.9160 H   0  0  0  0  0  0  0  0  0  0  0  0
   64.5515   32.5726   47.1630 H   0  0  0  0  0  0  0  0  0  0  0  0
   63.7311   31.2444   47.9948 H   0  0  0  0  0  0  0  0  0  0  0  0
   62.5860   33.4536   46.3182 H   0  0  0  0  0  0  0  0  0  0  0  0
   61.8834   31.8689   46.6684 H   0  0  0  0  0  0  0  0  0  0  0  0
  1  2  2  0
  2  3  1  0
  3  4  2  0
  4  5  1  0
  5  6  2  0
  6  7  1  0
  7  8  1  0
  8  9  1  0
  9 10  1  0
 10 11  1  0
 11 12  1  0
 12 13  1  0
 13 14  1  0
 14 15  1  0
 15 16  2  0
 16 17  1  0
 17 18  2  0
 18 19  1  0
 18 20  1  0
 20 21  2  0
 14 22  1  0
 22 23  2  0
  7 24  2  0
  2 25  1  0
 25 26  1  0
 26 27  1  0
 27 28  1  0
 28 29  1  0
 24  3  1  0
 29 25  1  0
 22 10  1  0
 21 15  1  0
  4 30  1  0
  5 31  1  0
  6 32  1  0
  8 33  1  0
  8 34  1  0
  9 35  1  0
 10 36  1  1
 11 37  1  0
 11 38  1  0
 12 39  1  0
 12 40  1  0
 13 41  1  0
 13 42  1  0
 16 43  1  0
 17 44  1  0
 19 45  1  0
 20 46  1  0
 21 47  1  0
 24 48  1  0
 26 49  1  0
 26 50  1  0
 27 51  1  0
 27 52  1  0
 28 53  1  0
 28 54  1  0
 29 55  1  0
 29 56  1  0
M  END
>  <UniqueID>  (57) 
54

>  <SMILES>  (57) 
O=C(c1cccc(CN[C@H]2CCCN(c3ccc(O)cc3)C2=O)c1)N1CCCC1

>  <Energy>  (57) 
71.19966239844806

>  <Genealogy>  (57) 
O=C(c1cccc(CN[C@H]2CCCN(c3ccc(O)cc3)C2=O)c1)N1CCCC1 (chirality)
O=C(c1cccc(CN[C@H]2CCCN(c3ccc(O)cc3)C2=O)c1)N1CCCC1 (3D coordinates assigned)
O=C(c1cccc(CN[C@H]2CCCN(c3ccc(O)cc3)C2=O)c1)N1CCCC1 (nonaromatic ring conformer: 71.19966239844806 kcal/mol)

>  <smiles>  (57) 
O=C(c1cccc(CNC2CCCN(c3ccc(O)cc3)C2=O)c1)N1CCCC1

>  <score_type>  (57) 
oracle

>  <origin>  (57) 
adg

>  <m_score__min__energy>  (57) 
-9.9499999999999993

>  <m_primary>  (57) 
energy

$$$$
57:0
     RDKit          3D

 43 45  0  0  0  0  0  0  0  0999 V2000
   58.1100   30.9880   53.5310 C   0  0  0  0  0  0  0  0  0  0  0  0
   58.1510   30.2720   52.2180 C   0  0  0  0  0  0  0  0  0  0  0  0
   57.0720   30.0200   51.6180 O   0  0  0  0  0  0  0  0  0  0  0  0
   59.4180   29.9530   51.6200 N   0  0  0  0  0  0  0  0  0  0  0  0
   59.5770   29.2180   50.3950 C   0  0  0  0  0  0  0  0  0  0  0  0
   58.8820   29.6330   49.2500 C   0  0  0  0  0  0  0  0  0  0  0  0
   59.0370   28.9510   48.0400 C   0  0  0  0  0  0  0  0  0  0  0  0
   59.8910   27.8420   47.9590 C   0  0  0  0  0  0  0  0  0  0  0  0
   60.0590   26.9520   46.4480 S   0  0  0  0  0  0  0  0  0  0  0  0
   59.0120   25.8790   46.3580 O   0  0  0  0  0  0  0  0  0  0  0  0
   61.4230   26.3220   46.4060 O   0  0  0  0  0  0  0  0  0  0  0  0
   59.8870   28.0160   45.0890 N   0  0  0  0  0  0  0  0  0  0  0  0
   58.8350   28.9750   44.9150 C   0  0  0  0  0  0  0  0  0  0  0  0
   57.5090   28.5400   45.0190 C   0  0  0  0  0  0  0  0  0  0  0  0
   56.4520   29.4270   44.7960 C   0  0  0  0  0  0  0  0  0  0  0  0
   55.1400   28.9820   44.8860 O   0  0  0  0  0  0  0  0  0  0  0  0
   56.7140   30.7600   44.4720 C   0  0  0  0  0  0  0  0  0  0  0  0
   58.0380   31.2170   44.3850 C   0  0  0  0  0  0  0  0  0  0  0  0
   58.3280   32.6400   43.9860 C   0  0  0  0  0  0  0  0  0  0  0  0
   58.6140   33.4710   45.1550 N   0  0  0  0  0  0  0  0  0  0  0  0
   58.2780   33.2070   46.4350 C   0  0  0  0  0  0  0  0  0  0  0  0
   58.8480   34.1690   47.2410 C   0  0  0  0  0  0  0  0  0  0  0  0
   59.5460   34.9840   46.3720 C   0  0  0  0  0  0  0  0  0  0  0  0
   59.4010   34.5350   45.1110 N   0  0  0  0  0  0  0  0  0  0  0  0
   59.0950   30.3250   44.6170 C   0  0  0  0  0  0  0  0  0  0  0  0
   60.6100   27.4420   49.0910 C   0  0  0  0  0  0  0  0  0  0  0  0
   60.4630   28.1290   50.3000 C   0  0  0  0  0  0  0  0  0  0  0  0
   58.1520   30.2548   54.3499 H   0  0  0  0  0  0  0  0  0  0  0  0
   58.9706   31.6692   53.6042 H   0  0  0  0  0  0  0  0  0  0  0  0
   57.1773   31.5665   53.6042 H   0  0  0  0  0  0  0  0  0  0  0  0
   60.2700   30.3890   52.0420 H   0  0  0  0  0  0  0  0  0  0  0  0
   58.2097   30.5019   49.3046 H   0  0  0  0  0  0  0  0  0  0  0  0
   58.4870   29.2855   47.1480 H   0  0  0  0  0  0  0  0  0  0  0  0
   57.2969   27.4922   45.2782 H   0  0  0  0  0  0  0  0  0  0  0  0
   55.8807   31.4532   44.2846 H   0  0  0  0  0  0  0  0  0  0  0  0
   59.1993   32.6536   43.3147 H   0  0  0  0  0  0  0  0  0  0  0  0
   57.4404   33.0467   43.4792 H   0  0  0  0  0  0  0  0  0  0  0  0
   57.6553   32.3672   46.7769 H   0  0  0  0  0  0  0  0  0  0  0  0
   58.7652   34.2659   48.3336 H   0  0  0  0  0  0  0  0  0  0  0  0
   60.1323   35.8672   46.6657 H   0  0  0  0  0  0  0  0  0  0  0  0
   60.1338   30.6832   44.5656 H   0  0  0  0  0  0  0  0  0  0  0  0
   61.2942   26.5829   49.0294 H   0  0  0  0  0  0  0  0  0  0  0  0
   61.0428   27.8166   51.1811 H   0  0  0  0  0  0  0  0  0  0  0  0
  1  2  1  0
  2  3  2  0
  2  4  1  0
  4  5  1  0
  5  6  2  0
  6  7  1  0
  7  8  2  0
  8  9  1  0
  9 10  2  0
  9 11  2  0
  9 12  1  0
 12 13  1  0
 13 14  2  0
 14 15  1  0
 15 16  1  0
 15 17  2  0
 17 18  1  0
 18 19  1  0
 19 20  1  0
 20 21  1  0
 21 22  2  0
 22 23  1  0
 23 24  2  0
 18 25  2  0
  8 26  1  0
 26 27  2  0
 27  5  1  0
 25 13  1  0
 24 20  1  0
  1 28  1  0
  1 29  1  0
  1 30  1  0
  4 31  1  0
  6 32  1  0
  7 33  1  0
 14 34  1  0
 17 35  1  0
 19 36  1  0
 19 37  1  0
 21 38  1  0
 22 39  1  0
 23 40  1  0
 25 41  1  0
 26 42  1  0
 27 43  1  0
M  CHG  2  12  -1  16  -1
M  END
>  <UniqueID>  (58) 
55

>  <SMILES>  (58) 
CC(=O)Nc1ccc(S(=O)(=O)[N-]c2cc([O-])cc(Cn3cccn3)c2)cc1

>  <Energy>  (58) 
75.22826482531586

>  <Genealogy>  (58) 
CC(=O)Nc1ccc(S(=O)(=O)[N-]c2cc([O-])cc(Cn3cccn3)c2)cc1 (protonated)
CC(=O)Nc1ccc(S(=O)(=O)[N-]c2cc([O-])cc(Cn3cccn3)c2)cc1 (3D coordinates assigned)
CC(=O)Nc1ccc(S(=O)(=O)[N-]c2cc([O-])cc(Cn3cccn3)c2)cc1 (optimized conformer: 75.22826482531586 kcal/mol)

>  <smiles>  (58) 
CC(=O)Nc1ccc(S(=O)(=O)Nc2cc(O)cc(Cn3cccn3)c2)cc1

>  <score_type>  (58) 
oracle

>  <origin>  (58) 
adg

>  <m_score__min__energy>  (58) 
-12.81

>  <m_primary>  (58) 
energy

$$$$
58:0
     RDKit          3D

 54 56  0  0  0  0  0  0  0  0999 V2000
   58.9590   30.9630   53.2410 C   0  0  0  0  0  0  0  0  0  0  0  0
   58.3360   31.2100   51.5820 S   0  0  0  0  0  0  0  0  0  0  0  0
   57.3850   30.0880   51.2560 O   0  0  0  0  0  0  0  0  0  0  0  0
   57.5570   32.4950   51.5550 O   0  0  0  0  0  0  0  0  0  0  0  0
   59.5940   31.2820   50.3600 N   0  0  0  0  0  0  0  0  0  0  0  0
   59.8660   29.9720   49.7290 C   0  0  0  0  0  0  0  0  0  0  0  0
   59.5030   29.9070   48.2590 C   0  0  0  0  0  0  0  0  0  0  0  0
   60.1720   30.7130   47.3260 C   0  0  0  0  0  0  0  0  0  0  0  0
   59.8270   30.6690   45.9730 C   0  0  0  0  0  0  0  0  0  0  0  0
   58.8180   29.8000   45.5240 C   0  0  0  0  0  0  0  0  0  0  0  0
   58.4320   29.7410   44.1420 N   0  0  0  0  0  0  0  0  0  0  0  0
   57.0280   30.5400   43.5070 S   0  0  0  0  0  0  0  0  0  0  0  0
   55.9320   30.4820   44.5330 O   0  0  0  0  0  0  0  0  0  0  0  0
   56.5570   29.8430   42.2600 O   0  0  0  0  0  0  0  0  0  0  0  0
   57.3990   32.2530   43.1530 C   0  0  0  0  0  0  0  0  0  0  0  0
   57.7840   32.9770   44.4140 C   0  0  0  0  0  0  0  0  0  0  0  0
   57.0360   32.7950   45.5910 C   0  0  0  0  0  0  0  0  0  0  0  0
   57.4080   33.4510   46.7700 C   0  0  0  0  0  0  0  0  0  0  0  0
   58.5340   34.2810   46.7850 C   0  0  0  0  0  0  0  0  0  0  0  0
   59.2910   34.4550   45.6210 C   0  0  0  0  0  0  0  0  0  0  0  0
   58.9190   33.8050   44.4410 C   0  0  0  0  0  0  0  0  0  0  0  0
   58.1800   28.9630   46.4520 C   0  0  0  0  0  0  0  0  0  0  0  0
   58.5170   29.0190   47.8070 C   0  0  0  0  0  0  0  0  0  0  0  0
   60.8140   31.9800   50.8060 C   0  0  0  0  0  0  0  0  0  0  0  0
   61.6520   32.4180   49.6320 C   0  0  0  0  0  0  0  0  0  0  0  0
   61.2040   33.4480   48.7880 C   0  0  0  0  0  0  0  0  0  0  0  0
   61.9640   33.8350   47.6810 C   0  0  0  0  0  0  0  0  0  0  0  0
   63.1770   33.1970   47.4070 C   0  0  0  0  0  0  0  0  0  0  0  0
   63.6350   32.1770   48.2460 C   0  0  0  0  0  0  0  0  0  0  0  0
   62.8760   31.7840   49.3530 C   0  0  0  0  0  0  0  0  0  0  0  0
   63.3330   30.7830   50.1500 F   0  0  0  0  0  0  0  0  0  0  0  0
   58.1928   31.2668   53.9694 H   0  0  0  0  0  0  0  0  0  0  0  0
   59.2026   29.9003   53.3868 H   0  0  0  0  0  0  0  0  0  0  0  0
   59.8646   31.5701   53.3868 H   0  0  0  0  0  0  0  0  0  0  0  0
   60.9399   29.7562   49.8297 H   0  0  0  0  0  0  0  0  0  0  0  0
   59.2346   29.2337   50.2450 H   0  0  0  0  0  0  0  0  0  0  0  0
   60.9750   31.3853   47.6625 H   0  0  0  0  0  0  0  0  0  0  0  0
   60.3484   31.3186   45.2546 H   0  0  0  0  0  0  0  0  0  0  0  0
   58.8930   29.0400   43.5210 H   0  0  0  0  0  0  0  0  0  0  0  0
   58.2328   32.3029   42.4373 H   0  0  0  0  0  0  0  0  0  0  0  0
   56.5052   32.7309   42.7256 H   0  0  0  0  0  0  0  0  0  0  0  0
   56.1560   32.1351   45.5849 H   0  0  0  0  0  0  0  0  0  0  0  0
   56.8144   33.3138   47.6858 H   0  0  0  0  0  0  0  0  0  0  0  0
   58.8244   34.7970   47.7120 H   0  0  0  0  0  0  0  0  0  0  0  0
   60.1793   35.1037   45.6348 H   0  0  0  0  0  0  0  0  0  0  0  0
   59.5179   33.9423   43.5286 H   0  0  0  0  0  0  0  0  0  0  0  0
   57.4086   28.2573   46.1102 H   0  0  0  0  0  0  0  0  0  0  0  0
   58.0046   28.3612   48.5245 H   0  0  0  0  0  0  0  0  0  0  0  0
   60.5267   32.8655   51.3919 H   0  0  0  0  0  0  0  0  0  0  0  0
   61.4083   31.2857   51.4181 H   0  0  0  0  0  0  0  0  0  0  0  0
   60.2498   33.9526   48.9997 H   0  0  0  0  0  0  0  0  0  0  0  0
   61.6073   34.6425   47.0247 H   0  0  0  0  0  0  0  0  0  0  0  0
   63.7711   33.4974   46.5314 H   0  0  0  0  0  0  0  0  0  0  0  0
   64.5946   31.6823   48.0350 H   0  0  0  0  0  0  0  0  0  0  0  0
  1  2  1  0
  2  3  2  0
  2  4  2  0
  2  5  1  0
  5  6  1  0
  6  7  1  0
  7  8  2  0
  8  9  1  0
  9 10  2  0
 10 11  1  0
 11 12  1  0
 12 13  2  0
 12 14  2  0
 12 15  1  0
 15 16  1  0
 16 17  2  0
 17 18  1  0
 18 19  2  0
 19 20  1  0
 20 21  2  0
 10 22  1  0
 22 23  2  0
  5 24  1  0
 24 25  1  0
 25 26  2  0
 26 27  1  0
 27 28  2  0
 28 29  1  0
 29 30  2  0
 30 31  1  0
 23  7  1  0
 30 25  1  0
 21 16  1  0
  1 32  1  0
  1 33  1  0
  1 34  1  0
  6 35  1  0
  6 36  1  0
  8 37  1  0
  9 38  1  0
 11 39  1  0
 15 40  1  0
 15 41  1  0
 17 42  1  0
 18 43  1  0
 19 44  1  0
 20 45  1  0
 21 46  1  0
 22 47  1  0
 23 48  1  0
 24 49  1  0
 24 50  1  0
 26 51  1  0
 27 52  1  0
 28 53  1  0
 29 54  1  0
M  END
>  <UniqueID>  (59) 
56

>  <SMILES>  (59) 
CS(=O)(=O)N(Cc1ccc(NS(=O)(=O)Cc2ccccc2)cc1)Cc1ccccc1F

>  <Energy>  (59) 
51.95702383927894

>  <Genealogy>  (59) 
CS(=O)(=O)N(Cc1ccc(NS(=O)(=O)Cc2ccccc2)cc1)Cc1ccccc1F (3D coordinates assigned)
CS(=O)(=O)N(Cc1ccc(NS(=O)(=O)Cc2ccccc2)cc1)Cc1ccccc1F (optimized conformer: 51.95702383927894 kcal/mol)

>  <smiles>  (59) 
CS(=O)(=O)N(Cc1ccc(NS(=O)(=O)Cc2ccccc2)cc1)Cc1ccccc1F

>  <score_type>  (59) 
oracle

>  <origin>  (59) 
adg

>  <m_score__min__energy>  (59) 
-9.7599999999999998

>  <m_primary>  (59) 
energy

$$$$
59:0
     RDKit          3D

 40 41  0  0  0  0  0  0  0  0999 V2000
   57.4380   33.8170   45.8260 C   0  0  0  0  0  0  0  0  0  0  0  0
   58.8610   34.1050   45.3620 C   0  0  0  0  0  0  0  0  0  0  0  0
   59.7070   34.3810   46.4770 O   0  0  0  0  0  0  0  0  0  0  0  0
   60.4870   33.4090   47.1150 C   0  0  0  0  0  0  0  0  0  0  0  0
   61.6810   33.2210   46.7500 O   0  0  0  0  0  0  0  0  0  0  0  0
   59.9310   32.6170   48.2390 C   0  0  0  0  0  0  0  0  0  0  0  0
   59.2830   33.3020   49.2850 C   0  0  0  0  0  0  0  0  0  0  0  0
   58.6780   32.6030   50.3310 C   0  0  0  0  0  0  0  0  0  0  0  0
   58.7050   31.2110   50.3480 C   0  0  0  0  0  0  0  0  0  0  0  0
   59.3550   30.5140   49.3300 C   0  0  0  0  0  0  0  0  0  0  0  0
   59.9970   31.1980   48.2870 C   0  0  0  0  0  0  0  0  0  0  0  0
   60.8960   30.2260   47.0560 S   0  0  0  0  0  0  0  0  0  0  0  0
   59.5940   28.9870   46.8580 C   0  0  0  0  0  0  0  0  0  0  0  0
   58.4760   29.2220   46.0320 C   0  0  0  0  0  0  0  0  0  0  0  0
   58.3550   30.4560   45.1790 C   0  0  0  0  0  0  0  0  0  0  0  0
   56.9840   30.8000   44.9900 O   0  0  0  0  0  0  0  0  0  0  0  0
   56.1000   30.0440   44.2130 C   0  0  0  0  0  0  0  0  0  0  0  0
   56.2990   29.9640   42.7380 C   0  0  0  0  0  0  0  0  0  0  0  0
   55.1460   29.4140   44.7460 O   0  0  0  0  0  0  0  0  0  0  0  0
   57.5160   28.2660   45.9190 N   0  0  0  0  0  0  0  0  0  0  0  0
   57.6070   27.0850   46.5800 C   0  0  0  0  0  0  0  0  0  0  0  0
   56.4180   25.9760   46.4130 S   0  0  0  0  0  0  0  0  0  0  0  0
   58.6960   26.8200   47.3490 N   0  0  0  0  0  0  0  0  0  0  0  0
   59.6920   27.7350   47.4880 C   0  0  0  0  0  0  0  0  0  0  0  0
   60.7040   27.4500   48.1830 O   0  0  0  0  0  0  0  0  0  0  0  0
   57.4051   33.8103   46.9255 H   0  0  0  0  0  0  0  0  0  0  0  0
   56.7628   34.5967   45.4437 H   0  0  0  0  0  0  0  0  0  0  0  0
   57.1191   32.8361   45.4437 H   0  0  0  0  0  0  0  0  0  0  0  0
   59.2493   33.2290   44.8218 H   0  0  0  0  0  0  0  0  0  0  0  0
   58.8472   34.9844   44.7013 H   0  0  0  0  0  0  0  0  0  0  0  0
   59.2532   34.4016   49.2777 H   0  0  0  0  0  0  0  0  0  0  0  0
   58.1793   33.1527   51.1429 H   0  0  0  0  0  0  0  0  0  0  0  0
   58.2137   30.6612   51.1643 H   0  0  0  0  0  0  0  0  0  0  0  0
   59.3644   29.4141   49.3450 H   0  0  0  0  0  0  0  0  0  0  0  0
   58.8727   31.2907   45.6743 H   0  0  0  0  0  0  0  0  0  0  0  0
   58.8102   30.2562   44.1977 H   0  0  0  0  0  0  0  0  0  0  0  0
   57.3002   29.5615   42.5244 H   0  0  0  0  0  0  0  0  0  0  0  0
   55.5368   29.3024   42.3005 H   0  0  0  0  0  0  0  0  0  0  0  0
   56.2068   30.9691   42.3005 H   0  0  0  0  0  0  0  0  0  0  0  0
   58.7770   25.8980   47.8370 H   0  0  0  0  0  0  0  0  0  0  0  0
  1  2  1  0
  2  3  1  0
  3  4  1  0
  4  5  2  0
  4  6  1  0
  6  7  2  0
  7  8  1  0
  8  9  2  0
  9 10  1  0
 10 11  2  0
 11 12  1  0
 12 13  1  0
 13 14  2  0
 14 15  1  0
 15 16  1  0
 16 17  1  0
 17 18  1  0
 17 19  2  0
 14 20  1  0
 20 21  1  0
 21 22  2  0
 21 23  1  0
 23 24  1  0
 24 25  2  0
 11  6  1  0
 24 13  1  0
  1 26  1  0
  1 27  1  0
  1 28  1  0
  2 29  1  0
  2 30  1  0
  7 31  1  0
  8 32  1  0
  9 33  1  0
 10 34  1  0
 15 35  1  0
 15 36  1  0
 18 37  1  0
 18 38  1  0
 18 39  1  0
 23 40  1  0
M  CHG  1  20  -1
M  END
>  <UniqueID>  (60) 
57

>  <SMILES>  (60) 
CCOC(=O)c1ccccc1Sc1c(COC(C)=O)[n-]c(=S)[nH]c1=O

>  <Energy>  (60) 
36.193093022241854

>  <Genealogy>  (60) 
CCOC(=O)c1ccccc1Sc1c(COC(C)=O)[n-]c(=S)[nH]c1=O (protonated)
CCOC(=O)c1ccccc1Sc1c(COC(C)=O)[n-]c(=S)[nH]c1=O (3D coordinates assigned)
CCOC(=O)c1ccccc1Sc1c(COC(C)=O)[n-]c(=S)[nH]c1=O (optimized conformer: 36.193093022241854 kcal/mol)

>  <smiles>  (60) 
CCOC(=O)c1ccccc1Sc1c(COC(C)=O)[nH]c(=S)[nH]c1=O

>  <score_type>  (60) 
oracle

>  <origin>  (60) 
adg

>  <m_score__min__energy>  (60) 
-8.6999999999999993

>  <m_primary>  (60) 
energy

$$$$
60:0
     RDKit          3D

 45 47  0  0  0  0  0  0  0  0999 V2000
   58.1870   29.6990   45.9650 O   0  0  0  0  0  0  0  0  0  0  0  0
   58.1090   28.5030   46.3550 C   0  0  0  0  0  0  0  0  0  0  0  0
   57.7360   27.4290   45.3820 C   0  0  0  0  0  0  0  0  0  0  0  0
   57.2120   26.2440   46.1310 C   0  0  0  0  0  0  0  0  0  0  0  0
   57.9910   25.3310   46.7430 N   0  0  0  0  0  0  0  0  0  0  0  0
   57.0970   24.5170   47.3460 C   0  0  0  0  0  0  0  0  0  0  0  0
   57.4450   23.5160   48.0250 O   0  0  0  0  0  0  0  0  0  0  0  0
   55.8030   24.8610   47.1650 N   0  0  0  0  0  0  0  0  0  0  0  0
   55.8920   25.9620   46.4020 C   0  0  0  0  0  0  0  0  0  0  0  0
   54.7930   26.7040   45.9810 O   0  0  0  0  0  0  0  0  0  0  0  0
   58.4680   28.1560   47.6980 N   0  0  0  0  0  0  0  0  0  0  0  0
   59.5260   28.8660   48.4060 C   0  0  0  0  0  0  0  0  0  0  0  0
   58.9330   30.0350   49.1380 C   0  0  0  0  0  0  0  0  0  0  0  0
   58.1420   29.7960   50.0930 O   0  0  0  0  0  0  0  0  0  0  0  0
   59.3100   31.3970   48.8310 N   0  0  0  0  0  0  0  0  0  0  0  0
   58.2810   32.4320   48.6610 C   0  0  0  0  0  0  0  0  0  0  0  0
   58.4790   33.1490   47.3520 C   0  0  0  0  0  0  0  0  0  0  0  0
   59.3120   34.2770   47.2750 C   0  0  0  0  0  0  0  0  0  0  0  0
   59.4250   34.9900   46.0720 C   0  0  0  0  0  0  0  0  0  0  0  0
   58.7120   34.5780   44.9430 C   0  0  0  0  0  0  0  0  0  0  0  0
   57.8880   33.4520   45.0080 C   0  0  0  0  0  0  0  0  0  0  0  0
   57.7730   32.7350   46.2090 C   0  0  0  0  0  0  0  0  0  0  0  0
   60.6860   31.7540   48.6030 C   0  0  0  0  0  0  0  0  0  0  0  0
   61.3500   31.2640   47.4690 C   0  0  0  0  0  0  0  0  0  0  0  0
   62.6850   31.6080   47.2340 C   0  0  0  0  0  0  0  0  0  0  0  0
   63.3640   32.4450   48.1220 C   0  0  0  0  0  0  0  0  0  0  0  0
   62.7150   32.9290   49.2580 C   0  0  0  0  0  0  0  0  0  0  0  0
   61.3800   32.5860   49.5090 C   0  0  0  0  0  0  0  0  0  0  0  0
   60.6160   33.1790   50.9840 Cl  0  0  0  0  0  0  0  0  0  0  0  0
   56.9597   27.8050   44.6993 H   0  0  0  0  0  0  0  0  0  0  0  0
   58.6218   27.1350   44.7999 H   0  0  0  0  0  0  0  0  0  0  0  0
   58.1860   27.2170   48.0690 H   0  0  0  0  0  0  0  0  0  0  0  0
   60.0068   28.1870   49.1256 H   0  0  0  0  0  0  0  0  0  0  0  0
   60.2766   29.2236   47.6858 H   0  0  0  0  0  0  0  0  0  0  0  0
   57.2867   31.9616   48.6713 H   0  0  0  0  0  0  0  0  0  0  0  0
   58.3607   33.1573   49.4842 H   0  0  0  0  0  0  0  0  0  0  0  0
   59.8776   34.6025   48.1605 H   0  0  0  0  0  0  0  0  0  0  0  0
   60.0760   35.8750   46.0174 H   0  0  0  0  0  0  0  0  0  0  0  0
   58.7998   35.1410   44.0021 H   0  0  0  0  0  0  0  0  0  0  0  0
   57.3292   33.1272   44.1179 H   0  0  0  0  0  0  0  0  0  0  0  0
   57.1277   31.8454   46.2561 H   0  0  0  0  0  0  0  0  0  0  0  0
   60.8197   30.6079   46.7631 H   0  0  0  0  0  0  0  0  0  0  0  0
   63.2027   31.2174   46.3455 H   0  0  0  0  0  0  0  0  0  0  0  0
   64.4102   32.7225   47.9258 H   0  0  0  0  0  0  0  0  0  0  0  0
   63.2537   33.5828   49.9597 H   0  0  0  0  0  0  0  0  0  0  0  0
  1  2  2  0
  2  3  1  0
  3  4  1  0
  4  5  1  0
  5  6  1  0
  6  7  2  0
  6  8  1  0
  8  9  1  0
  9 10  1  0
  2 11  1  0
 11 12  1  0
 12 13  1  0
 13 14  2  0
 13 15  1  0
 15 16  1  0
 16 17  1  0
 17 18  2  0
 18 19  1  0
 19 20  2  0
 20 21  1  0
 21 22  2  0
 15 23  1  0
 23 24  2  0
 24 25  1  0
 25 26  2  0
 26 27  1  0
 27 28  2  0
 28 29  1  0
  9  4  2  0
 22 17  1  0
 28 23  1  0
  3 30  1  0
  3 31  1  0
 11 32  1  0
 12 33  1  0
 12 34  1  0
 16 35  1  0
 16 36  1  0
 18 37  1  0
 19 38  1  0
 20 39  1  0
 21 40  1  0
 22 41  1  0
 24 42  1  0
 25 43  1  0
 26 44  1  0
 27 45  1  0
M  CHG  3   5  -1   8  -1  10  -1
M  END
>  <UniqueID>  (61) 
58

>  <SMILES>  (61) 
O=C(Cc1[n-]c(=O)[n-]c1[O-])NCC(=O)N(Cc1ccccc1)c1ccccc1Cl

>  <Energy>  (61) 
75.40797677274733

>  <Genealogy>  (61) 
O=C(Cc1[n-]c(=O)[n-]c1[O-])NCC(=O)N(Cc1ccccc1)c1ccccc1Cl (protonated)
O=C(Cc1[n-]c(=O)[n-]c1[O-])NCC(=O)N(Cc1ccccc1)c1ccccc1Cl (3D coordinates assigned)
O=C(Cc1[n-]c(=O)[n-]c1[O-])NCC(=O)N(Cc1ccccc1)c1ccccc1Cl (optimized conformer: 75.40797677274733 kcal/mol)

>  <smiles>  (61) 
O=C(Cc1[nH]c(=O)[nH]c1O)NCC(=O)N(Cc1ccccc1)c1ccccc1Cl

>  <score_type>  (61) 
oracle

>  <origin>  (61) 
adg

>  <m_score__min__energy>  (61) 
-17.620000000000001

>  <m_primary>  (61) 
energy

$$$$
61:0
     RDKit          3D

 24 24  0  0  0  0  0  0  0  0999 V2000
   57.8650   32.4150   44.8770 C   0  0  0  0  0  0  0  0  0  0  0  0
   58.3190   31.1810   44.6340 C   0  0  0  0  0  0  0  0  0  0  0  0
   57.5520   30.2100   43.7790 C   0  0  0  0  0  0  0  0  0  0  0  0
   56.9880   29.0850   44.6080 C   0  0  0  0  0  0  0  0  0  0  0  0
   55.7160   29.0930   44.8610 N   0  0  0  0  0  0  0  0  0  0  0  0
   57.8570   28.0120   45.1660 C   0  0  0  0  0  0  0  0  0  0  0  0
   58.7460   27.4920   44.4360 O   0  0  0  0  0  0  0  0  0  0  0  0
   57.7470   27.5420   46.5910 C   0  0  0  0  0  0  0  0  0  0  0  0
   57.1430   26.1720   46.6550 C   0  0  0  0  0  0  0  0  0  0  0  0
   57.8200   25.0480   46.9520 N   0  0  0  0  0  0  0  0  0  0  0  0
   56.9040   24.0640   46.8490 C   0  0  0  0  0  0  0  0  0  0  0  0
   57.1740   22.8530   47.0610 O   0  0  0  0  0  0  0  0  0  0  0  0
   55.6730   24.4890   46.4920 N   0  0  0  0  0  0  0  0  0  0  0  0
   55.8420   25.8210   46.3690 C   0  0  0  0  0  0  0  0  0  0  0  0
   54.8280   26.6950   45.9980 O   0  0  0  0  0  0  0  0  0  0  0  0
   58.4495   33.1020   45.5066 H   0  0  0  0  0  0  0  0  0  0  0  0
   56.9070   32.7431   44.4473 H   0  0  0  0  0  0  0  0  0  0  0  0
   59.2787   30.8678   45.0709 H   0  0  0  0  0  0  0  0  0  0  0  0
   56.7253   30.7416   43.2849 H   0  0  0  0  0  0  0  0  0  0  0  0
   58.2385   29.7838   43.0327 H   0  0  0  0  0  0  0  0  0  0  0  0
   55.1380   28.2250   44.9050 H   0  0  0  0  0  0  0  0  0  0  0  0
   58.7508   27.5148   47.0402 H   0  0  0  0  0  0  0  0  0  0  0  0
   57.0990   28.2389   47.1428 H   0  0  0  0  0  0  0  0  0  0  0  0
   58.8290   24.9570   47.2000 H   0  0  0  0  0  0  0  0  0  0  0  0
  1  2  2  0
  2  3  1  0
  3  4  1  0
  4  5  2  3
  4  6  1  0
  6  7  2  0
  6  8  1  0
  8  9  1  0
  9 10  1  0
 10 11  1  0
 11 12  2  0
 11 13  1  0
 13 14  1  0
 14 15  1  0
 14  9  2  0
  1 16  1  0
  1 17  1  0
  2 18  1  0
  3 19  1  0
  3 20  1  0
  5 21  1  0
  8 22  1  0
  8 23  1  0
 10 24  1  0
M  CHG  2  13  -1  15  -1
M  END
>  <UniqueID>  (62) 
59

>  <SMILES>  (62) 
C=CCC(=N)C(=O)Cc1[nH]c(=O)[n-]c1[O-]

>  <Energy>  (62) 
47.56252699793356

>  <Genealogy>  (62) 
C=CCC(=N)C(=O)Cc1[nH]c(=O)[n-]c1[O-] (protonated)
C=CCC(=N)C(=O)Cc1[nH]c(=O)[n-]c1[O-] (3D coordinates assigned)
C=CCC(=N)C(=O)Cc1[nH]c(=O)[n-]c1[O-] (optimized conformer: 47.56252699793356 kcal/mol)

>  <smiles>  (62) 
C=CCC(=N)C(=O)Cc1[nH]c(=O)[nH]c1O

>  <score_type>  (62) 
oracle

>  <origin>  (62) 
adg

>  <m_score__min__energy>  (62) 
-12.23

>  <m_primary>  (62) 
energy

$$$$
62:0
     RDKit          3D

 59 62  0  0  0  0  0  0  0  0999 V2000
   56.6294   26.1916   46.9478 H   0  0  0  0  0  0  0  0  0  0  0  0
   57.4890   26.7370   46.5310 C   0  0  0  0  0  0  0  0  0  0  0  0
   58.7590   26.1650   46.5670 C   0  0  0  0  0  0  0  0  0  0  0  0
   58.9010   25.1702   47.0145 H   0  0  0  0  0  0  0  0  0  0  0  0
   59.8530   26.8540   46.0350 C   0  0  0  0  0  0  0  0  0  0  0  0
   60.8544   26.4003   46.0722 H   0  0  0  0  0  0  0  0  0  0  0  0
   59.6830   28.1220   45.4530 C   0  0  0  0  0  0  0  0  0  0  0  0
   60.8790   28.8410   44.8820 C   0  0  0  0  0  0  0  0  0  0  0  0
   61.5064   29.2182   45.7030 H   0  0  0  0  0  0  0  0  0  0  0  0
   61.4643   28.1449   44.2632 H   0  0  0  0  0  0  0  0  0  0  0  0
   60.5388   29.6844   44.2632 H   0  0  0  0  0  0  0  0  0  0  0  0
   58.3940   28.7040   45.4260 C   0  0  0  0  0  0  0  0  0  0  0  0
   58.1710   30.0530   44.8710 C   0  0  0  0  0  0  0  0  0  0  0  0
   58.7910   31.1430   45.4010 N   0  0  0  0  0  0  0  0  0  0  0  0
   58.4760   32.2760   44.7400 C   0  0  0  0  0  0  0  0  0  0  0  0
   58.9390   33.4340   45.1050 N   0  0  0  0  0  0  0  0  0  0  0  0
   58.8520   34.0380   46.4050 C   0  0  0  0  0  0  0  0  0  0  0  0
   57.8060   33.9470   47.1020 O   0  0  0  0  0  0  0  0  0  0  0  0
   60.0350   34.7750   46.9470 C   0  0  0  0  0  0  0  0  0  0  0  0
   60.4232   35.4581   46.1771 H   0  0  0  0  0  0  0  0  0  0  0  0
   59.7286   35.3495   47.8336 H   0  0  0  0  0  0  0  0  0  0  0  0
   61.1120   33.7990   47.3370 C   0  0  0  0  0  0  0  0  0  0  0  0
   62.3570   33.8200   46.6890 C   0  0  0  0  0  0  0  0  0  0  0  0
   62.5343   34.5283   45.8663 H   0  0  0  0  0  0  0  0  0  0  0  0
   63.3710   32.9460   47.0840 C   0  0  0  0  0  0  0  0  0  0  0  0
   64.3402   32.9591   46.5639 H   0  0  0  0  0  0  0  0  0  0  0  0
   63.1580   32.0550   48.1380 C   0  0  0  0  0  0  0  0  0  0  0  0
   63.9616   31.3700   48.4463 H   0  0  0  0  0  0  0  0  0  0  0  0
   61.9240   32.0290   48.8060 C   0  0  0  0  0  0  0  0  0  0  0  0
   61.7060   31.0690   49.9460 C   0  0  0  0  0  0  0  0  0  0  0  0
   62.6586   30.9062   50.4715 H   0  0  0  0  0  0  0  0  0  0  0  0
   60.9643   31.4948   50.6377 H   0  0  0  0  0  0  0  0  0  0  0  0
   61.2030   29.7760   49.4340 N   0  0  0  0  0  0  0  0  0  0  0  0
   60.4590   29.9220   48.1590 C   0  0  0  0  0  0  0  0  0  0  0  0
   60.8154   30.8267   47.6448 H   0  0  0  0  0  0  0  0  0  0  0  0
   60.6417   29.0168   47.5612 H   0  0  0  0  0  0  0  0  0  0  0  0
   58.9370   30.0420   48.3710 C   0  0  0  0  0  0  0  0  0  0  0  0
   58.5092   30.6702   47.5758 H   0  0  0  0  0  0  0  0  0  0  0  0
   58.4932   29.0360   48.3397 H   0  0  0  0  0  0  0  0  0  0  0  0
   58.6570   30.6250   49.6240 O   0  0  0  0  0  0  0  0  0  0  0  0
   59.0260   29.7400   50.6690 C   0  0  0  0  0  0  0  0  0  0  0  0
   59.0710   30.3095   51.6090 H   0  0  0  0  0  0  0  0  0  0  0  0
   58.2689   28.9427   50.7026 H   0  0  0  0  0  0  0  0  0  0  0  0
   60.3970   29.0600   50.4410 C   0  0  0  0  0  0  0  0  0  0  0  0
   60.9488   29.0434   51.3924 H   0  0  0  0  0  0  0  0  0  0  0  0
   60.2155   28.0400   50.0713 H   0  0  0  0  0  0  0  0  0  0  0  0
   60.9030   32.9050   48.4010 C   0  0  0  0  0  0  0  0  0  0  0  0
   59.9334   32.8910   48.9203 H   0  0  0  0  0  0  0  0  0  0  0  0
   57.4140   31.9750   43.4610 S   0  0  0  0  0  0  0  0  0  0  0  0
   57.3390   30.3250   43.7800 C   0  0  0  0  0  0  0  0  0  0  0  0
   56.6180   29.3260   42.9180 C   0  0  0  0  0  0  0  0  0  0  0  0
   55.6406   29.0992   43.3688 H   0  0  0  0  0  0  0  0  0  0  0  0
   56.4852   29.7561   41.9143 H   0  0  0  0  0  0  0  0  0  0  0  0
   57.3910   28.0900   42.8010 N   0  0  0  0  0  0  0  0  0  0  0  0
   57.2700   27.5050   43.6610 H   0  0  0  0  0  0  0  0  0  0  0  0
   58.4040   28.3110   42.6640 H   0  0  0  0  0  0  0  0  0  0  0  0
   57.0470   27.5500   41.9750 H   0  0  0  0  0  0  0  0  0  0  0  0
   57.3050   28.0010   45.9670 C   0  0  0  0  0  0  0  0  0  0  0  0
   56.3006   28.4491   45.9462 H   0  0  0  0  0  0  0  0  0  0  0  0
  1  2  1  0
  2  3  2  0
  3  4  1  0
  3  5  1  0
  5  6  1  0
  5  7  2  0
  7  8  1  0
  8  9  1  0
  8 10  1  0
  8 11  1  0
  7 12  1  0
 12 13  1  0
 13 14  1  0
 14 15  1  0
 15 16  2  0
 16 17  1  0
 17 18  2  0
 17 19  1  0
 19 20  1  0
 19 21  1  0
 19 22  1  0
 22 23  2  0
 23 24  1  0
 23 25  1  0
 25 26  1  0
 25 27  2  0
 27 28  1  0
 27 29  1  0
 29 30  1  0
 30 31  1  0
 30 32  1  0
 30 33  1  0
 33 34  1  0
 34 35  1  0
 34 36  1  0
 34 37  1  0
 37 38  1  0
 37 39  1  0
 37 40  1  0
 40 41  1  0
 41 42  1  0
 41 43  1  0
 41 44  1  0
 44 45  1  0
 44 46  1  0
 29 47  2  0
 47 48  1  0
 15 49  1  0
 49 50  1  0
 50 51  1  0
 51 52  1  0
 51 53  1  0
 51 54  1  0
 54 55  1  0
 54 56  1  0
 54 57  1  0
 12 58  2  0
 58 59  1  0
 58  2  1  0
 50 13  2  0
 47 22  1  0
 44 33  1  0
M  CHG  2  14  -1  54   1
M  END
>  <UniqueID>  (63) 
60

>  <SMILES>  (63) 
Cc1ccccc1-c1[n-]/c(=N/C(=O)Cc2cccc(CN3CCOCC3)c2)sc1C[NH3+]

>  <Energy>  (63) 
109.19987188789241

>  <Genealogy>  (63) 
Cc1ccccc1-c1[n-]c(=NC(=O)Cc2cccc(CN3CCOCC3)c2)sc1C[NH3+] (protonated)
Cc1ccccc1-c1[n-]/c(=N/C(=O)Cc2cccc(CN3CCOCC3)c2)sc1C[NH3+] (cis-trans isomerization)
Cc1ccccc1-c1[n-]/c(=N/C(=O)Cc2cccc(CN3CCOCC3)c2)sc1C[NH3+] (3D coordinates assigned)
Cc1ccccc1-c1[n-]/c(=N/C(=O)Cc2cccc(CN3CCOCC3)c2)sc1C[NH3+] (nonaromatic ring conformer: 109.19987188789241 kcal/mol)

>  <smiles>  (63) 
Cc1ccccc1-c1[nH]c(=NC(=O)Cc2cccc(CN3CCOCC3)c2)sc1CN

>  <score_type>  (63) 
oracle

>  <origin>  (63) 
adg

>  <m_score__min__energy>  (63) 
-8.9199999999999999

>  <m_primary>  (63) 
energy

$$$$
63:0
     RDKit          3D

 64 68  0  0  0  0  0  0  0  0999 V2000
   58.5952   27.3482   45.0648 H   0  0  0  0  0  0  0  0  0  0  0  0
   58.1620   28.3320   45.2980 C   0  0  0  0  0  0  0  0  0  0  0  0
   56.6830   28.4480   45.2810 C   0  0  0  0  0  0  0  0  0  0  0  0
   55.9650   27.4650   45.6060 O   0  0  0  0  0  0  0  0  0  0  0  0
   56.0370   29.6600   44.8680 N   0  0  0  0  0  0  0  0  0  0  0  0
   56.6140   30.6880   44.0540 C   0  0  0  0  0  0  0  0  0  0  0  0
   56.7270   30.5380   42.6630 C   0  0  0  0  0  0  0  0  0  0  0  0
   56.3324   29.6350   42.1742 H   0  0  0  0  0  0  0  0  0  0  0  0
   57.3400   31.5340   41.8980 C   0  0  0  0  0  0  0  0  0  0  0  0
   57.4195   31.4165   40.8072 H   0  0  0  0  0  0  0  0  0  0  0  0
   57.8520   32.6780   42.5140 C   0  0  0  0  0  0  0  0  0  0  0  0
   58.3305   33.4603   41.9064 H   0  0  0  0  0  0  0  0  0  0  0  0
   57.7580   32.8330   43.9070 C   0  0  0  0  0  0  0  0  0  0  0  0
   58.3320   34.0550   44.5700 C   0  0  0  0  0  0  0  0  0  0  0  0
   58.6504   34.7708   43.7979 H   0  0  0  0  0  0  0  0  0  0  0  0
   57.5618   34.5092   45.2108 H   0  0  0  0  0  0  0  0  0  0  0  0
   59.4830   33.6920   45.3950 N   0  0  0  0  0  0  0  0  0  0  0  0
   60.0980   32.9150   45.0650 H   0  0  0  0  0  0  0  0  0  0  0  0
   59.7940   34.3690   46.6210 C   0  0  0  0  0  0  0  0  0  0  0  0
   59.0690   35.3190   47.0220 O   0  0  0  0  0  0  0  0  0  0  0  0
   60.9580   33.9670   47.4250 C   0  0  0  0  0  0  0  0  0  0  0  0
   61.7720   32.9370   47.0700 N   0  0  0  0  0  0  0  0  0  0  0  0
   62.6720   32.9210   48.0640 C   0  0  0  0  0  0  0  0  0  0  0  0
   63.7570   32.0600   48.2190 C   0  0  0  0  0  0  0  0  0  0  0  0
   63.9691   31.2721   47.4813 H   0  0  0  0  0  0  0  0  0  0  0  0
   64.5720   32.2350   49.3540 C   0  0  0  0  0  0  0  0  0  0  0  0
   65.4402   31.5780   49.5109 H   0  0  0  0  0  0  0  0  0  0  0  0
   64.2800   33.2510   50.2930 C   0  0  0  0  0  0  0  0  0  0  0  0
   64.9200   33.3771   51.1787 H   0  0  0  0  0  0  0  0  0  0  0  0
   63.1740   34.1030   50.1010 C   0  0  0  0  0  0  0  0  0  0  0  0
   62.9351   34.8980   50.8227 H   0  0  0  0  0  0  0  0  0  0  0  0
   62.3940   33.9020   48.9640 C   0  0  0  0  0  0  0  0  0  0  0  0
   61.3070   34.5870   48.5840 N   0  0  0  0  0  0  0  0  0  0  0  0
   57.1530   31.8220   44.6730 C   0  0  0  0  0  0  0  0  0  0  0  0
   57.1026   31.9225   45.7672 H   0  0  0  0  0  0  0  0  0  0  0  0
   59.0130   29.3310   45.5750 C   0  0  0  0  0  0  0  0  0  0  0  0
   59.6426   29.6994   44.7517 H   0  0  0  0  0  0  0  0  0  0  0  0
   59.1760   29.9790   46.8950 C   0  0  0  0  0  0  0  0  0  0  0  0
   60.0690   29.4700   47.8540 C   0  0  0  0  0  0  0  0  0  0  0  0
   60.6306   28.5479   47.6435 H   0  0  0  0  0  0  0  0  0  0  0  0
   60.2470   30.1290   49.0730 C   0  0  0  0  0  0  0  0  0  0  0  0
   60.9284   29.7097   49.8279 H   0  0  0  0  0  0  0  0  0  0  0  0
   59.5610   31.3220   49.3380 C   0  0  0  0  0  0  0  0  0  0  0  0
   59.8100   32.1710   50.8660 S   0  0  0  0  0  0  0  0  0  0  0  0
   59.7390   33.6530   50.6250 O   0  0  0  0  0  0  0  0  0  0  0  0
   61.1800   31.8510   51.3930 O   0  0  0  0  0  0  0  0  0  0  0  0
   58.6140   31.7170   52.0610 N   0  0  0  0  0  0  0  0  0  0  0  0
   58.8550   30.3560   52.5880 C   0  0  0  0  0  0  0  0  0  0  0  0
   59.8736   30.0442   52.3137 H   0  0  0  0  0  0  0  0  0  0  0  0
   58.7290   30.3874   53.6803 H   0  0  0  0  0  0  0  0  0  0  0  0
   57.8530   29.3330   52.0230 C   0  0  0  0  0  0  0  0  0  0  0  0
   57.9803   29.2852   50.9314 H   0  0  0  0  0  0  0  0  0  0  0  0
   58.0639   28.3677   52.5064 H   0  0  0  0  0  0  0  0  0  0  0  0
   56.4990   29.6600   52.3060 O   0  0  0  0  0  0  0  0  0  0  0  0
   56.2390   31.0600   52.3160 C   0  0  0  0  0  0  0  0  0  0  0  0
   55.2405   31.2281   51.8861 H   0  0  0  0  0  0  0  0  0  0  0  0
   56.3138   31.3870   53.3636 H   0  0  0  0  0  0  0  0  0  0  0  0
   57.2530   31.8970   51.5200 C   0  0  0  0  0  0  0  0  0  0  0  0
   57.2374   31.5784   50.4673 H   0  0  0  0  0  0  0  0  0  0  0  0
   56.9771   32.9588   51.6005 H   0  0  0  0  0  0  0  0  0  0  0  0
   58.6880   31.8440   48.3720 C   0  0  0  0  0  0  0  0  0  0  0  0
   58.1433   32.7780   48.5741 H   0  0  0  0  0  0  0  0  0  0  0  0
   58.5070   31.1830   47.1540 C   0  0  0  0  0  0  0  0  0  0  0  0
   57.8357   31.6101   46.3944 H   0  0  0  0  0  0  0  0  0  0  0  0
  1  2  1  0
  2  3  1  0
  3  4  2  0
  3  5  1  0
  5  6  1  0
  6  7  2  0
  7  8  1  0
  7  9  1  0
  9 10  1  0
  9 11  2  0
 11 12  1  0
 11 13  1  0
 13 14  1  0
 14 15  1  0
 14 16  1  0
 14 17  1  0
 17 18  1  0
 17 19  1  0
 19 20  2  0
 19 21  1  0
 21 22  2  0
 22 23  1  0
 23 24  2  0
 24 25  1  0
 24 26  1  0
 26 27  1  0
 26 28  2  0
 28 29  1  0
 28 30  1  0
 30 31  1  0
 30 32  2  0
 32 33  1  0
 13 34  2  0
 34 35  1  0
  2 36  2  0
 36 37  1  0
 36 38  1  0
 38 39  2  0
 39 40  1  0
 39 41  1  0
 41 42  1  0
 41 43  2  0
 43 44  1  0
 44 45  2  0
 44 46  2  0
 44 47  1  0
 47 48  1  0
 48 49  1  0
 48 50  1  0
 48 51  1  0
 51 52  1  0
 51 53  1  0
 51 54  1  0
 54 55  1  0
 55 56  1  0
 55 57  1  0
 55 58  1  0
 58 59  1  0
 58 60  1  0
 43 61  1  0
 61 62  1  0
 61 63  2  0
 63 64  1  0
 34  6  1  0
 63 38  1  0
 33 21  1  0
 58 47  1  0
 32 23  1  0
M  CHG  2   5  -1  33  -1
M  END
>  <UniqueID>  (64) 
61

>  <SMILES>  (64) 
O=C(/C=C\c1ccc(S(=O)(=O)N2CCOCC2)cc1)[N-]c1cccc(CNC(=O)c2nc3ccccc3[n-]2)c1

>  <Energy>  (64) 
126.39890804597263

>  <Genealogy>  (64) 
O=C(C=Cc1ccc(S(=O)(=O)N2CCOCC2)cc1)[N-]c1cccc(CNC(=O)c2nc3ccccc3[n-]2)c1 (protonated)
O=C(/C=C\c1ccc(S(=O)(=O)N2CCOCC2)cc1)[N-]c1cccc(CNC(=O)c2nc3ccccc3[n-]2)c1 (cis-trans isomerization)
O=C(/C=C\c1ccc(S(=O)(=O)N2CCOCC2)cc1)[N-]c1cccc(CNC(=O)c2nc3ccccc3[n-]2)c1 (3D coordinates assigned)
O=C(/C=C\c1ccc(S(=O)(=O)N2CCOCC2)cc1)[N-]c1cccc(CNC(=O)c2nc3ccccc3[n-]2)c1 (nonaromatic ring conformer: 126.39890804597263 kcal/mol)

>  <smiles>  (64) 
O=C(C=Cc1ccc(S(=O)(=O)N2CCOCC2)cc1)Nc1cccc(CNC(=O)c2nc3ccccc3[nH]2)c1

>  <score_type>  (64) 
oracle

>  <origin>  (64) 
adg

>  <m_score__min__energy>  (64) 
-13.16

>  <m_primary>  (64) 
energy

$$$$
64:0
     RDKit          3D

 50 52  0  0  0  0  0  0  0  0999 V2000
   52.5290   22.5660   46.5400 C   0  0  0  0  0  0  0  0  0  0  0  0
   52.4850   23.7750   45.5970 C   0  0  0  0  0  0  0  0  0  0  0  0
   51.1580   23.8480   44.8310 C   0  0  0  0  0  0  0  0  0  0  0  0
   53.6810   23.8080   44.6680 C   0  0  0  0  0  0  0  0  0  0  0  0
   53.4890   23.5340   43.4530 O   0  0  0  0  0  0  0  0  0  0  0  0
   55.0550   24.1480   45.1330 C   0  0  0  0  0  0  0  0  0  0  0  0
   56.0660   23.2530   44.9620 N   0  0  0  0  0  0  0  0  0  0  0  0
   57.3400   23.5080   45.3550 C   0  0  0  0  0  0  0  0  0  0  0  0
   58.2270   22.6330   45.1760 O   0  0  0  0  0  0  0  0  0  0  0  0
   57.6390   24.7410   45.9640 C   0  0  0  0  0  0  0  0  0  0  0  0
   58.9970   25.0970   46.4260 C   0  0  0  0  0  0  0  0  0  0  0  0
   60.0120   24.5970   45.8720 O   0  0  0  0  0  0  0  0  0  0  0  0
   59.1430   26.0670   47.4730 N   0  0  0  0  0  0  0  0  0  0  0  0
   59.1030   27.4980   47.3540 C   0  0  0  0  0  0  0  0  0  0  0  0
   59.7640   28.3480   48.2590 C   0  0  0  0  0  0  0  0  0  0  0  0
   59.6730   29.7340   48.1150 C   0  0  0  0  0  0  0  0  0  0  0  0
   58.9110   30.2880   47.0840 C   0  0  0  0  0  0  0  0  0  0  0  0
   58.2170   29.4560   46.1880 C   0  0  0  0  0  0  0  0  0  0  0  0
   57.3740   30.0390   45.1180 C   0  0  0  0  0  0  0  0  0  0  0  0
   56.1710   29.6790   44.9930 O   0  0  0  0  0  0  0  0  0  0  0  0
   57.9170   31.0220   44.2270 N   0  0  0  0  0  0  0  0  0  0  0  0
   57.4420   32.4000   44.1500 C   0  0  0  0  0  0  0  0  0  0  0  0
   58.1490   33.2580   45.1620 C   0  0  0  0  0  0  0  0  0  0  0  0
   59.1480   34.1620   44.7630 C   0  0  0  0  0  0  0  0  0  0  0  0
   59.8080   34.9480   45.7130 C   0  0  0  0  0  0  0  0  0  0  0  0
   59.4790   34.8340   47.0670 C   0  0  0  0  0  0  0  0  0  0  0  0
   58.4910   33.9330   47.4730 C   0  0  0  0  0  0  0  0  0  0  0  0
   57.8280   33.1480   46.5250 C   0  0  0  0  0  0  0  0  0  0  0  0
   58.3200   28.0600   46.3370 C   0  0  0  0  0  0  0  0  0  0  0  0
   56.6310   25.6340   46.1450 N   0  0  0  0  0  0  0  0  0  0  0  0
   55.3570   25.3790   45.7480 C   0  0  0  0  0  0  0  0  0  0  0  0
   54.3780   26.3410   45.9680 O   0  0  0  0  0  0  0  0  0  0  0  0
   52.5163   22.9142   47.5834 H   0  0  0  0  0  0  0  0  0  0  0  0
   51.6536   21.9258   46.3564 H   0  0  0  0  0  0  0  0  0  0  0  0
   53.4487   21.9911   46.3564 H   0  0  0  0  0  0  0  0  0  0  0  0
   52.5438   24.6780   46.2224 H   0  0  0  0  0  0  0  0  0  0  0  0
   50.3237   23.8939   45.5464 H   0  0  0  0  0  0  0  0  0  0  0  0
   51.1487   24.7480   44.1986 H   0  0  0  0  0  0  0  0  0  0  0  0
   51.0500   22.9544   44.1986 H   0  0  0  0  0  0  0  0  0  0  0  0
   60.3543   27.9197   49.0825 H   0  0  0  0  0  0  0  0  0  0  0  0
   60.2044   30.3930   48.8174 H   0  0  0  0  0  0  0  0  0  0  0  0
   58.8535   31.3808   46.9724 H   0  0  0  0  0  0  0  0  0  0  0  0
   57.6370   32.7943   43.1418 H   0  0  0  0  0  0  0  0  0  0  0  0
   56.3627   32.4166   44.3615 H   0  0  0  0  0  0  0  0  0  0  0  0
   59.4121   34.2518   43.6990 H   0  0  0  0  0  0  0  0  0  0  0  0
   60.5867   35.6566   45.3946 H   0  0  0  0  0  0  0  0  0  0  0  0
   59.9980   35.4537   47.8130 H   0  0  0  0  0  0  0  0  0  0  0  0
   58.2349   33.8414   48.5388 H   0  0  0  0  0  0  0  0  0  0  0  0
   57.0505   32.4402   46.8484 H   0  0  0  0  0  0  0  0  0  0  0  0
   57.7773   27.4001   45.6442 H   0  0  0  0  0  0  0  0  0  0  0  0
  1  2  1  0
  2  3  1  0
  2  4  1  0
  4  5  2  0
  4  6  1  0
  6  7  1  0
  7  8  1  0
  8  9  2  0
  8 10  1  0
 10 11  1  0
 11 12  2  0
 11 13  1  0
 13 14  1  0
 14 15  2  0
 15 16  1  0
 16 17  2  0
 17 18  1  0
 18 19  1  0
 19 20  2  0
 19 21  1  0
 21 22  1  0
 22 23  1  0
 23 24  2  0
 24 25  1  0
 25 26  2  0
 26 27  1  0
 27 28  2  0
 18 29  2  0
 10 30  2  0
 30 31  1  0
 31 32  1  0
 31  6  2  0
 29 14  1  0
 28 23  1  0
  1 33  1  0
  1 34  1  0
  1 35  1  0
  2 36  1  0
  3 37  1  0
  3 38  1  0
  3 39  1  0
 15 40  1  0
 16 41  1  0
 17 42  1  0
 22 43  1  0
 22 44  1  0
 24 45  1  0
 25 46  1  0
 26 47  1  0
 27 48  1  0
 28 49  1  0
 29 50  1  0
M  CHG  4   7  -1  13  -1  21  -1  32  -1
M  END
>  <UniqueID>  (65) 
62

>  <SMILES>  (65) 
CC(C)C(=O)c1[n-]c(=O)c(C(=O)[N-]c2cccc(C(=O)[N-]Cc3ccccc3)c2)nc1[O-]

>  <Energy>  (65) 
57.09941506635608

>  <Genealogy>  (65) 
CC(C)C(=O)c1[n-]c(=O)c(C(=O)[N-]c2cccc(C(=O)[N-]Cc3ccccc3)c2)nc1[O-] (protonated)
CC(C)C(=O)c1[n-]c(=O)c(C(=O)[N-]c2cccc(C(=O)[N-]Cc3ccccc3)c2)nc1[O-] (3D coordinates assigned)
CC(C)C(=O)c1[n-]c(=O)c(C(=O)[N-]c2cccc(C(=O)[N-]Cc3ccccc3)c2)nc1[O-] (optimized conformer: 57.09941506635608 kcal/mol)

>  <smiles>  (65) 
CC(C)C(=O)c1[nH]c(=O)c(C(=O)Nc2cccc(C(=O)NCc3ccccc3)c2)nc1O

>  <score_type>  (65) 
oracle

>  <origin>  (65) 
adg

>  <m_score__min__energy>  (65) 
-17.149999999999999

>  <m_primary>  (65) 
energy

$$$$
65:0
     RDKit          3D

 42 44  0  0  0  0  0  0  0  0999 V2000
   60.6330   26.9080   48.2700 C   0  0  0  0  0  0  0  0  0  0  0  0
   60.3030   26.5610   46.5570 S   0  0  0  0  0  0  0  0  0  0  0  0
   61.4170   27.1140   45.7120 O   0  0  0  0  0  0  0  0  0  0  0  0
   60.2270   25.0750   46.3450 O   0  0  0  0  0  0  0  0  0  0  0  0
   58.7710   27.2990   46.1060 C   0  0  0  0  0  0  0  0  0  0  0  0
   57.5700   26.5980   46.2540 C   0  0  0  0  0  0  0  0  0  0  0  0
   56.3620   27.1610   45.8290 C   0  0  0  0  0  0  0  0  0  0  0  0
   55.1640   26.3820   45.9470 N   0  0  0  0  0  0  0  0  0  0  0  0
   55.0500   24.9750   45.6860 C   0  0  0  0  0  0  0  0  0  0  0  0
   53.9020   24.4840   45.5240 O   0  0  0  0  0  0  0  0  0  0  0  0
   56.2350   24.0850   45.6400 C   0  0  0  0  0  0  0  0  0  0  0  0
   56.9660   23.9010   44.4530 C   0  0  0  0  0  0  0  0  0  0  0  0
   58.0700   23.0490   44.4350 C   0  0  0  0  0  0  0  0  0  0  0  0
   58.4480   22.3920   45.6080 C   0  0  0  0  0  0  0  0  0  0  0  0
   59.4410   21.6190   45.6080 O   0  0  0  0  0  0  0  0  0  0  0  0
   57.7450   22.5910   46.7540 N   0  0  0  0  0  0  0  0  0  0  0  0
   56.6650   23.4160   46.7980 C   0  0  0  0  0  0  0  0  0  0  0  0
   56.3500   28.4660   45.2950 C   0  0  0  0  0  0  0  0  0  0  0  0
   55.1440   29.0630   44.9390 O   0  0  0  0  0  0  0  0  0  0  0  0
   57.5590   29.1660   45.1200 C   0  0  0  0  0  0  0  0  0  0  0  0
   57.5790   30.5090   44.4940 C   0  0  0  0  0  0  0  0  0  0  0  0
   57.9250   30.6210   43.2890 O   0  0  0  0  0  0  0  0  0  0  0  0
   57.1550   31.6870   45.2010 N   0  0  0  0  0  0  0  0  0  0  0  0
   57.8940   32.7140   45.5110 C   0  0  0  0  0  0  0  0  0  0  0  0
   58.1310   33.7090   44.6070 N   0  0  0  0  0  0  0  0  0  0  0  0
   58.8950   34.7920   44.9090 C   0  0  0  0  0  0  0  0  0  0  0  0
   59.4570   34.9170   46.1800 C   0  0  0  0  0  0  0  0  0  0  0  0
   59.2190   33.9240   47.1310 C   0  0  0  0  0  0  0  0  0  0  0  0
   58.4340   32.8160   46.8010 C   0  0  0  0  0  0  0  0  0  0  0  0
   58.1980   31.8280   47.7510 O   0  0  0  0  0  0  0  0  0  0  0  0
   58.7620   28.5770   45.5380 C   0  0  0  0  0  0  0  0  0  0  0  0
   60.0127   26.2558   48.9023 H   0  0  0  0  0  0  0  0  0  0  0  0
   61.6960   26.7225   48.4835 H   0  0  0  0  0  0  0  0  0  0  0  0
   60.3944   27.9604   48.4835 H   0  0  0  0  0  0  0  0  0  0  0  0
   57.5753   25.5961   46.7081 H   0  0  0  0  0  0  0  0  0  0  0  0
   56.6664   24.4303   43.5364 H   0  0  0  0  0  0  0  0  0  0  0  0
   58.6378   22.8959   43.5054 H   0  0  0  0  0  0  0  0  0  0  0  0
   56.1251   23.5603   47.7455 H   0  0  0  0  0  0  0  0  0  0  0  0
   59.0702   35.5699   44.1513 H   0  0  0  0  0  0  0  0  0  0  0  0
   60.0805   35.7883   46.4294 H   0  0  0  0  0  0  0  0  0  0  0  0
   59.6489   34.0133   48.1396 H   0  0  0  0  0  0  0  0  0  0  0  0
   59.7076   29.1260   45.4177 H   0  0  0  0  0  0  0  0  0  0  0  0
  1  2  1  0
  2  3  2  0
  2  4  2  0
  2  5  1  0
  5  6  2  0
  6  7  1  0
  7  8  1  0
  8  9  1  0
  9 10  2  0
  9 11  1  0
 11 12  1  0
 12 13  2  0
 13 14  1  0
 14 15  2  0
 14 16  1  0
 16 17  1  0
  7 18  2  0
 18 19  1  0
 18 20  1  0
 20 21  1  0
 21 22  2  0
 21 23  1  0
 23 24  2  3
 24 25  1  0
 25 26  1  0
 26 27  2  0
 27 28  1  0
 28 29  2  0
 29 30  1  0
 20 31  2  0
 31  5  1  0
 17 11  2  0
 29 24  1  0
  1 32  1  0
  1 33  1  0
  1 34  1  0
  6 35  1  0
 12 36  1  0
 13 37  1  0
 17 38  1  0
 26 39  1  0
 27 40  1  0
 28 41  1  0
 31 42  1  0
M  CHG  5   8  -1  16  -1  19  -1  25  -1  30  -1
M  END
>  <UniqueID>  (66) 
63

>  <SMILES>  (66) 
CS(=O)(=O)c1cc([N-]C(=O)c2ccc(=O)[n-]c2)c([O-])c(C(=O)N=c2[n-]cccc2[O-])c1

>  <Energy>  (66) 
60.19409946368411

>  <Genealogy>  (66) 
CS(=O)(=O)c1cc([N-]C(=O)c2ccc(=O)[n-]c2)c([O-])c(C(=O)N=c2[n-]cccc2[O-])c1 (protonated)
CS(=O)(=O)c1cc([N-]C(=O)c2ccc(=O)[n-]c2)c([O-])c(C(=O)N=c2[n-]cccc2[O-])c1 (3D coordinates assigned)
CS(=O)(=O)c1cc([N-]C(=O)c2ccc(=O)[n-]c2)c([O-])c(C(=O)N=c2[n-]cccc2[O-])c1 (optimized conformer: 60.19409946368411 kcal/mol)

>  <smiles>  (66) 
CS(=O)(=O)c1cc(NC(=O)c2ccc(=O)[nH]c2)c(O)c(C(=O)N=c2[nH]cccc2O)c1

>  <score_type>  (66) 
oracle

>  <origin>  (66) 
adg

>  <m_score__min__energy>  (66) 
-18.460000000000001

>  <m_primary>  (66) 
energy

$$$$
66:0
     RDKit          3D

 49 52  0  0  0  0  0  0  0  0999 V2000
   54.7720   27.4620   46.2900 H   0  0  0  0  0  0  0  0  0  0  0  0
   55.4390   26.7100   46.4040 O   0  0  0  0  0  0  0  0  0  0  0  0
   55.4000   25.5410   45.6420 C   0  0  0  0  0  0  0  0  0  0  0  0
   54.2390   24.8360   45.5950 N   0  0  0  0  0  0  0  0  0  0  0  0
   54.1460   23.6700   44.9080 C   0  0  0  0  0  0  0  0  0  0  0  0
   53.0580   23.0420   44.8810 O   0  0  0  0  0  0  0  0  0  0  0  0
   55.2290   23.1790   44.2540 N   0  0  0  0  0  0  0  0  0  0  0  0
   56.4130   23.8420   44.2620 C   0  0  0  0  0  0  0  0  0  0  0  0
   57.3970   23.3560   43.6420 O   0  0  0  0  0  0  0  0  0  0  0  0
   56.5300   25.0650   44.9430 C   0  0  0  0  0  0  0  0  0  0  0  0
   57.8190   25.7930   44.9400 C   0  0  0  0  0  0  0  0  0  0  0  0
   58.7505   25.2114   45.0036 H   0  0  0  0  0  0  0  0  0  0  0  0
   57.9030   27.1340   44.8630 C   0  0  0  0  0  0  0  0  0  0  0  0
   57.4130   27.9250   43.8310 C   0  0  0  0  0  0  0  0  0  0  0  0
   56.8730   27.5799   42.9370 H   0  0  0  0  0  0  0  0  0  0  0  0
   57.7370   29.2290   44.1480 C   0  0  0  0  0  0  0  0  0  0  0  0
   57.3920   30.4190   43.3050 C   0  0  0  0  0  0  0  0  0  0  0  0
   57.1451   31.2705   43.9562 H   0  0  0  0  0  0  0  0  0  0  0  0
   58.2514   30.6801   42.6700 H   0  0  0  0  0  0  0  0  0  0  0  0
   56.5262   30.1799   42.6700 H   0  0  0  0  0  0  0  0  0  0  0  0
   58.3950   29.2800   45.3290 N   0  0  0  0  0  0  0  0  0  0  0  0
   58.8910   30.4720   45.9620 C   0  0  0  0  0  0  0  0  0  0  0  0
   58.1070   31.6350   45.9930 C   0  0  0  0  0  0  0  0  0  0  0  0
   57.1037   31.6314   45.5420 H   0  0  0  0  0  0  0  0  0  0  0  0
   58.5950   32.7970   46.5940 C   0  0  0  0  0  0  0  0  0  0  0  0
   57.9761   33.7062   46.6098 H   0  0  0  0  0  0  0  0  0  0  0  0
   59.8710   32.8110   47.1780 C   0  0  0  0  0  0  0  0  0  0  0  0
   60.4140   34.0760   47.7870 C   0  0  0  0  0  0  0  0  0  0  0  0
   60.4901   34.8502   47.0093 H   0  0  0  0  0  0  0  0  0  0  0  0
   59.7347   34.4109   48.5847 H   0  0  0  0  0  0  0  0  0  0  0  0
   61.7770   33.8260   48.3750 C   0  0  0  0  0  0  0  0  0  0  0  0
   61.9530   33.7980   49.7680 C   0  0  0  0  0  0  0  0  0  0  0  0
   61.0869   33.9306   50.4330 H   0  0  0  0  0  0  0  0  0  0  0  0
   63.2260   33.6020   50.3120 C   0  0  0  0  0  0  0  0  0  0  0  0
   63.3575   33.5728   51.4037 H   0  0  0  0  0  0  0  0  0  0  0  0
   64.3320   33.4430   49.4720 C   0  0  0  0  0  0  0  0  0  0  0  0
   65.3323   33.2866   49.9021 H   0  0  0  0  0  0  0  0  0  0  0  0
   64.1650   33.4830   48.0840 C   0  0  0  0  0  0  0  0  0  0  0  0
   65.0353   33.3608   47.4225 H   0  0  0  0  0  0  0  0  0  0  0  0
   62.8940   33.6780   47.5360 C   0  0  0  0  0  0  0  0  0  0  0  0
   62.7680   33.7157   46.4439 H   0  0  0  0  0  0  0  0  0  0  0  0
   60.6600   31.6510   47.1340 C   0  0  0  0  0  0  0  0  0  0  0  0
   61.6677   31.6574   47.5751 H   0  0  0  0  0  0  0  0  0  0  0  0
   60.1720   30.4890   46.5330 C   0  0  0  0  0  0  0  0  0  0  0  0
   60.7950   29.5828   46.5072 H   0  0  0  0  0  0  0  0  0  0  0  0
   58.5070   28.0040   45.7760 C   0  0  0  0  0  0  0  0  0  0  0  0
   59.0780   27.6630   46.9410 C   0  0  0  0  0  0  0  0  0  0  0  0
   59.5246   28.4373   47.5821 H   0  0  0  0  0  0  0  0  0  0  0  0
   59.0996   26.6091   47.2552 H   0  0  0  0  0  0  0  0  0  0  0  0
  1  2  1  0
  2  3  1  0
  3  4  1  0
  4  5  1  0
  5  6  2  0
  5  7  1  0
  7  8  1  0
  8  9  2  0
  8 10  1  0
 10 11  1  0
 11 12  1  0
 11 13  2  0
 13 14  1  0
 14 15  1  0
 14 16  2  0
 16 17  1  0
 17 18  1  0
 17 19  1  0
 17 20  1  0
 16 21  1  0
 21 22  1  0
 22 23  2  0
 23 24  1  0
 23 25  1  0
 25 26  1  0
 25 27  2  0
 27 28  1  0
 28 29  1  0
 28 30  1  0
 28 31  1  0
 31 32  2  0
 32 33  1  0
 32 34  1  0
 34 35  1  0
 34 36  2  0
 36 37  1  0
 36 38  1  0
 38 39  1  0
 38 40  2  0
 40 41  1  0
 27 42  1  0
 42 43  1  0
 42 44  2  0
 44 45  1  0
 21 46  1  0
 46 47  2  0
 47 48  1  0
 47 49  1  0
 10  3  2  0
 46 13  1  0
 44 22  1  0
 40 31  1  0
M  CHG  2   4  -1   7  -1
M  END
>  <UniqueID>  (67) 
64

>  <SMILES>  (67) 
C=c1/c(=C/c2c(O)[n-]c(=O)[n-]c2=O)cc(C)n1-c1ccc(Cc2ccccc2)cc1

>  <Energy>  (67) 
97.5090296484659

>  <Genealogy>  (67) 
C=c1c(=Cc2c(O)[n-]c(=O)[n-]c2=O)cc(C)n1-c1ccc(Cc2ccccc2)cc1 (protonated)
C=c1/c(=C/c2c(O)[n-]c(=O)[n-]c2=O)cc(C)n1-c1ccc(Cc2ccccc2)cc1 (cis-trans isomerization)
C=c1/c(=C/c2c(O)[n-]c(=O)[n-]c2=O)cc(C)n1-c1ccc(Cc2ccccc2)cc1 (3D coordinates assigned)
C=c1/c(=C/c2c(O)[n-]c(=O)[n-]c2=O)cc(C)n1-c1ccc(Cc2ccccc2)cc1 (optimized conformer: 97.5090296484659 kcal/mol)

>  <smiles>  (67) 
C=c1c(=Cc2c(O)[nH]c(=O)[nH]c2=O)cc(C)n1-c1ccc(Cc2ccccc2)cc1

>  <score_type>  (67) 
oracle

>  <origin>  (67) 
adg

>  <m_score__min__energy>  (67) 
-14.050000000000001

>  <m_primary>  (67) 
energy

$$$$
67:0
     RDKit          3D

 41 43  0  0  0  0  0  0  0  0999 V2000
   57.8280   32.2130   43.3040 C   0  0  0  0  0  0  0  0  0  0  0  0
   58.3570   32.8910   44.5320 C   0  0  0  0  0  0  0  0  0  0  0  0
   58.5150   34.2440   44.5020 N   0  0  0  0  0  0  0  0  0  0  0  0
   58.9610   34.9470   45.5750 C   0  0  0  0  0  0  0  0  0  0  0  0
   59.2630   34.2870   46.7640 C   0  0  0  0  0  0  0  0  0  0  0  0
   59.1190   32.9020   46.8320 C   0  0  0  0  0  0  0  0  0  0  0  0
   58.6900   32.1780   45.7100 C   0  0  0  0  0  0  0  0  0  0  0  0
   58.5750   30.7030   45.8260 C   0  0  0  0  0  0  0  0  0  0  0  0
   57.4370   30.1930   45.6260 O   0  0  0  0  0  0  0  0  0  0  0  0
   59.7280   29.8530   46.1040 N   0  0  0  0  0  0  0  0  0  0  0  0
   59.9920   28.8650   45.0300 C   0  0  0  0  0  0  0  0  0  0  0  0
   58.9110   27.7750   44.9580 C   0  0  0  0  0  0  0  0  0  0  0  0
   58.6880   27.1910   46.2820 N   0  0  0  0  0  0  0  0  0  0  0  0
   58.3960   25.7840   46.3890 C   0  0  0  0  0  0  0  0  0  0  0  0
   59.1770   24.9580   45.8450 O   0  0  0  0  0  0  0  0  0  0  0  0
   57.2030   25.2870   47.1190 C   0  0  0  0  0  0  0  0  0  0  0  0
   57.3450   24.5630   48.1390 O   0  0  0  0  0  0  0  0  0  0  0  0
   55.8710   25.5680   46.6650 N   0  0  0  0  0  0  0  0  0  0  0  0
   55.1910   24.8360   45.8340 C   0  0  0  0  0  0  0  0  0  0  0  0
   53.8860   24.5160   45.9660 N   0  0  0  0  0  0  0  0  0  0  0  0
   53.4840   23.6900   44.9510 C   0  0  0  0  0  0  0  0  0  0  0  0
   52.2980   23.2780   44.8820 O   0  0  0  0  0  0  0  0  0  0  0  0
   54.4120   23.3270   44.0210 N   0  0  0  0  0  0  0  0  0  0  0  0
   55.8150   24.0840   44.4960 S   0  0  0  0  0  0  0  0  0  0  0  0
   58.5290   28.0930   47.4250 C   0  0  0  0  0  0  0  0  0  0  0  0
   59.6330   29.1600   47.4120 C   0  0  0  0  0  0  0  0  0  0  0  0
   57.1760   31.3774   43.5986 H   0  0  0  0  0  0  0  0  0  0  0  0
   57.2518   32.9345   42.7062 H   0  0  0  0  0  0  0  0  0  0  0  0
   58.6680   31.8296   42.7062 H   0  0  0  0  0  0  0  0  0  0  0  0
   59.0838   36.0379   45.5052 H   0  0  0  0  0  0  0  0  0  0  0  0
   59.6116   34.8530   47.6405 H   0  0  0  0  0  0  0  0  0  0  0  0
   59.3431   32.3742   47.7707 H   0  0  0  0  0  0  0  0  0  0  0  0
   60.5680   30.4750   46.1390 H   0  0  0  0  0  0  0  0  0  0  0  0
   60.0265   29.3926   44.0654 H   0  0  0  0  0  0  0  0  0  0  0  0
   60.9498   28.3731   45.2549 H   0  0  0  0  0  0  0  0  0  0  0  0
   57.9723   28.2185   44.5944 H   0  0  0  0  0  0  0  0  0  0  0  0
   59.2459   26.9844   44.2704 H   0  0  0  0  0  0  0  0  0  0  0  0
   57.5468   28.5848   47.3666 H   0  0  0  0  0  0  0  0  0  0  0  0
   58.6012   27.5112   48.3558 H   0  0  0  0  0  0  0  0  0  0  0  0
   59.4153   29.9043   48.1921 H   0  0  0  0  0  0  0  0  0  0  0  0
   60.5926   28.6549   47.5967 H   0  0  0  0  0  0  0  0  0  0  0  0
  1  2  1  0
  2  3  2  0
  3  4  1  0
  4  5  2  0
  5  6  1  0
  6  7  2  0
  7  8  1  0
  8  9  2  0
  8 10  1  0
 10 11  1  0
 11 12  1  0
 12 13  1  0
 13 14  1  0
 14 15  2  0
 14 16  1  0
 16 17  2  0
 16 18  1  0
 18 19  2  3
 19 20  1  0
 20 21  1  0
 21 22  2  0
 21 23  1  0
 23 24  1  0
 13 25  1  0
 25 26  1  0
  7  2  1  0
 26 10  1  0
 24 19  1  0
  1 27  1  0
  1 28  1  0
  1 29  1  0
  4 30  1  0
  5 31  1  0
  6 32  1  0
 10 33  1  0
 11 34  1  0
 11 35  1  0
 12 36  1  0
 12 37  1  0
 25 38  1  0
 25 39  1  0
 26 40  1  0
 26 41  1  0
M  CHG  3  10   1  20  -1  23  -1
M  END
>  <UniqueID>  (68) 
65

>  <SMILES>  (68) 
Cc1ncccc1C(=O)[NH+]1CCN(C(=O)C(=O)N=c2[n-]c(=O)[n-]s2)CC1

>  <Energy>  (68) 
103.70826962200945

>  <Genealogy>  (68) 
Cc1ncccc1C(=O)[NH+]1CCN(C(=O)C(=O)N=c2[n-]c(=O)[n-]s2)CC1 (protonated)
Cc1ncccc1C(=O)[NH+]1CCN(C(=O)C(=O)N=c2[n-]c(=O)[n-]s2)CC1 (3D coordinates assigned)
Cc1ncccc1C(=O)[NH+]1CCN(C(=O)C(=O)N=c2[n-]c(=O)[n-]s2)CC1 (nonaromatic ring conformer: 103.70826962200945 kcal/mol)

>  <smiles>  (68) 
Cc1ncccc1C(=O)N1CCN(C(=O)C(=O)N=c2[nH]c(=O)[nH]s2)CC1

>  <score_type>  (68) 
oracle

>  <origin>  (68) 
adg

>  <m_score__min__energy>  (68) 
-10.16

>  <m_primary>  (68) 
energy

$$$$
68:0
     RDKit          3D

 59 62  0  0  0  0  0  0  0  0999 V2000
   61.5560   28.1750   53.1040 C   0  0  0  0  0  0  0  0  0  0  0  0
   61.8730   29.5420   53.3600 O   0  0  0  0  0  0  0  0  0  0  0  0
   62.4940   30.4020   52.4430 C   0  0  0  0  0  0  0  0  0  0  0  0
   61.8640   31.5690   51.9680 C   0  0  0  0  0  0  0  0  0  0  0  0
   62.5100   32.4110   51.0540 C   0  0  0  0  0  0  0  0  0  0  0  0
   63.7860   32.0640   50.5720 C   0  0  0  0  0  0  0  0  0  0  0  0
   64.4210   30.9100   51.0550 C   0  0  0  0  0  0  0  0  0  0  0  0
   63.7800   30.0750   51.9890 C   0  0  0  0  0  0  0  0  0  0  0  0
   64.3910   28.9130   52.4880 O   0  0  0  0  0  0  0  0  0  0  0  0
   65.5800   28.3330   51.9600 C   0  0  0  0  0  0  0  0  0  0  0  0
   64.5230   32.9710   49.6140 C   0  0  0  0  0  0  0  0  0  0  0  0
   63.6190   33.8550   48.8460 N   0  0  0  0  0  0  0  0  0  0  0  0
   62.8820   33.1420   47.7760 C   0  0  0  0  0  0  0  0  0  0  0  0
   63.0250   31.6210   47.9230 C   0  0  0  0  0  0  0  0  0  0  0  0
   61.7070   30.9340   47.6780 C   0  0  0  0  0  0  0  0  0  0  0  0
   61.3790   30.4780   46.3910 C   0  0  0  0  0  0  0  0  0  0  0  0
   60.1770   29.8010   46.1650 C   0  0  0  0  0  0  0  0  0  0  0  0
   59.2850   29.5710   47.2270 C   0  0  0  0  0  0  0  0  0  0  0  0
   58.0320   28.9020   47.0240 N   0  0  0  0  0  0  0  0  0  0  0  0
   57.2750   28.9100   45.8100 C   0  0  0  0  0  0  0  0  0  0  0  0
   56.6960   29.9630   45.4270 O   0  0  0  0  0  0  0  0  0  0  0  0
   57.2730   27.6910   44.9380 C   0  0  0  0  0  0  0  0  0  0  0  0
   57.1700   26.4280   45.7650 C   0  0  0  0  0  0  0  0  0  0  0  0
   55.9280   25.9880   46.2540 C   0  0  0  0  0  0  0  0  0  0  0  0
   54.7690   26.7120   45.9990 O   0  0  0  0  0  0  0  0  0  0  0  0
   55.8500   24.8430   46.9830 N   0  0  0  0  0  0  0  0  0  0  0  0
   56.9560   24.1010   47.2460 C   0  0  0  0  0  0  0  0  0  0  0  0
   56.8590   23.0450   47.9270 O   0  0  0  0  0  0  0  0  0  0  0  0
   58.1650   24.4930   46.7730 N   0  0  0  0  0  0  0  0  0  0  0  0
   58.2980   25.6300   46.0380 C   0  0  0  0  0  0  0  0  0  0  0  0
   59.4390   25.9560   45.6080 O   0  0  0  0  0  0  0  0  0  0  0  0
   59.5990   30.0510   48.5040 C   0  0  0  0  0  0  0  0  0  0  0  0
   60.8100   30.7120   48.7340 C   0  0  0  0  0  0  0  0  0  0  0  0
   62.7130   34.5770   49.7610 C   0  0  0  0  0  0  0  0  0  0  0  0
   61.7830   33.6250   50.5320 C   0  0  0  0  0  0  0  0  0  0  0  0
   61.4325   27.6423   54.0584 H   0  0  0  0  0  0  0  0  0  0  0  0
   60.6206   28.1172   52.5281 H   0  0  0  0  0  0  0  0  0  0  0  0
   62.3705   27.7114   52.5281 H   0  0  0  0  0  0  0  0  0  0  0  0
   60.8527   31.8220   52.3191 H   0  0  0  0  0  0  0  0  0  0  0  0
   65.4305   30.6552   50.6999 H   0  0  0  0  0  0  0  0  0  0  0  0
   66.2316   28.0152   52.7873 H   0  0  0  0  0  0  0  0  0  0  0  0
   65.3196   27.4607   51.3425 H   0  0  0  0  0  0  0  0  0  0  0  0
   66.1071   29.0752   51.3425 H   0  0  0  0  0  0  0  0  0  0  0  0
   65.2202   33.5973   50.1899 H   0  0  0  0  0  0  0  0  0  0  0  0
   65.0492   32.3297   48.8916 H   0  0  0  0  0  0  0  0  0  0  0  0
   61.8166   33.4096   47.8344 H   0  0  0  0  0  0  0  0  0  0  0  0
   63.3037   33.4395   46.8046 H   0  0  0  0  0  0  0  0  0  0  0  0
   63.7631   31.2559   47.1937 H   0  0  0  0  0  0  0  0  0  0  0  0
   63.3554   31.3952   48.9476 H   0  0  0  0  0  0  0  0  0  0  0  0
   62.0723   30.6546   45.5554 H   0  0  0  0  0  0  0  0  0  0  0  0
   59.9284   29.4473   45.1535 H   0  0  0  0  0  0  0  0  0  0  0  0
   56.4147   27.7418   44.2519 H   0  0  0  0  0  0  0  0  0  0  0  0
   58.2177   27.6633   44.3752 H   0  0  0  0  0  0  0  0  0  0  0  0
   58.8889   29.9074   49.3317 H   0  0  0  0  0  0  0  0  0  0  0  0
   61.0603   31.0594   49.7472 H   0  0  0  0  0  0  0  0  0  0  0  0
   63.3181   35.1433   50.4843 H   0  0  0  0  0  0  0  0  0  0  0  0
   62.0836   35.2447   49.1543 H   0  0  0  0  0  0  0  0  0  0  0  0
   61.3469   34.1689   51.3829 H   0  0  0  0  0  0  0  0  0  0  0  0
   61.0056   33.2775   49.8356 H   0  0  0  0  0  0  0  0  0  0  0  0
  1  2  1  0
  2  3  1  0
  3  4  2  0
  4  5  1  0
  5  6  2  0
  6  7  1  0
  7  8  2  0
  8  9  1  0
  9 10  1  0
  6 11  1  0
 11 12  1  0
 12 13  1  0
 13 14  1  0
 14 15  1  0
 15 16  2  0
 16 17  1  0
 17 18  2  0
 18 19  1  0
 19 20  1  0
 20 21  2  0
 20 22  1  0
 22 23  1  0
 23 24  2  0
 24 25  1  0
 24 26  1  0
 26 27  1  0
 27 28  2  0
 27 29  1  0
 29 30  1  0
 30 31  2  0
 18 32  1  0
 32 33  2  0
 12 34  1  0
 34 35  1  0
  8  3  1  0
 33 15  1  0
 35  5  1  0
 30 23  1  0
  1 36  1  0
  1 37  1  0
  1 38  1  0
  4 39  1  0
  7 40  1  0
 10 41  1  0
 10 42  1  0
 10 43  1  0
 11 44  1  0
 11 45  1  0
 13 46  1  0
 13 47  1  0
 14 48  1  0
 14 49  1  0
 16 50  1  0
 17 51  1  0
 22 52  1  0
 22 53  1  0
 32 54  1  0
 33 55  1  0
 34 56  1  0
 34 57  1  0
 35 58  1  0
 35 59  1  0
M  CHG  4  19  -1  25  -1  26  -1  29  -1
M  END
>  <UniqueID>  (69) 
66

>  <SMILES>  (69) 
COc1cc2c(cc1OC)CN(CCc1ccc([N-]C(=O)Cc3c([O-])[n-]c(=O)[n-]c3=O)cc1)CC2

>  <Energy>  (69) 
71.18179581145863

>  <Genealogy>  (69) 
COc1cc2c(cc1OC)CN(CCc1ccc([N-]C(=O)Cc3c([O-])[n-]c(=O)[n-]c3=O)cc1)CC2 (protonated)
COc1cc2c(cc1OC)CN(CCc1ccc([N-]C(=O)Cc3c([O-])[n-]c(=O)[n-]c3=O)cc1)CC2 (3D coordinates assigned)
COc1cc2c(cc1OC)CN(CCc1ccc([N-]C(=O)Cc3c([O-])[n-]c(=O)[n-]c3=O)cc1)CC2 (nonaromatic ring conformer: 71.18179581145863 kcal/mol)

>  <smiles>  (69) 
COc1cc2c(cc1OC)CN(CCc1ccc(NC(=O)Cc3c(O)[nH]c(=O)[nH]c3=O)cc1)CC2

>  <score_type>  (69) 
oracle

>  <origin>  (69) 
adg

>  <m_score__min__energy>  (69) 
-17.170000000000002

>  <m_primary>  (69) 
energy

$$$$
69:0
     RDKit          3D

 43 45  0  0  0  0  0  0  0  0999 V2000
   55.4680   29.6050   44.8650 O   0  0  0  0  0  0  0  0  0  0  0  0
   56.2760   30.1740   44.1480 C   0  0  0  0  0  0  0  0  0  0  0  0
   57.4020   30.9680   44.7530 C   0  0  1  0  0  0  0  0  0  0  0  0
   57.0080   32.4490   44.8700 C   0  0  0  0  0  0  0  0  0  0  0  0
   58.0070   33.2170   45.6990 C   0  0  0  0  0  0  0  0  0  0  0  0
   59.0340   33.9460   45.0750 C   0  0  0  0  0  0  0  0  0  0  0  0
   59.9890   34.6190   45.8450 C   0  0  0  0  0  0  0  0  0  0  0  0
   59.9280   34.5650   47.2400 C   0  0  0  0  0  0  0  0  0  0  0  0
   58.9170   33.8320   47.8680 C   0  0  0  0  0  0  0  0  0  0  0  0
   57.9600   33.1590   47.1020 C   0  0  0  0  0  0  0  0  0  0  0  0
   57.7360   30.4430   46.0760 N   0  0  0  0  0  0  0  0  0  0  0  0
   59.0460   30.0110   46.4520 C   0  0  0  0  0  0  0  0  0  0  0  0
   60.0300   30.2200   45.6920 O   0  0  0  0  0  0  0  0  0  0  0  0
   59.2500   29.3100   47.7620 C   0  0  0  0  0  0  0  0  0  0  0  0
   60.7100   29.3710   48.2260 C   0  0  0  0  0  0  0  0  0  0  0  0
   61.0450   30.7010   48.8370 C   0  0  0  0  0  0  0  0  0  0  0  0
   60.4290   31.2800   49.9430 C   0  0  0  0  0  0  0  0  0  0  0  0
   60.9430   32.5090   50.1800 N   0  0  0  0  0  0  0  0  0  0  0  0
   61.8720   32.7140   49.2310 C   0  0  0  0  0  0  0  0  0  0  0  0
   62.6630   33.8490   49.0540 C   0  0  0  0  0  0  0  0  0  0  0  0
   63.5710   33.8570   47.9800 C   0  0  0  0  0  0  0  0  0  0  0  0
   63.6670   32.7440   47.1150 C   0  0  0  0  0  0  0  0  0  0  0  0
   62.8540   31.6120   47.3160 C   0  0  0  0  0  0  0  0  0  0  0  0
   61.9630   31.6330   48.3900 C   0  0  0  0  0  0  0  0  0  0  0  0
   56.1804   30.1059   43.0543 H   0  0  0  0  0  0  0  0  0  0  0  0
   58.2810   30.8810   44.0974 H   0  0  0  0  0  0  0  0  0  0  0  0
   56.9643   32.8890   43.8628 H   0  0  0  0  0  0  0  0  0  0  0  0
   56.0268   32.5097   45.3636 H   0  0  0  0  0  0  0  0  0  0  0  0
   59.0872   33.9876   43.9771 H   0  0  0  0  0  0  0  0  0  0  0  0
   60.7886   35.1911   45.3517 H   0  0  0  0  0  0  0  0  0  0  0  0
   60.6759   35.0995   47.8441 H   0  0  0  0  0  0  0  0  0  0  0  0
   58.8741   33.7845   48.9661 H   0  0  0  0  0  0  0  0  0  0  0  0
   57.1671   32.5818   47.6000 H   0  0  0  0  0  0  0  0  0  0  0  0
   58.6155   29.7879   48.5229 H   0  0  0  0  0  0  0  0  0  0  0  0
   58.9810   28.2521   47.6262 H   0  0  0  0  0  0  0  0  0  0  0  0
   60.8792   28.5826   48.9741 H   0  0  0  0  0  0  0  0  0  0  0  0
   61.3549   29.2261   47.3467 H   0  0  0  0  0  0  0  0  0  0  0  0
   59.6363   30.8054   50.5400 H   0  0  0  0  0  0  0  0  0  0  0  0
   60.6630   33.1660   50.9410 H   0  0  0  0  0  0  0  0  0  0  0  0
   62.5793   34.7105   49.7328 H   0  0  0  0  0  0  0  0  0  0  0  0
   64.2109   34.7359   47.8123 H   0  0  0  0  0  0  0  0  0  0  0  0
   64.3816   32.7619   46.2789 H   0  0  0  0  0  0  0  0  0  0  0  0
   62.9190   30.7400   46.6486 H   0  0  0  0  0  0  0  0  0  0  0  0
  1  2  2  0
  2  3  1  0
  3  4  1  0
  4  5  1  0
  5  6  2  0
  6  7  1  0
  7  8  2  0
  8  9  1  0
  9 10  2  0
  3 11  1  0
 11 12  1  0
 12 13  2  0
 12 14  1  0
 14 15  1  0
 15 16  1  0
 16 17  2  0
 17 18  1  0
 18 19  1  0
 19 20  2  0
 20 21  1  0
 21 22  2  0
 22 23  1  0
 23 24  2  0
 10  5  1  0
 24 16  1  0
 24 19  1  0
  2 25  1  0
  3 26  1  6
  4 27  1  0
  4 28  1  0
  6 29  1  0
  7 30  1  0
  8 31  1  0
  9 32  1  0
 10 33  1  0
 14 34  1  0
 14 35  1  0
 15 36  1  0
 15 37  1  0
 17 38  1  0
 18 39  1  0
 20 40  1  0
 21 41  1  0
 22 42  1  0
 23 43  1  0
M  CHG  1  11  -1
M  END
>  <UniqueID>  (70) 
67

>  <SMILES>  (70) 
O=C[C@@H](Cc1ccccc1)[N-]C(=O)CCc1c[nH]c2ccccc12

>  <Energy>  (70) 
67.73384170404464

>  <Genealogy>  (70) 
O=CC(Cc1ccccc1)[N-]C(=O)CCc1c[nH]c2ccccc12 (protonated)
O=C[C@@H](Cc1ccccc1)[N-]C(=O)CCc1c[nH]c2ccccc12 (chirality)
O=C[C@@H](Cc1ccccc1)[N-]C(=O)CCc1c[nH]c2ccccc12 (3D coordinates assigned)
O=C[C@@H](Cc1ccccc1)[N-]C(=O)CCc1c[nH]c2ccccc12 (optimized conformer: 67.73384170404464 kcal/mol)

>  <smiles>  (70) 
O=CC(Cc1ccccc1)NC(=O)CCc1c[nH]c2ccccc12

>  <score_type>  (70) 
oracle

>  <origin>  (70) 
adg

>  <m_score__min__energy>  (70) 
-10.640000000000001

>  <m_primary>  (70) 
energy

$$$$
70:0
     RDKit          3D

 54 57  0  0  0  0  0  0  0  0999 V2000
   59.6840   31.0420   47.4080 C   0  0  0  0  0  0  0  0  0  0  0  0
   58.9050   31.3020   46.1380 C   0  0  0  0  0  0  0  0  0  0  0  0
   58.4740   32.6180   45.8060 C   0  0  0  0  0  0  0  0  0  0  0  0
   58.7430   33.8210   46.6860 C   0  0  0  0  0  0  0  0  0  0  0  0
   60.1820   34.0420   46.8220 N   0  0  0  0  0  0  0  0  0  0  0  0
   60.8590   33.9480   48.0870 C   0  0  0  0  0  0  0  0  0  0  0  0
   60.1960   33.7850   49.1450 O   0  0  0  0  0  0  0  0  0  0  0  0
   62.3640   34.0330   48.1770 C   0  0  0  0  0  0  0  0  0  0  0  0
   63.0300   32.7540   48.6820 C   0  0  0  0  0  0  0  0  0  0  0  0
   63.7460   32.6040   47.3450 C   0  0  0  0  0  0  0  0  0  0  0  0
   63.0820   33.8800   46.8380 C   0  0  0  0  0  0  0  0  0  0  0  0
   57.7410   32.8250   44.6250 C   0  0  0  0  0  0  0  0  0  0  0  0
   57.4500   31.7660   43.7700 C   0  0  0  0  0  0  0  0  0  0  0  0
   57.8700   30.4780   44.0850 C   0  0  0  0  0  0  0  0  0  0  0  0
   58.5850   30.2320   45.2630 C   0  0  0  0  0  0  0  0  0  0  0  0
   58.9620   28.8790   45.5690 N   0  0  0  0  0  0  0  0  0  0  0  0
   60.3520   28.5170   45.6010 C   0  0  0  0  0  0  0  0  0  0  0  0
   61.2410   29.3350   45.2450 O   0  0  0  0  0  0  0  0  0  0  0  0
   60.7240   27.2040   46.0140 N   0  0  0  0  0  0  0  0  0  0  0  0
   59.7810   26.3390   46.7140 C   0  0  0  0  0  0  0  0  0  0  0  0
   58.3610   26.5820   46.2640 C   0  0  0  0  0  0  0  0  0  0  0  0
   57.3980   25.5800   46.4480 C   0  0  0  0  0  0  0  0  0  0  0  0
   56.0540   25.8310   46.1110 C   0  0  0  0  0  0  0  0  0  0  0  0
   55.1140   24.9400   46.2510 N   0  0  0  0  0  0  0  0  0  0  0  0
   54.8510   23.5270   45.2720 S   0  0  0  0  0  0  0  0  0  0  0  0
   55.8120   23.6230   43.7770 C   0  0  0  0  0  0  0  0  0  0  0  0
   53.3890   23.3840   44.9520 O   0  0  0  0  0  0  0  0  0  0  0  0
   55.2910   22.3190   46.0500 O   0  0  0  0  0  0  0  0  0  0  0  0
   55.7140   27.0530   45.6250 N   0  0  0  0  0  0  0  0  0  0  0  0
   56.6200   28.0500   45.4490 C   0  0  0  0  0  0  0  0  0  0  0  0
   57.9730   27.8440   45.7680 C   0  0  0  0  0  0  0  0  0  0  0  0
   59.0468   31.2547   48.2790 H   0  0  0  0  0  0  0  0  0  0  0  0
   60.0016   29.9892   47.4343 H   0  0  0  0  0  0  0  0  0  0  0  0
   60.5702   31.6931   47.4343 H   0  0  0  0  0  0  0  0  0  0  0  0
   58.2808   34.7111   46.2342 H   0  0  0  0  0  0  0  0  0  0  0  0
   58.3147   33.6369   47.6823 H   0  0  0  0  0  0  0  0  0  0  0  0
   60.7310   34.2410   45.9560 H   0  0  0  0  0  0  0  0  0  0  0  0
   62.4493   34.9693   48.7480 H   0  0  0  0  0  0  0  0  0  0  0  0
   63.7036   32.9057   49.5383 H   0  0  0  0  0  0  0  0  0  0  0  0
   62.4227   31.9303   49.0854 H   0  0  0  0  0  0  0  0  0  0  0  0
   64.8420   32.6664   47.4143 H   0  0  0  0  0  0  0  0  0  0  0  0
   63.6600   31.6690   46.7720 H   0  0  0  0  0  0  0  0  0  0  0  0
   63.7864   34.6935   46.6099 H   0  0  0  0  0  0  0  0  0  0  0  0
   62.5130   33.8771   45.8966 H   0  0  0  0  0  0  0  0  0  0  0  0
   57.3926   33.8375   44.3730 H   0  0  0  0  0  0  0  0  0  0  0  0
   56.8865   31.9481   42.8430 H   0  0  0  0  0  0  0  0  0  0  0  0
   57.6385   29.6464   43.4032 H   0  0  0  0  0  0  0  0  0  0  0  0
   60.0437   25.2897   46.5142 H   0  0  0  0  0  0  0  0  0  0  0  0
   59.8432   26.5629   47.7892 H   0  0  0  0  0  0  0  0  0  0  0  0
   57.6913   24.6008   46.8543 H   0  0  0  0  0  0  0  0  0  0  0  0
   56.8768   23.7294   44.0318 H   0  0  0  0  0  0  0  0  0  0  0  0
   55.6658   22.7058   43.1876 H   0  0  0  0  0  0  0  0  0  0  0  0
   55.4873   24.4932   43.1876 H   0  0  0  0  0  0  0  0  0  0  0  0
   56.2928   29.0234   45.0548 H   0  0  0  0  0  0  0  0  0  0  0  0
  1  2  1  0
  2  3  2  0
  3  4  1  0
  4  5  1  0
  5  6  1  0
  6  7  2  0
  6  8  1  0
  8  9  1  0
  9 10  1  0
 10 11  1  0
  3 12  1  0
 12 13  2  0
 13 14  1  0
 14 15  2  0
 15 16  1  0
 16 17  1  0
 17 18  2  0
 17 19  1  0
 19 20  1  0
 20 21  1  0
 21 22  2  0
 22 23  1  0
 23 24  2  3
 24 25  1  0
 25 26  1  0
 25 27  2  0
 25 28  2  0
 23 29  1  0
 29 30  1  0
 30 31  2  0
 15  2  1  0
 31 16  1  0
 11  8  1  0
 31 21  1  0
  1 32  1  0
  1 33  1  0
  1 34  1  0
  4 35  1  0
  4 36  1  0
  5 37  1  0
  8 38  1  0
  9 39  1  0
  9 40  1  0
 10 41  1  0
 10 42  1  0
 11 43  1  0
 11 44  1  0
 12 45  1  0
 13 46  1  0
 14 47  1  0
 20 48  1  0
 20 49  1  0
 22 50  1  0
 26 51  1  0
 26 52  1  0
 26 53  1  0
 30 54  1  0
M  CHG  2  19  -1  29  -1
M  END
>  <UniqueID>  (71) 
68

>  <SMILES>  (71) 
Cc1c(CNC(=O)C2CCC2)cccc1N1C(=O)[N-]Cc2cc(=NS(C)(=O)=O)[n-]cc21

>  <Energy>  (71) 
128.77160236579041

>  <Genealogy>  (71) 
Cc1c(CNC(=O)C2CCC2)cccc1N1C(=O)[N-]Cc2cc(=NS(C)(=O)=O)[n-]cc21 (protonated)
Cc1c(CNC(=O)C2CCC2)cccc1N1C(=O)[N-]Cc2cc(=NS(C)(=O)=O)[n-]cc21 (3D coordinates assigned)
Cc1c(CNC(=O)C2CCC2)cccc1N1C(=O)[N-]Cc2cc(=NS(C)(=O)=O)[n-]cc21 (nonaromatic ring conformer: 128.77160236579041 kcal/mol)

>  <smiles>  (71) 
Cc1c(CNC(=O)C2CCC2)cccc1N1C(=O)NCc2cc(=NS(C)(=O)=O)[nH]cc21

>  <score_type>  (71) 
oracle

>  <origin>  (71) 
adg

>  <m_score__min__energy>  (71) 
-12.630000000000001

>  <m_primary>  (71) 
energy

$$$$
71:0
     RDKit          3D

 39 41  0  0  0  0  0  0  0  0999 V2000
   60.6910   27.5710   52.2150 C   0  0  0  0  0  0  0  0  0  0  0  0
   60.1880   28.2430   53.4870 C   0  0  0  0  0  0  0  0  0  0  0  0
   58.8670   28.8620   53.2550 N   0  0  0  0  0  0  0  0  0  0  0  0
   57.7210   28.1770   53.5950 C   0  0  0  0  0  0  0  0  0  0  0  0
   57.7690   27.0320   54.1230 O   0  0  0  0  0  0  0  0  0  0  0  0
   56.5000   28.7720   53.3360 C   0  0  0  0  0  0  0  0  0  0  0  0
   55.2680   28.2990   53.5750 N   0  0  0  0  0  0  0  0  0  0  0  0
   54.4810   29.3000   53.1000 C   0  0  0  0  0  0  0  0  0  0  0  0
   52.9900   29.2680   53.1940 C   0  0  0  0  0  0  0  0  0  0  0  0
   52.3920   30.1910   52.1700 C   0  0  0  0  0  0  0  0  0  0  0  0
   52.3510   29.8170   50.8160 C   0  0  0  0  0  0  0  0  0  0  0  0
   51.7610   30.6590   49.8700 C   0  0  0  0  0  0  0  0  0  0  0  0
   51.1970   31.8760   50.2670 C   0  0  0  0  0  0  0  0  0  0  0  0
   50.6120   32.7090   49.3210 O   0  0  0  0  0  0  0  0  0  0  0  0
   51.2210   32.2500   51.6170 C   0  0  0  0  0  0  0  0  0  0  0  0
   50.6550   33.4540   52.0180 O   0  0  0  0  0  0  0  0  0  0  0  0
   51.8120   31.4080   52.5660 C   0  0  0  0  0  0  0  0  0  0  0  0
   55.1600   30.3650   52.5980 N   0  0  0  0  0  0  0  0  0  0  0  0
   56.4370   29.9890   52.7620 C   0  0  0  0  0  0  0  0  0  0  0  0
   57.5510   30.6900   52.4130 N   0  0  0  0  0  0  0  0  0  0  0  0
   57.4330   31.9990   51.7510 C   0  0  0  0  0  0  0  0  0  0  0  0
   58.0630   31.9510   50.3620 C   0  0  0  0  0  0  0  0  0  0  0  0
   58.7780   30.1040   52.6460 C   0  0  0  0  0  0  0  0  0  0  0  0
   59.8320   30.7080   52.2940 O   0  0  0  0  0  0  0  0  0  0  0  0
   61.3307   26.7163   52.4802 H   0  0  0  0  0  0  0  0  0  0  0  0
   59.8336   27.2176   51.6234 H   0  0  0  0  0  0  0  0  0  0  0  0
   61.2717   28.2940   51.6234 H   0  0  0  0  0  0  0  0  0  0  0  0
   60.1004   27.4902   54.2843 H   0  0  0  0  0  0  0  0  0  0  0  0
   60.9017   29.0260   53.7829 H   0  0  0  0  0  0  0  0  0  0  0  0
   52.6352   28.2428   53.0121 H   0  0  0  0  0  0  0  0  0  0  0  0
   52.6838   29.5952   54.1986 H   0  0  0  0  0  0  0  0  0  0  0  0
   52.7853   28.8572   50.4996 H   0  0  0  0  0  0  0  0  0  0  0  0
   51.7399   30.3642   48.8104 H   0  0  0  0  0  0  0  0  0  0  0  0
   51.8225   31.7002   53.6264 H   0  0  0  0  0  0  0  0  0  0  0  0
   56.3693   32.2635   51.6577 H   0  0  0  0  0  0  0  0  0  0  0  0
   57.9583   32.7533   52.3553 H   0  0  0  0  0  0  0  0  0  0  0  0
   59.1557   31.8677   50.4577 H   0  0  0  0  0  0  0  0  0  0  0  0
   57.6755   31.0798   49.8135 H   0  0  0  0  0  0  0  0  0  0  0  0
   57.8120   32.8709   49.8135 H   0  0  0  0  0  0  0  0  0  0  0  0
  1  2  1  0
  2  3  1  0
  3  4  1  0
  4  5  2  0
  4  6  1  0
  6  7  1  0
  7  8  1  0
  8  9  1  0
  9 10  1  0
 10 11  2  0
 11 12  1  0
 12 13  2  0
 13 14  1  0
 13 15  1  0
 15 16  1  0
 15 17  2  0
  8 18  2  0
 18 19  1  0
 19 20  1  0
 20 21  1  0
 21 22  1  0
 20 23  1  0
 23 24  2  0
 23  3  1  0
 19  6  2  0
 17 10  1  0
  1 25  1  0
  1 26  1  0
  1 27  1  0
  2 28  1  0
  2 29  1  0
  9 30  1  0
  9 31  1  0
 11 32  1  0
 12 33  1  0
 17 34  1  0
 21 35  1  0
 21 36  1  0
 22 37  1  0
 22 38  1  0
 22 39  1  0
M  CHG  3   7  -1  14  -1  16  -1
M  END
>  <UniqueID>  (72) 
69

>  <SMILES>  (72) 
CCn1c(=O)c2[n-]c(Cc3ccc([O-])c([O-])c3)nc2n(CC)c1=O

>  <Energy>  (72) 
76.04606117742647

>  <Genealogy>  (72) 
CCn1c(=O)c2[n-]c(Cc3ccc([O-])c([O-])c3)nc2n(CC)c1=O (protonated)
CCn1c(=O)c2[n-]c(Cc3ccc([O-])c([O-])c3)nc2n(CC)c1=O (3D coordinates assigned)
CCn1c(=O)c2[n-]c(Cc3ccc([O-])c([O-])c3)nc2n(CC)c1=O (optimized conformer: 76.04606117742647 kcal/mol)

>  <smiles>  (72) 
CCn1c(=O)c2[nH]c(Cc3ccc(O)c(O)c3)nc2n(CC)c1=O

>  <score_type>  (72) 
oracle

>  <origin>  (72) 
adg

>  <m_score__min__energy>  (72) 
-16.43

>  <m_primary>  (72) 
energy

$$$$
72:0
     RDKit          3D

 49 51  0  0  0  0  0  0  0  0999 V2000
   60.1370   29.6570   48.5520 C   0  0  0  0  0  0  0  0  0  0  0  0
   60.2980   30.9930   49.0150 O   0  0  0  0  0  0  0  0  0  0  0  0
   61.4730   31.7510   48.8750 C   0  0  0  0  0  0  0  0  0  0  0  0
   62.7280   31.2490   49.2750 C   0  0  0  0  0  0  0  0  0  0  0  0
   63.8810   32.0180   49.1140 C   0  0  0  0  0  0  0  0  0  0  0  0
   63.7990   33.2950   48.5600 C   0  0  0  0  0  0  0  0  0  0  0  0
   62.5630   33.8080   48.1650 C   0  0  0  0  0  0  0  0  0  0  0  0
   61.3920   33.0410   48.3080 C   0  0  0  0  0  0  0  0  0  0  0  0
   60.0730   33.5900   47.9030 C   0  0  0  0  0  0  0  0  0  0  0  0
   59.3870   34.2010   48.7670 O   0  0  0  0  0  0  0  0  0  0  0  0
   59.5000   33.4480   46.5080 C   0  0  2  0  0  0  0  0  0  0  0  0
   58.4430   34.5150   46.1640 C   0  0  0  0  0  0  0  0  0  0  0  0
   58.0380   34.4480   44.6790 C   0  0  0  0  0  0  0  0  0  0  0  0
   58.1260   33.0310   44.0790 C   0  0  0  0  0  0  0  0  0  0  0  0
   58.0160   32.0040   45.1220 N   0  0  0  0  0  0  0  0  0  0  0  0
   57.2290   30.8270   44.8790 C   0  0  0  0  0  0  0  0  0  0  0  0
   56.0220   30.9520   44.5320 O   0  0  0  0  0  0  0  0  0  0  0  0
   57.8060   29.4750   45.0490 C   0  0  0  0  0  0  0  0  0  0  0  0
   59.1790   29.2570   44.8460 C   0  0  0  0  0  0  0  0  0  0  0  0
   59.7240   27.9800   45.0100 C   0  0  0  0  0  0  0  0  0  0  0  0
   58.9020   26.9080   45.3680 C   0  0  0  0  0  0  0  0  0  0  0  0
   57.5290   27.1060   45.5550 C   0  0  0  0  0  0  0  0  0  0  0  0
   56.5030   25.7500   46.0130 S   0  0  0  0  0  0  0  0  0  0  0  0
   54.8450   26.2410   45.9910 N   0  0  0  0  0  0  0  0  0  0  0  0
   56.8500   25.2820   47.3980 O   0  0  0  0  0  0  0  0  0  0  0  0
   56.7040   24.6230   45.0410 O   0  0  0  0  0  0  0  0  0  0  0  0
   56.9840   28.3860   45.3890 C   0  0  0  0  0  0  0  0  0  0  0  0
   58.9360   32.0320   46.2720 C   0  0  0  0  0  0  0  0  0  0  0  0
   60.0551   28.9778   49.4134 H   0  0  0  0  0  0  0  0  0  0  0  0
   59.2240   29.5877   47.9424 H   0  0  0  0  0  0  0  0  0  0  0  0
   61.0074   29.3728   47.9424 H   0  0  0  0  0  0  0  0  0  0  0  0
   62.7988   30.2442   49.7171 H   0  0  0  0  0  0  0  0  0  0  0  0
   64.8567   31.6161   49.4247 H   0  0  0  0  0  0  0  0  0  0  0  0
   64.7099   33.8987   48.4342 H   0  0  0  0  0  0  0  0  0  0  0  0
   62.5035   34.8202   47.7384 H   0  0  0  0  0  0  0  0  0  0  0  0
   60.3455   33.6135   45.8241 H   0  0  0  0  0  0  0  0  0  0  0  0
   57.5511   34.3485   46.7859 H   0  0  0  0  0  0  0  0  0  0  0  0
   58.8764   35.5069   46.3599 H   0  0  0  0  0  0  0  0  0  0  0  0
   57.0006   34.8016   44.5851 H   0  0  0  0  0  0  0  0  0  0  0  0
   58.7469   35.0787   44.1224 H   0  0  0  0  0  0  0  0  0  0  0  0
   57.3083   32.8965   43.3556 H   0  0  0  0  0  0  0  0  0  0  0  0
   59.1030   32.9223   43.5854 H   0  0  0  0  0  0  0  0  0  0  0  0
   59.8289   30.0959   44.5564 H   0  0  0  0  0  0  0  0  0  0  0  0
   60.8013   27.8188   44.8570 H   0  0  0  0  0  0  0  0  0  0  0  0
   59.3351   25.9059   45.5032 H   0  0  0  0  0  0  0  0  0  0  0  0
   54.7630   27.0660   46.6260 H   0  0  0  0  0  0  0  0  0  0  0  0
   55.9035   28.5404   45.5259 H   0  0  0  0  0  0  0  0  0  0  0  0
   58.3932   31.7085   47.1724 H   0  0  0  0  0  0  0  0  0  0  0  0
   59.7770   31.3558   46.0587 H   0  0  0  0  0  0  0  0  0  0  0  0
  1  2  1  0
  2  3  1  0
  3  4  2  0
  4  5  1  0
  5  6  2  0
  6  7  1  0
  7  8  2  0
  8  9  1  0
  9 10  2  0
  9 11  1  0
 11 12  1  0
 12 13  1  0
 13 14  1  0
 14 15  1  0
 15 16  1  0
 16 17  2  0
 16 18  1  0
 18 19  2  0
 19 20  1  0
 20 21  2  0
 21 22  1  0
 22 23  1  0
 23 24  1  0
 23 25  2  0
 23 26  2  0
 22 27  2  0
 15 28  1  0
  8  3  1  0
 28 11  1  0
 27 18  1  0
  1 29  1  0
  1 30  1  0
  1 31  1  0
  4 32  1  0
  5 33  1  0
  6 34  1  0
  7 35  1  0
 11 36  1  6
 12 37  1  0
 12 38  1  0
 13 39  1  0
 13 40  1  0
 14 41  1  0
 14 42  1  0
 19 43  1  0
 20 44  1  0
 21 45  1  0
 24 46  1  0
 27 47  1  0
 28 48  1  0
 28 49  1  0
M  CHG  1  24  -1
M  END
>  <UniqueID>  (73) 
70

>  <SMILES>  (73) 
COc1ccccc1C(=O)[C@@H]1CCCN(C(=O)c2cccc(S([NH-])(=O)=O)c2)C1

>  <Energy>  (73) 
61.34747232262272

>  <Genealogy>  (73) 
COc1ccccc1C(=O)C1CCCN(C(=O)c2cccc(S([NH-])(=O)=O)c2)C1 (protonated)
COc1ccccc1C(=O)[C@@H]1CCCN(C(=O)c2cccc(S([NH-])(=O)=O)c2)C1 (chirality)
COc1ccccc1C(=O)[C@@H]1CCCN(C(=O)c2cccc(S([NH-])(=O)=O)c2)C1 (3D coordinates assigned)
COc1ccccc1C(=O)[C@@H]1CCCN(C(=O)c2cccc(S([NH-])(=O)=O)c2)C1 (nonaromatic ring conformer: 61.34747232262272 kcal/mol)

>  <smiles>  (73) 
COc1ccccc1C(=O)C1CCCN(C(=O)c2cccc(S(N)(=O)=O)c2)C1

>  <score_type>  (73) 
oracle

>  <origin>  (73) 
adg

>  <m_score__min__energy>  (73) 
-12.720000000000001

>  <m_primary>  (73) 
energy

$$$$
73:0
     RDKit          3D

 48 49  0  0  0  0  0  0  0  0999 V2000
   61.6260   32.2510   48.7590 H   0  0  0  0  0  0  0  0  0  0  0  0
   61.2490   32.3910   49.6670 O   0  0  0  0  0  0  0  0  0  0  0  0
   61.1340   33.7760   49.8930 C   0  0  2  0  0  0  0  0  0  0  0  0
   61.2071   33.9464   50.9773 H   0  0  0  0  0  0  0  0  0  0  0  0
   59.7570   34.3040   49.4400 C   0  0  0  0  0  0  0  0  0  0  0  0
   58.9651   33.6281   49.7949 H   0  0  0  0  0  0  0  0  0  0  0  0
   59.5810   35.3063   49.8577 H   0  0  0  0  0  0  0  0  0  0  0  0
   59.7410   34.3580   48.0140 O   0  0  0  0  0  0  0  0  0  0  0  0
   59.0790   33.4160   47.2260 C   0  0  0  0  0  0  0  0  0  0  0  0
   59.4740   32.0730   47.2960 C   0  0  0  0  0  0  0  0  0  0  0  0
   60.3065   31.7839   47.9543 H   0  0  0  0  0  0  0  0  0  0  0  0
   58.8210   31.0980   46.5380 C   0  0  0  0  0  0  0  0  0  0  0  0
   59.1167   30.0426   46.6309 H   0  0  0  0  0  0  0  0  0  0  0  0
   57.7840   31.4620   45.6540 C   0  0  0  0  0  0  0  0  0  0  0  0
   57.0410   30.4890   44.8940 N   0  0  0  0  0  0  0  0  0  0  0  0
   57.1660   29.1960   44.9230 C   0  0  0  0  0  0  0  0  0  0  0  0
   56.2260   28.3390   45.3640 N   0  0  0  0  0  0  0  0  0  0  0  0
   56.7410   27.1270   45.2500 N   0  0  0  0  0  0  0  0  0  0  0  0
   55.8960   25.6880   45.7030 S   0  0  0  0  0  0  0  0  0  0  0  0
   56.2880   25.3020   47.1030 O   0  0  0  0  0  0  0  0  0  0  0  0
   54.4140   25.9300   45.6570 O   0  0  0  0  0  0  0  0  0  0  0  0
   56.3050   24.3770   44.5710 C   0  0  0  0  0  0  0  0  0  0  0  0
   56.5857   23.4772   45.1380 H   0  0  0  0  0  0  0  0  0  0  0  0
   55.4336   24.1543   43.9376 H   0  0  0  0  0  0  0  0  0  0  0  0
   57.1484   24.6892   43.9376 H   0  0  0  0  0  0  0  0  0  0  0  0
   57.9950   27.1920   44.7600 C   0  0  0  0  0  0  0  0  0  0  0  0
   58.6545   26.3338   44.5637 H   0  0  0  0  0  0  0  0  0  0  0  0
   58.3100   28.5150   44.5470 C   0  0  0  0  0  0  0  0  0  0  0  0
   59.2531   28.9338   44.1660 H   0  0  0  0  0  0  0  0  0  0  0  0
   57.3790   32.8050   45.6020 C   0  0  0  0  0  0  0  0  0  0  0  0
   56.5464   33.0971   44.9451 H   0  0  0  0  0  0  0  0  0  0  0  0
   58.0240   33.7780   46.3780 C   0  0  0  0  0  0  0  0  0  0  0  0
   57.7012   34.8280   46.3211 H   0  0  0  0  0  0  0  0  0  0  0  0
   62.3010   34.5570   49.2300 C   0  0  0  0  0  0  0  0  0  0  0  0
   63.2042   34.4527   49.8492 H   0  0  0  0  0  0  0  0  0  0  0  0
   62.0180   35.6168   49.1473 H   0  0  0  0  0  0  0  0  0  0  0  0
   62.5750   34.0290   47.8780 N   0  0  0  0  0  0  0  0  0  0  0  0
   61.7230   33.5170   47.5380 H   0  0  0  0  0  0  0  0  0  0  0  0
   63.7270   33.1110   47.7640 C   0  0  0  0  0  0  0  0  0  0  0  0
   64.4139   33.5692   47.0372 H   0  0  0  0  0  0  0  0  0  0  0  0
   63.3560   31.7360   47.1720 C   0  0  0  0  0  0  0  0  0  0  0  0
   63.1641   31.0248   47.9889 H   0  0  0  0  0  0  0  0  0  0  0  0
   62.4525   31.8352   46.5524 H   0  0  0  0  0  0  0  0  0  0  0  0
   64.1868   31.3673   46.5524 H   0  0  0  0  0  0  0  0  0  0  0  0
   64.4790   32.9830   49.0950 C   0  0  0  0  0  0  0  0  0  0  0  0
   63.7717   33.1034   49.9288 H   0  0  0  0  0  0  0  0  0  0  0  0
   64.9515   31.9915   49.1553 H   0  0  0  0  0  0  0  0  0  0  0  0
   65.2530   33.7623   49.1553 H   0  0  0  0  0  0  0  0  0  0  0  0
  1  2  1  0
  2  3  1  0
  3  4  1  1
  3  5  1  0
  5  6  1  0
  5  7  1  0
  5  8  1  0
  8  9  1  0
  9 10  2  0
 10 11  1  0
 10 12  1  0
 12 13  1  0
 12 14  2  0
 14 15  1  0
 15 16  2  0
 16 17  1  0
 17 18  1  0
 18 19  1  0
 19 20  2  0
 19 21  2  0
 19 22  1  0
 22 23  1  0
 22 24  1  0
 22 25  1  0
 18 26  1  0
 26 27  1  0
 26 28  2  0
 28 29  1  0
 14 30  1  0
 30 31  1  0
 30 32  2  0
 32 33  1  0
  3 34  1  0
 34 35  1  0
 34 36  1  0
 34 37  1  0
 37 38  1  0
 37 39  1  0
 39 40  1  0
 39 41  1  0
 41 42  1  0
 41 43  1  0
 41 44  1  0
 39 45  1  0
 45 46  1  0
 45 47  1  0
 45 48  1  0
 32  9  1  0
 28 16  1  0
M  CHG  1  17  -1
M  END
>  <UniqueID>  (74) 
71

>  <SMILES>  (74) 
CC(C)NC[C@H](O)COc1ccc(/N=c2/ccn(S(C)(=O)=O)[n-]2)cc1

>  <Energy>  (74) 
87.8900647715137

>  <Genealogy>  (74) 
CC(C)NCC(O)COc1ccc(N=c2ccn(S(C)(=O)=O)[n-]2)cc1 (protonated)
CC(C)NC[C@H](O)COc1ccc(N=c2ccn(S(C)(=O)=O)[n-]2)cc1 (chirality)
CC(C)NC[C@H](O)COc1ccc(/N=c2/ccn(S(C)(=O)=O)[n-]2)cc1 (cis-trans isomerization)
CC(C)NC[C@H](O)COc1ccc(/N=c2/ccn(S(C)(=O)=O)[n-]2)cc1 (3D coordinates assigned)
CC(C)NC[C@H](O)COc1ccc(/N=c2/ccn(S(C)(=O)=O)[n-]2)cc1 (optimized conformer: 87.8900647715137 kcal/mol)

>  <smiles>  (74) 
CC(C)NCC(O)COc1ccc(N=c2ccn(S(C)(=O)=O)[nH]2)cc1

>  <score_type>  (74) 
oracle

>  <origin>  (74) 
adg

>  <m_score__min__energy>  (74) 
-9.3399999999999999

>  <m_primary>  (74) 
energy

$$$$
74:0
     RDKit          3D

 39 41  0  0  0  0  0  0  0  0999 V2000
   59.7420   29.9970   49.2050 O   0  0  0  0  0  0  0  0  0  0  0  0
   59.8150   31.0770   48.5630 C   0  0  0  0  0  0  0  0  0  0  0  0
   58.6240   31.6000   47.9600 N   0  0  0  0  0  0  0  0  0  0  0  0
   58.5810   32.4430   46.7980 C   0  0  0  0  0  0  0  0  0  0  0  0
   59.0800   33.7670   46.8380 C   0  0  0  0  0  0  0  0  0  0  0  0
   59.5420   34.3490   48.0190 O   0  0  0  0  0  0  0  0  0  0  0  0
   59.0890   34.5400   45.6760 C   0  0  0  0  0  0  0  0  0  0  0  0
   58.5670   34.0360   44.4880 C   0  0  0  0  0  0  0  0  0  0  0  0
   58.0250   32.7520   44.4490 C   0  0  0  0  0  0  0  0  0  0  0  0
   58.0170   31.9400   45.6010 C   0  0  0  0  0  0  0  0  0  0  0  0
   57.4790   30.5980   45.5630 N   0  0  0  0  0  0  0  0  0  0  0  0
   58.2930   29.3860   45.4050 C   0  0  1  0  0  0  0  0  0  0  0  0
   59.4390   29.4540   46.2190 O   0  0  0  0  0  0  0  0  0  0  0  0
   57.4970   28.1530   45.7420 C   0  0  0  0  0  0  0  0  0  0  0  0
   58.0260   26.9460   46.1650 C   0  0  0  0  0  0  0  0  0  0  0  0
   56.9580   26.0930   46.3240 C   0  0  0  0  0  0  0  0  0  0  0  0
   55.8440   26.8260   45.9800 C   0  0  0  0  0  0  0  0  0  0  0  0
   54.5440   26.3380   45.9970 O   0  0  0  0  0  0  0  0  0  0  0  0
   56.1560   28.0830   45.6180 N   0  0  0  0  0  0  0  0  0  0  0  0
   61.1230   31.7610   48.4350 C   0  0  0  0  0  0  0  0  0  0  0  0
   61.9760   31.4730   47.3550 C   0  0  0  0  0  0  0  0  0  0  0  0
   63.2090   32.1190   47.2350 C   0  0  0  0  0  0  0  0  0  0  0  0
   63.6090   33.0490   48.1960 C   0  0  0  0  0  0  0  0  0  0  0  0
   62.7780   33.3330   49.2810 C   0  0  0  0  0  0  0  0  0  0  0  0
   61.5410   32.6910   49.4080 C   0  0  0  0  0  0  0  0  0  0  0  0
   60.7430   32.9970   50.4630 F   0  0  0  0  0  0  0  0  0  0  0  0
   59.4970   33.8860   48.9170 H   0  0  0  0  0  0  0  0  0  0  0  0
   59.5118   35.5552   45.6991 H   0  0  0  0  0  0  0  0  0  0  0  0
   58.5822   34.6526   43.5772 H   0  0  0  0  0  0  0  0  0  0  0  0
   57.5994   32.3689   43.5098 H   0  0  0  0  0  0  0  0  0  0  0  0
   56.4460   30.4700   45.6440 H   0  0  0  0  0  0  0  0  0  0  0  0
   58.6039   29.3225   44.3518 H   0  0  0  0  0  0  0  0  0  0  0  0
   59.1390   29.6670   47.1410 H   0  0  0  0  0  0  0  0  0  0  0  0
   59.0873   26.7149   46.3391 H   0  0  0  0  0  0  0  0  0  0  0  0
   56.9878   25.0448   46.6564 H   0  0  0  0  0  0  0  0  0  0  0  0
   61.6705   30.7341   46.5995 H   0  0  0  0  0  0  0  0  0  0  0  0
   63.8657   31.8943   46.3817 H   0  0  0  0  0  0  0  0  0  0  0  0
   64.5792   33.5581   48.0983 H   0  0  0  0  0  0  0  0  0  0  0  0
   63.0965   34.0639   50.0388 H   0  0  0  0  0  0  0  0  0  0  0  0
  1  2  2  0
  2  3  1  0
  3  4  1  0
  4  5  2  0
  5  6  1  0
  5  7  1  0
  7  8  2  0
  8  9  1  0
  9 10  2  0
 10 11  1  0
 11 12  1  0
 12 13  1  0
 12 14  1  0
 14 15  2  0
 15 16  1  0
 16 17  2  0
 17 18  1  0
 17 19  1  0
  2 20  1  0
 20 21  2  0
 21 22  1  0
 22 23  2  0
 23 24  1  0
 24 25  2  0
 25 26  1  0
 10  4  1  0
 19 14  1  0
 25 20  1  0
  6 27  1  0
  7 28  1  0
  8 29  1  0
  9 30  1  0
 11 31  1  0
 12 32  1  6
 13 33  1  0
 15 34  1  0
 16 35  1  0
 21 36  1  0
 22 37  1  0
 23 38  1  0
 24 39  1  0
M  CHG  3   3  -1  18  -1  19  -1
M  END
>  <UniqueID>  (75) 
72

>  <SMILES>  (75) 
O=C([N-]c1c(O)cccc1N[C@@H](O)c1ccc([O-])[n-]1)c1ccccc1F

>  <Energy>  (75) 
78.74281855466312

>  <Genealogy>  (75) 
O=C([N-]c1c(O)cccc1NC(O)c1ccc([O-])[n-]1)c1ccccc1F (protonated)
O=C([N-]c1c(O)cccc1N[C@@H](O)c1ccc([O-])[n-]1)c1ccccc1F (chirality)
O=C([N-]c1c(O)cccc1N[C@@H](O)c1ccc([O-])[n-]1)c1ccccc1F (3D coordinates assigned)
O=C([N-]c1c(O)cccc1N[C@@H](O)c1ccc([O-])[n-]1)c1ccccc1F (optimized conformer: 78.74281855466312 kcal/mol)

>  <smiles>  (75) 
O=C(Nc1c(O)cccc1NC(O)c1ccc(O)[nH]1)c1ccccc1F

>  <score_type>  (75) 
oracle

>  <origin>  (75) 
adg

>  <m_score__min__energy>  (75) 
-13.32

>  <m_primary>  (75) 
energy

$$$$
75:0
     RDKit          3D

 38 40  0  0  0  0  0  0  0  0999 V2000
   59.1799   31.0087   48.2726 H   0  0  0  0  0  0  0  0  0  0  0  0
   58.8410   30.5320   47.3410 C   0  0  0  0  0  0  0  0  0  0  0  0
   58.8434   29.4356   47.2517 H   0  0  0  0  0  0  0  0  0  0  0  0
   58.4240   31.2890   46.3120 C   0  0  0  0  0  0  0  0  0  0  0  0
   57.9640   30.8300   45.0640 C   0  0  0  0  0  0  0  0  0  0  0  0
   57.9530   29.5970   44.5180 C   0  0  0  0  0  0  0  0  0  0  0  0
   58.3814   29.4917   43.5103 H   0  0  0  0  0  0  0  0  0  0  0  0
   57.4180   28.3770   45.1510 C   0  0  0  0  0  0  0  0  0  0  0  0
   56.0330   28.1940   45.2760 C   0  0  0  0  0  0  0  0  0  0  0  0
   55.1490   29.1790   44.8520 O   0  0  0  0  0  0  0  0  0  0  0  0
   55.5470   27.0490   45.8220 N   0  0  0  0  0  0  0  0  0  0  0  0
   56.3790   26.0630   46.2390 C   0  0  0  0  0  0  0  0  0  0  0  0
   55.9060   25.0130   46.7460 O   0  0  0  0  0  0  0  0  0  0  0  0
   57.7230   26.2040   46.1040 N   0  0  0  0  0  0  0  0  0  0  0  0
   58.2590   27.3280   45.5640 C   0  0  0  0  0  0  0  0  0  0  0  0
   59.5100   27.4160   45.4340 O   0  0  0  0  0  0  0  0  0  0  0  0
   57.4810   31.9400   44.3960 C   0  0  0  0  0  0  0  0  0  0  0  0
   57.0051   31.9515   43.4044 H   0  0  0  0  0  0  0  0  0  0  0  0
   57.7090   33.0280   45.2080 C   0  0  0  0  0  0  0  0  0  0  0  0
   57.3030   34.4310   44.8670 C   0  0  0  0  0  0  0  0  0  0  0  0
   57.1382   35.0005   45.7936 H   0  0  0  0  0  0  0  0  0  0  0  0
   58.0993   34.9104   44.2787 H   0  0  0  0  0  0  0  0  0  0  0  0
   56.3738   34.4111   44.2787 H   0  0  0  0  0  0  0  0  0  0  0  0
   58.2840   32.6440   46.3730 N   0  0  0  0  0  0  0  0  0  0  0  0
   58.6080   33.5460   47.4930 C   0  0  0  0  0  0  0  0  0  0  0  0
   58.3834   34.5817   47.1984 H   0  0  0  0  0  0  0  0  0  0  0  0
   58.0036   33.2561   48.3651 H   0  0  0  0  0  0  0  0  0  0  0  0
   60.0660   33.4420   47.8600 C   0  0  0  0  0  0  0  0  0  0  0  0
   61.0530   33.4340   46.8600 C   0  0  0  0  0  0  0  0  0  0  0  0
   60.7606   33.5100   45.8023 H   0  0  0  0  0  0  0  0  0  0  0  0
   62.4050   33.3300   47.2020 C   0  0  0  0  0  0  0  0  0  0  0  0
   63.1721   33.3237   46.4136 H   0  0  0  0  0  0  0  0  0  0  0  0
   62.7830   33.2340   48.5450 C   0  0  0  0  0  0  0  0  0  0  0  0
   64.4790   33.1010   48.9720 Cl  0  0  0  0  0  0  0  0  0  0  0  0
   61.8070   33.2440   49.5460 C   0  0  0  0  0  0  0  0  0  0  0  0
   62.1037   33.1691   50.6026 H   0  0  0  0  0  0  0  0  0  0  0  0
   60.4550   33.3490   49.2070 C   0  0  0  0  0  0  0  0  0  0  0  0
   59.6916   33.3589   49.9989 H   0  0  0  0  0  0  0  0  0  0  0  0
  1  2  1  0
  2  3  1  0
  2  4  2  0
  4  5  1  0
  5  6  2  0
  6  7  1  0
  6  8  1  0
  8  9  2  0
  9 10  1  0
  9 11  1  0
 11 12  1  0
 12 13  2  0
 12 14  1  0
 14 15  1  0
 15 16  2  0
  5 17  1  0
 17 18  1  0
 17 19  2  0
 19 20  1  0
 20 21  1  0
 20 22  1  0
 20 23  1  0
 19 24  1  0
 24 25  1  0
 25 26  1  0
 25 27  1  0
 25 28  1  0
 28 29  2  0
 29 30  1  0
 29 31  1  0
 31 32  1  0
 31 33  2  0
 33 34  1  0
 33 35  1  0
 35 36  1  0
 35 37  2  0
 37 38  1  0
 24  4  1  0
 37 28  1  0
 15  8  1  0
M  CHG  3  10  -1  11  -1  14  -1
M  END
>  <UniqueID>  (76) 
73

>  <SMILES>  (76) 
C=c1/c(=C\c2c([O-])[n-]c(=O)[n-]c2=O)cc(C)n1Cc1ccc(Cl)cc1

>  <Energy>  (76) 
83.3667155658118

>  <Genealogy>  (76) 
C=c1c(=Cc2c([O-])[n-]c(=O)[n-]c2=O)cc(C)n1Cc1ccc(Cl)cc1 (protonated)
C=c1/c(=C\c2c([O-])[n-]c(=O)[n-]c2=O)cc(C)n1Cc1ccc(Cl)cc1 (cis-trans isomerization)
C=c1/c(=C\c2c([O-])[n-]c(=O)[n-]c2=O)cc(C)n1Cc1ccc(Cl)cc1 (3D coordinates assigned)
C=c1/c(=C\c2c([O-])[n-]c(=O)[n-]c2=O)cc(C)n1Cc1ccc(Cl)cc1 (optimized conformer: 83.3667155658118 kcal/mol)

>  <smiles>  (76) 
C=c1c(=Cc2c(O)[nH]c(=O)[nH]c2=O)cc(C)n1Cc1ccc(Cl)cc1

>  <score_type>  (76) 
oracle

>  <origin>  (76) 
adg

>  <m_score__min__energy>  (76) 
-15.92

>  <m_primary>  (76) 
energy

$$$$
76:0
     RDKit          3D

 47 48  0  0  0  0  0  0  0  0999 V2000
   59.9844   32.4760   45.6970 H   0  0  0  0  0  0  0  0  0  0  0  0
   60.7210   32.5970   46.5050 C   0  0  0  0  0  0  0  0  0  0  0  0
   61.5840   31.1630   47.1450 S   0  0  0  0  0  0  0  0  0  0  0  0
   60.2210   30.0630   46.7670 C   0  0  0  0  0  0  0  0  0  0  0  0
   60.1690   28.7940   47.3430 C   0  0  0  0  0  0  0  0  0  0  0  0
   60.9666   28.4692   48.0273 H   0  0  0  0  0  0  0  0  0  0  0  0
   59.1090   27.9360   47.0540 C   0  0  0  0  0  0  0  0  0  0  0  0
   59.0763   26.9385   47.5166 H   0  0  0  0  0  0  0  0  0  0  0  0
   58.0790   28.3300   46.1770 C   0  0  0  0  0  0  0  0  0  0  0  0
   57.0180   27.3900   45.8880 N   0  0  0  0  0  0  0  0  0  0  0  0
   56.4970   27.7130   45.0390 H   0  0  0  0  0  0  0  0  0  0  0  0
   56.3210   27.3570   46.6670 H   0  0  0  0  0  0  0  0  0  0  0  0
   57.5730   26.0530   45.6290 C   0  0  0  0  0  0  0  0  0  0  0  0
   58.2045   26.0915   44.7291 H   0  0  0  0  0  0  0  0  0  0  0  0
   58.1699   25.7416   46.4989 H   0  0  0  0  0  0  0  0  0  0  0  0
   56.4650   25.0520   45.4150 C   0  0  0  0  0  0  0  0  0  0  0  0
   56.7790   23.7300   45.0540 C   0  0  0  0  0  0  0  0  0  0  0  0
   57.8291   23.4396   44.9021 H   0  0  0  0  0  0  0  0  0  0  0  0
   55.7660   22.7830   44.8870 C   0  0  0  0  0  0  0  0  0  0  0  0
   56.0195   21.7527   44.5969 H   0  0  0  0  0  0  0  0  0  0  0  0
   54.4310   23.1430   45.0880 C   0  0  0  0  0  0  0  0  0  0  0  0
   53.6340   22.3970   44.9525 H   0  0  0  0  0  0  0  0  0  0  0  0
   54.1080   24.4500   45.4610 C   0  0  0  0  0  0  0  0  0  0  0  0
   53.0565   24.7303   45.6216 H   0  0  0  0  0  0  0  0  0  0  0  0
   55.1180   25.4040   45.6310 C   0  0  0  0  0  0  0  0  0  0  0  0
   54.7750   26.6960   46.0170 O   0  0  0  0  0  0  0  0  0  0  0  0
   58.1220   29.6310   45.6000 C   0  0  0  0  0  0  0  0  0  0  0  0
   57.0610   30.1390   44.6930 C   0  0  0  0  0  0  0  0  0  0  0  0
   55.8660   29.7680   44.8440 O   0  0  0  0  0  0  0  0  0  0  0  0
   57.3670   31.1590   43.6390 C   0  0  0  0  0  0  0  0  0  0  0  0
   57.6515   32.1074   44.1182 H   0  0  0  0  0  0  0  0  0  0  0  0
   58.1973   30.8011   43.0125 H   0  0  0  0  0  0  0  0  0  0  0  0
   56.4768   31.3173   43.0125 H   0  0  0  0  0  0  0  0  0  0  0  0
   59.2080   30.4760   45.8980 C   0  0  0  0  0  0  0  0  0  0  0  0
   59.2596   31.4750   45.4404 H   0  0  0  0  0  0  0  0  0  0  0  0
   60.9660   33.8100   47.0020 C   0  0  0  0  0  0  0  0  0  0  0  0
   61.9713   34.2393   46.8791 H   0  0  0  0  0  0  0  0  0  0  0  0
   59.9430   34.5950   47.7080 C   0  0  0  0  0  0  0  0  0  0  0  0
   60.0770   34.8750   48.9320 O   0  0  0  0  0  0  0  0  0  0  0  0
   58.8210   35.0370   46.9980 O   0  0  0  0  0  0  0  0  0  0  0  0
   57.8800   34.1570   46.3860 C   0  0  0  0  0  0  0  0  0  0  0  0
   56.8648   34.4359   46.7047 H   0  0  0  0  0  0  0  0  0  0  0  0
   58.1076   33.1261   46.6948 H   0  0  0  0  0  0  0  0  0  0  0  0
   57.9690   34.2440   44.8670 C   0  0  0  0  0  0  0  0  0  0  0  0
   58.7296   34.9875   44.5863 H   0  0  0  0  0  0  0  0  0  0  0  0
   58.2487   33.2614   44.4592 H   0  0  0  0  0  0  0  0  0  0  0  0
   56.9930   34.5459   44.4592 H   0  0  0  0  0  0  0  0  0  0  0  0
  1  2  1  0
  2  3  1  0
  3  4  1  0
  4  5  2  0
  5  6  1  0
  5  7  1  0
  7  8  1  0
  7  9  2  0
  9 10  1  0
 10 11  1  0
 10 12  1  0
 10 13  1  0
 13 14  1  0
 13 15  1  0
 13 16  1  0
 16 17  2  0
 17 18  1  0
 17 19  1  0
 19 20  1  0
 19 21  2  0
 21 22  1  0
 21 23  1  0
 23 24  1  0
 23 25  2  0
 25 26  1  0
  9 27  1  0
 27 28  1  0
 28 29  2  0
 28 30  1  0
 30 31  1  0
 30 32  1  0
 30 33  1  0
 27 34  2  0
 34 35  1  0
  2 36  2  0
 36 37  1  0
 36 38  1  0
 38 39  2  0
 38 40  1  0
 40 41  1  0
 41 42  1  0
 41 43  1  0
 41 44  1  0
 44 45  1  0
 44 46  1  0
 44 47  1  0
 34  4  1  0
 25 16  1  0
M  CHG  2  10   1  26  -1
M  END
>  <UniqueID>  (77) 
74

>  <SMILES>  (77) 
CCOC(=O)/C=C/Sc1ccc([NH2+]Cc2ccccc2[O-])c(C(C)=O)c1

>  <Energy>  (77) 
42.50854493236514

>  <Genealogy>  (77) 
CCOC(=O)C=CSc1ccc([NH2+]Cc2ccccc2[O-])c(C(C)=O)c1 (protonated)
CCOC(=O)/C=C/Sc1ccc([NH2+]Cc2ccccc2[O-])c(C(C)=O)c1 (cis-trans isomerization)
CCOC(=O)/C=C/Sc1ccc([NH2+]Cc2ccccc2[O-])c(C(C)=O)c1 (3D coordinates assigned)
CCOC(=O)/C=C/Sc1ccc([NH2+]Cc2ccccc2[O-])c(C(C)=O)c1 (optimized conformer: 42.50854493236514 kcal/mol)

>  <smiles>  (77) 
CCOC(=O)C=CSc1ccc(NCc2ccccc2O)c(C(C)=O)c1

>  <score_type>  (77) 
oracle

>  <origin>  (77) 
adg

>  <m_score__min__energy>  (77) 
-10.06

>  <m_primary>  (77) 
energy

$$$$
77:0
     RDKit          3D

 48 50  0  0  0  0  0  0  0  0999 V2000
   57.1500   31.5880   41.9810 O   0  0  0  0  0  0  0  0  0  0  0  0
   57.4030   31.7130   43.2080 C   0  0  0  0  0  0  0  0  0  0  0  0
   57.7390   33.0200   43.6970 N   0  0  0  0  0  0  0  0  0  0  0  0
   57.1720   33.6760   44.8680 C   0  0  0  0  0  0  0  0  0  0  0  0
   58.2120   33.7560   45.9480 C   0  0  0  0  0  0  0  0  0  0  0  0
   59.3710   34.5260   45.7540 C   0  0  0  0  0  0  0  0  0  0  0  0
   60.3350   34.6130   46.7640 C   0  0  0  0  0  0  0  0  0  0  0  0
   60.1480   33.9390   47.9730 C   0  0  0  0  0  0  0  0  0  0  0  0
   61.0860   34.0190   48.9480 F   0  0  0  0  0  0  0  0  0  0  0  0
   58.9910   33.1820   48.1790 C   0  0  0  0  0  0  0  0  0  0  0  0
   58.0220   33.0960   47.1740 C   0  0  0  0  0  0  0  0  0  0  0  0
   57.3520   30.5120   44.0760 C   0  0  0  0  0  0  0  0  0  0  0  0
   56.4130   30.3660   44.9040 O   0  0  0  0  0  0  0  0  0  0  0  0
   58.3510   29.4850   43.9430 N   0  0  0  0  0  0  0  0  0  0  0  0
   58.5400   28.4190   44.8910 C   0  0  0  0  0  0  0  0  0  0  0  0
   59.7770   28.2120   45.5270 C   0  0  0  0  0  0  0  0  0  0  0  0
   59.9380   27.1570   46.4290 C   0  0  0  0  0  0  0  0  0  0  0  0
   58.8740   26.2920   46.6950 C   0  0  0  0  0  0  0  0  0  0  0  0
   57.6430   26.4720   46.0500 C   0  0  0  0  0  0  0  0  0  0  0  0
   56.3040   25.3660   46.3470 S   0  0  0  0  0  0  0  0  0  0  0  0
   56.2560   24.9930   47.8030 O   0  0  0  0  0  0  0  0  0  0  0  0
   55.0200   26.0570   45.9870 O   0  0  0  0  0  0  0  0  0  0  0  0
   56.5040   23.9320   45.3690 N   0  0  0  0  0  0  0  0  0  0  0  0
   55.2520   23.1440   45.3120 C   0  0  0  0  0  0  0  0  0  0  0  0
   54.4950   23.3530   43.9880 C   0  0  0  0  0  0  0  0  0  0  0  0
   55.2590   23.0210   42.8350 O   0  0  0  0  0  0  0  0  0  0  0  0
   56.6580   23.2180   42.9990 C   0  0  0  0  0  0  0  0  0  0  0  0
   57.0120   24.3000   44.0320 C   0  0  0  0  0  0  0  0  0  0  0  0
   57.4840   27.5280   45.1430 C   0  0  0  0  0  0  0  0  0  0  0  0
   56.8450   34.6909   44.5976 H   0  0  0  0  0  0  0  0  0  0  0  0
   56.3094   33.0980   45.2310 H   0  0  0  0  0  0  0  0  0  0  0  0
   59.5209   35.0620   44.8052 H   0  0  0  0  0  0  0  0  0  0  0  0
   61.2427   35.2138   46.6056 H   0  0  0  0  0  0  0  0  0  0  0  0
   58.8425   32.6535   49.1322 H   0  0  0  0  0  0  0  0  0  0  0  0
   57.1073   32.5092   47.3440 H   0  0  0  0  0  0  0  0  0  0  0  0
   58.9180   29.4590   43.0670 H   0  0  0  0  0  0  0  0  0  0  0  0
   60.6216   28.8836   45.3135 H   0  0  0  0  0  0  0  0  0  0  0  0
   60.9053   27.0073   46.9310 H   0  0  0  0  0  0  0  0  0  0  0  0
   59.0026   25.4679   47.4122 H   0  0  0  0  0  0  0  0  0  0  0  0
   55.4996   22.0771   45.4142 H   0  0  0  0  0  0  0  0  0  0  0  0
   54.6010   23.4834   46.1312 H   0  0  0  0  0  0  0  0  0  0  0  0
   53.5931   22.7234   44.0003 H   0  0  0  0  0  0  0  0  0  0  0  0
   54.2572   24.4248   43.9189 H   0  0  0  0  0  0  0  0  0  0  0  0
   57.1070   22.2677   43.3235 H   0  0  0  0  0  0  0  0  0  0  0  0
   57.0510   23.5579   42.0294 H   0  0  0  0  0  0  0  0  0  0  0  0
   58.1055   24.4102   44.0790 H   0  0  0  0  0  0  0  0  0  0  0  0
   56.5455   25.2477   43.7252 H   0  0  0  0  0  0  0  0  0  0  0  0
   56.5234   27.6604   44.6236 H   0  0  0  0  0  0  0  0  0  0  0  0
  1  2  2  0
  2  3  1  0
  3  4  1  0
  4  5  1  0
  5  6  2  0
  6  7  1  0
  7  8  2  0
  8  9  1  0
  8 10  1  0
 10 11  2  0
  2 12  1  0
 12 13  2  0
 12 14  1  0
 14 15  1  0
 15 16  2  0
 16 17  1  0
 17 18  2  0
 18 19  1  0
 19 20  1  0
 20 21  2  0
 20 22  2  0
 20 23  1  0
 23 24  1  0
 24 25  1  0
 25 26  1  0
 26 27  1  0
 27 28  1  0
 19 29  2  0
 11  5  1  0
 29 15  1  0
 28 23  1  0
  4 30  1  0
  4 31  1  0
  6 32  1  0
  7 33  1  0
 10 34  1  0
 11 35  1  0
 14 36  1  0
 16 37  1  0
 17 38  1  0
 18 39  1  0
 24 40  1  0
 24 41  1  0
 25 42  1  0
 25 43  1  0
 27 44  1  0
 27 45  1  0
 28 46  1  0
 28 47  1  0
 29 48  1  0
M  CHG  1   3  -1
M  END
>  <UniqueID>  (78) 
75

>  <SMILES>  (78) 
O=C([N-]Cc1ccc(F)cc1)C(=O)Nc1cccc(S(=O)(=O)N2CCOCC2)c1

>  <Energy>  (78) 
64.4948351773893

>  <Genealogy>  (78) 
O=C([N-]Cc1ccc(F)cc1)C(=O)Nc1cccc(S(=O)(=O)N2CCOCC2)c1 (protonated)
O=C([N-]Cc1ccc(F)cc1)C(=O)Nc1cccc(S(=O)(=O)N2CCOCC2)c1 (3D coordinates assigned)
O=C([N-]Cc1ccc(F)cc1)C(=O)Nc1cccc(S(=O)(=O)N2CCOCC2)c1 (nonaromatic ring conformer: 64.4948351773893 kcal/mol)

>  <smiles>  (78) 
O=C(NCc1ccc(F)cc1)C(=O)Nc1cccc(S(=O)(=O)N2CCOCC2)c1

>  <score_type>  (78) 
oracle

>  <origin>  (78) 
adg

>  <m_score__min__energy>  (78) 
-10.949999999999999

>  <m_primary>  (78) 
energy

$$$$
78:0
     RDKit          3D

 54 56  0  0  0  0  0  0  0  0999 V2000
   63.9010   33.0810   48.7800 C   0  0  0  0  0  0  0  0  0  0  0  0
   62.7550   33.2840   47.7640 C   0  0  0  0  0  0  0  0  0  0  0  0
   62.0590   31.9360   47.5230 C   0  0  0  0  0  0  0  0  0  0  0  0
   63.3070   33.8040   46.4200 C   0  0  0  0  0  0  0  0  0  0  0  0
   61.7660   34.1840   48.2940 O   0  0  0  0  0  0  0  0  0  0  0  0
   60.7240   33.8470   49.1690 C   0  0  0  0  0  0  0  0  0  0  0  0
   60.9190   33.7590   50.4090 O   0  0  0  0  0  0  0  0  0  0  0  0
   59.4190   33.6410   48.6240 N   0  0  0  0  0  0  0  0  0  0  0  0
   59.0350   33.6800   47.2400 C   0  0  0  0  0  0  0  0  0  0  0  0
   59.2680   34.8590   46.5180 C   0  0  0  0  0  0  0  0  0  0  0  0
   58.9840   34.9200   45.1500 C   0  0  0  0  0  0  0  0  0  0  0  0
   58.4790   33.8020   44.4870 C   0  0  0  0  0  0  0  0  0  0  0  0
   58.2420   32.6070   45.1920 C   0  0  0  0  0  0  0  0  0  0  0  0
   57.6560   31.4050   44.4980 C   0  0  0  0  0  0  0  0  0  0  0  0
   57.1270   30.4640   45.4850 N   0  0  0  0  0  0  0  0  0  0  0  0
   56.2700   29.3400   45.2300 C   0  0  0  0  0  0  0  0  0  0  0  0
   55.1550   29.5490   44.6860 O   0  0  0  0  0  0  0  0  0  0  0  0
   56.6290   27.9560   45.6020 C   0  0  0  0  0  0  0  0  0  0  0  0
   57.9200   27.4820   45.7890 C   0  0  0  0  0  0  0  0  0  0  0  0
   57.7330   26.1540   46.0980 C   0  0  0  0  0  0  0  0  0  0  0  0
   58.6450   25.3220   46.3510 O   0  0  0  0  0  0  0  0  0  0  0  0
   56.4220   25.8640   46.0890 N   0  0  0  0  0  0  0  0  0  0  0  0
   55.8070   24.5670   46.3530 C   0  0  0  0  0  0  0  0  0  0  0  0
   56.2390   23.5690   45.3160 C   0  0  0  0  0  0  0  0  0  0  0  0
   55.8170   23.7110   43.9800 C   0  0  0  0  0  0  0  0  0  0  0  0
   56.2190   22.7870   43.0110 C   0  0  0  0  0  0  0  0  0  0  0  0
   57.0500   21.7180   43.3660 C   0  0  0  0  0  0  0  0  0  0  0  0
   57.4840   21.5760   44.6900 C   0  0  0  0  0  0  0  0  0  0  0  0
   57.0870   22.5010   45.6610 C   0  0  0  0  0  0  0  0  0  0  0  0
   55.7420   26.9540   45.7780 N   0  0  0  0  0  0  0  0  0  0  0  0
   58.5240   32.5500   46.5680 C   0  0  0  0  0  0  0  0  0  0  0  0
   63.5014   33.1518   49.8024 H   0  0  0  0  0  0  0  0  0  0  0  0
   64.3521   32.0890   48.6305 H   0  0  0  0  0  0  0  0  0  0  0  0
   64.6654   33.8577   48.6305 H   0  0  0  0  0  0  0  0  0  0  0  0
   61.8182   31.4697   48.4897 H   0  0  0  0  0  0  0  0  0  0  0  0
   61.1321   32.0986   46.9533 H   0  0  0  0  0  0  0  0  0  0  0  0
   62.7282   31.2745   46.9533 H   0  0  0  0  0  0  0  0  0  0  0  0
   64.0956   34.5469   46.6103 H   0  0  0  0  0  0  0  0  0  0  0  0
   63.7253   32.9641   45.8458 H   0  0  0  0  0  0  0  0  0  0  0  0
   62.4936   34.2716   45.8458 H   0  0  0  0  0  0  0  0  0  0  0  0
   59.6769   35.7420   47.0310 H   0  0  0  0  0  0  0  0  0  0  0  0
   59.1596   35.8533   44.5950 H   0  0  0  0  0  0  0  0  0  0  0  0
   58.2651   33.8542   43.4093 H   0  0  0  0  0  0  0  0  0  0  0  0
   56.8427   31.7297   43.8323 H   0  0  0  0  0  0  0  0  0  0  0  0
   58.4431   30.9080   43.9119 H   0  0  0  0  0  0  0  0  0  0  0  0
   58.8670   28.0358   45.7092 H   0  0  0  0  0  0  0  0  0  0  0  0
   56.1155   24.2141   47.3481 H   0  0  0  0  0  0  0  0  0  0  0  0
   54.7128   24.6736   46.3158 H   0  0  0  0  0  0  0  0  0  0  0  0
   55.1680   24.5530   43.6975 H   0  0  0  0  0  0  0  0  0  0  0  0
   55.8824   22.9000   41.9699 H   0  0  0  0  0  0  0  0  0  0  0  0
   57.3625   20.9886   42.6042 H   0  0  0  0  0  0  0  0  0  0  0  0
   58.1380   20.7359   44.9666 H   0  0  0  0  0  0  0  0  0  0  0  0
   57.4389   22.3930   46.6976 H   0  0  0  0  0  0  0  0  0  0  0  0
   58.3450   31.6181   47.1243 H   0  0  0  0  0  0  0  0  0  0  0  0
  1  2  1  0
  2  3  1  0
  2  4  1  0
  2  5  1  0
  5  6  1  0
  6  7  2  0
  6  8  1  0
  8  9  1  0
  9 10  2  0
 10 11  1  0
 11 12  2  0
 12 13  1  0
 13 14  1  0
 14 15  1  0
 15 16  1  0
 16 17  2  0
 16 18  1  0
 18 19  2  0
 19 20  1  0
 20 21  2  0
 20 22  1  0
 22 23  1  0
 23 24  1  0
 24 25  2  0
 25 26  1  0
 26 27  2  0
 27 28  1  0
 28 29  2  0
 22 30  1  0
 13 31  2  0
 31  9  1  0
 30 18  1  0
 29 24  1  0
  1 32  1  0
  1 33  1  0
  1 34  1  0
  3 35  1  0
  3 36  1  0
  3 37  1  0
  4 38  1  0
  4 39  1  0
  4 40  1  0
 10 41  1  0
 11 42  1  0
 12 43  1  0
 14 44  1  0
 14 45  1  0
 19 46  1  0
 23 47  1  0
 23 48  1  0
 25 49  1  0
 26 50  1  0
 27 51  1  0
 28 52  1  0
 29 53  1  0
 31 54  1  0
M  CHG  3   8  -1  15  -1  30  -1
M  END
>  <UniqueID>  (79) 
76

>  <SMILES>  (79) 
CC(C)(C)OC(=O)[N-]c1cccc(C[N-]C(=O)c2cc(=O)n(Cc3ccccc3)[n-]2)c1

>  <Energy>  (79) 
85.82897924702993

>  <Genealogy>  (79) 
CC(C)(C)OC(=O)[N-]c1cccc(C[N-]C(=O)c2cc(=O)n(Cc3ccccc3)[n-]2)c1 (protonated)
CC(C)(C)OC(=O)[N-]c1cccc(C[N-]C(=O)c2cc(=O)n(Cc3ccccc3)[n-]2)c1 (3D coordinates assigned)
CC(C)(C)OC(=O)[N-]c1cccc(C[N-]C(=O)c2cc(=O)n(Cc3ccccc3)[n-]2)c1 (optimized conformer: 85.82897924702993 kcal/mol)

>  <smiles>  (79) 
CC(C)(C)OC(=O)Nc1cccc(CNC(=O)c2cc(=O)n(Cc3ccccc3)[nH]2)c1

>  <score_type>  (79) 
oracle

>  <origin>  (79) 
adg

>  <m_score__min__energy>  (79) 
-13.74

>  <m_primary>  (79) 
energy

$$$$
79:0
     RDKit          3D

 21 22  0  0  0  0  0  0  0  0999 V2000
   55.7821   32.1282   51.6553 H   0  0  0  0  0  0  0  0  0  0  0  0
   56.2810   31.2380   52.0660 C   0  0  0  0  0  0  0  0  0  0  0  0
   57.3684   31.1157   51.9533 H   0  0  0  0  0  0  0  0  0  0  0  0
   55.5660   30.3050   52.7020 C   0  0  0  0  0  0  0  0  0  0  0  0
   54.1900   30.3070   52.9370 C   0  0  0  0  0  0  0  0  0  0  0  0
   53.2940   31.2270   52.5340 C   0  0  0  0  0  0  0  0  0  0  0  0
   53.2025   32.1524   53.1216 H   0  0  0  0  0  0  0  0  0  0  0  0
   52.4290   31.0680   51.3530 C   0  0  0  0  0  0  0  0  0  0  0  0
   52.6490   29.8850   50.1710 S   0  0  0  0  0  0  0  0  0  0  0  0
   51.4000   30.4760   49.2150 C   0  0  0  0  0  0  0  0  0  0  0  0
   51.0420   29.9740   48.1180 O   0  0  0  0  0  0  0  0  0  0  0  0
   50.8250   31.5730   49.7510 N   0  0  0  0  0  0  0  0  0  0  0  0
   50.0460   32.1050   49.3040 H   0  0  0  0  0  0  0  0  0  0  0  0
   51.4040   31.9200   50.9300 C   0  0  0  0  0  0  0  0  0  0  0  0
   51.0220   33.0620   51.6230 O   0  0  0  0  0  0  0  0  0  0  0  0
   53.9210   29.1310   53.6250 C   0  0  0  0  0  0  0  0  0  0  0  0
   52.9367   28.7857   53.9743 H   0  0  0  0  0  0  0  0  0  0  0  0
   55.1270   28.4790   53.7860 C   0  0  0  0  0  0  0  0  0  0  0  0
   55.2575   27.5143   54.2981 H   0  0  0  0  0  0  0  0  0  0  0  0
   56.1200   29.1940   53.2260 N   0  0  0  0  0  0  0  0  0  0  0  0
   57.1290   28.9230   53.2030 H   0  0  0  0  0  0  0  0  0  0  0  0
  1  2  1  0
  2  3  1  0
  2  4  2  0
  4  5  1  0
  5  6  2  0
  6  7  1  0
  6  8  1  0
  8  9  1  0
  9 10  1  0
 10 11  2  0
 10 12  1  0
 12 13  1  0
 12 14  1  0
 14 15  1  0
  5 16  1  0
 16 17  1  0
 16 18  2  0
 18 19  1  0
 18 20  1  0
 20 21  1  0
 20  4  1  0
 14  8  2  0
M  CHG  1  15  -1
M  END
>  <UniqueID>  (80) 
77

>  <SMILES>  (80) 
C=c1[nH]cc/c1=C\c1sc(=O)[nH]c1[O-]

>  <Energy>  (80) 
86.01310772547193

>  <Genealogy>  (80) 
C=c1[nH]ccc1=Cc1sc(=O)[nH]c1[O-] (protonated)
C=c1[nH]cc/c1=C\c1sc(=O)[nH]c1[O-] (cis-trans isomerization)
C=c1[nH]cc/c1=C\c1sc(=O)[nH]c1[O-] (3D coordinates assigned)
C=c1[nH]cc/c1=C\c1sc(=O)[nH]c1[O-] (optimized conformer: 86.01310772547193 kcal/mol)

>  <smiles>  (80) 
C=c1[nH]ccc1=Cc1sc(=O)[nH]c1O

>  <score_type>  (80) 
oracle

>  <origin>  (80) 
adg

>  <m_score__min__energy>  (80) 
-9.7599999999999998

>  <m_primary>  (80) 
energy

$$$$
80:0
     RDKit          3D

 38 40  0  0  0  0  0  0  0  0999 V2000
   58.4220   25.7340   47.8790 O   0  0  0  0  0  0  0  0  0  0  0  0
   58.0130   26.0380   46.7280 C   0  0  0  0  0  0  0  0  0  0  0  0
   58.8230   26.9010   45.9170 N   0  0  0  0  0  0  0  0  0  0  0  0
   58.5610   28.2860   45.6550 C   0  0  0  0  0  0  0  0  0  0  0  0
   59.3950   29.2970   46.1630 C   0  0  0  0  0  0  0  0  0  0  0  0
   59.1400   30.6360   45.8590 C   0  0  0  0  0  0  0  0  0  0  0  0
   58.0450   30.9810   45.0580 C   0  0  0  0  0  0  0  0  0  0  0  0
   57.8090   32.6600   44.5830 S   0  0  0  0  0  0  0  0  0  0  0  0
   57.4680   32.7600   43.1230 O   0  0  0  0  0  0  0  0  0  0  0  0
   56.6830   33.2390   45.3920 O   0  0  0  0  0  0  0  0  0  0  0  0
   59.2620   33.5590   44.8880 N   0  0  0  0  0  0  0  0  0  0  0  0
   59.8750   33.6460   46.1870 C   0  0  0  0  0  0  0  0  0  0  0  0
   61.2690   33.5410   46.3530 C   0  0  0  0  0  0  0  0  0  0  0  0
   61.8340   33.6020   47.6310 C   0  0  0  0  0  0  0  0  0  0  0  0
   61.0200   33.7800   48.7520 C   0  0  0  0  0  0  0  0  0  0  0  0
   61.7310   33.8610   50.3530 Cl  0  0  0  0  0  0  0  0  0  0  0  0
   59.6360   33.9030   48.5940 C   0  0  0  0  0  0  0  0  0  0  0  0
   59.0670   33.8400   47.3180 C   0  0  0  0  0  0  0  0  0  0  0  0
   57.1810   29.9800   44.5970 C   0  0  0  0  0  0  0  0  0  0  0  0
   57.4330   28.6380   44.9030 C   0  0  0  0  0  0  0  0  0  0  0  0
   56.6910   25.5570   46.2680 C   0  0  0  0  0  0  0  0  0  0  0  0
   56.5320   24.2690   45.7420 C   0  0  0  0  0  0  0  0  0  0  0  0
   55.2690   23.8540   45.3200 C   0  0  0  0  0  0  0  0  0  0  0  0
   54.1910   24.7300   45.4410 C   0  0  0  0  0  0  0  0  0  0  0  0
   53.0410   24.3800   45.0680 O   0  0  0  0  0  0  0  0  0  0  0  0
   54.3880   25.9640   45.9710 N   0  0  0  0  0  0  0  0  0  0  0  0
   55.5970   26.3630   46.3720 N   0  0  0  0  0  0  0  0  0  0  0  0
   60.2508   29.0328   46.8017 H   0  0  0  0  0  0  0  0  0  0  0  0
   59.8020   31.4225   46.2504 H   0  0  0  0  0  0  0  0  0  0  0  0
   59.6020   34.1840   44.1240 H   0  0  0  0  0  0  0  0  0  0  0  0
   61.9168   33.4104   45.4736 H   0  0  0  0  0  0  0  0  0  0  0  0
   62.9232   33.5095   47.7537 H   0  0  0  0  0  0  0  0  0  0  0  0
   58.9937   34.0496   49.4749 H   0  0  0  0  0  0  0  0  0  0  0  0
   57.9782   33.9433   47.2000 H   0  0  0  0  0  0  0  0  0  0  0  0
   56.3021   30.2493   43.9929 H   0  0  0  0  0  0  0  0  0  0  0  0
   56.7428   27.8568   44.5517 H   0  0  0  0  0  0  0  0  0  0  0  0
   57.3947   23.5912   45.6624 H   0  0  0  0  0  0  0  0  0  0  0  0
   55.1253   22.8487   44.8972 H   0  0  0  0  0  0  0  0  0  0  0  0
  1  2  2  0
  2  3  1  0
  3  4  1  0
  4  5  2  0
  5  6  1  0
  6  7  2  0
  7  8  1  0
  8  9  2  0
  8 10  2  0
  8 11  1  0
 11 12  1  0
 12 13  2  0
 13 14  1  0
 14 15  2  0
 15 16  1  0
 15 17  1  0
 17 18  2  0
  7 19  1  0
 19 20  2  0
  2 21  1  0
 21 22  1  0
 22 23  2  0
 23 24  1  0
 24 25  2  0
 24 26  1  0
 26 27  1  0
 20  4  1  0
 27 21  2  0
 18 12  1  0
  5 28  1  0
  6 29  1  0
 11 30  1  0
 13 31  1  0
 14 32  1  0
 17 33  1  0
 18 34  1  0
 19 35  1  0
 20 36  1  0
 22 37  1  0
 23 38  1  0
M  CHG  2   3  -1  26  -1
M  END
>  <UniqueID>  (81) 
78

>  <SMILES>  (81) 
O=C([N-]c1ccc(S(=O)(=O)Nc2ccc(Cl)cc2)cc1)c1ccc(=O)[n-]n1

>  <Energy>  (81) 
49.25798964394619

>  <Genealogy>  (81) 
O=C([N-]c1ccc(S(=O)(=O)Nc2ccc(Cl)cc2)cc1)c1ccc(=O)[n-]n1 (protonated)
O=C([N-]c1ccc(S(=O)(=O)Nc2ccc(Cl)cc2)cc1)c1ccc(=O)[n-]n1 (3D coordinates assigned)
O=C([N-]c1ccc(S(=O)(=O)Nc2ccc(Cl)cc2)cc1)c1ccc(=O)[n-]n1 (optimized conformer: 49.25798964394619 kcal/mol)

>  <smiles>  (81) 
O=C(Nc1ccc(S(=O)(=O)Nc2ccc(Cl)cc2)cc1)c1ccc(=O)[nH]n1

>  <score_type>  (81) 
oracle

>  <origin>  (81) 
adg

>  <m_score__min__energy>  (81) 
-12.880000000000001

>  <m_primary>  (81) 
energy

$$$$
81:0
     RDKit          3D

 33 35  0  0  0  0  0  0  0  0999 V2000
   61.1093   26.3014   46.3169 H   0  0  0  0  0  0  0  0  0  0  0  0
   60.0700   25.9430   46.3550 C   0  0  0  0  0  0  0  0  0  0  0  0
   59.8610   24.8831   46.5623 H   0  0  0  0  0  0  0  0  0  0  0  0
   59.0640   26.7930   46.1500 C   0  0  0  0  0  0  0  0  0  0  0  0
   57.7250   26.2970   46.2060 N   0  0  0  0  0  0  0  0  0  0  0  0
   56.6350   27.1450   45.8760 C   0  0  0  0  0  0  0  0  0  0  0  0
   55.4540   26.7180   45.9760 O   0  0  0  0  0  0  0  0  0  0  0  0
   56.9190   28.5010   45.3940 C   0  0  0  0  0  0  0  0  0  0  0  0
   55.9060   29.3230   44.8800 C   0  0  0  0  0  0  0  0  0  0  0  0
   54.8665   28.9639   44.8586 H   0  0  0  0  0  0  0  0  0  0  0  0
   56.2040   30.5600   44.4090 N   0  0  0  0  0  0  0  0  0  0  0  0
   57.4760   31.0490   44.4190 C   0  0  0  0  0  0  0  0  0  0  0  0
   57.7370   32.2420   43.9710 N   0  0  0  0  0  0  0  0  0  0  0  0
   57.3370   33.4870   44.6250 C   0  0  0  0  0  0  0  0  0  0  0  0
   57.4311   34.3176   43.9100 H   0  0  0  0  0  0  0  0  0  0  0  0
   56.2942   33.3920   44.9620 H   0  0  0  0  0  0  0  0  0  0  0  0
   58.2110   33.7610   45.8200 C   0  0  0  0  0  0  0  0  0  0  0  0
   58.0220   33.0580   47.0220 C   0  0  0  0  0  0  0  0  0  0  0  0
   57.2183   32.3110   47.0997 H   0  0  0  0  0  0  0  0  0  0  0  0
   58.8520   33.3050   48.1190 C   0  0  0  0  0  0  0  0  0  0  0  0
   58.6992   32.7532   49.0582 H   0  0  0  0  0  0  0  0  0  0  0  0
   59.8760   34.2520   48.0250 C   0  0  0  0  0  0  0  0  0  0  0  0
   60.5274   34.4457   48.8900 H   0  0  0  0  0  0  0  0  0  0  0  0
   60.0720   34.9530   46.8310 C   0  0  0  0  0  0  0  0  0  0  0  0
   60.8787   35.6972   46.7568 H   0  0  0  0  0  0  0  0  0  0  0  0
   59.2440   34.7090   45.7320 C   0  0  0  0  0  0  0  0  0  0  0  0
   59.4018   35.2616   44.7940 H   0  0  0  0  0  0  0  0  0  0  0  0
   58.5140   30.2600   44.9250 C   0  0  0  0  0  0  0  0  0  0  0  0
   59.5412   30.6530   44.9447 H   0  0  0  0  0  0  0  0  0  0  0  0
   58.2500   28.9680   45.4080 C   0  0  0  0  0  0  0  0  0  0  0  0
   59.3260   28.2120   46.0180 N   0  0  0  0  0  0  0  0  0  0  0  0
   60.1920   28.3430   45.4420 H   0  0  0  0  0  0  0  0  0  0  0  0
   59.4980   28.6020   46.9730 H   0  0  0  0  0  0  0  0  0  0  0  0
  1  2  1  0
  2  3  1  0
  2  4  2  0
  4  5  1  0
  5  6  1  0
  6  7  2  0
  6  8  1  0
  8  9  2  0
  9 10  1  0
  9 11  1  0
 11 12  1  0
 12 13  2  0
 13 14  1  0
 14 15  1  0
 14 16  1  0
 14 17  1  0
 17 18  2  0
 18 19  1  0
 18 20  1  0
 20 21  1  0
 20 22  2  0
 22 23  1  0
 22 24  1  0
 24 25  1  0
 24 26  2  0
 26 27  1  0
 12 28  1  0
 28 29  1  0
 28 30  2  0
 30 31  1  0
 31 32  1  0
 31 33  1  0
 31  4  1  0
 30  8  1  0
 26 17  1  0
M  CHG  3   5  -1  11  -1  31   1
M  END
>  <UniqueID>  (82) 
79

>  <SMILES>  (82) 
C=C1[N-]C(=O)c2c[n-]/c(=N\Cc3ccccc3)cc2[NH2+]1

>  <Energy>  (82) 
39.952832475323994

>  <Genealogy>  (82) 
C=C1[N-]C(=O)c2c[n-]c(=NCc3ccccc3)cc2[NH2+]1 (protonated)
C=C1[N-]C(=O)c2c[n-]/c(=N\Cc3ccccc3)cc2[NH2+]1 (cis-trans isomerization)
C=C1[N-]C(=O)c2c[n-]/c(=N\Cc3ccccc3)cc2[NH2+]1 (3D coordinates assigned)
C=C1[N-]C(=O)c2c[n-]/c(=N\Cc3ccccc3)cc2[NH2+]1 (nonaromatic ring conformer: 39.952832475323994 kcal/mol)

>  <smiles>  (82) 
C=C1NC(=O)c2c[nH]c(=NCc3ccccc3)cc2N1

>  <score_type>  (82) 
oracle

>  <origin>  (82) 
adg

>  <m_score__min__energy>  (82) 
-8.9299999999999997

>  <m_primary>  (82) 
energy

$$$$
82:0
     RDKit          3D

 52 55  0  0  0  0  0  0  0  0999 V2000
   56.9362   23.0529   46.1407 H   0  0  0  0  0  0  0  0  0  0  0  0
   57.2490   24.1020   46.0330 C   0  0  0  0  0  0  0  0  0  0  0  0
   58.6230   24.4300   46.0410 C   0  0  0  0  0  0  0  0  0  0  0  0
   59.3739   23.6347   46.1576 H   0  0  0  0  0  0  0  0  0  0  0  0
   59.0370   25.7660   45.9010 C   0  0  0  0  0  0  0  0  0  0  0  0
   60.1040   26.0332   45.9115 H   0  0  0  0  0  0  0  0  0  0  0  0
   58.0500   26.7450   45.7480 C   0  0  0  0  0  0  0  0  0  0  0  0
   56.7250   26.4230   45.7490 C   0  0  0  0  0  0  0  0  0  0  0  0
   55.9740   27.5260   45.6230 N   0  0  0  0  0  0  0  0  0  0  0  0
   56.8920   28.5200   45.5290 C   0  0  0  0  0  0  0  0  0  0  0  0
   56.5060   29.7390   45.2670 N   0  0  0  0  0  0  0  0  0  0  0  0
   56.7260   30.5250   44.0920 C   0  0  0  0  0  0  0  0  0  0  0  0
   56.2450   30.1260   42.9990 O   0  0  0  0  0  0  0  0  0  0  0  0
   57.6080   31.7160   44.1040 C   0  0  0  0  0  0  0  0  0  0  0  0
   58.0860   32.4580   43.0280 C   0  0  0  0  0  0  0  0  0  0  0  0
   57.8220   32.2330   41.5750 C   0  0  0  0  0  0  0  0  0  0  0  0
   56.9895   31.5235   41.4592 H   0  0  0  0  0  0  0  0  0  0  0  0
   57.5585   33.1885   41.0979 H   0  0  0  0  0  0  0  0  0  0  0  0
   58.7237   31.8214   41.0979 H   0  0  0  0  0  0  0  0  0  0  0  0
   58.8540   33.4690   43.4820 N   0  0  0  0  0  0  0  0  0  0  0  0
   58.8670   33.4080   44.8040 N   0  0  0  0  0  0  0  0  0  0  0  0
   59.6140   34.3410   45.6410 C   0  0  0  0  0  0  0  0  0  0  0  0
   59.4299   34.1111   46.7008 H   0  0  0  0  0  0  0  0  0  0  0  0
   60.6887   34.2463   45.4266 H   0  0  0  0  0  0  0  0  0  0  0  0
   59.2865   35.3690   45.4266 H   0  0  0  0  0  0  0  0  0  0  0  0
   58.1280   32.3570   45.2200 C   0  0  0  0  0  0  0  0  0  0  0  0
   57.9040   31.9650   46.6520 C   0  0  0  0  0  0  0  0  0  0  0  0
   58.3400   32.7281   47.3135 H   0  0  0  0  0  0  0  0  0  0  0  0
   56.8241   31.8855   46.8458 H   0  0  0  0  0  0  0  0  0  0  0  0
   58.3837   30.9943   46.8458 H   0  0  0  0  0  0  0  0  0  0  0  0
   58.1910   28.0830   45.6320 N   0  0  0  0  0  0  0  0  0  0  0  0
   59.4180   28.8150   45.9940 C   0  0  0  0  0  0  0  0  0  0  0  0
   60.2783   28.3428   45.4970 H   0  0  0  0  0  0  0  0  0  0  0  0
   59.3108   29.8604   45.6690 H   0  0  0  0  0  0  0  0  0  0  0  0
   59.6430   28.7960   47.5120 C   0  0  0  0  0  0  0  0  0  0  0  0
   58.6936   29.0167   48.0218 H   0  0  0  0  0  0  0  0  0  0  0  0
   60.0078   27.8008   47.8060 H   0  0  0  0  0  0  0  0  0  0  0  0
   60.6490   29.8080   47.8970 N   0  0  0  0  0  0  0  0  0  0  0  0
   60.1240   30.8040   48.8380 C   0  0  0  0  0  0  0  0  0  0  0  0
   59.0765   31.0391   48.5984 H   0  0  0  0  0  0  0  0  0  0  0  0
   60.1500   30.4293   49.8719 H   0  0  0  0  0  0  0  0  0  0  0  0
   60.9900   32.0410   48.6780 C   0  0  0  0  0  0  0  0  0  0  0  0
   60.3775   32.9523   48.7445 H   0  0  0  0  0  0  0  0  0  0  0  0
   61.7531   32.1143   49.4669 H   0  0  0  0  0  0  0  0  0  0  0  0
   61.6110   31.9150   47.2950 C   0  0  0  0  0  0  0  0  0  0  0  0
   61.2865   32.7452   46.6504 H   0  0  0  0  0  0  0  0  0  0  0  0
   62.7096   31.9522   47.3352 H   0  0  0  0  0  0  0  0  0  0  0  0
   61.1100   30.5880   46.7460 C   0  0  0  0  0  0  0  0  0  0  0  0
   60.2798   30.7564   46.0442 H   0  0  0  0  0  0  0  0  0  0  0  0
   61.9046   30.0586   46.1998 H   0  0  0  0  0  0  0  0  0  0  0  0
   56.2790   25.1100   45.8880 C   0  0  0  0  0  0  0  0  0  0  0  0
   55.2054   24.8703   45.8844 H   0  0  0  0  0  0  0  0  0  0  0  0
  1  2  1  0
  2  3  2  0
  3  4  1  0
  3  5  1  0
  5  6  1  0
  5  7  2  0
  7  8  1  0
  8  9  1  0
  9 10  1  0
 10 11  2  0
 11 12  1  0
 12 13  2  0
 12 14  1  0
 14 15  1  0
 15 16  1  0
 16 17  1  0
 16 18  1  0
 16 19  1  0
 15 20  2  0
 20 21  1  0
 21 22  1  0
 22 23  1  0
 22 24  1  0
 22 25  1  0
 21 26  1  0
 26 27  1  0
 27 28  1  0
 27 29  1  0
 27 30  1  0
 10 31  1  0
 31 32  1  0
 32 33  1  0
 32 34  1  0
 32 35  1  0
 35 36  1  0
 35 37  1  0
 35 38  1  0
 38 39  1  0
 39 40  1  0
 39 41  1  0
 39 42  1  0
 42 43  1  0
 42 44  1  0
 42 45  1  0
 45 46  1  0
 45 47  1  0
 45 48  1  0
 48 49  1  0
 48 50  1  0
  8 51  2  0
 51 52  1  0
 51  2  1  0
 31  7  1  0
 48 38  1  0
 26 14  2  0
M  CHG  1   9  -1
M  END
>  <UniqueID>  (83) 
80

>  <SMILES>  (83) 
Cc1nn(C)c(C)c1C(=O)/N=c1/[n-]c2ccccc2n1CCN1CCCC1

>  <Energy>  (83) 
136.79580340306342

>  <Genealogy>  (83) 
Cc1nn(C)c(C)c1C(=O)N=c1[n-]c2ccccc2n1CCN1CCCC1 (protonated)
Cc1nn(C)c(C)c1C(=O)/N=c1/[n-]c2ccccc2n1CCN1CCCC1 (cis-trans isomerization)
Cc1nn(C)c(C)c1C(=O)/N=c1/[n-]c2ccccc2n1CCN1CCCC1 (3D coordinates assigned)
Cc1nn(C)c(C)c1C(=O)/N=c1/[n-]c2ccccc2n1CCN1CCCC1 (nonaromatic ring conformer: 136.79580340306342 kcal/mol)

>  <smiles>  (83) 
Cc1nn(C)c(C)c1C(=O)N=c1[nH]c2ccccc2n1CCN1CCCC1

>  <score_type>  (83) 
oracle

>  <origin>  (83) 
adg

>  <m_score__min__energy>  (83) 
-9.7200000000000006

>  <m_primary>  (83) 
energy

$$$$
83:0
     RDKit          3D

 53 56  0  0  0  0  0  0  0  0999 V2000
   57.5680   24.4800   47.4140 H   0  0  0  0  0  0  0  0  0  0  0  0
   58.4500   24.9650   47.1520 N   0  0  0  0  0  0  0  0  0  0  0  0
   58.6110   26.2520   47.1280 C   0  0  0  0  0  0  0  0  0  0  0  0
   59.2150   26.8320   48.1970 N   0  0  0  0  0  0  0  0  0  0  0  0
   59.3920   28.1710   48.2980 C   0  0  0  0  0  0  0  0  0  0  0  0
   59.9150   28.5921   49.1693 H   0  0  0  0  0  0  0  0  0  0  0  0
   58.9140   29.0120   47.3030 C   0  0  0  0  0  0  0  0  0  0  0  0
   59.0349   30.1010   47.3998 H   0  0  0  0  0  0  0  0  0  0  0  0
   58.2770   28.4760   46.1740 C   0  0  0  0  0  0  0  0  0  0  0  0
   57.6910   29.4310   45.2000 C   0  0  0  0  0  0  0  0  0  0  0  0
   56.6080   29.0470   44.3850 C   0  0  0  0  0  0  0  0  0  0  0  0
   56.1489   28.0560   44.5159 H   0  0  0  0  0  0  0  0  0  0  0  0
   56.1140   29.9190   43.4110 C   0  0  0  0  0  0  0  0  0  0  0  0
   55.2701   29.6123   42.7755 H   0  0  0  0  0  0  0  0  0  0  0  0
   56.6920   31.1810   43.2440 C   0  0  0  0  0  0  0  0  0  0  0  0
   56.3047   31.8613   42.4713 H   0  0  0  0  0  0  0  0  0  0  0  0
   57.7610   31.5850   44.0540 C   0  0  0  0  0  0  0  0  0  0  0  0
   58.3180   32.8950   43.8710 N   0  0  0  0  0  0  0  0  0  0  0  0
   58.3320   34.1210   45.0990 S   0  0  0  0  0  0  0  0  0  0  0  0
   56.9250   34.5990   45.3110 O   0  0  0  0  0  0  0  0  0  0  0  0
   59.1640   35.2790   44.6300 O   0  0  0  0  0  0  0  0  0  0  0  0
   59.0000   33.5060   46.6070 C   0  0  0  0  0  0  0  0  0  0  0  0
   58.1700   32.8710   47.5410 C   0  0  0  0  0  0  0  0  0  0  0  0
   57.0889   32.7967   47.3522 H   0  0  0  0  0  0  0  0  0  0  0  0
   58.7110   32.3320   48.7110 C   0  0  0  0  0  0  0  0  0  0  0  0
   58.0516   31.8347   49.4376 H   0  0  0  0  0  0  0  0  0  0  0  0
   60.0840   32.4190   48.9670 C   0  0  0  0  0  0  0  0  0  0  0  0
   60.5740   31.8440   50.1500 O   0  0  0  0  0  0  0  0  0  0  0  0
   61.2080   30.5720   50.2480 C   0  0  0  0  0  0  0  0  0  0  0  0
   61.4650   30.1020   48.9750 F   0  0  0  0  0  0  0  0  0  0  0  0
   60.3820   29.6770   50.8980 F   0  0  0  0  0  0  0  0  0  0  0  0
   62.4080   30.6870   50.9280 F   0  0  0  0  0  0  0  0  0  0  0  0
   60.9160   33.0710   48.0330 C   0  0  0  0  0  0  0  0  0  0  0  0
   61.9954   33.1567   48.2270 H   0  0  0  0  0  0  0  0  0  0  0  0
   60.3740   33.6090   46.8610 C   0  0  0  0  0  0  0  0  0  0  0  0
   61.0289   34.1147   46.1362 H   0  0  0  0  0  0  0  0  0  0  0  0
   58.2750   30.6950   45.0130 C   0  0  0  0  0  0  0  0  0  0  0  0
   59.1418   30.9907   45.6222 H   0  0  0  0  0  0  0  0  0  0  0  0
   58.1650   27.0610   46.0400 C   0  0  0  0  0  0  0  0  0  0  0  0
   57.6670   26.4260   44.7440 C   0  0  0  0  0  0  0  0  0  0  0  0
   57.1223   27.1843   44.1624 H   0  0  0  0  0  0  0  0  0  0  0  0
   58.5402   26.0534   44.1885 H   0  0  0  0  0  0  0  0  0  0  0  0
   56.7450   25.2570   45.0090 C   0  0  0  0  0  0  0  0  0  0  0  0
   57.1580   23.9510   44.6930 C   0  0  0  0  0  0  0  0  0  0  0  0
   58.1553   23.7829   44.2605 H   0  0  0  0  0  0  0  0  0  0  0  0
   56.3090   22.8640   44.9250 C   0  0  0  0  0  0  0  0  0  0  0  0
   56.6350   21.8472   44.6608 H   0  0  0  0  0  0  0  0  0  0  0  0
   55.0490   23.0660   45.4910 C   0  0  0  0  0  0  0  0  0  0  0  0
   54.3775   22.2110   45.6584 H   0  0  0  0  0  0  0  0  0  0  0  0
   54.6420   24.3520   45.8440 C   0  0  0  0  0  0  0  0  0  0  0  0
   53.6555   24.5067   46.3054 H   0  0  0  0  0  0  0  0  0  0  0  0
   55.4830   25.4470   45.6140 C   0  0  0  0  0  0  0  0  0  0  0  0
   55.0600   26.7140   45.9970 O   0  0  0  0  0  0  0  0  0  0  0  0
  1  2  1  0
  2  3  2  0
  3  4  1  0
  4  5  1  0
  5  6  1  0
  5  7  2  0
  7  8  1  0
  7  9  1  0
  9 10  1  0
 10 11  2  0
 11 12  1  0
 11 13  1  0
 13 14  1  0
 13 15  2  0
 15 16  1  0
 15 17  1  0
 17 18  1  0
 18 19  1  0
 19 20  2  0
 19 21  2  0
 19 22  1  0
 22 23  2  0
 23 24  1  0
 23 25  1  0
 25 26  1  0
 25 27  2  0
 27 28  1  0
 28 29  1  0
 29 30  1  0
 29 31  1  0
 29 32  1  0
 27 33  1  0
 33 34  1  0
 33 35  2  0
 35 36  1  0
 17 37  2  0
 37 38  1  0
  9 39  2  0
 39 40  1  0
 40 41  1  0
 40 42  1  0
 40 43  1  0
 43 44  2  0
 44 45  1  0
 44 46  1  0
 46 47  1  0
 46 48  2  0
 48 49  1  0
 48 50  1  0
 50 51  1  0
 50 52  2  0
 52 53  1  0
 39  3  1  0
 52 43  1  0
 37 10  1  0
 35 22  1  0
M  CHG  3   4  -1  18  -1  53  -1
M  END
>  <UniqueID>  (84) 
81

>  <SMILES>  (84) 
[H]/N=c1/[n-]ccc(-c2cccc([N-]S(=O)(=O)c3ccc(OC(F)(F)F)cc3)c2)c1Cc1ccccc1[O-]

>  <Energy>  (84) 
75.93737363512865

>  <Genealogy>  (84) 
N=c1[n-]ccc(-c2cccc([N-]S(=O)(=O)c3ccc(OC(F)(F)F)cc3)c2)c1Cc1ccccc1[O-] (protonated)
[H]/N=c1/[n-]ccc(-c2cccc([N-]S(=O)(=O)c3ccc(OC(F)(F)F)cc3)c2)c1Cc1ccccc1[O-] (cis-trans isomerization)
[H]/N=c1/[n-]ccc(-c2cccc([N-]S(=O)(=O)c3ccc(OC(F)(F)F)cc3)c2)c1Cc1ccccc1[O-] (3D coordinates assigned)
[H]/N=c1/[n-]ccc(-c2cccc([N-]S(=O)(=O)c3ccc(OC(F)(F)F)cc3)c2)c1Cc1ccccc1[O-] (optimized conformer: 75.93737363512865 kcal/mol)

>  <smiles>  (84) 
N=c1[nH]ccc(-c2cccc(NS(=O)(=O)c3ccc(OC(F)(F)F)cc3)c2)c1Cc1ccccc1O

>  <score_type>  (84) 
oracle

>  <origin>  (84) 
adg

>  <m_score__min__energy>  (84) 
-15.07

>  <m_primary>  (84) 
energy

$$$$
84:0
     RDKit          3D

 74 78  0  0  0  0  0  0  0  0999 V2000
   59.2200   25.5860   46.2800 C   0  0  0  0  0  0  0  0  0  0  0  0
   59.0810   26.9780   46.8470 C   0  0  0  0  0  0  0  0  0  0  0  0
   59.6510   27.2510   48.1020 C   0  0  0  0  0  0  0  0  0  0  0  0
   59.5860   28.5370   48.6620 C   0  0  0  0  0  0  0  0  0  0  0  0
   60.1520   28.8010   50.0030 C   0  0  0  0  0  0  0  0  0  0  0  0
   60.4040   27.8400   50.7790 O   0  0  0  0  0  0  0  0  0  0  0  0
   60.4260   30.1420   50.4380 N   0  0  0  0  0  0  0  0  0  0  0  0
   61.7800   30.6780   50.2590 C   0  0  0  0  0  0  0  0  0  0  0  0
   61.7040   32.1210   49.7580 C   0  0  0  0  0  0  0  0  0  0  0  0
   60.9260   32.9910   50.7530 C   0  0  0  0  0  0  0  0  0  0  0  0
   59.6110   32.3640   51.1560 C   0  0  0  0  0  0  0  0  0  0  0  0
   58.6320   33.1640   51.7640 C   0  0  0  0  0  0  0  0  0  0  0  0
   57.4430   32.5990   52.2250 C   0  0  0  0  0  0  0  0  0  0  0  0
   57.2110   31.2200   52.0930 C   0  0  0  0  0  0  0  0  0  0  0  0
   56.0060   30.6300   52.6180 N   0  0  0  0  0  0  0  0  0  0  0  0
   54.7230   30.8370   51.9310 C   0  0  0  0  0  0  0  0  0  0  0  0
   53.6880   29.8020   52.3930 C   0  0  0  0  0  0  0  0  0  0  0  0
   54.3090   28.4780   52.5300 N   0  0  0  0  0  0  0  0  0  0  0  0
   55.3620   28.4440   53.5680 C   0  0  0  0  0  0  0  0  0  0  0  0
   56.0270   29.8090   53.8330 C   0  0  0  0  0  0  0  0  0  0  0  0
   58.1930   30.4170   51.4940 C   0  0  0  0  0  0  0  0  0  0  0  0
   59.3970   30.9740   51.0230 C   0  0  0  0  0  0  0  0  0  0  0  0
   58.9510   29.5620   47.9440 C   0  0  0  0  0  0  0  0  0  0  0  0
   58.3950   29.3090   46.6890 C   0  0  0  0  0  0  0  0  0  0  0  0
   58.4450   28.0230   46.1260 C   0  0  0  0  0  0  0  0  0  0  0  0
   57.8090   27.7960   44.7730 C   0  0  0  0  0  0  0  0  0  0  0  0
   57.7070   29.0510   44.0360 N   0  0  0  0  0  0  0  0  0  0  0  0
   56.6120   29.9590   44.2030 C   0  0  0  0  0  0  0  0  0  0  0  0
   55.6190   29.6370   44.9100 O   0  0  0  0  0  0  0  0  0  0  0  0
   56.6400   31.2250   43.5360 N   0  0  0  0  0  0  0  0  0  0  0  0
   57.7840   32.1300   43.5610 C   0  0  0  0  0  0  0  0  0  0  0  0
   57.4000   33.4470   44.2430 C   0  0  0  0  0  0  0  0  0  0  0  0
   58.1260   33.6040   45.5530 C   0  0  0  0  0  0  0  0  0  0  0  0
   59.1270   34.5810   45.7020 C   0  0  0  0  0  0  0  0  0  0  0  0
   59.7950   34.7270   46.9230 C   0  0  0  0  0  0  0  0  0  0  0  0
   59.4640   33.9050   48.0030 C   0  0  0  0  0  0  0  0  0  0  0  0
   58.4600   32.9420   47.8690 C   0  0  0  0  0  0  0  0  0  0  0  0
   57.7890   32.7940   46.6510 C   0  0  0  0  0  0  0  0  0  0  0  0
   59.2925   24.8602   47.1034 H   0  0  0  0  0  0  0  0  0  0  0  0
   58.3407   25.3524   45.6617 H   0  0  0  0  0  0  0  0  0  0  0  0
   60.1281   25.5309   45.6617 H   0  0  0  0  0  0  0  0  0  0  0  0
   60.1560   26.4448   48.6543 H   0  0  0  0  0  0  0  0  0  0  0  0
   62.3127   30.6531   51.2211 H   0  0  0  0  0  0  0  0  0  0  0  0
   62.3185   30.0653   49.5211 H   0  0  0  0  0  0  0  0  0  0  0  0
   62.7229   32.5203   49.6466 H   0  0  0  0  0  0  0  0  0  0  0  0
   61.1847   32.1357   48.7884 H   0  0  0  0  0  0  0  0  0  0  0  0
   61.5407   33.1341   51.6540 H   0  0  0  0  0  0  0  0  0  0  0  0
   60.7053   33.9499   50.2613 H   0  0  0  0  0  0  0  0  0  0  0  0
   58.8033   34.2446   51.8780 H   0  0  0  0  0  0  0  0  0  0  0  0
   56.6813   33.2381   52.6954 H   0  0  0  0  0  0  0  0  0  0  0  0
   54.3504   31.8467   52.1581 H   0  0  0  0  0  0  0  0  0  0  0  0
   54.8788   30.7228   50.8481 H   0  0  0  0  0  0  0  0  0  0  0  0
   53.2764   30.1110   53.3652 H   0  0  0  0  0  0  0  0  0  0  0  0
   52.8858   29.7423   51.6428 H   0  0  0  0  0  0  0  0  0  0  0  0
   54.7380   28.2200   51.6090 H   0  0  0  0  0  0  0  0  0  0  0  0
   54.9105   28.0913   54.5070 H   0  0  0  0  0  0  0  0  0  0  0  0
   56.1510   27.7726   53.1983 H   0  0  0  0  0  0  0  0  0  0  0  0
   55.4799   30.3300   54.6325 H   0  0  0  0  0  0  0  0  0  0  0  0
   57.0717   29.6452   54.1361 H   0  0  0  0  0  0  0  0  0  0  0  0
   58.0196   29.3357   51.3908 H   0  0  0  0  0  0  0  0  0  0  0  0
   58.8910   30.5728   48.3737 H   0  0  0  0  0  0  0  0  0  0  0  0
   57.9118   30.1266   46.1340 H   0  0  0  0  0  0  0  0  0  0  0  0
   58.4247   27.0884   44.1983 H   0  0  0  0  0  0  0  0  0  0  0  0
   56.7980   27.3884   44.9205 H   0  0  0  0  0  0  0  0  0  0  0  0
   58.4740   29.3100   43.3780 H   0  0  0  0  0  0  0  0  0  0  0  0
   58.6080   31.6592   44.1172 H   0  0  0  0  0  0  0  0  0  0  0  0
   58.1000   32.3387   42.5282 H   0  0  0  0  0  0  0  0  0  0  0  0
   57.6641   34.2856   43.5819 H   0  0  0  0  0  0  0  0  0  0  0  0
   56.3177   33.4393   44.4391 H   0  0  0  0  0  0  0  0  0  0  0  0
   59.3859   35.2332   44.8549 H   0  0  0  0  0  0  0  0  0  0  0  0
   60.5807   35.4890   47.0324 H   0  0  0  0  0  0  0  0  0  0  0  0
   59.9944   34.0159   48.9603 H   0  0  0  0  0  0  0  0  0  0  0  0
   58.1973   32.2998   48.7225 H   0  0  0  0  0  0  0  0  0  0  0  0
   56.9939   32.0403   46.5519 H   0  0  0  0  0  0  0  0  0  0  0  0
  1  2  1  0
  2  3  2  0
  3  4  1  0
  4  5  1  0
  5  6  2  0
  5  7  1  0
  7  8  1  0
  8  9  1  0
  9 10  1  0
 10 11  1  0
 11 12  2  0
 12 13  1  0
 13 14  2  0
 14 15  1  0
 15 16  1  0
 16 17  1  0
 17 18  1  0
 18 19  1  0
 19 20  1  0
 14 21  1  0
 21 22  2  0
  4 23  2  0
 23 24  1  0
 24 25  2  0
 25 26  1  0
 26 27  1  0
 27 28  1  0
 28 29  2  0
 28 30  1  0
 30 31  1  0
 31 32  1  0
 32 33  1  0
 33 34  2  0
 34 35  1  0
 35 36  2  0
 36 37  1  0
 37 38  2  0
 25  2  1  0
 38 33  1  0
 22  7  1  0
 22 11  1  0
 20 15  1  0
  1 39  1  0
  1 40  1  0
  1 41  1  0
  3 42  1  0
  8 43  1  0
  8 44  1  0
  9 45  1  0
  9 46  1  0
 10 47  1  0
 10 48  1  0
 12 49  1  0
 13 50  1  0
 16 51  1  0
 16 52  1  0
 17 53  1  0
 17 54  1  0
 18 55  1  0
 19 56  1  0
 19 57  1  0
 20 58  1  0
 20 59  1  0
 21 60  1  0
 23 61  1  0
 24 62  1  0
 26 63  1  0
 26 64  1  0
 27 65  1  0
 31 66  1  0
 31 67  1  0
 32 68  1  0
 32 69  1  0
 34 70  1  0
 35 71  1  0
 36 72  1  0
 37 73  1  0
 38 74  1  0
M  CHG  1  30  -1
M  END
>  <UniqueID>  (85) 
82

>  <SMILES>  (85) 
Cc1cc(C(=O)N2CCCc3ccc(N4CCNCC4)cc32)ccc1CNC(=O)[N-]CCc1ccccc1

>  <Energy>  (85) 
88.93836290258706

>  <Genealogy>  (85) 
Cc1cc(C(=O)N2CCCc3ccc(N4CCNCC4)cc32)ccc1CNC(=O)[N-]CCc1ccccc1 (protonated)
Cc1cc(C(=O)N2CCCc3ccc(N4CCNCC4)cc32)ccc1CNC(=O)[N-]CCc1ccccc1 (3D coordinates assigned)
Cc1cc(C(=O)N2CCCc3ccc(N4CCNCC4)cc32)ccc1CNC(=O)[N-]CCc1ccccc1 (nonaromatic ring conformer: 88.93836290258706 kcal/mol)

>  <smiles>  (85) 
Cc1cc(C(=O)N2CCCc3ccc(N4CCNCC4)cc32)ccc1CNC(=O)NCCc1ccccc1

>  <score_type>  (85) 
oracle

>  <origin>  (85) 
adg

>  <m_score__min__energy>  (85) 
-12.619999999999999

>  <m_primary>  (85) 
energy

$$$$
85:0
     RDKit          3D

 26 28  0  0  0  0  0  0  0  0999 V2000
   54.5700   25.9850   46.3730 H   0  0  0  0  0  0  0  0  0  0  0  0
   53.9700   25.6260   45.6390 O   0  0  0  0  0  0  0  0  0  0  0  0
   53.5320   24.3040   45.6550 C   0  0  0  0  0  0  0  0  0  0  0  0
   52.2750   24.0110   45.2300 N   0  0  0  0  0  0  0  0  0  0  0  0
   51.8080   22.7380   45.2390 C   0  0  0  0  0  0  0  0  0  0  0  0
   50.6390   22.4940   44.8440 O   0  0  0  0  0  0  0  0  0  0  0  0
   52.6010   21.7270   45.6740 N   0  0  0  0  0  0  0  0  0  0  0  0
   53.8660   21.9620   46.1070 C   0  0  0  0  0  0  0  0  0  0  0  0
   54.5780   20.9920   46.4800 O   0  0  0  0  0  0  0  0  0  0  0  0
   54.3720   23.2770   46.1210 C   0  0  0  0  0  0  0  0  0  0  0  0
   55.7510   23.5750   46.5850 C   0  0  0  0  0  0  0  0  0  0  0  0
   56.6240   22.6700   46.5340 O   0  0  0  0  0  0  0  0  0  0  0  0
   56.1070   24.8410   47.1600 N   0  0  0  0  0  0  0  0  0  0  0  0
   56.7010   25.8250   46.5510 C   0  0  0  0  0  0  0  0  0  0  0  0
   56.0110   26.8870   46.0720 N   0  0  0  0  0  0  0  0  0  0  0  0
   56.8490   27.7980   45.5110 C   0  0  0  0  0  0  0  0  0  0  0  0
   56.4370   28.9980   44.9240 C   0  0  0  0  0  0  0  0  0  0  0  0
   55.0910   29.3410   44.8780 O   0  0  0  0  0  0  0  0  0  0  0  0
   57.4100   29.8540   44.3810 C   0  0  0  0  0  0  0  0  0  0  0  0
   57.1044   30.8021   43.9145 H   0  0  0  0  0  0  0  0  0  0  0  0
   58.7750   29.5060   44.4300 C   0  0  0  0  0  0  0  0  0  0  0  0
   59.5283   30.1840   44.0024 H   0  0  0  0  0  0  0  0  0  0  0  0
   59.1780   28.2980   45.0220 C   0  0  0  0  0  0  0  0  0  0  0  0
   60.2404   28.0164   45.0657 H   0  0  0  0  0  0  0  0  0  0  0  0
   58.1950   27.4670   45.5520 C   0  0  0  0  0  0  0  0  0  0  0  0
   58.3790   25.9840   46.3150 S   0  0  0  0  0  0  0  0  0  0  0  0
  1  2  1  0
  2  3  1  0
  3  4  1  0
  4  5  1  0
  5  6  2  0
  5  7  1  0
  7  8  1  0
  8  9  2  0
  8 10  1  0
 10 11  1  0
 11 12  2  0
 11 13  1  0
 13 14  2  0
 14 15  1  0
 15 16  1  0
 16 17  2  0
 17 18  1  0
 17 19  1  0
 19 20  1  0
 19 21  2  0
 21 22  1  0
 21 23  1  0
 23 24  1  0
 23 25  2  0
 25 26  1  0
 10  3  2  0
 26 14  1  0
 25 16  1  0
M  CHG  4   4  -1   7  -1  15  -1  18  -1
M  END
>  <UniqueID>  (86) 
83

>  <SMILES>  (86) 
O=C(/N=c1/[n-]c2c([O-])cccc2s1)c1c(O)[n-]c(=O)[n-]c1=O

>  <Energy>  (86) 
75.84484011333888

>  <Genealogy>  (86) 
O=C(N=c1[n-]c2c([O-])cccc2s1)c1c(O)[n-]c(=O)[n-]c1=O (protonated)
O=C(/N=c1/[n-]c2c([O-])cccc2s1)c1c(O)[n-]c(=O)[n-]c1=O (cis-trans isomerization)
O=C(/N=c1/[n-]c2c([O-])cccc2s1)c1c(O)[n-]c(=O)[n-]c1=O (3D coordinates assigned)
O=C(/N=c1/[n-]c2c([O-])cccc2s1)c1c(O)[n-]c(=O)[n-]c1=O (optimized conformer: 75.84484011333888 kcal/mol)

>  <smiles>  (86) 
O=C(N=c1[nH]c2c(O)cccc2s1)c1c(O)[nH]c(=O)[nH]c1=O

>  <score_type>  (86) 
oracle

>  <origin>  (86) 
adg

>  <m_score__min__energy>  (86) 
-15.65

>  <m_primary>  (86) 
energy

$$$$
86:0
     RDKit          3D

 69 72  0  0  0  0  0  0  0  0999 V2000
   56.8457   27.4213   45.4670 H   0  0  0  0  0  0  0  0  0  0  0  0
   57.2900   28.4190   45.3360 C   0  0  0  0  0  0  0  0  0  0  0  0
   56.3960   29.4940   44.8580 C   0  0  0  0  0  0  0  0  0  0  0  0
   55.1420   29.3750   44.9010 O   0  0  0  0  0  0  0  0  0  0  0  0
   56.9820   30.6720   44.2990 N   0  0  0  0  0  0  0  0  0  0  0  0
   56.7720   32.0160   44.8300 C   0  0  0  0  0  0  0  0  0  0  0  0
   56.6620   32.7224   43.9940 H   0  0  0  0  0  0  0  0  0  0  0  0
   55.8625   32.0158   45.4487 H   0  0  0  0  0  0  0  0  0  0  0  0
   57.9400   32.4350   45.6820 C   0  0  0  0  0  0  0  0  0  0  0  0
   59.1150   31.6680   45.7090 C   0  0  0  0  0  0  0  0  0  0  0  0
   59.1969   30.7701   45.0789 H   0  0  0  0  0  0  0  0  0  0  0  0
   60.1810   32.0390   46.5320 C   0  0  0  0  0  0  0  0  0  0  0  0
   61.0989   31.4329   46.5460 H   0  0  0  0  0  0  0  0  0  0  0  0
   60.0860   33.1790   47.3390 C   0  0  0  0  0  0  0  0  0  0  0  0
   61.4210   33.6030   48.4080 S   0  0  0  0  0  0  0  0  0  0  0  0
   62.6950   33.6110   47.6080 O   0  0  0  0  0  0  0  0  0  0  0  0
   61.2020   34.9750   48.9860 O   0  0  0  0  0  0  0  0  0  0  0  0
   61.5390   32.4340   49.7040 N   0  0  0  0  0  0  0  0  0  0  0  0
   60.5860   32.0180   49.8250 H   0  0  0  0  0  0  0  0  0  0  0  0
   62.4570   31.3490   49.3080 C   0  0  0  0  0  0  0  0  0  0  0  0
   61.9690   30.7211   48.5480 H   0  0  0  0  0  0  0  0  0  0  0  0
   63.3770   31.7924   48.8993 H   0  0  0  0  0  0  0  0  0  0  0  0
   62.8210   30.4800   50.5260 C   0  0  0  0  0  0  0  0  0  0  0  0
   61.9150   29.9417   50.8412 H   0  0  0  0  0  0  0  0  0  0  0  0
   63.6357   29.8199   50.1935 H   0  0  0  0  0  0  0  0  0  0  0  0
   63.3270   31.1880   51.6560 O   0  0  0  0  0  0  0  0  0  0  0  0
   63.2900   32.5970   51.5040 C   0  0  0  0  0  0  0  0  0  0  0  0
   63.4844   33.0641   52.4807 H   0  0  0  0  0  0  0  0  0  0  0  0
   64.0566   32.8779   50.7669 H   0  0  0  0  0  0  0  0  0  0  0  0
   61.9300   33.0880   50.9820 C   0  0  0  0  0  0  0  0  0  0  0  0
   61.1622   32.8699   51.7389 H   0  0  0  0  0  0  0  0  0  0  0  0
   62.0158   34.1680   50.7916 H   0  0  0  0  0  0  0  0  0  0  0  0
   58.9190   33.9560   47.3060 C   0  0  0  0  0  0  0  0  0  0  0  0
   58.8431   34.8584   47.9304 H   0  0  0  0  0  0  0  0  0  0  0  0
   57.8520   33.5870   46.4820 C   0  0  0  0  0  0  0  0  0  0  0  0
   56.9395   34.2009   46.4596 H   0  0  0  0  0  0  0  0  0  0  0  0
   58.5940   28.5480   45.6250 C   0  0  0  0  0  0  0  0  0  0  0  0
   59.2845   28.7280   44.7879 H   0  0  0  0  0  0  0  0  0  0  0  0
   59.1710   28.4670   46.9770 C   0  0  0  0  0  0  0  0  0  0  0  0
   60.0260   27.4150   47.3300 C   0  0  0  0  0  0  0  0  0  0  0  0
   60.2963   26.6541   46.5830 H   0  0  0  0  0  0  0  0  0  0  0  0
   60.5360   27.3290   48.6260 C   0  0  0  0  0  0  0  0  0  0  0  0
   61.2166   26.5062   48.8903 H   0  0  0  0  0  0  0  0  0  0  0  0
   60.1870   28.2870   49.6000 C   0  0  0  0  0  0  0  0  0  0  0  0
   60.7000   28.2280   50.9050 O   0  0  0  0  0  0  0  0  0  0  0  0
   61.3390   27.0890   51.4740 C   0  0  0  0  0  0  0  0  0  0  0  0
   61.3008   27.1571   52.5712 H   0  0  0  0  0  0  0  0  0  0  0  0
   60.8215   26.1758   51.1451 H   0  0  0  0  0  0  0  0  0  0  0  0
   62.3881   27.0546   51.1451 H   0  0  0  0  0  0  0  0  0  0  0  0
   59.3050   29.3310   49.2490 C   0  0  0  0  0  0  0  0  0  0  0  0
   58.8180   30.5730   50.4110 S   0  0  0  0  0  0  0  0  0  0  0  0
   59.9480   30.9020   51.3470 O   0  0  0  0  0  0  0  0  0  0  0  0
   58.4460   31.8100   49.6410 O   0  0  0  0  0  0  0  0  0  0  0  0
   57.4350   30.0070   51.3280 N   0  0  0  0  0  0  0  0  0  0  0  0
   57.8460   29.2340   52.5140 C   0  0  0  0  0  0  0  0  0  0  0  0
   56.9824   28.6565   52.8755 H   0  0  0  0  0  0  0  0  0  0  0  0
   58.6749   28.5762   52.2137 H   0  0  0  0  0  0  0  0  0  0  0  0
   58.3550   30.1380   53.6630 C   0  0  0  0  0  0  0  0  0  0  0  0
   57.9331   29.7682   54.6092 H   0  0  0  0  0  0  0  0  0  0  0  0
   59.4539   30.0907   53.6476 H   0  0  0  0  0  0  0  0  0  0  0  0
   57.9960   31.5010   53.5150 O   0  0  0  0  0  0  0  0  0  0  0  0
   56.6510   31.6040   53.1060 C   0  0  0  0  0  0  0  0  0  0  0  0
   56.0210   30.9959   53.7719 H   0  0  0  0  0  0  0  0  0  0  0  0
   56.3404   32.6581   53.1549 H   0  0  0  0  0  0  0  0  0  0  0  0
   56.4960   31.1010   51.6600 C   0  0  0  0  0  0  0  0  0  0  0  0
   55.4678   30.7346   51.5240 H   0  0  0  0  0  0  0  0  0  0  0  0
   56.7214   31.9444   50.9908 H   0  0  0  0  0  0  0  0  0  0  0  0
   58.8040   29.4100   47.9420 C   0  0  0  0  0  0  0  0  0  0  0  0
   58.1141   30.2233   47.6725 H   0  0  0  0  0  0  0  0  0  0  0  0
  1  2  1  0
  2  3  1  0
  3  4  2  0
  3  5  1  0
  5  6  1  0
  6  7  1  0
  6  8  1  0
  6  9  1  0
  9 10  2  0
 10 11  1  0
 10 12  1  0
 12 13  1  0
 12 14  2  0
 14 15  1  0
 15 16  2  0
 15 17  2  0
 15 18  1  0
 18 19  1  0
 18 20  1  0
 20 21  1  0
 20 22  1  0
 20 23  1  0
 23 24  1  0
 23 25  1  0
 23 26  1  0
 26 27  1  0
 27 28  1  0
 27 29  1  0
 27 30  1  0
 30 31  1  0
 30 32  1  0
 14 33  1  0
 33 34  1  0
 33 35  2  0
 35 36  1  0
  2 37  2  0
 37 38  1  0
 37 39  1  0
 39 40  2  0
 40 41  1  0
 40 42  1  0
 42 43  1  0
 42 44  2  0
 44 45  1  0
 45 46  1  0
 46 47  1  0
 46 48  1  0
 46 49  1  0
 44 50  1  0
 50 51  1  0
 51 52  2  0
 51 53  2  0
 51 54  1  0
 54 55  1  0
 55 56  1  0
 55 57  1  0
 55 58  1  0
 58 59  1  0
 58 60  1  0
 58 61  1  0
 61 62  1  0
 62 63  1  0
 62 64  1  0
 62 65  1  0
 65 66  1  0
 65 67  1  0
 50 68  2  0
 68 69  1  0
 35  9  1  0
 68 39  1  0
 30 18  1  0
 65 54  1  0
M  CHG  2   5  -1  18   1
M  END
>  <UniqueID>  (87) 
84

>  <SMILES>  (87) 
COc1ccc(/C=C\C(=O)[N-]Cc2ccc(S(=O)(=O)[NH+]3CCOCC3)cc2)cc1S(=O)(=O)N1CCOCC1

>  <Energy>  (87) 
99.55615132477509

>  <Genealogy>  (87) 
COc1ccc(C=CC(=O)[N-]Cc2ccc(S(=O)(=O)[NH+]3CCOCC3)cc2)cc1S(=O)(=O)N1CCOCC1 (protonated)
COc1ccc(/C=C\C(=O)[N-]Cc2ccc(S(=O)(=O)[NH+]3CCOCC3)cc2)cc1S(=O)(=O)N1CCOCC1 (cis-trans isomerization)
COc1ccc(/C=C\C(=O)[N-]Cc2ccc(S(=O)(=O)[NH+]3CCOCC3)cc2)cc1S(=O)(=O)N1CCOCC1 (3D coordinates assigned)
COc1ccc(/C=C\C(=O)[N-]Cc2ccc(S(=O)(=O)[NH+]3CCOCC3)cc2)cc1S(=O)(=O)N1CCOCC1 (nonaromatic ring conformer: 99.55615132477509 kcal/mol)

>  <smiles>  (87) 
COc1ccc(C=CC(=O)NCc2ccc(S(=O)(=O)N3CCOCC3)cc2)cc1S(=O)(=O)N1CCOCC1

>  <score_type>  (87) 
oracle

>  <origin>  (87) 
adg

>  <m_score__min__energy>  (87) 
-9.9900000000000002

>  <m_primary>  (87) 
energy

$$$$
87:0
     RDKit          3D

 33 35  0  0  0  0  0  0  0  0999 V2000
   61.8560   29.3580   49.9840 H   0  0  0  0  0  0  0  0  0  0  0  0
   61.0890   29.1150   49.3680 O   0  0  0  0  0  0  0  0  0  0  0  0
   60.4650   30.0720   48.5690 C   0  0  0  0  0  0  0  0  0  0  0  0
   59.1070   29.9650   48.2600 C   0  0  0  0  0  0  0  0  0  0  0  0
   58.5218   29.1209   48.6538 H   0  0  0  0  0  0  0  0  0  0  0  0
   58.4880   30.9220   47.4550 C   0  0  0  0  0  0  0  0  0  0  0  0
   57.4143   30.8351   47.2325 H   0  0  0  0  0  0  0  0  0  0  0  0
   59.2270   32.0000   46.9240 C   0  0  0  0  0  0  0  0  0  0  0  0
   58.6380   32.9640   46.0670 C   0  0  0  0  0  0  0  0  0  0  0  0
   57.2470   32.8490   45.5670 C   0  0  0  0  0  0  0  0  0  0  0  0
   56.5841   33.7195   45.6803 H   0  0  0  0  0  0  0  0  0  0  0  0
   56.7610   31.7790   45.0010 N   0  0  0  0  0  0  0  0  0  0  0  0
   57.4900   30.7120   44.3690 C   0  0  0  0  0  0  0  0  0  0  0  0
   58.1750   30.9740   43.3460 O   0  0  0  0  0  0  0  0  0  0  0  0
   57.4890   29.3290   44.8940 C   0  0  0  0  0  0  0  0  0  0  0  0
   58.7080   28.6480   45.0470 C   0  0  0  0  0  0  0  0  0  0  0  0
   59.6536   29.1623   44.8204 H   0  0  0  0  0  0  0  0  0  0  0  0
   58.7270   27.3220   45.4850 C   0  0  0  0  0  0  0  0  0  0  0  0
   59.6848   26.7911   45.5885 H   0  0  0  0  0  0  0  0  0  0  0  0
   57.5300   26.6690   45.7920 C   0  0  0  0  0  0  0  0  0  0  0  0
   57.5461   25.6216   46.1277 H   0  0  0  0  0  0  0  0  0  0  0  0
   56.3130   27.3450   45.6730 C   0  0  0  0  0  0  0  0  0  0  0  0
   55.1280   26.6930   45.9920 O   0  0  0  0  0  0  0  0  0  0  0  0
   56.2870   28.6760   45.2340 C   0  0  0  0  0  0  0  0  0  0  0  0
   55.0700   29.3440   45.1460 O   0  0  0  0  0  0  0  0  0  0  0  0
   59.4060   34.0690   45.6630 C   0  0  0  0  0  0  0  0  0  0  0  0
   58.8490   35.0610   44.8640 O   0  0  0  0  0  0  0  0  0  0  0  0
   60.7090   34.1680   46.0270 N   0  0  0  0  0  0  0  0  0  0  0  0
   61.3230   33.2350   46.7940 C   0  0  0  0  0  0  0  0  0  0  0  0
   62.5430   33.3810   47.0780 O   0  0  0  0  0  0  0  0  0  0  0  0
   60.5980   32.1250   47.2690 C   0  0  0  0  0  0  0  0  0  0  0  0
   61.2070   31.1490   48.0810 C   0  0  0  0  0  0  0  0  0  0  0  0
   62.2744   31.2358   48.3324 H   0  0  0  0  0  0  0  0  0  0  0  0
  1  2  1  0
  2  3  1  0
  3  4  2  0
  4  5  1  0
  4  6  1  0
  6  7  1  0
  6  8  2  0
  8  9  1  0
  9 10  1  0
 10 11  1  0
 10 12  2  0
 12 13  1  0
 13 14  2  0
 13 15  1  0
 15 16  2  0
 16 17  1  0
 16 18  1  0
 18 19  1  0
 18 20  2  0
 20 21  1  0
 20 22  1  0
 22 23  1  0
 22 24  2  0
 24 25  1  0
  9 26  2  0
 26 27  1  0
 26 28  1  0
 28 29  1  0
 29 30  2  0
 29 31  1  0
 31 32  2  0
 32 33  1  0
 32  3  1  0
 31  8  1  0
 24 15  1  0
M  CHG  4  23  -1  25  -1  27  -1  28  -1
M  END
>  <UniqueID>  (88) 
85

>  <SMILES>  (88) 
O=C(/N=C\c1c([O-])[n-]c(=O)c2cc(O)ccc12)c1cccc([O-])c1[O-]

>  <Energy>  (88) 
57.01493182513112

>  <Genealogy>  (88) 
O=C(N=Cc1c([O-])[n-]c(=O)c2cc(O)ccc12)c1cccc([O-])c1[O-] (protonated)
O=C(/N=C\c1c([O-])[n-]c(=O)c2cc(O)ccc12)c1cccc([O-])c1[O-] (cis-trans isomerization)
O=C(/N=C\c1c([O-])[n-]c(=O)c2cc(O)ccc12)c1cccc([O-])c1[O-] (3D coordinates assigned)
O=C(/N=C\c1c([O-])[n-]c(=O)c2cc(O)ccc12)c1cccc([O-])c1[O-] (optimized conformer: 57.01493182513112 kcal/mol)

>  <smiles>  (88) 
O=C(N=Cc1c(O)[nH]c(=O)c2cc(O)ccc12)c1cccc(O)c1O

>  <score_type>  (88) 
oracle

>  <origin>  (88) 
adg

>  <m_score__min__energy>  (88) 
-16.530000000000001

>  <m_primary>  (88) 
energy

$$$$
88:0
     RDKit          3D

 60 63  0  0  0  0  0  0  0  0999 V2000
   55.1480   27.9780   45.8920 H   0  0  0  0  0  0  0  0  0  0  0  0
   55.8760   28.4580   45.3820 O   0  0  0  0  0  0  0  0  0  0  0  0
   57.2340   28.1800   45.5530 C   0  0  0  0  0  0  0  0  0  0  0  0
   58.2250   29.0510   45.1000 C   0  0  0  0  0  0  0  0  0  0  0  0
   58.0120   30.3640   44.4770 C   0  0  0  0  0  0  0  0  0  0  0  0
   57.6160   30.3768   43.4508 H   0  0  0  0  0  0  0  0  0  0  0  0
   58.2610   31.5530   45.0570 C   0  0  0  0  0  0  0  0  0  0  0  0
   58.3310   32.7340   44.3420 C   0  0  0  0  0  0  0  0  0  0  0  0
   58.1262   32.8630   43.2690 H   0  0  0  0  0  0  0  0  0  0  0  0
   58.7060   33.7180   45.2290 C   0  0  0  0  0  0  0  0  0  0  0  0
   58.8940   35.1590   44.8600 C   0  0  0  0  0  0  0  0  0  0  0  0
   58.9730   35.7645   45.7750 H   0  0  0  0  0  0  0  0  0  0  0  0
   59.8141   35.2687   44.2672 H   0  0  0  0  0  0  0  0  0  0  0  0
   58.0329   35.5010   44.2672 H   0  0  0  0  0  0  0  0  0  0  0  0
   58.8180   33.2140   46.4790 N   0  0  0  0  0  0  0  0  0  0  0  0
   59.2260   33.9860   47.6680 C   0  0  0  0  0  0  0  0  0  0  0  0
   59.2640   35.0545   47.4095 H   0  0  0  0  0  0  0  0  0  0  0  0
   58.4936   33.8140   48.4705 H   0  0  0  0  0  0  0  0  0  0  0  0
   60.5880   33.5430   48.1490 C   0  0  0  0  0  0  0  0  0  0  0  0
   61.6520   33.4070   47.2440 C   0  0  0  0  0  0  0  0  0  0  0  0
   61.4891   33.6066   46.1746 H   0  0  0  0  0  0  0  0  0  0  0  0
   62.9190   33.0190   47.6940 C   0  0  0  0  0  0  0  0  0  0  0  0
   63.7453   32.9174   46.9751 H   0  0  0  0  0  0  0  0  0  0  0  0
   63.1450   32.7580   49.0560 C   0  0  0  0  0  0  0  0  0  0  0  0
   64.4830   32.3450   49.5250 C   0  0  0  0  0  0  0  0  0  0  0  0
   65.4960   33.0360   49.2440 O   0  0  0  0  0  0  0  0  0  0  0  0
   64.6380   31.1890   50.2840 O   0  0  0  0  0  0  0  0  0  0  0  0
   62.0770   32.8950   49.9610 C   0  0  0  0  0  0  0  0  0  0  0  0
   62.2360   32.6862   51.0292 H   0  0  0  0  0  0  0  0  0  0  0  0
   60.8170   33.2940   49.5130 C   0  0  0  0  0  0  0  0  0  0  0  0
   59.9953   33.4147   50.2343 H   0  0  0  0  0  0  0  0  0  0  0  0
   58.5270   31.8860   46.3950 C   0  0  0  0  0  0  0  0  0  0  0  0
   58.4070   31.0750   47.4610 C   0  0  0  0  0  0  0  0  0  0  0  0
   58.6455   31.4502   48.4671 H   0  0  0  0  0  0  0  0  0  0  0  0
   58.0703   30.0364   47.3268 H   0  0  0  0  0  0  0  0  0  0  0  0
   59.7220   28.4510   45.5680 S   0  0  0  0  0  0  0  0  0  0  0  0
   59.0540   27.0790   46.2710 C   0  0  0  0  0  0  0  0  0  0  0  0
   59.7360   26.1690   46.8080 O   0  0  0  0  0  0  0  0  0  0  0  0
   57.7000   27.0630   46.1900 N   0  0  0  0  0  0  0  0  0  0  0  0
   56.8540   26.0320   46.8020 C   0  0  0  0  0  0  0  0  0  0  0  0
   57.4591   25.1366   47.0070 H   0  0  0  0  0  0  0  0  0  0  0  0
   56.4336   26.4167   47.7429 H   0  0  0  0  0  0  0  0  0  0  0  0
   55.7350   25.6750   45.8660 C   0  0  0  0  0  0  0  0  0  0  0  0
   54.6300   26.2690   45.9640 O   0  0  0  0  0  0  0  0  0  0  0  0
   55.8740   24.5840   44.9450 N   0  0  0  0  0  0  0  0  0  0  0  0
   56.9510   24.5870   43.9480 C   0  0  0  0  0  0  0  0  0  0  0  0
   56.7914   25.4227   43.2507 H   0  0  0  0  0  0  0  0  0  0  0  0
   57.9107   24.6968   44.4742 H   0  0  0  0  0  0  0  0  0  0  0  0
   56.9810   23.2730   43.1550 C   0  0  0  0  0  0  0  0  0  0  0  0
   56.1520   23.2652   42.4320 H   0  0  0  0  0  0  0  0  0  0  0  0
   57.9411   23.1945   42.6239 H   0  0  0  0  0  0  0  0  0  0  0  0
   56.8350   22.0820   44.1060 C   0  0  0  0  0  0  0  0  0  0  0  0
   56.8536   21.1542   43.5154 H   0  0  0  0  0  0  0  0  0  0  0  0
   57.6688   22.1209   44.8224 H   0  0  0  0  0  0  0  0  0  0  0  0
   55.5200   22.1300   44.9120 C   0  0  0  0  0  0  0  0  0  0  0  0
   54.8114   21.4183   44.4633 H   0  0  0  0  0  0  0  0  0  0  0  0
   55.7706   21.8733   45.9519 H   0  0  0  0  0  0  0  0  0  0  0  0
   54.8610   23.5210   44.9380 C   0  0  0  0  0  0  0  0  0  0  0  0
   54.2264   23.6349   44.0468 H   0  0  0  0  0  0  0  0  0  0  0  0
   54.2582   23.6058   45.8542 H   0  0  0  0  0  0  0  0  0  0  0  0
  1  2  1  0
  2  3  1  0
  3  4  2  0
  4  5  1  0
  5  6  1  0
  5  7  2  0
  7  8  1  0
  8  9  1  0
  8 10  2  0
 10 11  1  0
 11 12  1  0
 11 13  1  0
 11 14  1  0
 10 15  1  0
 15 16  1  0
 16 17  1  0
 16 18  1  0
 16 19  1  0
 19 20  2  0
 20 21  1  0
 20 22  1  0
 22 23  1  0
 22 24  2  0
 24 25  1  0
 25 26  2  0
 25 27  1  0
 24 28  1  0
 28 29  1  0
 28 30  2  0
 30 31  1  0
 15 32  1  0
 32 33  2  0
 33 34  1  0
 33 35  1  0
  4 36  1  0
 36 37  1  0
 37 38  2  0
 37 39  1  0
 39 40  1  0
 40 41  1  0
 40 42  1  0
 40 43  1  0
 43 44  2  0
 43 45  1  0
 45 46  1  0
 46 47  1  0
 46 48  1  0
 46 49  1  0
 49 50  1  0
 49 51  1  0
 49 52  1  0
 52 53  1  0
 52 54  1  0
 52 55  1  0
 55 56  1  0
 55 57  1  0
 55 58  1  0
 58 59  1  0
 58 60  1  0
 39  3  1  0
 58 45  1  0
 32  7  1  0
 30 19  1  0
M  CHG  1  27  -1
M  END
>  <UniqueID>  (89) 
86

>  <SMILES>  (89) 
C=c1/c(=C\c2sc(=O)n(CC(=O)N3CCCCC3)c2O)cc(C)n1Cc1ccc(C(=O)[O-])cc1

>  <Energy>  (89) 
136.474464076202

>  <Genealogy>  (89) 
C=c1c(=Cc2sc(=O)n(CC(=O)N3CCCCC3)c2O)cc(C)n1Cc1ccc(C(=O)[O-])cc1 (protonated)
C=c1/c(=C\c2sc(=O)n(CC(=O)N3CCCCC3)c2O)cc(C)n1Cc1ccc(C(=O)[O-])cc1 (cis-trans isomerization)
C=c1/c(=C\c2sc(=O)n(CC(=O)N3CCCCC3)c2O)cc(C)n1Cc1ccc(C(=O)[O-])cc1 (3D coordinates assigned)
C=c1/c(=C\c2sc(=O)n(CC(=O)N3CCCCC3)c2O)cc(C)n1Cc1ccc(C(=O)[O-])cc1 (nonaromatic ring conformer: 136.474464076202 kcal/mol)

>  <smiles>  (89) 
C=c1c(=Cc2sc(=O)n(CC(=O)N3CCCCC3)c2O)cc(C)n1Cc1ccc(C(=O)O)cc1

>  <score_type>  (89) 
oracle

>  <origin>  (89) 
adg

>  <m_score__min__energy>  (89) 
-12.07

>  <m_primary>  (89) 
energy

$$$$
89:0
     RDKit          3D

 48 50  0  0  0  0  0  0  0  0999 V2000
   56.1790   21.8260   45.3490 C   0  0  0  0  0  0  0  0  0  0  0  0
   56.3490   23.2980   45.5150 C   0  0  0  0  0  0  0  0  0  0  0  0
   55.3210   24.2240   45.6440 C   0  0  0  0  0  0  0  0  0  0  0  0
   55.7850   25.5270   45.8680 C   0  0  0  0  0  0  0  0  0  0  0  0
   54.9330   26.6180   46.0190 O   0  0  0  0  0  0  0  0  0  0  0  0
   57.1720   25.6260   45.9310 C   0  0  0  0  0  0  0  0  0  0  0  0
   57.9560   26.8490   46.1580 C   0  0  0  0  0  0  0  0  0  0  0  0
   59.1690   26.7590   46.4930 O   0  0  0  0  0  0  0  0  0  0  0  0
   57.3540   28.1030   46.0060 O   0  0  0  0  0  0  0  0  0  0  0  0
   57.4410   28.8710   44.8080 C   0  0  0  0  0  0  0  0  0  0  0  0
   56.3220   29.8730   44.7410 C   0  0  0  0  0  0  0  0  0  0  0  0
   55.1350   29.4750   44.8740 O   0  0  0  0  0  0  0  0  0  0  0  0
   56.5600   31.2640   44.4830 N   0  0  0  0  0  0  0  0  0  0  0  0
   57.5880   32.0760   45.0690 C   0  0  0  0  0  0  0  0  0  0  0  0
   57.5060   33.4670   44.9390 C   0  0  0  0  0  0  0  0  0  0  0  0
   58.4780   34.2880   45.5170 C   0  0  0  0  0  0  0  0  0  0  0  0
   59.5250   33.7240   46.2480 C   0  0  0  0  0  0  0  0  0  0  0  0
   59.5990   32.3350   46.4200 C   0  0  0  0  0  0  0  0  0  0  0  0
   60.9000   31.6240   47.3790 S   0  0  0  0  0  0  0  0  0  0  0  0
   61.0660   30.1790   46.9940 O   0  0  0  0  0  0  0  0  0  0  0  0
   62.1870   32.3380   47.0720 O   0  0  0  0  0  0  0  0  0  0  0  0
   60.5750   31.7350   49.0940 N   0  0  0  0  0  0  0  0  0  0  0  0
   59.1420   31.5160   49.3640 C   0  0  0  0  0  0  0  0  0  0  0  0
   58.7540   32.0940   50.7340 C   0  0  0  0  0  0  0  0  0  0  0  0
   58.9760   33.4940   50.8550 O   0  0  0  0  0  0  0  0  0  0  0  0
   59.9540   34.0010   49.9590 C   0  0  0  0  0  0  0  0  0  0  0  0
   61.0870   33.0000   49.6670 C   0  0  0  0  0  0  0  0  0  0  0  0
   58.6270   31.5140   45.8310 C   0  0  0  0  0  0  0  0  0  0  0  0
   57.8230   24.0880   45.7110 S   0  0  0  0  0  0  0  0  0  0  0  0
   56.1240   21.3493   46.3388 H   0  0  0  0  0  0  0  0  0  0  0  0
   55.2516   21.6244   44.7929 H   0  0  0  0  0  0  0  0  0  0  0  0
   57.0360   21.4183   44.7929 H   0  0  0  0  0  0  0  0  0  0  0  0
   54.2548   23.9616   45.5773 H   0  0  0  0  0  0  0  0  0  0  0  0
   55.1460   27.5110   45.5900 H   0  0  0  0  0  0  0  0  0  0  0  0
   58.4040   29.4023   44.7880 H   0  0  0  0  0  0  0  0  0  0  0  0
   57.3631   28.1933   43.9451 H   0  0  0  0  0  0  0  0  0  0  0  0
   56.6725   33.9162   44.3792 H   0  0  0  0  0  0  0  0  0  0  0  0
   58.4180   35.3797   45.3958 H   0  0  0  0  0  0  0  0  0  0  0  0
   60.2952   34.3725   46.6909 H   0  0  0  0  0  0  0  0  0  0  0  0
   58.5473   32.0104   48.5817 H   0  0  0  0  0  0  0  0  0  0  0  0
   58.9435   30.4341   49.3670 H   0  0  0  0  0  0  0  0  0  0  0  0
   57.6848   31.8975   50.9022 H   0  0  0  0  0  0  0  0  0  0  0  0
   59.3971   31.6040   51.4799 H   0  0  0  0  0  0  0  0  0  0  0  0
   59.4598   34.2560   49.0100 H   0  0  0  0  0  0  0  0  0  0  0  0
   60.4103   34.8804   50.4370 H   0  0  0  0  0  0  0  0  0  0  0  0
   61.7880   33.4556   48.9522 H   0  0  0  0  0  0  0  0  0  0  0  0
   61.5861   32.7646   50.6186 H   0  0  0  0  0  0  0  0  0  0  0  0
   58.6777   30.4235   45.9660 H   0  0  0  0  0  0  0  0  0  0  0  0
  1  2  1  0
  2  3  2  0
  3  4  1  0
  4  5  1  0
  4  6  2  0
  6  7  1  0
  7  8  2  0
  7  9  1  0
  9 10  1  0
 10 11  1  0
 11 12  2  0
 11 13  1  0
 13 14  1  0
 14 15  2  0
 15 16  1  0
 16 17  2  0
 17 18  1  0
 18 19  1  0
 19 20  2  0
 19 21  2  0
 19 22  1  0
 22 23  1  0
 23 24  1  0
 24 25  1  0
 25 26  1  0
 26 27  1  0
 18 28  2  0
  6 29  1  0
 29  2  1  0
 28 14  1  0
 27 22  1  0
  1 30  1  0
  1 31  1  0
  1 32  1  0
  3 33  1  0
  5 34  1  0
 10 35  1  0
 10 36  1  0
 15 37  1  0
 16 38  1  0
 17 39  1  0
 23 40  1  0
 23 41  1  0
 24 42  1  0
 24 43  1  0
 26 44  1  0
 26 45  1  0
 27 46  1  0
 27 47  1  0
 28 48  1  0
M  CHG  1  13  -1
M  END
>  <UniqueID>  (90) 
87

>  <SMILES>  (90) 
Cc1cc(O)c(C(=O)OCC(=O)[N-]c2cccc(S(=O)(=O)N3CCOCC3)c2)s1

>  <Energy>  (90) 
87.08605659035752

>  <Genealogy>  (90) 
Cc1cc(O)c(C(=O)OCC(=O)[N-]c2cccc(S(=O)(=O)N3CCOCC3)c2)s1 (protonated)
Cc1cc(O)c(C(=O)OCC(=O)[N-]c2cccc(S(=O)(=O)N3CCOCC3)c2)s1 (3D coordinates assigned)
Cc1cc(O)c(C(=O)OCC(=O)[N-]c2cccc(S(=O)(=O)N3CCOCC3)c2)s1 (nonaromatic ring conformer: 87.08605659035752 kcal/mol)

>  <smiles>  (90) 
Cc1cc(O)c(C(=O)OCC(=O)Nc2cccc(S(=O)(=O)N3CCOCC3)c2)s1

>  <score_type>  (90) 
oracle

>  <origin>  (90) 
adg

>  <m_score__min__energy>  (90) 
-11.779999999999999

>  <m_primary>  (90) 
energy

$$$$
