0:0
     RDKit          3D

 61 64  0  0  0  0  0  0  0  0999 V2000
   52.4390   30.0840   50.6050 C   0  0  0  0  0  0  0  0  0  0  0  0
   53.1820   30.2800   51.9220 C   0  0  0  0  0  0  0  0  0  0  0  0
   54.4200   31.0240   51.7060 N   0  0  0  0  0  0  0  0  0  0  0  0
   55.7100   30.4790   52.0260 C   0  0  0  0  0  0  0  0  0  0  0  0
   55.8160   29.2680   52.3630 O   0  0  0  0  0  0  0  0  0  0  0  0
   56.9240   31.3150   51.9630 C   0  0  0  0  0  0  0  0  0  0  0  0
   57.4240   32.0970   52.9870 C   0  0  0  0  0  0  0  0  0  0  0  0
   58.5240   32.7480   52.5700 N   0  0  0  0  0  0  0  0  0  0  0  0
   58.7330   32.3990   51.2850 C   0  0  0  0  0  0  0  0  0  0  0  0
   59.8400   32.9410   50.4650 C   0  0  0  0  0  0  0  0  0  0  0  0
   59.8190   32.8900   49.0600 C   0  0  0  0  0  0  0  0  0  0  0  0
   60.8680   33.4510   48.3270 C   0  0  0  0  0  0  0  0  0  0  0  0
   60.8210   33.3900   46.9270 O   0  0  0  0  0  0  0  0  0  0  0  0
   59.6570   33.2280   46.1580 C   0  0  0  0  0  0  0  0  0  0  0  0
   59.1050   31.9540   45.9250 C   0  0  0  0  0  0  0  0  0  0  0  0
   57.9740   31.8080   45.1120 C   0  0  0  0  0  0  0  0  0  0  0  0
   57.3910   30.4750   44.9030 C   0  0  0  0  0  0  0  0  0  0  0  0
   56.1410   30.3750   44.7940 O   0  0  0  0  0  0  0  0  0  0  0  0
   58.1870   29.2800   44.8380 N   0  0  0  0  0  0  0  0  0  0  0  0
   58.5700   28.3670   45.9210 C   0  0  0  0  0  0  0  0  0  0  0  0
   58.5540   29.0880   47.2110 C   0  0  0  0  0  0  0  0  0  0  0  0
   58.5480   29.6540   48.2210 N   0  0  0  0  0  0  0  0  0  0  0  0
   57.6200   27.1470   45.9670 C   0  0  0  0  0  0  0  0  0  0  0  0
   58.2000   26.0130   46.8280 C   0  0  0  0  0  0  0  0  0  0  0  0
   59.4790   25.6260   46.3660 O   0  0  0  0  0  0  0  0  0  0  0  0
   60.3900   26.6940   46.5300 C   0  0  0  0  0  0  0  0  0  0  0  0
   60.0060   27.8780   45.6330 C   0  0  0  0  0  0  0  0  0  0  0  0
   57.3650   32.9400   44.5600 C   0  0  0  0  0  0  0  0  0  0  0  0
   57.9120   34.2070   44.7750 C   0  0  0  0  0  0  0  0  0  0  0  0
   59.0630   34.3590   45.5670 C   0  0  0  0  0  0  0  0  0  0  0  0
   59.6510   35.7240   45.7870 C   0  0  0  0  0  0  0  0  0  0  0  0
   61.9530   34.0220   49.0080 C   0  0  0  0  0  0  0  0  0  0  0  0
   61.9480   34.0490   50.4030 C   0  0  0  0  0  0  0  0  0  0  0  0
   60.9030   33.5200   51.0910 N   0  0  0  0  0  0  0  0  0  0  0  0
   57.7550   31.5050   50.8720 C   0  0  0  0  0  0  0  0  0  0  0  0
   51.3942   29.8084   50.8109 H   0  0  0  0  0  0  0  0  0  0  0  0
   52.4643   31.0195   50.0270 H   0  0  0  0  0  0  0  0  0  0  0  0
   52.9225   29.2827   50.0270 H   0  0  0  0  0  0  0  0  0  0  0  0
   52.5409   30.8391   52.6194 H   0  0  0  0  0  0  0  0  0  0  0  0
   53.4288   29.2933   52.3410 H   0  0  0  0  0  0  0  0  0  0  0  0
   54.3530   31.9600   51.2480 H   0  0  0  0  0  0  0  0  0  0  0  0
   56.9870   32.1752   53.9934 H   0  0  0  0  0  0  0  0  0  0  0  0
   59.0930   33.4110   53.1410 H   0  0  0  0  0  0  0  0  0  0  0  0
   58.9781   32.4092   48.5387 H   0  0  0  0  0  0  0  0  0  0  0  0
   59.5653   31.0670   46.3847 H   0  0  0  0  0  0  0  0  0  0  0  0
   56.6554   27.4610   46.3923 H   0  0  0  0  0  0  0  0  0  0  0  0
   57.4920   26.7706   44.9414 H   0  0  0  0  0  0  0  0  0  0  0  0
   58.2836   26.3590   47.8688 H   0  0  0  0  0  0  0  0  0  0  0  0
   57.5274   25.1451   46.7618 H   0  0  0  0  0  0  0  0  0  0  0  0
   60.3797   27.0191   47.5808 H   0  0  0  0  0  0  0  0  0  0  0  0
   61.3950   26.3477   46.2470 H   0  0  0  0  0  0  0  0  0  0  0  0
   60.7079   28.7054   45.8140 H   0  0  0  0  0  0  0  0  0  0  0  0
   60.0526   27.5454   44.5855 H   0  0  0  0  0  0  0  0  0  0  0  0
   56.4528   32.8319   43.9549 H   0  0  0  0  0  0  0  0  0  0  0  0
   57.4393   35.0909   44.3219 H   0  0  0  0  0  0  0  0  0  0  0  0
   59.7344   35.9176   46.8666 H   0  0  0  0  0  0  0  0  0  0  0  0
   60.6494   35.7715   45.3277 H   0  0  0  0  0  0  0  0  0  0  0  0
   58.9997   36.4822   45.3277 H   0  0  0  0  0  0  0  0  0  0  0  0
   62.8000   34.4446   48.4476 H   0  0  0  0  0  0  0  0  0  0  0  0
   62.7916   34.4994   50.9465 H   0  0  0  0  0  0  0  0  0  0  0  0
   57.6595   31.0413   49.8791 H   0  0  0  0  0  0  0  0  0  0  0  0
  1  2  1  0
  2  3  1  0
  3  4  1  0
  4  5  2  0
  4  6  1  0
  6  7  2  0
  7  8  1  0
  8  9  1  0
  9 10  1  0
 10 11  2  0
 11 12  1  0
 12 13  1  0
 13 14  1  0
 14 15  2  0
 15 16  1  0
 16 17  1  0
 17 18  2  0
 17 19  1  0
 19 20  1  0
 20 21  1  0
 21 22  3  0
 20 23  1  0
 23 24  1  0
 24 25  1  0
 25 26  1  0
 26 27  1  0
 16 28  2  0
 28 29  1  0
 29 30  2  0
 30 31  1  0
 12 32  2  0
 32 33  1  0
 33 34  2  0
  9 35  2  0
 35  6  1  0
 34 10  1  0
 30 14  1  0
 27 20  1  0
  1 36  1  0
  1 37  1  0
  1 38  1  0
  2 39  1  0
  2 40  1  0
  3 41  1  0
  7 42  1  0
  8 43  1  0
 11 44  1  0
 15 45  1  0
 23 46  1  0
 23 47  1  0
 24 48  1  0
 24 49  1  0
 26 50  1  0
 26 51  1  0
 27 52  1  0
 27 53  1  0
 28 54  1  0
 29 55  1  0
 31 56  1  0
 31 57  1  0
 31 58  1  0
 32 59  1  0
 33 60  1  0
 35 61  1  0
M  CHG  1  19  -1
M  END
>  <UniqueID>  (1) 
1

>  <SMILES>  (1) 
CCNC(=O)c1c[nH]c(-c2cc(Oc3cc(C(=O)[N-]C4(C#N)CCOCC4)ccc3C)ccn2)c1

>  <Energy>  (1) 
99.20644517843922

>  <Genealogy>  (1) 
CCNC(=O)c1c[nH]c(-c2cc(Oc3cc(C(=O)[N-]C4(C#N)CCOCC4)ccc3C)ccn2)c1 (protonated)
CCNC(=O)c1c[nH]c(-c2cc(Oc3cc(C(=O)[N-]C4(C#N)CCOCC4)ccc3C)ccn2)c1 (3D coordinates assigned)
CCNC(=O)c1c[nH]c(-c2cc(Oc3cc(C(=O)[N-]C4(C#N)CCOCC4)ccc3C)ccn2)c1 (nonaromatic ring conformer: 99.20644517843922 kcal/mol)

>  <smiles>  (1) 
CCNC(=O)c1c[nH]c(-c2cc(Oc3cc(C(=O)NC4(C#N)CCOCC4)ccc3C)ccn2)c1

>  <score_type>  (1) 
oracle

>  <origin>  (1) 
adg

>  <m_score__min__energy>  (1) 
-11.68

>  <m_primary>  (1) 
energy

$$$$
1:0
     RDKit          3D

 21 21  0  0  0  0  0  0  0  0999 V2000
   55.1720   29.7380   43.9740 C   0  0  0  0  0  0  0  0  0  0  0  0
   55.7730   28.7730   44.8870 N   0  0  0  0  0  0  0  0  0  0  0  0
   57.1940   28.6360   45.0100 C   0  0  0  0  0  0  0  0  0  0  0  0
   57.9650   29.3680   44.3310 O   0  0  0  0  0  0  0  0  0  0  0  0
   57.7820   27.6010   45.9230 C   0  0  0  0  0  0  0  0  0  0  0  0
   56.7360   26.9880   46.7410 N   0  0  0  0  0  0  0  0  0  0  0  0
   56.0370   25.9470   46.3970 C   0  0  0  0  0  0  0  0  0  0  0  0
   54.7480   26.0760   45.9740 N   0  0  0  0  0  0  0  0  0  0  0  0
   54.0160   24.9890   45.6140 C   0  0  0  0  0  0  0  0  0  0  0  0
   54.5850   23.7180   45.6760 C   0  0  0  0  0  0  0  0  0  0  0  0
   55.9040   23.6020   46.1130 C   0  0  0  0  0  0  0  0  0  0  0  0
   56.6020   24.7130   46.4640 N   0  0  0  0  0  0  0  0  0  0  0  0
   54.6776   30.5319   44.5530 H   0  0  0  0  0  0  0  0  0  0  0  0
   55.9549   30.1799   43.3401 H   0  0  0  0  0  0  0  0  0  0  0  0
   54.4301   29.2303   43.3401 H   0  0  0  0  0  0  0  0  0  0  0  0
   55.1450   28.1630   45.4570 H   0  0  0  0  0  0  0  0  0  0  0  0
   58.2730   26.8229   45.3200 H   0  0  0  0  0  0  0  0  0  0  0  0
   58.5147   28.0850   46.5854 H   0  0  0  0  0  0  0  0  0  0  0  0
   52.9769   25.1119   45.2745 H   0  0  0  0  0  0  0  0  0  0  0  0
   54.0072   22.8277   45.3870 H   0  0  0  0  0  0  0  0  0  0  0  0
   56.3788   22.6116   46.1734 H   0  0  0  0  0  0  0  0  0  0  0  0
  1  2  1  0
  2  3  1  0
  3  4  2  0
  3  5  1  0
  5  6  1  0
  6  7  2  3
  7  8  1  0
  8  9  2  0
  9 10  1  0
 10 11  2  0
 11 12  1  0
 12  7  1  0
  1 13  1  0
  1 14  1  0
  1 15  1  0
  2 16  1  0
  5 17  1  0
  5 18  1  0
  9 19  1  0
 10 20  1  0
 11 21  1  0
M  CHG  1  12  -1
M  END
>  <UniqueID>  (2) 
2

>  <SMILES>  (2) 
CNC(=O)CN=c1nccc[n-]1

>  <Energy>  (2) 
15.520683079774594

>  <Genealogy>  (2) 
CNC(=O)CN=c1nccc[n-]1 (protonated)
CNC(=O)CN=c1nccc[n-]1 (3D coordinates assigned)
CNC(=O)CN=c1nccc[n-]1 (optimized conformer: 15.520683079774594 kcal/mol)

>  <smiles>  (2) 
CNC(=O)CN=c1nccc[nH]1

>  <score_type>  (2) 
oracle

>  <origin>  (2) 
adg

>  <m_score__min__energy>  (2) 
-6.4100000000000001

>  <m_primary>  (2) 
energy

$$$$
2:0
     RDKit          3D

 40 42  0  0  0  0  0  0  0  0999 V2000
   58.8940   33.8280   45.3810 O   0  0  0  0  0  0  0  0  0  0  0  0
   58.9530   32.5730   45.4840 C   0  0  0  0  0  0  0  0  0  0  0  0
   59.8970   31.9690   46.3890 N   0  0  0  0  0  0  0  0  0  0  0  0
   60.7320   32.7180   47.2900 C   0  0  0  0  0  0  0  0  0  0  0  0
   62.1240   32.8090   47.0960 C   0  0  0  0  0  0  0  0  0  0  0  0
   62.9090   33.5660   47.9720 C   0  0  0  0  0  0  0  0  0  0  0  0
   62.3130   34.2470   49.0360 C   0  0  0  0  0  0  0  0  0  0  0  0
   60.9300   34.1820   49.2210 C   0  0  0  0  0  0  0  0  0  0  0  0
   60.1410   33.4280   48.3470 C   0  0  0  0  0  0  0  0  0  0  0  0
   58.0450   31.7430   44.6540 C   0  0  0  0  0  0  0  0  0  0  0  0
   57.8860   31.9810   43.2760 C   0  0  0  0  0  0  0  0  0  0  0  0
   57.0290   31.1820   42.5150 C   0  0  0  0  0  0  0  0  0  0  0  0
   56.3050   30.1540   43.1220 C   0  0  0  0  0  0  0  0  0  0  0  0
   56.4160   29.9350   44.5000 C   0  0  0  0  0  0  0  0  0  0  0  0
   55.6960   28.8710   45.1310 N   0  0  0  0  0  0  0  0  0  0  0  0
   56.2740   27.6550   45.6220 C   0  0  0  0  0  0  0  0  0  0  0  0
   55.5040   26.7220   45.9750 O   0  0  0  0  0  0  0  0  0  0  0  0
   57.7650   27.4100   45.6270 C   0  0  1  0  0  0  0  0  0  0  0  0
   58.3840   27.6250   44.2550 C   0  0  0  0  0  0  0  0  0  0  0  0
   59.7700   28.0770   44.5920 C   0  0  0  0  0  0  0  0  0  0  0  0
   59.6100   28.6970   45.9670 C   0  0  0  0  0  0  0  0  0  0  0  0
   58.4140   28.2390   46.5610 O   0  0  0  0  0  0  0  0  0  0  0  0
   57.3020   30.7110   45.2560 C   0  0  0  0  0  0  0  0  0  0  0  0
   60.0330   30.9350   46.3720 H   0  0  0  0  0  0  0  0  0  0  0  0
   62.5955   32.2830   46.2528 H   0  0  0  0  0  0  0  0  0  0  0  0
   63.9972   33.6251   47.8228 H   0  0  0  0  0  0  0  0  0  0  0  0
   62.9332   34.8349   49.7287 H   0  0  0  0  0  0  0  0  0  0  0  0
   60.4611   34.7246   50.0551 H   0  0  0  0  0  0  0  0  0  0  0  0
   59.0508   33.3909   48.4885 H   0  0  0  0  0  0  0  0  0  0  0  0
   58.4397   32.8009   42.7953 H   0  0  0  0  0  0  0  0  0  0  0  0
   56.9244   31.3633   41.4351 H   0  0  0  0  0  0  0  0  0  0  0  0
   55.6460   29.5149   42.5160 H   0  0  0  0  0  0  0  0  0  0  0  0
   57.9048   26.3570   45.9126 H   0  0  0  0  0  0  0  0  0  0  0  0
   58.4007   26.6902   43.6755 H   0  0  0  0  0  0  0  0  0  0  0  0
   57.8290   28.3409   43.6309 H   0  0  0  0  0  0  0  0  0  0  0  0
   60.4658   27.2255   44.6222 H   0  0  0  0  0  0  0  0  0  0  0  0
   60.1874   28.7747   43.8511 H   0  0  0  0  0  0  0  0  0  0  0  0
   60.4642   28.4111   46.5983 H   0  0  0  0  0  0  0  0  0  0  0  0
   59.5715   29.7920   45.8698 H   0  0  0  0  0  0  0  0  0  0  0  0
   57.4186   30.5121   46.3316 H   0  0  0  0  0  0  0  0  0  0  0  0
  1  2  2  0
  2  3  1  0
  3  4  1  0
  4  5  2  0
  5  6  1  0
  6  7  2  0
  7  8  1  0
  8  9  2  0
  2 10  1  0
 10 11  2  0
 11 12  1  0
 12 13  2  0
 13 14  1  0
 14 15  1  0
 15 16  1  0
 16 17  2  0
 16 18  1  0
 18 19  1  0
 19 20  1  0
 20 21  1  0
 21 22  1  0
 14 23  2  0
  9  4  1  0
 23 10  1  0
 22 18  1  0
  3 24  1  0
  5 25  1  0
  6 26  1  0
  7 27  1  0
  8 28  1  0
  9 29  1  0
 11 30  1  0
 12 31  1  0
 13 32  1  0
 18 33  1  1
 19 34  1  0
 19 35  1  0
 20 36  1  0
 20 37  1  0
 21 38  1  0
 21 39  1  0
 23 40  1  0
M  CHG  1  15  -1
M  END
>  <UniqueID>  (3) 
3

>  <SMILES>  (3) 
O=C(Nc1ccccc1)c1cccc([N-]C(=O)[C@H]2CCCO2)c1

>  <Energy>  (3) 
54.52171365624887

>  <Genealogy>  (3) 
O=C(Nc1ccccc1)c1cccc([N-]C(=O)C2CCCO2)c1 (protonated)
O=C(Nc1ccccc1)c1cccc([N-]C(=O)[C@H]2CCCO2)c1 (chirality)
O=C(Nc1ccccc1)c1cccc([N-]C(=O)[C@H]2CCCO2)c1 (3D coordinates assigned)
O=C(Nc1ccccc1)c1cccc([N-]C(=O)[C@H]2CCCO2)c1 (nonaromatic ring conformer: 54.52171365624887 kcal/mol)

>  <smiles>  (3) 
O=C(Nc1ccccc1)c1cccc(NC(=O)C2CCCO2)c1

>  <score_type>  (3) 
oracle

>  <origin>  (3) 
adg

>  <m_score__min__energy>  (3) 
-10

>  <m_primary>  (3) 
energy

$$$$
3:0
     RDKit          3D

 38 39  0  0  0  0  0  0  0  0999 V2000
   59.5016   28.6786   44.2191 H   0  0  0  0  0  0  0  0  0  0  0  0
   58.9430   28.8560   45.1500 C   0  0  0  0  0  0  0  0  0  0  0  0
   58.9230   30.1080   45.6330 C   0  0  0  0  0  0  0  0  0  0  0  0
   60.3670   30.8080   46.4420 S   0  0  0  0  0  0  0  0  0  0  0  0
   59.4040   32.3030   46.7510 C   0  0  0  0  0  0  0  0  0  0  0  0
   59.8740   33.3350   47.3870 N   0  0  0  0  0  0  0  0  0  0  0  0
   61.2400   33.4350   47.8870 C   0  0  0  0  0  0  0  0  0  0  0  0
   61.5541   32.4611   48.2906 H   0  0  0  0  0  0  0  0  0  0  0  0
   61.2830   34.1946   48.6814 H   0  0  0  0  0  0  0  0  0  0  0  0
   62.1710   33.8370   46.7540 C   0  0  0  0  0  0  0  0  0  0  0  0
   63.1050   34.2403   47.1724 H   0  0  0  0  0  0  0  0  0  0  0  0
   62.3968   32.9562   46.1350 H   0  0  0  0  0  0  0  0  0  0  0  0
   61.6847   34.6053   46.1350 H   0  0  0  0  0  0  0  0  0  0  0  0
   58.0750   32.2910   46.2320 N   0  0  0  0  0  0  0  0  0  0  0  0
   57.1810   33.4510   46.2050 C   0  0  0  0  0  0  0  0  0  0  0  0
   56.1382   33.1068   46.2683 H   0  0  0  0  0  0  0  0  0  0  0  0
   57.4156   34.1030   47.0593 H   0  0  0  0  0  0  0  0  0  0  0  0
   57.3730   34.2380   44.9140 C   0  0  0  0  0  0  0  0  0  0  0  0
   57.6274   35.2808   45.1546 H   0  0  0  0  0  0  0  0  0  0  0  0
   58.1876   33.7877   44.3278 H   0  0  0  0  0  0  0  0  0  0  0  0
   56.4425   34.2135   44.3278 H   0  0  0  0  0  0  0  0  0  0  0  0
   57.8160   31.0690   45.5530 C   0  0  0  0  0  0  0  0  0  0  0  0
   56.7610   30.8820   44.8900 O   0  0  0  0  0  0  0  0  0  0  0  0
   58.2720   27.7000   45.7740 C   0  0  0  0  0  0  0  0  0  0  0  0
   58.9930   26.8800   46.6540 C   0  0  0  0  0  0  0  0  0  0  0  0
   60.0577   27.0814   46.8433 H   0  0  0  0  0  0  0  0  0  0  0  0
   58.3630   25.8080   47.2910 C   0  0  0  0  0  0  0  0  0  0  0  0
   58.9378   25.1575   47.9666 H   0  0  0  0  0  0  0  0  0  0  0  0
   57.0050   25.5590   47.0730 C   0  0  0  0  0  0  0  0  0  0  0  0
   56.5166   24.7080   47.5703 H   0  0  0  0  0  0  0  0  0  0  0  0
   56.2600   26.3950   46.2180 C   0  0  0  0  0  0  0  0  0  0  0  0
   54.8920   26.1980   45.9770 O   0  0  0  0  0  0  0  0  0  0  0  0
   54.3110   24.9500   45.6160 C   0  0  0  0  0  0  0  0  0  0  0  0
   54.0503   24.3900   46.5262 H   0  0  0  0  0  0  0  0  0  0  0  0
   53.4026   25.1268   45.0214 H   0  0  0  0  0  0  0  0  0  0  0  0
   55.0311   24.3686   45.0214 H   0  0  0  0  0  0  0  0  0  0  0  0
   56.9000   27.4660   45.5820 C   0  0  0  0  0  0  0  0  0  0  0  0
   56.3218   28.1318   44.9244 H   0  0  0  0  0  0  0  0  0  0  0  0
  1  2  1  0
  2  3  2  3
  3  4  1  0
  4  5  1  0
  5  6  2  0
  6  7  1  0
  7  8  1  0
  7  9  1  0
  7 10  1  0
 10 11  1  0
 10 12  1  0
 10 13  1  0
  5 14  1  0
 14 15  1  0
 15 16  1  0
 15 17  1  0
 15 18  1  0
 18 19  1  0
 18 20  1  0
 18 21  1  0
 14 22  1  0
 22 23  2  0
  2 24  1  0
 24 25  2  0
 25 26  1  0
 25 27  1  0
 27 28  1  0
 27 29  2  0
 29 30  1  0
 29 31  1  0
 31 32  1  0
 32 33  1  0
 33 34  1  0
 33 35  1  0
 33 36  1  0
 31 37  2  0
 37 38  1  0
 22  3  1  0
 37 24  1  0
M  END
>  <UniqueID>  (4) 
4

>  <SMILES>  (4) 
CC/N=C1\SC(=Cc2cccc(OC)c2)C(=O)N1CC

>  <Energy>  (4) 
55.72690711346725

>  <Genealogy>  (4) 
CC/N=C1\SC(=Cc2cccc(OC)c2)C(=O)N1CC (cis-trans isomerization)
CC/N=C1\SC(=Cc2cccc(OC)c2)C(=O)N1CC (3D coordinates assigned)
CC/N=C1\SC(=Cc2cccc(OC)c2)C(=O)N1CC (nonaromatic ring conformer: 55.72690711346725 kcal/mol)

>  <smiles>  (4) 
CCN=C1SC(=Cc2cccc(OC)c2)C(=O)N1CC

>  <score_type>  (4) 
oracle

>  <origin>  (4) 
adg

>  <m_score__min__energy>  (4) 
-7.1299999999999999

>  <m_primary>  (4) 
energy

$$$$
4:0
     RDKit          3D

 28 30  0  0  0  0  0  0  0  0999 V2000
   55.9840   26.7990   45.6930 O   0  0  0  0  0  0  0  0  0  0  0  0
   57.0070   27.5360   45.6510 C   0  0  0  0  0  0  0  0  0  0  0  0
   56.8740   28.9090   45.3920 C   0  0  0  0  0  0  0  0  0  0  0  0
   55.6120   29.4820   45.2170 O   0  0  0  0  0  0  0  0  0  0  0  0
   58.0350   29.7060   45.3390 C   0  0  0  0  0  0  0  0  0  0  0  0
   57.9800   31.1580   45.0530 C   0  0  0  0  0  0  0  0  0  0  0  0
   58.0980   31.6520   43.7400 C   0  0  0  0  0  0  0  0  0  0  0  0
   58.0670   33.0280   43.4980 C   0  0  0  0  0  0  0  0  0  0  0  0
   57.9300   33.9240   44.5610 C   0  0  0  0  0  0  0  0  0  0  0  0
   57.8330   33.4450   45.8700 C   0  0  0  0  0  0  0  0  0  0  0  0
   57.8640   32.0690   46.1160 C   0  0  0  0  0  0  0  0  0  0  0  0
   59.2270   29.1570   45.5690 O   0  0  0  0  0  0  0  0  0  0  0  0
   59.3950   27.8650   45.8260 C   0  0  0  0  0  0  0  0  0  0  0  0
   60.6830   27.3670   46.0510 C   0  0  0  0  0  0  0  0  0  0  0  0
   60.8730   26.0080   46.3190 C   0  0  0  0  0  0  0  0  0  0  0  0
   59.7780   25.1420   46.3630 C   0  0  0  0  0  0  0  0  0  0  0  0
   58.4860   25.6290   46.1420 C   0  0  0  0  0  0  0  0  0  0  0  0
   58.2840   26.9950   45.8720 C   0  0  0  0  0  0  0  0  0  0  0  0
   54.7550   28.9640   45.3680 H   0  0  0  0  0  0  0  0  0  0  0  0
   58.2152   30.9513   42.9002 H   0  0  0  0  0  0  0  0  0  0  0  0
   58.1506   33.4063   42.4685 H   0  0  0  0  0  0  0  0  0  0  0  0
   57.8985   35.0064   44.3675 H   0  0  0  0  0  0  0  0  0  0  0  0
   57.7322   34.1509   46.7075 H   0  0  0  0  0  0  0  0  0  0  0  0
   57.7971   31.6972   47.1491 H   0  0  0  0  0  0  0  0  0  0  0  0
   61.5478   28.0460   46.0170 H   0  0  0  0  0  0  0  0  0  0  0  0
   61.8870   25.6200   46.4956 H   0  0  0  0  0  0  0  0  0  0  0  0
   59.9325   24.0732   46.5722 H   0  0  0  0  0  0  0  0  0  0  0  0
   57.6266   24.9434   46.1793 H   0  0  0  0  0  0  0  0  0  0  0  0
  1  2  2  0
  2  3  1  0
  3  4  1  0
  3  5  2  0
  5  6  1  0
  6  7  2  0
  7  8  1  0
  8  9  2  0
  9 10  1  0
 10 11  2  0
  5 12  1  0
 12 13  1  0
 13 14  2  0
 14 15  1  0
 15 16  2  0
 16 17  1  0
 17 18  2  0
 18  2  1  0
 11  6  1  0
 18 13  1  0
  4 19  1  0
  7 20  1  0
  8 21  1  0
  9 22  1  0
 10 23  1  0
 11 24  1  0
 14 25  1  0
 15 26  1  0
 16 27  1  0
 17 28  1  0
M  END
>  <UniqueID>  (5) 
5

>  <SMILES>  (5) 
O=c1c(O)c(-c2ccccc2)oc2ccccc12

>  <Energy>  (5) 
41.94001630993393

>  <Genealogy>  (5) 
O=c1c(O)c(-c2ccccc2)oc2ccccc12 (3D coordinates assigned)
O=c1c(O)c(-c2ccccc2)oc2ccccc12 (optimized conformer: 41.94001630993393 kcal/mol)

>  <smiles>  (5) 
O=c1c(O)c(-c2ccccc2)oc2ccccc12

>  <score_type>  (5) 
oracle

>  <origin>  (5) 
adg

>  <m_score__min__energy>  (5) 
-7.0300000000000002

>  <m_primary>  (5) 
energy

$$$$
5:0
     RDKit          3D

 44 46  0  0  0  0  0  0  0  0999 V2000
   59.0800   33.5170   46.1020 C   0  0  0  0  0  0  0  0  0  0  0  0
   58.5230   32.4070   45.2490 C   0  0  0  0  0  0  0  0  0  0  0  0
   57.9140   32.7360   44.0260 C   0  0  0  0  0  0  0  0  0  0  0  0
   57.3920   31.7400   43.2030 C   0  0  0  0  0  0  0  0  0  0  0  0
   57.4770   30.4040   43.5810 C   0  0  0  0  0  0  0  0  0  0  0  0
   58.0740   30.0470   44.7970 C   0  0  0  0  0  0  0  0  0  0  0  0
   58.1820   28.6540   45.1300 N   0  0  0  0  0  0  0  0  0  0  0  0
   58.8850   27.7360   44.2260 C   0  0  0  0  0  0  0  0  0  0  0  0
   58.0720   26.4500   44.0460 C   0  0  0  0  0  0  0  0  0  0  0  0
   57.5610   25.9470   45.3340 N   0  0  0  0  0  0  0  0  0  0  0  0
   56.6240   24.8560   45.3440 C   0  0  0  0  0  0  0  0  0  0  0  0
   55.5500   24.9690   45.9950 O   0  0  0  0  0  0  0  0  0  0  0  0
   56.8930   23.6040   44.6030 C   0  0  0  0  0  0  0  0  0  0  0  0
   56.2920   23.3700   43.3580 C   0  0  0  0  0  0  0  0  0  0  0  0
   56.5400   22.1800   42.6720 C   0  0  0  0  0  0  0  0  0  0  0  0
   57.3790   21.2230   43.2450 C   0  0  0  0  0  0  0  0  0  0  0  0
   57.9450   21.4520   44.4620 N   0  0  0  0  0  0  0  0  0  0  0  0
   57.7170   22.6060   45.1460 C   0  0  0  0  0  0  0  0  0  0  0  0
   57.8530   26.6730   46.5770 C   0  0  0  0  0  0  0  0  0  0  0  0
   57.5860   28.1680   46.3810 C   0  0  0  0  0  0  0  0  0  0  0  0
   58.5710   31.0500   45.6640 C   0  0  0  0  0  0  0  0  0  0  0  0
   59.1820   30.6680   46.9920 C   0  0  0  0  0  0  0  0  0  0  0  0
   58.9522   33.2623   47.1645 H   0  0  0  0  0  0  0  0  0  0  0  0
   60.1500   33.6467   45.8822 H   0  0  0  0  0  0  0  0  0  0  0  0
   58.5445   34.4524   45.8822 H   0  0  0  0  0  0  0  0  0  0  0  0
   57.8488   33.7893   43.7155 H   0  0  0  0  0  0  0  0  0  0  0  0
   56.9112   32.0111   42.2515 H   0  0  0  0  0  0  0  0  0  0  0  0
   57.0727   29.6226   42.9207 H   0  0  0  0  0  0  0  0  0  0  0  0
   59.0204   28.2209   43.2480 H   0  0  0  0  0  0  0  0  0  0  0  0
   59.8651   27.4852   44.6579 H   0  0  0  0  0  0  0  0  0  0  0  0
   57.2210   26.6558   43.3801 H   0  0  0  0  0  0  0  0  0  0  0  0
   58.7318   25.6831   43.6142 H   0  0  0  0  0  0  0  0  0  0  0  0
   55.6234   24.1262   42.9208 H   0  0  0  0  0  0  0  0  0  0  0  0
   56.0790   21.9983   41.6899 H   0  0  0  0  0  0  0  0  0  0  0  0
   57.5833   20.2824   42.7126 H   0  0  0  0  0  0  0  0  0  0  0  0
   58.5620   20.7210   44.8820 H   0  0  0  0  0  0  0  0  0  0  0  0
   58.1817   22.7578   46.1314 H   0  0  0  0  0  0  0  0  0  0  0  0
   57.2098   26.2900   47.3830 H   0  0  0  0  0  0  0  0  0  0  0  0
   58.9100   26.5253   46.8435 H   0  0  0  0  0  0  0  0  0  0  0  0
   56.4996   28.3375   46.3505 H   0  0  0  0  0  0  0  0  0  0  0  0
   58.0405   28.7160   47.2195 H   0  0  0  0  0  0  0  0  0  0  0  0
   58.5574   31.0585   47.8089 H   0  0  0  0  0  0  0  0  0  0  0  0
   59.2406   29.5721   47.0670 H   0  0  0  0  0  0  0  0  0  0  0  0
   60.1929   31.0952   47.0670 H   0  0  0  0  0  0  0  0  0  0  0  0
  1  2  1  0
  2  3  2  0
  3  4  1  0
  4  5  2  0
  5  6  1  0
  6  7  1  0
  7  8  1  0
  8  9  1  0
  9 10  1  0
 10 11  1  0
 11 12  2  0
 11 13  1  0
 13 14  2  0
 14 15  1  0
 15 16  2  0
 16 17  1  0
 17 18  2  0
 10 19  1  0
 19 20  1  0
  6 21  2  0
 21 22  1  0
 21  2  1  0
 20  7  1  0
 18 13  1  0
  1 23  1  0
  1 24  1  0
  1 25  1  0
  3 26  1  0
  4 27  1  0
  5 28  1  0
  8 29  1  0
  8 30  1  0
  9 31  1  0
  9 32  1  0
 14 33  1  0
 15 34  1  0
 16 35  1  0
 17 36  1  0
 18 37  1  0
 19 38  1  0
 19 39  1  0
 20 40  1  0
 20 41  1  0
 22 42  1  0
 22 43  1  0
 22 44  1  0
M  CHG  1  17   1
M  END
>  <UniqueID>  (6) 
6

>  <SMILES>  (6) 
Cc1cccc(N2CCN(C(=O)c3ccc[nH+]c3)CC2)c1C

>  <Energy>  (6) 
57.64536761696925

>  <Genealogy>  (6) 
Cc1cccc(N2CCN(C(=O)c3ccc[nH+]c3)CC2)c1C (protonated)
Cc1cccc(N2CCN(C(=O)c3ccc[nH+]c3)CC2)c1C (3D coordinates assigned)
Cc1cccc(N2CCN(C(=O)c3ccc[nH+]c3)CC2)c1C (nonaromatic ring conformer: 57.64536761696925 kcal/mol)

>  <smiles>  (6) 
Cc1cccc(N2CCN(C(=O)c3cccnc3)CC2)c1C

>  <score_type>  (6) 
oracle

>  <origin>  (6) 
adg

>  <m_score__min__energy>  (6) 
-7.0099999999999998

>  <m_primary>  (6) 
energy

$$$$
6:0
     RDKit          3D

 46 48  0  0  0  0  0  0  0  0999 V2000
   57.8500   34.4990   44.7550 O   0  0  0  0  0  0  0  0  0  0  0  0
   57.8340   33.3900   45.3530 C   0  0  0  0  0  0  0  0  0  0  0  0
   57.0930   32.2380   44.7440 C   0  0  0  0  0  0  0  0  0  0  0  0
   57.1310   31.0850   45.5850 O   0  0  0  0  0  0  0  0  0  0  0  0
   58.1170   30.0810   45.5530 C   0  0  0  0  0  0  0  0  0  0  0  0
   59.4900   30.3860   45.6320 C   0  0  0  0  0  0  0  0  0  0  0  0
   60.4480   29.3710   45.5740 C   0  0  0  0  0  0  0  0  0  0  0  0
   60.0520   28.0430   45.4250 C   0  0  0  0  0  0  0  0  0  0  0  0
   58.6960   27.7250   45.3330 C   0  0  0  0  0  0  0  0  0  0  0  0
   57.7190   28.7330   45.4090 C   0  0  0  0  0  0  0  0  0  0  0  0
   56.2930   28.3590   45.2600 C   0  0  0  0  0  0  0  0  0  0  0  0
   55.4980   29.1780   44.7290 O   0  0  0  0  0  0  0  0  0  0  0  0
   55.7750   27.1140   45.7420 N   0  0  0  0  0  0  0  0  0  0  0  0
   56.4720   25.8610   45.8030 C   0  0  0  0  0  0  0  0  0  0  0  0
   56.6570   25.2550   47.0530 C   0  0  0  0  0  0  0  0  0  0  0  0
   57.2600   23.9980   47.1470 C   0  0  0  0  0  0  0  0  0  0  0  0
   57.6750   23.3330   45.9900 C   0  0  0  0  0  0  0  0  0  0  0  0
   57.4960   23.9280   44.7400 C   0  0  0  0  0  0  0  0  0  0  0  0
   56.8880   25.1830   44.6410 C   0  0  0  0  0  0  0  0  0  0  0  0
   58.4800   33.2490   46.6240 N   0  0  0  0  0  0  0  0  0  0  0  0
   59.1250   34.3920   47.2720 C   0  0  0  0  0  0  0  0  0  0  0  0
   60.5810   34.1210   47.5410 C   0  0  0  0  0  0  0  0  0  0  0  0
   61.4610   33.8330   46.4830 C   0  0  0  0  0  0  0  0  0  0  0  0
   62.8210   33.6280   46.7350 C   0  0  0  0  0  0  0  0  0  0  0  0
   63.3110   33.6990   48.0420 C   0  0  0  0  0  0  0  0  0  0  0  0
   62.4420   33.9840   49.1000 C   0  0  0  0  0  0  0  0  0  0  0  0
   61.0830   34.2000   48.8500 C   0  0  0  0  0  0  0  0  0  0  0  0
   56.0444   32.5310   44.5871 H   0  0  0  0  0  0  0  0  0  0  0  0
   57.5769   31.9837   43.7895 H   0  0  0  0  0  0  0  0  0  0  0  0
   59.8106   31.4327   45.7403 H   0  0  0  0  0  0  0  0  0  0  0  0
   61.5170   29.6203   45.6461 H   0  0  0  0  0  0  0  0  0  0  0  0
   60.8082   27.2454   45.3799 H   0  0  0  0  0  0  0  0  0  0  0  0
   58.3893   26.6770   45.1999 H   0  0  0  0  0  0  0  0  0  0  0  0
   56.3255   25.7720   47.9656 H   0  0  0  0  0  0  0  0  0  0  0  0
   57.4081   23.5316   48.1322 H   0  0  0  0  0  0  0  0  0  0  0  0
   58.1429   22.3403   46.0644 H   0  0  0  0  0  0  0  0  0  0  0  0
   57.8339   23.4085   43.8312 H   0  0  0  0  0  0  0  0  0  0  0  0
   56.7342   25.6419   43.6532 H   0  0  0  0  0  0  0  0  0  0  0  0
   58.4680   32.3160   47.0940 H   0  0  0  0  0  0  0  0  0  0  0  0
   59.0398   35.2706   46.6156 H   0  0  0  0  0  0  0  0  0  0  0  0
   58.6231   34.5733   48.2339 H   0  0  0  0  0  0  0  0  0  0  0  0
   61.0784   33.7687   45.4537 H   0  0  0  0  0  0  0  0  0  0  0  0
   63.5067   33.4104   45.9028 H   0  0  0  0  0  0  0  0  0  0  0  0
   64.3801   33.5307   48.2385 H   0  0  0  0  0  0  0  0  0  0  0  0
   62.8274   34.0383   50.1289 H   0  0  0  0  0  0  0  0  0  0  0  0
   60.4038   34.4330   49.6833 H   0  0  0  0  0  0  0  0  0  0  0  0
  1  2  2  0
  2  3  1  0
  3  4  1  0
  4  5  1  0
  5  6  2  0
  6  7  1  0
  7  8  2  0
  8  9  1  0
  9 10  2  0
 10 11  1  0
 11 12  2  0
 11 13  1  0
 13 14  1  0
 14 15  2  0
 15 16  1  0
 16 17  2  0
 17 18  1  0
 18 19  2  0
  2 20  1  0
 20 21  1  0
 21 22  1  0
 22 23  2  0
 23 24  1  0
 24 25  2  0
 25 26  1  0
 26 27  2  0
 10  5  1  0
 19 14  1  0
 27 22  1  0
  3 28  1  0
  3 29  1  0
  6 30  1  0
  7 31  1  0
  8 32  1  0
  9 33  1  0
 15 34  1  0
 16 35  1  0
 17 36  1  0
 18 37  1  0
 19 38  1  0
 20 39  1  0
 21 40  1  0
 21 41  1  0
 23 42  1  0
 24 43  1  0
 25 44  1  0
 26 45  1  0
 27 46  1  0
M  CHG  1  13  -1
M  END
>  <UniqueID>  (7) 
7

>  <SMILES>  (7) 
O=C(COc1ccccc1C(=O)[N-]c1ccccc1)NCc1ccccc1

>  <Energy>  (7) 
50.229105112100044

>  <Genealogy>  (7) 
O=C(COc1ccccc1C(=O)[N-]c1ccccc1)NCc1ccccc1 (protonated)
O=C(COc1ccccc1C(=O)[N-]c1ccccc1)NCc1ccccc1 (3D coordinates assigned)
O=C(COc1ccccc1C(=O)[N-]c1ccccc1)NCc1ccccc1 (optimized conformer: 50.229105112100044 kcal/mol)

>  <smiles>  (7) 
O=C(COc1ccccc1C(=O)Nc1ccccc1)NCc1ccccc1

>  <score_type>  (7) 
oracle

>  <origin>  (7) 
adg

>  <m_score__min__energy>  (7) 
-10.26

>  <m_primary>  (7) 
energy

$$$$
7:0
     RDKit          3D

 48 51  0  0  0  0  0  0  0  0999 V2000
   59.2590   34.4390   44.4920 O   0  0  0  0  0  0  0  0  0  0  0  0
   58.8220   33.3980   45.0510 C   0  0  0  0  0  0  0  0  0  0  0  0
   57.9970   32.4670   44.2620 C   0  0  0  0  0  0  0  0  0  0  0  0
   57.0640   31.5700   44.7460 C   0  0  0  0  0  0  0  0  0  0  0  0
   56.6390   30.8970   43.6170 C   0  0  0  0  0  0  0  0  0  0  0  0
   55.6870   29.7430   43.5770 C   0  0  0  0  0  0  0  0  0  0  0  0
   55.7250   29.0310   44.8170 O   0  0  0  0  0  0  0  0  0  0  0  0
   56.7770   28.2040   45.2450 C   0  0  0  0  0  0  0  0  0  0  0  0
   58.1320   28.5540   45.0810 C   0  0  0  0  0  0  0  0  0  0  0  0
   59.1410   27.6810   45.5000 C   0  0  0  0  0  0  0  0  0  0  0  0
   58.8100   26.4620   46.0940 C   0  0  0  0  0  0  0  0  0  0  0  0
   57.4700   26.1160   46.2770 C   0  0  0  0  0  0  0  0  0  0  0  0
   56.4570   26.9850   45.8590 C   0  0  0  0  0  0  0  0  0  0  0  0
   55.1580   26.6320   46.0320 F   0  0  0  0  0  0  0  0  0  0  0  0
   57.2520   31.3910   42.5660 O   0  0  0  0  0  0  0  0  0  0  0  0
   58.0630   32.3420   42.9240 N   0  0  0  0  0  0  0  0  0  0  0  0
   59.1730   33.1200   46.4210 N   0  0  0  0  0  0  0  0  0  0  0  0
   59.4620   34.2250   47.3410 C   0  0  0  0  0  0  0  0  0  0  0  0
   60.9260   34.1470   47.7820 C   0  0  0  0  0  0  0  0  0  0  0  0
   61.2810   32.7880   48.2340 N   0  0  0  0  0  0  0  0  0  0  0  0
   62.5380   32.5510   48.9080 C   0  0  0  0  0  0  0  0  0  0  0  0
   62.6560   31.5850   49.9300 C   0  0  0  0  0  0  0  0  0  0  0  0
   63.8870   31.3920   50.5600 C   0  0  0  0  0  0  0  0  0  0  0  0
   64.9920   32.1510   50.1760 C   0  0  0  0  0  0  0  0  0  0  0  0
   64.8480   33.1000   49.1610 C   0  0  0  0  0  0  0  0  0  0  0  0
   63.6410   33.2770   48.5600 N   0  0  0  0  0  0  0  0  0  0  0  0
   60.2780   31.7150   48.1630 C   0  0  0  0  0  0  0  0  0  0  0  0
   59.5430   31.7510   46.8160 C   0  0  0  0  0  0  0  0  0  0  0  0
   56.7366   31.4257   45.7862 H   0  0  0  0  0  0  0  0  0  0  0  0
   54.6675   30.1182   43.4041 H   0  0  0  0  0  0  0  0  0  0  0  0
   55.9790   29.0635   42.7627 H   0  0  0  0  0  0  0  0  0  0  0  0
   58.3972   29.5177   44.6216 H   0  0  0  0  0  0  0  0  0  0  0  0
   60.1971   27.9554   45.3612 H   0  0  0  0  0  0  0  0  0  0  0  0
   59.6049   25.7741   46.4179 H   0  0  0  0  0  0  0  0  0  0  0  0
   57.2103   25.1579   46.7509 H   0  0  0  0  0  0  0  0  0  0  0  0
   58.6810   32.8760   42.2720 H   0  0  0  0  0  0  0  0  0  0  0  0
   59.2822   35.1834   46.8320 H   0  0  0  0  0  0  0  0  0  0  0  0
   58.8075   34.1515   48.2220 H   0  0  0  0  0  0  0  0  0  0  0  0
   61.5703   34.4217   46.9338 H   0  0  0  0  0  0  0  0  0  0  0  0
   61.0712   34.8404   48.6235 H   0  0  0  0  0  0  0  0  0  0  0  0
   61.7824   30.9870   50.2288 H   0  0  0  0  0  0  0  0  0  0  0  0
   63.9851   30.6419   51.3586 H   0  0  0  0  0  0  0  0  0  0  0  0
   65.9656   32.0042   50.6665 H   0  0  0  0  0  0  0  0  0  0  0  0
   65.7118   33.7047   48.8476 H   0  0  0  0  0  0  0  0  0  0  0  0
   60.7802   30.7427   48.2750 H   0  0  0  0  0  0  0  0  0  0  0  0
   59.5455   31.8602   48.9707 H   0  0  0  0  0  0  0  0  0  0  0  0
   60.1990   31.3243   46.0430 H   0  0  0  0  0  0  0  0  0  0  0  0
   58.6163   31.1677   46.9212 H   0  0  0  0  0  0  0  0  0  0  0  0
  1  2  2  0
  2  3  1  0
  3  4  1  0
  4  5  2  0
  5  6  1  0
  6  7  1  0
  7  8  1  0
  8  9  2  0
  9 10  1  0
 10 11  2  0
 11 12  1  0
 12 13  2  0
 13 14  1  0
  5 15  1  0
 15 16  1  0
  2 17  1  0
 17 18  1  0
 18 19  1  0
 19 20  1  0
 20 21  1  0
 21 22  2  0
 22 23  1  0
 23 24  2  0
 24 25  1  0
 25 26  2  0
 20 27  1  0
 27 28  1  0
 16  3  2  0
 28 17  1  0
 13  8  1  0
 26 21  1  0
  4 29  1  0
  6 30  1  0
  6 31  1  0
  9 32  1  0
 10 33  1  0
 11 34  1  0
 12 35  1  0
 16 36  1  0
 18 37  1  0
 18 38  1  0
 19 39  1  0
 19 40  1  0
 22 41  1  0
 23 42  1  0
 24 43  1  0
 25 44  1  0
 27 45  1  0
 27 46  1  0
 28 47  1  0
 28 48  1  0
M  CHG  1  16   1
M  END
>  <UniqueID>  (8) 
8

>  <SMILES>  (8) 
O=C(c1cc(COc2ccccc2F)o[nH+]1)N1CCN(c2ccccn2)CC1

>  <Energy>  (8) 
88.59962341066756

>  <Genealogy>  (8) 
O=C(c1cc(COc2ccccc2F)o[nH+]1)N1CCN(c2ccccn2)CC1 (protonated)
O=C(c1cc(COc2ccccc2F)o[nH+]1)N1CCN(c2ccccn2)CC1 (3D coordinates assigned)
O=C(c1cc(COc2ccccc2F)o[nH+]1)N1CCN(c2ccccn2)CC1 (nonaromatic ring conformer: 88.59962341066756 kcal/mol)

>  <smiles>  (8) 
O=C(c1cc(COc2ccccc2F)on1)N1CCN(c2ccccn2)CC1

>  <score_type>  (8) 
oracle

>  <origin>  (8) 
adg

>  <m_score__min__energy>  (8) 
-7.0800000000000001

>  <m_primary>  (8) 
energy

$$$$
8:0
     RDKit          3D

 50 52  0  0  0  0  0  0  0  0999 V2000
   59.1030   34.0610   44.9150 C   0  0  0  0  0  0  0  0  0  0  0  0
   57.7580   33.4220   45.0760 C   0  0  0  0  0  0  0  0  0  0  0  0
   56.7550   34.1700   45.2340 O   0  0  0  0  0  0  0  0  0  0  0  0
   57.5800   31.9450   45.0440 C   0  0  0  0  0  0  0  0  0  0  0  0
   57.9050   31.1450   46.1550 C   0  0  0  0  0  0  0  0  0  0  0  0
   57.7340   29.7580   46.1080 C   0  0  0  0  0  0  0  0  0  0  0  0
   57.2450   29.1430   44.9440 C   0  0  0  0  0  0  0  0  0  0  0  0
   57.0280   27.7260   44.8800 N   0  0  0  0  0  0  0  0  0  0  0  0
   56.5230   26.9080   45.9430 C   0  0  0  0  0  0  0  0  0  0  0  0
   55.2840   26.7050   46.0200 O   0  0  0  0  0  0  0  0  0  0  0  0
   57.4410   26.2340   46.9250 C   0  0  0  0  0  0  0  0  0  0  0  0
   59.1030   25.9990   46.2010 S   0  0  0  0  0  0  0  0  0  0  0  0
   59.7970   27.4670   46.9720 C   0  0  0  0  0  0  0  0  0  0  0  0
   59.7740   27.6860   48.3010 N   0  0  0  0  0  0  0  0  0  0  0  0
   60.3450   28.8640   48.5080 N   0  0  0  0  0  0  0  0  0  0  0  0
   60.7200   29.3400   47.3040 C   0  0  0  0  0  0  0  0  0  0  0  0
   61.3100   30.7030   47.1060 C   0  0  0  0  0  0  0  0  0  0  0  0
   60.7310   31.6520   48.1090 C   0  0  0  0  0  0  0  0  0  0  0  0
   60.4140   32.8170   47.7460 O   0  0  0  0  0  0  0  0  0  0  0  0
   60.5320   31.2330   49.4690 N   0  0  0  0  0  0  0  0  0  0  0  0
   59.6060   31.8520   50.3780 C   0  0  0  0  0  0  0  0  0  0  0  0
   58.3850   31.2180   50.6510 C   0  0  0  0  0  0  0  0  0  0  0  0
   57.4490   31.8230   51.4960 C   0  0  0  0  0  0  0  0  0  0  0  0
   57.7150   33.0740   52.0550 C   0  0  0  0  0  0  0  0  0  0  0  0
   58.9210   33.7220   51.7760 C   0  0  0  0  0  0  0  0  0  0  0  0
   59.8620   33.1190   50.9370 C   0  0  0  0  0  0  0  0  0  0  0  0
   60.3850   28.4860   46.3130 N   0  0  0  0  0  0  0  0  0  0  0  0
   60.5360   28.6690   44.8700 C   0  0  0  0  0  0  0  0  0  0  0  0
   56.9000   29.9340   43.8450 C   0  0  0  0  0  0  0  0  0  0  0  0
   57.0730   31.3200   43.8890 C   0  0  0  0  0  0  0  0  0  0  0  0
   59.5330   34.2653   45.9067 H   0  0  0  0  0  0  0  0  0  0  0  0
   59.7673   33.3823   44.3600 H   0  0  0  0  0  0  0  0  0  0  0  0
   58.9965   35.0048   44.3600 H   0  0  0  0  0  0  0  0  0  0  0  0
   58.2972   31.6151   47.0689 H   0  0  0  0  0  0  0  0  0  0  0  0
   57.9837   29.1456   46.9870 H   0  0  0  0  0  0  0  0  0  0  0  0
   57.5252   26.8578   47.8271 H   0  0  0  0  0  0  0  0  0  0  0  0
   57.0239   25.2485   47.1795 H   0  0  0  0  0  0  0  0  0  0  0  0
   62.4009   30.6522   47.2375 H   0  0  0  0  0  0  0  0  0  0  0  0
   61.0773   31.0577   46.0911 H   0  0  0  0  0  0  0  0  0  0  0  0
   61.1060   30.4340   49.8210 H   0  0  0  0  0  0  0  0  0  0  0  0
   58.1625   30.2404   50.1984 H   0  0  0  0  0  0  0  0  0  0  0  0
   56.5012   31.3118   51.7205 H   0  0  0  0  0  0  0  0  0  0  0  0
   56.9750   33.5498   52.7153 H   0  0  0  0  0  0  0  0  0  0  0  0
   59.1300   34.7077   52.2172 H   0  0  0  0  0  0  0  0  0  0  0  0
   60.8065   33.6361   50.7123 H   0  0  0  0  0  0  0  0  0  0  0  0
   61.2252   29.5042   44.6765 H   0  0  0  0  0  0  0  0  0  0  0  0
   60.9410   27.7486   44.4241 H   0  0  0  0  0  0  0  0  0  0  0  0
   59.5554   28.8918   44.4241 H   0  0  0  0  0  0  0  0  0  0  0  0
   56.4897   29.4628   42.9397 H   0  0  0  0  0  0  0  0  0  0  0  0
   56.8102   31.9292   43.0116 H   0  0  0  0  0  0  0  0  0  0  0  0
  1  2  1  0
  2  3  2  0
  2  4  1  0
  4  5  2  0
  5  6  1  0
  6  7  2  0
  7  8  1  0
  8  9  1  0
  9 10  2  0
  9 11  1  0
 11 12  1  0
 12 13  1  0
 13 14  2  0
 14 15  1  0
 15 16  2  0
 16 17  1  0
 17 18  1  0
 18 19  2  0
 18 20  1  0
 20 21  1  0
 21 22  2  0
 22 23  1  0
 23 24  2  0
 24 25  1  0
 25 26  2  0
 16 27  1  0
 27 28  1  0
  7 29  1  0
 29 30  2  0
 30  4  1  0
 27 13  1  0
 26 21  1  0
  1 31  1  0
  1 32  1  0
  1 33  1  0
  5 34  1  0
  6 35  1  0
 11 36  1  0
 11 37  1  0
 17 38  1  0
 17 39  1  0
 20 40  1  0
 22 41  1  0
 23 42  1  0
 24 43  1  0
 25 44  1  0
 26 45  1  0
 28 46  1  0
 28 47  1  0
 28 48  1  0
 29 49  1  0
 30 50  1  0
M  CHG  1   8  -1
M  END
>  <UniqueID>  (9) 
9

>  <SMILES>  (9) 
CC(=O)c1ccc([N-]C(=O)CSc2nnc(CC(=O)Nc3ccccc3)n2C)cc1

>  <Energy>  (9) 
88.35655094086712

>  <Genealogy>  (9) 
CC(=O)c1ccc([N-]C(=O)CSc2nnc(CC(=O)Nc3ccccc3)n2C)cc1 (protonated)
CC(=O)c1ccc([N-]C(=O)CSc2nnc(CC(=O)Nc3ccccc3)n2C)cc1 (3D coordinates assigned)
CC(=O)c1ccc([N-]C(=O)CSc2nnc(CC(=O)Nc3ccccc3)n2C)cc1 (optimized conformer: 88.35655094086712 kcal/mol)

>  <smiles>  (9) 
CC(=O)c1ccc(NC(=O)CSc2nnc(CC(=O)Nc3ccccc3)n2C)cc1

>  <score_type>  (9) 
oracle

>  <origin>  (9) 
adg

>  <m_score__min__energy>  (9) 
-9.9700000000000006

>  <m_primary>  (9) 
energy

$$$$
9:0
     RDKit          3D

 28 29  0  0  0  0  0  0  0  0999 V2000
   58.3540   28.1100   46.6770 C   0  0  0  0  0  0  0  0  0  0  0  0
   58.1540   27.3720   45.3830 C   0  0  0  0  0  0  0  0  0  0  0  0
   57.9190   25.9860   45.4080 C   0  0  0  0  0  0  0  0  0  0  0  0
   57.7310   25.2770   44.2210 C   0  0  0  0  0  0  0  0  0  0  0  0
   57.7650   25.9420   42.9960 C   0  0  0  0  0  0  0  0  0  0  0  0
   57.9860   27.3200   42.9530 C   0  0  0  0  0  0  0  0  0  0  0  0
   58.1900   28.0490   44.1390 C   0  0  0  0  0  0  0  0  0  0  0  0
   58.3800   29.4750   44.0850 N   0  0  0  0  0  0  0  0  0  0  0  0
   57.4400   30.4140   44.6350 C   0  0  0  0  0  0  0  0  0  0  0  0
   56.2530   30.0490   44.8610 O   0  0  0  0  0  0  0  0  0  0  0  0
   57.8320   31.8200   44.8980 C   0  0  0  0  0  0  0  0  0  0  0  0
   57.8870   32.3090   46.2150 C   0  0  0  0  0  0  0  0  0  0  0  0
   58.2620   33.6320   46.4590 C   0  0  0  0  0  0  0  0  0  0  0  0
   58.5880   34.4590   45.3850 C   0  0  0  0  0  0  0  0  0  0  0  0
   58.5440   33.9740   44.1160 N   0  0  0  0  0  0  0  0  0  0  0  0
   58.1800   32.6910   43.8500 C   0  0  0  0  0  0  0  0  0  0  0  0
   58.1692   27.4283   47.5203 H   0  0  0  0  0  0  0  0  0  0  0  0
   59.3864   28.4860   46.7289 H   0  0  0  0  0  0  0  0  0  0  0  0
   57.6527   28.9559   46.7289 H   0  0  0  0  0  0  0  0  0  0  0  0
   57.8831   25.4562   46.3713 H   0  0  0  0  0  0  0  0  0  0  0  0
   57.5557   24.1915   44.2518 H   0  0  0  0  0  0  0  0  0  0  0  0
   57.6175   25.3801   42.0619 H   0  0  0  0  0  0  0  0  0  0  0  0
   58.0007   27.8400   41.9838 H   0  0  0  0  0  0  0  0  0  0  0  0
   59.1910   29.8500   43.5450 H   0  0  0  0  0  0  0  0  0  0  0  0
   57.6337   31.6471   47.0563 H   0  0  0  0  0  0  0  0  0  0  0  0
   58.2998   34.0177   47.4885 H   0  0  0  0  0  0  0  0  0  0  0  0
   58.8808   35.5040   45.5646 H   0  0  0  0  0  0  0  0  0  0  0  0
   58.1576   32.3327   42.8102 H   0  0  0  0  0  0  0  0  0  0  0  0
  1  2  1  0
  2  3  2  0
  3  4  1  0
  4  5  2  0
  5  6  1  0
  6  7  2  0
  7  8  1  0
  8  9  1  0
  9 10  2  0
  9 11  1  0
 11 12  2  0
 12 13  1  0
 13 14  2  0
 14 15  1  0
 15 16  2  0
  7  2  1  0
 16 11  1  0
  1 17  1  0
  1 18  1  0
  1 19  1  0
  3 20  1  0
  4 21  1  0
  5 22  1  0
  6 23  1  0
  8 24  1  0
 12 25  1  0
 13 26  1  0
 14 27  1  0
 16 28  1  0
M  END
>  <UniqueID>  (10) 
10

>  <SMILES>  (10) 
Cc1ccccc1NC(=O)c1cccnc1

>  <Energy>  (10) 
35.74171935442542

>  <Genealogy>  (10) 
Cc1ccccc1NC(=O)c1cccnc1 (3D coordinates assigned)
Cc1ccccc1NC(=O)c1cccnc1 (optimized conformer: 35.74171935442542 kcal/mol)

>  <smiles>  (10) 
Cc1ccccc1NC(=O)c1cccnc1

>  <score_type>  (10) 
oracle

>  <origin>  (10) 
adg

>  <m_score__min__energy>  (10) 
-6.1399999999999997

>  <m_primary>  (10) 
energy

$$$$
10:0
     RDKit          3D

 56 59  0  0  0  0  0  0  0  0999 V2000
   59.0555   25.6675   47.9028 H   0  0  0  0  0  0  0  0  0  0  0  0
   58.1220   25.8800   47.3610 C   0  0  0  0  0  0  0  0  0  0  0  0
   56.8670   24.7910   47.0960 S   0  0  0  0  0  0  0  0  0  0  0  0
   55.9310   25.9170   46.2630 C   0  0  0  0  0  0  0  0  0  0  0  0
   54.7700   25.6990   45.7190 N   0  0  0  0  0  0  0  0  0  0  0  0
   54.2820   24.4250   45.2750 C   0  0  0  0  0  0  0  0  0  0  0  0
   53.0730   24.1370   45.4840 O   0  0  0  0  0  0  0  0  0  0  0  0
   55.1720   23.4190   44.6460 C   0  0  0  0  0  0  0  0  0  0  0  0
   55.7600   23.6640   43.3910 C   0  0  0  0  0  0  0  0  0  0  0  0
   55.5532   24.6076   42.8649 H   0  0  0  0  0  0  0  0  0  0  0  0
   56.6060   22.7140   42.8090 C   0  0  0  0  0  0  0  0  0  0  0  0
   57.0563   22.9096   41.8246 H   0  0  0  0  0  0  0  0  0  0  0  0
   56.8800   21.5170   43.4760 C   0  0  0  0  0  0  0  0  0  0  0  0
   57.5416   20.7690   43.0148 H   0  0  0  0  0  0  0  0  0  0  0  0
   56.3130   21.2710   44.7290 C   0  0  0  0  0  0  0  0  0  0  0  0
   56.5335   20.3311   45.2563 H   0  0  0  0  0  0  0  0  0  0  0  0
   55.4660   22.2170   45.3140 C   0  0  0  0  0  0  0  0  0  0  0  0
   55.0268   22.0198   46.3030 H   0  0  0  0  0  0  0  0  0  0  0  0
   56.5560   27.1080   46.1640 N   0  0  0  0  0  0  0  0  0  0  0  0
   57.7750   27.1030   46.7740 C   0  0  0  0  0  0  0  0  0  0  0  0
   58.6310   28.3190   46.7990 C   0  0  0  0  0  0  0  0  0  0  0  0
   58.6600   29.2230   45.7180 C   0  0  0  0  0  0  0  0  0  0  0  0
   58.0399   29.0312   44.8299 H   0  0  0  0  0  0  0  0  0  0  0  0
   59.4700   30.3610   45.7650 C   0  0  0  0  0  0  0  0  0  0  0  0
   59.4893   31.0520   44.9094 H   0  0  0  0  0  0  0  0  0  0  0  0
   60.2590   30.6300   46.8940 C   0  0  0  0  0  0  0  0  0  0  0  0
   61.1160   31.7880   46.9300 N   0  0  0  0  0  0  0  0  0  0  0  0
   61.9810   31.6070   46.3680 H   0  0  0  0  0  0  0  0  0  0  0  0
   60.6120   32.5970   46.5000 H   0  0  0  0  0  0  0  0  0  0  0  0
   61.4790   32.1010   48.3210 C   0  0  0  0  0  0  0  0  0  0  0  0
   60.7597   31.6116   48.9941 H   0  0  0  0  0  0  0  0  0  0  0  0
   62.5014   31.7344   48.4951 H   0  0  0  0  0  0  0  0  0  0  0  0
   61.4650   33.6160   48.5960 C   0  0  0  0  0  0  0  0  0  0  0  0
   61.7918   33.7827   49.6330 H   0  0  0  0  0  0  0  0  0  0  0  0
   62.1389   34.0799   47.8607 H   0  0  0  0  0  0  0  0  0  0  0  0
   60.0850   34.2710   48.4120 C   0  0  0  0  0  0  0  0  0  0  0  0
   59.4347   33.9738   49.2479 H   0  0  0  0  0  0  0  0  0  0  0  0
   60.2227   35.3621   48.3895 H   0  0  0  0  0  0  0  0  0  0  0  0
   59.4510   33.8590   47.1410 N   0  0  0  0  0  0  0  0  0  0  0  0
   58.0370   33.4870   47.3340 C   0  0  0  0  0  0  0  0  0  0  0  0
   57.9735   32.6610   48.0577 H   0  0  0  0  0  0  0  0  0  0  0  0
   57.4834   34.3590   47.7123 H   0  0  0  0  0  0  0  0  0  0  0  0
   57.4190   33.0390   45.9920 C   0  0  0  0  0  0  0  0  0  0  0  0
   57.1919   31.9642   46.0488 H   0  0  0  0  0  0  0  0  0  0  0  0
   56.5092   33.6346   45.8259 H   0  0  0  0  0  0  0  0  0  0  0  0
   58.2880   33.2630   44.8970 O   0  0  0  0  0  0  0  0  0  0  0  0
   58.7060   34.6130   44.8900 C   0  0  0  0  0  0  0  0  0  0  0  0
   59.3074   34.7985   43.9878 H   0  0  0  0  0  0  0  0  0  0  0  0
   57.8135   35.2559   44.8977 H   0  0  0  0  0  0  0  0  0  0  0  0
   59.5540   34.9360   46.1360 C   0  0  0  0  0  0  0  0  0  0  0  0
   60.6062   35.0481   45.8356 H   0  0  0  0  0  0  0  0  0  0  0  0
   59.1789   35.8686   46.5826 H   0  0  0  0  0  0  0  0  0  0  0  0
   60.2390   29.7280   47.9700 C   0  0  0  0  0  0  0  0  0  0  0  0
   60.8644   29.9191   48.8545 H   0  0  0  0  0  0  0  0  0  0  0  0
   59.4300   28.5890   47.9250 C   0  0  0  0  0  0  0  0  0  0  0  0
   59.4180   27.8962   48.7793 H   0  0  0  0  0  0  0  0  0  0  0  0
  1  2  1  0
  2  3  1  0
  3  4  1  0
  4  5  2  0
  5  6  1  0
  6  7  2  0
  6  8  1  0
  8  9  2  0
  9 10  1  0
  9 11  1  0
 11 12  1  0
 11 13  2  0
 13 14  1  0
 13 15  1  0
 15 16  1  0
 15 17  2  0
 17 18  1  0
  4 19  1  0
 19 20  1  0
 20 21  1  0
 21 22  2  0
 22 23  1  0
 22 24  1  0
 24 25  1  0
 24 26  2  0
 26 27  1  0
 27 28  1  0
 27 29  1  0
 27 30  1  0
 30 31  1  0
 30 32  1  0
 30 33  1  0
 33 34  1  0
 33 35  1  0
 33 36  1  0
 36 37  1  0
 36 38  1  0
 36 39  1  0
 39 40  1  0
 40 41  1  0
 40 42  1  0
 40 43  1  0
 43 44  1  0
 43 45  1  0
 43 46  1  0
 46 47  1  0
 47 48  1  0
 47 49  1  0
 47 50  1  0
 50 51  1  0
 50 52  1  0
 26 53  1  0
 53 54  1  0
 53 55  2  0
 55 56  1  0
 20  2  2  0
 55 21  1  0
 17  8  1  0
 50 39  1  0
M  CHG  2  19  -1  27   1
M  END
>  <UniqueID>  (11) 
11

>  <SMILES>  (11) 
O=C(/N=c1/[n-]c(-c2ccc([NH2+]CCCN3CCOCC3)cc2)cs1)c1ccccc1

>  <Energy>  (11) 
107.35176933221594

>  <Genealogy>  (11) 
O=C(N=c1[n-]c(-c2ccc([NH2+]CCCN3CCOCC3)cc2)cs1)c1ccccc1 (protonated)
O=C(/N=c1/[n-]c(-c2ccc([NH2+]CCCN3CCOCC3)cc2)cs1)c1ccccc1 (cis-trans isomerization)
O=C(/N=c1/[n-]c(-c2ccc([NH2+]CCCN3CCOCC3)cc2)cs1)c1ccccc1 (3D coordinates assigned)
O=C(/N=c1/[n-]c(-c2ccc([NH2+]CCCN3CCOCC3)cc2)cs1)c1ccccc1 (nonaromatic ring conformer: 107.35176933221594 kcal/mol)

>  <smiles>  (11) 
O=C(N=c1[nH]c(-c2ccc(NCCCN3CCOCC3)cc2)cs1)c1ccccc1

>  <score_type>  (11) 
oracle

>  <origin>  (11) 
adg

>  <m_score__min__energy>  (11) 
-9.8499999999999996

>  <m_primary>  (11) 
energy

$$$$
11:0
     RDKit          3D

 43 44  0  0  0  0  0  0  0  0999 V2000
   58.5130   32.0270   49.5960 C   0  0  0  0  0  0  0  0  0  0  0  0
   58.9050   32.9060   48.5460 O   0  0  0  0  0  0  0  0  0  0  0  0
   60.2040   32.9900   48.0180 C   0  0  0  0  0  0  0  0  0  0  0  0
   61.2560   32.2010   48.5250 C   0  0  0  0  0  0  0  0  0  0  0  0
   62.5290   32.2710   47.9590 C   0  0  0  0  0  0  0  0  0  0  0  0
   62.7630   33.1010   46.8660 C   0  0  0  0  0  0  0  0  0  0  0  0
   61.7320   33.8880   46.3520 C   0  0  0  0  0  0  0  0  0  0  0  0
   60.4600   33.8870   46.9520 C   0  0  0  0  0  0  0  0  0  0  0  0
   59.3610   34.7750   46.3930 C   0  0  0  0  0  0  0  0  0  0  0  0
   58.3880   34.0720   45.5250 N   0  0  0  0  0  0  0  0  0  0  0  0
   57.0410   33.8880   46.0830 C   0  0  0  0  0  0  0  0  0  0  0  0
   58.8920   32.9760   44.6670 C   0  0  0  0  0  0  0  0  0  0  0  0
   58.1140   31.6820   44.7860 C   0  0  0  0  0  0  0  0  0  0  0  0
   58.4300   30.7630   45.8020 C   0  0  0  0  0  0  0  0  0  0  0  0
   57.6950   29.5830   45.9450 C   0  0  0  0  0  0  0  0  0  0  0  0
   56.6440   29.2950   45.0700 C   0  0  0  0  0  0  0  0  0  0  0  0
   55.9020   28.0820   45.2490 N   0  0  0  0  0  0  0  0  0  0  0  0
   56.4060   26.8510   45.7860 C   0  0  0  0  0  0  0  0  0  0  0  0
   57.8450   26.4540   45.6490 C   0  0  0  0  0  0  0  0  0  0  0  0
   55.6080   26.0660   46.3630 O   0  0  0  0  0  0  0  0  0  0  0  0
   56.3940   30.1570   43.9900 C   0  0  0  0  0  0  0  0  0  0  0  0
   57.1330   31.3340   43.8420 C   0  0  0  0  0  0  0  0  0  0  0  0
   58.7235   32.4990   50.5671 H   0  0  0  0  0  0  0  0  0  0  0  0
   57.4361   31.8174   49.5159 H   0  0  0  0  0  0  0  0  0  0  0  0
   59.0767   31.0858   49.5159 H   0  0  0  0  0  0  0  0  0  0  0  0
   61.0719   31.5251   49.3731 H   0  0  0  0  0  0  0  0  0  0  0  0
   63.3495   31.6693   48.3770 H   0  0  0  0  0  0  0  0  0  0  0  0
   63.7621   33.1363   46.4071 H   0  0  0  0  0  0  0  0  0  0  0  0
   61.9160   34.5161   45.4679 H   0  0  0  0  0  0  0  0  0  0  0  0
   58.8121   35.2162   47.2380 H   0  0  0  0  0  0  0  0  0  0  0  0
   59.8564   35.5284   45.7630 H   0  0  0  0  0  0  0  0  0  0  0  0
   57.0951   33.8954   47.1816 H   0  0  0  0  0  0  0  0  0  0  0  0
   56.3883   34.7053   45.7425 H   0  0  0  0  0  0  0  0  0  0  0  0
   56.6314   32.9256   45.7425 H   0  0  0  0  0  0  0  0  0  0  0  0
   58.8468   33.3099   43.6199 H   0  0  0  0  0  0  0  0  0  0  0  0
   59.9166   32.7591   45.0032 H   0  0  0  0  0  0  0  0  0  0  0  0
   59.2622   30.9744   46.4896 H   0  0  0  0  0  0  0  0  0  0  0  0
   57.9451   28.8770   46.7507 H   0  0  0  0  0  0  0  0  0  0  0  0
   58.2883   26.3317   46.6482 H   0  0  0  0  0  0  0  0  0  0  0  0
   57.9124   25.5037   45.0991 H   0  0  0  0  0  0  0  0  0  0  0  0
   58.3902   27.2353   45.0991 H   0  0  0  0  0  0  0  0  0  0  0  0
   55.6132   29.9048   43.2574 H   0  0  0  0  0  0  0  0  0  0  0  0
   56.9455   31.9923   42.9809 H   0  0  0  0  0  0  0  0  0  0  0  0
  1  2  1  0
  2  3  1  0
  3  4  2  0
  4  5  1  0
  5  6  2  0
  6  7  1  0
  7  8  2  0
  8  9  1  0
  9 10  1  0
 10 11  1  0
 10 12  1  0
 12 13  1  0
 13 14  2  0
 14 15  1  0
 15 16  2  0
 16 17  1  0
 17 18  1  0
 18 19  1  0
 18 20  2  0
 16 21  1  0
 21 22  2  0
  8  3  1  0
 22 13  1  0
  1 23  1  0
  1 24  1  0
  1 25  1  0
  4 26  1  0
  5 27  1  0
  6 28  1  0
  7 29  1  0
  9 30  1  0
  9 31  1  0
 11 32  1  0
 11 33  1  0
 11 34  1  0
 12 35  1  0
 12 36  1  0
 14 37  1  0
 15 38  1  0
 19 39  1  0
 19 40  1  0
 19 41  1  0
 21 42  1  0
 22 43  1  0
M  CHG  1  17  -1
M  END
>  <UniqueID>  (12) 
12

>  <SMILES>  (12) 
COc1ccccc1CN(C)Cc1ccc([N-]C(C)=O)cc1

>  <Energy>  (12) 
53.94563276165957

>  <Genealogy>  (12) 
COc1ccccc1CN(C)Cc1ccc([N-]C(C)=O)cc1 (protonated)
COc1ccccc1CN(C)Cc1ccc([N-]C(C)=O)cc1 (3D coordinates assigned)
COc1ccccc1CN(C)Cc1ccc([N-]C(C)=O)cc1 (optimized conformer: 53.94563276165957 kcal/mol)

>  <smiles>  (12) 
COc1ccccc1CN(C)Cc1ccc(NC(C)=O)cc1

>  <score_type>  (12) 
oracle

>  <origin>  (12) 
adg

>  <m_score__min__energy>  (12) 
-9.4299999999999997

>  <m_primary>  (12) 
energy

$$$$
12:0
     RDKit          3D

 54 57  0  0  0  0  0  0  0  0999 V2000
   58.1190   26.4960   44.6120 C   0  0  0  0  0  0  0  0  0  0  0  0
   57.0170   26.4490   45.6660 C   0  0  0  0  0  0  0  0  0  0  0  0
   56.1940   27.6130   45.5890 O   0  0  0  0  0  0  0  0  0  0  0  0
   56.6300   28.9010   45.2390 C   0  0  0  0  0  0  0  0  0  0  0  0
   55.9970   29.5450   44.1690 C   0  0  0  0  0  0  0  0  0  0  0  0
   56.3840   30.8310   43.7820 C   0  0  0  0  0  0  0  0  0  0  0  0
   57.3990   31.5020   44.4730 C   0  0  0  0  0  0  0  0  0  0  0  0
   57.7850   32.8160   44.0430 N   0  0  0  0  0  0  0  0  0  0  0  0
   57.9400   33.9570   44.8970 C   0  0  0  0  0  0  0  0  0  0  0  0
   57.1800   34.9470   44.7300 O   0  0  0  0  0  0  0  0  0  0  0  0
   58.9370   33.9800   45.9890 C   0  0  0  0  0  0  0  0  0  0  0  0
   58.5300   34.1400   47.3230 C   0  0  0  0  0  0  0  0  0  0  0  0
   59.4740   34.1480   48.3530 C   0  0  0  0  0  0  0  0  0  0  0  0
   60.8390   33.9910   48.0660 C   0  0  0  0  0  0  0  0  0  0  0  0
   61.2560   33.8470   46.7310 C   0  0  0  0  0  0  0  0  0  0  0  0
   60.3030   33.8440   45.7010 C   0  0  0  0  0  0  0  0  0  0  0  0
   62.7020   33.6140   46.3910 C   0  0  0  0  0  0  0  0  0  0  0  0
   63.6640   33.9810   47.5360 C   0  0  0  0  0  0  0  0  0  0  0  0
   63.2080   33.5590   48.8820 N   0  0  2  0  0  0  0  0  0  0  0  0
   63.4710   32.1320   49.2080 C   0  0  0  0  0  0  0  0  0  0  0  0
   62.2910   31.1980   49.0140 C   0  0  0  0  0  0  0  0  0  0  0  0
   61.8690   30.8380   47.7210 C   0  0  0  0  0  0  0  0  0  0  0  0
   60.7740   29.9900   47.5430 C   0  0  0  0  0  0  0  0  0  0  0  0
   60.0720   29.5110   48.6520 C   0  0  0  0  0  0  0  0  0  0  0  0
   60.4580   29.8930   49.9390 C   0  0  0  0  0  0  0  0  0  0  0  0
   61.5520   30.7450   50.1210 C   0  0  0  0  0  0  0  0  0  0  0  0
   61.8440   33.9520   49.1500 C   0  0  0  0  0  0  0  0  0  0  0  0
   61.4990   34.2190   50.3360 O   0  0  0  0  0  0  0  0  0  0  0  0
   58.0510   30.8540   45.5360 C   0  0  0  0  0  0  0  0  0  0  0  0
   57.6680   29.5660   45.9170 C   0  0  0  0  0  0  0  0  0  0  0  0
   59.0997   26.5378   45.1085 H   0  0  0  0  0  0  0  0  0  0  0  0
   58.0642   25.5947   43.9838 H   0  0  0  0  0  0  0  0  0  0  0  0
   57.9877   27.3894   43.9838 H   0  0  0  0  0  0  0  0  0  0  0  0
   56.3962   25.5563   45.4995 H   0  0  0  0  0  0  0  0  0  0  0  0
   57.4822   26.4105   46.6620 H   0  0  0  0  0  0  0  0  0  0  0  0
   55.1872   29.0338   43.6277 H   0  0  0  0  0  0  0  0  0  0  0  0
   55.8880   31.3183   42.9296 H   0  0  0  0  0  0  0  0  0  0  0  0
   57.4622   34.2597   47.5586 H   0  0  0  0  0  0  0  0  0  0  0  0
   59.1456   34.2781   49.3948 H   0  0  0  0  0  0  0  0  0  0  0  0
   60.6307   33.7338   44.6567 H   0  0  0  0  0  0  0  0  0  0  0  0
   62.8367   32.5493   46.1496 H   0  0  0  0  0  0  0  0  0  0  0  0
   62.9455   34.2662   45.5394 H   0  0  0  0  0  0  0  0  0  0  0  0
   64.6340   33.5023   47.3363 H   0  0  0  0  0  0  0  0  0  0  0  0
   63.7219   35.0793   47.5557 H   0  0  0  0  0  0  0  0  0  0  0  0
   63.8030   34.1050   49.5500 H   0  0  0  0  0  0  0  0  0  0  0  0
   64.2919   31.7816   48.5651 H   0  0  0  0  0  0  0  0  0  0  0  0
   63.7109   32.1027   50.2811 H   0  0  0  0  0  0  0  0  0  0  0  0
   62.4058   31.2276   46.8435 H   0  0  0  0  0  0  0  0  0  0  0  0
   60.4638   29.6988   46.5286 H   0  0  0  0  0  0  0  0  0  0  0  0
   59.2165   28.8339   48.5118 H   0  0  0  0  0  0  0  0  0  0  0  0
   59.9000   29.5227   50.8116 H   0  0  0  0  0  0  0  0  0  0  0  0
   61.8357   31.0623   51.1353 H   0  0  0  0  0  0  0  0  0  0  0  0
   58.8665   31.3634   46.0703 H   0  0  0  0  0  0  0  0  0  0  0  0
   58.1814   29.0682   46.7528 H   0  0  0  0  0  0  0  0  0  0  0  0
  1  2  1  0
  2  3  1  0
  3  4  1  0
  4  5  2  0
  5  6  1  0
  6  7  2  0
  7  8  1  0
  8  9  1  0
  9 10  2  0
  9 11  1  0
 11 12  2  0
 12 13  1  0
 13 14  2  0
 14 15  1  0
 15 16  2  0
 15 17  1  0
 17 18  1  0
 18 19  1  0
 19 20  1  0
 20 21  1  0
 21 22  2  0
 22 23  1  0
 23 24  2  0
 24 25  1  0
 25 26  2  0
 19 27  1  0
 27 28  2  0
  7 29  1  0
 29 30  2  0
 30  4  1  0
 16 11  1  0
 26 21  1  0
 27 14  1  0
  1 31  1  0
  1 32  1  0
  1 33  1  0
  2 34  1  0
  2 35  1  0
  5 36  1  0
  6 37  1  0
 12 38  1  0
 13 39  1  0
 16 40  1  0
 17 41  1  0
 17 42  1  0
 18 43  1  0
 18 44  1  0
 19 45  1  1
 20 46  1  0
 20 47  1  0
 22 48  1  0
 23 49  1  0
 24 50  1  0
 25 51  1  0
 26 52  1  0
 29 53  1  0
 30 54  1  0
M  CHG  2   8  -1  19   1
M  END
>  <UniqueID>  (13) 
13

>  <SMILES>  (13) 
CCOc1ccc([N-]C(=O)c2ccc3c(c2)CC[N@H+](Cc2ccccc2)C3=O)cc1

>  <Energy>  (13) 
69.98519414931492

>  <Genealogy>  (13) 
CCOc1ccc([N-]C(=O)c2ccc3c(c2)CC[NH+](Cc2ccccc2)C3=O)cc1 (protonated)
CCOc1ccc([N-]C(=O)c2ccc3c(c2)CC[N@H+](Cc2ccccc2)C3=O)cc1 (chirality)
CCOc1ccc([N-]C(=O)c2ccc3c(c2)CC[N@H+](Cc2ccccc2)C3=O)cc1 (3D coordinates assigned)
CCOc1ccc([N-]C(=O)c2ccc3c(c2)CC[N@H+](Cc2ccccc2)C3=O)cc1 (nonaromatic ring conformer: 69.98519414931492 kcal/mol)

>  <smiles>  (13) 
CCOc1ccc(NC(=O)c2ccc3c(c2)CCN(Cc2ccccc2)C3=O)cc1

>  <score_type>  (13) 
oracle

>  <origin>  (13) 
adg

>  <m_score__min__energy>  (13) 
-8.3000000000000007

>  <m_primary>  (13) 
energy

$$$$
13:0
     RDKit          3D

 50 53  0  0  0  0  0  0  0  0999 V2000
   57.4910   25.1190   44.8130 O   0  0  0  0  0  0  0  0  0  0  0  0
   58.1560   26.1850   44.7180 C   0  0  0  0  0  0  0  0  0  0  0  0
   58.1120   27.0000   43.4660 C   0  0  0  0  0  0  0  0  0  0  0  0
   58.3670   28.4310   43.7570 N   0  0  1  0  0  0  0  0  0  0  0  0
   57.2880   29.0760   44.5500 C   0  0  0  0  0  0  0  0  0  0  0  0
   57.5480   30.5470   44.7750 C   0  0  0  0  0  0  0  0  0  0  0  0
   57.5230   31.4470   43.6990 C   0  0  0  0  0  0  0  0  0  0  0  0
   57.7840   32.8050   43.9070 C   0  0  0  0  0  0  0  0  0  0  0  0
   58.0740   33.2820   45.2000 C   0  0  0  0  0  0  0  0  0  0  0  0
   58.3380   34.6360   45.4660 O   0  0  0  0  0  0  0  0  0  0  0  0
   59.6370   35.2080   45.6230 C   0  0  0  0  0  0  0  0  0  0  0  0
   60.4000   34.5120   46.7190 C   0  0  0  0  0  0  0  0  0  0  0  0
   61.6050   33.8510   46.4280 C   0  0  0  0  0  0  0  0  0  0  0  0
   62.3220   33.2120   47.4450 C   0  0  0  0  0  0  0  0  0  0  0  0
   61.8470   33.2380   48.7590 C   0  0  0  0  0  0  0  0  0  0  0  0
   60.6560   33.9050   49.0580 C   0  0  0  0  0  0  0  0  0  0  0  0
   59.9360   34.5440   48.0450 C   0  0  0  0  0  0  0  0  0  0  0  0
   58.1050   32.3790   46.2690 C   0  0  0  0  0  0  0  0  0  0  0  0
   57.8450   31.0220   46.0620 C   0  0  0  0  0  0  0  0  0  0  0  0
   59.6920   28.6070   44.4020 C   0  0  0  0  0  0  0  0  0  0  0  0
   59.9180   27.7240   45.6670 C   0  0  1  0  0  0  0  0  0  0  0  0
   59.8440   28.4960   46.9820 C   0  0  0  0  0  0  0  0  0  0  0  0
   59.3390   27.4760   48.0020 C   0  0  0  0  0  0  0  0  0  0  0  0
   58.5500   26.4490   47.1960 C   0  0  0  0  0  0  0  0  0  0  0  0
   58.9460   26.6500   45.8130 N   0  0  0  0  0  0  0  0  0  0  0  0
   58.8796   26.6318   42.7694 H   0  0  0  0  0  0  0  0  0  0  0  0
   57.1110   26.9051   43.0199 H   0  0  0  0  0  0  0  0  0  0  0  0
   58.4190   28.9270   42.8360 H   0  0  0  0  0  0  0  0  0  0  0  0
   56.3359   28.9628   44.0109 H   0  0  0  0  0  0  0  0  0  0  0  0
   57.2514   28.5848   45.5335 H   0  0  0  0  0  0  0  0  0  0  0  0
   57.2968   31.0824   42.6861 H   0  0  0  0  0  0  0  0  0  0  0  0
   57.7627   33.5034   43.0574 H   0  0  0  0  0  0  0  0  0  0  0  0
   60.1915   35.1080   44.6782 H   0  0  0  0  0  0  0  0  0  0  0  0
   59.5246   36.2689   45.8911 H   0  0  0  0  0  0  0  0  0  0  0  0
   61.9862   33.8359   45.3963 H   0  0  0  0  0  0  0  0  0  0  0  0
   63.2606   32.6886   47.2102 H   0  0  0  0  0  0  0  0  0  0  0  0
   62.4105   32.7335   49.5577 H   0  0  0  0  0  0  0  0  0  0  0  0
   60.2844   33.9271   50.0931 H   0  0  0  0  0  0  0  0  0  0  0  0
   59.0028   35.0739   48.2865 H   0  0  0  0  0  0  0  0  0  0  0  0
   58.3362   32.7412   47.2816 H   0  0  0  0  0  0  0  0  0  0  0  0
   57.8732   30.3231   46.9109 H   0  0  0  0  0  0  0  0  0  0  0  0
   60.4690   28.3563   43.6648 H   0  0  0  0  0  0  0  0  0  0  0  0
   59.7396   29.6532   44.7383 H   0  0  0  0  0  0  0  0  0  0  0  0
   60.9301   27.3310   45.4903 H   0  0  0  0  0  0  0  0  0  0  0  0
   60.8376   28.8715   47.2680 H   0  0  0  0  0  0  0  0  0  0  0  0
   59.1870   29.3755   46.9122 H   0  0  0  0  0  0  0  0  0  0  0  0
   60.1846   26.9946   48.5151 H   0  0  0  0  0  0  0  0  0  0  0  0
   58.7194   27.9483   48.7786 H   0  0  0  0  0  0  0  0  0  0  0  0
   58.8011   25.4292   47.5230 H   0  0  0  0  0  0  0  0  0  0  0  0
   57.4652   26.5720   47.3308 H   0  0  0  0  0  0  0  0  0  0  0  0
  1  2  2  0
  2  3  1  0
  3  4  1  0
  4  5  1  0
  5  6  1  0
  6  7  2  0
  7  8  1  0
  8  9  2  0
  9 10  1  0
 10 11  1  0
 11 12  1  0
 12 13  2  0
 13 14  1  0
 14 15  2  0
 15 16  1  0
 16 17  2  0
  9 18  1  0
 18 19  2  0
  4 20  1  0
 20 21  1  0
 21 22  1  0
 22 23  1  0
 23 24  1  0
 24 25  1  0
 25  2  1  0
 19  6  1  0
 25 21  1  0
 17 12  1  0
  3 26  1  0
  3 27  1  0
  4 28  1  6
  5 29  1  0
  5 30  1  0
  7 31  1  0
  8 32  1  0
 11 33  1  0
 11 34  1  0
 13 35  1  0
 14 36  1  0
 15 37  1  0
 16 38  1  0
 17 39  1  0
 18 40  1  0
 19 41  1  0
 20 42  1  0
 20 43  1  0
 21 44  1  6
 22 45  1  0
 22 46  1  0
 23 47  1  0
 23 48  1  0
 24 49  1  0
 24 50  1  0
M  CHG  1   4   1
M  END
>  <UniqueID>  (14) 
14

>  <SMILES>  (14) 
O=C1C[N@@H+](Cc2ccc(OCc3ccccc3)cc2)C[C@H]2CCCN12

>  <Energy>  (14) 
63.139913121782016

>  <Genealogy>  (14) 
O=C1C[NH+](Cc2ccc(OCc3ccccc3)cc2)CC2CCCN12 (protonated)
O=C1C[N@@H+](Cc2ccc(OCc3ccccc3)cc2)C[C@H]2CCCN12 (chirality)
O=C1C[N@@H+](Cc2ccc(OCc3ccccc3)cc2)C[C@H]2CCCN12 (3D coordinates assigned)
O=C1C[N@@H+](Cc2ccc(OCc3ccccc3)cc2)C[C@H]2CCCN12 (nonaromatic ring conformer: 63.139913121782016 kcal/mol)

>  <smiles>  (14) 
O=C1CN(Cc2ccc(OCc3ccccc3)cc2)CC2CCCN12

>  <score_type>  (14) 
oracle

>  <origin>  (14) 
adg

>  <m_score__min__energy>  (14) 
-6.6299999999999999

>  <m_primary>  (14) 
energy

$$$$
14:0
     RDKit          3D

 29 30  0  0  0  0  0  0  0  0999 V2000
   63.7280   33.4620   47.8870 C   0  0  0  0  0  0  0  0  0  0  0  0
   62.2600   33.7250   47.9210 C   0  0  0  0  0  0  0  0  0  0  0  0
   61.6550   33.9970   49.1320 C   0  0  0  0  0  0  0  0  0  0  0  0
   60.2910   34.2420   49.1610 C   0  0  0  0  0  0  0  0  0  0  0  0
   59.5430   34.2130   47.9810 C   0  0  0  0  0  0  0  0  0  0  0  0
   60.1640   33.9410   46.7860 C   0  0  0  0  0  0  0  0  0  0  0  0
   59.3360   33.9240   45.5860 C   0  0  0  0  0  0  0  0  0  0  0  0
   59.2830   34.9650   44.8840 O   0  0  0  0  0  0  0  0  0  0  0  0
   58.5860   32.7920   45.1690 N   0  0  0  0  0  0  0  0  0  0  0  0
   57.7710   32.7910   43.9800 C   0  0  0  0  0  0  0  0  0  0  0  0
   57.1210   31.4640   43.8570 C   0  0  0  0  0  0  0  0  0  0  0  0
   56.6480   30.8300   42.7320 C   0  0  0  0  0  0  0  0  0  0  0  0
   56.1470   29.6520   43.1170 N   0  0  0  0  0  0  0  0  0  0  0  0
   56.2870   29.5180   44.4480 C   0  0  0  0  0  0  0  0  0  0  0  0
   56.8880   30.6440   44.8770 N   0  0  0  0  0  0  0  0  0  0  0  0
   61.5200   33.6960   46.7560 C   0  0  0  0  0  0  0  0  0  0  0  0
   64.1121   33.3932   48.9155 H   0  0  0  0  0  0  0  0  0  0  0  0
   63.9188   32.5154   47.3602 H   0  0  0  0  0  0  0  0  0  0  0  0
   64.2356   34.2835   47.3602 H   0  0  0  0  0  0  0  0  0  0  0  0
   62.2463   34.0189   50.0593 H   0  0  0  0  0  0  0  0  0  0  0  0
   59.7947   34.4604   50.1181 H   0  0  0  0  0  0  0  0  0  0  0  0
   58.4607   34.4073   48.0088 H   0  0  0  0  0  0  0  0  0  0  0  0
   58.6090   31.9080   45.7360 H   0  0  0  0  0  0  0  0  0  0  0  0
   57.0030   33.5749   44.0558 H   0  0  0  0  0  0  0  0  0  0  0  0
   58.3941   32.9892   43.0955 H   0  0  0  0  0  0  0  0  0  0  0  0
   56.6767   31.2206   41.7041 H   0  0  0  0  0  0  0  0  0  0  0  0
   55.7210   28.9780   42.4290 H   0  0  0  0  0  0  0  0  0  0  0  0
   55.9736   28.6611   45.0624 H   0  0  0  0  0  0  0  0  0  0  0  0
   62.0152   33.4762   45.7987 H   0  0  0  0  0  0  0  0  0  0  0  0
  1  2  1  0
  2  3  2  0
  3  4  1  0
  4  5  2  0
  5  6  1  0
  6  7  1  0
  7  8  2  0
  7  9  1  0
  9 10  1  0
 10 11  1  0
 11 12  2  0
 12 13  1  0
 13 14  1  0
 14 15  2  0
  6 16  2  0
 16  2  1  0
 15 11  1  0
  1 17  1  0
  1 18  1  0
  1 19  1  0
  3 20  1  0
  4 21  1  0
  5 22  1  0
  9 23  1  0
 10 24  1  0
 10 25  1  0
 12 26  1  0
 13 27  1  0
 14 28  1  0
 16 29  1  0
M  END
>  <smiles>  (15) 
Cc1cccc(C(=O)NCc2c[nH]cn2)c1

>  <score_type>  (15) 
oracle

>  <origin>  (15) 
adg

>  <m_score__min__energy>  (15) 
-6.2800000000000002

>  <m_primary>  (15) 
energy

$$$$
15:0
     RDKit          3D

 41 43  0  0  0  0  0  0  0  0999 V2000
   56.7020   30.6040   45.1850 N   0  0  0  0  0  0  0  0  0  0  0  0
   58.0690   31.1130   44.9610 C   0  0  2  0  0  0  0  0  0  0  0  0
   58.8880   30.0140   44.2060 C   0  0  0  0  0  0  0  0  0  0  0  0
   59.6270   29.0250   45.1340 C   0  0  0  0  0  0  0  0  0  0  0  0
   58.9150   28.8490   46.4770 C   0  0  0  0  0  0  0  0  0  0  0  0
   58.7890   30.1810   47.2430 C   0  0  0  0  0  0  0  0  0  0  0  0
   58.7630   31.4230   46.3160 C   0  0  2  0  0  0  0  0  0  0  0  0
   58.1490   32.6390   47.0440 C   0  0  0  0  0  0  0  0  0  0  0  0
   58.0140   33.8270   46.1770 N   0  0  0  0  0  0  0  0  0  0  0  0
   59.0750   34.8520   46.2740 C   0  0  0  0  0  0  0  0  0  0  0  0
   60.2870   34.3990   47.0510 C   0  0  0  0  0  0  0  0  0  0  0  0
   61.3810   33.8140   46.3950 C   0  0  0  0  0  0  0  0  0  0  0  0
   62.4930   33.3940   47.1270 C   0  0  0  0  0  0  0  0  0  0  0  0
   62.4940   33.5450   48.5140 C   0  0  0  0  0  0  0  0  0  0  0  0
   61.4170   34.0890   49.1420 N   0  0  0  0  0  0  0  0  0  0  0  0
   60.3250   34.5090   48.4500 C   0  0  0  0  0  0  0  0  0  0  0  0
   57.4200   33.6010   44.8440 C   0  0  0  0  0  0  0  0  0  0  0  0
   58.0360   32.4040   44.1050 C   0  0  0  0  0  0  0  0  0  0  0  0
   56.0340   31.4060   45.2450 H   0  0  0  0  0  0  0  0  0  0  0  0
   56.6340   30.0920   46.0910 H   0  0  0  0  0  0  0  0  0  0  0  0
   58.1944   29.4407   43.5734 H   0  0  0  0  0  0  0  0  0  0  0  0
   59.6604   30.5391   43.6249 H   0  0  0  0  0  0  0  0  0  0  0  0
   59.6863   28.0471   44.6339 H   0  0  0  0  0  0  0  0  0  0  0  0
   60.6282   29.4342   45.3341 H   0  0  0  0  0  0  0  0  0  0  0  0
   57.9073   28.4475   46.2947 H   0  0  0  0  0  0  0  0  0  0  0  0
   59.5131   28.1594   47.0908 H   0  0  0  0  0  0  0  0  0  0  0  0
   57.8564   30.1613   47.8261 H   0  0  0  0  0  0  0  0  0  0  0  0
   59.6779   30.2726   47.8844 H   0  0  0  0  0  0  0  0  0  0  0  0
   59.8008   31.6908   46.0686 H   0  0  0  0  0  0  0  0  0  0  0  0
   57.1509   32.3591   47.4120 H   0  0  0  0  0  0  0  0  0  0  0  0
   58.8305   32.9080   47.8645 H   0  0  0  0  0  0  0  0  0  0  0  0
   59.3948   35.1182   45.2557 H   0  0  0  0  0  0  0  0  0  0  0  0
   58.6467   35.7077   46.8166 H   0  0  0  0  0  0  0  0  0  0  0  0
   61.3623   33.6862   45.3026 H   0  0  0  0  0  0  0  0  0  0  0  0
   63.3592   32.9487   46.6157 H   0  0  0  0  0  0  0  0  0  0  0  0
   63.3672   33.2236   49.1007 H   0  0  0  0  0  0  0  0  0  0  0  0
   59.4669   34.9372   48.9889 H   0  0  0  0  0  0  0  0  0  0  0  0
   56.3421   33.4193   44.9673 H   0  0  0  0  0  0  0  0  0  0  0  0
   57.6200   34.4979   44.2395 H   0  0  0  0  0  0  0  0  0  0  0  0
   57.4428   32.2086   43.1995 H   0  0  0  0  0  0  0  0  0  0  0  0
   59.0773   32.6662   43.8665 H   0  0  0  0  0  0  0  0  0  0  0  0
  2  1  1  1
  2  3  1  0
  3  4  1  0
  4  5  1  0
  5  6  1  0
  6  7  1  0
  7  8  1  0
  8  9  1  0
  9 10  1  0
 10 11  1  0
 11 12  2  0
 12 13  1  0
 13 14  2  0
 14 15  1  0
 15 16  2  0
  9 17  1  0
 17 18  1  0
  7  2  1  0
 16 11  1  0
 18  2  1  0
  1 19  1  0
  1 20  1  0
  3 21  1  0
  3 22  1  0
  4 23  1  0
  4 24  1  0
  5 25  1  0
  5 26  1  0
  6 27  1  0
  6 28  1  0
  7 29  1  6
  8 30  1  0
  8 31  1  0
 10 32  1  0
 10 33  1  0
 12 34  1  0
 13 35  1  0
 14 36  1  0
 16 37  1  0
 17 38  1  0
 17 39  1  0
 18 40  1  0
 18 41  1  0
M  END
>  <UniqueID>  (16) 
15

>  <SMILES>  (16) 
N[C@]12CCCC[C@@H]1CN(Cc1cccnc1)CC2

>  <Energy>  (16) 
56.89673922210526

>  <Genealogy>  (16) 
N[C@]12CCCC[C@@H]1CN(Cc1cccnc1)CC2 (chirality)
N[C@]12CCCC[C@@H]1CN(Cc1cccnc1)CC2 (3D coordinates assigned)
N[C@]12CCCC[C@@H]1CN(Cc1cccnc1)CC2 (nonaromatic ring conformer: 56.89673922210526 kcal/mol)

>  <smiles>  (16) 
NC12CCCCC1CN(Cc1cccnc1)CC2

>  <score_type>  (16) 
oracle

>  <origin>  (16) 
adg

>  <m_score__min__energy>  (16) 
-7.3200000000000003

>  <m_primary>  (16) 
energy

$$$$
16:0
     RDKit          3D

 39 41  0  0  0  0  0  0  0  0999 V2000
   54.8300   24.2870   45.1120 C   0  0  0  0  0  0  0  0  0  0  0  0
   55.0350   25.3840   45.9950 O   0  0  0  0  0  0  0  0  0  0  0  0
   56.1960   26.1740   46.0380 C   0  0  0  0  0  0  0  0  0  0  0  0
   56.1820   27.5220   45.6220 C   0  0  0  0  0  0  0  0  0  0  0  0
   57.3540   28.2960   45.6360 C   0  0  0  0  0  0  0  0  0  0  0  0
   57.3190   29.7080   45.1830 C   0  0  0  0  0  0  0  0  0  0  0  0
   56.2570   30.1730   44.6850 O   0  0  0  0  0  0  0  0  0  0  0  0
   58.4710   30.5570   45.3150 N   0  0  0  0  0  0  0  0  0  0  0  0
   58.5570   31.8610   44.6610 C   0  0  0  0  0  0  0  0  0  0  0  0
   58.9360   32.9180   45.6610 C   0  0  0  0  0  0  0  0  0  0  0  0
   59.2900   34.2100   45.2390 C   0  0  0  0  0  0  0  0  0  0  0  0
   59.6670   35.1780   46.1740 C   0  0  0  0  0  0  0  0  0  0  0  0
   60.0060   36.4240   45.7610 F   0  0  0  0  0  0  0  0  0  0  0  0
   59.7000   34.8620   47.5360 C   0  0  0  0  0  0  0  0  0  0  0  0
   59.3550   33.5760   47.9640 C   0  0  0  0  0  0  0  0  0  0  0  0
   59.4040   33.1780   49.6730 Cl  0  0  0  0  0  0  0  0  0  0  0  0
   58.9770   32.6050   47.0300 C   0  0  0  0  0  0  0  0  0  0  0  0
   58.5550   27.7040   46.0530 C   0  0  0  0  0  0  0  0  0  0  0  0
   58.5800   26.3740   46.4720 C   0  0  0  0  0  0  0  0  0  0  0  0
   57.4070   25.6000   46.4840 C   0  0  0  0  0  0  0  0  0  0  0  0
   57.4730   24.1940   46.9540 C   0  0  0  0  0  0  0  0  0  0  0  0
   57.1480   23.7150   48.2070 C   0  0  0  0  0  0  0  0  0  0  0  0
   57.3080   22.3800   48.2260 N   0  0  0  0  0  0  0  0  0  0  0  0
   57.7150   21.9860   47.0290 N   0  0  0  0  0  0  0  0  0  0  0  0
   57.8220   23.0670   46.2340 C   0  0  0  0  0  0  0  0  0  0  0  0
   54.6590   23.3718   45.6978 H   0  0  0  0  0  0  0  0  0  0  0  0
   53.9534   24.4856   44.4778 H   0  0  0  0  0  0  0  0  0  0  0  0
   55.7191   24.1556   44.4778 H   0  0  0  0  0  0  0  0  0  0  0  0
   55.2387   27.9738   45.2814 H   0  0  0  0  0  0  0  0  0  0  0  0
   59.2640   30.2650   45.9290 H   0  0  0  0  0  0  0  0  0  0  0  0
   59.3186   31.8207   43.8683 H   0  0  0  0  0  0  0  0  0  0  0  0
   57.5774   32.1110   44.2274 H   0  0  0  0  0  0  0  0  0  0  0  0
   59.2705   34.4610   44.1682 H   0  0  0  0  0  0  0  0  0  0  0  0
   59.9973   35.6249   48.2706 H   0  0  0  0  0  0  0  0  0  0  0  0
   58.7110   31.5929   47.3689 H   0  0  0  0  0  0  0  0  0  0  0  0
   59.4841   28.2929   46.0496 H   0  0  0  0  0  0  0  0  0  0  0  0
   59.5301   25.9250   46.7973 H   0  0  0  0  0  0  0  0  0  0  0  0
   56.8113   24.3283   49.0558 H   0  0  0  0  0  0  0  0  0  0  0  0
   58.1368   23.0553   45.1801 H   0  0  0  0  0  0  0  0  0  0  0  0
  1  2  1  0
  2  3  1  0
  3  4  2  0
  4  5  1  0
  5  6  1  0
  6  7  2  0
  6  8  1  0
  8  9  1  0
  9 10  1  0
 10 11  2  0
 11 12  1  0
 12 13  1  0
 12 14  2  0
 14 15  1  0
 15 16  1  0
 15 17  2  0
  5 18  2  0
 18 19  1  0
 19 20  2  0
 20 21  1  0
 21 22  1  0
 22 23  2  0
 23 24  1  0
 24 25  1  0
 20  3  1  0
 25 21  2  0
 17 10  1  0
  1 26  1  0
  1 27  1  0
  1 28  1  0
  4 29  1  0
  8 30  1  0
  9 31  1  0
  9 32  1  0
 11 33  1  0
 14 34  1  0
 17 35  1  0
 18 36  1  0
 19 37  1  0
 22 38  1  0
 25 39  1  0
M  CHG  1  24  -1
M  END
>  <UniqueID>  (17) 
16

>  <SMILES>  (17) 
COc1cc(C(=O)NCc2cc(F)cc(Cl)c2)ccc1-c1cn[n-]c1

>  <Energy>  (17) 
74.77772231546942

>  <Genealogy>  (17) 
COc1cc(C(=O)NCc2cc(F)cc(Cl)c2)ccc1-c1cn[n-]c1 (protonated)
COc1cc(C(=O)NCc2cc(F)cc(Cl)c2)ccc1-c1cn[n-]c1 (3D coordinates assigned)
COc1cc(C(=O)NCc2cc(F)cc(Cl)c2)ccc1-c1cn[n-]c1 (optimized conformer: 74.77772231546942 kcal/mol)

>  <smiles>  (17) 
COc1cc(C(=O)NCc2cc(F)cc(Cl)c2)ccc1-c1cn[nH]c1

>  <score_type>  (17) 
oracle

>  <origin>  (17) 
adg

>  <m_score__min__energy>  (17) 
-9.6699999999999999

>  <m_primary>  (17) 
energy

$$$$
17:0
     RDKit          3D

 47 48  0  0  0  0  0  0  0  0999 V2000
   56.3366   32.1193   43.5195 H   0  0  0  0  0  0  0  0  0  0  0  0
   56.9870   31.6610   44.2790 C   0  0  0  0  0  0  0  0  0  0  0  0
   56.9660   30.3300   44.4180 C   0  0  0  0  0  0  0  0  0  0  0  0
   57.9143   29.7726   44.4261 H   0  0  0  0  0  0  0  0  0  0  0  0
   55.6720   29.5850   44.5630 C   0  0  0  0  0  0  0  0  0  0  0  0
   54.9665   30.1940   45.1473 H   0  0  0  0  0  0  0  0  0  0  0  0
   55.2604   29.3861   43.5625 H   0  0  0  0  0  0  0  0  0  0  0  0
   55.8910   28.3150   45.2460 N   0  0  0  0  0  0  0  0  0  0  0  0
   57.1690   27.6730   45.3170 C   0  0  0  0  0  0  0  0  0  0  0  0
   57.9900   27.7790   44.3660 O   0  0  0  0  0  0  0  0  0  0  0  0
   57.5270   26.8520   46.5200 C   0  0  0  0  0  0  0  0  0  0  0  0
   58.5738   27.0506   46.7933 H   0  0  0  0  0  0  0  0  0  0  0  0
   56.8559   27.1276   47.3468 H   0  0  0  0  0  0  0  0  0  0  0  0
   57.3650   25.4110   46.2400 N   0  0  0  0  0  0  0  0  0  0  0  0
   56.2710   24.8640   47.0640 C   0  0  0  0  0  0  0  0  0  0  0  0
   56.5173   24.9871   48.1290 H   0  0  0  0  0  0  0  0  0  0  0  0
   55.3382   25.4018   46.8388 H   0  0  0  0  0  0  0  0  0  0  0  0
   56.1415   23.7951   46.8388 H   0  0  0  0  0  0  0  0  0  0  0  0
   57.0960   25.1720   44.8030 C   0  0  0  0  0  0  0  0  0  0  0  0
   56.0599   25.4652   44.5782 H   0  0  0  0  0  0  0  0  0  0  0  0
   57.8050   25.7699   44.2115 H   0  0  0  0  0  0  0  0  0  0  0  0
   57.2840   23.7190   44.4480 C   0  0  0  0  0  0  0  0  0  0  0  0
   56.4890   23.1240   43.4570 C   0  0  0  0  0  0  0  0  0  0  0  0
   55.6922   23.7016   42.9655 H   0  0  0  0  0  0  0  0  0  0  0  0
   56.7160   21.7940   43.0990 C   0  0  0  0  0  0  0  0  0  0  0  0
   56.0895   21.3198   42.3292 H   0  0  0  0  0  0  0  0  0  0  0  0
   57.7090   21.0810   43.6980 N   0  0  0  0  0  0  0  0  0  0  0  0
   57.8680   20.0880   43.4170 H   0  0  0  0  0  0  0  0  0  0  0  0
   58.5040   21.6390   44.6510 C   0  0  0  0  0  0  0  0  0  0  0  0
   59.3023   21.0425   45.1168 H   0  0  0  0  0  0  0  0  0  0  0  0
   58.3100   22.9670   45.0400 C   0  0  0  0  0  0  0  0  0  0  0  0
   58.9574   23.4199   45.8053 H   0  0  0  0  0  0  0  0  0  0  0  0
   57.8450   32.5450   45.1000 C   0  0  0  0  0  0  0  0  0  0  0  0
   58.1800   33.8060   44.5800 C   0  0  0  0  0  0  0  0  0  0  0  0
   57.8099   34.1019   43.5873 H   0  0  0  0  0  0  0  0  0  0  0  0
   58.9780   34.6870   45.3110 C   0  0  0  0  0  0  0  0  0  0  0  0
   59.2253   35.6760   44.8979 H   0  0  0  0  0  0  0  0  0  0  0  0
   59.4620   34.3150   46.5640 C   0  0  0  0  0  0  0  0  0  0  0  0
   60.0799   35.0161   47.1442 H   0  0  0  0  0  0  0  0  0  0  0  0
   59.1640   33.0540   47.0840 C   0  0  0  0  0  0  0  0  0  0  0  0
   59.5551   32.7643   48.0705 H   0  0  0  0  0  0  0  0  0  0  0  0
   58.3660   32.1490   46.3550 C   0  0  0  0  0  0  0  0  0  0  0  0
   58.1060   30.8530   46.8330 O   0  0  0  0  0  0  0  0  0  0  0  0
   59.1050   29.9150   47.2200 C   0  0  0  0  0  0  0  0  0  0  0  0
   59.1568   29.8664   48.3177 H   0  0  0  0  0  0  0  0  0  0  0  0
   58.8502   28.9222   46.8206 H   0  0  0  0  0  0  0  0  0  0  0  0
   60.0798   30.2318   46.8206 H   0  0  0  0  0  0  0  0  0  0  0  0
  1  2  1  0
  2  3  2  0
  3  4  1  0
  3  5  1  0
  5  6  1  0
  5  7  1  0
  5  8  1  0
  8  9  1  0
  9 10  2  0
  9 11  1  0
 11 12  1  0
 11 13  1  0
 11 14  1  0
 14 15  1  0
 15 16  1  0
 15 17  1  0
 15 18  1  0
 14 19  1  0
 19 20  1  0
 19 21  1  0
 19 22  1  0
 22 23  2  0
 23 24  1  0
 23 25  1  0
 25 26  1  0
 25 27  2  0
 27 28  1  0
 27 29  1  0
 29 30  1  0
 29 31  2  0
 31 32  1  0
  2 33  1  0
 33 34  2  0
 34 35  1  0
 34 36  1  0
 36 37  1  0
 36 38  2  0
 38 39  1  0
 38 40  1  0
 40 41  1  0
 40 42  2  0
 42 43  1  0
 43 44  1  0
 44 45  1  0
 44 46  1  0
 44 47  1  0
 31 22  1  0
 42 33  1  0
M  CHG  2   8  -1  27   1
M  END
>  <UniqueID>  (18) 
17

>  <SMILES>  (18) 
COc1ccccc1/C=C/C[N-]C(=O)CN(C)Cc1cc[nH+]cc1

>  <Energy>  (18) 
43.877048852346384

>  <Genealogy>  (18) 
COc1ccccc1C=CC[N-]C(=O)CN(C)Cc1cc[nH+]cc1 (protonated)
COc1ccccc1/C=C/C[N-]C(=O)CN(C)Cc1cc[nH+]cc1 (cis-trans isomerization)
COc1ccccc1/C=C/C[N-]C(=O)CN(C)Cc1cc[nH+]cc1 (3D coordinates assigned)
COc1ccccc1/C=C/C[N-]C(=O)CN(C)Cc1cc[nH+]cc1 (optimized conformer: 43.877048852346384 kcal/mol)

>  <smiles>  (18) 
COc1ccccc1C=CCNC(=O)CN(C)Cc1ccncc1

>  <score_type>  (18) 
oracle

>  <origin>  (18) 
adg

>  <m_score__min__energy>  (18) 
-8.0999999999999996

>  <m_primary>  (18) 
energy

$$$$
18:0
     RDKit          3D

 30 31  0  0  0  0  0  0  0  0999 V2000
   59.9210   26.6730   48.5220 C   0  0  0  0  0  0  0  0  0  0  0  0
   58.9360   26.7340   47.3990 C   0  0  0  0  0  0  0  0  0  0  0  0
   57.6950   26.1010   47.5080 C   0  0  0  0  0  0  0  0  0  0  0  0
   56.8100   26.1770   46.4300 C   0  0  0  0  0  0  0  0  0  0  0  0
   55.6830   25.6180   46.5010 O   0  0  0  0  0  0  0  0  0  0  0  0
   57.1650   26.8570   45.3070 N   0  0  0  0  0  0  0  0  0  0  0  0
   58.3760   27.4710   45.2200 C   0  0  0  0  0  0  0  0  0  0  0  0
   58.8200   28.4000   43.7510 S   0  0  0  0  0  0  0  0  0  0  0  0
   57.1130   28.9280   43.3690 C   0  0  0  0  0  0  0  0  0  0  0  0
   56.6030   29.8950   44.4060 C   0  0  0  0  0  0  0  0  0  0  0  0
   55.4480   29.7040   44.8720 O   0  0  0  0  0  0  0  0  0  0  0  0
   57.3630   31.1030   44.8290 C   0  0  0  0  0  0  0  0  0  0  0  0
   58.0540   31.0900   46.0550 C   0  0  0  0  0  0  0  0  0  0  0  0
   58.7330   32.2270   46.5030 C   0  0  0  0  0  0  0  0  0  0  0  0
   58.7360   33.3910   45.7310 C   0  0  0  0  0  0  0  0  0  0  0  0
   59.6440   34.9500   46.3550 Br  0  0  0  0  0  0  0  0  0  0  0  0
   58.0710   33.4130   44.5030 C   0  0  0  0  0  0  0  0  0  0  0  0
   57.3920   32.2780   44.0500 C   0  0  0  0  0  0  0  0  0  0  0  0
   59.2530   27.3970   46.2550 N   0  0  0  0  0  0  0  0  0  0  0  0
   59.3850   26.7062   49.4820 H   0  0  0  0  0  0  0  0  0  0  0  0
   60.4958   25.7375   48.4551 H   0  0  0  0  0  0  0  0  0  0  0  0
   60.6069   27.5304   48.4551 H   0  0  0  0  0  0  0  0  0  0  0  0
   57.4210   25.5548   48.4227 H   0  0  0  0  0  0  0  0  0  0  0  0
   56.4970   26.9180   44.5050 H   0  0  0  0  0  0  0  0  0  0  0  0
   57.0995   29.4168   42.3836 H   0  0  0  0  0  0  0  0  0  0  0  0
   56.4633   28.0404   43.3674 H   0  0  0  0  0  0  0  0  0  0  0  0
   58.0599   30.1760   46.6670 H   0  0  0  0  0  0  0  0  0  0  0  0
   59.2658   32.2049   47.4651 H   0  0  0  0  0  0  0  0  0  0  0  0
   58.0815   34.3264   43.8902 H   0  0  0  0  0  0  0  0  0  0  0  0
   56.8765   32.3018   43.0786 H   0  0  0  0  0  0  0  0  0  0  0  0
  1  2  1  0
  2  3  2  0
  3  4  1  0
  4  5  2  0
  4  6  1  0
  6  7  1  0
  7  8  1  0
  8  9  1  0
  9 10  1  0
 10 11  2  0
 10 12  1  0
 12 13  2  0
 13 14  1  0
 14 15  2  0
 15 16  1  0
 15 17  1  0
 17 18  2  0
  7 19  2  0
 19  2  1  0
 18 12  1  0
  1 20  1  0
  1 21  1  0
  1 22  1  0
  3 23  1  0
  6 24  1  0
  9 25  1  0
  9 26  1  0
 13 27  1  0
 14 28  1  0
 17 29  1  0
 18 30  1  0
M  END
>  <UniqueID>  (19) 
18

>  <SMILES>  (19) 
Cc1cc(=O)[nH]c(SCC(=O)c2ccc(Br)cc2)n1

>  <Energy>  (19) 
25.099584505434876

>  <Genealogy>  (19) 
Cc1cc(=O)[nH]c(SCC(=O)c2ccc(Br)cc2)n1 (3D coordinates assigned)
Cc1cc(=O)[nH]c(SCC(=O)c2ccc(Br)cc2)n1 (optimized conformer: 25.099584505434876 kcal/mol)

>  <smiles>  (19) 
Cc1cc(=O)[nH]c(SCC(=O)c2ccc(Br)cc2)n1

>  <score_type>  (19) 
oracle

>  <origin>  (19) 
adg

>  <m_score__min__energy>  (19) 
-7.75

>  <m_primary>  (19) 
energy

$$$$
19:0
     RDKit          3D

 39 41  0  0  0  0  0  0  0  0999 V2000
   55.5580   30.8900   44.4470 O   0  0  0  0  0  0  0  0  0  0  0  0
   57.0260   30.9450   44.1280 S   0  0  0  0  0  0  0  0  0  0  0  0
   57.1760   31.3300   42.6820 O   0  0  0  0  0  0  0  0  0  0  0  0
   57.7610   29.3710   44.4090 C   0  0  0  0  0  0  0  0  0  0  0  0
   58.4910   29.1320   45.5810 C   0  0  0  0  0  0  0  0  0  0  0  0
   59.0560   27.8730   45.8120 C   0  0  0  0  0  0  0  0  0  0  0  0
   58.8890   26.8480   44.8760 C   0  0  0  0  0  0  0  0  0  0  0  0
   58.1550   27.0800   43.7100 C   0  0  0  0  0  0  0  0  0  0  0  0
   57.5890   28.3380   43.4760 C   0  0  0  0  0  0  0  0  0  0  0  0
   57.8180   32.1360   45.1530 C   0  0  0  0  0  0  0  0  0  0  0  0
   58.5270   33.1990   44.5810 C   0  0  0  0  0  0  0  0  0  0  0  0
   59.1770   34.1290   45.3960 C   0  0  0  0  0  0  0  0  0  0  0  0
   59.1360   34.0080   46.7940 C   0  0  0  0  0  0  0  0  0  0  0  0
   59.8240   34.9810   47.6050 N   0  0  0  0  0  0  0  0  0  0  0  0
   60.8720   34.6580   48.5750 C   0  0  0  0  0  0  0  0  0  0  0  0
   61.7590   33.5590   48.0540 C   0  0  0  0  0  0  0  0  0  0  0  0
   61.3490   32.2200   48.0840 C   0  0  0  0  0  0  0  0  0  0  0  0
   62.1740   31.2470   47.6170 N   0  0  0  0  0  0  0  0  0  0  0  0
   63.4010   31.5480   47.1200 C   0  0  0  0  0  0  0  0  0  0  0  0
   63.8270   32.8390   47.0910 N   0  0  0  0  0  0  0  0  0  0  0  0
   63.0340   33.8440   47.5500 C   0  0  0  0  0  0  0  0  0  0  0  0
   58.4210   32.9360   47.3630 C   0  0  0  0  0  0  0  0  0  0  0  0
   57.7730   32.0050   46.5460 C   0  0  0  0  0  0  0  0  0  0  0  0
   58.6201   29.9357   46.3208 H   0  0  0  0  0  0  0  0  0  0  0  0
   59.6321   27.6895   46.7309 H   0  0  0  0  0  0  0  0  0  0  0  0
   59.3354   25.8591   45.0575 H   0  0  0  0  0  0  0  0  0  0  0  0
   58.0219   26.2725   42.9750 H   0  0  0  0  0  0  0  0  0  0  0  0
   57.0083   28.5171   42.5591 H   0  0  0  0  0  0  0  0  0  0  0  0
   58.5724   33.3023   43.4868 H   0  0  0  0  0  0  0  0  0  0  0  0
   59.7265   34.9645   44.9377 H   0  0  0  0  0  0  0  0  0  0  0  0
   59.5990   35.9930   47.4650 H   0  0  0  0  0  0  0  0  0  0  0  0
   61.4804   35.5553   48.7614 H   0  0  0  0  0  0  0  0  0  0  0  0
   60.3980   34.3177   49.5075 H   0  0  0  0  0  0  0  0  0  0  0  0
   60.3594   31.9564   48.4855 H   0  0  0  0  0  0  0  0  0  0  0  0
   64.0515   30.7464   46.7402 H   0  0  0  0  0  0  0  0  0  0  0  0
   64.7730   33.0620   46.7120 H   0  0  0  0  0  0  0  0  0  0  0  0
   63.3949   34.8828   47.5253 H   0  0  0  0  0  0  0  0  0  0  0  0
   58.3723   32.8308   48.4569 H   0  0  0  0  0  0  0  0  0  0  0  0
   57.2253   31.1658   46.9997 H   0  0  0  0  0  0  0  0  0  0  0  0
  1  2  2  0
  2  3  2  0
  2  4  1  0
  4  5  2  0
  5  6  1  0
  6  7  2  0
  7  8  1  0
  8  9  2  0
  2 10  1  0
 10 11  2  0
 11 12  1  0
 12 13  2  0
 13 14  1  0
 14 15  1  0
 15 16  1  0
 16 17  2  0
 17 18  1  0
 18 19  2  0
 19 20  1  0
 20 21  2  0
 13 22  1  0
 22 23  2  0
  9  4  1  0
 23 10  1  0
 21 16  1  0
  5 24  1  0
  6 25  1  0
  7 26  1  0
  8 27  1  0
  9 28  1  0
 11 29  1  0
 12 30  1  0
 14 31  1  0
 15 32  1  0
 15 33  1  0
 17 34  1  0
 19 35  1  0
 20 36  1  0
 21 37  1  0
 22 38  1  0
 23 39  1  0
M  CHG  1  20   1
M  END
>  <UniqueID>  (20) 
19

>  <SMILES>  (20) 
O=S(=O)(c1ccccc1)c1ccc(NCc2cnc[nH+]c2)cc1

>  <Energy>  (20) 
43.21736238838015

>  <Genealogy>  (20) 
O=S(=O)(c1ccccc1)c1ccc(NCc2cnc[nH+]c2)cc1 (protonated)
O=S(=O)(c1ccccc1)c1ccc(NCc2cnc[nH+]c2)cc1 (3D coordinates assigned)
O=S(=O)(c1ccccc1)c1ccc(NCc2cnc[nH+]c2)cc1 (optimized conformer: 43.21736238838015 kcal/mol)

>  <smiles>  (20) 
O=S(=O)(c1ccccc1)c1ccc(NCc2cncnc2)cc1

>  <score_type>  (20) 
oracle

>  <origin>  (20) 
adg

>  <m_score__min__energy>  (20) 
-7.2000000000000002

>  <m_primary>  (20) 
energy

$$$$
20:0
     RDKit          3D

 40 42  0  0  0  0  0  0  0  0999 V2000
   57.7720   32.7250   48.2240 O   0  0  0  0  0  0  0  0  0  0  0  0
   57.8950   32.7880   46.9700 C   0  0  0  0  0  0  0  0  0  0  0  0
   57.6930   34.1120   46.2910 C   0  0  0  0  0  0  0  0  0  0  0  0
   58.9180   34.8420   46.2930 O   0  0  0  0  0  0  0  0  0  0  0  0
   60.0910   34.4240   46.9320 C   0  0  0  0  0  0  0  0  0  0  0  0
   61.1130   33.8710   46.1510 C   0  0  0  0  0  0  0  0  0  0  0  0
   62.3060   33.4450   46.7400 C   0  0  0  0  0  0  0  0  0  0  0  0
   62.4880   33.5690   48.1210 C   0  0  0  0  0  0  0  0  0  0  0  0
   63.9870   33.0350   48.8600 Cl  0  0  0  0  0  0  0  0  0  0  0  0
   61.4740   34.1180   48.9110 C   0  0  0  0  0  0  0  0  0  0  0  0
   60.2790   34.5450   48.3230 C   0  0  0  0  0  0  0  0  0  0  0  0
   58.2000   31.5930   46.2180 N   0  0  0  0  0  0  0  0  0  0  0  0
   57.8060   31.4810   44.8360 C   0  0  0  0  0  0  0  0  0  0  0  0
   58.3410   32.3570   43.8760 C   0  0  0  0  0  0  0  0  0  0  0  0
   57.9450   32.2620   42.5390 C   0  0  0  0  0  0  0  0  0  0  0  0
   57.0200   31.2910   42.1490 C   0  0  0  0  0  0  0  0  0  0  0  0
   56.4910   30.4080   43.0960 C   0  0  0  0  0  0  0  0  0  0  0  0
   56.8830   30.5000   44.4340 C   0  0  0  0  0  0  0  0  0  0  0  0
   58.9220   30.5080   46.8380 C   0  0  0  0  0  0  0  0  0  0  0  0
   60.0500   30.7690   47.6390 C   0  0  0  0  0  0  0  0  0  0  0  0
   60.7420   29.7190   48.2500 C   0  0  0  0  0  0  0  0  0  0  0  0
   60.3140   28.4010   48.0720 C   0  0  0  0  0  0  0  0  0  0  0  0
   59.1930   28.1310   47.2840 C   0  0  0  0  0  0  0  0  0  0  0  0
   58.4980   29.1770   46.6710 C   0  0  0  0  0  0  0  0  0  0  0  0
   57.3676   33.9456   45.2535 H   0  0  0  0  0  0  0  0  0  0  0  0
   56.9247   34.6858   46.8301 H   0  0  0  0  0  0  0  0  0  0  0  0
   60.9754   33.7711   45.0642 H   0  0  0  0  0  0  0  0  0  0  0  0
   63.1026   33.0118   46.1172 H   0  0  0  0  0  0  0  0  0  0  0  0
   61.6162   34.2144   49.9975 H   0  0  0  0  0  0  0  0  0  0  0  0
   59.4836   34.9766   48.9484 H   0  0  0  0  0  0  0  0  0  0  0  0
   59.0738   33.1198   44.1779 H   0  0  0  0  0  0  0  0  0  0  0  0
   58.3627   32.9534   41.7924 H   0  0  0  0  0  0  0  0  0  0  0  0
   56.7074   31.2206   41.0967 H   0  0  0  0  0  0  0  0  0  0  0  0
   55.7659   29.6406   42.7872 H   0  0  0  0  0  0  0  0  0  0  0  0
   56.4676   29.8019   45.1757 H   0  0  0  0  0  0  0  0  0  0  0  0
   60.3889   31.8053   47.7850 H   0  0  0  0  0  0  0  0  0  0  0  0
   61.6245   29.9308   48.8716 H   0  0  0  0  0  0  0  0  0  0  0  0
   60.8600   27.5758   48.5526 H   0  0  0  0  0  0  0  0  0  0  0  0
   58.8565   27.0929   47.1456 H   0  0  0  0  0  0  0  0  0  0  0  0
   57.6139   28.9583   46.0541 H   0  0  0  0  0  0  0  0  0  0  0  0
  1  2  2  0
  2  3  1  0
  3  4  1  0
  4  5  1  0
  5  6  2  0
  6  7  1  0
  7  8  2  0
  8  9  1  0
  8 10  1  0
 10 11  2  0
  2 12  1  0
 12 13  1  0
 13 14  2  0
 14 15  1  0
 15 16  2  0
 16 17  1  0
 17 18  2  0
 12 19  1  0
 19 20  2  0
 20 21  1  0
 21 22  2  0
 22 23  1  0
 23 24  2  0
 11  5  1  0
 18 13  1  0
 24 19  1  0
  3 25  1  0
  3 26  1  0
  6 27  1  0
  7 28  1  0
 10 29  1  0
 11 30  1  0
 14 31  1  0
 15 32  1  0
 16 33  1  0
 17 34  1  0
 18 35  1  0
 20 36  1  0
 21 37  1  0
 22 38  1  0
 23 39  1  0
 24 40  1  0
M  END
>  <UniqueID>  (21) 
20

>  <SMILES>  (21) 
O=C(COc1ccc(Cl)cc1)N(c1ccccc1)c1ccccc1

>  <Energy>  (21) 
51.6586889652581

>  <Genealogy>  (21) 
O=C(COc1ccc(Cl)cc1)N(c1ccccc1)c1ccccc1 (3D coordinates assigned)
O=C(COc1ccc(Cl)cc1)N(c1ccccc1)c1ccccc1 (optimized conformer: 51.6586889652581 kcal/mol)

>  <smiles>  (21) 
O=C(COc1ccc(Cl)cc1)N(c1ccccc1)c1ccccc1

>  <score_type>  (21) 
oracle

>  <origin>  (21) 
adg

>  <m_score__min__energy>  (21) 
-7.3899999999999997

>  <m_primary>  (21) 
energy

$$$$
21:0
     RDKit          3D

 18 18  0  0  0  0  0  0  0  0999 V2000
   57.7020   32.7200   44.8100 C   0  0  0  0  0  0  0  0  0  0  0  0
   57.0190   31.4920   45.0330 O   0  0  0  0  0  0  0  0  0  0  0  0
   57.5690   30.2480   44.7010 C   0  0  0  0  0  0  0  0  0  0  0  0
   58.7990   29.8890   45.1600 N   0  0  0  0  0  0  0  0  0  0  0  0
   59.3480   28.6880   44.8480 C   0  0  0  0  0  0  0  0  0  0  0  0
   58.6390   27.7980   44.0420 C   0  0  0  0  0  0  0  0  0  0  0  0
   57.4080   28.1470   43.5780 N   0  0  0  0  0  0  0  0  0  0  0  0
   56.8510   29.3530   43.8880 C   0  0  0  0  0  0  0  0  0  0  0  0
   55.4930   29.7210   43.3680 C   0  0  0  0  0  0  0  0  0  0  0  0
   57.9570   33.1785   45.7768 H   0  0  0  0  0  0  0  0  0  0  0  0
   58.6234   32.5289   44.2404 H   0  0  0  0  0  0  0  0  0  0  0  0
   57.0536   33.4020   44.2404 H   0  0  0  0  0  0  0  0  0  0  0  0
   60.3445   28.4186   45.2279 H   0  0  0  0  0  0  0  0  0  0  0  0
   59.0717   26.8204   43.7829 H   0  0  0  0  0  0  0  0  0  0  0  0
   56.8920   27.4670   42.9760 H   0  0  0  0  0  0  0  0  0  0  0  0
   54.8140   29.9050   44.2137 H   0  0  0  0  0  0  0  0  0  0  0  0
   55.5695   30.6308   42.7545 H   0  0  0  0  0  0  0  0  0  0  0  0
   55.0996   28.8971   42.7545 H   0  0  0  0  0  0  0  0  0  0  0  0
  1  2  1  0
  2  3  1  0
  3  4  2  0
  4  5  1  0
  5  6  2  0
  6  7  1  0
  7  8  2  0
  8  9  1  0
  8  3  1  0
  1 10  1  0
  1 11  1  0
  1 12  1  0
  5 13  1  0
  6 14  1  0
  7 15  1  0
  9 16  1  0
  9 17  1  0
  9 18  1  0
M  CHG  1   7   1
M  END
>  <UniqueID>  (22) 
21

>  <SMILES>  (22) 
COc1ncc[nH+]c1C

>  <Energy>  (22) 
14.767615279164426

>  <Genealogy>  (22) 
COc1ncc[nH+]c1C (protonated)
COc1ncc[nH+]c1C (3D coordinates assigned)
COc1ncc[nH+]c1C (optimized conformer: 14.767615279164426 kcal/mol)

>  <smiles>  (22) 
COc1nccnc1C

>  <score_type>  (22) 
oracle

>  <origin>  (22) 
adg

>  <m_score__min__energy>  (22) 
-2.4399999999999999

>  <m_primary>  (22) 
energy

$$$$
22:0
     RDKit          3D

 49 52  0  0  0  0  0  0  0  0999 V2000
   57.1013   27.6640   47.0608 H   0  0  0  0  0  0  0  0  0  0  0  0
   57.0840   27.3810   45.9980 C   0  0  0  0  0  0  0  0  0  0  0  0
   57.5560   28.2470   45.0930 C   0  0  0  0  0  0  0  0  0  0  0  0
   58.0055   27.8526   44.1698 H   0  0  0  0  0  0  0  0  0  0  0  0
   57.4980   29.7070   45.2830 C   0  0  0  0  0  0  0  0  0  0  0  0
   56.4700   30.4650   44.8350 N   0  0  0  0  0  0  0  0  0  0  0  0
   56.6870   31.7350   45.1620 N   0  0  0  0  0  0  0  0  0  0  0  0
   57.8530   31.7830   45.8290 C   0  0  0  0  0  0  0  0  0  0  0  0
   58.4590   32.9020   46.3900 C   0  0  0  0  0  0  0  0  0  0  0  0
   58.0065   33.8995   46.2890 H   0  0  0  0  0  0  0  0  0  0  0  0
   59.6730   32.7230   47.0940 C   0  0  0  0  0  0  0  0  0  0  0  0
   60.3550   33.8540   47.6780 N   0  0  0  0  0  0  0  0  0  0  0  0
   59.8210   34.7200   47.4330 H   0  0  0  0  0  0  0  0  0  0  0  0
   61.3070   33.9800   47.2670 H   0  0  0  0  0  0  0  0  0  0  0  0
   60.4460   33.6980   49.1150 C   0  0  0  0  0  0  0  0  0  0  0  0
   59.2690   33.4730   49.8560 C   0  0  0  0  0  0  0  0  0  0  0  0
   58.2944   33.4947   49.3463 H   0  0  0  0  0  0  0  0  0  0  0  0
   59.3230   33.2230   51.2280 C   0  0  0  0  0  0  0  0  0  0  0  0
   58.3938   33.0573   51.7929 H   0  0  0  0  0  0  0  0  0  0  0  0
   60.5510   33.1830   51.8830 C   0  0  0  0  0  0  0  0  0  0  0  0
   60.5907   32.9793   52.9632 H   0  0  0  0  0  0  0  0  0  0  0  0
   61.7320   33.4010   51.1710 C   0  0  0  0  0  0  0  0  0  0  0  0
   62.6990   33.3579   51.6935 H   0  0  0  0  0  0  0  0  0  0  0  0
   61.6970   33.6750   49.7930 C   0  0  0  0  0  0  0  0  0  0  0  0
   62.9800   33.9070   49.1030 C   0  0  0  0  0  0  0  0  0  0  0  0
   64.0660   33.8370   49.7390 O   0  0  0  0  0  0  0  0  0  0  0  0
   62.9860   34.1860   47.6990 N   0  0  0  0  0  0  0  0  0  0  0  0
   63.4910   33.2600   46.6920 C   0  0  0  0  0  0  0  0  0  0  0  0
   64.5359   33.5134   46.4595 H   0  0  0  0  0  0  0  0  0  0  0  0
   62.8689   33.3445   45.7888 H   0  0  0  0  0  0  0  0  0  0  0  0
   63.4250   31.8240   47.2020 C   0  0  0  0  0  0  0  0  0  0  0  0
   63.4251   31.8252   48.3020 H   0  0  0  0  0  0  0  0  0  0  0  0
   62.5040   31.3468   46.8359 H   0  0  0  0  0  0  0  0  0  0  0  0
   64.2984   31.2644   46.8359 H   0  0  0  0  0  0  0  0  0  0  0  0
   60.2080   31.4130   47.2380 C   0  0  0  0  0  0  0  0  0  0  0  0
   61.1382   31.2660   47.8064 H   0  0  0  0  0  0  0  0  0  0  0  0
   59.5630   30.3030   46.6630 C   0  0  0  0  0  0  0  0  0  0  0  0
   59.9670   29.2867   46.7812 H   0  0  0  0  0  0  0  0  0  0  0  0
   58.3940   30.5340   45.9380 C   0  0  0  0  0  0  0  0  0  0  0  0
   56.5410   26.0600   45.6230 C   0  0  0  0  0  0  0  0  0  0  0  0
   55.2840   25.6880   46.0030 N   0  0  0  0  0  0  0  0  0  0  0  0
   54.7600   24.4770   45.6740 C   0  0  0  0  0  0  0  0  0  0  0  0
   53.7420   24.2124   45.9958 H   0  0  0  0  0  0  0  0  0  0  0  0
   55.5140   23.5700   44.9280 C   0  0  0  0  0  0  0  0  0  0  0  0
   55.0962   22.5884   44.6597 H   0  0  0  0  0  0  0  0  0  0  0  0
   56.8030   23.9210   44.5260 C   0  0  0  0  0  0  0  0  0  0  0  0
   57.4079   23.2158   43.9371 H   0  0  0  0  0  0  0  0  0  0  0  0
   57.3240   25.1700   44.8730 C   0  0  0  0  0  0  0  0  0  0  0  0
   58.3400   25.4532   44.5606 H   0  0  0  0  0  0  0  0  0  0  0  0
  1  2  1  0
  2  3  2  0
  3  4  1  0
  3  5  1  0
  5  6  1  0
  6  7  1  0
  7  8  2  0
  8  9  1  0
  9 10  1  0
  9 11  2  0
 11 12  1  0
 12 13  1  0
 12 14  1  0
 12 15  1  0
 15 16  2  0
 16 17  1  0
 16 18  1  0
 18 19  1  0
 18 20  2  0
 20 21  1  0
 20 22  1  0
 22 23  1  0
 22 24  2  0
 24 25  1  0
 25 26  2  0
 25 27  1  0
 27 28  1  0
 28 29  1  0
 28 30  1  0
 28 31  1  0
 31 32  1  0
 31 33  1  0
 31 34  1  0
 11 35  1  0
 35 36  1  0
 35 37  2  0
 37 38  1  0
 37 39  1  0
  2 40  1  0
 40 41  2  0
 41 42  1  0
 42 43  1  0
 42 44  2  0
 44 45  1  0
 44 46  1  0
 46 47  1  0
 46 48  2  0
 48 49  1  0
 39  5  2  0
 48 40  1  0
 39  8  1  0
 24 15  1  0
M  CHG  3   6  -1  12   1  27  -1
M  END
>  <UniqueID>  (23) 
22

>  <SMILES>  (23) 
CC[N-]C(=O)c1ccccc1[NH2+]c1ccc2c(/C=C/c3ccccn3)[n-]nc2c1

>  <Energy>  (23) 
98.52035873329793

>  <Genealogy>  (23) 
CC[N-]C(=O)c1ccccc1[NH2+]c1ccc2c(C=Cc3ccccn3)[n-]nc2c1 (protonated)
CC[N-]C(=O)c1ccccc1[NH2+]c1ccc2c(/C=C/c3ccccn3)[n-]nc2c1 (cis-trans isomerization)
CC[N-]C(=O)c1ccccc1[NH2+]c1ccc2c(/C=C/c3ccccn3)[n-]nc2c1 (3D coordinates assigned)
CC[N-]C(=O)c1ccccc1[NH2+]c1ccc2c(/C=C/c3ccccn3)[n-]nc2c1 (optimized conformer: 98.52035873329793 kcal/mol)

>  <smiles>  (23) 
CCNC(=O)c1ccccc1Nc1ccc2c(C=Cc3ccccn3)[nH]nc2c1

>  <score_type>  (23) 
oracle

>  <origin>  (23) 
adg

>  <m_score__min__energy>  (23) 
-10.960000000000001

>  <m_primary>  (23) 
energy

$$$$
23:0
     RDKit          3D

 45 48  0  0  0  0  0  0  0  0999 V2000
   56.3940   30.4170   44.7830 O   0  0  0  0  0  0  0  0  0  0  0  0
   57.5040   30.7630   45.2660 C   0  0  0  0  0  0  0  0  0  0  0  0
   57.7720   32.1960   45.5690 C   0  0  0  0  0  0  0  0  0  0  0  0
   57.4440   33.0970   44.6850 N   0  0  0  0  0  0  0  0  0  0  0  0
   57.6870   34.5280   44.8670 C   0  0  0  0  0  0  0  0  0  0  0  0
   59.0340   34.7570   45.5610 C   0  0  0  0  0  0  0  0  0  0  0  0
   59.1130   33.9010   46.7990 C   0  0  0  0  0  0  0  0  0  0  0  0
   59.8240   34.3450   47.9240 C   0  0  0  0  0  0  0  0  0  0  0  0
   59.8740   33.5570   49.0880 C   0  0  0  0  0  0  0  0  0  0  0  0
   60.5650   33.9580   50.2400 O   0  0  0  0  0  0  0  0  0  0  0  0
   61.9410   33.6830   50.4930 C   0  0  0  0  0  0  0  0  0  0  0  0
   62.6020   33.2660   49.2120 C   0  0  0  0  0  0  0  0  0  0  0  0
   63.1870   34.2270   48.3700 C   0  0  0  0  0  0  0  0  0  0  0  0
   63.7690   33.8410   47.1590 C   0  0  0  0  0  0  0  0  0  0  0  0
   63.7630   32.4970   46.7760 C   0  0  0  0  0  0  0  0  0  0  0  0
   63.1670   31.5370   47.6000 C   0  0  0  0  0  0  0  0  0  0  0  0
   62.5840   31.9190   48.8120 C   0  0  0  0  0  0  0  0  0  0  0  0
   59.2040   32.3300   49.1120 C   0  0  0  0  0  0  0  0  0  0  0  0
   58.5090   31.8740   47.9880 C   0  0  0  0  0  0  0  0  0  0  0  0
   58.4900   32.6360   46.8060 C   0  0  0  0  0  0  0  0  0  0  0  0
   58.5090   29.7060   45.5220 C   0  0  0  0  0  0  0  0  0  0  0  0
   58.2330   28.7040   46.4660 C   0  0  0  0  0  0  0  0  0  0  0  0
   59.1760   27.7080   46.7360 C   0  0  0  0  0  0  0  0  0  0  0  0
   60.4090   27.7140   46.0780 C   0  0  0  0  0  0  0  0  0  0  0  0
   60.7020   28.7190   45.1540 C   0  0  0  0  0  0  0  0  0  0  0  0
   59.7610   29.7160   44.8790 C   0  0  0  0  0  0  0  0  0  0  0  0
   57.6971   35.0218   43.8841 H   0  0  0  0  0  0  0  0  0  0  0  0
   56.8867   34.9490   45.4933 H   0  0  0  0  0  0  0  0  0  0  0  0
   59.8505   34.4864   44.8753 H   0  0  0  0  0  0  0  0  0  0  0  0
   59.1267   35.8167   45.8413 H   0  0  0  0  0  0  0  0  0  0  0  0
   60.3446   35.3136   47.8956 H   0  0  0  0  0  0  0  0  0  0  0  0
   62.4316   34.5869   50.8834 H   0  0  0  0  0  0  0  0  0  0  0  0
   62.0272   32.8751   51.2346 H   0  0  0  0  0  0  0  0  0  0  0  0
   63.1870   35.2868   48.6648 H   0  0  0  0  0  0  0  0  0  0  0  0
   64.2322   34.5960   46.5068 H   0  0  0  0  0  0  0  0  0  0  0  0
   64.2273   32.1941   45.8259 H   0  0  0  0  0  0  0  0  0  0  0  0
   63.1569   30.4804   47.2943 H   0  0  0  0  0  0  0  0  0  0  0  0
   62.1097   31.1626   49.4546 H   0  0  0  0  0  0  0  0  0  0  0  0
   59.2240   31.7169   50.0251 H   0  0  0  0  0  0  0  0  0  0  0  0
   57.9739   30.9137   48.0283 H   0  0  0  0  0  0  0  0  0  0  0  0
   57.2692   28.7027   46.9962 H   0  0  0  0  0  0  0  0  0  0  0  0
   58.9473   26.9186   47.4672 H   0  0  0  0  0  0  0  0  0  0  0  0
   61.1485   26.9272   46.2880 H   0  0  0  0  0  0  0  0  0  0  0  0
   61.6752   28.7264   44.6413 H   0  0  0  0  0  0  0  0  0  0  0  0
   60.0001   30.5111   44.1575 H   0  0  0  0  0  0  0  0  0  0  0  0
  1  2  2  0
  2  3  1  0
  3  4  2  0
  4  5  1  0
  5  6  1  0
  6  7  1  0
  7  8  2  0
  8  9  1  0
  9 10  1  0
 10 11  1  0
 11 12  1  0
 12 13  2  0
 13 14  1  0
 14 15  2  0
 15 16  1  0
 16 17  2  0
  9 18  2  0
 18 19  1  0
 19 20  2  0
  2 21  1  0
 21 22  2  0
 22 23  1  0
 23 24  2  0
 24 25  1  0
 25 26  2  0
 20  3  1  0
 26 21  1  0
 20  7  1  0
 17 12  1  0
  5 27  1  0
  5 28  1  0
  6 29  1  0
  6 30  1  0
  8 31  1  0
 11 32  1  0
 11 33  1  0
 13 34  1  0
 14 35  1  0
 15 36  1  0
 16 37  1  0
 17 38  1  0
 18 39  1  0
 19 40  1  0
 22 41  1  0
 23 42  1  0
 24 43  1  0
 25 44  1  0
 26 45  1  0
M  END
>  <UniqueID>  (24) 
23

>  <SMILES>  (24) 
O=C(C1=NCCc2cc(OCc3ccccc3)ccc21)c1ccccc1

>  <Energy>  (24) 
60.26551958732903

>  <Genealogy>  (24) 
O=C(C1=NCCc2cc(OCc3ccccc3)ccc21)c1ccccc1 (3D coordinates assigned)
O=C(C1=NCCc2cc(OCc3ccccc3)ccc21)c1ccccc1 (nonaromatic ring conformer: 60.26551958732903 kcal/mol)

>  <smiles>  (24) 
O=C(C1=NCCc2cc(OCc3ccccc3)ccc21)c1ccccc1

>  <score_type>  (24) 
oracle

>  <origin>  (24) 
adg

>  <m_score__min__energy>  (24) 
-9.1400000000000006

>  <m_primary>  (24) 
energy

$$$$
24:0
     RDKit          3D

 32 34  0  0  0  0  0  0  0  0999 V2000
   54.9520   26.7820   46.9060 H   0  0  0  0  0  0  0  0  0  0  0  0
   56.4160   30.9630   44.5230 N   0  0  0  0  0  0  0  0  0  0  0  0
   56.7900   29.7610   44.8490 C   0  0  0  0  0  0  0  0  0  0  0  0
   57.6250   27.2620   45.5290 N   0  0  0  0  0  0  0  0  0  0  0  0
   58.5260   28.1880   45.1120 C   0  0  0  0  0  0  0  0  0  0  0  0
   59.9820   27.8470   45.0640 C   0  0  0  0  0  0  0  0  0  0  0  0
   60.1592   26.9315   45.6474 H   0  0  0  0  0  0  0  0  0  0  0  0
   60.2774   27.6906   44.0160 H   0  0  0  0  0  0  0  0  0  0  0  0
   60.7600   28.9100   45.6100 O   0  0  0  0  0  0  0  0  0  0  0  0
   60.3070   29.7500   46.6340 C   0  0  0  0  0  0  0  0  0  0  0  0
   59.7740   30.9710   46.3590 N   0  0  0  0  0  0  0  0  0  0  0  0
   59.3320   31.7790   47.3240 N   0  0  0  0  0  0  0  0  0  0  0  0
   58.9450   32.7110   47.0520 H   0  0  0  0  0  0  0  0  0  0  0  0
   59.3830   31.4120   48.6380 C   0  0  0  0  0  0  0  0  0  0  0  0
   58.9220   32.3600   49.7140 C   0  0  0  0  0  0  0  0  0  0  0  0
   59.2350   33.6640   49.3770 F   0  0  0  0  0  0  0  0  0  0  0  0
   59.5500   32.0390   50.9030 F   0  0  0  0  0  0  0  0  0  0  0  0
   57.5520   32.2740   49.8900 F   0  0  0  0  0  0  0  0  0  0  0  0
   59.9520   30.1760   48.9720 C   0  0  0  0  0  0  0  0  0  0  0  0
   60.0370   29.8716   50.0256 H   0  0  0  0  0  0  0  0  0  0  0  0
   60.4090   29.3360   47.9600 C   0  0  0  0  0  0  0  0  0  0  0  0
   60.8456   28.3565   48.2049 H   0  0  0  0  0  0  0  0  0  0  0  0
   58.1060   29.4370   44.7790 N   0  0  0  0  0  0  0  0  0  0  0  0
   56.3080   27.5780   45.6010 C   0  0  0  0  0  0  0  0  0  0  0  0
   55.4540   26.6900   45.9940 N   0  0  0  0  0  0  0  0  0  0  0  0
   57.1070   32.1850   44.8200 C   0  0  0  0  0  0  0  0  0  0  0  0
   57.0470   32.8380   46.0020 N   0  0  0  0  0  0  0  0  0  0  0  0
   57.7820   33.9490   46.0220 N   0  0  0  0  0  0  0  0  0  0  0  0
   58.4310   34.1890   44.8600 C   0  0  0  0  0  0  0  0  0  0  0  0
   59.0859   35.0539   44.6780 H   0  0  0  0  0  0  0  0  0  0  0  0
   58.1010   32.9840   43.7280 S   0  0  0  0  0  0  0  0  0  0  0  0
   55.8920   28.8260   45.2610 N   0  0  0  0  0  0  0  0  0  0  0  0
  1  2  1  0
  2  3  2  0
  3  4  1  0
  4  5  1  0
  5  6  1  0
  6  7  1  0
  6  8  1  0
  6  9  1  0
  9 10  1  0
 10 11  2  0
 11 12  1  0
 12 13  1  0
 12 14  2  0
 14 15  1  0
 15 16  1  0
 15 17  1  0
 15 18  1  0
 14 19  1  0
 19 20  1  0
 19 21  2  0
 21 22  1  0
  5 23  2  0
 23 24  1  0
 24 25  2  0
 25 26  1  0
 26 27  2  0
 27 28  1  0
 28 29  2  0
 29 30  1  0
 29 31  1  0
 24 32  1  0
 32  3  1  0
 21 10  1  0
 31 26  1  0
M  CHG  3   4  -1  12   1  32  -1
M  END
>  <UniqueID>  (25) 
24

>  <SMILES>  (25) 
[H]/N=c1/[n-]c(COc2ccc(C(F)(F)F)[nH+]n2)n/c(=N/c2nncs2)[n-]1

>  <Energy>  (25) 
69.3270543700006

>  <Genealogy>  (25) 
N=c1[n-]c(COc2ccc(C(F)(F)F)[nH+]n2)nc(=Nc2nncs2)[n-]1 (protonated)
[H]/N=c1/[n-]c(COc2ccc(C(F)(F)F)[nH+]n2)n/c(=N/c2nncs2)[n-]1 (cis-trans isomerization)
[H]/N=c1/[n-]c(COc2ccc(C(F)(F)F)[nH+]n2)n/c(=N/c2nncs2)[n-]1 (3D coordinates assigned)
[H]/N=c1/[n-]c(COc2ccc(C(F)(F)F)[nH+]n2)n/c(=N/c2nncs2)[n-]1 (optimized conformer: 69.3270543700006 kcal/mol)

>  <smiles>  (25) 
N=c1[nH]c(COc2ccc(C(F)(F)F)nn2)nc(=Nc2nncs2)[nH]1

>  <score_type>  (25) 
oracle

>  <origin>  (25) 
adg

>  <m_score__min__energy>  (25) 
-8.8499999999999996

>  <m_primary>  (25) 
energy

$$$$
25:0
     RDKit          3D

 44 46  0  0  0  0  0  0  0  0999 V2000
   58.0110   26.4550   44.4850 C   0  0  0  0  0  0  0  0  0  0  0  0
   57.3790   27.0750   45.5660 C   0  0  0  0  0  0  0  0  0  0  0  0
   56.7740   28.3260   45.4020 C   0  0  0  0  0  0  0  0  0  0  0  0
   56.8170   28.9770   44.1560 C   0  0  0  0  0  0  0  0  0  0  0  0
   56.1960   30.3460   43.9810 C   0  0  0  0  0  0  0  0  0  0  0  0
   56.7640   31.3490   44.8990 N   0  0  0  0  0  0  0  0  0  0  0  0
   57.9590   32.0360   44.3790 C   0  0  0  0  0  0  0  0  0  0  0  0
   58.5250   33.0570   45.3440 C   0  0  0  0  0  0  0  0  0  0  0  0
   58.9320   34.3120   44.8600 C   0  0  0  0  0  0  0  0  0  0  0  0
   59.4900   35.2570   45.7210 C   0  0  0  0  0  0  0  0  0  0  0  0
   59.6430   34.9640   47.0760 C   0  0  0  0  0  0  0  0  0  0  0  0
   59.2230   33.7320   47.5760 C   0  0  0  0  0  0  0  0  0  0  0  0
   58.6490   32.7690   46.7220 C   0  0  0  0  0  0  0  0  0  0  0  0
   58.1960   31.5260   47.2000 O   0  0  0  0  0  0  0  0  0  0  0  0
   58.9060   30.6710   48.0960 C   0  0  0  0  0  0  0  0  0  0  0  0
   59.5410   29.5270   47.3500 C   0  0  0  0  0  0  0  0  0  0  0  0
   60.0030   29.7140   46.0370 C   0  0  0  0  0  0  0  0  0  0  0  0
   60.6000   28.6560   45.3430 C   0  0  0  0  0  0  0  0  0  0  0  0
   60.7470   27.4100   45.9580 C   0  0  0  0  0  0  0  0  0  0  0  0
   60.3000   27.2200   47.2680 C   0  0  0  0  0  0  0  0  0  0  0  0
   59.7020   28.2750   47.9660 C   0  0  0  0  0  0  0  0  0  0  0  0
   57.4260   28.3290   43.0670 C   0  0  0  0  0  0  0  0  0  0  0  0
   58.0300   27.0790   43.2360 C   0  0  0  0  0  0  0  0  0  0  0  0
   58.4935   25.4755   44.6179 H   0  0  0  0  0  0  0  0  0  0  0  0
   57.3570   26.5789   46.5475 H   0  0  0  0  0  0  0  0  0  0  0  0
   56.2625   28.8024   46.2513 H   0  0  0  0  0  0  0  0  0  0  0  0
   56.3653   30.6797   42.9466 H   0  0  0  0  0  0  0  0  0  0  0  0
   55.1236   30.2563   44.2088 H   0  0  0  0  0  0  0  0  0  0  0  0
   56.9420   30.9490   45.8470 H   0  0  0  0  0  0  0  0  0  0  0  0
   58.7336   31.2828   44.1723 H   0  0  0  0  0  0  0  0  0  0  0  0
   57.6568   32.5765   43.4699 H   0  0  0  0  0  0  0  0  0  0  0  0
   58.8095   34.5511   43.7933 H   0  0  0  0  0  0  0  0  0  0  0  0
   59.8098   36.2345   45.3308 H   0  0  0  0  0  0  0  0  0  0  0  0
   60.0954   35.7055   47.7509 H   0  0  0  0  0  0  0  0  0  0  0  0
   59.3408   33.5097   48.6468 H   0  0  0  0  0  0  0  0  0  0  0  0
   59.6909   31.2514   48.6030 H   0  0  0  0  0  0  0  0  0  0  0  0
   58.1972   30.2632   48.8317 H   0  0  0  0  0  0  0  0  0  0  0  0
   59.8951   30.6957   45.5526 H   0  0  0  0  0  0  0  0  0  0  0  0
   60.9540   28.8052   44.3123 H   0  0  0  0  0  0  0  0  0  0  0  0
   61.2148   26.5784   45.4106 H   0  0  0  0  0  0  0  0  0  0  0  0
   60.4184   26.2391   47.7516 H   0  0  0  0  0  0  0  0  0  0  0  0
   59.3572   28.1235   48.9995 H   0  0  0  0  0  0  0  0  0  0  0  0
   57.4274   28.8078   42.0767 H   0  0  0  0  0  0  0  0  0  0  0  0
   58.5208   26.5866   42.3836 H   0  0  0  0  0  0  0  0  0  0  0  0
  1  2  2  0
  2  3  1  0
  3  4  2  0
  4  5  1  0
  5  6  1  0
  6  7  1  0
  7  8  1  0
  8  9  2  0
  9 10  1  0
 10 11  2  0
 11 12  1  0
 12 13  2  0
 13 14  1  0
 14 15  1  0
 15 16  1  0
 16 17  2  0
 17 18  1  0
 18 19  2  0
 19 20  1  0
 20 21  2  0
  4 22  1  0
 22 23  2  0
 23  1  1  0
 13  8  1  0
 21 16  1  0
  1 24  1  0
  2 25  1  0
  3 26  1  0
  5 27  1  0
  5 28  1  0
  6 29  1  0
  7 30  1  0
  7 31  1  0
  9 32  1  0
 10 33  1  0
 11 34  1  0
 12 35  1  0
 15 36  1  0
 15 37  1  0
 17 38  1  0
 18 39  1  0
 19 40  1  0
 20 41  1  0
 21 42  1  0
 22 43  1  0
 23 44  1  0
M  END
>  <UniqueID>  (26) 
25

>  <SMILES>  (26) 
c1ccc(CNCc2ccccc2OCc2ccccc2)cc1

>  <Energy>  (26) 
46.13872147984986

>  <Genealogy>  (26) 
c1ccc(CNCc2ccccc2OCc2ccccc2)cc1 (3D coordinates assigned)
c1ccc(CNCc2ccccc2OCc2ccccc2)cc1 (optimized conformer: 46.13872147984986 kcal/mol)

>  <smiles>  (26) 
c1ccc(CNCc2ccccc2OCc2ccccc2)cc1

>  <score_type>  (26) 
oracle

>  <origin>  (26) 
adg

>  <m_score__min__energy>  (26) 
-7.2999999999999998

>  <m_primary>  (26) 
energy

$$$$
26:0
     RDKit          3D

 45 48  0  0  1  0  0  0  0  0999 V2000
   60.7480   29.2720   48.8400 C   0  0  0  0  0  0  0  0  0  0  0  0
   60.8810   29.8810   47.6070 C   0  0  0  0  0  0  0  0  0  0  0  0
   60.1450   29.5160   46.5000 C   0  0  0  0  0  0  0  0  0  0  0  0
   59.2180   28.4900   46.5940 C   0  0  0  0  0  0  0  0  0  0  0  0
   58.4540   28.1050   45.4560 N   0  0  0  0  0  0  0  0  0  0  0  0
   57.7510   28.9600   44.7870 C   0  0  0  0  0  0  0  0  0  0  0  0
   57.1590   28.5090   43.6560 N   0  0  0  0  0  0  0  0  0  0  0  0
   56.4150   29.3520   42.9180 C   0  0  0  0  0  0  0  0  0  0  0  0
   56.2740   30.6680   43.3380 C   0  0  0  0  0  0  0  0  0  0  0  0
   56.8900   31.0970   44.4940 C   0  0  0  0  0  0  0  0  0  0  0  0
   56.7420   32.3030   44.8520 N   0  0  0  0  0  0  0  0  0  0  0  0
   57.7420   32.9870   45.6020 C   0  0  0  0  0  0  0  0  0  0  0  0
   57.8220   32.6760   46.9520 C   0  0  0  0  0  0  0  0  0  0  0  0
   58.7680   33.2900   47.7770 C   0  0  0  0  0  0  0  0  0  0  0  0
   59.6110   34.2120   47.1850 C   0  0  0  0  0  0  0  0  0  0  0  0
   60.5640   34.8320   48.0110 O   0  0  0  0  0  0  0  0  0  0  0  0
   61.7630   34.1860   48.3320 C   0  0  0  0  0  0  0  0  0  0  0  0
   62.2740   34.2000   49.6180 C   0  0  0  0  0  0  0  0  0  0  0  0
   63.4620   33.5370   49.8460 C   0  0  0  0  0  0  0  0  0  0  0  0
   64.1250   32.8750   48.8150 C   0  0  0  0  0  0  0  0  0  0  0  0
   63.6040   32.8690   47.5380 C   0  0  0  0  0  0  0  0  0  0  0  0
   62.4120   33.5340   47.3030 C   0  0  0  0  0  0  0  0  0  0  0  0
   59.5470   34.5350   45.8430 C   0  0  0  0  0  0  0  0  0  0  0  0
   58.5940   33.9110   45.0320 C   0  0  0  0  0  0  0  0  0  0  0  0
   57.6290   30.2320   45.2140 N   0  0  0  0  0  0  0  0  0  0  0  0
   59.0620   27.8620   47.8120 C   0  0  0  0  0  0  0  0  0  0  0  0
   59.8080   28.2430   48.9060 C   0  0  0  0  0  0  0  0  0  0  0  0
   61.3440   29.5782   49.7123 H   0  0  0  0  0  0  0  0  0  0  0  0
   61.6105   30.6978   47.5035 H   0  0  0  0  0  0  0  0  0  0  0  0
   60.2933   30.0384   45.5434 H   0  0  0  0  0  0  0  0  0  0  0  0
   57.2580   27.5210   43.3320 H   0  0  0  0  0  0  0  0  0  0  0  0
   55.9258   29.0044   41.9961 H   0  0  0  0  0  0  0  0  0  0  0  0
   55.6687   31.3704   42.7462 H   0  0  0  0  0  0  0  0  0  0  0  0
   57.1303   31.9350   47.3791 H   0  0  0  0  0  0  0  0  0  0  0  0
   58.8387   33.0507   48.8483 H   0  0  0  0  0  0  0  0  0  0  0  0
   61.7500   34.7227   50.4318 H   0  0  0  0  0  0  0  0  0  0  0  0
   63.8927   33.5309   50.8581 H   0  0  0  0  0  0  0  0  0  0  0  0
   65.0712   32.3531   49.0210 H   0  0  0  0  0  0  0  0  0  0  0  0
   64.1249   32.3464   46.7222 H   0  0  0  0  0  0  0  0  0  0  0  0
   61.9804   33.5426   46.2913 H   0  0  0  0  0  0  0  0  0  0  0  0
   60.2392   35.2760   45.4167 H   0  0  0  0  0  0  0  0  0  0  0  0
   58.5248   34.1518   43.9609 H   0  0  0  0  0  0  0  0  0  0  0  0
   58.1080   30.5450   46.1030 H   0  0  0  0  0  0  0  0  0  0  0  0
   58.3317   27.0454   47.9114 H   0  0  0  0  0  0  0  0  0  0  0  0
   59.6577   27.7194   49.8616 H   0  0  0  0  0  0  0  0  0  0  0  0
  1  2  2  0
  2  3  1  0
  3  4  2  0
  4  5  1  0
  5  6  2  0
  6  7  1  0
  7  8  1  0
  8  9  2  0
  9 10  1  0
 10 11  2  0
 11 12  1  0
 12 13  2  0
 13 14  1  0
 14 15  2  0
 15 16  1  0
 16 17  1  0
 17 18  2  0
 18 19  1  0
 19 20  2  0
 20 21  1  0
 21 22  2  0
 15 23  1  0
 23 24  2  0
 10 25  1  0
  4 26  1  0
 26 27  2  0
 27  1  1  0
 25  6  1  0
 24 12  1  0
 22 17  1  0
  1 28  1  0
  2 29  1  0
  3 30  1  0
  7 31  1  0
  8 32  1  0
  9 33  1  0
 13 34  1  0
 14 35  1  0
 18 36  1  0
 19 37  1  0
 20 38  1  0
 21 39  1  0
 22 40  1  0
 23 41  1  0
 24 42  1  0
 25 43  1  0
 26 44  1  0
 27 45  1  0
M  END
>  <smiles>  (27) 
c1ccc(N=c2[nH]ccc(=Nc3ccc(Oc4ccccc4)cc3)[nH]2)cc1

>  <score_type>  (27) 
oracle

>  <origin>  (27) 
adg

>  <m_score__min__energy>  (27) 
-8.6199999999999992

>  <m_primary>  (27) 
energy

$$$$
27:0
     RDKit          3D

 47 50  0  0  0  0  0  0  0  0999 V2000
   58.5080   29.7950   47.6210 O   0  0  0  0  0  0  0  0  0  0  0  0
   59.4320   30.6510   47.6610 C   0  0  0  0  0  0  0  0  0  0  0  0
   60.1190   31.0500   46.3880 C   0  0  0  0  0  0  0  0  0  0  0  0
   59.7480   32.4230   46.0070 N   0  0  0  0  0  0  0  0  0  0  0  0
   58.7190   32.7920   45.2030 C   0  0  0  0  0  0  0  0  0  0  0  0
   57.9010   31.8830   44.3720 C   0  0  0  0  0  0  0  0  0  0  0  0
   57.7700   32.1150   42.9930 C   0  0  0  0  0  0  0  0  0  0  0  0
   57.0180   31.2420   42.2010 C   0  0  0  0  0  0  0  0  0  0  0  0
   56.4050   30.1250   42.7750 C   0  0  0  0  0  0  0  0  0  0  0  0
   56.5480   29.8750   44.1420 C   0  0  0  0  0  0  0  0  0  0  0  0
   57.3000   30.7450   44.9380 C   0  0  0  0  0  0  0  0  0  0  0  0
   58.5390   34.1620   45.2490 C   0  0  0  0  0  0  0  0  0  0  0  0
   59.4970   34.6570   46.1030 C   0  0  0  0  0  0  0  0  0  0  0  0
   60.2330   33.5720   46.5450 C   0  0  0  0  0  0  0  0  0  0  0  0
   61.3380   33.6660   47.5210 C   0  0  0  0  0  0  0  0  0  0  0  0
   62.6480   33.3140   47.1590 C   0  0  0  0  0  0  0  0  0  0  0  0
   63.6820   33.3820   48.0990 C   0  0  0  0  0  0  0  0  0  0  0  0
   63.4180   33.8160   49.4000 C   0  0  0  0  0  0  0  0  0  0  0  0
   62.1220   34.1960   49.7600 C   0  0  0  0  0  0  0  0  0  0  0  0
   61.0870   34.1310   48.8230 C   0  0  0  0  0  0  0  0  0  0  0  0
   59.8380   31.2310   48.9110 N   0  0  0  0  0  0  0  0  0  0  0  0
   58.9890   31.3690   50.0640 C   0  0  0  0  0  0  0  0  0  0  0  0
   58.4280   30.2180   50.6400 C   0  0  0  0  0  0  0  0  0  0  0  0
   57.6340   30.3130   51.7870 C   0  0  0  0  0  0  0  0  0  0  0  0
   57.4080   31.5560   52.3810 C   0  0  0  0  0  0  0  0  0  0  0  0
   57.9780   32.7060   51.8310 C   0  0  0  0  0  0  0  0  0  0  0  0
   57.7780   33.9100   52.4220 F   0  0  0  0  0  0  0  0  0  0  0  0
   58.7670   32.6170   50.6800 C   0  0  0  0  0  0  0  0  0  0  0  0
   61.2081   30.9969   46.5330 H   0  0  0  0  0  0  0  0  0  0  0  0
   59.8078   30.3634   45.5869 H   0  0  0  0  0  0  0  0  0  0  0  0
   58.2606   32.9863   42.5346 H   0  0  0  0  0  0  0  0  0  0  0  0
   56.9086   31.4349   41.1236 H   0  0  0  0  0  0  0  0  0  0  0  0
   55.8099   29.4426   42.1504 H   0  0  0  0  0  0  0  0  0  0  0  0
   56.0688   28.9933   44.5926 H   0  0  0  0  0  0  0  0  0  0  0  0
   57.4217   30.5380   46.0115 H   0  0  0  0  0  0  0  0  0  0  0  0
   57.7778   34.7431   44.7079 H   0  0  0  0  0  0  0  0  0  0  0  0
   59.6485   35.7106   46.3806 H   0  0  0  0  0  0  0  0  0  0  0  0
   62.8623   32.9834   46.1320 H   0  0  0  0  0  0  0  0  0  0  0  0
   64.7042   33.0933   47.8130 H   0  0  0  0  0  0  0  0  0  0  0  0
   64.2298   33.8587   50.1411 H   0  0  0  0  0  0  0  0  0  0  0  0
   61.9164   34.5467   50.7821 H   0  0  0  0  0  0  0  0  0  0  0  0
   60.0715   34.4452   49.1060 H   0  0  0  0  0  0  0  0  0  0  0  0
   60.8120   31.6050   48.9760 H   0  0  0  0  0  0  0  0  0  0  0  0
   58.6146   29.2339   50.1854 H   0  0  0  0  0  0  0  0  0  0  0  0
   57.1868   29.4070   52.2219 H   0  0  0  0  0  0  0  0  0  0  0  0
   56.7812   31.6295   53.2819 H   0  0  0  0  0  0  0  0  0  0  0  0
   59.2167   33.5256   50.2532 H   0  0  0  0  0  0  0  0  0  0  0  0
  1  2  2  0
  2  3  1  0
  3  4  1  0
  4  5  1  0
  5  6  1  0
  6  7  2  0
  7  8  1  0
  8  9  2  0
  9 10  1  0
 10 11  2  0
  5 12  2  0
 12 13  1  0
 13 14  2  0
 14 15  1  0
 15 16  2  0
 16 17  1  0
 17 18  2  0
 18 19  1  0
 19 20  2  0
  2 21  1  0
 21 22  1  0
 22 23  2  0
 23 24  1  0
 24 25  2  0
 25 26  1  0
 26 27  1  0
 26 28  2  0
 14  4  1  0
 20 15  1  0
 28 22  1  0
 11  6  1  0
  3 29  1  0
  3 30  1  0
  7 31  1  0
  8 32  1  0
  9 33  1  0
 10 34  1  0
 11 35  1  0
 12 36  1  0
 13 37  1  0
 16 38  1  0
 17 39  1  0
 18 40  1  0
 19 41  1  0
 20 42  1  0
 21 43  1  0
 23 44  1  0
 24 45  1  0
 25 46  1  0
 28 47  1  0
M  END
>  <UniqueID>  (28) 
26

>  <SMILES>  (28) 
O=C(Cn1c(-c2ccccc2)ccc1-c1ccccc1)Nc1cccc(F)c1

>  <Energy>  (28) 
88.48481114399617

>  <Genealogy>  (28) 
O=C(Cn1c(-c2ccccc2)ccc1-c1ccccc1)Nc1cccc(F)c1 (3D coordinates assigned)
O=C(Cn1c(-c2ccccc2)ccc1-c1ccccc1)Nc1cccc(F)c1 (optimized conformer: 88.48481114399617 kcal/mol)

>  <smiles>  (28) 
O=C(Cn1c(-c2ccccc2)ccc1-c1ccccc1)Nc1cccc(F)c1

>  <score_type>  (28) 
oracle

>  <origin>  (28) 
adg

>  <m_score__min__energy>  (28) 
-8.7300000000000004

>  <m_primary>  (28) 
energy

$$$$
28:0
     RDKit          3D

 44 46  0  0  0  0  0  0  0  0999 V2000
   63.6650   33.3920   50.6210 C   0  0  0  0  0  0  0  0  0  0  0  0
   62.5320   33.0910   49.7250 N   0  0  1  0  0  0  0  0  0  0  0  0
   62.6350   33.8040   48.4270 C   0  0  0  0  0  0  0  0  0  0  0  0
   61.3150   33.9630   47.7010 C   0  0  0  0  0  0  0  0  0  0  0  0
   60.1330   34.2250   48.4160 C   0  0  0  0  0  0  0  0  0  0  0  0
   58.9160   34.3650   47.7420 C   0  0  0  0  0  0  0  0  0  0  0  0
   58.8660   34.2370   46.3500 C   0  0  0  0  0  0  0  0  0  0  0  0
   57.6860   34.3690   45.6980 F   0  0  0  0  0  0  0  0  0  0  0  0
   60.0350   33.9680   45.6320 C   0  0  0  0  0  0  0  0  0  0  0  0
   61.2550   33.8290   46.3020 C   0  0  0  0  0  0  0  0  0  0  0  0
   62.3680   31.6590   49.5470 C   0  0  0  0  0  0  0  0  0  0  0  0
   63.1950   30.8650   50.0800 O   0  0  0  0  0  0  0  0  0  0  0  0
   61.2640   31.0870   48.7230 C   0  0  0  0  0  0  0  0  0  0  0  0
   59.9470   30.9840   49.2140 C   0  0  0  0  0  0  0  0  0  0  0  0
   58.9280   30.4660   48.4090 C   0  0  0  0  0  0  0  0  0  0  0  0
   59.1930   30.0550   47.1010 C   0  0  0  0  0  0  0  0  0  0  0  0
   58.1410   29.5300   46.3340 O   0  0  0  0  0  0  0  0  0  0  0  0
   57.7250   30.0000   45.0800 C   0  0  0  0  0  0  0  0  0  0  0  0
   58.1590   31.2370   44.5620 C   0  0  0  0  0  0  0  0  0  0  0  0
   57.7110   31.6710   43.3100 C   0  0  0  0  0  0  0  0  0  0  0  0
   56.8140   30.8890   42.5760 C   0  0  0  0  0  0  0  0  0  0  0  0
   56.3620   29.6720   43.0950 C   0  0  0  0  0  0  0  0  0  0  0  0
   56.8120   29.2330   44.3440 C   0  0  0  0  0  0  0  0  0  0  0  0
   60.5070   30.1360   46.6100 C   0  0  0  0  0  0  0  0  0  0  0  0
   61.5280   30.6580   47.4090 C   0  0  0  0  0  0  0  0  0  0  0  0
   63.3379   33.3051   51.6676 H   0  0  0  0  0  0  0  0  0  0  0  0
   64.4815   32.6796   50.4317 H   0  0  0  0  0  0  0  0  0  0  0  0
   64.0203   34.4157   50.4317 H   0  0  0  0  0  0  0  0  0  0  0  0
   61.6870   33.4630   50.2160 H   0  0  0  0  0  0  0  0  0  0  0  0
   63.0483   34.8059   48.6153 H   0  0  0  0  0  0  0  0  0  0  0  0
   63.2807   33.1921   47.7799 H   0  0  0  0  0  0  0  0  0  0  0  0
   60.1659   34.3203   49.5114 H   0  0  0  0  0  0  0  0  0  0  0  0
   57.9963   34.5762   48.3074 H   0  0  0  0  0  0  0  0  0  0  0  0
   59.9953   33.8654   44.5375 H   0  0  0  0  0  0  0  0  0  0  0  0
   62.1712   33.6140   45.7325 H   0  0  0  0  0  0  0  0  0  0  0  0
   59.7190   31.3137   50.2384 H   0  0  0  0  0  0  0  0  0  0  0  0
   57.9072   30.3813   48.8100 H   0  0  0  0  0  0  0  0  0  0  0  0
   58.8518   31.8627   45.1439 H   0  0  0  0  0  0  0  0  0  0  0  0
   58.0650   32.6293   42.9021 H   0  0  0  0  0  0  0  0  0  0  0  0
   56.4641   31.2311   41.5908 H   0  0  0  0  0  0  0  0  0  0  0  0
   55.6518   29.0594   42.5203 H   0  0  0  0  0  0  0  0  0  0  0  0
   56.4467   28.2789   44.7517 H   0  0  0  0  0  0  0  0  0  0  0  0
   60.7332   29.7868   45.5917 H   0  0  0  0  0  0  0  0  0  0  0  0
   62.5488   30.7343   47.0064 H   0  0  0  0  0  0  0  0  0  0  0  0
  1  2  1  0
  2  3  1  0
  3  4  1  0
  4  5  2  0
  5  6  1  0
  6  7  2  0
  7  8  1  0
  7  9  1  0
  9 10  2  0
  2 11  1  0
 11 12  2  0
 11 13  1  0
 13 14  2  0
 14 15  1  0
 15 16  2  0
 16 17  1  0
 17 18  1  0
 18 19  2  0
 19 20  1  0
 20 21  2  0
 21 22  1  0
 22 23  2  0
 16 24  1  0
 24 25  2  0
 10  4  1  0
 25 13  1  0
 23 18  1  0
  1 26  1  0
  1 27  1  0
  1 28  1  0
  2 29  1  1
  3 30  1  0
  3 31  1  0
  5 32  1  0
  6 33  1  0
  9 34  1  0
 10 35  1  0
 14 36  1  0
 15 37  1  0
 19 38  1  0
 20 39  1  0
 21 40  1  0
 22 41  1  0
 23 42  1  0
 24 43  1  0
 25 44  1  0
M  CHG  1   2   1
M  END
>  <UniqueID>  (29) 
27

>  <SMILES>  (29) 
C[N@@H+](Cc1ccc(F)cc1)C(=O)c1ccc(Oc2ccccc2)cc1

>  <Energy>  (29) 
60.17861771917049

>  <Genealogy>  (29) 
C[NH+](Cc1ccc(F)cc1)C(=O)c1ccc(Oc2ccccc2)cc1 (protonated)
C[N@@H+](Cc1ccc(F)cc1)C(=O)c1ccc(Oc2ccccc2)cc1 (chirality)
C[N@@H+](Cc1ccc(F)cc1)C(=O)c1ccc(Oc2ccccc2)cc1 (3D coordinates assigned)
C[N@@H+](Cc1ccc(F)cc1)C(=O)c1ccc(Oc2ccccc2)cc1 (optimized conformer: 60.17861771917049 kcal/mol)

>  <smiles>  (29) 
CN(Cc1ccc(F)cc1)C(=O)c1ccc(Oc2ccccc2)cc1

>  <score_type>  (29) 
oracle

>  <origin>  (29) 
adg

>  <m_score__min__energy>  (29) 
-6.3799999999999999

>  <m_primary>  (29) 
energy

$$$$
29:0
     RDKit          3D

 25 26  0  0  0  0  0  0  0  0999 V2000
   57.7620   27.4970   45.2910 C   0  0  0  0  0  0  0  0  0  0  0  0
   58.1300   28.4260   44.1440 C   0  0  0  0  0  0  0  0  0  0  0  0
   57.8880   29.8080   44.5450 N   0  0  0  0  0  0  0  0  0  0  0  0
   58.7320   30.6700   45.0960 N   0  0  0  0  0  0  0  0  0  0  0  0
   58.0890   31.8320   45.3010 C   0  0  0  0  0  0  0  0  0  0  0  0
   58.6430   33.0490   45.8860 C   0  0  0  0  0  0  0  0  0  0  0  0
   59.0290   34.0810   45.0520 C   0  0  0  0  0  0  0  0  0  0  0  0
   59.5550   35.2340   45.6230 C   0  0  0  0  0  0  0  0  0  0  0  0
   59.6800   35.3250   46.9940 C   0  0  0  0  0  0  0  0  0  0  0  0
   59.2900   34.2810   47.8370 C   0  0  0  0  0  0  0  0  0  0  0  0
   58.7690   33.1410   47.2570 C   0  0  0  0  0  0  0  0  0  0  0  0
   56.8310   31.6530   44.8600 N   0  0  0  0  0  0  0  0  0  0  0  0
   56.6830   30.3930   44.3840 C   0  0  0  0  0  0  0  0  0  0  0  0
   55.3290   29.7160   43.7430 S   0  0  0  0  0  0  0  0  0  0  0  0
   57.9613   28.0001   46.2487 H   0  0  0  0  0  0  0  0  0  0  0  0
   56.6943   27.2403   45.2269 H   0  0  0  0  0  0  0  0  0  0  0  0
   58.3643   26.5788   45.2269 H   0  0  0  0  0  0  0  0  0  0  0  0
   59.1933   28.2970   43.8936 H   0  0  0  0  0  0  0  0  0  0  0  0
   57.5159   28.1852   43.2637 H   0  0  0  0  0  0  0  0  0  0  0  0
   59.7260   30.4440   45.3180 H   0  0  0  0  0  0  0  0  0  0  0  0
   58.9224   33.9921   43.9608 H   0  0  0  0  0  0  0  0  0  0  0  0
   59.8707   36.0715   44.9836 H   0  0  0  0  0  0  0  0  0  0  0  0
   60.0972   36.2425   47.4346 H   0  0  0  0  0  0  0  0  0  0  0  0
   59.3947   34.3646   48.9288 H   0  0  0  0  0  0  0  0  0  0  0  0
   58.4523   32.3007   47.8923 H   0  0  0  0  0  0  0  0  0  0  0  0
  1  2  1  0
  2  3  1  0
  3  4  1  0
  4  5  1  0
  5  6  1  0
  6  7  2  0
  7  8  1  0
  8  9  2  0
  9 10  1  0
 10 11  2  0
  5 12  2  0
 12 13  1  0
 13 14  2  0
 13  3  1  0
 11  6  1  0
  1 15  1  0
  1 16  1  0
  1 17  1  0
  2 18  1  0
  2 19  1  0
  4 20  1  0
  7 21  1  0
  8 22  1  0
  9 23  1  0
 10 24  1  0
 11 25  1  0
M  END
>  <smiles>  (30) 
CCn1[nH]c(-c2ccccc2)nc1=S

>  <score_type>  (30) 
oracle

>  <origin>  (30) 
adg

>  <m_score__min__energy>  (30) 
-5.7999999999999998

>  <m_primary>  (30) 
energy

$$$$
30:0
     RDKit          3D

 37 40  0  0  0  0  0  0  0  0999 V2000
   55.5980   20.8420   47.0150 N   0  0  0  0  0  0  0  0  0  0  0  0
   56.2040   21.7700   46.6810 C   0  0  0  0  0  0  0  0  0  0  0  0
   56.9570   22.9260   46.2670 C   0  0  0  0  0  0  0  0  0  0  0  0
   58.3250   22.8090   45.9920 C   0  0  0  0  0  0  0  0  0  0  0  0
   59.0580   23.9280   45.5920 C   0  0  0  0  0  0  0  0  0  0  0  0
   58.4320   25.1720   45.4630 C   0  0  0  0  0  0  0  0  0  0  0  0
   59.1430   26.2260   45.0800 O   0  0  0  0  0  0  0  0  0  0  0  0
   58.6170   27.4380   44.9370 C   0  0  0  0  0  0  0  0  0  0  0  0
   59.4320   28.4880   44.5290 C   0  0  0  0  0  0  0  0  0  0  0  0
   58.8920   29.7600   44.3760 C   0  0  0  0  0  0  0  0  0  0  0  0
   57.5690   29.9980   44.6250 N   0  0  0  0  0  0  0  0  0  0  0  0
   57.0440   31.3590   44.4130 C   0  0  0  0  0  0  0  0  0  0  0  0
   57.8510   32.3580   45.1990 C   0  0  0  0  0  0  0  0  0  0  0  0
   58.0110   32.2130   46.5870 C   0  0  0  0  0  0  0  0  0  0  0  0
   58.7340   33.1630   47.3150 C   0  0  0  0  0  0  0  0  0  0  0  0
   59.2970   34.2660   46.6650 C   0  0  0  0  0  0  0  0  0  0  0  0
   59.1360   34.4200   45.2870 C   0  0  0  0  0  0  0  0  0  0  0  0
   58.4140   33.4730   44.5540 C   0  0  0  0  0  0  0  0  0  0  0  0
   56.7370   28.9780   45.0220 C   0  0  0  0  0  0  0  0  0  0  0  0
   55.5150   29.2120   45.2350 O   0  0  0  0  0  0  0  0  0  0  0  0
   57.2470   27.6660   45.1910 C   0  0  0  0  0  0  0  0  0  0  0  0
   56.4560   26.5670   45.5990 C   0  0  0  0  0  0  0  0  0  0  0  0
   55.2250   26.7120   45.8390 O   0  0  0  0  0  0  0  0  0  0  0  0
   57.0530   25.3020   45.7380 C   0  0  0  0  0  0  0  0  0  0  0  0
   56.3200   24.1680   46.1420 C   0  0  0  0  0  0  0  0  0  0  0  0
   58.8233   21.8334   46.0913 H   0  0  0  0  0  0  0  0  0  0  0  0
   60.1325   23.8308   45.3774 H   0  0  0  0  0  0  0  0  0  0  0  0
   60.4993   28.3131   44.3282 H   0  0  0  0  0  0  0  0  0  0  0  0
   59.5391   30.5875   44.0496 H   0  0  0  0  0  0  0  0  0  0  0  0
   57.1012   31.6076   43.3430 H   0  0  0  0  0  0  0  0  0  0  0  0
   55.9985   31.3965   44.7528 H   0  0  0  0  0  0  0  0  0  0  0  0
   57.5661   31.3493   47.1029 H   0  0  0  0  0  0  0  0  0  0  0  0
   58.8602   33.0426   48.4011 H   0  0  0  0  0  0  0  0  0  0  0  0
   59.8663   35.0117   47.2393 H   0  0  0  0  0  0  0  0  0  0  0  0
   59.5781   35.2883   44.7765 H   0  0  0  0  0  0  0  0  0  0  0  0
   58.2861   33.6010   43.4690 H   0  0  0  0  0  0  0  0  0  0  0  0
   55.2455   24.2580   46.3597 H   0  0  0  0  0  0  0  0  0  0  0  0
  1  2  3  0
  2  3  1  0
  3  4  2  0
  4  5  1  0
  5  6  2  0
  6  7  1  0
  7  8  1  0
  8  9  1  0
  9 10  2  0
 10 11  1  0
 11 12  1  0
 12 13  1  0
 13 14  2  0
 14 15  1  0
 15 16  2  0
 16 17  1  0
 17 18  2  0
 11 19  1  0
 19 20  2  0
 19 21  1  0
 21 22  1  0
 22 23  2  0
 22 24  1  0
 24 25  2  0
 25  3  1  0
 24  6  1  0
 21  8  2  0
 18 13  1  0
  4 26  1  0
  5 27  1  0
  9 28  1  0
 10 29  1  0
 12 30  1  0
 12 31  1  0
 14 32  1  0
 15 33  1  0
 16 34  1  0
 17 35  1  0
 18 36  1  0
 25 37  1  0
M  END
>  <UniqueID>  (31) 
28

>  <SMILES>  (31) 
N#Cc1ccc2oc3ccn(Cc4ccccc4)c(=O)c3c(=O)c2c1

>  <Energy>  (31) 
53.686137039309074

>  <Genealogy>  (31) 
N#Cc1ccc2oc3ccn(Cc4ccccc4)c(=O)c3c(=O)c2c1 (3D coordinates assigned)
N#Cc1ccc2oc3ccn(Cc4ccccc4)c(=O)c3c(=O)c2c1 (optimized conformer: 53.686137039309074 kcal/mol)

>  <smiles>  (31) 
N#Cc1ccc2oc3ccn(Cc4ccccc4)c(=O)c3c(=O)c2c1

>  <score_type>  (31) 
oracle

>  <origin>  (31) 
adg

>  <m_score__min__energy>  (31) 
-7.75

>  <m_primary>  (31) 
energy

$$$$
31:0
     RDKit          3D

 36 38  0  0  0  0  0  0  0  0999 V2000
   57.7120   33.3890   44.4790 C   0  0  0  0  0  0  0  0  0  0  0  0
   57.9280   32.0170   45.0350 C   0  0  0  0  0  0  0  0  0  0  0  0
   59.1220   31.7120   45.7260 C   0  0  0  0  0  0  0  0  0  0  0  0
   59.3010   30.4140   46.2400 C   0  0  0  0  0  0  0  0  0  0  0  0
   60.5480   30.0280   46.9820 C   0  0  0  0  0  0  0  0  0  0  0  0
   60.2090   29.3740   48.1520 F   0  0  0  0  0  0  0  0  0  0  0  0
   61.2760   31.1640   47.2870 F   0  0  0  0  0  0  0  0  0  0  0  0
   58.2980   29.5210   46.0350 N   0  0  0  0  0  0  0  0  0  0  0  0
   58.2350   28.2600   46.4150 N   0  0  0  0  0  0  0  0  0  0  0  0
   57.0320   27.8280   45.9610 C   0  0  0  0  0  0  0  0  0  0  0  0
   56.5430   26.4570   46.1630 C   0  0  0  0  0  0  0  0  0  0  0  0
   55.3230   26.2040   45.9760 O   0  0  0  0  0  0  0  0  0  0  0  0
   57.4420   25.4150   46.5700 N   0  0  0  0  0  0  0  0  0  0  0  0
   56.9910   24.0490   46.8350 C   0  0  0  0  0  0  0  0  0  0  0  0
   57.1650   23.1910   45.6040 C   0  0  0  0  0  0  0  0  0  0  0  0
   58.4400   22.6640   45.3300 C   0  0  0  0  0  0  0  0  0  0  0  0
   58.6480   21.8540   44.2110 C   0  0  0  0  0  0  0  0  0  0  0  0
   57.5880   21.5620   43.3520 C   0  0  0  0  0  0  0  0  0  0  0  0
   56.3170   22.0780   43.6090 C   0  0  0  0  0  0  0  0  0  0  0  0
   56.0950   22.8920   44.7280 C   0  0  0  0  0  0  0  0  0  0  0  0
   54.4660   23.5110   44.9830 Cl  0  0  0  0  0  0  0  0  0  0  0  0
   56.3280   28.7860   45.2990 N   0  0  0  0  0  0  0  0  0  0  0  0
   57.1770   29.8250   45.3810 C   0  0  0  0  0  0  0  0  0  0  0  0
   56.9650   31.0610   44.8710 N   0  0  0  0  0  0  0  0  0  0  0  0
   57.5991   34.1060   45.3055 H   0  0  0  0  0  0  0  0  0  0  0  0
   58.5763   33.6746   43.8613 H   0  0  0  0  0  0  0  0  0  0  0  0
   56.8018   33.3952   43.8613 H   0  0  0  0  0  0  0  0  0  0  0  0
   59.9003   32.4777   45.8603 H   0  0  0  0  0  0  0  0  0  0  0  0
   61.1535   29.3609   46.3509 H   0  0  0  0  0  0  0  0  0  0  0  0
   58.4590   25.6270   46.6810 H   0  0  0  0  0  0  0  0  0  0  0  0
   57.5830   23.6250   47.6594 H   0  0  0  0  0  0  0  0  0  0  0  0
   55.9257   24.0707   47.1082 H   0  0  0  0  0  0  0  0  0  0  0  0
   59.2803   22.8916   46.0024 H   0  0  0  0  0  0  0  0  0  0  0  0
   59.6489   21.4458   44.0068 H   0  0  0  0  0  0  0  0  0  0  0  0
   57.7543   20.9244   42.4712 H   0  0  0  0  0  0  0  0  0  0  0  0
   55.4844   21.8444   42.9291 H   0  0  0  0  0  0  0  0  0  0  0  0
  1  2  1  0
  2  3  1  0
  3  4  2  0
  4  5  1  0
  5  6  1  0
  5  7  1  0
  4  8  1  0
  8  9  1  0
  9 10  2  0
 10 11  1  0
 11 12  2  0
 11 13  1  0
 13 14  1  0
 14 15  1  0
 15 16  2  0
 16 17  1  0
 17 18  2  0
 18 19  1  0
 19 20  2  0
 20 21  1  0
 10 22  1  0
 22 23  2  0
 23 24  1  0
 24  2  2  0
 23  8  1  0
 20 15  1  0
  1 25  1  0
  1 26  1  0
  1 27  1  0
  3 28  1  0
  5 29  1  0
 13 30  1  0
 14 31  1  0
 14 32  1  0
 16 33  1  0
 17 34  1  0
 18 35  1  0
 19 36  1  0
M  END
>  <UniqueID>  (32) 
29

>  <SMILES>  (32) 
Cc1cc(C(F)F)n2nc(C(=O)NCc3ccccc3Cl)nc2n1

>  <Energy>  (32) 
74.66738350559238

>  <Genealogy>  (32) 
Cc1cc(C(F)F)n2nc(C(=O)NCc3ccccc3Cl)nc2n1 (3D coordinates assigned)
Cc1cc(C(F)F)n2nc(C(=O)NCc3ccccc3Cl)nc2n1 (optimized conformer: 74.66738350559238 kcal/mol)

>  <smiles>  (32) 
Cc1cc(C(F)F)n2nc(C(=O)NCc3ccccc3Cl)nc2n1

>  <score_type>  (32) 
oracle

>  <origin>  (32) 
adg

>  <m_score__min__energy>  (32) 
-7.1600000000000001

>  <m_primary>  (32) 
energy

$$$$
32:0
     RDKit          3D

 45 47  0  0  0  0  0  0  0  0999 V2000
   56.9350   28.3100   45.3600 C   0  0  0  0  0  0  0  0  0  0  0  0
   56.4280   29.6310   45.2070 O   0  0  0  0  0  0  0  0  0  0  0  0
   56.8650   30.5470   44.2350 C   0  0  0  0  0  0  0  0  0  0  0  0
   56.5440   30.3890   42.8710 C   0  0  0  0  0  0  0  0  0  0  0  0
   57.0170   31.3000   41.9250 C   0  0  0  0  0  0  0  0  0  0  0  0
   57.8130   32.3750   42.3230 C   0  0  0  0  0  0  0  0  0  0  0  0
   58.1340   32.5450   43.6710 C   0  0  0  0  0  0  0  0  0  0  0  0
   57.6600   31.6410   44.6370 C   0  0  0  0  0  0  0  0  0  0  0  0
   57.9950   31.8400   46.0220 N   0  0  0  0  0  0  0  0  0  0  0  0
   57.7400   33.1340   46.6670 C   0  0  0  0  0  0  0  0  0  0  0  0
   58.8870   33.4830   47.6200 C   0  0  0  0  0  0  0  0  0  0  0  0
   59.2060   32.3630   48.5220 N   0  0  0  0  0  0  0  0  0  0  0  0
   59.9870   32.5900   49.7150 C   0  0  0  0  0  0  0  0  0  0  0  0
   59.9000   31.7810   50.6810 O   0  0  0  0  0  0  0  0  0  0  0  0
   60.8560   33.8140   49.8660 C   0  0  0  0  0  0  0  0  0  0  0  0
   62.2150   33.5930   49.2650 C   0  0  0  0  0  0  0  0  0  0  0  0
   62.4850   33.7640   47.9090 C   0  0  0  0  0  0  0  0  0  0  0  0
   64.1230   33.4560   47.6680 S   0  0  0  0  0  0  0  0  0  0  0  0
   64.4240   33.1460   49.2920 C   0  0  0  0  0  0  0  0  0  0  0  0
   65.7390   32.7150   49.8490 C   0  0  0  0  0  0  0  0  0  0  0  0
   63.2940   33.2510   50.0230 N   0  0  0  0  0  0  0  0  0  0  0  0
   58.5910   31.0450   48.2990 C   0  0  0  0  0  0  0  0  0  0  0  0
   58.5400   30.7200   46.8020 C   0  0  0  0  0  0  0  0  0  0  0  0
   57.0257   28.0738   46.4305 H   0  0  0  0  0  0  0  0  0  0  0  0
   56.2471   27.5958   44.8839 H   0  0  0  0  0  0  0  0  0  0  0  0
   57.9241   28.2394   44.8839 H   0  0  0  0  0  0  0  0  0  0  0  0
   55.9176   29.5434   42.5508 H   0  0  0  0  0  0  0  0  0  0  0  0
   56.7616   31.1702   40.8630 H   0  0  0  0  0  0  0  0  0  0  0  0
   58.1876   33.0886   41.5744 H   0  0  0  0  0  0  0  0  0  0  0  0
   58.7629   33.3932   43.9794 H   0  0  0  0  0  0  0  0  0  0  0  0
   57.6573   33.9145   45.8963 H   0  0  0  0  0  0  0  0  0  0  0  0
   56.8028   33.0720   47.2396 H   0  0  0  0  0  0  0  0  0  0  0  0
   59.7805   33.7290   47.0274 H   0  0  0  0  0  0  0  0  0  0  0  0
   58.5734   34.3396   48.2347 H   0  0  0  0  0  0  0  0  0  0  0  0
   60.3728   34.6619   49.3585 H   0  0  0  0  0  0  0  0  0  0  0  0
   60.9795   34.0233   50.9388 H   0  0  0  0  0  0  0  0  0  0  0  0
   61.7581   34.0492   47.1342 H   0  0  0  0  0  0  0  0  0  0  0  0
   65.6942   32.7297   50.9480 H   0  0  0  0  0  0  0  0  0  0  0  0
   65.9665   31.6953   49.5049 H   0  0  0  0  0  0  0  0  0  0  0  0
   66.5260   33.4022   49.5049 H   0  0  0  0  0  0  0  0  0  0  0  0
   63.2500   33.0870   51.0540 H   0  0  0  0  0  0  0  0  0  0  0  0
   59.1850   30.2768   48.8157 H   0  0  0  0  0  0  0  0  0  0  0  0
   57.5643   31.0613   48.6936 H   0  0  0  0  0  0  0  0  0  0  0  0
   59.5589   30.5022   46.4494 H   0  0  0  0  0  0  0  0  0  0  0  0
   57.8807   29.8508   46.6616 H   0  0  0  0  0  0  0  0  0  0  0  0
  1  2  1  0
  2  3  1  0
  3  4  2  0
  4  5  1  0
  5  6  2  0
  6  7  1  0
  7  8  2  0
  8  9  1  0
  9 10  1  0
 10 11  1  0
 11 12  1  0
 12 13  1  0
 13 14  2  0
 13 15  1  0
 15 16  1  0
 16 17  2  0
 17 18  1  0
 18 19  1  0
 19 20  1  0
 19 21  2  0
 12 22  1  0
 22 23  1  0
  8  3  1  0
 23  9  1  0
 21 16  1  0
  1 24  1  0
  1 25  1  0
  1 26  1  0
  4 27  1  0
  5 28  1  0
  6 29  1  0
  7 30  1  0
 10 31  1  0
 10 32  1  0
 11 33  1  0
 11 34  1  0
 15 35  1  0
 15 36  1  0
 17 37  1  0
 20 38  1  0
 20 39  1  0
 20 40  1  0
 21 41  1  0
 22 42  1  0
 22 43  1  0
 23 44  1  0
 23 45  1  0
M  CHG  1  21   1
M  END
>  <UniqueID>  (33) 
30

>  <SMILES>  (33) 
COc1ccccc1N1CCN(C(=O)Cc2csc(C)[nH+]2)CC1

>  <Energy>  (33) 
77.04995102892198

>  <Genealogy>  (33) 
COc1ccccc1N1CCN(C(=O)Cc2csc(C)[nH+]2)CC1 (protonated)
COc1ccccc1N1CCN(C(=O)Cc2csc(C)[nH+]2)CC1 (3D coordinates assigned)
COc1ccccc1N1CCN(C(=O)Cc2csc(C)[nH+]2)CC1 (nonaromatic ring conformer: 77.04995102892198 kcal/mol)

>  <smiles>  (33) 
COc1ccccc1N1CCN(C(=O)Cc2csc(C)n2)CC1

>  <score_type>  (33) 
oracle

>  <origin>  (33) 
adg

>  <m_score__min__energy>  (33) 
-5.7300000000000004

>  <m_primary>  (33) 
energy

$$$$
33:0
     RDKit          3D

 37 39  0  0  0  0  0  0  0  0999 V2000
   59.9450   34.5920   44.7520 O   0  0  0  0  0  0  0  0  0  0  0  0
   59.7360   34.5880   46.2390 S   0  0  0  0  0  0  0  0  0  0  0  0
   59.5120   35.9990   46.7070 O   0  0  0  0  0  0  0  0  0  0  0  0
   58.3290   33.6400   46.6060 N   0  0  0  0  0  0  0  0  0  0  0  0
   58.1460   32.2730   46.1940 C   0  0  0  0  0  0  0  0  0  0  0  0
   58.6750   31.2440   46.9870 C   0  0  0  0  0  0  0  0  0  0  0  0
   58.5250   29.9060   46.6130 C   0  0  0  0  0  0  0  0  0  0  0  0
   57.8400   29.5670   45.4340 C   0  0  0  0  0  0  0  0  0  0  0  0
   57.6830   28.1460   45.0340 C   0  0  0  0  0  0  0  0  0  0  0  0
   58.0330   27.7250   43.7370 C   0  0  0  0  0  0  0  0  0  0  0  0
   57.8850   26.3860   43.3620 C   0  0  0  0  0  0  0  0  0  0  0  0
   57.3860   25.4520   44.2740 C   0  0  0  0  0  0  0  0  0  0  0  0
   57.2010   23.7740   43.8000 Cl  0  0  0  0  0  0  0  0  0  0  0  0
   57.0350   25.8590   45.5640 C   0  0  0  0  0  0  0  0  0  0  0  0
   57.1830   27.1960   45.9440 C   0  0  0  0  0  0  0  0  0  0  0  0
   57.3070   30.5960   44.6410 C   0  0  0  0  0  0  0  0  0  0  0  0
   57.4550   31.9350   45.0160 C   0  0  0  0  0  0  0  0  0  0  0  0
   61.1500   33.9360   47.0690 C   0  0  0  0  0  0  0  0  0  0  0  0
   62.3670   33.8090   46.3810 C   0  0  0  0  0  0  0  0  0  0  0  0
   63.4950   33.3000   47.0310 C   0  0  0  0  0  0  0  0  0  0  0  0
   63.4130   32.9070   48.3700 C   0  0  0  0  0  0  0  0  0  0  0  0
   62.2020   33.0190   49.0580 C   0  0  0  0  0  0  0  0  0  0  0  0
   61.0710   33.5300   48.4130 C   0  0  0  0  0  0  0  0  0  0  0  0
   59.9030   33.6190   49.0960 F   0  0  0  0  0  0  0  0  0  0  0  0
   57.5940   34.0940   47.1950 H   0  0  0  0  0  0  0  0  0  0  0  0
   59.2137   31.4930   47.9132 H   0  0  0  0  0  0  0  0  0  0  0  0
   58.9466   29.1118   47.2467 H   0  0  0  0  0  0  0  0  0  0  0  0
   58.4257   28.4545   43.0134 H   0  0  0  0  0  0  0  0  0  0  0  0
   58.1621   26.0670   42.3464 H   0  0  0  0  0  0  0  0  0  0  0  0
   56.6411   25.1251   46.2825 H   0  0  0  0  0  0  0  0  0  0  0  0
   56.9066   27.5080   46.9620 H   0  0  0  0  0  0  0  0  0  0  0  0
   56.7676   30.3463   43.7154 H   0  0  0  0  0  0  0  0  0  0  0  0
   57.0284   32.7293   44.3858 H   0  0  0  0  0  0  0  0  0  0  0  0
   62.4333   34.1114   45.3255 H   0  0  0  0  0  0  0  0  0  0  0  0
   64.4476   33.2087   46.4886 H   0  0  0  0  0  0  0  0  0  0  0  0
   64.3018   32.5096   48.8820 H   0  0  0  0  0  0  0  0  0  0  0  0
   62.1379   32.7043   50.1101 H   0  0  0  0  0  0  0  0  0  0  0  0
  1  2  2  0
  2  3  2  0
  2  4  1  0
  4  5  1  0
  5  6  2  0
  6  7  1  0
  7  8  2  0
  8  9  1  0
  9 10  2  0
 10 11  1  0
 11 12  2  0
 12 13  1  0
 12 14  1  0
 14 15  2  0
  8 16  1  0
 16 17  2  0
  2 18  1  0
 18 19  2  0
 19 20  1  0
 20 21  2  0
 21 22  1  0
 22 23  2  0
 23 24  1  0
 17  5  1  0
 23 18  1  0
 15  9  1  0
  4 25  1  0
  6 26  1  0
  7 27  1  0
 10 28  1  0
 11 29  1  0
 14 30  1  0
 15 31  1  0
 16 32  1  0
 17 33  1  0
 19 34  1  0
 20 35  1  0
 21 36  1  0
 22 37  1  0
M  END
>  <UniqueID>  (34) 
31

>  <SMILES>  (34) 
O=S(=O)(Nc1ccc(-c2ccc(Cl)cc2)cc1)c1ccccc1F

>  <Energy>  (34) 
48.44463172993657

>  <Genealogy>  (34) 
O=S(=O)(Nc1ccc(-c2ccc(Cl)cc2)cc1)c1ccccc1F (3D coordinates assigned)
O=S(=O)(Nc1ccc(-c2ccc(Cl)cc2)cc1)c1ccccc1F (optimized conformer: 48.44463172993657 kcal/mol)

>  <smiles>  (34) 
O=S(=O)(Nc1ccc(-c2ccc(Cl)cc2)cc1)c1ccccc1F

>  <score_type>  (34) 
oracle

>  <origin>  (34) 
adg

>  <m_score__min__energy>  (34) 
-8.5899999999999999

>  <m_primary>  (34) 
energy

$$$$
34:0
     RDKit          3D

 32 34  0  0  0  0  0  0  0  0999 V2000
   63.7880   31.7970   48.0230 O   0  0  0  0  0  0  0  0  0  0  0  0
   62.5970   31.9010   47.6230 C   0  0  0  0  0  0  0  0  0  0  0  0
   61.6730   30.7190   47.7160 C   0  0  0  0  0  0  0  0  0  0  0  0
   60.6240   30.7910   46.6410 C   0  0  0  0  0  0  0  0  0  0  0  0
   60.3680   29.7110   45.9530 N   0  0  0  0  0  0  0  0  0  0  0  0
   59.2500   28.8210   46.0930 C   0  0  0  0  0  0  0  0  0  0  0  0
   59.2080   27.9460   47.1830 C   0  0  0  0  0  0  0  0  0  0  0  0
   58.1520   27.0400   47.3240 C   0  0  0  0  0  0  0  0  0  0  0  0
   57.1290   26.9810   46.3590 C   0  0  0  0  0  0  0  0  0  0  0  0
   56.0390   26.0520   46.5000 N   0  0  0  0  0  0  0  0  0  0  0  0
   56.1960   24.9720   47.1050 O   0  0  0  0  0  0  0  0  0  0  0  0
   54.8010   26.3410   45.9710 O   0  0  0  0  0  0  0  0  0  0  0  0
   57.1950   27.8370   45.2450 C   0  0  0  0  0  0  0  0  0  0  0  0
   58.2530   28.7400   45.1070 C   0  0  0  0  0  0  0  0  0  0  0  0
   59.9580   32.1060   46.4140 C   0  0  0  0  0  0  0  0  0  0  0  0
   58.5950   32.2020   46.0720 C   0  0  0  0  0  0  0  0  0  0  0  0
   58.0100   33.4510   45.8520 C   0  0  0  0  0  0  0  0  0  0  0  0
   58.7650   34.6160   45.9980 C   0  0  0  0  0  0  0  0  0  0  0  0
   60.1030   34.5380   46.3930 C   0  0  0  0  0  0  0  0  0  0  0  0
   60.7010   33.2880   46.6270 C   0  0  0  0  0  0  0  0  0  0  0  0
   62.0920   33.1940   47.1270 C   0  0  0  0  0  0  0  0  0  0  0  0
   62.8420   34.2080   47.1430 O   0  0  0  0  0  0  0  0  0  0  0  0
   62.2545   29.7933   47.5942 H   0  0  0  0  0  0  0  0  0  0  0  0
   61.1793   30.7271   48.6989 H   0  0  0  0  0  0  0  0  0  0  0  0
   60.0109   27.9705   47.9345 H   0  0  0  0  0  0  0  0  0  0  0  0
   58.1207   26.3689   48.1950 H   0  0  0  0  0  0  0  0  0  0  0  0
   56.4086   27.7956   44.4770 H   0  0  0  0  0  0  0  0  0  0  0  0
   58.3051   29.3906   44.2216 H   0  0  0  0  0  0  0  0  0  0  0  0
   57.9886   31.2891   45.9778 H   0  0  0  0  0  0  0  0  0  0  0  0
   56.9508   33.5169   45.5627 H   0  0  0  0  0  0  0  0  0  0  0  0
   58.3062   35.5963   45.8019 H   0  0  0  0  0  0  0  0  0  0  0  0
   60.6907   35.4589   46.5213 H   0  0  0  0  0  0  0  0  0  0  0  0
  1  2  2  0
  2  3  1  0
  3  4  1  0
  4  5  2  3
  5  6  1  0
  6  7  2  0
  7  8  1  0
  8  9  2  0
  9 10  1  0
 10 11  2  0
 10 12  1  0
  9 13  1  0
 13 14  2  0
  4 15  1  0
 15 16  2  0
 16 17  1  0
 17 18  2  0
 18 19  1  0
 19 20  2  0
 20 21  1  0
 21 22  2  0
 21  2  1  0
 14  6  1  0
 20 15  1  0
  3 23  1  0
  3 24  1  0
  7 25  1  0
  8 26  1  0
 13 27  1  0
 14 28  1  0
 16 29  1  0
 17 30  1  0
 18 31  1  0
 19 32  1  0
M  CHG  2  10   1  12  -1
M  END
>  <UniqueID>  (35) 
32

>  <SMILES>  (35) 
O=C1CC(=Nc2ccc([N+](=O)[O-])cc2)c2ccccc2C1=O

>  <Energy>  (35) 
49.83595967651122

>  <Genealogy>  (35) 
O=C1CC(=Nc2ccc([N+](=O)[O-])cc2)c2ccccc2C1=O (3D coordinates assigned)
O=C1CC(=Nc2ccc([N+](=O)[O-])cc2)c2ccccc2C1=O (nonaromatic ring conformer: 49.83595967651122 kcal/mol)

>  <smiles>  (35) 
O=C1CC(=Nc2ccc([N+](=O)[O-])cc2)c2ccccc2C1=O

>  <score_type>  (35) 
oracle

>  <origin>  (35) 
adg

>  <m_score__min__energy>  (35) 
-8.1600000000000001

>  <m_primary>  (35) 
energy

$$$$
35:0
     RDKit          3D

 28 29  0  0  0  0  0  0  0  0999 V2000
   55.5100   29.7350   43.5680 C   0  0  0  0  0  0  0  0  0  0  0  0
   56.0810   29.8260   44.8680 O   0  0  0  0  0  0  0  0  0  0  0  0
   57.3970   29.4550   45.1890 C   0  0  0  0  0  0  0  0  0  0  0  0
   57.7660   28.1050   45.3650 C   0  0  0  0  0  0  0  0  0  0  0  0
   59.0740   27.7710   45.7180 C   0  0  0  0  0  0  0  0  0  0  0  0
   60.0300   28.7720   45.9000 C   0  0  0  0  0  0  0  0  0  0  0  0
   59.6790   30.1110   45.7230 C   0  0  0  0  0  0  0  0  0  0  0  0
   58.3700   30.4620   45.3580 C   0  0  0  0  0  0  0  0  0  0  0  0
   58.0290   31.8870   45.1640 C   0  0  0  0  0  0  0  0  0  0  0  0
   57.9250   32.8750   46.1270 C   0  0  0  0  0  0  0  0  0  0  0  0
   58.1350   32.7220   47.5990 C   0  0  0  0  0  0  0  0  0  0  0  0
   57.6300   34.0490   45.5330 N   0  0  0  0  0  0  0  0  0  0  0  0
   57.5460   33.8180   44.2540 O   0  0  0  0  0  0  0  0  0  0  0  0
   57.7810   32.5560   43.9790 C   0  0  0  0  0  0  0  0  0  0  0  0
   57.7700   31.9880   42.5970 C   0  0  0  0  0  0  0  0  0  0  0  0
   54.4271   29.5624   43.6544 H   0  0  0  0  0  0  0  0  0  0  0  0
   55.6894   30.6731   43.0222 H   0  0  0  0  0  0  0  0  0  0  0  0
   55.9721   28.8992   43.0222 H   0  0  0  0  0  0  0  0  0  0  0  0
   57.0182   27.3108   45.2231 H   0  0  0  0  0  0  0  0  0  0  0  0
   59.3528   26.7156   45.8533 H   0  0  0  0  0  0  0  0  0  0  0  0
   61.0591   28.5055   46.1827 H   0  0  0  0  0  0  0  0  0  0  0  0
   60.4339   30.8973   45.8707 H   0  0  0  0  0  0  0  0  0  0  0  0
   57.3611   33.2859   48.1404 H   0  0  0  0  0  0  0  0  0  0  0  0
   58.0704   31.6579   47.8700 H   0  0  0  0  0  0  0  0  0  0  0  0
   59.1281   33.1097   47.8700 H   0  0  0  0  0  0  0  0  0  0  0  0
   57.7487   30.8896   42.6522 H   0  0  0  0  0  0  0  0  0  0  0  0
   56.8786   32.3455   42.0607 H   0  0  0  0  0  0  0  0  0  0  0  0
   58.6746   32.3107   42.0607 H   0  0  0  0  0  0  0  0  0  0  0  0
  1  2  1  0
  2  3  1  0
  3  4  2  0
  4  5  1  0
  5  6  2  0
  6  7  1  0
  7  8  2  0
  8  9  1  0
  9 10  1  0
 10 11  1  0
 10 12  2  0
 12 13  1  0
 13 14  1  0
 14 15  1  0
  8  3  1  0
 14  9  2  0
  1 16  1  0
  1 17  1  0
  1 18  1  0
  4 19  1  0
  5 20  1  0
  6 21  1  0
  7 22  1  0
 11 23  1  0
 11 24  1  0
 11 25  1  0
 15 26  1  0
 15 27  1  0
 15 28  1  0
M  END
>  <UniqueID>  (36) 
33

>  <SMILES>  (36) 
COc1ccccc1-c1c(C)noc1C

>  <Energy>  (36) 
62.063561445572226

>  <Genealogy>  (36) 
COc1ccccc1-c1c(C)noc1C (3D coordinates assigned)
COc1ccccc1-c1c(C)noc1C (optimized conformer: 62.063561445572226 kcal/mol)

>  <smiles>  (36) 
COc1ccccc1-c1c(C)noc1C

>  <score_type>  (36) 
oracle

>  <origin>  (36) 
adg

>  <m_score__min__energy>  (36) 
-5.9199999999999999

>  <m_primary>  (36) 
energy

$$$$
36:0
     RDKit          3D

 39 41  0  0  0  0  0  0  0  0999 V2000
   56.6440   23.7200   42.9990 C   0  0  0  0  0  0  0  0  0  0  0  0
   56.9690   24.1970   44.3010 O   0  0  0  0  0  0  0  0  0  0  0  0
   57.2730   25.5330   44.6060 C   0  0  0  0  0  0  0  0  0  0  0  0
   58.1410   26.3030   43.8100 C   0  0  0  0  0  0  0  0  0  0  0  0
   58.4190   27.6280   44.1450 C   0  0  0  0  0  0  0  0  0  0  0  0
   57.8370   28.2120   45.2790 C   0  0  0  0  0  0  0  0  0  0  0  0
   58.1380   29.6160   45.6260 C   0  0  0  0  0  0  0  0  0  0  0  0
   59.1610   29.9900   46.4250 N   0  0  0  0  0  0  0  0  0  0  0  0
   59.0540   31.3330   46.4720 C   0  0  0  0  0  0  0  0  0  0  0  0
   59.9870   32.1920   47.2310 C   0  0  0  0  0  0  0  0  0  0  0  0
   59.5180   33.1970   48.0920 C   0  0  0  0  0  0  0  0  0  0  0  0
   60.4170   33.9890   48.8120 C   0  0  0  0  0  0  0  0  0  0  0  0
   61.7990   33.7870   48.6830 C   0  0  0  0  0  0  0  0  0  0  0  0
   62.7620   34.6100   49.4880 C   0  0  0  0  0  0  0  0  0  0  0  0
   62.2690   32.7580   47.8550 C   0  0  0  0  0  0  0  0  0  0  0  0
   61.3700   31.9660   47.1350 C   0  0  0  0  0  0  0  0  0  0  0  0
   57.9830   31.7230   45.6860 C   0  0  0  0  0  0  0  0  0  0  0  0
   57.3760   33.4900   45.2800 Br  0  0  0  0  0  0  0  0  0  0  0  0
   57.4400   30.6410   45.1880 O   0  0  0  0  0  0  0  0  0  0  0  0
   56.9700   27.4470   46.0760 C   0  0  0  0  0  0  0  0  0  0  0  0
   56.6840   26.1070   45.7430 C   0  0  0  0  0  0  0  0  0  0  0  0
   55.8230   25.3150   46.5190 O   0  0  0  0  0  0  0  0  0  0  0  0
   56.2020   24.1070   47.1710 C   0  0  0  0  0  0  0  0  0  0  0  0
   56.0265   22.8137   43.0841 H   0  0  0  0  0  0  0  0  0  0  0  0
   56.0850   24.4947   42.4536 H   0  0  0  0  0  0  0  0  0  0  0  0
   57.5695   23.4832   42.4536 H   0  0  0  0  0  0  0  0  0  0  0  0
   58.6035   25.8568   42.9173 H   0  0  0  0  0  0  0  0  0  0  0  0
   59.0998   28.2192   43.5149 H   0  0  0  0  0  0  0  0  0  0  0  0
   58.4359   33.3622   48.2007 H   0  0  0  0  0  0  0  0  0  0  0  0
   60.0389   34.7744   49.4829 H   0  0  0  0  0  0  0  0  0  0  0  0
   62.5744   34.4497   50.5600 H   0  0  0  0  0  0  0  0  0  0  0  0
   63.7922   34.3090   49.2470 H   0  0  0  0  0  0  0  0  0  0  0  0
   62.6252   35.6745   49.2470 H   0  0  0  0  0  0  0  0  0  0  0  0
   63.3501   32.5730   47.7715 H   0  0  0  0  0  0  0  0  0  0  0  0
   61.7482   31.1602   46.4888 H   0  0  0  0  0  0  0  0  0  0  0  0
   56.5099   27.8971   46.9680 H   0  0  0  0  0  0  0  0  0  0  0  0
   56.1574   24.2490   48.2609 H   0  0  0  0  0  0  0  0  0  0  0  0
   55.5137   23.3006   46.8779 H   0  0  0  0  0  0  0  0  0  0  0  0
   57.2276   23.8383   46.8779 H   0  0  0  0  0  0  0  0  0  0  0  0
  1  2  1  0
  2  3  1  0
  3  4  2  0
  4  5  1  0
  5  6  2  0
  6  7  1  0
  7  8  2  0
  8  9  1  0
  9 10  1  0
 10 11  2  0
 11 12  1  0
 12 13  2  0
 13 14  1  0
 13 15  1  0
 15 16  2  0
  9 17  2  0
 17 18  1  0
 17 19  1  0
  6 20  1  0
 20 21  2  0
 21 22  1  0
 22 23  1  0
 21  3  1  0
 19  7  1  0
 16 10  1  0
  1 24  1  0
  1 25  1  0
  1 26  1  0
  4 27  1  0
  5 28  1  0
 11 29  1  0
 12 30  1  0
 14 31  1  0
 14 32  1  0
 14 33  1  0
 15 34  1  0
 16 35  1  0
 20 36  1  0
 23 37  1  0
 23 38  1  0
 23 39  1  0
M  END
>  <UniqueID>  (37) 
34

>  <SMILES>  (37) 
COc1ccc(-c2nc(-c3ccc(C)cc3)c(Br)o2)cc1OC

>  <Energy>  (37) 
73.95525122909704

>  <Genealogy>  (37) 
COc1ccc(-c2nc(-c3ccc(C)cc3)c(Br)o2)cc1OC (3D coordinates assigned)
COc1ccc(-c2nc(-c3ccc(C)cc3)c(Br)o2)cc1OC (optimized conformer: 73.95525122909704 kcal/mol)

>  <smiles>  (37) 
COc1ccc(-c2nc(-c3ccc(C)cc3)c(Br)o2)cc1OC

>  <score_type>  (37) 
oracle

>  <origin>  (37) 
adg

>  <m_score__min__energy>  (37) 
-7.2999999999999998

>  <m_primary>  (37) 
energy

$$$$
37:0
     RDKit          3D

 34 37  0  0  0  0  0  0  0  0999 V2000
   57.6610   23.4510   46.1340 H   0  0  0  0  0  0  0  0  0  0  0  0
   57.5950   24.0730   46.9710 N   0  0  0  0  0  0  0  0  0  0  0  0
   57.8700   25.3340   46.8960 C   0  0  0  0  0  0  0  0  0  0  0  0
   57.4520   26.3120   45.5460 S   0  0  0  0  0  0  0  0  0  0  0  0
   58.1520   27.6290   46.3160 C   0  0  0  0  0  0  0  0  0  0  0  0
   58.6290   27.3060   47.5150 C   0  0  0  0  0  0  0  0  0  0  0  0
   59.0700   28.4440   48.1440 C   0  0  0  0  0  0  0  0  0  0  0  0
   59.5192   28.5394   49.1436 H   0  0  0  0  0  0  0  0  0  0  0  0
   58.8100   29.4600   47.2040 C   0  0  0  0  0  0  0  0  0  0  0  0
   59.1580   30.8840   47.4090 C   0  0  0  0  0  0  0  0  0  0  0  0
   60.4590   31.2430   47.8000 C   0  0  0  0  0  0  0  0  0  0  0  0
   61.2185   30.4624   47.9544 H   0  0  0  0  0  0  0  0  0  0  0  0
   60.7940   32.5870   47.9940 C   0  0  0  0  0  0  0  0  0  0  0  0
   61.8128   32.8596   48.3067 H   0  0  0  0  0  0  0  0  0  0  0  0
   59.8360   33.5840   47.7910 C   0  0  0  0  0  0  0  0  0  0  0  0
   60.0989   34.6403   47.9492 H   0  0  0  0  0  0  0  0  0  0  0  0
   58.5440   33.2380   47.3870 C   0  0  0  0  0  0  0  0  0  0  0  0
   57.7915   34.0232   47.2221 H   0  0  0  0  0  0  0  0  0  0  0  0
   58.2060   31.8960   47.1920 C   0  0  0  0  0  0  0  0  0  0  0  0
   57.1894   31.6298   46.8669 H   0  0  0  0  0  0  0  0  0  0  0  0
   58.2240   28.9450   46.0750 N   0  0  0  0  0  0  0  0  0  0  0  0
   57.6780   29.6340   44.9380 C   0  0  0  0  0  0  0  0  0  0  0  0
   58.4950   30.4950   44.1890 C   0  0  0  0  0  0  0  0  0  0  0  0
   59.5492   30.6325   44.4713 H   0  0  0  0  0  0  0  0  0  0  0  0
   57.9760   31.1780   43.0870 C   0  0  0  0  0  0  0  0  0  0  0  0
   58.6198   31.8570   42.5087 H   0  0  0  0  0  0  0  0  0  0  0  0
   56.6400   31.0000   42.7180 C   0  0  0  0  0  0  0  0  0  0  0  0
   56.2316   31.5430   41.8529 H   0  0  0  0  0  0  0  0  0  0  0  0
   55.8230   30.1330   43.4470 C   0  0  0  0  0  0  0  0  0  0  0  0
   54.7722   29.9928   43.1536 H   0  0  0  0  0  0  0  0  0  0  0  0
   56.3380   29.4420   44.5500 C   0  0  0  0  0  0  0  0  0  0  0  0
   55.5200   28.5560   45.2440 O   0  0  0  0  0  0  0  0  0  0  0  0
   58.4980   26.0190   47.8940 N   0  0  0  0  0  0  0  0  0  0  0  0
   58.8030   25.6240   48.8120 H   0  0  0  0  0  0  0  0  0  0  0  0
  1  2  1  0
  2  3  2  0
  3  4  1  0
  4  5  1  0
  5  6  2  0
  6  7  1  0
  7  8  1  0
  7  9  2  0
  9 10  1  0
 10 11  2  0
 11 12  1  0
 11 13  1  0
 13 14  1  0
 13 15  2  0
 15 16  1  0
 15 17  1  0
 17 18  1  0
 17 19  2  0
 19 20  1  0
  9 21  1  0
 21 22  1  0
 22 23  2  0
 23 24  1  0
 23 25  1  0
 25 26  1  0
 25 27  2  0
 27 28  1  0
 27 29  1  0
 29 30  1  0
 29 31  2  0
 31 32  1  0
  6 33  1  0
 33 34  1  0
 33  3  1  0
 21  5  1  0
 31 22  1  0
 19 10  1  0
M  CHG  1  32  -1
M  END
>  <UniqueID>  (38) 
35

>  <SMILES>  (38) 
[H]/N=c1\[nH]c2cc(-c3ccccc3)n(-c3ccccc3[O-])c2s1

>  <Energy>  (38) 
129.36224984413803

>  <Genealogy>  (38) 
N=c1[nH]c2cc(-c3ccccc3)n(-c3ccccc3[O-])c2s1 (protonated)
[H]/N=c1\[nH]c2cc(-c3ccccc3)n(-c3ccccc3[O-])c2s1 (cis-trans isomerization)
[H]/N=c1\[nH]c2cc(-c3ccccc3)n(-c3ccccc3[O-])c2s1 (3D coordinates assigned)
[H]/N=c1\[nH]c2cc(-c3ccccc3)n(-c3ccccc3[O-])c2s1 (optimized conformer: 129.36224984413803 kcal/mol)

>  <smiles>  (38) 
N=c1[nH]c2cc(-c3ccccc3)n(-c3ccccc3O)c2s1

>  <score_type>  (38) 
oracle

>  <origin>  (38) 
adg

>  <m_score__min__energy>  (38) 
-9.9800000000000004

>  <m_primary>  (38) 
energy

$$$$
38:0
     RDKit          3D

 32 33  0  0  0  0  0  0  0  0999 V2000
   61.9110   32.4800   47.1630 C   0  0  0  0  0  0  0  0  0  0  0  0
   61.7070   31.0780   47.3080 O   0  0  0  0  0  0  0  0  0  0  0  0
   60.5790   30.3910   46.8370 C   0  0  0  0  0  0  0  0  0  0  0  0
   60.7220   29.5660   45.7140 C   0  0  0  0  0  0  0  0  0  0  0  0
   59.6340   28.8400   45.2230 C   0  0  0  0  0  0  0  0  0  0  0  0
   58.3830   28.9340   45.8500 C   0  0  0  0  0  0  0  0  0  0  0  0
   57.0200   27.9660   45.2960 S   0  0  0  0  0  0  0  0  0  0  0  0
   56.6830   26.9050   46.3060 O   0  0  0  0  0  0  0  0  0  0  0  0
   57.3990   27.2960   44.0050 O   0  0  0  0  0  0  0  0  0  0  0  0
   55.6310   28.9790   45.0220 N   0  0  0  0  0  0  0  0  0  0  0  0
   55.6930   29.6340   43.7120 C   0  0  0  0  0  0  0  0  0  0  0  0
   56.5800   30.8420   43.7550 C   0  0  0  0  0  0  0  0  0  0  0  0
   57.3060   31.2400   42.6210 C   0  0  0  0  0  0  0  0  0  0  0  0
   58.1540   32.3460   42.7040 C   0  0  0  0  0  0  0  0  0  0  0  0
   58.2630   33.0490   43.9050 C   0  0  0  0  0  0  0  0  0  0  0  0
   57.5130   32.6370   45.0080 C   0  0  0  0  0  0  0  0  0  0  0  0
   56.6970   31.5540   44.9110 N   0  0  0  0  0  0  0  0  0  0  0  0
   58.2290   29.7750   46.9590 C   0  0  0  0  0  0  0  0  0  0  0  0
   59.3180   30.4970   47.4540 C   0  0  0  0  0  0  0  0  0  0  0  0
   61.9787   32.9454   48.1574 H   0  0  0  0  0  0  0  0  0  0  0  0
   62.8447   32.6594   46.6098 H   0  0  0  0  0  0  0  0  0  0  0  0
   61.0671   32.9180   46.6098 H   0  0  0  0  0  0  0  0  0  0  0  0
   61.6991   29.4891   45.2146 H   0  0  0  0  0  0  0  0  0  0  0  0
   59.7589   28.1929   44.3423 H   0  0  0  0  0  0  0  0  0  0  0  0
   56.0901   28.9226   42.9729 H   0  0  0  0  0  0  0  0  0  0  0  0
   54.6785   29.9547   43.4329 H   0  0  0  0  0  0  0  0  0  0  0  0
   57.2076   30.6856   41.6760 H   0  0  0  0  0  0  0  0  0  0  0  0
   58.7348   32.6626   41.8251 H   0  0  0  0  0  0  0  0  0  0  0  0
   58.9327   33.9183   43.9815 H   0  0  0  0  0  0  0  0  0  0  0  0
   57.5824   33.1893   45.9567 H   0  0  0  0  0  0  0  0  0  0  0  0
   57.2456   29.8677   47.4430 H   0  0  0  0  0  0  0  0  0  0  0  0
   59.1896   31.1508   48.3292 H   0  0  0  0  0  0  0  0  0  0  0  0
  1  2  1  0
  2  3  1  0
  3  4  2  0
  4  5  1  0
  5  6  2  0
  6  7  1  0
  7  8  2  0
  7  9  2  0
  7 10  1  0
 10 11  1  0
 11 12  1  0
 12 13  2  0
 13 14  1  0
 14 15  2  0
 15 16  1  0
 16 17  2  0
  6 18  1  0
 18 19  2  0
 19  3  1  0
 17 12  1  0
  1 20  1  0
  1 21  1  0
  1 22  1  0
  4 23  1  0
  5 24  1  0
 11 25  1  0
 11 26  1  0
 13 27  1  0
 14 28  1  0
 15 29  1  0
 16 30  1  0
 18 31  1  0
 19 32  1  0
M  CHG  1  10  -1
M  END
>  <UniqueID>  (39) 
36

>  <SMILES>  (39) 
COc1ccc(S(=O)(=O)[N-]Cc2ccccn2)cc1

>  <Energy>  (39) 
28.080269512919642

>  <Genealogy>  (39) 
COc1ccc(S(=O)(=O)[N-]Cc2ccccn2)cc1 (protonated)
COc1ccc(S(=O)(=O)[N-]Cc2ccccn2)cc1 (3D coordinates assigned)
COc1ccc(S(=O)(=O)[N-]Cc2ccccn2)cc1 (optimized conformer: 28.080269512919642 kcal/mol)

>  <smiles>  (39) 
COc1ccc(S(=O)(=O)NCc2ccccn2)cc1

>  <score_type>  (39) 
oracle

>  <origin>  (39) 
adg

>  <m_score__min__energy>  (39) 
-8.1600000000000001

>  <m_primary>  (39) 
energy

$$$$
39:0
     RDKit          3D

 40 42  0  0  0  0  0  0  0  0999 V2000
   60.2710   27.9560   45.6760 O   0  0  0  0  0  0  0  0  0  0  0  0
   59.2190   28.2010   46.3260 C   0  0  0  0  0  0  0  0  0  0  0  0
   59.1620   29.3360   47.2070 N   0  0  0  0  0  0  0  0  0  0  0  0
   60.0890   30.4360   47.1540 C   0  0  0  0  0  0  0  0  0  0  0  0
   61.4210   30.2320   47.5400 C   0  0  0  0  0  0  0  0  0  0  0  0
   62.3350   31.2890   47.5190 C   0  0  0  0  0  0  0  0  0  0  0  0
   61.9260   32.5670   47.1240 C   0  0  0  0  0  0  0  0  0  0  0  0
   63.1030   33.8720   47.1100 Cl  0  0  0  0  0  0  0  0  0  0  0  0
   60.5870   32.7880   46.7590 C   0  0  0  0  0  0  0  0  0  0  0  0
   60.0250   34.3850   46.2790 Cl  0  0  0  0  0  0  0  0  0  0  0  0
   59.6730   31.7270   46.7810 C   0  0  0  0  0  0  0  0  0  0  0  0
   58.0680   27.2880   46.2020 C   0  0  0  0  0  0  0  0  0  0  0  0
   56.7430   27.6370   46.0070 C   0  0  0  0  0  0  0  0  0  0  0  0
   56.0520   26.4450   45.9530 C   0  0  0  0  0  0  0  0  0  0  0  0
   54.6770   26.3380   45.7870 O   0  0  0  0  0  0  0  0  0  0  0  0
   56.8830   25.3900   46.0900 N   0  0  0  0  0  0  0  0  0  0  0  0
   56.4880   23.9740   46.1490 C   0  0  0  0  0  0  0  0  0  0  0  0
   57.7370   23.0670   46.2050 C   0  0  0  0  0  0  0  0  0  0  0  0
   58.3820   22.8440   44.8270 C   0  0  0  0  0  0  0  0  0  0  0  0
   57.3700   22.5120   43.7080 C   0  0  0  0  0  0  0  0  0  0  0  0
   55.9310   22.3650   44.2140 C   0  0  0  0  0  0  0  0  0  0  0  0
   55.5020   23.6060   45.0050 C   0  0  0  0  0  0  0  0  0  0  0  0
   58.1220   25.9040   46.2530 C   0  0  0  0  0  0  0  0  0  0  0  0
   58.4760   29.3170   47.9940 H   0  0  0  0  0  0  0  0  0  0  0  0
   61.7493   29.2327   47.8618 H   0  0  0  0  0  0  0  0  0  0  0  0
   63.3803   31.1152   47.8143 H   0  0  0  0  0  0  0  0  0  0  0  0
   58.6231   31.9043   46.5048 H   0  0  0  0  0  0  0  0  0  0  0  0
   56.3284   28.6517   45.9146 H   0  0  0  0  0  0  0  0  0  0  0  0
   55.9302   23.7995   47.0809 H   0  0  0  0  0  0  0  0  0  0  0  0
   58.4799   23.5346   46.8679 H   0  0  0  0  0  0  0  0  0  0  0  0
   57.4128   22.0845   46.5786 H   0  0  0  0  0  0  0  0  0  0  0  0
   58.9218   23.7600   44.5450 H   0  0  0  0  0  0  0  0  0  0  0  0
   59.0479   21.9738   44.9234 H   0  0  0  0  0  0  0  0  0  0  0  0
   57.3967   23.3203   42.9624 H   0  0  0  0  0  0  0  0  0  0  0  0
   57.6648   21.5424   43.2802 H   0  0  0  0  0  0  0  0  0  0  0  0
   55.2578   22.2353   43.3538 H   0  0  0  0  0  0  0  0  0  0  0  0
   55.8785   21.4890   44.8772 H   0  0  0  0  0  0  0  0  0  0  0  0
   55.4375   24.4575   44.3116 H   0  0  0  0  0  0  0  0  0  0  0  0
   54.5318   23.3778   45.4704 H   0  0  0  0  0  0  0  0  0  0  0  0
   59.0370   25.3123   46.4037 H   0  0  0  0  0  0  0  0  0  0  0  0
  1  2  2  0
  2  3  1  0
  3  4  1  0
  4  5  2  0
  5  6  1  0
  6  7  2  0
  7  8  1  0
  7  9  1  0
  9 10  1  0
  9 11  2  0
  2 12  1  0
 12 13  1  0
 13 14  2  0
 14 15  1  0
 14 16  1  0
 16 17  1  0
 17 18  1  0
 18 19  1  0
 19 20  1  0
 20 21  1  0
 21 22  1  0
 16 23  1  0
 11  4  1  0
 23 12  2  0
 22 17  1  0
  3 24  1  0
  5 25  1  0
  6 26  1  0
 11 27  1  0
 13 28  1  0
 17 29  1  0
 18 30  1  0
 18 31  1  0
 19 32  1  0
 19 33  1  0
 20 34  1  0
 20 35  1  0
 21 36  1  0
 21 37  1  0
 22 38  1  0
 22 39  1  0
 23 40  1  0
M  CHG  1  15  -1
M  END
>  <UniqueID>  (40) 
37

>  <SMILES>  (40) 
O=C(Nc1ccc(Cl)c(Cl)c1)c1cc([O-])n(C2CCCCC2)c1

>  <Energy>  (40) 
76.16835228147998

>  <Genealogy>  (40) 
O=C(Nc1ccc(Cl)c(Cl)c1)c1cc([O-])n(C2CCCCC2)c1 (protonated)
O=C(Nc1ccc(Cl)c(Cl)c1)c1cc([O-])n(C2CCCCC2)c1 (3D coordinates assigned)
O=C(Nc1ccc(Cl)c(Cl)c1)c1cc([O-])n(C2CCCCC2)c1 (nonaromatic ring conformer: 76.16835228147998 kcal/mol)

>  <smiles>  (40) 
O=C(Nc1ccc(Cl)c(Cl)c1)c1cc(O)n(C2CCCCC2)c1

>  <score_type>  (40) 
oracle

>  <origin>  (40) 
adg

>  <m_score__min__energy>  (40) 
-10.73

>  <m_primary>  (40) 
energy

$$$$
40:0
     RDKit          3D

 34 36  0  0  0  0  0  0  0  0999 V2000
   57.0200   34.1920   45.1810 Br  0  0  0  0  0  0  0  0  0  0  0  0
   58.6190   34.0080   46.2090 C   0  0  0  0  0  0  0  0  0  0  0  0
   58.5480   33.6350   47.5530 C   0  0  0  0  0  0  0  0  0  0  0  0
   59.7170   33.5010   48.3080 C   0  0  0  0  0  0  0  0  0  0  0  0
   60.9770   33.7300   47.7240 C   0  0  0  0  0  0  0  0  0  0  0  0
   62.2080   33.5900   48.5430 C   0  0  0  0  0  0  0  0  0  0  0  0
   62.2230   33.8740   49.9160 C   0  0  0  0  0  0  0  0  0  0  0  0
   63.4090   33.7290   50.6320 C   0  0  0  0  0  0  0  0  0  0  0  0
   64.5690   33.3150   49.9680 C   0  0  0  0  0  0  0  0  0  0  0  0
   65.8090   33.1560   50.6820 N   0  0  0  0  0  0  0  0  0  0  0  0
   66.4070   31.8240   50.8310 C   0  0  0  0  0  0  0  0  0  0  0  0
   67.8440   31.9400   51.3410 C   0  0  0  0  0  0  0  0  0  0  0  0
   68.4670   33.0540   50.7360 O   0  0  0  0  0  0  0  0  0  0  0  0
   67.9570   34.2590   51.2830 C   0  0  0  0  0  0  0  0  0  0  0  0
   66.4140   34.2970   51.3810 C   0  0  0  0  0  0  0  0  0  0  0  0
   64.5040   33.0540   48.6310 N   0  0  0  0  0  0  0  0  0  0  0  0
   63.3650   33.1900   47.9500 N   0  0  0  0  0  0  0  0  0  0  0  0
   61.0340   34.1160   46.3690 C   0  0  0  0  0  0  0  0  0  0  0  0
   59.8620   34.2500   45.6190 C   0  0  0  0  0  0  0  0  0  0  0  0
   57.5696   33.4461   48.0188 H   0  0  0  0  0  0  0  0  0  0  0  0
   59.6515   33.2140   49.3679 H   0  0  0  0  0  0  0  0  0  0  0  0
   61.3061   34.2084   50.4233 H   0  0  0  0  0  0  0  0  0  0  0  0
   63.4335   33.9384   51.7116 H   0  0  0  0  0  0  0  0  0  0  0  0
   65.8137   31.2383   51.5486 H   0  0  0  0  0  0  0  0  0  0  0  0
   66.4149   31.3243   49.8511 H   0  0  0  0  0  0  0  0  0  0  0  0
   67.8365   32.0717   52.4331 H   0  0  0  0  0  0  0  0  0  0  0  0
   68.3994   31.0251   51.0872 H   0  0  0  0  0  0  0  0  0  0  0  0
   68.3718   34.3835   52.2942 H   0  0  0  0  0  0  0  0  0  0  0  0
   68.2545   35.0705   50.6026 H   0  0  0  0  0  0  0  0  0  0  0  0
   66.1209   34.2649   52.4408 H   0  0  0  0  0  0  0  0  0  0  0  0
   66.0578   35.2239   50.9078 H   0  0  0  0  0  0  0  0  0  0  0  0
   65.3510   32.7160   48.1220 H   0  0  0  0  0  0  0  0  0  0  0  0
   62.0085   34.3132   45.8984 H   0  0  0  0  0  0  0  0  0  0  0  0
   59.9186   34.5468   44.5613 H   0  0  0  0  0  0  0  0  0  0  0  0
  1  2  1  0
  2  3  2  0
  3  4  1  0
  4  5  2  0
  5  6  1  0
  6  7  2  0
  7  8  1  0
  8  9  2  0
  9 10  1  0
 10 11  1  0
 11 12  1  0
 12 13  1  0
 13 14  1  0
 14 15  1  0
  9 16  1  0
 16 17  2  0
  5 18  1  0
 18 19  2  0
 19  2  1  0
 17  6  1  0
 15 10  1  0
  3 20  1  0
  4 21  1  0
  7 22  1  0
  8 23  1  0
 11 24  1  0
 11 25  1  0
 12 26  1  0
 12 27  1  0
 14 28  1  0
 14 29  1  0
 15 30  1  0
 15 31  1  0
 16 32  1  0
 18 33  1  0
 19 34  1  0
M  CHG  1  16   1
M  END
>  <UniqueID>  (41) 
38

>  <SMILES>  (41) 
Brc1ccc(-c2ccc(N3CCOCC3)[nH+]n2)cc1

>  <Energy>  (41) 
50.22931587646642

>  <Genealogy>  (41) 
Brc1ccc(-c2ccc(N3CCOCC3)[nH+]n2)cc1 (protonated)
Brc1ccc(-c2ccc(N3CCOCC3)[nH+]n2)cc1 (3D coordinates assigned)
Brc1ccc(-c2ccc(N3CCOCC3)[nH+]n2)cc1 (nonaromatic ring conformer: 50.22931587646642 kcal/mol)

>  <smiles>  (41) 
Brc1ccc(-c2ccc(N3CCOCC3)nn2)cc1

>  <score_type>  (41) 
oracle

>  <origin>  (41) 
adg

>  <m_score__min__energy>  (41) 
-5.6799999999999997

>  <m_primary>  (41) 
energy

$$$$
41:0
     RDKit          3D

 40 42  0  0  0  0  0  0  0  0999 V2000
   57.0840   20.2180   46.7840 C   0  0  0  0  0  0  0  0  0  0  0  0
   57.7630   20.1020   45.4920 N   0  0  0  0  0  0  0  0  0  0  0  0
   57.2820   21.1130   44.5830 C   0  0  0  0  0  0  0  0  0  0  0  0
   56.6650   20.7540   43.3760 C   0  0  0  0  0  0  0  0  0  0  0  0
   56.2450   21.7140   42.5120 N   0  0  0  0  0  0  0  0  0  0  0  0
   56.4110   23.0370   42.7710 C   0  0  0  0  0  0  0  0  0  0  0  0
   57.0340   23.4560   43.9590 C   0  0  0  0  0  0  0  0  0  0  0  0
   57.2270   24.9000   44.2490 C   0  0  0  0  0  0  0  0  0  0  0  0
   57.7620   25.7610   43.2740 C   0  0  0  0  0  0  0  0  0  0  0  0
   57.9450   27.1190   43.5480 C   0  0  0  0  0  0  0  0  0  0  0  0
   57.5960   27.6480   44.8030 C   0  0  0  0  0  0  0  0  0  0  0  0
   57.7910   29.0920   45.0940 C   0  0  0  0  0  0  0  0  0  0  0  0
   56.8780   30.0520   44.6250 C   0  0  0  0  0  0  0  0  0  0  0  0
   57.0620   31.3690   44.9030 N   0  0  0  0  0  0  0  0  0  0  0  0
   58.1210   31.8070   45.6320 C   0  0  0  0  0  0  0  0  0  0  0  0
   59.0710   30.8970   46.1110 C   0  0  0  0  0  0  0  0  0  0  0  0
   60.2230   31.3690   46.9540 C   0  0  0  0  0  0  0  0  0  0  0  0
   61.2810   30.4530   46.8810 O   0  0  0  0  0  0  0  0  0  0  0  0
   58.8920   29.5320   45.8490 C   0  0  0  0  0  0  0  0  0  0  0  0
   57.0600   26.7880   45.7770 C   0  0  0  0  0  0  0  0  0  0  0  0
   56.8790   25.4300   45.5040 C   0  0  0  0  0  0  0  0  0  0  0  0
   57.4730   22.4760   44.8630 C   0  0  0  0  0  0  0  0  0  0  0  0
   57.8160   20.0929   47.5955 H   0  0  0  0  0  0  0  0  0  0  0  0
   56.6142   21.2094   46.8636 H   0  0  0  0  0  0  0  0  0  0  0  0
   56.3117   19.4388   46.8636 H   0  0  0  0  0  0  0  0  0  0  0  0
   57.5880   19.1490   45.0960 H   0  0  0  0  0  0  0  0  0  0  0  0
   58.7950   20.2070   45.6350 H   0  0  0  0  0  0  0  0  0  0  0  0
   56.5208   19.6920   43.1283 H   0  0  0  0  0  0  0  0  0  0  0  0
   56.0557   23.7848   42.0467 H   0  0  0  0  0  0  0  0  0  0  0  0
   58.0388   25.3619   42.2870 H   0  0  0  0  0  0  0  0  0  0  0  0
   58.3656   27.7795   42.7754 H   0  0  0  0  0  0  0  0  0  0  0  0
   56.0093   29.7351   44.0293 H   0  0  0  0  0  0  0  0  0  0  0  0
   58.2326   32.8801   45.8467 H   0  0  0  0  0  0  0  0  0  0  0  0
   60.5642   32.3486   46.5880 H   0  0  0  0  0  0  0  0  0  0  0  0
   59.8924   31.4542   47.9997 H   0  0  0  0  0  0  0  0  0  0  0  0
   62.1090   30.9870   46.7550 H   0  0  0  0  0  0  0  0  0  0  0  0
   59.6170   28.8010   46.2363 H   0  0  0  0  0  0  0  0  0  0  0  0
   56.7806   27.1878   46.7629 H   0  0  0  0  0  0  0  0  0  0  0  0
   56.4605   24.7695   46.2777 H   0  0  0  0  0  0  0  0  0  0  0  0
   57.9699   22.7775   45.7969 H   0  0  0  0  0  0  0  0  0  0  0  0
  1  2  1  0
  2  3  1  0
  3  4  2  0
  4  5  1  0
  5  6  2  0
  6  7  1  0
  7  8  1  0
  8  9  2  0
  9 10  1  0
 10 11  2  0
 11 12  1  0
 12 13  2  0
 13 14  1  0
 14 15  2  0
 15 16  1  0
 16 17  1  0
 17 18  1  0
 16 19  2  0
 11 20  1  0
 20 21  2  0
  7 22  2  0
 22  3  1  0
 21  8  1  0
 19 12  1  0
  1 23  1  0
  1 24  1  0
  1 25  1  0
  2 26  1  0
  2 27  1  0
  4 28  1  0
  6 29  1  0
  9 30  1  0
 10 31  1  0
 13 32  1  0
 15 33  1  0
 17 34  1  0
 17 35  1  0
 18 36  1  0
 19 37  1  0
 20 38  1  0
 21 39  1  0
 22 40  1  0
M  CHG  1   2   1
M  END
>  <UniqueID>  (42) 
39

>  <SMILES>  (42) 
C[NH2+]c1cncc(-c2ccc(-c3cncc(CO)c3)cc2)c1

>  <Energy>  (42) 
53.64112878321945

>  <Genealogy>  (42) 
C[NH2+]c1cncc(-c2ccc(-c3cncc(CO)c3)cc2)c1 (protonated)
C[NH2+]c1cncc(-c2ccc(-c3cncc(CO)c3)cc2)c1 (3D coordinates assigned)
C[NH2+]c1cncc(-c2ccc(-c3cncc(CO)c3)cc2)c1 (optimized conformer: 53.64112878321945 kcal/mol)

>  <smiles>  (42) 
CNc1cncc(-c2ccc(-c3cncc(CO)c3)cc2)c1

>  <score_type>  (42) 
oracle

>  <origin>  (42) 
adg

>  <m_score__min__energy>  (42) 
-6.6100000000000003

>  <m_primary>  (42) 
energy

$$$$
42:0
     RDKit          3D

 24 25  0  0  0  0  0  0  0  0999 V2000
   56.2690   29.7120   42.7170 C   0  0  0  0  0  0  0  0  0  0  0  0
   55.8820   29.4200   44.4710 S   0  0  0  0  0  0  0  0  0  0  0  0
   57.6130   29.3600   44.9660 C   0  0  0  0  0  0  0  0  0  0  0  0
   58.2540   28.1150   44.9990 C   0  0  0  0  0  0  0  0  0  0  0  0
   59.5860   28.0160   45.4090 C   0  0  0  0  0  0  0  0  0  0  0  0
   60.2870   29.1620   45.7870 C   0  0  0  0  0  0  0  0  0  0  0  0
   59.6590   30.4100   45.7540 C   0  0  0  0  0  0  0  0  0  0  0  0
   58.3190   30.5240   45.3450 C   0  0  0  0  0  0  0  0  0  0  0  0
   57.6860   31.8590   45.3010 C   0  0  0  0  0  0  0  0  0  0  0  0
   56.5070   31.9670   44.8710 O   0  0  0  0  0  0  0  0  0  0  0  0
   58.4040   33.0660   45.7550 C   0  0  0  0  0  0  0  0  0  0  0  0
   58.8690   34.0900   44.9370 C   0  0  0  0  0  0  0  0  0  0  0  0
   59.4670   35.1200   45.5950 N   0  0  0  0  0  0  0  0  0  0  0  0
   59.4800   34.9350   46.9330 C   0  0  0  0  0  0  0  0  0  0  0  0
   58.7440   33.4830   47.3510 S   0  0  0  0  0  0  0  0  0  0  0  0
   57.1449   30.3729   42.6399 H   0  0  0  0  0  0  0  0  0  0  0  0
   56.4890   28.7528   42.2254 H   0  0  0  0  0  0  0  0  0  0  0  0
   55.4070   30.1868   42.2254 H   0  0  0  0  0  0  0  0  0  0  0  0
   57.7053   27.2096   44.7003 H   0  0  0  0  0  0  0  0  0  0  0  0
   60.0822   27.0346   45.4339 H   0  0  0  0  0  0  0  0  0  0  0  0
   61.3351   29.0829   46.1113 H   0  0  0  0  0  0  0  0  0  0  0  0
   60.2176   31.3101   46.0504 H   0  0  0  0  0  0  0  0  0  0  0  0
   58.7617   34.0689   43.8425 H   0  0  0  0  0  0  0  0  0  0  0  0
   59.9153   35.6421   47.6545 H   0  0  0  0  0  0  0  0  0  0  0  0
  1  2  1  0
  2  3  1  0
  3  4  2  0
  4  5  1  0
  5  6  2  0
  6  7  1  0
  7  8  2  0
  8  9  1  0
  9 10  2  0
  9 11  1  0
 11 12  2  0
 12 13  1  0
 13 14  2  0
 14 15  1  0
  8  3  1  0
 15 11  1  0
  1 16  1  0
  1 17  1  0
  1 18  1  0
  4 19  1  0
  5 20  1  0
  6 21  1  0
  7 22  1  0
 12 23  1  0
 14 24  1  0
M  END
>  <UniqueID>  (43) 
40

>  <SMILES>  (43) 
CSc1ccccc1C(=O)c1cncs1

>  <Energy>  (43) 
56.08363686807973

>  <Genealogy>  (43) 
CSc1ccccc1C(=O)c1cncs1 (3D coordinates assigned)
CSc1ccccc1C(=O)c1cncs1 (optimized conformer: 56.08363686807973 kcal/mol)

>  <smiles>  (43) 
CSc1ccccc1C(=O)c1cncs1

>  <score_type>  (43) 
oracle

>  <origin>  (43) 
adg

>  <m_score__min__energy>  (43) 
-6.1200000000000001

>  <m_primary>  (43) 
energy

$$$$
43:0
     RDKit          3D

 38 39  0  0  0  0  0  0  0  0999 V2000
   55.8910   28.9870   45.2440 N   0  0  0  0  0  0  0  0  0  0  0  0
   56.3960   29.7740   44.5620 C   0  0  0  0  0  0  0  0  0  0  0  0
   57.0250   30.7560   43.7120 C   0  0  0  0  0  0  0  0  0  0  0  0
   56.7550   30.7260   42.3370 C   0  0  0  0  0  0  0  0  0  0  0  0
   57.3300   31.6700   41.4830 C   0  0  0  0  0  0  0  0  0  0  0  0
   58.1740   32.6550   41.9980 C   0  0  0  0  0  0  0  0  0  0  0  0
   58.4510   32.6960   43.3650 C   0  0  0  0  0  0  0  0  0  0  0  0
   57.8940   31.7430   44.2400 C   0  0  0  0  0  0  0  0  0  0  0  0
   58.1760   31.8230   45.6560 N   0  0  0  0  0  0  0  0  0  0  0  0
   57.3790   32.8980   46.2700 C   0  0  0  0  0  0  0  0  0  0  0  0
   57.9710   34.2870   45.9820 C   0  0  0  0  0  0  0  0  0  0  0  0
   59.3360   34.4980   46.6490 C   0  0  0  0  0  0  0  0  0  0  0  0
   60.3170   33.6420   46.0630 O   0  0  0  0  0  0  0  0  0  0  0  0
   61.4360   33.0970   46.7170 C   0  0  0  0  0  0  0  0  0  0  0  0
   62.6320   33.8300   46.8690 C   0  0  0  0  0  0  0  0  0  0  0  0
   63.7380   33.2640   47.5040 C   0  0  0  0  0  0  0  0  0  0  0  0
   63.6700   31.9650   48.0010 C   0  0  0  0  0  0  0  0  0  0  0  0
   62.4930   31.2270   47.8690 C   0  0  0  0  0  0  0  0  0  0  0  0
   61.3610   31.7800   47.2350 C   0  0  0  0  0  0  0  0  0  0  0  0
   60.1560   30.9930   47.1210 N   0  0  0  0  0  0  0  0  0  0  0  0
   59.1930   31.2000   47.8880 O   0  0  0  0  0  0  0  0  0  0  0  0
   60.0160   30.0420   46.1370 O   0  0  0  0  0  0  0  0  0  0  0  0
   56.0862   29.9544   41.9279 H   0  0  0  0  0  0  0  0  0  0  0  0
   57.1175   31.6370   40.4042 H   0  0  0  0  0  0  0  0  0  0  0  0
   58.6219   33.4007   41.3247 H   0  0  0  0  0  0  0  0  0  0  0  0
   59.1111   33.4806   43.7634 H   0  0  0  0  0  0  0  0  0  0  0  0
   59.1950   32.0180   45.7930 H   0  0  0  0  0  0  0  0  0  0  0  0
   57.9710   30.9080   46.1190 H   0  0  0  0  0  0  0  0  0  0  0  0
   56.3563   32.8569   45.8671 H   0  0  0  0  0  0  0  0  0  0  0  0
   57.3827   32.7452   47.3593 H   0  0  0  0  0  0  0  0  0  0  0  0
   58.0894   34.4006   44.8943 H   0  0  0  0  0  0  0  0  0  0  0  0
   57.2794   35.0355   46.3960 H   0  0  0  0  0  0  0  0  0  0  0  0
   59.6449   35.5455   46.5177 H   0  0  0  0  0  0  0  0  0  0  0  0
   59.2495   34.2592   47.7193 H   0  0  0  0  0  0  0  0  0  0  0  0
   62.6931   34.8582   46.4829 H   0  0  0  0  0  0  0  0  0  0  0  0
   64.6656   33.8452   47.6122 H   0  0  0  0  0  0  0  0  0  0  0  0
   64.5447   31.5202   48.4980 H   0  0  0  0  0  0  0  0  0  0  0  0
   62.4476   30.2015   48.2642 H   0  0  0  0  0  0  0  0  0  0  0  0
  1  2  3  0
  2  3  1  0
  3  4  2  0
  4  5  1  0
  5  6  2  0
  6  7  1  0
  7  8  2  0
  8  9  1  0
  9 10  1  0
 10 11  1  0
 11 12  1  0
 12 13  1  0
 13 14  1  0
 14 15  2  0
 15 16  1  0
 16 17  2  0
 17 18  1  0
 18 19  2  0
 19 20  1  0
 20 21  2  0
 20 22  1  0
  8  3  1  0
 19 14  1  0
  4 23  1  0
  5 24  1  0
  6 25  1  0
  7 26  1  0
  9 27  1  0
  9 28  1  0
 10 29  1  0
 10 30  1  0
 11 31  1  0
 11 32  1  0
 12 33  1  0
 12 34  1  0
 15 35  1  0
 16 36  1  0
 17 37  1  0
 18 38  1  0
M  CHG  3   9   1  20   1  22  -1
M  END
>  <UniqueID>  (44) 
41

>  <SMILES>  (44) 
N#Cc1ccccc1[NH2+]CCCOc1ccccc1[N+](=O)[O-]

>  <Energy>  (44) 
40.192438240121504

>  <Genealogy>  (44) 
N#Cc1ccccc1[NH2+]CCCOc1ccccc1[N+](=O)[O-] (protonated)
N#Cc1ccccc1[NH2+]CCCOc1ccccc1[N+](=O)[O-] (3D coordinates assigned)
N#Cc1ccccc1[NH2+]CCCOc1ccccc1[N+](=O)[O-] (optimized conformer: 40.192438240121504 kcal/mol)

>  <smiles>  (44) 
N#Cc1ccccc1NCCCOc1ccccc1[N+](=O)[O-]

>  <score_type>  (44) 
oracle

>  <origin>  (44) 
adg

>  <m_score__min__energy>  (44) 
-4.3499999999999996

>  <m_primary>  (44) 
energy

$$$$
44:0
     RDKit          3D

 42 44  0  0  0  0  0  0  0  0999 V2000
   61.9870   31.0670   50.7520 C   0  0  0  0  0  0  0  0  0  0  0  0
   62.1630   30.5710   49.4290 O   0  0  0  0  0  0  0  0  0  0  0  0
   61.1170   30.1550   48.5930 C   0  0  0  0  0  0  0  0  0  0  0  0
   61.1830   30.2590   47.1900 C   0  0  0  0  0  0  0  0  0  0  0  0
   60.1100   29.8330   46.4010 C   0  0  0  0  0  0  0  0  0  0  0  0
   58.9540   29.3140   46.9950 C   0  0  0  0  0  0  0  0  0  0  0  0
   57.8770   28.8820   46.1510 N   0  0  0  0  0  0  0  0  0  0  0  0
   57.0420   29.7240   45.3420 C   0  0  0  0  0  0  0  0  0  0  0  0
   55.8790   29.3300   45.0620 O   0  0  0  0  0  0  0  0  0  0  0  0
   57.5170   31.0200   44.8000 C   0  0  0  0  0  0  0  0  0  0  0  0
   57.6800   31.1650   43.4170 C   0  0  0  0  0  0  0  0  0  0  0  0
   58.1080   32.3770   42.8870 C   0  0  0  0  0  0  0  0  0  0  0  0
   58.3810   33.4430   43.7420 C   0  0  0  0  0  0  0  0  0  0  0  0
   58.2380   33.3090   45.0960 N   0  0  0  0  0  0  0  0  0  0  0  0
   58.5740   34.4520   45.9610 C   0  0  0  0  0  0  0  0  0  0  0  0
   59.8380   34.1720   46.7290 C   0  0  0  0  0  0  0  0  0  0  0  0
   61.0200   33.8400   46.0460 C   0  0  0  0  0  0  0  0  0  0  0  0
   62.1880   33.5490   46.7580 C   0  0  0  0  0  0  0  0  0  0  0  0
   62.1840   33.5830   48.1550 C   0  0  0  0  0  0  0  0  0  0  0  0
   63.3170   33.3010   48.8440 F   0  0  0  0  0  0  0  0  0  0  0  0
   61.0110   33.9070   48.8420 C   0  0  0  0  0  0  0  0  0  0  0  0
   59.8410   34.1980   48.1340 C   0  0  0  0  0  0  0  0  0  0  0  0
   57.8320   32.1120   45.6380 C   0  0  0  0  0  0  0  0  0  0  0  0
   57.7590   31.9790   46.8910 O   0  0  0  0  0  0  0  0  0  0  0  0
   58.8970   29.1860   48.3940 C   0  0  0  0  0  0  0  0  0  0  0  0
   59.9690   29.6130   49.1820 C   0  0  0  0  0  0  0  0  0  0  0  0
   62.2639   30.2866   51.4760 H   0  0  0  0  0  0  0  0  0  0  0  0
   62.6270   31.9492   50.9010 H   0  0  0  0  0  0  0  0  0  0  0  0
   60.9341   31.3485   50.9010 H   0  0  0  0  0  0  0  0  0  0  0  0
   62.0819   30.6769   46.7131 H   0  0  0  0  0  0  0  0  0  0  0  0
   60.1750   29.9064   45.3054 H   0  0  0  0  0  0  0  0  0  0  0  0
   57.4689   30.3178   42.7480 H   0  0  0  0  0  0  0  0  0  0  0  0
   58.2303   32.4937   41.8001 H   0  0  0  0  0  0  0  0  0  0  0  0
   58.7155   34.4036   43.3233 H   0  0  0  0  0  0  0  0  0  0  0  0
   58.7182   35.3477   45.3390 H   0  0  0  0  0  0  0  0  0  0  0  0
   57.7516   34.6160   46.6729 H   0  0  0  0  0  0  0  0  0  0  0  0
   61.0268   33.8088   44.9465 H   0  0  0  0  0  0  0  0  0  0  0  0
   63.1112   33.2930   46.2175 H   0  0  0  0  0  0  0  0  0  0  0  0
   61.0082   33.9331   49.9417 H   0  0  0  0  0  0  0  0  0  0  0  0
   58.9189   34.4484   48.6791 H   0  0  0  0  0  0  0  0  0  0  0  0
   58.0065   28.7487   48.8692 H   0  0  0  0  0  0  0  0  0  0  0  0
   59.9100   29.5222   50.2767 H   0  0  0  0  0  0  0  0  0  0  0  0
  1  2  1  0
  2  3  1  0
  3  4  2  0
  4  5  1  0
  5  6  2  0
  6  7  1  0
  7  8  1  0
  8  9  2  0
  8 10  1  0
 10 11  2  0
 11 12  1  0
 12 13  2  0
 13 14  1  0
 14 15  1  0
 15 16  1  0
 16 17  2  0
 17 18  1  0
 18 19  2  0
 19 20  1  0
 19 21  1  0
 21 22  2  0
 14 23  1  0
 23 24  2  0
  6 25  1  0
 25 26  2  0
 26  3  1  0
 23 10  1  0
 22 16  1  0
  1 27  1  0
  1 28  1  0
  1 29  1  0
  4 30  1  0
  5 31  1  0
 11 32  1  0
 12 33  1  0
 13 34  1  0
 15 35  1  0
 15 36  1  0
 17 37  1  0
 18 38  1  0
 21 39  1  0
 22 40  1  0
 25 41  1  0
 26 42  1  0
M  CHG  1   7  -1
M  END
>  <UniqueID>  (45) 
42

>  <SMILES>  (45) 
COc1ccc([N-]C(=O)c2cccn(Cc3ccc(F)cc3)c2=O)cc1

>  <Energy>  (45) 
54.103705683036665

>  <Genealogy>  (45) 
COc1ccc([N-]C(=O)c2cccn(Cc3ccc(F)cc3)c2=O)cc1 (protonated)
COc1ccc([N-]C(=O)c2cccn(Cc3ccc(F)cc3)c2=O)cc1 (3D coordinates assigned)
COc1ccc([N-]C(=O)c2cccn(Cc3ccc(F)cc3)c2=O)cc1 (optimized conformer: 54.103705683036665 kcal/mol)

>  <smiles>  (45) 
COc1ccc(NC(=O)c2cccn(Cc3ccc(F)cc3)c2=O)cc1

>  <score_type>  (45) 
oracle

>  <origin>  (45) 
adg

>  <m_score__min__energy>  (45) 
-10.029999999999999

>  <m_primary>  (45) 
energy

$$$$
45:0
     RDKit          3D

 31 32  0  0  0  0  0  0  0  0999 V2000
   63.7210   32.4800   47.6030 C   0  0  0  0  0  0  0  0  0  0  0  0
   63.0620   33.6860   47.2340 O   0  0  0  0  0  0  0  0  0  0  0  0
   61.6700   33.8730   47.2630 C   0  0  0  0  0  0  0  0  0  0  0  0
   60.8860   33.8260   46.0920 C   0  0  0  0  0  0  0  0  0  0  0  0
   59.4930   34.0000   46.1550 C   0  0  0  0  0  0  0  0  0  0  0  0
   58.6830   33.9760   44.9670 N   0  0  0  0  0  0  0  0  0  0  0  0
   58.1160   32.7850   44.3940 C   0  0  0  0  0  0  0  0  0  0  0  0
   57.9640   32.6940   43.0020 C   0  0  0  0  0  0  0  0  0  0  0  0
   57.3930   31.5560   42.4250 C   0  0  0  0  0  0  0  0  0  0  0  0
   56.9520   30.5000   43.2330 C   0  0  0  0  0  0  0  0  0  0  0  0
   56.3690   29.3360   42.6420 N   0  0  0  0  0  0  0  0  0  0  0  0
   57.0810   30.5960   44.6260 C   0  0  0  0  0  0  0  0  0  0  0  0
   57.6510   31.7330   45.2040 C   0  0  0  0  0  0  0  0  0  0  0  0
   58.8920   34.2670   47.3920 C   0  0  0  0  0  0  0  0  0  0  0  0
   59.6610   34.3170   48.5550 C   0  0  0  0  0  0  0  0  0  0  0  0
   61.0430   34.1180   48.4980 C   0  0  0  0  0  0  0  0  0  0  0  0
   61.7800   34.1720   49.6820 O   0  0  0  0  0  0  0  0  0  0  0  0
   63.7618   32.4052   48.6997 H   0  0  0  0  0  0  0  0  0  0  0  0
   63.1671   31.6206   47.1973 H   0  0  0  0  0  0  0  0  0  0  0  0
   64.7434   32.4819   47.1973 H   0  0  0  0  0  0  0  0  0  0  0  0
   61.3696   33.6514   45.1195 H   0  0  0  0  0  0  0  0  0  0  0  0
   58.4920   34.8860   44.4890 H   0  0  0  0  0  0  0  0  0  0  0  0
   58.2963   33.5236   42.3607 H   0  0  0  0  0  0  0  0  0  0  0  0
   57.2895   31.4894   41.3319 H   0  0  0  0  0  0  0  0  0  0  0  0
   55.7020   29.4190   41.8430 H   0  0  0  0  0  0  0  0  0  0  0  0
   56.6000   28.3820   42.9990 H   0  0  0  0  0  0  0  0  0  0  0  0
   56.7319   29.7726   45.2664 H   0  0  0  0  0  0  0  0  0  0  0  0
   57.7367   31.8060   46.2982 H   0  0  0  0  0  0  0  0  0  0  0  0
   57.8068   34.4383   47.4467 H   0  0  0  0  0  0  0  0  0  0  0  0
   59.1765   34.5143   49.5227 H   0  0  0  0  0  0  0  0  0  0  0  0
   62.7870   34.0690   49.6950 H   0  0  0  0  0  0  0  0  0  0  0  0
  1  2  1  0
  2  3  1  0
  3  4  2  0
  4  5  1  0
  5  6  1  0
  6  7  1  0
  7  8  2  0
  8  9  1  0
  9 10  2  0
 10 11  1  0
 10 12  1  0
 12 13  2  0
  5 14  2  0
 14 15  1  0
 15 16  2  0
 16 17  1  0
 16  3  1  0
 13  7  1  0
  1 18  1  0
  1 19  1  0
  1 20  1  0
  4 21  1  0
  6 22  1  0
  8 23  1  0
  9 24  1  0
 11 25  1  0
 11 26  1  0
 12 27  1  0
 13 28  1  0
 14 29  1  0
 15 30  1  0
 17 31  1  0
M  END
>  <UniqueID>  (46) 
43

>  <SMILES>  (46) 
COc1cc(Nc2ccc(N)cc2)ccc1O

>  <Energy>  (46) 
35.24022224602904

>  <Genealogy>  (46) 
COc1cc(Nc2ccc(N)cc2)ccc1O (3D coordinates assigned)
COc1cc(Nc2ccc(N)cc2)ccc1O (optimized conformer: 35.24022224602904 kcal/mol)

>  <smiles>  (46) 
COc1cc(Nc2ccc(N)cc2)ccc1O

>  <score_type>  (46) 
oracle

>  <origin>  (46) 
adg

>  <m_score__min__energy>  (46) 
-5.6699999999999999

>  <m_primary>  (46) 
energy

$$$$
46:0
     RDKit          3D

 30 31  0  0  0  0  0  0  0  0999 V2000
   59.0021   30.0509   44.2450 H   0  0  0  0  0  0  0  0  0  0  0  0
   58.7860   29.1500   44.8380 C   0  0  0  0  0  0  0  0  0  0  0  0
   59.8300   28.3020   45.2170 C   0  0  0  0  0  0  0  0  0  0  0  0
   60.8603   28.5288   44.9054 H   0  0  0  0  0  0  0  0  0  0  0  0
   59.5700   27.1630   45.9930 C   0  0  0  0  0  0  0  0  0  0  0  0
   60.6840   26.2300   46.3650 C   0  0  0  0  0  0  0  0  0  0  0  0
   60.7591   26.1671   47.4606 H   0  0  0  0  0  0  0  0  0  0  0  0
   60.4782   25.2308   45.9536 H   0  0  0  0  0  0  0  0  0  0  0  0
   61.6316   26.6079   45.9536 H   0  0  0  0  0  0  0  0  0  0  0  0
   58.2500   26.8710   46.3660 C   0  0  0  0  0  0  0  0  0  0  0  0
   58.0359   25.9696   46.9589 H   0  0  0  0  0  0  0  0  0  0  0  0
   57.2060   27.7180   45.9890 C   0  0  0  0  0  0  0  0  0  0  0  0
   56.1769   27.4907   46.3040 H   0  0  0  0  0  0  0  0  0  0  0  0
   57.4620   28.8600   45.2090 C   0  0  0  0  0  0  0  0  0  0  0  0
   56.3600   29.7670   44.8070 C   0  0  0  0  0  0  0  0  0  0  0  0
   55.1750   29.3400   44.8260 O   0  0  0  0  0  0  0  0  0  0  0  0
   56.5980   31.1050   44.3400 N   0  0  0  0  0  0  0  0  0  0  0  0
   57.3570   31.9950   44.9150 C   0  0  0  0  0  0  0  0  0  0  0  0
   57.7680   31.8380   46.2020 N   0  0  0  0  0  0  0  0  0  0  0  0
   58.5490   32.7590   46.8190 C   0  0  0  0  0  0  0  0  0  0  0  0
   59.0360   32.4500   48.4800 Cl  0  0  0  0  0  0  0  0  0  0  0  0
   58.9460   33.9180   46.1270 C   0  0  0  0  0  0  0  0  0  0  0  0
   59.8170   34.9670   46.7800 C   0  0  0  0  0  0  0  0  0  0  0  0
   59.9220   36.1050   45.9990 F   0  0  0  0  0  0  0  0  0  0  0  0
   59.2740   35.3250   48.0010 F   0  0  0  0  0  0  0  0  0  0  0  0
   61.0870   34.4580   46.9780 F   0  0  0  0  0  0  0  0  0  0  0  0
   58.4970   34.0660   44.8040 C   0  0  0  0  0  0  0  0  0  0  0  0
   58.7796   34.9598   44.2284 H   0  0  0  0  0  0  0  0  0  0  0  0
   57.7160   33.1130   44.2300 N   0  0  0  0  0  0  0  0  0  0  0  0
   57.3960   33.2470   43.2430 H   0  0  0  0  0  0  0  0  0  0  0  0
  1  2  1  0
  2  3  2  0
  3  4  1  0
  3  5  1  0
  5  6  1  0
  6  7  1  0
  6  8  1  0
  6  9  1  0
  5 10  2  0
 10 11  1  0
 10 12  1  0
 12 13  1  0
 12 14  2  0
 14 15  1  0
 15 16  2  0
 15 17  1  0
 17 18  2  0
 18 19  1  0
 19 20  2  0
 20 21  1  0
 20 22  1  0
 22 23  1  0
 23 24  1  0
 23 25  1  0
 23 26  1  0
 22 27  2  0
 27 28  1  0
 27 29  1  0
 29 30  1  0
 14  2  1  0
 29 18  1  0
M  END
>  <UniqueID>  (47) 
44

>  <SMILES>  (47) 
Cc1ccc(C(=O)/N=c2\nc(Cl)c(C(F)(F)F)c[nH]2)cc1

>  <Energy>  (47) 
39.85317395308872

>  <Genealogy>  (47) 
Cc1ccc(C(=O)/N=c2\nc(Cl)c(C(F)(F)F)c[nH]2)cc1 (cis-trans isomerization)
Cc1ccc(C(=O)/N=c2\nc(Cl)c(C(F)(F)F)c[nH]2)cc1 (3D coordinates assigned)
Cc1ccc(C(=O)/N=c2\nc(Cl)c(C(F)(F)F)c[nH]2)cc1 (optimized conformer: 39.85317395308872 kcal/mol)

>  <smiles>  (47) 
Cc1ccc(C(=O)N=c2nc(Cl)c(C(F)(F)F)c[nH]2)cc1

>  <score_type>  (47) 
oracle

>  <origin>  (47) 
adg

>  <m_score__min__energy>  (47) 
-6.9900000000000002

>  <m_primary>  (47) 
energy

$$$$
47:0
     RDKit          3D

 35 37  0  0  0  0  0  0  0  0999 V2000
   55.3360   30.1090   44.4910 O   0  0  0  0  0  0  0  0  0  0  0  0
   56.5670   30.1660   44.2350 C   0  0  0  0  0  0  0  0  0  0  0  0
   57.0290   31.1940   43.3480 N   0  0  0  0  0  0  0  0  0  0  0  0
   57.7760   32.3870   43.7270 C   0  0  0  0  0  0  0  0  0  0  0  0
   57.0860   33.0630   44.9100 C   0  0  0  0  0  0  0  0  0  0  0  0
   58.1030   33.6050   45.8780 C   0  0  0  0  0  0  0  0  0  0  0  0
   58.1900   33.0830   47.1810 C   0  0  0  0  0  0  0  0  0  0  0  0
   59.1580   33.5640   48.0680 C   0  0  0  0  0  0  0  0  0  0  0  0
   60.0520   34.5570   47.6590 C   0  0  0  0  0  0  0  0  0  0  0  0
   59.9820   35.0700   46.3610 C   0  0  0  0  0  0  0  0  0  0  0  0
   59.0150   34.5930   45.4710 C   0  0  0  0  0  0  0  0  0  0  0  0
   57.4670   29.2010   44.9010 C   0  0  0  0  0  0  0  0  0  0  0  0
   58.5300   29.4810   45.7580 C   0  0  0  0  0  0  0  0  0  0  0  0
   59.1030   28.3070   46.0750 N   0  0  0  0  0  0  0  0  0  0  0  0
   60.1730   28.0460   46.8680 C   0  0  0  0  0  0  0  0  0  0  0  0
   60.5760   26.7100   47.0160 C   0  0  0  0  0  0  0  0  0  0  0  0
   59.8690   25.6940   46.3440 C   0  0  0  0  0  0  0  0  0  0  0  0
   58.7700   26.0130   45.5280 C   0  0  0  0  0  0  0  0  0  0  0  0
   58.4160   27.3570   45.4220 C   0  0  0  0  0  0  0  0  0  0  0  0
   57.4110   27.8640   44.6850 N   0  0  0  0  0  0  0  0  0  0  0  0
   58.7999   32.1037   44.0123 H   0  0  0  0  0  0  0  0  0  0  0  0
   57.8128   33.0833   42.8762 H   0  0  0  0  0  0  0  0  0  0  0  0
   56.4623   33.8902   44.5401 H   0  0  0  0  0  0  0  0  0  0  0  0
   56.4635   32.3195   45.4293 H   0  0  0  0  0  0  0  0  0  0  0  0
   57.4945   32.2940   47.5033 H   0  0  0  0  0  0  0  0  0  0  0  0
   59.2159   33.1600   49.0895 H   0  0  0  0  0  0  0  0  0  0  0  0
   60.8114   34.9352   48.3592 H   0  0  0  0  0  0  0  0  0  0  0  0
   60.6882   35.8496   46.0393 H   0  0  0  0  0  0  0  0  0  0  0  0
   58.9681   34.9931   44.4474 H   0  0  0  0  0  0  0  0  0  0  0  0
   58.8415   30.4759   46.1090 H   0  0  0  0  0  0  0  0  0  0  0  0
   60.7091   28.8586   47.3802 H   0  0  0  0  0  0  0  0  0  0  0  0
   61.4375   26.4582   47.6520 H   0  0  0  0  0  0  0  0  0  0  0  0
   60.1787   24.6447   46.4585 H   0  0  0  0  0  0  0  0  0  0  0  0
   58.2103   25.2315   44.9932 H   0  0  0  0  0  0  0  0  0  0  0  0
   56.7400   27.3420   44.0800 H   0  0  0  0  0  0  0  0  0  0  0  0
  1  2  2  0
  2  3  1  0
  3  4  1  0
  4  5  1  0
  5  6  1  0
  6  7  2  0
  7  8  1  0
  8  9  2  0
  9 10  1  0
 10 11  2  0
  2 12  1  0
 12 13  2  0
 13 14  1  0
 14 15  1  0
 15 16  2  0
 16 17  1  0
 17 18  2  0
 18 19  1  0
 19 20  2  0
 11  6  1  0
 20 12  1  0
 19 14  1  0
  4 21  1  0
  4 22  1  0
  5 23  1  0
  5 24  1  0
  7 25  1  0
  8 26  1  0
  9 27  1  0
 10 28  1  0
 11 29  1  0
 13 30  1  0
 15 31  1  0
 16 32  1  0
 17 33  1  0
 18 34  1  0
 20 35  1  0
M  CHG  2   3  -1  20   1
M  END
>  <UniqueID>  (48) 
45

>  <SMILES>  (48) 
O=C([N-]CCc1ccccc1)c1cn2ccccc2[nH+]1

>  <Energy>  (48) 
72.32864757381621

>  <Genealogy>  (48) 
O=C([N-]CCc1ccccc1)c1cn2ccccc2[nH+]1 (protonated)
O=C([N-]CCc1ccccc1)c1cn2ccccc2[nH+]1 (3D coordinates assigned)
O=C([N-]CCc1ccccc1)c1cn2ccccc2[nH+]1 (optimized conformer: 72.32864757381621 kcal/mol)

>  <smiles>  (48) 
O=C(NCCc1ccccc1)c1cn2ccccc2n1

>  <score_type>  (48) 
oracle

>  <origin>  (48) 
adg

>  <m_score__min__energy>  (48) 
-7.2400000000000002

>  <m_primary>  (48) 
energy

$$$$
48:0
     RDKit          3D

 27 28  0  0  0  0  0  0  0  0999 V2000
   56.9940   31.5120   42.4840 O   0  0  0  0  0  0  0  0  0  0  0  0
   57.1920   31.0960   43.9150 S   0  0  0  0  0  0  0  0  0  0  0  0
   55.8620   30.7140   44.5010 O   0  0  0  0  0  0  0  0  0  0  0  0
   58.2540   29.7230   43.9640 N   0  0  0  0  0  0  0  0  0  0  0  0
   58.6840   29.0820   45.1780 C   0  0  0  0  0  0  0  0  0  0  0  0
   57.9760   28.0030   45.7440 C   0  0  0  0  0  0  0  0  0  0  0  0
   58.4280   27.4010   46.9220 C   0  0  0  0  0  0  0  0  0  0  0  0
   59.5860   27.8670   47.5500 C   0  0  0  0  0  0  0  0  0  0  0  0
   60.0220   27.2820   48.6920 F   0  0  0  0  0  0  0  0  0  0  0  0
   60.2930   28.9400   47.0000 C   0  0  0  0  0  0  0  0  0  0  0  0
   59.8440   29.5450   45.8220 C   0  0  0  0  0  0  0  0  0  0  0  0
   57.8690   32.4170   44.8600 C   0  0  0  0  0  0  0  0  0  0  0  0
   58.5000   33.4900   44.2150 C   0  0  0  0  0  0  0  0  0  0  0  0
   59.0300   34.5460   44.9610 C   0  0  0  0  0  0  0  0  0  0  0  0
   58.9360   34.5340   46.3570 C   0  0  0  0  0  0  0  0  0  0  0  0
   58.3130   33.4640   47.0050 C   0  0  0  0  0  0  0  0  0  0  0  0
   57.7810   32.4070   46.2600 C   0  0  0  0  0  0  0  0  0  0  0  0
   58.5390   29.3140   43.0470 H   0  0  0  0  0  0  0  0  0  0  0  0
   57.0625   27.6323   45.2561 H   0  0  0  0  0  0  0  0  0  0  0  0
   57.8704   26.5579   47.3558 H   0  0  0  0  0  0  0  0  0  0  0  0
   61.2037   29.3090   47.4944 H   0  0  0  0  0  0  0  0  0  0  0  0
   60.4036   30.3906   45.3958 H   0  0  0  0  0  0  0  0  0  0  0  0
   58.5781   33.5006   43.1178 H   0  0  0  0  0  0  0  0  0  0  0  0
   59.5215   35.3873   44.4504 H   0  0  0  0  0  0  0  0  0  0  0  0
   59.3521   35.3661   46.9439 H   0  0  0  0  0  0  0  0  0  0  0  0
   58.2410   33.4532   48.1026 H   0  0  0  0  0  0  0  0  0  0  0  0
   57.2923   31.5656   46.7730 H   0  0  0  0  0  0  0  0  0  0  0  0
  1  2  2  0
  2  3  2  0
  2  4  1  0
  4  5  1  0
  5  6  2  0
  6  7  1  0
  7  8  2  0
  8  9  1  0
  8 10  1  0
 10 11  2  0
  2 12  1  0
 12 13  2  0
 13 14  1  0
 14 15  2  0
 15 16  1  0
 16 17  2  0
 11  5  1  0
 17 12  1  0
  4 18  1  0
  6 19  1  0
  7 20  1  0
 10 21  1  0
 11 22  1  0
 13 23  1  0
 14 24  1  0
 15 25  1  0
 16 26  1  0
 17 27  1  0
M  END
>  <UniqueID>  (49) 
46

>  <SMILES>  (49) 
O=S(=O)(Nc1ccc(F)cc1)c1ccccc1

>  <Energy>  (49) 
30.420470796416943

>  <Genealogy>  (49) 
O=S(=O)(Nc1ccc(F)cc1)c1ccccc1 (3D coordinates assigned)
O=S(=O)(Nc1ccc(F)cc1)c1ccccc1 (optimized conformer: 30.420470796416943 kcal/mol)

>  <smiles>  (49) 
O=S(=O)(Nc1ccc(F)cc1)c1ccccc1

>  <score_type>  (49) 
oracle

>  <origin>  (49) 
adg

>  <m_score__min__energy>  (49) 
-6.8799999999999999

>  <m_primary>  (49) 
energy

$$$$
49:0
     RDKit          3D

 51 55  0  0  0  0  0  0  0  0999 V2000
   65.7530   32.7020   49.9670 C   0  0  0  0  0  0  0  0  0  0  0  0
   64.4640   32.9540   49.2570 C   0  0  0  0  0  0  0  0  0  0  0  0
   64.3420   33.2190   47.9370 N   0  0  0  0  0  0  0  0  0  0  0  0
   63.0520   33.3280   47.6270 N   0  0  0  0  0  0  0  0  0  0  0  0
   62.5770   33.7020   46.2990 C   0  0  0  0  0  0  0  0  0  0  0  0
   62.3280   33.1310   48.7550 C   0  0  0  0  0  0  0  0  0  0  0  0
   60.9410   33.1390   48.9770 C   0  0  0  0  0  0  0  0  0  0  0  0
   60.0060   33.3480   47.9050 N   0  0  0  0  0  0  0  0  0  0  0  0
   59.6280   34.7160   47.5420 C   0  0  0  0  0  0  0  0  0  0  0  0
   59.1560   34.7640   46.0800 C   0  0  0  0  0  0  0  0  0  0  0  0
   58.1590   33.7140   45.7230 N   0  0  0  0  0  0  0  0  0  0  0  0
   58.4840   33.0500   44.4420 C   0  0  0  0  0  0  0  0  0  0  0  0
   57.8260   31.7060   44.3650 C   0  0  0  0  0  0  0  0  0  0  0  0
   58.4690   30.5060   44.1440 C   0  0  0  0  0  0  0  0  0  0  0  0
   57.4790   29.5460   44.1730 C   0  0  0  0  0  0  0  0  0  0  0  0
   56.2990   30.2210   44.4110 C   0  0  0  0  0  0  0  0  0  0  0  0
   56.5380   31.5080   44.5210 O   0  0  0  0  0  0  0  0  0  0  0  0
   57.8940   32.7250   46.7930 C   0  0  0  0  0  0  0  0  0  0  0  0
   59.1840   32.2210   47.4510 C   0  0  0  0  0  0  0  0  0  0  0  0
   60.4970   32.9010   50.3110 C   0  0  0  0  0  0  0  0  0  0  0  0
   59.1310   32.9000   50.6530 C   0  0  0  0  0  0  0  0  0  0  0  0
   58.7300   32.6590   51.9710 C   0  0  0  0  0  0  0  0  0  0  0  0
   57.0240   32.6600   52.3780 Cl  0  0  0  0  0  0  0  0  0  0  0  0
   59.6820   32.4170   52.9640 C   0  0  0  0  0  0  0  0  0  0  0  0
   61.0420   32.4150   52.6500 C   0  0  0  0  0  0  0  0  0  0  0  0
   61.4640   32.6540   51.3390 C   0  0  0  0  0  0  0  0  0  0  0  0
   62.7980   32.6510   51.0530 N   0  0  0  0  0  0  0  0  0  0  0  0
   63.1960   32.8880   49.7820 C   0  0  0  0  0  0  0  0  0  0  0  0
   65.5855   32.7347   51.0537 H   0  0  0  0  0  0  0  0  0  0  0  0
   66.1392   31.7113   49.6852 H   0  0  0  0  0  0  0  0  0  0  0  0
   66.4839   33.4743   49.6852 H   0  0  0  0  0  0  0  0  0  0  0  0
   65.1300   33.3300   47.2590 H   0  0  0  0  0  0  0  0  0  0  0  0
   61.7160   34.3799   46.3950 H   0  0  0  0  0  0  0  0  0  0  0  0
   63.3841   34.2097   45.7504 H   0  0  0  0  0  0  0  0  0  0  0  0
   62.2728   32.7984   45.7504 H   0  0  0  0  0  0  0  0  0  0  0  0
   58.8130   35.0545   48.1986 H   0  0  0  0  0  0  0  0  0  0  0  0
   60.5017   35.3739   47.6597 H   0  0  0  0  0  0  0  0  0  0  0  0
   58.7003   35.7483   45.8971 H   0  0  0  0  0  0  0  0  0  0  0  0
   60.0433   34.5815   45.4560 H   0  0  0  0  0  0  0  0  0  0  0  0
   58.1283   33.6753   43.6098 H   0  0  0  0  0  0  0  0  0  0  0  0
   59.5739   32.9164   44.3774 H   0  0  0  0  0  0  0  0  0  0  0  0
   59.5450   30.3478   43.9793 H   0  0  0  0  0  0  0  0  0  0  0  0
   57.6046   28.4620   44.0345 H   0  0  0  0  0  0  0  0  0  0  0  0
   55.3076   29.7519   44.4958 H   0  0  0  0  0  0  0  0  0  0  0  0
   57.2649   33.1962   47.5626 H   0  0  0  0  0  0  0  0  0  0  0  0
   57.3893   31.8611   46.3358 H   0  0  0  0  0  0  0  0  0  0  0  0
   58.9268   31.5901   48.3146 H   0  0  0  0  0  0  0  0  0  0  0  0
   59.7555   31.6399   46.7123 H   0  0  0  0  0  0  0  0  0  0  0  0
   58.3739   33.0901   49.8780 H   0  0  0  0  0  0  0  0  0  0  0  0
   59.3585   32.2271   53.9981 H   0  0  0  0  0  0  0  0  0  0  0  0
   61.7854   32.2244   53.4381 H   0  0  0  0  0  0  0  0  0  0  0  0
  1  2  1  0
  2  3  2  0
  3  4  1  0
  4  5  1  0
  4  6  1  0
  6  7  2  0
  7  8  1  0
  8  9  1  0
  9 10  1  0
 10 11  1  0
 11 12  1  0
 12 13  1  0
 13 14  2  0
 14 15  1  0
 15 16  2  0
 16 17  1  0
 11 18  1  0
 18 19  1  0
  7 20  1  0
 20 21  2  0
 21 22  1  0
 22 23  1  0
 22 24  2  0
 24 25  1  0
 25 26  2  0
 26 27  1  0
 27 28  2  0
 28  2  1  0
 28  6  1  0
 19  8  1  0
 26 20  1  0
 17 13  1  0
  1 29  1  0
  1 30  1  0
  1 31  1  0
  3 32  1  0
  5 33  1  0
  5 34  1  0
  5 35  1  0
  9 36  1  0
  9 37  1  0
 10 38  1  0
 10 39  1  0
 12 40  1  0
 12 41  1  0
 14 42  1  0
 15 43  1  0
 16 44  1  0
 18 45  1  0
 18 46  1  0
 19 47  1  0
 19 48  1  0
 21 49  1  0
 24 50  1  0
 25 51  1  0
M  CHG  1   3   1
M  END
>  <UniqueID>  (50) 
47

>  <SMILES>  (50) 
Cc1[nH+]n(C)c2c(N3CCN(Cc4ccco4)CC3)c3cc(Cl)ccc3nc12

>  <Energy>  (50) 
138.28855350221897

>  <Genealogy>  (50) 
Cc1[nH+]n(C)c2c(N3CCN(Cc4ccco4)CC3)c3cc(Cl)ccc3nc12 (protonated)
Cc1[nH+]n(C)c2c(N3CCN(Cc4ccco4)CC3)c3cc(Cl)ccc3nc12 (3D coordinates assigned)
Cc1[nH+]n(C)c2c(N3CCN(Cc4ccco4)CC3)c3cc(Cl)ccc3nc12 (nonaromatic ring conformer: 138.28855350221897 kcal/mol)

>  <smiles>  (50) 
Cc1nn(C)c2c(N3CCN(Cc4ccco4)CC3)c3cc(Cl)ccc3nc12

>  <score_type>  (50) 
oracle

>  <origin>  (50) 
adg

>  <m_score__min__energy>  (50) 
-7.5999999999999996

>  <m_primary>  (50) 
energy

$$$$
50:0
     RDKit          3D

 51 54  0  0  0  0  0  0  0  0999 V2000
   55.8990   30.5260   44.6410 O   0  0  0  0  0  0  0  0  0  0  0  0
   57.0530   30.0190   44.6810 C   0  0  0  0  0  0  0  0  0  0  0  0
   57.1960   28.5490   44.5920 C   0  0  0  0  0  0  0  0  0  0  0  0
   56.7220   27.7310   45.6290 C   0  0  0  0  0  0  0  0  0  0  0  0
   56.8470   26.3420   45.5500 C   0  0  0  0  0  0  0  0  0  0  0  0
   57.4380   25.7410   44.4230 C   0  0  0  0  0  0  0  0  0  0  0  0
   57.5710   24.2640   44.3370 C   0  0  0  0  0  0  0  0  0  0  0  0
   56.7720   23.5240   43.4440 C   0  0  0  0  0  0  0  0  0  0  0  0
   56.8990   22.1350   43.3650 C   0  0  0  0  0  0  0  0  0  0  0  0
   57.8230   21.4680   44.1730 C   0  0  0  0  0  0  0  0  0  0  0  0
   58.6220   22.1900   45.0620 C   0  0  0  0  0  0  0  0  0  0  0  0
   58.4990   23.5800   45.1460 C   0  0  0  0  0  0  0  0  0  0  0  0
   57.8940   26.5630   43.3770 C   0  0  0  0  0  0  0  0  0  0  0  0
   57.7700   27.9530   43.4600 C   0  0  0  0  0  0  0  0  0  0  0  0
   58.2000   30.8780   44.8360 N   0  0  0  0  0  0  0  0  0  0  0  0
   58.1950   32.2330   44.2750 C   0  0  0  0  0  0  0  0  0  0  0  0
   58.3620   33.2910   45.3870 C   0  0  0  0  0  0  0  0  0  0  0  0
   59.0010   32.7530   46.6160 N   0  0  0  0  0  0  0  0  0  0  0  0
   59.6060   33.8280   47.3770 C   0  0  0  0  0  0  0  0  0  0  0  0
   58.8870   34.7870   47.7800 O   0  0  0  0  0  0  0  0  0  0  0  0
   61.0530   33.8210   47.7240 C   0  0  0  0  0  0  0  0  0  0  0  0
   62.0380   33.8630   46.7180 C   0  0  0  0  0  0  0  0  0  0  0  0
   63.3960   33.8450   47.0520 C   0  0  0  0  0  0  0  0  0  0  0  0
   63.7880   33.7820   48.3890 C   0  0  0  0  0  0  0  0  0  0  0  0
   62.8230   33.7340   49.3980 C   0  0  0  0  0  0  0  0  0  0  0  0
   61.4630   33.7510   49.0720 C   0  0  0  0  0  0  0  0  0  0  0  0
   60.5510   33.7220   50.0780 F   0  0  0  0  0  0  0  0  0  0  0  0
   60.0060   31.7140   46.3040 C   0  0  0  0  0  0  0  0  0  0  0  0
   59.3180   30.4780   45.7020 C   0  0  0  0  0  0  0  0  0  0  0  0
   56.2484   28.1871   46.5109 H   0  0  0  0  0  0  0  0  0  0  0  0
   56.4807   25.7132   46.3749 H   0  0  0  0  0  0  0  0  0  0  0  0
   56.0430   24.0432   42.8044 H   0  0  0  0  0  0  0  0  0  0  0  0
   56.2701   21.5653   42.6651 H   0  0  0  0  0  0  0  0  0  0  0  0
   57.9212   20.3743   44.1090 H   0  0  0  0  0  0  0  0  0  0  0  0
   59.3496   21.6639   45.6975 H   0  0  0  0  0  0  0  0  0  0  0  0
   59.1311   24.1431   45.8484 H   0  0  0  0  0  0  0  0  0  0  0  0
   58.3520   26.1085   42.4862 H   0  0  0  0  0  0  0  0  0  0  0  0
   58.1252   28.5835   42.6316 H   0  0  0  0  0  0  0  0  0  0  0  0
   59.0245   32.3293   43.5590 H   0  0  0  0  0  0  0  0  0  0  0  0
   57.2313   32.4013   43.7720 H   0  0  0  0  0  0  0  0  0  0  0  0
   58.9850   34.1104   44.9991 H   0  0  0  0  0  0  0  0  0  0  0  0
   57.3547   33.6339   45.6657 H   0  0  0  0  0  0  0  0  0  0  0  0
   58.2630   32.2950   47.2040 H   0  0  0  0  0  0  0  0  0  0  0  0
   61.7367   33.9103   45.6611 H   0  0  0  0  0  0  0  0  0  0  0  0
   64.1568   33.8806   46.2583 H   0  0  0  0  0  0  0  0  0  0  0  0
   64.8568   33.7701   48.6489 H   0  0  0  0  0  0  0  0  0  0  0  0
   63.1337   33.6827   50.4520 H   0  0  0  0  0  0  0  0  0  0  0  0
   60.7315   32.1150   45.5809 H   0  0  0  0  0  0  0  0  0  0  0  0
   60.5229   31.4231   47.2304 H   0  0  0  0  0  0  0  0  0  0  0  0
   60.0497   29.9103   45.1085 H   0  0  0  0  0  0  0  0  0  0  0  0
   58.9271   29.8560   46.5208 H   0  0  0  0  0  0  0  0  0  0  0  0
  1  2  2  0
  2  3  1  0
  3  4  2  0
  4  5  1  0
  5  6  2  0
  6  7  1  0
  7  8  2  0
  8  9  1  0
  9 10  2  0
 10 11  1  0
 11 12  2  0
  6 13  1  0
 13 14  2  0
  2 15  1  0
 15 16  1  0
 16 17  1  0
 17 18  1  0
 18 19  1  0
 19 20  2  0
 19 21  1  0
 21 22  2  0
 22 23  1  0
 23 24  2  0
 24 25  1  0
 25 26  2  0
 26 27  1  0
 18 28  1  0
 28 29  1  0
 14  3  1  0
 29 15  1  0
 12  7  1  0
 26 21  1  0
  4 30  1  0
  5 31  1  0
  8 32  1  0
  9 33  1  0
 10 34  1  0
 11 35  1  0
 12 36  1  0
 13 37  1  0
 14 38  1  0
 16 39  1  0
 16 40  1  0
 17 41  1  0
 17 42  1  0
 18 43  1  0
 22 44  1  0
 23 45  1  0
 24 46  1  0
 25 47  1  0
 28 48  1  0
 28 49  1  0
 29 50  1  0
 29 51  1  0
M  CHG  1  18   1
M  END
>  <UniqueID>  (51) 
48

>  <SMILES>  (51) 
O=C(c1ccc(-c2ccccc2)cc1)N1CC[NH+](C(=O)c2ccccc2F)CC1

>  <Energy>  (51) 
77.34746022489257

>  <Genealogy>  (51) 
O=C(c1ccc(-c2ccccc2)cc1)N1CC[NH+](C(=O)c2ccccc2F)CC1 (protonated)
O=C(c1ccc(-c2ccccc2)cc1)N1CC[NH+](C(=O)c2ccccc2F)CC1 (3D coordinates assigned)
O=C(c1ccc(-c2ccccc2)cc1)N1CC[NH+](C(=O)c2ccccc2F)CC1 (nonaromatic ring conformer: 77.34746022489257 kcal/mol)

>  <smiles>  (51) 
O=C(c1ccc(-c2ccccc2)cc1)N1CCN(C(=O)c2ccccc2F)CC1

>  <score_type>  (51) 
oracle

>  <origin>  (51) 
adg

>  <m_score__min__energy>  (51) 
-8.0600000000000005

>  <m_primary>  (51) 
energy

$$$$
51:0
     RDKit          3D

 23 24  0  0  0  0  0  0  0  0999 V2000
   59.7386   35.7781   45.3506 H   0  0  0  0  0  0  0  0  0  0  0  0
   59.2600   34.7880   45.3240 C   0  0  0  0  0  0  0  0  0  0  0  0
   58.9490   34.2160   44.1330 N   0  0  0  0  0  0  0  0  0  0  0  0
   58.3500   32.9970   44.0470 C   0  0  0  0  0  0  0  0  0  0  0  0
   58.0560   32.3570   42.4350 Cl  0  0  0  0  0  0  0  0  0  0  0  0
   58.0310   32.2820   45.2280 C   0  0  0  0  0  0  0  0  0  0  0  0
   57.3660   30.9550   45.2070 C   0  0  0  0  0  0  0  0  0  0  0  0
   56.1170   30.7350   44.7280 N   0  0  0  0  0  0  0  0  0  0  0  0
   55.7150   29.4700   44.8330 N   0  0  0  0  0  0  0  0  0  0  0  0
   56.6410   28.6710   45.4040 C   0  0  0  0  0  0  0  0  0  0  0  0
   56.4780   27.4010   45.6190 N   0  0  0  0  0  0  0  0  0  0  0  0
   57.4280   26.3670   45.2120 C   0  0  0  0  0  0  0  0  0  0  0  0
   56.8938   25.4127   45.0937 H   0  0  0  0  0  0  0  0  0  0  0  0
   58.2048   26.2774   45.9857 H   0  0  0  0  0  0  0  0  0  0  0  0
   58.0940   26.7340   43.8910 C   0  0  0  0  0  0  0  0  0  0  0  0
   59.0414   27.2561   44.0906 H   0  0  0  0  0  0  0  0  0  0  0  0
   58.2941   25.8188   43.3145 H   0  0  0  0  0  0  0  0  0  0  0  0
   57.4271   27.3920   43.3145 H   0  0  0  0  0  0  0  0  0  0  0  0
   58.0290   29.5200   45.8150 S   0  0  0  0  0  0  0  0  0  0  0  0
   58.3630   32.8690   46.4630 C   0  0  0  0  0  0  0  0  0  0  0  0
   58.1390   32.3348   47.3981 H   0  0  0  0  0  0  0  0  0  0  0  0
   58.9730   34.1210   46.5120 C   0  0  0  0  0  0  0  0  0  0  0  0
   59.2254   34.5780   47.4802 H   0  0  0  0  0  0  0  0  0  0  0  0
  1  2  1  0
  2  3  2  0
  3  4  1  0
  4  5  1  0
  4  6  2  0
  6  7  1  0
  7  8  2  0
  8  9  1  0
  9 10  1  0
 10 11  2  0
 11 12  1  0
 12 13  1  0
 12 14  1  0
 12 15  1  0
 15 16  1  0
 15 17  1  0
 15 18  1  0
 10 19  1  0
  6 20  1  0
 20 21  1  0
 20 22  2  0
 22 23  1  0
 22  2  1  0
 19  7  1  0
M  CHG  1   9  -1
M  END
>  <UniqueID>  (52) 
49

>  <SMILES>  (52) 
CC/N=c1\[n-]nc(-c2cccnc2Cl)s1

>  <Energy>  (52) 
59.96127079800873

>  <Genealogy>  (52) 
CCN=c1[n-]nc(-c2cccnc2Cl)s1 (protonated)
CC/N=c1\[n-]nc(-c2cccnc2Cl)s1 (cis-trans isomerization)
CC/N=c1\[n-]nc(-c2cccnc2Cl)s1 (3D coordinates assigned)
CC/N=c1\[n-]nc(-c2cccnc2Cl)s1 (optimized conformer: 59.96127079800873 kcal/mol)

>  <smiles>  (52) 
CCN=c1[nH]nc(-c2cccnc2Cl)s1

>  <score_type>  (52) 
oracle

>  <origin>  (52) 
adg

>  <m_score__min__energy>  (52) 
-8.1099999999999994

>  <m_primary>  (52) 
energy

$$$$
52:0
     RDKit          3D

 31 33  0  0  0  0  0  0  0  0999 V2000
   58.9660   34.9650   44.9610 C   0  0  0  0  0  0  0  0  0  0  0  0
   58.4650   33.5600   44.8530 C   0  0  0  0  0  0  0  0  0  0  0  0
   57.9560   33.0600   43.6970 N   0  0  0  0  0  0  0  0  0  0  0  0
   57.6850   31.7810   44.0120 C   0  0  0  0  0  0  0  0  0  0  0  0
   57.1470   30.8010   43.1810 C   0  0  0  0  0  0  0  0  0  0  0  0
   56.9620   29.5140   43.7190 C   0  0  0  0  0  0  0  0  0  0  0  0
   57.3170   29.2420   45.0590 C   0  0  0  0  0  0  0  0  0  0  0  0
   57.8590   30.2540   45.8740 C   0  0  0  0  0  0  0  0  0  0  0  0
   58.0280   31.5210   45.3090 C   0  0  0  0  0  0  0  0  0  0  0  0
   58.5240   32.6440   45.8600 N   0  0  0  0  0  0  0  0  0  0  0  0
   59.0810   32.8200   47.2050 C   0  0  0  0  0  0  0  0  0  0  0  0
   60.5840   32.7520   47.1640 C   0  0  0  0  0  0  0  0  0  0  0  0
   61.3330   33.8790   46.7890 C   0  0  0  0  0  0  0  0  0  0  0  0
   62.7300   33.8230   46.7670 C   0  0  0  0  0  0  0  0  0  0  0  0
   63.3900   32.6430   47.1200 C   0  0  0  0  0  0  0  0  0  0  0  0
   62.6520   31.5150   47.4940 C   0  0  0  0  0  0  0  0  0  0  0  0
   61.2550   31.5670   47.5170 C   0  0  0  0  0  0  0  0  0  0  0  0
   59.0637   35.2389   46.0219 H   0  0  0  0  0  0  0  0  0  0  0  0
   59.9474   35.0431   44.4703 H   0  0  0  0  0  0  0  0  0  0  0  0
   58.2554   35.6464   44.4703 H   0  0  0  0  0  0  0  0  0  0  0  0
   56.8758   31.0257   42.1389 H   0  0  0  0  0  0  0  0  0  0  0  0
   56.5385   28.7151   43.0925 H   0  0  0  0  0  0  0  0  0  0  0  0
   57.1688   28.2320   45.4687 H   0  0  0  0  0  0  0  0  0  0  0  0
   58.1396   30.0544   46.9187 H   0  0  0  0  0  0  0  0  0  0  0  0
   58.7732   33.7997   47.5993 H   0  0  0  0  0  0  0  0  0  0  0  0
   58.7052   32.0158   47.8546 H   0  0  0  0  0  0  0  0  0  0  0  0
   60.8182   34.8106   46.5112 H   0  0  0  0  0  0  0  0  0  0  0  0
   63.3104   34.7094   46.4713 H   0  0  0  0  0  0  0  0  0  0  0  0
   64.4891   32.6011   47.1038 H   0  0  0  0  0  0  0  0  0  0  0  0
   63.1716   30.5857   47.7704 H   0  0  0  0  0  0  0  0  0  0  0  0
   60.6784   30.6780   47.8122 H   0  0  0  0  0  0  0  0  0  0  0  0
  1  2  1  0
  2  3  2  0
  3  4  1  0
  4  5  2  0
  5  6  1  0
  6  7  2  0
  7  8  1  0
  8  9  2  0
  9 10  1  0
 10 11  1  0
 11 12  1  0
 12 13  2  0
 13 14  1  0
 14 15  2  0
 15 16  1  0
 16 17  2  0
 10  2  1  0
 17 12  1  0
  9  4  1  0
  1 18  1  0
  1 19  1  0
  1 20  1  0
  5 21  1  0
  6 22  1  0
  7 23  1  0
  8 24  1  0
 11 25  1  0
 11 26  1  0
 13 27  1  0
 14 28  1  0
 15 29  1  0
 16 30  1  0
 17 31  1  0
M  END
>  <UniqueID>  (53) 
50

>  <SMILES>  (53) 
Cc1nc2ccccc2n1Cc1ccccc1

>  <Energy>  (53) 
68.37745216632713

>  <Genealogy>  (53) 
Cc1nc2ccccc2n1Cc1ccccc1 (3D coordinates assigned)
Cc1nc2ccccc2n1Cc1ccccc1 (optimized conformer: 68.37745216632713 kcal/mol)

>  <smiles>  (53) 
Cc1nc2ccccc2n1Cc1ccccc1

>  <score_type>  (53) 
oracle

>  <origin>  (53) 
adg

>  <m_score__min__energy>  (53) 
-6.4299999999999997

>  <m_primary>  (53) 
energy

$$$$
53:0
     RDKit          3D

 28 29  0  0  0  0  0  0  0  0999 V2000
   61.6437   30.4535   46.9729 H   0  0  0  0  0  0  0  0  0  0  0  0
   60.5880   30.3750   46.6740 C   0  0  0  0  0  0  0  0  0  0  0  0
   60.1980   29.3070   45.7300 C   0  0  0  0  0  0  0  0  0  0  0  0
   61.0360   28.9520   44.8590 O   0  0  0  0  0  0  0  0  0  0  0  0
   58.8800   28.6300   45.7740 C   0  0  0  0  0  0  0  0  0  0  0  0
   57.7550   29.1900   45.1390 C   0  0  0  0  0  0  0  0  0  0  0  0
   57.8534   30.1367   44.5876 H   0  0  0  0  0  0  0  0  0  0  0  0
   56.5130   28.5500   45.2050 C   0  0  0  0  0  0  0  0  0  0  0  0
   55.6407   28.9902   44.6998 H   0  0  0  0  0  0  0  0  0  0  0  0
   56.3790   27.3520   45.9120 C   0  0  0  0  0  0  0  0  0  0  0  0
   55.1450   26.7170   45.9750 O   0  0  0  0  0  0  0  0  0  0  0  0
   57.4860   26.7960   46.5610 C   0  0  0  0  0  0  0  0  0  0  0  0
   57.3790   25.8561   47.1223 H   0  0  0  0  0  0  0  0  0  0  0  0
   58.7290   27.4340   46.4970 C   0  0  0  0  0  0  0  0  0  0  0  0
   59.5946   26.9967   47.0162 H   0  0  0  0  0  0  0  0  0  0  0  0
   59.7120   31.2510   47.1810 C   0  0  0  0  0  0  0  0  0  0  0  0
   59.3262   31.0846   48.1976 H   0  0  0  0  0  0  0  0  0  0  0  0
   59.2430   32.4330   46.4280 C   0  0  0  0  0  0  0  0  0  0  0  0
   57.7440   32.6050   45.6760 S   0  0  0  0  0  0  0  0  0  0  0  0
   58.0000   34.1520   45.0720 C   0  0  0  0  0  0  0  0  0  0  0  0
   57.2843   34.7396   44.4783 H   0  0  0  0  0  0  0  0  0  0  0  0
   59.2710   34.5600   45.4520 C   0  0  0  0  0  0  0  0  0  0  0  0
   59.6916   35.5409   45.1857 H   0  0  0  0  0  0  0  0  0  0  0  0
   59.9710   33.6050   46.2080 C   0  0  0  0  0  0  0  0  0  0  0  0
   61.3610   33.8350   46.7200 C   0  0  0  0  0  0  0  0  0  0  0  0
   61.3515   33.8334   47.8200 H   0  0  0  0  0  0  0  0  0  0  0  0
   62.0223   33.0341   46.3579 H   0  0  0  0  0  0  0  0  0  0  0  0
   61.7291   34.8063   46.3579 H   0  0  0  0  0  0  0  0  0  0  0  0
  1  2  1  0
  2  3  1  0
  3  4  2  0
  3  5  1  0
  5  6  2  0
  6  7  1  0
  6  8  1  0
  8  9  1  0
  8 10  2  0
 10 11  1  0
 10 12  1  0
 12 13  1  0
 12 14  2  0
 14 15  1  0
  2 16  2  0
 16 17  1  0
 16 18  1  0
 18 19  1  0
 19 20  1  0
 20 21  1  0
 20 22  2  0
 22 23  1  0
 22 24  1  0
 24 25  1  0
 25 26  1  0
 25 27  1  0
 25 28  1  0
 14  5  1  0
 24 18  2  0
M  CHG  1  11  -1
M  END
>  <UniqueID>  (54) 
51

>  <SMILES>  (54) 
Cc1ccsc1/C=C/C(=O)c1ccc([O-])cc1

>  <Energy>  (54) 
57.78352144153879

>  <Genealogy>  (54) 
Cc1ccsc1C=CC(=O)c1ccc([O-])cc1 (protonated)
Cc1ccsc1/C=C/C(=O)c1ccc([O-])cc1 (cis-trans isomerization)
Cc1ccsc1/C=C/C(=O)c1ccc([O-])cc1 (3D coordinates assigned)
Cc1ccsc1/C=C/C(=O)c1ccc([O-])cc1 (optimized conformer: 57.78352144153879 kcal/mol)

>  <smiles>  (54) 
Cc1ccsc1C=CC(=O)c1ccc(O)cc1

>  <score_type>  (54) 
oracle

>  <origin>  (54) 
adg

>  <m_score__min__energy>  (54) 
-9.9900000000000002

>  <m_primary>  (54) 
energy

$$$$
54:0
     RDKit          3D

 58 61  0  0  0  0  0  0  0  0999 V2000
   55.4229   30.7355   43.7020 H   0  0  0  0  0  0  0  0  0  0  0  0
   55.9960   29.8800   44.0890 C   0  0  0  0  0  0  0  0  0  0  0  0
   55.5220   28.9610   44.9540 N   0  0  0  0  0  0  0  0  0  0  0  0
   56.4960   28.0960   45.1970 N   0  0  0  0  0  0  0  0  0  0  0  0
   56.3270   26.9070   46.0320 C   0  0  0  0  0  0  0  0  0  0  0  0
   55.2790   26.8384   46.3591 H   0  0  0  0  0  0  0  0  0  0  0  0
   56.9886   26.9855   46.9073 H   0  0  0  0  0  0  0  0  0  0  0  0
   56.6900   25.6600   45.2460 C   0  0  0  0  0  0  0  0  0  0  0  0
   56.9278   24.8432   45.9434 H   0  0  0  0  0  0  0  0  0  0  0  0
   55.8403   25.3656   44.6125 H   0  0  0  0  0  0  0  0  0  0  0  0
   57.5650   25.8676   44.6125 H   0  0  0  0  0  0  0  0  0  0  0  0
   57.5860   28.4480   44.4860 C   0  0  0  0  0  0  0  0  0  0  0  0
   58.6930   27.7610   44.4690 N   0  0  0  0  0  0  0  0  0  0  0  0
   59.5360   27.5150   45.6010 C   0  0  0  0  0  0  0  0  0  0  0  0
   59.9500   26.3400   45.8060 O   0  0  0  0  0  0  0  0  0  0  0  0
   59.8550   28.5900   46.5650 C   0  0  0  0  0  0  0  0  0  0  0  0
   59.6480   29.8880   46.2140 N   0  0  0  0  0  0  0  0  0  0  0  0
   59.9090   30.9260   47.0540 C   0  0  0  0  0  0  0  0  0  0  0  0
   59.6660   32.3190   46.6030 C   0  0  0  0  0  0  0  0  0  0  0  0
   58.4470   32.6710   45.9850 C   0  0  0  0  0  0  0  0  0  0  0  0
   57.6826   31.9000   45.8080 H   0  0  0  0  0  0  0  0  0  0  0  0
   58.2030   33.9910   45.5960 C   0  0  0  0  0  0  0  0  0  0  0  0
   57.2492   34.2547   45.1157 H   0  0  0  0  0  0  0  0  0  0  0  0
   59.1670   34.9740   45.8160 C   0  0  0  0  0  0  0  0  0  0  0  0
   58.9614   36.0175   45.5354 H   0  0  0  0  0  0  0  0  0  0  0  0
   60.3950   34.6350   46.3930 C   0  0  0  0  0  0  0  0  0  0  0  0
   61.1626   35.4085   46.5428 H   0  0  0  0  0  0  0  0  0  0  0  0
   60.6500   33.3160   46.7800 C   0  0  0  0  0  0  0  0  0  0  0  0
   61.8410   33.0280   47.3650 F   0  0  0  0  0  0  0  0  0  0  0  0
   60.4230   30.6550   48.3320 C   0  0  0  0  0  0  0  0  0  0  0  0
   60.6631   31.4836   49.0145 H   0  0  0  0  0  0  0  0  0  0  0  0
   60.6310   29.3280   48.7400 C   0  0  0  0  0  0  0  0  0  0  0  0
   61.1120   28.9940   50.0190 O   0  0  0  0  0  0  0  0  0  0  0  0
   61.7900   29.8920   50.9010 C   0  0  0  0  0  0  0  0  0  0  0  0
   62.3380   29.3124   51.6585 H   0  0  0  0  0  0  0  0  0  0  0  0
   62.4914   30.5062   50.3172 H   0  0  0  0  0  0  0  0  0  0  0  0
   60.7770   30.8170   51.6030 C   0  0  0  0  0  0  0  0  0  0  0  0
   60.9785   30.8068   52.6843 H   0  0  0  0  0  0  0  0  0  0  0  0
   60.8948   31.8267   51.1827 H   0  0  0  0  0  0  0  0  0  0  0  0
   59.3710   30.3890   51.3740 N   0  0  0  0  0  0  0  0  0  0  0  0
   59.2860   30.0500   50.3820 H   0  0  0  0  0  0  0  0  0  0  0  0
   58.4770   31.5610   51.5090 C   0  0  0  0  0  0  0  0  0  0  0  0
   58.6413   32.0279   52.4914 H   0  0  0  0  0  0  0  0  0  0  0  0
   58.7064   32.2724   50.7020 H   0  0  0  0  0  0  0  0  0  0  0  0
   56.9940   31.1410   51.3900 C   0  0  0  0  0  0  0  0  0  0  0  0
   56.3793   31.9355   51.8382 H   0  0  0  0  0  0  0  0  0  0  0  0
   56.8070   30.9898   50.3166 H   0  0  0  0  0  0  0  0  0  0  0  0
   56.6530   29.9070   52.0270 O   0  0  0  0  0  0  0  0  0  0  0  0
   57.6180   29.5210   52.9840 C   0  0  0  0  0  0  0  0  0  0  0  0
   57.7216   30.3163   53.7369 H   0  0  0  0  0  0  0  0  0  0  0  0
   57.2921   28.5877   53.4664 H   0  0  0  0  0  0  0  0  0  0  0  0
   58.9780   29.2860   52.3020 C   0  0  0  0  0  0  0  0  0  0  0  0
   59.7485   29.1942   53.0816 H   0  0  0  0  0  0  0  0  0  0  0  0
   58.8871   28.3699   51.6999 H   0  0  0  0  0  0  0  0  0  0  0  0
   60.3480   28.2910   47.8450 C   0  0  0  0  0  0  0  0  0  0  0  0
   60.5112   27.2448   48.1431 H   0  0  0  0  0  0  0  0  0  0  0  0
   57.3070   29.5910   43.7590 C   0  0  0  0  0  0  0  0  0  0  0  0
   57.9725   30.1413   43.0777 H   0  0  0  0  0  0  0  0  0  0  0  0
  1  2  1  0
  2  3  1  0
  3  4  1  0
  4  5  1  0
  5  6  1  0
  5  7  1  0
  5  8  1  0
  8  9  1  0
  8 10  1  0
  8 11  1  0
  4 12  1  0
 12 13  2  0
 13 14  1  0
 14 15  2  0
 14 16  1  0
 16 17  2  0
 17 18  1  0
 18 19  1  0
 19 20  2  0
 20 21  1  0
 20 22  1  0
 22 23  1  0
 22 24  2  0
 24 25  1  0
 24 26  1  0
 26 27  1  0
 26 28  2  0
 28 29  1  0
 18 30  2  0
 30 31  1  0
 30 32  1  0
 32 33  1  0
 33 34  1  0
 34 35  1  0
 34 36  1  0
 34 37  1  0
 37 38  1  0
 37 39  1  0
 37 40  1  0
 40 41  1  0
 40 42  1  0
 42 43  1  0
 42 44  1  0
 42 45  1  0
 45 46  1  0
 45 47  1  0
 45 48  1  0
 48 49  1  0
 49 50  1  0
 49 51  1  0
 49 52  1  0
 52 53  1  0
 52 54  1  0
 32 55  2  0
 55 56  1  0
 12 57  1  0
 57 58  1  0
 57  2  2  0
 55 16  1  0
 28 19  1  0
 52 40  1  0
M  CHG  2   3  -1  40   1
M  END
>  <UniqueID>  (55) 
52

>  <SMILES>  (55) 
CCn1[n-]cc/c1=N\C(=O)c1cc(OCC[NH+]2CCOCC2)cc(-c2ccccc2F)n1

>  <Energy>  (55) 
113.31784902983027

>  <Genealogy>  (55) 
CCn1[n-]ccc1=NC(=O)c1cc(OCC[NH+]2CCOCC2)cc(-c2ccccc2F)n1 (protonated)
CCn1[n-]cc/c1=N\C(=O)c1cc(OCC[NH+]2CCOCC2)cc(-c2ccccc2F)n1 (cis-trans isomerization)
CCn1[n-]cc/c1=N\C(=O)c1cc(OCC[NH+]2CCOCC2)cc(-c2ccccc2F)n1 (3D coordinates assigned)
CCn1[n-]cc/c1=N\C(=O)c1cc(OCC[NH+]2CCOCC2)cc(-c2ccccc2F)n1 (nonaromatic ring conformer: 113.31784902983027 kcal/mol)

>  <smiles>  (55) 
CCn1[nH]ccc1=NC(=O)c1cc(OCCN2CCOCC2)cc(-c2ccccc2F)n1

>  <score_type>  (55) 
oracle

>  <origin>  (55) 
adg

>  <m_score__min__energy>  (55) 
-8.8200000000000003

>  <m_primary>  (55) 
energy

$$$$
55:0
     RDKit          3D

 16 16  0  0  0  0  0  0  0  0999 V2000
   55.5270   29.7190   46.0690 H   0  0  0  0  0  0  0  0  0  0  0  0
   55.8300   29.9070   45.1210 O   0  0  0  0  0  0  0  0  0  0  0  0
   57.0340   30.5330   44.8950 N   0  0  0  0  0  0  0  0  0  0  0  0
   57.1270   31.7720   44.5170 C   0  0  0  0  0  0  0  0  0  0  0  0
   56.6249   32.0716   43.5853 H   0  0  0  0  0  0  0  0  0  0  0  0
   57.8730   32.8020   45.2740 C   0  0  0  0  0  0  0  0  0  0  0  0
   57.8770   32.8360   46.6810 C   0  0  0  0  0  0  0  0  0  0  0  0
   57.3321   32.0672   47.2485 H   0  0  0  0  0  0  0  0  0  0  0  0
   58.5700   33.8420   47.3610 C   0  0  0  0  0  0  0  0  0  0  0  0
   58.5794   33.8554   48.4609 H   0  0  0  0  0  0  0  0  0  0  0  0
   59.2510   34.8310   46.6450 C   0  0  0  0  0  0  0  0  0  0  0  0
   59.8035   35.6164   47.1816 H   0  0  0  0  0  0  0  0  0  0  0  0
   59.2300   34.8220   45.2480 C   0  0  0  0  0  0  0  0  0  0  0  0
   59.7587   35.6056   44.6854 H   0  0  0  0  0  0  0  0  0  0  0  0
   58.5370   33.8170   44.5640 C   0  0  0  0  0  0  0  0  0  0  0  0
   58.5118   33.8214   43.4643 H   0  0  0  0  0  0  0  0  0  0  0  0
  1  2  1  0
  2  3  1  0
  3  4  2  0
  4  5  1  0
  4  6  1  0
  6  7  2  0
  7  8  1  0
  7  9  1  0
  9 10  1  0
  9 11  2  0
 11 12  1  0
 11 13  1  0
 13 14  1  0
 13 15  2  0
 15 16  1  0
 15  6  1  0
M  END
>  <UniqueID>  (56) 
53

>  <SMILES>  (56) 
O/N=C\c1ccccc1

>  <Energy>  (56) 
18.41182984187197

>  <Genealogy>  (56) 
O/N=C\c1ccccc1 (cis-trans isomerization)
O/N=C\c1ccccc1 (3D coordinates assigned)
O/N=C\c1ccccc1 (optimized conformer: 18.41182984187197 kcal/mol)

>  <smiles>  (56) 
ON=Cc1ccccc1

>  <score_type>  (56) 
oracle

>  <origin>  (56) 
adg

>  <m_score__min__energy>  (56) 
-5.8499999999999996

>  <m_primary>  (56) 
energy

$$$$
56:0
     RDKit          3D

 43 46  0  0  0  0  0  0  0  0999 V2000
   58.6370   25.3060   47.5890 H   0  0  0  0  0  0  0  0  0  0  0  0
   58.9390   26.2780   47.8120 N   0  0  0  0  0  0  0  0  0  0  0  0
   58.5700   27.3480   47.1670 C   0  0  0  0  0  0  0  0  0  0  0  0
   57.4180   27.3330   46.3360 C   0  0  0  0  0  0  0  0  0  0  0  0
   56.6420   26.1080   46.0510 C   0  0  0  0  0  0  0  0  0  0  0  0
   55.3900   26.1790   45.9210 O   0  0  0  0  0  0  0  0  0  0  0  0
   57.3120   24.8540   45.8780 N   0  0  0  0  0  0  0  0  0  0  0  0
   57.0280   23.9300   44.8210 C   0  0  0  0  0  0  0  0  0  0  0  0
   55.8190   24.0650   44.1270 C   0  0  0  0  0  0  0  0  0  0  0  0
   55.1134   24.8600   44.4101 H   0  0  0  0  0  0  0  0  0  0  0  0
   55.5020   23.1990   43.0790 C   0  0  0  0  0  0  0  0  0  0  0  0
   54.5540   23.3185   42.5340 H   0  0  0  0  0  0  0  0  0  0  0  0
   56.3890   22.1810   42.7230 C   0  0  0  0  0  0  0  0  0  0  0  0
   56.1459   21.5085   41.8871 H   0  0  0  0  0  0  0  0  0  0  0  0
   57.5840   22.0150   43.4260 C   0  0  0  0  0  0  0  0  0  0  0  0
   58.2787   21.2116   43.1397 H   0  0  0  0  0  0  0  0  0  0  0  0
   57.9060   22.8670   44.4970 C   0  0  0  0  0  0  0  0  0  0  0  0
   59.1770   22.6200   45.2650 C   0  0  0  0  0  0  0  0  0  0  0  0
   58.9672   22.6608   46.3440 H   0  0  0  0  0  0  0  0  0  0  0  0
   59.5749   21.6277   45.0061 H   0  0  0  0  0  0  0  0  0  0  0  0
   59.9176   23.3910   45.0061 H   0  0  0  0  0  0  0  0  0  0  0  0
   57.0090   28.5190   45.7220 C   0  0  0  0  0  0  0  0  0  0  0  0
   56.0918   28.5312   45.1149 H   0  0  0  0  0  0  0  0  0  0  0  0
   57.7560   29.6900   45.8730 C   0  0  0  0  0  0  0  0  0  0  0  0
   57.3950   30.8920   45.2320 C   0  0  0  0  0  0  0  0  0  0  0  0
   56.3550   30.9280   44.5150 O   0  0  0  0  0  0  0  0  0  0  0  0
   58.1720   32.0150   45.3840 N   0  0  0  0  0  0  0  0  0  0  0  0
   57.8330   33.1920   44.7640 C   0  0  0  0  0  0  0  0  0  0  0  0
   56.9279   33.2363   44.1405 H   0  0  0  0  0  0  0  0  0  0  0  0
   58.6230   34.3340   44.9150 C   0  0  0  0  0  0  0  0  0  0  0  0
   58.3418   35.2720   44.4140 H   0  0  0  0  0  0  0  0  0  0  0  0
   59.7690   34.2770   45.7040 C   0  0  0  0  0  0  0  0  0  0  0  0
   60.3992   35.1699   45.8286 H   0  0  0  0  0  0  0  0  0  0  0  0
   60.1130   33.0850   46.3340 C   0  0  0  0  0  0  0  0  0  0  0  0
   61.0155   33.0309   46.9605 H   0  0  0  0  0  0  0  0  0  0  0  0
   59.3040   31.9550   46.1660 C   0  0  0  0  0  0  0  0  0  0  0  0
   59.6500   30.8000   46.7870 N   0  0  0  0  0  0  0  0  0  0  0  0
   58.9110   29.6660   46.6720 C   0  0  0  0  0  0  0  0  0  0  0  0
   59.2860   28.5160   47.3270 N   0  0  0  0  0  0  0  0  0  0  0  0
   60.5080   28.5220   48.1590 C   0  0  0  0  0  0  0  0  0  0  0  0
   60.2274   28.5206   49.2226 H   0  0  0  0  0  0  0  0  0  0  0  0
   61.1073   27.6268   47.9367 H   0  0  0  0  0  0  0  0  0  0  0  0
   61.0985   29.4231   47.9367 H   0  0  0  0  0  0  0  0  0  0  0  0
  1  2  1  0
  2  3  2  0
  3  4  1  0
  4  5  1  0
  5  6  2  0
  5  7  1  0
  7  8  1  0
  8  9  2  0
  9 10  1  0
  9 11  1  0
 11 12  1  0
 11 13  2  0
 13 14  1  0
 13 15  1  0
 15 16  1  0
 15 17  2  0
 17 18  1  0
 18 19  1  0
 18 20  1  0
 18 21  1  0
  4 22  2  0
 22 23  1  0
 22 24  1  0
 24 25  1  0
 25 26  2  0
 25 27  1  0
 27 28  1  0
 28 29  1  0
 28 30  2  0
 30 31  1  0
 30 32  1  0
 32 33  1  0
 32 34  2  0
 34 35  1  0
 34 36  1  0
 36 37  2  0
 37 38  1  0
 38 39  1  0
 39 40  1  0
 40 41  1  0
 40 42  1  0
 40 43  1  0
 39  3  1  0
 17  8  1  0
 38 24  2  0
 36 27  1  0
M  CHG  1   7  -1
M  END
>  <UniqueID>  (57) 
54

>  <SMILES>  (57) 
[H]/N=c1\c(C(=O)[N-]c2ccccc2C)cc2c(=O)n3ccccc3nc2n1C

>  <Energy>  (57) 
76.97449098051354

>  <Genealogy>  (57) 
Cc1ccccc1[N-]C(=O)c1cc2c(=O)n3ccccc3nc2n(C)c1=N (protonated)
[H]/N=c1\c(C(=O)[N-]c2ccccc2C)cc2c(=O)n3ccccc3nc2n1C (cis-trans isomerization)
[H]/N=c1\c(C(=O)[N-]c2ccccc2C)cc2c(=O)n3ccccc3nc2n1C (3D coordinates assigned)
[H]/N=c1\c(C(=O)[N-]c2ccccc2C)cc2c(=O)n3ccccc3nc2n1C (optimized conformer: 76.97449098051354 kcal/mol)

>  <smiles>  (57) 
Cc1ccccc1NC(=O)c1cc2c(=O)n3ccccc3nc2n(C)c1=N

>  <score_type>  (57) 
oracle

>  <origin>  (57) 
adg

>  <m_score__min__energy>  (57) 
-9.5700000000000003

>  <m_primary>  (57) 
energy

$$$$
57:0
     RDKit          3D

 50 52  0  0  0  0  0  0  0  0999 V2000
   58.9820   31.8050   49.3390 C   0  0  0  0  0  0  0  0  0  0  0  0
   59.1460   31.5250   47.9530 O   0  0  0  0  0  0  0  0  0  0  0  0
   58.6260   32.3110   46.9110 C   0  0  0  0  0  0  0  0  0  0  0  0
   58.7330   33.7170   46.9220 C   0  0  0  0  0  0  0  0  0  0  0  0
   58.1600   34.4790   45.9030 C   0  0  0  0  0  0  0  0  0  0  0  0
   57.4710   33.8550   44.8640 C   0  0  0  0  0  0  0  0  0  0  0  0
   57.3630   32.4640   44.8340 C   0  0  0  0  0  0  0  0  0  0  0  0
   57.9520   31.6800   45.8400 C   0  0  0  0  0  0  0  0  0  0  0  0
   57.8300   30.2080   45.7640 C   0  0  0  0  0  0  0  0  0  0  0  0
   56.7990   29.7090   45.2360 O   0  0  0  0  0  0  0  0  0  0  0  0
   58.8680   29.3550   46.2780 N   0  0  0  0  0  0  0  0  0  0  0  0
   58.8170   27.9190   46.2410 C   0  0  0  0  0  0  0  0  0  0  0  0
   60.0070   27.1960   46.1050 C   0  0  0  0  0  0  0  0  0  0  0  0
   59.9850   25.8020   46.0430 C   0  0  0  0  0  0  0  0  0  0  0  0
   58.7650   25.1020   46.1000 C   0  0  0  0  0  0  0  0  0  0  0  0
   58.7160   23.7000   46.0360 O   0  0  0  0  0  0  0  0  0  0  0  0
   59.5880   22.8940   45.2520 C   0  0  0  0  0  0  0  0  0  0  0  0
   57.5620   25.8280   46.2110 C   0  0  0  0  0  0  0  0  0  0  0  0
   55.9940   25.0020   46.2540 S   0  0  0  0  0  0  0  0  0  0  0  0
   55.7620   24.4290   47.6230 O   0  0  0  0  0  0  0  0  0  0  0  0
   54.9050   26.0030   45.9860 O   0  0  0  0  0  0  0  0  0  0  0  0
   55.8980   23.7230   45.0670 N   0  0  0  0  0  0  0  0  0  0  0  0
   56.7050   24.0570   43.8810 C   0  0  0  0  0  0  0  0  0  0  0  0
   56.8220   22.8390   42.9410 C   0  0  0  0  0  0  0  0  0  0  0  0
   55.8990   21.8290   43.3000 O   0  0  0  0  0  0  0  0  0  0  0  0
   56.2130   21.3250   44.5870 C   0  0  0  0  0  0  0  0  0  0  0  0
   56.3440   22.4470   45.6410 C   0  0  0  0  0  0  0  0  0  0  0  0
   57.5960   27.2290   46.2740 C   0  0  0  0  0  0  0  0  0  0  0  0
   59.4501   31.0058   49.9324 H   0  0  0  0  0  0  0  0  0  0  0  0
   59.4596   32.7667   49.5778 H   0  0  0  0  0  0  0  0  0  0  0  0
   57.9096   31.8589   49.5778 H   0  0  0  0  0  0  0  0  0  0  0  0
   59.2723   34.2170   47.7401 H   0  0  0  0  0  0  0  0  0  0  0  0
   58.2522   35.5750   45.9196 H   0  0  0  0  0  0  0  0  0  0  0  0
   57.0123   34.4593   44.0675 H   0  0  0  0  0  0  0  0  0  0  0  0
   56.8120   31.9773   44.0157 H   0  0  0  0  0  0  0  0  0  0  0  0
   59.6860   29.7920   46.7590 H   0  0  0  0  0  0  0  0  0  0  0  0
   60.9668   27.7301   46.0465 H   0  0  0  0  0  0  0  0  0  0  0  0
   60.9291   25.2454   45.9488 H   0  0  0  0  0  0  0  0  0  0  0  0
   60.2323   22.2984   45.9154 H   0  0  0  0  0  0  0  0  0  0  0  0
   58.9933   22.2207   44.6172 H   0  0  0  0  0  0  0  0  0  0  0  0
   60.2125   23.5398   44.6172 H   0  0  0  0  0  0  0  0  0  0  0  0
   56.2258   24.8862   43.3399 H   0  0  0  0  0  0  0  0  0  0  0  0
   57.7134   24.3485   44.2098 H   0  0  0  0  0  0  0  0  0  0  0  0
   56.6192   23.1608   41.9089 H   0  0  0  0  0  0  0  0  0  0  0  0
   57.8393   22.4289   43.0249 H   0  0  0  0  0  0  0  0  0  0  0  0
   55.4152   20.6360   44.9013 H   0  0  0  0  0  0  0  0  0  0  0  0
   57.1838   20.8121   44.5195 H   0  0  0  0  0  0  0  0  0  0  0  0
   55.7218   22.2021   46.5144 H   0  0  0  0  0  0  0  0  0  0  0  0
   57.3964   22.5352   45.9488 H   0  0  0  0  0  0  0  0  0  0  0  0
   56.6546   27.7929   46.3501 H   0  0  0  0  0  0  0  0  0  0  0  0
  1  2  1  0
  2  3  1  0
  3  4  2  0
  4  5  1  0
  5  6  2  0
  6  7  1  0
  7  8  2  0
  8  9  1  0
  9 10  2  0
  9 11  1  0
 11 12  1  0
 12 13  2  0
 13 14  1  0
 14 15  2  0
 15 16  1  0
 16 17  1  0
 15 18  1  0
 18 19  1  0
 19 20  2  0
 19 21  2  0
 19 22  1  0
 22 23  1  0
 23 24  1  0
 24 25  1  0
 25 26  1  0
 26 27  1  0
 18 28  2  0
  8  3  1  0
 28 12  1  0
 27 22  1  0
  1 29  1  0
  1 30  1  0
  1 31  1  0
  4 32  1  0
  5 33  1  0
  6 34  1  0
  7 35  1  0
 11 36  1  0
 13 37  1  0
 14 38  1  0
 17 39  1  0
 17 40  1  0
 17 41  1  0
 23 42  1  0
 23 43  1  0
 24 44  1  0
 24 45  1  0
 26 46  1  0
 26 47  1  0
 27 48  1  0
 27 49  1  0
 28 50  1  0
M  END
>  <UniqueID>  (58) 
55

>  <SMILES>  (58) 
COc1ccccc1C(=O)Nc1ccc(OC)c(S(=O)(=O)N2CCOCC2)c1

>  <Energy>  (58) 
66.37946658376308

>  <Genealogy>  (58) 
COc1ccccc1C(=O)Nc1ccc(OC)c(S(=O)(=O)N2CCOCC2)c1 (3D coordinates assigned)
COc1ccccc1C(=O)Nc1ccc(OC)c(S(=O)(=O)N2CCOCC2)c1 (nonaromatic ring conformer: 66.37946658376308 kcal/mol)

>  <smiles>  (58) 
COc1ccccc1C(=O)Nc1ccc(OC)c(S(=O)(=O)N2CCOCC2)c1

>  <score_type>  (58) 
oracle

>  <origin>  (58) 
adg

>  <m_score__min__energy>  (58) 
-8.9100000000000001

>  <m_primary>  (58) 
energy

$$$$
58:0
     RDKit          3D

 41 44  0  0  0  0  0  0  0  0999 V2000
   57.2550   30.1030   43.5580 O   0  0  0  0  0  0  0  0  0  0  0  0
   57.4440   29.9610   44.7950 C   0  0  0  0  0  0  0  0  0  0  0  0
   56.7180   28.9680   45.5310 N   0  0  0  0  0  0  0  0  0  0  0  0
   56.9170   27.5480   45.4910 C   0  0  0  0  0  0  0  0  0  0  0  0
   57.7330   27.0090   44.4920 C   0  0  0  0  0  0  0  0  0  0  0  0
   57.9310   25.6290   44.4170 C   0  0  0  0  0  0  0  0  0  0  0  0
   57.2930   24.7970   45.3380 C   0  0  0  0  0  0  0  0  0  0  0  0
   56.4820   25.3300   46.2890 N   0  0  0  0  0  0  0  0  0  0  0  0
   56.2760   26.6720   46.3860 C   0  0  0  0  0  0  0  0  0  0  0  0
   58.3860   30.8530   45.5080 C   0  0  0  0  0  0  0  0  0  0  0  0
   59.4790   30.3880   46.2600 C   0  0  0  0  0  0  0  0  0  0  0  0
   59.7860   28.9900   46.6350 C   0  0  0  0  0  0  0  0  0  0  0  0
   60.4710   28.1420   45.7460 C   0  0  0  0  0  0  0  0  0  0  0  0
   60.7540   26.8220   46.1100 C   0  0  0  0  0  0  0  0  0  0  0  0
   60.3440   26.3340   47.3520 C   0  0  0  0  0  0  0  0  0  0  0  0
   59.6440   27.1640   48.2320 C   0  0  0  0  0  0  0  0  0  0  0  0
   59.3600   28.4850   47.8750 C   0  0  0  0  0  0  0  0  0  0  0  0
   60.4050   31.7060   46.7530 S   0  0  0  0  0  0  0  0  0  0  0  0
   59.4460   32.8750   46.0320 C   0  0  0  0  0  0  0  0  0  0  0  0
   58.3550   32.2660   45.4170 C   0  0  0  0  0  0  0  0  0  0  0  0
   57.3730   33.0710   44.5960 C   0  0  0  0  0  0  0  0  0  0  0  0
   57.4500   34.5760   44.9120 C   0  0  0  0  0  0  0  0  0  0  0  0
   58.9050   35.0660   44.9760 C   0  0  0  0  0  0  0  0  0  0  0  0
   59.6730   34.3530   46.0970 C   0  0  0  0  0  0  0  0  0  0  0  0
   58.2202   27.6737   43.7634 H   0  0  0  0  0  0  0  0  0  0  0  0
   58.5828   25.2022   43.6404 H   0  0  0  0  0  0  0  0  0  0  0  0
   57.4468   23.7087   45.2940 H   0  0  0  0  0  0  0  0  0  0  0  0
   55.6086   27.0714   47.1639 H   0  0  0  0  0  0  0  0  0  0  0  0
   60.7850   28.5185   44.7613 H   0  0  0  0  0  0  0  0  0  0  0  0
   61.3009   26.1666   45.4162 H   0  0  0  0  0  0  0  0  0  0  0  0
   60.5718   25.2965   47.6380 H   0  0  0  0  0  0  0  0  0  0  0  0
   59.3158   26.7766   49.2078 H   0  0  0  0  0  0  0  0  0  0  0  0
   58.8010   29.1317   48.5673 H   0  0  0  0  0  0  0  0  0  0  0  0
   57.5957   32.9208   43.5293 H   0  0  0  0  0  0  0  0  0  0  0  0
   56.3592   32.7242   44.8450 H   0  0  0  0  0  0  0  0  0  0  0  0
   56.9197   35.1335   44.1259 H   0  0  0  0  0  0  0  0  0  0  0  0
   56.9859   34.7458   45.8947 H   0  0  0  0  0  0  0  0  0  0  0  0
   59.3973   34.8597   44.0142 H   0  0  0  0  0  0  0  0  0  0  0  0
   58.9037   36.1465   45.1824 H   0  0  0  0  0  0  0  0  0  0  0  0
   60.7479   34.5591   45.9868 H   0  0  0  0  0  0  0  0  0  0  0  0
   59.3122   34.7254   47.0671 H   0  0  0  0  0  0  0  0  0  0  0  0
  1  2  2  0
  2  3  1  0
  3  4  1  0
  4  5  2  0
  5  6  1  0
  6  7  2  0
  7  8  1  0
  8  9  2  0
  2 10  1  0
 10 11  2  0
 11 12  1  0
 12 13  2  0
 13 14  1  0
 14 15  2  0
 15 16  1  0
 16 17  2  0
 11 18  1  0
 18 19  1  0
 19 20  2  0
 20 21  1  0
 21 22  1  0
 22 23  1  0
 23 24  1  0
  9  4  1  0
 20 10  1  0
 17 12  1  0
 24 19  1  0
  5 25  1  0
  6 26  1  0
  7 27  1  0
  9 28  1  0
 13 29  1  0
 14 30  1  0
 15 31  1  0
 16 32  1  0
 17 33  1  0
 21 34  1  0
 21 35  1  0
 22 36  1  0
 22 37  1  0
 23 38  1  0
 23 39  1  0
 24 40  1  0
 24 41  1  0
M  CHG  1   3  -1
M  END
>  <UniqueID>  (59) 
56

>  <SMILES>  (59) 
O=C([N-]c1cccnc1)c1c(-c2ccccc2)sc2c1CCCC2

>  <Energy>  (59) 
81.80473557507904

>  <Genealogy>  (59) 
O=C([N-]c1cccnc1)c1c(-c2ccccc2)sc2c1CCCC2 (protonated)
O=C([N-]c1cccnc1)c1c(-c2ccccc2)sc2c1CCCC2 (3D coordinates assigned)
O=C([N-]c1cccnc1)c1c(-c2ccccc2)sc2c1CCCC2 (nonaromatic ring conformer: 81.80473557507904 kcal/mol)

>  <smiles>  (59) 
O=C(Nc1cccnc1)c1c(-c2ccccc2)sc2c1CCCC2

>  <score_type>  (59) 
oracle

>  <origin>  (59) 
adg

>  <m_score__min__energy>  (59) 
-9.3499999999999996

>  <m_primary>  (59) 
energy

$$$$
59:0
     RDKit          3D

 30 32  0  0  0  0  0  0  0  0999 V2000
   57.3510   22.9990   47.7240 O   0  0  0  0  0  0  0  0  0  0  0  0
   57.1960   24.1020   47.1390 C   0  0  0  0  0  0  0  0  0  0  0  0
   55.8470   24.4880   46.6000 C   0  0  0  0  0  0  0  0  0  0  0  0
   55.7400   25.9020   46.3980 O   0  0  0  0  0  0  0  0  0  0  0  0
   56.8410   26.7180   46.1090 C   0  0  0  0  0  0  0  0  0  0  0  0
   56.6450   28.0080   45.6100 C   0  0  0  0  0  0  0  0  0  0  0  0
   57.7430   28.8350   45.3250 C   0  0  0  0  0  0  0  0  0  0  0  0
   57.4650   30.4650   44.7000 S   0  0  0  0  0  0  0  0  0  0  0  0
   55.9960   30.7100   44.4960 O   0  0  0  0  0  0  0  0  0  0  0  0
   58.1620   30.6030   43.3760 O   0  0  0  0  0  0  0  0  0  0  0  0
   58.0770   31.6500   45.8500 C   0  0  0  0  0  0  0  0  0  0  0  0
   58.5200   31.2520   47.1210 C   0  0  0  0  0  0  0  0  0  0  0  0
   58.9980   32.2050   48.0270 C   0  0  0  0  0  0  0  0  0  0  0  0
   59.0370   33.5550   47.6690 C   0  0  0  0  0  0  0  0  0  0  0  0
   58.6010   33.9560   46.4030 C   0  0  0  0  0  0  0  0  0  0  0  0
   58.1240   33.0060   45.4950 C   0  0  0  0  0  0  0  0  0  0  0  0
   59.0510   28.3550   45.5630 C   0  0  0  0  0  0  0  0  0  0  0  0
   60.4760   29.3390   45.2480 Cl  0  0  0  0  0  0  0  0  0  0  0  0
   59.2390   27.0660   46.0760 C   0  0  0  0  0  0  0  0  0  0  0  0
   58.1380   26.2490   46.3470 C   0  0  0  0  0  0  0  0  0  0  0  0
   58.3220   24.9520   46.9150 N   0  0  0  0  0  0  0  0  0  0  0  0
   55.6884   23.9779   45.6384 H   0  0  0  0  0  0  0  0  0  0  0  0
   55.0862   24.1891   47.3361 H   0  0  0  0  0  0  0  0  0  0  0  0
   55.6234   28.3783   45.4392 H   0  0  0  0  0  0  0  0  0  0  0  0
   58.4913   30.1897   47.4051 H   0  0  0  0  0  0  0  0  0  0  0  0
   59.3437   31.8909   49.0229 H   0  0  0  0  0  0  0  0  0  0  0  0
   59.4110   34.3027   48.3839 H   0  0  0  0  0  0  0  0  0  0  0  0
   58.6332   35.0188   46.1212 H   0  0  0  0  0  0  0  0  0  0  0  0
   57.7842   33.3233   44.4981 H   0  0  0  0  0  0  0  0  0  0  0  0
   60.2569   26.6950   46.2664 H   0  0  0  0  0  0  0  0  0  0  0  0
  1  2  2  0
  2  3  1  0
  3  4  1  0
  4  5  1  0
  5  6  2  0
  6  7  1  0
  7  8  1  0
  8  9  2  0
  8 10  2  0
  8 11  1  0
 11 12  2  0
 12 13  1  0
 13 14  2  0
 14 15  1  0
 15 16  2  0
  7 17  2  0
 17 18  1  0
 17 19  1  0
 19 20  2  0
 20 21  1  0
 21  2  1  0
 20  5  1  0
 16 11  1  0
  3 22  1  0
  3 23  1  0
  6 24  1  0
 12 25  1  0
 13 26  1  0
 14 27  1  0
 15 28  1  0
 16 29  1  0
 19 30  1  0
M  CHG  1  21  -1
M  END
>  <UniqueID>  (60) 
57

>  <SMILES>  (60) 
O=C1COc2cc(S(=O)(=O)c3ccccc3)c(Cl)cc2[N-]1

>  <Energy>  (60) 
37.58617504228491

>  <Genealogy>  (60) 
O=C1COc2cc(S(=O)(=O)c3ccccc3)c(Cl)cc2[N-]1 (protonated)
O=C1COc2cc(S(=O)(=O)c3ccccc3)c(Cl)cc2[N-]1 (3D coordinates assigned)
O=C1COc2cc(S(=O)(=O)c3ccccc3)c(Cl)cc2[N-]1 (nonaromatic ring conformer: 37.58617504228491 kcal/mol)

>  <smiles>  (60) 
O=C1COc2cc(S(=O)(=O)c3ccccc3)c(Cl)cc2N1

>  <score_type>  (60) 
oracle

>  <origin>  (60) 
adg

>  <m_score__min__energy>  (60) 
-9.4700000000000006

>  <m_primary>  (60) 
energy

$$$$
60:0
     RDKit          3D

 24 25  0  0  0  0  0  0  0  0999 V2000
   59.5979   34.5156   48.2497 H   0  0  0  0  0  0  0  0  0  0  0  0
   59.2350   33.8460   47.4560 C   0  0  0  0  0  0  0  0  0  0  0  0
   58.1290   34.2110   46.6890 C   0  0  0  0  0  0  0  0  0  0  0  0
   57.6208   35.1685   46.8761 H   0  0  0  0  0  0  0  0  0  0  0  0
   57.6680   33.3600   45.6840 C   0  0  0  0  0  0  0  0  0  0  0  0
   56.7947   33.6482   45.0804 H   0  0  0  0  0  0  0  0  0  0  0  0
   58.3130   32.1390   45.4400 C   0  0  0  0  0  0  0  0  0  0  0  0
   59.4310   31.7610   46.2090 C   0  0  0  0  0  0  0  0  0  0  0  0
   59.8830   32.6310   47.2180 C   0  0  0  0  0  0  0  0  0  0  0  0
   60.7560   32.3518   47.8262 H   0  0  0  0  0  0  0  0  0  0  0  0
   60.1320   30.5160   46.0000 N   0  0  0  0  0  0  0  0  0  0  0  0
   60.9430   30.3460   46.6340 H   0  0  0  0  0  0  0  0  0  0  0  0
   59.8080   29.5130   45.0080 C   0  0  0  0  0  0  0  0  0  0  0  0
   60.5150   28.4160   44.9030 N   0  0  0  0  0  0  0  0  0  0  0  0
   61.2080   28.3340   44.1250 H   0  0  0  0  0  0  0  0  0  0  0  0
   60.4130   27.2730   45.8080 C   0  0  0  0  0  0  0  0  0  0  0  0
   60.4445   27.6259   46.8494 H   0  0  0  0  0  0  0  0  0  0  0  0
   59.4643   26.7462   45.6279 H   0  0  0  0  0  0  0  0  0  0  0  0
   61.2535   26.5866   45.6279 H   0  0  0  0  0  0  0  0  0  0  0  0
   58.7020   29.6960   44.1160 N   0  0  0  0  0  0  0  0  0  0  0  0
   58.4740   28.9700   43.4010 H   0  0  0  0  0  0  0  0  0  0  0  0
   57.7100   31.0990   44.1780 S   0  0  0  0  0  0  0  0  0  0  0  0
   57.7750   31.8160   42.8580 O   0  0  0  0  0  0  0  0  0  0  0  0
   56.2940   30.6980   44.4840 O   0  0  0  0  0  0  0  0  0  0  0  0
  1  2  1  0
  2  3  2  0
  3  4  1  0
  3  5  1  0
  5  6  1  0
  5  7  2  0
  7  8  1  0
  8  9  2  0
  9 10  1  0
  8 11  1  0
 11 12  1  0
 11 13  1  0
 13 14  2  0
 14 15  1  0
 14 16  1  0
 16 17  1  0
 16 18  1  0
 16 19  1  0
 13 20  1  0
 20 21  1  0
 20 22  1  0
 22 23  2  0
 22 24  2  0
  9  2  1  0
 22  7  1  0
M  CHG  1  14   1
M  END
>  <UniqueID>  (61) 
58

>  <SMILES>  (61) 
C/[NH+]=C1\Nc2ccccc2S(=O)(=O)N1

>  <Energy>  (61) 
28.343009178104317

>  <Genealogy>  (61) 
C[NH+]=C1Nc2ccccc2S(=O)(=O)N1 (protonated)
C/[NH+]=C1\Nc2ccccc2S(=O)(=O)N1 (cis-trans isomerization)
C/[NH+]=C1\Nc2ccccc2S(=O)(=O)N1 (3D coordinates assigned)
C/[NH+]=C1\Nc2ccccc2S(=O)(=O)N1 (nonaromatic ring conformer: 28.343009178104317 kcal/mol)

>  <smiles>  (61) 
CN=C1Nc2ccccc2S(=O)(=O)N1

>  <score_type>  (61) 
oracle

>  <origin>  (61) 
adg

>  <m_score__min__energy>  (61) 
-4.5700000000000003

>  <m_primary>  (61) 
energy

$$$$
61:0
     RDKit          3D

 21 21  0  0  0  0  0  0  0  0999 V2000
   58.5460   26.8010   44.7960 C   0  0  0  0  0  0  0  0  0  0  0  0
   57.6510   27.5940   45.3970 C   0  0  0  0  0  0  0  0  0  0  0  0
   56.7890   27.0400   46.5070 C   0  0  0  0  0  0  0  0  0  0  0  0
   55.4530   26.7280   46.0090 N   0  0  0  0  0  0  0  0  0  0  0  0
   57.5900   29.0400   45.0540 C   0  0  0  0  0  0  0  0  0  0  0  0
   58.7750   29.7960   45.0070 C   0  0  0  0  0  0  0  0  0  0  0  0
   58.7370   31.1560   44.6880 C   0  0  0  0  0  0  0  0  0  0  0  0
   57.5160   31.7780   44.4190 C   0  0  0  0  0  0  0  0  0  0  0  0
   56.3300   31.0420   44.4740 C   0  0  0  0  0  0  0  0  0  0  0  0
   56.3590   29.6810   44.7960 C   0  0  0  0  0  0  0  0  0  0  0  0
   55.1600   28.9810   44.8790 O   0  0  0  0  0  0  0  0  0  0  0  0
   59.1769   27.1979   43.9870 H   0  0  0  0  0  0  0  0  0  0  0  0
   58.6507   25.7523   45.1110 H   0  0  0  0  0  0  0  0  0  0  0  0
   57.2516   26.1233   46.9014 H   0  0  0  0  0  0  0  0  0  0  0  0
   56.7049   27.7948   47.3028 H   0  0  0  0  0  0  0  0  0  0  0  0
   54.7930   27.4560   46.3710 H   0  0  0  0  0  0  0  0  0  0  0  0
   55.4690   26.8300   44.9680 H   0  0  0  0  0  0  0  0  0  0  0  0
   59.7394   29.3129   45.2230 H   0  0  0  0  0  0  0  0  0  0  0  0
   59.6700   31.7373   44.6487 H   0  0  0  0  0  0  0  0  0  0  0  0
   57.4881   32.8476   44.1638 H   0  0  0  0  0  0  0  0  0  0  0  0
   55.3693   31.5347   44.2632 H   0  0  0  0  0  0  0  0  0  0  0  0
  1  2  2  0
  2  3  1  0
  3  4  1  0
  2  5  1  0
  5  6  2  0
  6  7  1  0
  7  8  2  0
  8  9  1  0
  9 10  2  0
 10 11  1  0
 10  5  1  0
  1 12  1  0
  1 13  1  0
  3 14  1  0
  3 15  1  0
  4 16  1  0
  4 17  1  0
  6 18  1  0
  7 19  1  0
  8 20  1  0
  9 21  1  0
M  CHG  1  11  -1
M  END
>  <UniqueID>  (62) 
59

>  <SMILES>  (62) 
C=C(CN)c1ccccc1[O-]

>  <Energy>  (62) 
23.101252303941752

>  <Genealogy>  (62) 
C=C(CN)c1ccccc1[O-] (protonated)
C=C(CN)c1ccccc1[O-] (3D coordinates assigned)
C=C(CN)c1ccccc1[O-] (optimized conformer: 23.101252303941752 kcal/mol)

>  <smiles>  (62) 
C=C(CN)c1ccccc1O

>  <score_type>  (62) 
oracle

>  <origin>  (62) 
adg

>  <m_score__min__energy>  (62) 
-9.1500000000000004

>  <m_primary>  (62) 
energy

$$$$
62:0
     RDKit          3D

 47 48  0  0  0  0  0  0  0  0999 V2000
   61.1192   34.6136   48.4640 H   0  0  0  0  0  0  0  0  0  0  0  0
   61.0750   34.0820   47.5020 C   0  0  0  0  0  0  0  0  0  0  0  0
   62.2170   33.5620   47.0250 C   0  0  0  0  0  0  0  0  0  0  0  0
   62.7576   34.1361   46.2581 H   0  0  0  0  0  0  0  0  0  0  0  0
   62.8100   32.2540   47.4620 C   0  0  0  0  0  0  0  0  0  0  0  0
   63.7341   32.4453   48.0273 H   0  0  0  0  0  0  0  0  0  0  0  0
   63.0317   31.6464   46.5722 H   0  0  0  0  0  0  0  0  0  0  0  0
   61.8900   31.5460   48.2900 O   0  0  0  0  0  0  0  0  0  0  0  0
   60.9430   30.6280   47.8150 C   0  0  0  0  0  0  0  0  0  0  0  0
   59.9180   30.2210   48.6770 C   0  0  0  0  0  0  0  0  0  0  0  0
   59.8735   30.6235   49.6997 H   0  0  0  0  0  0  0  0  0  0  0  0
   58.9500   29.3070   48.2490 C   0  0  0  0  0  0  0  0  0  0  0  0
   58.1453   29.0000   48.9332 H   0  0  0  0  0  0  0  0  0  0  0  0
   59.0020   28.7800   46.9490 C   0  0  0  0  0  0  0  0  0  0  0  0
   57.9440   27.8180   46.4730 C   0  0  0  0  0  0  0  0  0  0  0  0
   57.2275   27.6457   47.2897 H   0  0  0  0  0  0  0  0  0  0  0  0
   58.4432   26.8834   46.1774 H   0  0  0  0  0  0  0  0  0  0  0  0
   57.1850   28.3550   45.2540 C   0  0  0  0  0  0  0  0  0  0  0  0
   56.2950   27.7327   45.0786 H   0  0  0  0  0  0  0  0  0  0  0  0
   57.8494   28.3216   44.3780 H   0  0  0  0  0  0  0  0  0  0  0  0
   56.7650   29.7490   45.4810 N   0  0  0  0  0  0  0  0  0  0  0  0
   55.8520   29.7320   45.9930 H   0  0  0  0  0  0  0  0  0  0  0  0
   56.5830   30.5480   44.2510 C   0  0  0  0  0  0  0  0  0  0  0  0
   55.8721   31.3483   44.5044 H   0  0  0  0  0  0  0  0  0  0  0  0
   57.9020   31.2000   43.8140 C   0  0  0  0  0  0  0  0  0  0  0  0
   58.4818   31.4866   44.7038 H   0  0  0  0  0  0  0  0  0  0  0  0
   58.4827   30.4852   43.2125 H   0  0  0  0  0  0  0  0  0  0  0  0
   57.6868   32.0955   43.2125 H   0  0  0  0  0  0  0  0  0  0  0  0
   55.9300   29.7590   43.1020 C   0  0  0  0  0  0  0  0  0  0  0  0
   55.2808   28.9746   43.5184 H   0  0  0  0  0  0  0  0  0  0  0  0
   55.3293   30.4419   42.4832 H   0  0  0  0  0  0  0  0  0  0  0  0
   56.7132   29.2966   42.4832 H   0  0  0  0  0  0  0  0  0  0  0  0
   60.0250   29.1920   46.0810 C   0  0  0  0  0  0  0  0  0  0  0  0
   60.0680   28.7912   45.0575 H   0  0  0  0  0  0  0  0  0  0  0  0
   60.9890   30.1080   46.5090 C   0  0  0  0  0  0  0  0  0  0  0  0
   61.7875   30.4240   45.8216 H   0  0  0  0  0  0  0  0  0  0  0  0
   59.7620   33.9920   46.8280 C   0  0  0  0  0  0  0  0  0  0  0  0
   59.5330   34.5940   45.5760 C   0  0  0  0  0  0  0  0  0  0  0  0
   60.3445   35.1401   45.0728 H   0  0  0  0  0  0  0  0  0  0  0  0
   58.2760   34.4990   44.9710 C   0  0  0  0  0  0  0  0  0  0  0  0
   58.1052   34.9584   43.9862 H   0  0  0  0  0  0  0  0  0  0  0  0
   57.2360   33.8220   45.6140 C   0  0  0  0  0  0  0  0  0  0  0  0
   56.2505   33.7418   45.1319 H   0  0  0  0  0  0  0  0  0  0  0  0
   57.4490   33.2470   46.8700 C   0  0  0  0  0  0  0  0  0  0  0  0
   56.6283   32.7220   47.3807 H   0  0  0  0  0  0  0  0  0  0  0  0
   58.7060   33.3390   47.4780 C   0  0  0  0  0  0  0  0  0  0  0  0
   58.8662   32.8961   48.4721 H   0  0  0  0  0  0  0  0  0  0  0  0
  1  2  1  0
  2  3  2  0
  3  4  1  0
  3  5  1  0
  5  6  1  0
  5  7  1  0
  5  8  1  0
  8  9  1  0
  9 10  2  0
 10 11  1  0
 10 12  1  0
 12 13  1  0
 12 14  2  0
 14 15  1  0
 15 16  1  0
 15 17  1  0
 15 18  1  0
 18 19  1  0
 18 20  1  0
 18 21  1  0
 21 22  1  0
 21 23  1  0
 23 24  1  0
 23 25  1  0
 25 26  1  0
 25 27  1  0
 25 28  1  0
 23 29  1  0
 29 30  1  0
 29 31  1  0
 29 32  1  0
 14 33  1  0
 33 34  1  0
 33 35  2  0
 35 36  1  0
  2 37  1  0
 37 38  2  0
 38 39  1  0
 38 40  1  0
 40 41  1  0
 40 42  2  0
 42 43  1  0
 42 44  1  0
 44 45  1  0
 44 46  2  0
 46 47  1  0
 35  9  1  0
 46 37  1  0
M  END
>  <UniqueID>  (63) 
60

>  <SMILES>  (63) 
CC(C)NCCc1ccc(OC/C=C\c2ccccc2)cc1

>  <Energy>  (63) 
46.5290875424045

>  <Genealogy>  (63) 
CC(C)NCCc1ccc(OC/C=C\c2ccccc2)cc1 (cis-trans isomerization)
CC(C)NCCc1ccc(OC/C=C\c2ccccc2)cc1 (3D coordinates assigned)
CC(C)NCCc1ccc(OC/C=C\c2ccccc2)cc1 (optimized conformer: 46.5290875424045 kcal/mol)

>  <smiles>  (63) 
CC(C)NCCc1ccc(OCC=Cc2ccccc2)cc1

>  <score_type>  (63) 
oracle

>  <origin>  (63) 
adg

>  <m_score__min__energy>  (63) 
-7.2599999999999998

>  <m_primary>  (63) 
energy

$$$$
63:0
     RDKit          3D

 44 45  0  0  0  0  0  0  0  0999 V2000
   59.1520   31.4380   47.9590 C   0  0  0  0  0  0  0  0  0  0  0  0
   60.1830   30.2900   47.8200 C   0  0  0  0  0  0  0  0  0  0  0  0
   61.4000   30.8250   47.0210 C   0  0  0  0  0  0  0  0  0  0  0  0
   60.7160   29.9210   49.2270 C   0  0  0  0  0  0  0  0  0  0  0  0
   59.5980   29.0630   47.1720 N   0  0  0  0  0  0  0  0  0  0  0  0
   58.8990   28.1540   48.1120 C   0  0  0  0  0  0  0  0  0  0  0  0
   58.7210   26.7540   47.4990 C   0  0  0  0  0  0  0  0  0  0  0  0
   58.7630   26.7700   45.9650 C   0  0  0  0  0  0  0  0  0  0  0  0
   58.1170   28.0370   45.3810 C   0  0  1  0  0  0  0  0  0  0  0  0
   56.6140   27.9880   45.5110 C   0  0  0  0  0  0  0  0  0  0  0  0
   56.0290   26.9110   45.8070 O   0  0  0  0  0  0  0  0  0  0  0  0
   55.8490   29.1670   45.2470 N   0  0  0  0  0  0  0  0  0  0  0  0
   55.6850   29.7190   43.9100 C   0  0  0  0  0  0  0  0  0  0  0  0
   56.6080   30.8900   43.7370 C   0  0  0  0  0  0  0  0  0  0  0  0
   57.1170   31.2100   42.4710 C   0  0  0  0  0  0  0  0  0  0  0  0
   58.0020   32.2830   42.3370 C   0  0  0  0  0  0  0  0  0  0  0  0
   58.3750   33.0000   43.4300 N   0  0  0  0  0  0  0  0  0  0  0  0
   57.9070   32.7020   44.6710 C   0  0  0  0  0  0  0  0  0  0  0  0
   57.0190   31.6390   44.8490 C   0  0  0  0  0  0  0  0  0  0  0  0
   58.7310   29.3320   45.9910 C   0  0  0  0  0  0  0  0  0  0  0  0
   58.9702   31.6405   49.0248 H   0  0  0  0  0  0  0  0  0  0  0  0
   59.5451   32.3444   47.4754 H   0  0  0  0  0  0  0  0  0  0  0  0
   58.2087   31.1442   47.4754 H   0  0  0  0  0  0  0  0  0  0  0  0
   62.1768   31.1665   47.7210 H   0  0  0  0  0  0  0  0  0  0  0  0
   61.8046   30.0218   46.3877 H   0  0  0  0  0  0  0  0  0  0  0  0
   61.0817   31.6662   46.3877 H   0  0  0  0  0  0  0  0  0  0  0  0
   60.0677   30.3698   49.9940 H   0  0  0  0  0  0  0  0  0  0  0  0
   60.7181   28.8271   49.3430 H   0  0  0  0  0  0  0  0  0  0  0  0
   61.7406   30.3040   49.3430 H   0  0  0  0  0  0  0  0  0  0  0  0
   59.4897   28.0692   49.0360 H   0  0  0  0  0  0  0  0  0  0  0  0
   57.9039   28.5708   48.3264 H   0  0  0  0  0  0  0  0  0  0  0  0
   59.5284   26.1036   47.8665 H   0  0  0  0  0  0  0  0  0  0  0  0
   57.7306   26.3824   47.8006 H   0  0  0  0  0  0  0  0  0  0  0  0
   59.8125   26.7245   45.6386 H   0  0  0  0  0  0  0  0  0  0  0  0
   58.1935   25.9017   45.6019 H   0  0  0  0  0  0  0  0  0  0  0  0
   58.3445   28.0686   44.3052 H   0  0  0  0  0  0  0  0  0  0  0  0
   55.9258   28.9485   43.1628 H   0  0  0  0  0  0  0  0  0  0  0  0
   54.6443   30.0484   43.7737 H   0  0  0  0  0  0  0  0  0  0  0  0
   56.8222   30.6212   41.5899 H   0  0  0  0  0  0  0  0  0  0  0  0
   58.3975   32.5479   41.3454 H   0  0  0  0  0  0  0  0  0  0  0  0
   58.2285   33.2995   45.5369 H   0  0  0  0  0  0  0  0  0  0  0  0
   56.6450   31.3912   45.8533 H   0  0  0  0  0  0  0  0  0  0  0  0
   59.3349   29.8313   45.2190 H   0  0  0  0  0  0  0  0  0  0  0  0
   57.8971   29.9636   46.3312 H   0  0  0  0  0  0  0  0  0  0  0  0
  1  2  1  0
  2  3  1  0
  2  4  1  0
  2  5  1  0
  5  6  1  0
  6  7  1  0
  7  8  1  0
  8  9  1  0
  9 10  1  0
 10 11  2  0
 10 12  1  0
 12 13  1  0
 13 14  1  0
 14 15  2  0
 15 16  1  0
 16 17  2  0
 17 18  1  0
 18 19  2  0
  9 20  1  0
 20  5  1  0
 19 14  1  0
  1 21  1  0
  1 22  1  0
  1 23  1  0
  3 24  1  0
  3 25  1  0
  3 26  1  0
  4 27  1  0
  4 28  1  0
  4 29  1  0
  6 30  1  0
  6 31  1  0
  7 32  1  0
  7 33  1  0
  8 34  1  0
  8 35  1  0
  9 36  1  6
 13 37  1  0
 13 38  1  0
 15 39  1  0
 16 40  1  0
 18 41  1  0
 19 42  1  0
 20 43  1  0
 20 44  1  0
M  CHG  1  12  -1
M  END
>  <UniqueID>  (64) 
61

>  <SMILES>  (64) 
CC(C)(C)N1CCC[C@@H](C(=O)[N-]Cc2ccncc2)C1

>  <Energy>  (64) 
53.54587442799777

>  <Genealogy>  (64) 
CC(C)(C)N1CCCC(C(=O)[N-]Cc2ccncc2)C1 (protonated)
CC(C)(C)N1CCC[C@@H](C(=O)[N-]Cc2ccncc2)C1 (chirality)
CC(C)(C)N1CCC[C@@H](C(=O)[N-]Cc2ccncc2)C1 (3D coordinates assigned)
CC(C)(C)N1CCC[C@@H](C(=O)[N-]Cc2ccncc2)C1 (nonaromatic ring conformer: 53.54587442799777 kcal/mol)

>  <smiles>  (64) 
CC(C)(C)N1CCCC(C(=O)NCc2ccncc2)C1

>  <score_type>  (64) 
oracle

>  <origin>  (64) 
adg

>  <m_score__min__energy>  (64) 
-8.6500000000000004

>  <m_primary>  (64) 
energy

$$$$
64:0
     RDKit          3D

 55 58  0  0  0  0  0  0  0  0999 V2000
   65.9390   31.2080   50.6630 O   0  0  0  0  0  0  0  0  0  0  0  0
   64.8830   31.8870   50.5530 C   0  0  0  0  0  0  0  0  0  0  0  0
   63.6680   31.4700   51.3390 C   0  0  0  0  0  0  0  0  0  0  0  0
   62.4760   31.4940   50.4970 N   0  0  0  0  0  0  0  0  0  0  0  0
   62.0800   30.5400   49.6330 C   0  0  0  0  0  0  0  0  0  0  0  0
   60.9120   30.9990   49.0520 C   0  0  0  0  0  0  0  0  0  0  0  0
   60.0790   30.3030   48.0430 C   0  0  0  0  0  0  0  0  0  0  0  0
   58.9730   29.5310   48.4360 C   0  0  0  0  0  0  0  0  0  0  0  0
   58.1730   28.8980   47.4800 C   0  0  0  0  0  0  0  0  0  0  0  0
   58.4680   29.0240   46.1170 C   0  0  0  0  0  0  0  0  0  0  0  0
   57.4340   28.2720   44.9060 S   0  0  0  0  0  0  0  0  0  0  0  0
   58.1570   28.2370   43.5900 O   0  0  0  0  0  0  0  0  0  0  0  0
   57.1130   26.8590   45.3090 O   0  0  0  0  0  0  0  0  0  0  0  0
   55.9680   29.1880   44.7260 N   0  0  0  0  0  0  0  0  0  0  0  0
   56.0920   30.1020   43.5920 C   0  0  0  0  0  0  0  0  0  0  0  0
   57.1960   31.1310   43.8570 C   0  0  0  0  0  0  0  0  0  0  0  0
   57.0940   31.7820   45.2450 C   0  0  0  0  0  0  0  0  0  0  0  0
   57.9790   32.9450   45.3650 N   0  0  0  0  0  0  0  0  0  0  0  0
   58.3240   33.8390   44.2730 C   0  0  0  0  0  0  0  0  0  0  0  0
   59.2880   34.8850   44.8680 C   0  0  0  0  0  0  0  0  0  0  0  0
   59.3410   34.6500   46.3860 C   0  0  0  0  0  0  0  0  0  0  0  0
   58.5560   33.4140   46.5680 C   0  0  0  0  0  0  0  0  0  0  0  0
   58.4150   32.8320   47.6750 O   0  0  0  0  0  0  0  0  0  0  0  0
   59.5730   29.7860   45.7180 C   0  0  0  0  0  0  0  0  0  0  0  0
   60.3720   30.4210   46.6710 C   0  0  0  0  0  0  0  0  0  0  0  0
   60.6560   32.2160   49.5760 N   0  0  0  0  0  0  0  0  0  0  0  0
   61.6150   32.4970   50.4450 N   0  0  0  0  0  0  0  0  0  0  0  0
   64.8570   32.9680   49.6080 N   0  0  0  0  0  0  0  0  0  0  0  0
   63.9970   33.1630   48.6520 C   0  0  0  0  0  0  0  0  0  0  0  0
   63.1410   34.2060   48.6640 N   0  0  0  0  0  0  0  0  0  0  0  0
   62.3060   34.1870   47.5910 C   0  0  0  0  0  0  0  0  0  0  0  0
   62.4830   33.1180   46.7200 C   0  0  0  0  0  0  0  0  0  0  0  0
   63.7290   32.1620   47.3210 S   0  0  0  0  0  0  0  0  0  0  0  0
   63.8186   30.4502   51.7227 H   0  0  0  0  0  0  0  0  0  0  0  0
   63.5268   32.1741   52.1722 H   0  0  0  0  0  0  0  0  0  0  0  0
   62.5856   29.5845   49.4296 H   0  0  0  0  0  0  0  0  0  0  0  0
   58.7345   29.4237   49.5045 H   0  0  0  0  0  0  0  0  0  0  0  0
   57.3081   28.2984   47.8000 H   0  0  0  0  0  0  0  0  0  0  0  0
   56.3412   29.5270   42.6880 H   0  0  0  0  0  0  0  0  0  0  0  0
   55.1371   30.6297   43.4515 H   0  0  0  0  0  0  0  0  0  0  0  0
   58.1705   30.6269   43.7777 H   0  0  0  0  0  0  0  0  0  0  0  0
   57.0838   31.9314   43.1108 H   0  0  0  0  0  0  0  0  0  0  0  0
   56.0559   32.1053   45.4117 H   0  0  0  0  0  0  0  0  0  0  0  0
   57.4008   31.0388   45.9957 H   0  0  0  0  0  0  0  0  0  0  0  0
   58.8177   33.2810   43.4637 H   0  0  0  0  0  0  0  0  0  0  0  0
   57.4296   34.3139   43.8434 H   0  0  0  0  0  0  0  0  0  0  0  0
   60.2910   34.7622   44.4333 H   0  0  0  0  0  0  0  0  0  0  0  0
   58.9408   35.9046   44.6447 H   0  0  0  0  0  0  0  0  0  0  0  0
   60.3776   34.5118   46.7270 H   0  0  0  0  0  0  0  0  0  0  0  0
   58.9477   35.4980   46.9659 H   0  0  0  0  0  0  0  0  0  0  0  0
   59.8127   29.8848   44.6490 H   0  0  0  0  0  0  0  0  0  0  0  0
   61.2372   31.0182   46.3472 H   0  0  0  0  0  0  0  0  0  0  0  0
   59.8480   32.8440   49.3730 H   0  0  0  0  0  0  0  0  0  0  0  0
   61.5442   34.9627   47.4239 H   0  0  0  0  0  0  0  0  0  0  0  0
   61.9094   32.9307   45.8003 H   0  0  0  0  0  0  0  0  0  0  0  0
  1  2  2  0
  2  3  1  0
  3  4  1  0
  4  5  1  0
  5  6  2  0
  6  7  1  0
  7  8  2  0
  8  9  1  0
  9 10  2  0
 10 11  1  0
 11 12  2  0
 11 13  2  0
 11 14  1  0
 14 15  1  0
 15 16  1  0
 16 17  1  0
 17 18  1  0
 18 19  1  0
 19 20  1  0
 20 21  1  0
 21 22  1  0
 22 23  2  0
 10 24  1  0
 24 25  2  0
  6 26  1  0
 26 27  2  0
  2 28  1  0
 28 29  2  3
 29 30  1  0
 30 31  1  0
 31 32  2  0
 32 33  1  0
 27  4  1  0
 33 29  1  0
 25  7  1  0
 22 18  1  0
  3 34  1  0
  3 35  1  0
  5 36  1  0
  8 37  1  0
  9 38  1  0
 15 39  1  0
 15 40  1  0
 16 41  1  0
 16 42  1  0
 17 43  1  0
 17 44  1  0
 19 45  1  0
 19 46  1  0
 20 47  1  0
 20 48  1  0
 21 49  1  0
 21 50  1  0
 24 51  1  0
 25 52  1  0
 26 53  1  0
 31 54  1  0
 32 55  1  0
M  CHG  3  14  -1  26   1  30  -1
M  END
>  <UniqueID>  (65) 
62

>  <SMILES>  (65) 
O=C(Cn1cc(-c2ccc(S(=O)(=O)[N-]CCCN3CCCC3=O)cc2)[nH+]n1)N=c1[n-]ccs1

>  <Energy>  (65) 
126.41810709472549

>  <Genealogy>  (65) 
O=C(Cn1cc(-c2ccc(S(=O)(=O)[N-]CCCN3CCCC3=O)cc2)[nH+]n1)N=c1[n-]ccs1 (protonated)
O=C(Cn1cc(-c2ccc(S(=O)(=O)[N-]CCCN3CCCC3=O)cc2)[nH+]n1)N=c1[n-]ccs1 (3D coordinates assigned)
O=C(Cn1cc(-c2ccc(S(=O)(=O)[N-]CCCN3CCCC3=O)cc2)[nH+]n1)N=c1[n-]ccs1 (nonaromatic ring conformer: 126.41810709472549 kcal/mol)

>  <smiles>  (65) 
O=C(Cn1cc(-c2ccc(S(=O)(=O)NCCCN3CCCC3=O)cc2)nn1)N=c1[nH]ccs1

>  <score_type>  (65) 
oracle

>  <origin>  (65) 
adg

>  <m_score__min__energy>  (65) 
-10.449999999999999

>  <m_primary>  (65) 
energy

$$$$
65:0
     RDKit          3D

 28 30  0  0  0  0  0  0  0  0999 V2000
   55.9090   26.1460   46.0800 C   0  0  0  0  0  0  0  0  0  0  0  0
   55.9030   27.4790   45.6180 O   0  0  0  0  0  0  0  0  0  0  0  0
   57.2130   28.0100   45.6340 C   0  0  0  0  0  0  0  0  0  0  0  0
   57.2820   29.2780   44.8220 C   0  0  0  0  0  0  0  0  0  0  0  0
   56.7390   29.3120   43.5240 C   0  0  0  0  0  0  0  0  0  0  0  0
   56.7740   30.4910   42.7600 C   0  0  0  0  0  0  0  0  0  0  0  0
   57.3470   31.6610   43.2800 C   0  0  0  0  0  0  0  0  0  0  0  0
   57.8820   31.6380   44.5730 C   0  0  0  0  0  0  0  0  0  0  0  0
   57.8460   30.4610   45.3250 C   0  0  0  0  0  0  0  0  0  0  0  0
   58.5540   30.7310   46.8390 S   0  0  0  0  0  0  0  0  0  0  0  0
   58.9100   32.3480   46.5370 C   0  0  0  0  0  0  0  0  0  0  0  0
   59.5320   33.2560   47.3900 C   0  0  0  0  0  0  0  0  0  0  0  0
   59.7330   34.5670   46.9340 C   0  0  0  0  0  0  0  0  0  0  0  0
   59.3090   34.9450   45.6460 C   0  0  0  0  0  0  0  0  0  0  0  0
   58.6830   34.0150   44.8000 C   0  0  0  0  0  0  0  0  0  0  0  0
   58.4860   32.7060   45.2590 C   0  0  0  0  0  0  0  0  0  0  0  0
   55.9090   26.1392   47.1800 H   0  0  0  0  0  0  0  0  0  0  0  0
   55.0132   25.6257   45.7101 H   0  0  0  0  0  0  0  0  0  0  0  0
   56.8095   25.6338   45.7101 H   0  0  0  0  0  0  0  0  0  0  0  0
   57.5012   28.2298   46.6726 H   0  0  0  0  0  0  0  0  0  0  0  0
   57.9003   27.2710   45.1963 H   0  0  0  0  0  0  0  0  0  0  0  0
   56.2817   28.4047   43.1024 H   0  0  0  0  0  0  0  0  0  0  0  0
   56.3485   30.4964   41.7457 H   0  0  0  0  0  0  0  0  0  0  0  0
   57.3754   32.5828   42.6804 H   0  0  0  0  0  0  0  0  0  0  0  0
   59.8575   32.9527   48.3960 H   0  0  0  0  0  0  0  0  0  0  0  0
   60.2246   35.3038   47.5863 H   0  0  0  0  0  0  0  0  0  0  0  0
   59.4692   35.9766   45.2995 H   0  0  0  0  0  0  0  0  0  0  0  0
   58.3526   34.3096   43.7930 H   0  0  0  0  0  0  0  0  0  0  0  0
  1  2  1  0
  2  3  1  0
  3  4  1  0
  4  5  2  0
  5  6  1  0
  6  7  2  0
  7  8  1  0
  8  9  2  0
  9 10  1  0
 10 11  1  0
 11 12  2  0
 12 13  1  0
 13 14  2  0
 14 15  1  0
 15 16  2  0
  9  4  1  0
 16 11  1  0
 16  8  1  0
  1 17  1  0
  1 18  1  0
  1 19  1  0
  3 20  1  0
  3 21  1  0
  5 22  1  0
  6 23  1  0
  7 24  1  0
 12 25  1  0
 13 26  1  0
 14 27  1  0
 15 28  1  0
M  END
>  <UniqueID>  (66) 
63

>  <SMILES>  (66) 
COCc1cccc2c1sc1ccccc12

>  <Energy>  (66) 
68.43580391926275

>  <Genealogy>  (66) 
COCc1cccc2c1sc1ccccc12 (3D coordinates assigned)
COCc1cccc2c1sc1ccccc12 (optimized conformer: 68.43580391926275 kcal/mol)

>  <smiles>  (66) 
COCc1cccc2c1sc1ccccc12

>  <score_type>  (66) 
oracle

>  <origin>  (66) 
adg

>  <m_score__min__energy>  (66) 
-6.9699999999999998

>  <m_primary>  (66) 
energy

$$$$
66:0
     RDKit          3D

 15 16  0  0  0  0  0  0  0  0999 V2000
   56.0270   30.1870   44.8340 N   0  0  0  0  0  0  0  0  0  0  0  0
   56.7080   31.0060   44.1120 C   0  0  0  0  0  0  0  0  0  0  0  0
   56.7040   30.8440   42.8010 N   0  0  0  0  0  0  0  0  0  0  0  0
   57.3600   31.6110   41.9130 C   0  0  0  0  0  0  0  0  0  0  0  0
   58.0810   32.6340   42.4400 N   0  0  0  0  0  0  0  0  0  0  0  0
   58.1180   32.8440   43.7780 C   0  0  0  0  0  0  0  0  0  0  0  0
   58.9560   34.0770   44.7650 S   0  0  0  0  0  0  0  0  0  0  0  0
   58.3590   33.4660   46.2980 C   0  0  0  0  0  0  0  0  0  0  0  0
   57.5760   32.3860   45.9830 C   0  0  0  0  0  0  0  0  0  0  0  0
   57.4480   32.0600   44.6920 C   0  0  0  0  0  0  0  0  0  0  0  0
   56.3030   30.0890   45.8390 H   0  0  0  0  0  0  0  0  0  0  0  0
   56.1450   30.0500   42.3850 H   0  0  0  0  0  0  0  0  0  0  0  0
   57.3156   31.4223   40.8302 H   0  0  0  0  0  0  0  0  0  0  0  0
   58.5691   33.8658   47.3010 H   0  0  0  0  0  0  0  0  0  0  0  0
   57.0686   31.8054   46.7675 H   0  0  0  0  0  0  0  0  0  0  0  0
  1  2  2  3
  2  3  1  0
  3  4  1  0
  4  5  2  0
  5  6  1  0
  6  7  1  0
  7  8  1  0
  8  9  2  0
  9 10  1  0
 10  2  1  0
 10  6  2  0
  1 11  1  0
  3 12  1  0
  4 13  1  0
  8 14  1  0
  9 15  1  0
M  END
>  <smiles>  (67) 
N=c1[nH]cnc2sccc12

>  <score_type>  (67) 
oracle

>  <origin>  (67) 
adg

>  <m_score__min__energy>  (67) 
-4.6799999999999997

>  <m_primary>  (67) 
energy

$$$$
67:0
     RDKit          3D

 43 45  0  0  0  0  0  0  0  0999 V2000
   59.2590   34.7710   45.2530 C   0  0  0  0  0  0  0  0  0  0  0  0
   59.4110   34.1550   46.3830 N   0  0  0  0  0  0  0  0  0  0  0  0
   60.0250   32.8650   46.4940 C   0  0  0  0  0  0  0  0  0  0  0  0
   61.2780   32.7950   47.0150 N   0  0  0  0  0  0  0  0  0  0  0  0
   61.9450   31.6170   47.1190 C   0  0  0  0  0  0  0  0  0  0  0  0
   63.3640   31.6020   47.6120 C   0  0  0  0  0  0  0  0  0  0  0  0
   63.9260   32.9590   47.6910 N   0  0  0  0  0  0  0  0  0  0  0  0
   64.1410   33.3610   49.0610 C   0  0  0  0  0  0  0  0  0  0  0  0
   65.3490   33.0540   49.7150 C   0  0  0  0  0  0  0  0  0  0  0  0
   65.5770   33.4900   51.0230 C   0  0  0  0  0  0  0  0  0  0  0  0
   64.6020   34.2360   51.6930 C   0  0  0  0  0  0  0  0  0  0  0  0
   64.8930   34.7860   53.3330 Cl  0  0  0  0  0  0  0  0  0  0  0  0
   63.3990   34.5490   51.0520 C   0  0  0  0  0  0  0  0  0  0  0  0
   63.1690   34.1170   49.7420 C   0  0  0  0  0  0  0  0  0  0  0  0
   61.3640   30.4700   46.6850 N   0  0  0  0  0  0  0  0  0  0  0  0
   60.1050   30.4680   46.1780 C   0  0  0  0  0  0  0  0  0  0  0  0
   59.5270   29.2650   45.7670 C   0  0  0  0  0  0  0  0  0  0  0  0
   58.2110   29.2390   45.2670 C   0  0  0  0  0  0  0  0  0  0  0  0
   57.6010   28.0500   44.8410 O   0  0  0  0  0  0  0  0  0  0  0  0
   58.1260   27.1860   43.8390 C   0  0  0  0  0  0  0  0  0  0  0  0
   57.4720   30.4300   45.1940 C   0  0  0  0  0  0  0  0  0  0  0  0
   56.1580   30.3660   44.7040 O   0  0  0  0  0  0  0  0  0  0  0  0
   55.8030   29.9460   43.3900 C   0  0  0  0  0  0  0  0  0  0  0  0
   58.0570   31.6440   45.6070 C   0  0  0  0  0  0  0  0  0  0  0  0
   59.3820   31.6750   46.0790 C   0  0  0  0  0  0  0  0  0  0  0  0
   58.7801   35.7609   45.2263 H   0  0  0  0  0  0  0  0  0  0  0  0
   59.6088   34.3039   44.3206 H   0  0  0  0  0  0  0  0  0  0  0  0
   63.3889   31.1468   48.6131 H   0  0  0  0  0  0  0  0  0  0  0  0
   63.9686   31.0210   46.9001 H   0  0  0  0  0  0  0  0  0  0  0  0
   64.8400   32.9730   47.1810 H   0  0  0  0  0  0  0  0  0  0  0  0
   63.2900   33.6360   47.2050 H   0  0  0  0  0  0  0  0  0  0  0  0
   66.1189   32.4669   49.1929 H   0  0  0  0  0  0  0  0  0  0  0  0
   66.5243   33.2462   51.5261 H   0  0  0  0  0  0  0  0  0  0  0  0
   62.6325   35.1360   51.5792 H   0  0  0  0  0  0  0  0  0  0  0  0
   62.2228   34.3696   49.2410 H   0  0  0  0  0  0  0  0  0  0  0  0
   60.1040   28.3309   45.8344 H   0  0  0  0  0  0  0  0  0  0  0  0
   58.6403   26.3395   44.3175 H   0  0  0  0  0  0  0  0  0  0  0  0
   57.3041   26.8090   43.2126 H   0  0  0  0  0  0  0  0  0  0  0  0
   58.8392   27.7418   43.2126 H   0  0  0  0  0  0  0  0  0  0  0  0
   55.0940   29.1072   43.4522 H   0  0  0  0  0  0  0  0  0  0  0  0
   55.3345   30.7830   42.8516 H   0  0  0  0  0  0  0  0  0  0  0  0
   56.7063   29.6234   42.8516 H   0  0  0  0  0  0  0  0  0  0  0  0
   57.4728   32.5749   45.5599 H   0  0  0  0  0  0  0  0  0  0  0  0
  1  2  2  0
  2  3  1  0
  3  4  2  0
  4  5  1  0
  5  6  1  0
  6  7  1  0
  7  8  1  0
  8  9  2  0
  9 10  1  0
 10 11  2  0
 11 12  1  0
 11 13  1  0
 13 14  2  0
  5 15  2  0
 15 16  1  0
 16 17  2  0
 17 18  1  0
 18 19  1  0
 19 20  1  0
 18 21  2  0
 21 22  1  0
 22 23  1  0
 21 24  1  0
 24 25  2  0
 25  3  1  0
 14  8  1  0
 25 16  1  0
  1 26  1  0
  1 27  1  0
  6 28  1  0
  6 29  1  0
  7 30  1  0
  7 31  1  0
  9 32  1  0
 10 33  1  0
 13 34  1  0
 14 35  1  0
 17 36  1  0
 20 37  1  0
 20 38  1  0
 20 39  1  0
 23 40  1  0
 23 41  1  0
 23 42  1  0
 24 43  1  0
M  CHG  1   7   1
M  END
>  <UniqueID>  (68) 
64

>  <SMILES>  (68) 
C=Nc1nc(C[NH2+]c2ccc(Cl)cc2)nc2cc(OC)c(OC)cc12

>  <Energy>  (68) 
54.79557269594235

>  <Genealogy>  (68) 
C=Nc1nc(C[NH2+]c2ccc(Cl)cc2)nc2cc(OC)c(OC)cc12 (protonated)
C=Nc1nc(C[NH2+]c2ccc(Cl)cc2)nc2cc(OC)c(OC)cc12 (3D coordinates assigned)
C=Nc1nc(C[NH2+]c2ccc(Cl)cc2)nc2cc(OC)c(OC)cc12 (optimized conformer: 54.79557269594235 kcal/mol)

>  <smiles>  (68) 
C=Nc1nc(CNc2ccc(Cl)cc2)nc2cc(OC)c(OC)cc12

>  <score_type>  (68) 
oracle

>  <origin>  (68) 
adg

>  <m_score__min__energy>  (68) 
-5.5499999999999998

>  <m_primary>  (68) 
energy

$$$$
68:0
     RDKit          3D

 50 53  0  0  0  0  0  0  0  0999 V2000
   56.7030   29.3420   43.5310 C   0  0  0  0  0  0  0  0  0  0  0  0
   57.1790   30.7010   43.9320 C   0  0  0  0  0  0  0  0  0  0  0  0
   57.7740   31.5490   42.9900 C   0  0  0  0  0  0  0  0  0  0  0  0
   58.2060   32.8160   43.3860 C   0  0  0  0  0  0  0  0  0  0  0  0
   58.0480   33.2290   44.7160 C   0  0  0  0  0  0  0  0  0  0  0  0
   58.4870   34.6040   45.1430 C   0  0  0  0  0  0  0  0  0  0  0  0
   59.4610   34.5210   46.2510 N   0  0  0  0  0  0  0  0  0  0  0  0
   58.7780   34.2890   47.5500 C   0  0  0  0  0  0  0  0  0  0  0  0
   59.7440   33.8270   48.6620 C   0  0  0  0  0  0  0  0  0  0  0  0
   61.1930   34.1900   48.3330 C   0  0  0  0  0  0  0  0  0  0  0  0
   61.6310   33.5790   46.9850 C   0  0  1  0  0  0  0  0  0  0  0  0
   62.2300   32.2570   47.2010 N   0  0  0  0  0  0  0  0  0  0  0  0
   62.2880   31.6220   48.4900 C   0  0  0  0  0  0  0  0  0  0  0  0
   61.2650   30.7400   48.8820 C   0  0  0  0  0  0  0  0  0  0  0  0
   61.3250   30.0740   50.1070 C   0  0  0  0  0  0  0  0  0  0  0  0
   62.4090   30.2710   50.9610 C   0  0  0  0  0  0  0  0  0  0  0  0
   63.4410   31.1460   50.5980 C   0  0  0  0  0  0  0  0  0  0  0  0
   64.5290   31.3560   51.4570 C   0  0  0  0  0  0  0  0  0  0  0  0
   65.5200   32.2200   51.1090 N   0  0  0  0  0  0  0  0  0  0  0  0
   65.4870   32.9040   49.9350 C   0  0  0  0  0  0  0  0  0  0  0  0
   64.4260   32.7300   49.0450 C   0  0  0  0  0  0  0  0  0  0  0  0
   63.3880   31.8330   49.3600 C   0  0  0  0  0  0  0  0  0  0  0  0
   60.4550   33.4620   45.9900 C   0  0  0  0  0  0  0  0  0  0  0  0
   57.4380   32.3510   45.6260 C   0  0  0  0  0  0  0  0  0  0  0  0
   57.0240   31.1220   45.2160 N   0  0  0  0  0  0  0  0  0  0  0  0
   56.4943   28.7461   44.4317 H   0  0  0  0  0  0  0  0  0  0  0  0
   55.7846   29.4368   42.9331 H   0  0  0  0  0  0  0  0  0  0  0  0
   57.4799   28.8430   42.9331 H   0  0  0  0  0  0  0  0  0  0  0  0
   57.8998   31.2200   41.9479 H   0  0  0  0  0  0  0  0  0  0  0  0
   58.6712   33.4914   42.6529 H   0  0  0  0  0  0  0  0  0  0  0  0
   58.9547   35.1152   44.2887 H   0  0  0  0  0  0  0  0  0  0  0  0
   57.6060   35.1651   45.4880 H   0  0  0  0  0  0  0  0  0  0  0  0
   58.2999   35.2273   47.8678 H   0  0  0  0  0  0  0  0  0  0  0  0
   58.0419   33.4860   47.3973 H   0  0  0  0  0  0  0  0  0  0  0  0
   59.4596   34.3129   49.6070 H   0  0  0  0  0  0  0  0  0  0  0  0
   59.6735   32.7326   48.7474 H   0  0  0  0  0  0  0  0  0  0  0  0
   61.2845   35.2848   48.2770 H   0  0  0  0  0  0  0  0  0  0  0  0
   61.8409   33.7858   49.1247 H   0  0  0  0  0  0  0  0  0  0  0  0
   62.3758   34.2583   46.5447 H   0  0  0  0  0  0  0  0  0  0  0  0
   62.5590   31.7240   46.3640 H   0  0  0  0  0  0  0  0  0  0  0  0
   60.4067   30.5730   48.2146 H   0  0  0  0  0  0  0  0  0  0  0  0
   60.5139   29.3911   50.3997 H   0  0  0  0  0  0  0  0  0  0  0  0
   62.4541   29.7381   51.9222 H   0  0  0  0  0  0  0  0  0  0  0  0
   64.5813   30.8199   52.4161 H   0  0  0  0  0  0  0  0  0  0  0  0
   66.3220   32.3640   51.7620 H   0  0  0  0  0  0  0  0  0  0  0  0
   66.3018   33.5993   49.6846 H   0  0  0  0  0  0  0  0  0  0  0  0
   64.4011   33.2924   48.0999 H   0  0  0  0  0  0  0  0  0  0  0  0
   60.8358   33.5658   44.9632 H   0  0  0  0  0  0  0  0  0  0  0  0
   59.9752   32.4800   46.1144 H   0  0  0  0  0  0  0  0  0  0  0  0
   57.2946   32.6576   46.6726 H   0  0  0  0  0  0  0  0  0  0  0  0
  1  2  1  0
  2  3  2  0
  3  4  1  0
  4  5  2  0
  5  6  1  0
  6  7  1  0
  7  8  1  0
  8  9  1  0
  9 10  1  0
 10 11  1  0
 11 12  1  0
 12 13  1  0
 13 14  2  0
 14 15  1  0
 15 16  2  0
 16 17  1  0
 17 18  2  0
 18 19  1  0
 19 20  2  0
 20 21  1  0
 21 22  2  0
 11 23  1  0
  5 24  1  0
 24 25  2  0
 25  2  1  0
 23  7  1  0
 22 13  1  0
 22 17  1  0
  1 26  1  0
  1 27  1  0
  1 28  1  0
  3 29  1  0
  4 30  1  0
  6 31  1  0
  6 32  1  0
  8 33  1  0
  8 34  1  0
  9 35  1  0
  9 36  1  0
 10 37  1  0
 10 38  1  0
 11 39  1  6
 12 40  1  0
 14 41  1  0
 15 42  1  0
 16 43  1  0
 18 44  1  0
 19 45  1  0
 20 46  1  0
 21 47  1  0
 23 48  1  0
 23 49  1  0
 24 50  1  0
M  CHG  1  19   1
M  END
>  <UniqueID>  (69) 
65

>  <SMILES>  (69) 
Cc1ccc(CN2CCC[C@@H](Nc3cccc4c[nH+]ccc34)C2)cn1

>  <Energy>  (69) 
65.47582949254272

>  <Genealogy>  (69) 
Cc1ccc(CN2CCCC(Nc3cccc4c[nH+]ccc34)C2)cn1 (protonated)
Cc1ccc(CN2CCC[C@@H](Nc3cccc4c[nH+]ccc34)C2)cn1 (chirality)
Cc1ccc(CN2CCC[C@@H](Nc3cccc4c[nH+]ccc34)C2)cn1 (3D coordinates assigned)
Cc1ccc(CN2CCC[C@@H](Nc3cccc4c[nH+]ccc34)C2)cn1 (nonaromatic ring conformer: 65.47582949254272 kcal/mol)

>  <smiles>  (69) 
Cc1ccc(CN2CCCC(Nc3cccc4cnccc34)C2)cn1

>  <score_type>  (69) 
oracle

>  <origin>  (69) 
adg

>  <m_score__min__energy>  (69) 
-6.9500000000000002

>  <m_primary>  (69) 
energy

$$$$
69:0
     RDKit          3D

 23 24  0  0  0  0  0  0  0  0999 V2000
   57.0320   28.6310   45.0660 C   0  0  0  0  0  0  0  0  0  0  0  0
   55.9930   29.3360   44.3090 N   0  0  0  0  0  0  0  0  0  0  0  0
   56.5820   30.2870   43.3570 C   0  0  0  0  0  0  0  0  0  0  0  0
   57.2100   31.4360   44.0840 C   0  0  0  0  0  0  0  0  0  0  0  0
   58.0770   32.3650   43.5300 C   0  0  0  0  0  0  0  0  0  0  0  0
   58.4360   33.1930   44.5200 N   0  0  0  0  0  0  0  0  0  0  0  0
   59.2680   34.2660   44.5020 C   0  0  0  0  0  0  0  0  0  0  0  0
   59.4730   34.9620   45.7030 C   0  0  0  0  0  0  0  0  0  0  0  0
   58.8210   34.5310   46.8750 C   0  0  0  0  0  0  0  0  0  0  0  0
   57.9710   33.4120   46.8440 C   0  0  0  0  0  0  0  0  0  0  0  0
   57.8030   32.7620   45.6240 C   0  0  0  0  0  0  0  0  0  0  0  0
   57.0350   31.6740   45.4070 N   0  0  0  0  0  0  0  0  0  0  0  0
   56.8487   28.7553   46.1435 H   0  0  0  0  0  0  0  0  0  0  0  0
   57.0091   27.5612   44.8112 H   0  0  0  0  0  0  0  0  0  0  0  0
   58.0177   29.0476   44.8112 H   0  0  0  0  0  0  0  0  0  0  0  0
   55.4720   28.6170   43.7560 H   0  0  0  0  0  0  0  0  0  0  0  0
   57.3499   29.7731   42.7602 H   0  0  0  0  0  0  0  0  0  0  0  0
   55.7872   30.6725   42.7014 H   0  0  0  0  0  0  0  0  0  0  0  0
   58.4061   32.4130   42.4815 H   0  0  0  0  0  0  0  0  0  0  0  0
   59.7666   34.5803   43.5732 H   0  0  0  0  0  0  0  0  0  0  0  0
   60.1380   35.8378   45.7292 H   0  0  0  0  0  0  0  0  0  0  0  0
   58.9779   35.0730   47.8193 H   0  0  0  0  0  0  0  0  0  0  0  0
   57.4567   33.0621   47.7513 H   0  0  0  0  0  0  0  0  0  0  0  0
  1  2  1  0
  2  3  1  0
  3  4  1  0
  4  5  2  0
  5  6  1  0
  6  7  1  0
  7  8  2  0
  8  9  1  0
  9 10  2  0
 10 11  1  0
 11 12  2  0
 12  4  1  0
 11  6  1  0
  1 13  1  0
  1 14  1  0
  1 15  1  0
  2 16  1  0
  3 17  1  0
  3 18  1  0
  5 19  1  0
  7 20  1  0
  8 21  1  0
  9 22  1  0
 10 23  1  0
M  END
>  <UniqueID>  (70) 
66

>  <SMILES>  (70) 
CNCc1cn2ccccc2n1

>  <Energy>  (70) 
55.2579785317453

>  <Genealogy>  (70) 
CNCc1cn2ccccc2n1 (3D coordinates assigned)
CNCc1cn2ccccc2n1 (optimized conformer: 55.2579785317453 kcal/mol)

>  <smiles>  (70) 
CNCc1cn2ccccc2n1

>  <score_type>  (70) 
oracle

>  <origin>  (70) 
adg

>  <m_score__min__energy>  (70) 
-5.5300000000000002

>  <m_primary>  (70) 
energy

$$$$
70:0
     RDKit          3D

 22 22  0  0  0  0  0  0  0  0999 V2000
   56.6490   28.9700   44.8580 C   0  0  0  0  0  0  0  0  0  0  0  0
   56.4230   29.7150   43.5450 C   0  0  0  0  0  0  0  0  0  0  0  0
   57.0330   31.1210   43.5780 C   0  0  0  0  0  0  0  0  0  0  0  0
   56.9210   31.7060   44.8760 O   0  0  0  0  0  0  0  0  0  0  0  0
   57.6970   32.7720   45.3620 C   0  0  0  0  0  0  0  0  0  0  0  0
   57.7680   33.1050   46.7310 C   0  0  0  0  0  0  0  0  0  0  0  0
   58.5590   34.1770   47.1550 C   0  0  0  0  0  0  0  0  0  0  0  0
   59.2850   34.9240   46.2230 C   0  0  0  0  0  0  0  0  0  0  0  0
   59.2240   34.5980   44.8660 C   0  0  0  0  0  0  0  0  0  0  0  0
   58.4340   33.5250   44.4400 C   0  0  0  0  0  0  0  0  0  0  0  0
   56.4443   29.6447   45.7023 H   0  0  0  0  0  0  0  0  0  0  0  0
   55.9733   28.1035   44.9089 H   0  0  0  0  0  0  0  0  0  0  0  0
   57.6922   28.6249   44.9089 H   0  0  0  0  0  0  0  0  0  0  0  0
   56.8870   29.1443   42.7270 H   0  0  0  0  0  0  0  0  0  0  0  0
   55.3386   29.8155   43.3903 H   0  0  0  0  0  0  0  0  0  0  0  0
   58.0966   31.0564   43.3048 H   0  0  0  0  0  0  0  0  0  0  0  0
   56.4850   31.7535   42.8641 H   0  0  0  0  0  0  0  0  0  0  0  0
   57.1989   32.5190   47.4677 H   0  0  0  0  0  0  0  0  0  0  0  0
   58.6101   34.4329   48.2236 H   0  0  0  0  0  0  0  0  0  0  0  0
   59.9046   35.7688   46.5582 H   0  0  0  0  0  0  0  0  0  0  0  0
   59.7969   35.1847   44.1328 H   0  0  0  0  0  0  0  0  0  0  0  0
   58.3914   33.2705   43.3707 H   0  0  0  0  0  0  0  0  0  0  0  0
  1  2  1  0
  2  3  1  0
  3  4  1  0
  4  5  1  0
  5  6  2  0
  6  7  1  0
  7  8  2  0
  8  9  1  0
  9 10  2  0
 10  5  1  0
  1 11  1  0
  1 12  1  0
  1 13  1  0
  2 14  1  0
  2 15  1  0
  3 16  1  0
  3 17  1  0
  6 18  1  0
  7 19  1  0
  8 20  1  0
  9 21  1  0
 10 22  1  0
M  END
>  <UniqueID>  (71) 
67

>  <SMILES>  (71) 
CCCOc1ccccc1

>  <Energy>  (71) 
16.018844847203056

>  <Genealogy>  (71) 
CCCOc1ccccc1 (3D coordinates assigned)
CCCOc1ccccc1 (optimized conformer: 16.018844847203056 kcal/mol)

>  <smiles>  (71) 
CCCOc1ccccc1

>  <score_type>  (71) 
oracle

>  <origin>  (71) 
adg

>  <m_score__min__energy>  (71) 
-4.5300000000000002

>  <m_primary>  (71) 
energy

$$$$
71:0
     RDKit          3D

 44 44  0  0  0  0  0  0  0  0999 V2000
   56.2826   26.4802   45.7139 H   0  0  0  0  0  0  0  0  0  0  0  0
   59.5000   27.0210   46.8260 C   0  0  0  0  0  0  0  0  0  0  0  0
   58.6650   29.7590   47.2550 C   0  0  0  0  0  0  0  0  0  0  0  0
   57.8892   29.2758   46.6430 H   0  0  0  0  0  0  0  0  0  0  0  0
   58.1840   26.3830   46.5850 C   0  0  0  0  0  0  0  0  0  0  0  0
   59.2770   29.0160   48.1890 C   0  0  0  0  0  0  0  0  0  0  0  0
   59.3811   29.4482   49.1951 H   0  0  0  0  0  0  0  0  0  0  0  0
   57.6270   28.8970   44.3860 C   0  0  0  0  0  0  0  0  0  0  0  0
   58.5212   29.4677   44.0952 H   0  0  0  0  0  0  0  0  0  0  0  0
   58.9620   31.1830   46.9920 C   0  0  0  0  0  0  0  0  0  0  0  0
   60.2320   31.7450   47.2390 C   0  0  0  0  0  0  0  0  0  0  0  0
   61.3790   30.9500   47.7930 C   0  0  0  0  0  0  0  0  0  0  0  0
   61.3446   30.9738   48.8922 H   0  0  0  0  0  0  0  0  0  0  0  0
   61.3047   29.9087   47.4463 H   0  0  0  0  0  0  0  0  0  0  0  0
   62.3280   31.3850   47.4463 H   0  0  0  0  0  0  0  0  0  0  0  0
   60.4370   33.0560   46.9460 N   0  0  0  0  0  0  0  0  0  0  0  0
   59.4520   33.8520   46.4550 C   0  0  0  0  0  0  0  0  0  0  0  0
   59.7620   35.2890   46.1600 C   0  0  0  0  0  0  0  0  0  0  0  0
   59.8808   35.8399   47.1047 H   0  0  0  0  0  0  0  0  0  0  0  0
   60.6942   35.3513   45.5794 H   0  0  0  0  0  0  0  0  0  0  0  0
   58.9383   35.7301   45.5794 H   0  0  0  0  0  0  0  0  0  0  0  0
   58.1680   33.3050   46.2530 C   0  0  0  0  0  0  0  0  0  0  0  0
   57.0380   34.1450   45.7210 C   0  0  0  0  0  0  0  0  0  0  0  0
   56.4685   34.5683   46.5616 H   0  0  0  0  0  0  0  0  0  0  0  0
   57.4456   34.9611   45.1063 H   0  0  0  0  0  0  0  0  0  0  0  0
   56.3740   33.5195   45.1063 H   0  0  0  0  0  0  0  0  0  0  0  0
   57.9610   31.9870   46.5330 N   0  0  0  0  0  0  0  0  0  0  0  0
   57.0150   31.5710   46.3740 H   0  0  0  0  0  0  0  0  0  0  0  0
   60.7560   27.0370   48.9810 C   0  0  0  0  0  0  0  0  0  0  0  0
   60.4018   27.2719   49.9956 H   0  0  0  0  0  0  0  0  0  0  0  0
   60.7763   25.9459   48.8432 H   0  0  0  0  0  0  0  0  0  0  0  0
   61.7690   27.4429   48.8432 H   0  0  0  0  0  0  0  0  0  0  0  0
   59.8240   27.6550   47.9670 C   0  0  0  0  0  0  0  0  0  0  0  0
   60.2541   26.9732   46.0266 H   0  0  0  0  0  0  0  0  0  0  0  0
   57.7380   27.5560   44.4280 C   0  0  0  0  0  0  0  0  0  0  0  0
   57.3400   26.7680   45.6180 C   0  0  0  0  0  0  0  0  0  0  0  0
   57.8839   25.5481   47.2353 H   0  0  0  0  0  0  0  0  0  0  0  0
   56.4040   29.6670   44.6980 C   0  0  0  0  0  0  0  0  0  0  0  0
   56.4860   30.9170   44.8340 O   0  0  0  0  0  0  0  0  0  0  0  0
   55.1740   29.0490   44.8850 O   0  0  0  0  0  0  0  0  0  0  0  0
   58.1490   26.8310   43.1750 C   0  0  0  0  0  0  0  0  0  0  0  0
   58.6750   25.9031   43.4440 H   0  0  0  0  0  0  0  0  0  0  0  0
   57.2549   26.5870   42.5825 H   0  0  0  0  0  0  0  0  0  0  0  0
   58.8175   27.4729   42.5825 H   0  0  0  0  0  0  0  0  0  0  0  0
  1  2  1  0
  2  3  1  0
  3  4  1  0
  3  5  2  3
  5  6  1  0
  6  7  1  0
  6  8  2  3
  8  9  1  0
  8 10  1  0
 10 11  2  0
 11 12  1  0
 12 13  1  0
 12 14  1  0
 12 15  1  0
 11 16  1  0
 16 17  2  0
 17 18  1  0
 18 19  1  0
 18 20  1  0
 18 21  1  0
 17 22  1  0
 22 23  1  0
 23 24  1  0
 23 25  1  0
 23 26  1  0
 22 27  2  0
 27 28  1  0
  5 29  1  0
 29 30  1  0
 29 31  1  0
 29 32  1  0
  2 33  2  0
 33 34  1  0
 33 35  1  0
 35 36  2  0
 36 37  1  0
 36 38  1  0
 38 39  2  0
 38 40  1  0
 35 41  1  0
 41 42  1  0
 41 43  1  0
 41 44  1  0
 27 10  1  0
M  CHG  2  27   1  40  -1
M  END
>  <UniqueID>  (72) 
68

>  <SMILES>  (72) 
CC(C=Cc1[nH+]c(C)c(C)nc1C)=CC=C/C(C)=C\C(=O)[O-]

>  <Energy>  (72) 
58.20401775364511

>  <Genealogy>  (72) 
CC(C=Cc1[nH+]c(C)c(C)nc1C)=CC=CC(C)=CC(=O)[O-] (protonated)
CC(C=Cc1[nH+]c(C)c(C)nc1C)=CC=C/C(C)=C\C(=O)[O-] (cis-trans isomerization)
CC(C=Cc1[nH+]c(C)c(C)nc1C)=CC=C/C(C)=C\C(=O)[O-] (3D coordinates assigned)
CC(C=Cc1[nH+]c(C)c(C)nc1C)=CC=C/C(C)=C\C(=O)[O-] (optimized conformer: 58.20401775364511 kcal/mol)

>  <smiles>  (72) 
CC(C=Cc1nc(C)c(C)nc1C)=CC=CC(C)=CC(=O)O

>  <score_type>  (72) 
oracle

>  <origin>  (72) 
adg

>  <m_score__min__energy>  (72) 
-8.6699999999999999

>  <m_primary>  (72) 
energy

$$$$
72:0
     RDKit          3D

 33 35  0  0  0  0  0  0  0  0999 V2000
   54.4712   29.5919   44.0891 H   0  0  0  0  0  0  0  0  0  0  0  0
   55.5080   29.7100   44.4370 C   0  0  0  0  0  0  0  0  0  0  0  0
   56.0620   28.7670   45.2410 N   0  0  0  0  0  0  0  0  0  0  0  0
   57.3390   28.8730   45.6930 C   0  0  0  0  0  0  0  0  0  0  0  0
   57.8650   27.8740   46.5200 C   0  0  0  0  0  0  0  0  0  0  0  0
   57.2438   27.0101   46.7989 H   0  0  0  0  0  0  0  0  0  0  0  0
   59.1770   27.9700   46.9930 C   0  0  0  0  0  0  0  0  0  0  0  0
   59.8300   26.7150   48.0290 Cl  0  0  0  0  0  0  0  0  0  0  0  0
   59.9690   29.0660   46.6400 C   0  0  0  0  0  0  0  0  0  0  0  0
   61.0011   29.1386   47.0134 H   0  0  0  0  0  0  0  0  0  0  0  0
   59.4550   30.0710   45.8140 C   0  0  0  0  0  0  0  0  0  0  0  0
   60.0850   30.9304   45.5408 H   0  0  0  0  0  0  0  0  0  0  0  0
   58.1340   29.9880   45.3300 C   0  0  0  0  0  0  0  0  0  0  0  0
   57.5760   30.9830   44.4940 C   0  0  0  0  0  0  0  0  0  0  0  0
   58.2970   32.0170   44.1500 N   0  0  0  0  0  0  0  0  0  0  0  0
   57.8570   33.4100   44.1150 C   0  0  0  0  0  0  0  0  0  0  0  0
   56.8379   33.4829   44.5225 H   0  0  0  0  0  0  0  0  0  0  0  0
   57.8632   33.7703   43.0757 H   0  0  0  0  0  0  0  0  0  0  0  0
   58.8030   34.2640   44.9550 C   0  0  0  0  0  0  0  0  0  0  0  0
   58.4232   35.2956   44.9937 H   0  0  0  0  0  0  0  0  0  0  0  0
   59.8027   34.2479   44.4964 H   0  0  0  0  0  0  0  0  0  0  0  0
   58.8940   33.7320   46.3140 N   0  0  0  0  0  0  0  0  0  0  0  0
   59.9920   33.4010   47.0240 C   0  0  0  0  0  0  0  0  0  0  0  0
   61.4010   33.6020   46.5660 C   0  0  0  0  0  0  0  0  0  0  0  0
   62.0610   33.6962   47.4409 H   0  0  0  0  0  0  0  0  0  0  0  0
   61.7161   32.7397   45.9601 H   0  0  0  0  0  0  0  0  0  0  0  0
   61.4625   34.5180   45.9601 H   0  0  0  0  0  0  0  0  0  0  0  0
   59.6650   32.8670   48.2190 N   0  0  0  0  0  0  0  0  0  0  0  0
   58.3410   32.8350   48.2830 N   0  0  0  0  0  0  0  0  0  0  0  0
   57.8920   33.3520   47.1260 C   0  0  0  0  0  0  0  0  0  0  0  0
   56.6700   33.4600   46.8390 O   0  0  0  0  0  0  0  0  0  0  0  0
   56.2460   30.8270   44.0500 C   0  0  0  0  0  0  0  0  0  0  0  0
   55.7913   31.5874   43.3980 H   0  0  0  0  0  0  0  0  0  0  0  0
  1  2  1  0
  2  3  1  0
  3  4  1  0
  4  5  2  0
  5  6  1  0
  5  7  1  0
  7  8  1  0
  7  9  2  0
  9 10  1  0
  9 11  1  0
 11 12  1  0
 11 13  2  0
 13 14  1  0
 14 15  2  0
 15 16  1  0
 16 17  1  0
 16 18  1  0
 16 19  1  0
 19 20  1  0
 19 21  1  0
 19 22  1  0
 22 23  1  0
 23 24  1  0
 24 25  1  0
 24 26  1  0
 24 27  1  0
 23 28  2  0
 28 29  1  0
 29 30  1  0
 30 31  2  0
 14 32  1  0
 32 33  1  0
 32  2  2  0
 13  4  1  0
 30 22  1  0
M  CHG  2   3  -1  29  -1
M  END
>  <UniqueID>  (73) 
69

>  <SMILES>  (73) 
Cc1n[n-]c(=O)n1CC/N=c1\cc[n-]c2cc(Cl)ccc12

>  <Energy>  (73) 
73.24921359357282

>  <Genealogy>  (73) 
Cc1n[n-]c(=O)n1CCN=c1cc[n-]c2cc(Cl)ccc12 (protonated)
Cc1n[n-]c(=O)n1CC/N=c1\cc[n-]c2cc(Cl)ccc12 (cis-trans isomerization)
Cc1n[n-]c(=O)n1CC/N=c1\cc[n-]c2cc(Cl)ccc12 (3D coordinates assigned)
Cc1n[n-]c(=O)n1CC/N=c1\cc[n-]c2cc(Cl)ccc12 (optimized conformer: 73.24921359357282 kcal/mol)

>  <smiles>  (73) 
Cc1n[nH]c(=O)n1CCN=c1cc[nH]c2cc(Cl)ccc12

>  <score_type>  (73) 
oracle

>  <origin>  (73) 
adg

>  <m_score__min__energy>  (73) 
-10.41

>  <m_primary>  (73) 
energy

$$$$
73:0
     RDKit          3D

 45 47  0  0  0  0  0  0  0  0999 V2000
   62.3790   34.2940   49.2910 C   0  0  0  0  0  0  0  0  0  0  0  0
   61.2890   34.1690   48.2600 C   0  0  0  0  0  0  0  0  0  0  0  0
   59.9470   34.2560   48.6640 C   0  0  0  0  0  0  0  0  0  0  0  0
   58.9150   34.1450   47.7310 C   0  0  0  0  0  0  0  0  0  0  0  0
   59.2030   33.9420   46.3720 C   0  0  0  0  0  0  0  0  0  0  0  0
   58.2010   33.8380   45.3920 O   0  0  0  0  0  0  0  0  0  0  0  0
   58.3340   33.1480   44.1500 C   0  0  0  0  0  0  0  0  0  0  0  0
   57.7740   31.7660   44.2550 C   0  0  0  0  0  0  0  0  0  0  0  0
   56.6130   31.4670   44.8700 N   0  0  0  0  0  0  0  0  0  0  0  0
   56.4510   30.1600   44.7410 N   0  0  0  0  0  0  0  0  0  0  0  0
   57.5180   29.7170   44.0510 C   0  0  0  0  0  0  0  0  0  0  0  0
   57.7760   28.0030   43.5950 S   0  0  0  0  0  0  0  0  0  0  0  0
   57.7430   27.3840   45.3120 C   0  0  0  0  0  0  0  0  0  0  0  0
   58.8800   27.9590   46.0950 C   0  0  0  0  0  0  0  0  0  0  0  0
   59.8290   27.2070   46.4480 O   0  0  0  0  0  0  0  0  0  0  0  0
   58.8890   29.3550   46.4310 N   0  0  0  0  0  0  0  0  0  0  0  0
   59.7770   29.9340   47.4020 C   0  0  0  0  0  0  0  0  0  0  0  0
   61.0590   30.3810   47.0340 C   0  0  0  0  0  0  0  0  0  0  0  0
   61.9170   30.9290   47.9920 C   0  0  0  0  0  0  0  0  0  0  0  0
   61.5120   31.0150   49.3270 C   0  0  0  0  0  0  0  0  0  0  0  0
   60.2540   30.5470   49.7070 C   0  0  0  0  0  0  0  0  0  0  0  0
   59.3880   30.0030   48.7510 C   0  0  0  0  0  0  0  0  0  0  0  0
   58.1670   29.5540   49.1360 F   0  0  0  0  0  0  0  0  0  0  0  0
   58.3350   30.6950   43.7470 O   0  0  0  0  0  0  0  0  0  0  0  0
   60.5370   33.8360   45.9660 C   0  0  0  0  0  0  0  0  0  0  0  0
   61.5880   33.9360   46.8950 C   0  0  0  0  0  0  0  0  0  0  0  0
   63.0110   33.8360   46.4110 C   0  0  0  0  0  0  0  0  0  0  0  0
   61.9389   34.2435   50.2979 H   0  0  0  0  0  0  0  0  0  0  0  0
   63.0996   33.4726   49.1642 H   0  0  0  0  0  0  0  0  0  0  0  0
   62.8949   35.2572   49.1642 H   0  0  0  0  0  0  0  0  0  0  0  0
   59.7068   34.4131   49.7259 H   0  0  0  0  0  0  0  0  0  0  0  0
   57.8687   34.2171   48.0627 H   0  0  0  0  0  0  0  0  0  0  0  0
   57.7904   33.7003   43.3693 H   0  0  0  0  0  0  0  0  0  0  0  0
   59.4016   33.0802   43.8938 H   0  0  0  0  0  0  0  0  0  0  0  0
   56.7934   27.6757   45.7843 H   0  0  0  0  0  0  0  0  0  0  0  0
   57.8371   26.2881   45.2983 H   0  0  0  0  0  0  0  0  0  0  0  0
   58.2560   29.9900   45.8950 H   0  0  0  0  0  0  0  0  0  0  0  0
   61.3879   30.2990   45.9875 H   0  0  0  0  0  0  0  0  0  0  0  0
   62.9117   31.2928   47.6949 H   0  0  0  0  0  0  0  0  0  0  0  0
   62.1858   31.4521   50.0786 H   0  0  0  0  0  0  0  0  0  0  0  0
   59.9418   30.6055   50.7601 H   0  0  0  0  0  0  0  0  0  0  0  0
   60.7679   33.6718   44.9031 H   0  0  0  0  0  0  0  0  0  0  0  0
   63.6898   33.7883   47.2753 H   0  0  0  0  0  0  0  0  0  0  0  0
   63.1282   32.9274   45.8021 H   0  0  0  0  0  0  0  0  0  0  0  0
   63.2541   34.7193   45.8021 H   0  0  0  0  0  0  0  0  0  0  0  0
  1  2  1  0
  2  3  2  0
  3  4  1  0
  4  5  2  0
  5  6  1  0
  6  7  1  0
  7  8  1  0
  8  9  2  0
  9 10  1  0
 10 11  2  0
 11 12  1  0
 12 13  1  0
 13 14  1  0
 14 15  2  0
 14 16  1  0
 16 17  1  0
 17 18  2  0
 18 19  1  0
 19 20  2  0
 20 21  1  0
 21 22  2  0
 22 23  1  0
 11 24  1  0
  5 25  1  0
 25 26  2  0
 26 27  1  0
 26  2  1  0
 24  8  1  0
 22 17  1  0
  1 28  1  0
  1 29  1  0
  1 30  1  0
  3 31  1  0
  4 32  1  0
  7 33  1  0
  7 34  1  0
 13 35  1  0
 13 36  1  0
 16 37  1  0
 18 38  1  0
 19 39  1  0
 20 40  1  0
 21 41  1  0
 25 42  1  0
 27 43  1  0
 27 44  1  0
 27 45  1  0
M  END
>  <UniqueID>  (74) 
70

>  <SMILES>  (74) 
Cc1ccc(OCc2nnc(SCC(=O)Nc3ccccc3F)o2)cc1C

>  <Energy>  (74) 
77.55181563712209

>  <Genealogy>  (74) 
Cc1ccc(OCc2nnc(SCC(=O)Nc3ccccc3F)o2)cc1C (3D coordinates assigned)
Cc1ccc(OCc2nnc(SCC(=O)Nc3ccccc3F)o2)cc1C (optimized conformer: 77.55181563712209 kcal/mol)

>  <smiles>  (74) 
Cc1ccc(OCc2nnc(SCC(=O)Nc3ccccc3F)o2)cc1C

>  <score_type>  (74) 
oracle

>  <origin>  (74) 
adg

>  <m_score__min__energy>  (74) 
-7.4100000000000001

>  <m_primary>  (74) 
energy

$$$$
74:0
     RDKit          3D

 29 30  0  0  0  0  0  0  0  0999 V2000
   56.5270   30.2330   43.7170 C   0  0  0  0  0  0  0  0  0  0  0  0
   56.6770   31.0070   44.8880 O   0  0  0  0  0  0  0  0  0  0  0  0
   57.6670   31.9920   44.6730 C   0  0  0  0  0  0  0  0  0  0  0  0
   57.4320   33.1700   45.6160 C   0  0  0  0  0  0  0  0  0  0  0  0
   58.5460   34.5760   45.2520 S   0  0  0  0  0  0  0  0  0  0  0  0
   59.6820   34.2510   46.6020 C   0  0  0  0  0  0  0  0  0  0  0  0
   59.2210   34.2660   47.9230 C   0  0  0  0  0  0  0  0  0  0  0  0
   60.1030   34.0200   48.9790 C   0  0  0  0  0  0  0  0  0  0  0  0
   61.4580   33.7650   48.7220 C   0  0  0  0  0  0  0  0  0  0  0  0
   62.3470   33.5170   49.7730 C   0  0  0  0  0  0  0  0  0  0  0  0
   63.6910   33.2660   49.4920 C   0  0  0  0  0  0  0  0  0  0  0  0
   64.1360   33.2640   48.2060 N   0  0  0  0  0  0  0  0  0  0  0  0
   63.2990   33.5010   47.1560 C   0  0  0  0  0  0  0  0  0  0  0  0
   63.7600   33.4870   45.9820 O   0  0  0  0  0  0  0  0  0  0  0  0
   61.9340   33.7600   47.3890 C   0  0  0  0  0  0  0  0  0  0  0  0
   61.0360   34.0110   46.3350 C   0  0  0  0  0  0  0  0  0  0  0  0
   56.3244   29.1874   43.9920 H   0  0  0  0  0  0  0  0  0  0  0  0
   55.6881   30.6251   43.1232 H   0  0  0  0  0  0  0  0  0  0  0  0
   57.4516   30.2834   43.1232 H   0  0  0  0  0  0  0  0  0  0  0  0
   58.6603   31.5608   44.8665 H   0  0  0  0  0  0  0  0  0  0  0  0
   57.6136   32.3419   43.6315 H   0  0  0  0  0  0  0  0  0  0  0  0
   56.3900   33.5065   45.5105 H   0  0  0  0  0  0  0  0  0  0  0  0
   57.6396   32.8299   46.6413 H   0  0  0  0  0  0  0  0  0  0  0  0
   58.1607   34.4721   48.1312 H   0  0  0  0  0  0  0  0  0  0  0  0
   59.7332   34.0264   50.0150 H   0  0  0  0  0  0  0  0  0  0  0  0
   61.9896   33.5197   50.8133 H   0  0  0  0  0  0  0  0  0  0  0  0
   64.3943   33.0687   50.3145 H   0  0  0  0  0  0  0  0  0  0  0  0
   65.1470   33.0720   48.0260 H   0  0  0  0  0  0  0  0  0  0  0  0
   61.3990   34.0188   45.2966 H   0  0  0  0  0  0  0  0  0  0  0  0
  1  2  1  0
  2  3  1  0
  3  4  1  0
  4  5  1  0
  5  6  1  0
  6  7  2  0
  7  8  1  0
  8  9  2  0
  9 10  1  0
 10 11  2  0
 11 12  1  0
 12 13  1  0
 13 14  2  0
 13 15  1  0
 15 16  2  0
 16  6  1  0
 15  9  1  0
  1 17  1  0
  1 18  1  0
  1 19  1  0
  3 20  1  0
  3 21  1  0
  4 22  1  0
  4 23  1  0
  7 24  1  0
  8 25  1  0
 10 26  1  0
 11 27  1  0
 12 28  1  0
 16 29  1  0
M  END
>  <UniqueID>  (75) 
71

>  <SMILES>  (75) 
COCCSc1ccc2cc[nH]c(=O)c2c1

>  <Energy>  (75) 
28.491136205056716

>  <Genealogy>  (75) 
COCCSc1ccc2cc[nH]c(=O)c2c1 (3D coordinates assigned)
COCCSc1ccc2cc[nH]c(=O)c2c1 (optimized conformer: 28.491136205056716 kcal/mol)

>  <smiles>  (75) 
COCCSc1ccc2cc[nH]c(=O)c2c1

>  <score_type>  (75) 
oracle

>  <origin>  (75) 
adg

>  <m_score__min__energy>  (75) 
-6.7000000000000002

>  <m_primary>  (75) 
energy

$$$$
75:0
     RDKit          3D

 29 30  0  0  0  0  0  0  0  0999 V2000
   57.9960   29.5200   45.7110 O   0  0  0  0  0  0  0  0  0  0  0  0
   56.8460   29.4180   45.2030 C   0  0  0  0  0  0  0  0  0  0  0  0
   56.2590   30.5280   44.5160 N   0  0  0  0  0  0  0  0  0  0  0  0
   57.0290   31.4970   43.7450 C   0  0  0  0  0  0  0  0  0  0  0  0
   57.6650   32.5040   44.6570 C   0  0  0  0  0  0  0  0  0  0  0  0
   58.5120   33.4970   44.1430 C   0  0  0  0  0  0  0  0  0  0  0  0
   59.0720   34.4350   45.0120 C   0  0  0  0  0  0  0  0  0  0  0  0
   58.7820   34.3780   46.3760 C   0  0  0  0  0  0  0  0  0  0  0  0
   57.9300   33.3800   46.8520 C   0  0  0  0  0  0  0  0  0  0  0  0
   57.3940   32.4740   45.9910 N   0  0  0  0  0  0  0  0  0  0  0  0
   56.1170   28.1910   45.3060 N   0  0  0  0  0  0  0  0  0  0  0  0
   56.6710   27.0300   46.0010 C   0  0  0  0  0  0  0  0  0  0  0  0
   55.7410   25.8620   45.8970 C   0  0  0  0  0  0  0  0  0  0  0  0
   56.1030   24.5320   45.9740 C   0  0  0  0  0  0  0  0  0  0  0  0
   54.9370   23.8200   45.7950 C   0  0  0  0  0  0  0  0  0  0  0  0
   53.9390   24.7590   45.6150 C   0  0  0  0  0  0  0  0  0  0  0  0
   54.4510   25.9660   45.6780 O   0  0  0  0  0  0  0  0  0  0  0  0
   57.8141   30.9708   43.1823 H   0  0  0  0  0  0  0  0  0  0  0  0
   56.3532   32.0197   43.0521 H   0  0  0  0  0  0  0  0  0  0  0  0
   58.7327   33.5361   43.0661 H   0  0  0  0  0  0  0  0  0  0  0  0
   59.7402   35.2172   44.6227 H   0  0  0  0  0  0  0  0  0  0  0  0
   59.2202   35.1117   47.0686 H   0  0  0  0  0  0  0  0  0  0  0  0
   57.6919   33.3263   47.9246 H   0  0  0  0  0  0  0  0  0  0  0  0
   55.1680   28.1400   44.8690 H   0  0  0  0  0  0  0  0  0  0  0  0
   57.6375   26.7643   45.5478 H   0  0  0  0  0  0  0  0  0  0  0  0
   56.8061   27.2829   47.0630 H   0  0  0  0  0  0  0  0  0  0  0  0
   57.1112   24.1257   46.1429 H   0  0  0  0  0  0  0  0  0  0  0  0
   54.8235   22.7259   45.7953 H   0  0  0  0  0  0  0  0  0  0  0  0
   52.8767   24.5297   45.4448 H   0  0  0  0  0  0  0  0  0  0  0  0
  1  2  2  0
  2  3  1  0
  3  4  1  0
  4  5  1  0
  5  6  2  0
  6  7  1  0
  7  8  2  0
  8  9  1  0
  9 10  2  0
  2 11  1  0
 11 12  1  0
 12 13  1  0
 13 14  2  0
 14 15  1  0
 15 16  2  0
 16 17  1  0
 10  5  1  0
 17 13  1  0
  4 18  1  0
  4 19  1  0
  6 20  1  0
  7 21  1  0
  8 22  1  0
  9 23  1  0
 11 24  1  0
 12 25  1  0
 12 26  1  0
 14 27  1  0
 15 28  1  0
 16 29  1  0
M  CHG  1   3  -1
M  END
>  <UniqueID>  (76) 
72

>  <SMILES>  (76) 
O=C([N-]Cc1ccccn1)NCc1ccco1

>  <Energy>  (76) 
49.81549193558498

>  <Genealogy>  (76) 
O=C([N-]Cc1ccccn1)NCc1ccco1 (protonated)
O=C([N-]Cc1ccccn1)NCc1ccco1 (3D coordinates assigned)
O=C([N-]Cc1ccccn1)NCc1ccco1 (optimized conformer: 49.81549193558498 kcal/mol)

>  <smiles>  (76) 
O=C(NCc1ccccn1)NCc1ccco1

>  <score_type>  (76) 
oracle

>  <origin>  (76) 
adg

>  <m_score__min__energy>  (76) 
-8.8100000000000005

>  <m_primary>  (76) 
energy

$$$$
76:0
     RDKit          3D

 37 38  0  0  0  0  0  0  0  0999 V2000
   61.0740   34.1770   48.1400 C   0  0  0  0  0  0  0  0  0  0  0  0
   59.6330   34.6340   47.9340 C   0  0  0  0  0  0  0  0  0  0  0  0
   59.0000   33.9010   46.7820 C   0  0  0  0  0  0  0  0  0  0  0  0
   59.0960   34.4110   45.4790 C   0  0  0  0  0  0  0  0  0  0  0  0
   58.5330   33.7140   44.4060 C   0  0  0  0  0  0  0  0  0  0  0  0
   57.8690   32.4950   44.6140 C   0  0  0  0  0  0  0  0  0  0  0  0
   57.2910   31.8090   43.4860 N   0  0  0  0  0  0  0  0  0  0  0  0
   56.7190   30.4630   43.5420 C   0  0  0  0  0  0  0  0  0  0  0  0
   57.7030   29.4970   44.1330 C   0  0  0  0  0  0  0  0  0  0  0  0
   58.9360   29.7410   44.0460 O   0  0  0  0  0  0  0  0  0  0  0  0
   57.2410   28.2850   44.7450 N   0  0  0  0  0  0  0  0  0  0  0  0
   58.0550   27.4890   45.6210 C   0  0  0  0  0  0  0  0  0  0  0  0
   59.6920   27.7570   45.9170 S   0  0  0  0  0  0  0  0  0  0  0  0
   59.8570   26.5950   47.1170 C   0  0  0  0  0  0  0  0  0  0  0  0
   58.6230   25.9870   47.3130 C   0  0  0  0  0  0  0  0  0  0  0  0
   57.6010   26.4820   46.4810 C   0  0  0  0  0  0  0  0  0  0  0  0
   56.2260   25.9400   46.5150 C   0  0  0  0  0  0  0  0  0  0  0  0
   55.1440   26.7070   45.9910 N   0  0  0  0  0  0  0  0  0  0  0  0
   55.9900   24.8140   47.0260 O   0  0  0  0  0  0  0  0  0  0  0  0
   57.7920   31.9760   45.9210 C   0  0  0  0  0  0  0  0  0  0  0  0
   58.3550   32.6740   46.9940 C   0  0  0  0  0  0  0  0  0  0  0  0
   61.2868   34.1095   49.2171 H   0  0  0  0  0  0  0  0  0  0  0  0
   61.2155   33.1899   47.6757 H   0  0  0  0  0  0  0  0  0  0  0  0
   61.7586   34.9021   47.6757 H   0  0  0  0  0  0  0  0  0  0  0  0
   59.0567   34.4338   48.8493 H   0  0  0  0  0  0  0  0  0  0  0  0
   59.6330   35.7109   47.7097 H   0  0  0  0  0  0  0  0  0  0  0  0
   59.6165   35.3635   45.3007 H   0  0  0  0  0  0  0  0  0  0  0  0
   58.6111   34.1249   43.3886 H   0  0  0  0  0  0  0  0  0  0  0  0
   57.2400   32.3100   42.5700 H   0  0  0  0  0  0  0  0  0  0  0  0
   55.8117   30.4810   44.1637 H   0  0  0  0  0  0  0  0  0  0  0  0
   56.4727   30.1388   42.5201 H   0  0  0  0  0  0  0  0  0  0  0  0
   56.2420   28.0170   44.6050 H   0  0  0  0  0  0  0  0  0  0  0  0
   60.7850   26.3554   47.6569 H   0  0  0  0  0  0  0  0  0  0  0  0
   58.4592   25.1895   48.0528 H   0  0  0  0  0  0  0  0  0  0  0  0
   55.1870   27.1060   45.0270 H   0  0  0  0  0  0  0  0  0  0  0  0
   57.2859   31.0157   46.0989 H   0  0  0  0  0  0  0  0  0  0  0  0
   58.2915   32.2581   48.0104 H   0  0  0  0  0  0  0  0  0  0  0  0
  1  2  1  0
  2  3  1  0
  3  4  2  0
  4  5  1  0
  5  6  2  0
  6  7  1  0
  7  8  1  0
  8  9  1  0
  9 10  2  0
  9 11  1  0
 11 12  1  0
 12 13  1  0
 13 14  1  0
 14 15  2  0
 15 16  1  0
 16 17  1  0
 17 18  1  0
 17 19  2  0
  6 20  1  0
 20 21  2  0
 21  3  1  0
 16 12  2  0
  1 22  1  0
  1 23  1  0
  1 24  1  0
  2 25  1  0
  2 26  1  0
  4 27  1  0
  5 28  1  0
  7 29  1  0
  8 30  1  0
  8 31  1  0
 11 32  1  0
 14 33  1  0
 15 34  1  0
 18 35  1  0
 20 36  1  0
 21 37  1  0
M  CHG  1  18  -1
M  END
>  <UniqueID>  (77) 
73

>  <SMILES>  (77) 
CCc1ccc(NCC(=O)Nc2sccc2C([NH-])=O)cc1

>  <Energy>  (77) 
61.06849473710001

>  <Genealogy>  (77) 
CCc1ccc(NCC(=O)Nc2sccc2C([NH-])=O)cc1 (protonated)
CCc1ccc(NCC(=O)Nc2sccc2C([NH-])=O)cc1 (3D coordinates assigned)
CCc1ccc(NCC(=O)Nc2sccc2C([NH-])=O)cc1 (optimized conformer: 61.06849473710001 kcal/mol)

>  <smiles>  (77) 
CCc1ccc(NCC(=O)Nc2sccc2C(N)=O)cc1

>  <score_type>  (77) 
oracle

>  <origin>  (77) 
adg

>  <m_score__min__energy>  (77) 
-10.68

>  <m_primary>  (77) 
energy

$$$$
77:0
     RDKit          3D

 49 50  0  0  0  0  0  0  0  0999 V2000
   59.8894   29.2621   47.6829 H   0  0  0  0  0  0  0  0  0  0  0  0
   59.4370   30.0290   47.0370 C   0  0  0  0  0  0  0  0  0  0  0  0
   58.1560   30.0360   46.8300 N   0  0  0  0  0  0  0  0  0  0  0  0
   57.5170   29.5490   45.6400 C   0  0  0  0  0  0  0  0  0  0  0  0
   56.9640   30.3820   44.8730 O   0  0  0  0  0  0  0  0  0  0  0  0
   57.5010   28.1140   45.2720 C   0  0  0  0  0  0  0  0  0  0  0  0
   58.0350   27.7000   44.0450 C   0  0  0  0  0  0  0  0  0  0  0  0
   58.4609   28.4437   43.3554 H   0  0  0  0  0  0  0  0  0  0  0  0
   58.0300   26.3500   43.6920 C   0  0  0  0  0  0  0  0  0  0  0  0
   58.4418   26.0393   42.7205 H   0  0  0  0  0  0  0  0  0  0  0  0
   57.5050   25.3860   44.5640 C   0  0  0  0  0  0  0  0  0  0  0  0
   57.4460   24.0180   44.1340 N   0  0  0  0  0  0  0  0  0  0  0  0
   56.5130   23.6600   43.0570 C   0  0  0  0  0  0  0  0  0  0  0  0
   55.4829   23.8152   43.4103 H   0  0  0  0  0  0  0  0  0  0  0  0
   56.7291   24.2977   42.1872 H   0  0  0  0  0  0  0  0  0  0  0  0
   56.6790   22.1960   42.6330 C   0  0  0  0  0  0  0  0  0  0  0  0
   55.8159   21.8948   42.0211 H   0  0  0  0  0  0  0  0  0  0  0  0
   57.6064   22.0940   42.0503 H   0  0  0  0  0  0  0  0  0  0  0  0
   56.7630   21.2940   43.8680 C   0  0  0  0  0  0  0  0  0  0  0  0
   55.8141   21.3648   44.4198 H   0  0  0  0  0  0  0  0  0  0  0  0
   56.9561   20.2696   43.5168 H   0  0  0  0  0  0  0  0  0  0  0  0
   57.9160   21.6840   44.8180 C   0  0  0  0  0  0  0  0  0  0  0  0
   57.5379   21.6584   45.8507 H   0  0  0  0  0  0  0  0  0  0  0  0
   58.7283   20.9619   44.6483 H   0  0  0  0  0  0  0  0  0  0  0  0
   58.4980   23.0840   44.5490 C   0  0  0  0  0  0  0  0  0  0  0  0
   58.9711   23.4599   45.4682 H   0  0  0  0  0  0  0  0  0  0  0  0
   59.2385   23.0068   43.7392 H   0  0  0  0  0  0  0  0  0  0  0  0
   57.0040   25.7830   45.8260 C   0  0  0  0  0  0  0  0  0  0  0  0
   56.5210   24.8200   46.7820 N   0  0  0  0  0  0  0  0  0  0  0  0
   55.3330   24.4400   46.7630 O   0  0  0  0  0  0  0  0  0  0  0  0
   57.3980   24.2060   47.6470 O   0  0  0  0  0  0  0  0  0  0  0  0
   57.0040   27.1470   46.1630 C   0  0  0  0  0  0  0  0  0  0  0  0
   56.6088   27.4632   47.1396 H   0  0  0  0  0  0  0  0  0  0  0  0
   60.2960   31.0730   46.3900 C   0  0  0  0  0  0  0  0  0  0  0  0
   60.3500   30.8648   45.3112 H   0  0  0  0  0  0  0  0  0  0  0  0
   61.2875   31.0270   46.8642 H   0  0  0  0  0  0  0  0  0  0  0  0
   59.7500   32.5050   46.5900 C   0  0  0  0  0  0  0  0  0  0  0  0
   60.4921   33.2193   46.2040 H   0  0  0  0  0  0  0  0  0  0  0  0
   59.5693   32.6388   47.6668 H   0  0  0  0  0  0  0  0  0  0  0  0
   58.4620   32.7410   45.8940 N   0  0  0  0  0  0  0  0  0  0  0  0
   58.0420   31.8210   45.6190 H   0  0  0  0  0  0  0  0  0  0  0  0
   58.6970   33.5100   44.6580 C   0  0  0  0  0  0  0  0  0  0  0  0
   59.0095   34.5326   44.9162 H   0  0  0  0  0  0  0  0  0  0  0  0
   59.4873   33.0231   44.0679 H   0  0  0  0  0  0  0  0  0  0  0  0
   57.7695   33.5480   44.0679 H   0  0  0  0  0  0  0  0  0  0  0  0
   57.4970   33.4630   46.7460 C   0  0  0  0  0  0  0  0  0  0  0  0
   57.7366   33.2837   47.8045 H   0  0  0  0  0  0  0  0  0  0  0  0
   57.5556   34.5408   46.5342 H   0  0  0  0  0  0  0  0  0  0  0  0
   56.4795   33.1025   46.5342 H   0  0  0  0  0  0  0  0  0  0  0  0
  1  2  1  0
  2  3  2  0
  3  4  1  0
  4  5  2  0
  4  6  1  0
  6  7  2  0
  7  8  1  0
  7  9  1  0
  9 10  1  0
  9 11  2  0
 11 12  1  0
 12 13  1  0
 13 14  1  0
 13 15  1  0
 13 16  1  0
 16 17  1  0
 16 18  1  0
 16 19  1  0
 19 20  1  0
 19 21  1  0
 19 22  1  0
 22 23  1  0
 22 24  1  0
 22 25  1  0
 25 26  1  0
 25 27  1  0
 11 28  1  0
 28 29  1  0
 29 30  2  0
 29 31  1  0
 28 32  2  0
 32 33  1  0
  2 34  1  0
 34 35  1  0
 34 36  1  0
 34 37  1  0
 37 38  1  0
 37 39  1  0
 37 40  1  0
 40 41  1  0
 40 42  1  0
 42 43  1  0
 42 44  1  0
 42 45  1  0
 40 46  1  0
 46 47  1  0
 46 48  1  0
 46 49  1  0
 32  6  1  0
 25 12  1  0
M  CHG  3  29   1  31  -1  40   1
M  END
>  <UniqueID>  (78) 
74

>  <SMILES>  (78) 
C[NH+](C)CC/C=N/C(=O)c1ccc(N2CCCCC2)c([N+](=O)[O-])c1

>  <Energy>  (78) 
60.803118081558

>  <Genealogy>  (78) 
C[NH+](C)CCC=NC(=O)c1ccc(N2CCCCC2)c([N+](=O)[O-])c1 (protonated)
C[NH+](C)CC/C=N/C(=O)c1ccc(N2CCCCC2)c([N+](=O)[O-])c1 (cis-trans isomerization)
C[NH+](C)CC/C=N/C(=O)c1ccc(N2CCCCC2)c([N+](=O)[O-])c1 (3D coordinates assigned)
C[NH+](C)CC/C=N/C(=O)c1ccc(N2CCCCC2)c([N+](=O)[O-])c1 (nonaromatic ring conformer: 60.803118081558 kcal/mol)

>  <smiles>  (78) 
CN(C)CCC=NC(=O)c1ccc(N2CCCCC2)c([N+](=O)[O-])c1

>  <score_type>  (78) 
oracle

>  <origin>  (78) 
adg

>  <m_score__min__energy>  (78) 
-6.7400000000000002

>  <m_primary>  (78) 
energy

$$$$
78:0
     RDKit          3D

 31 33  0  0  0  0  0  0  0  0999 V2000
   58.8590   32.8280   47.6820 C   0  0  0  0  0  0  0  0  0  0  0  0
   58.7230   33.3050   46.2650 C   0  0  0  0  0  0  0  0  0  0  0  0
   58.2250   32.5780   45.1950 C   0  0  0  0  0  0  0  0  0  0  0  0
   57.7190   31.1930   45.1840 C   0  0  0  0  0  0  0  0  0  0  0  0
   56.4720   30.8450   44.8080 N   0  0  0  0  0  0  0  0  0  0  0  0
   56.4250   29.5520   44.9390 O   0  0  0  0  0  0  0  0  0  0  0  0
   57.5790   29.0970   45.3740 C   0  0  0  0  0  0  0  0  0  0  0  0
   57.8680   27.6650   45.6320 C   0  0  0  0  0  0  0  0  0  0  0  0
   59.1940   27.2060   45.7640 C   0  0  0  0  0  0  0  0  0  0  0  0
   59.4570   25.8550   46.0080 C   0  0  0  0  0  0  0  0  0  0  0  0
   58.4050   24.9440   46.1220 C   0  0  0  0  0  0  0  0  0  0  0  0
   57.0870   25.3830   45.9920 C   0  0  0  0  0  0  0  0  0  0  0  0
   56.8140   26.7340   45.7490 C   0  0  0  0  0  0  0  0  0  0  0  0
   55.5190   27.1240   45.6300 F   0  0  0  0  0  0  0  0  0  0  0  0
   58.4440   30.1170   45.5470 N   0  0  0  0  0  0  0  0  0  0  0  0
   58.3020   33.4380   44.1150 C   0  0  0  0  0  0  0  0  0  0  0  0
   58.8180   34.6160   44.5150 N   0  0  0  0  0  0  0  0  0  0  0  0
   59.0710   34.5300   45.8130 N   0  0  0  0  0  0  0  0  0  0  0  0
   59.6390   35.6250   46.5910 C   0  0  0  0  0  0  0  0  0  0  0  0
   58.6238   33.6528   48.3707 H   0  0  0  0  0  0  0  0  0  0  0  0
   58.1627   31.9946   47.8568 H   0  0  0  0  0  0  0  0  0  0  0  0
   59.8901   32.4871   47.8568 H   0  0  0  0  0  0  0  0  0  0  0  0
   60.0288   27.9167   45.6743 H   0  0  0  0  0  0  0  0  0  0  0  0
   60.4959   25.5085   46.1105 H   0  0  0  0  0  0  0  0  0  0  0  0
   58.6151   23.8815   46.3141 H   0  0  0  0  0  0  0  0  0  0  0  0
   56.2590   24.6643   46.0809 H   0  0  0  0  0  0  0  0  0  0  0  0
   59.4320   30.0960   45.8770 H   0  0  0  0  0  0  0  0  0  0  0  0
   57.9901   33.1973   43.0880 H   0  0  0  0  0  0  0  0  0  0  0  0
   59.5271   35.4092   47.6638 H   0  0  0  0  0  0  0  0  0  0  0  0
   60.7064   35.7323   46.3480 H   0  0  0  0  0  0  0  0  0  0  0  0
   59.1119   36.5594   46.3480 H   0  0  0  0  0  0  0  0  0  0  0  0
  1  2  1  0
  2  3  2  0
  3  4  1  0
  4  5  2  0
  5  6  1  0
  6  7  1  0
  7  8  1  0
  8  9  2  0
  9 10  1  0
 10 11  2  0
 11 12  1  0
 12 13  2  0
 13 14  1  0
  7 15  2  0
  3 16  1  0
 16 17  2  0
 17 18  1  0
 18 19  1  0
 18  2  1  0
 15  4  1  0
 13  8  1  0
  1 20  1  0
  1 21  1  0
  1 22  1  0
  9 23  1  0
 10 24  1  0
 11 25  1  0
 12 26  1  0
 15 27  1  0
 16 28  1  0
 19 29  1  0
 19 30  1  0
 19 31  1  0
M  CHG  1  15   1
M  END
>  <UniqueID>  (79) 
75

>  <SMILES>  (79) 
Cc1c(-c2noc(-c3ccccc3F)[nH+]2)cnn1C

>  <Energy>  (79) 
99.35768254814654

>  <Genealogy>  (79) 
Cc1c(-c2noc(-c3ccccc3F)[nH+]2)cnn1C (protonated)
Cc1c(-c2noc(-c3ccccc3F)[nH+]2)cnn1C (3D coordinates assigned)
Cc1c(-c2noc(-c3ccccc3F)[nH+]2)cnn1C (optimized conformer: 99.35768254814654 kcal/mol)

>  <smiles>  (79) 
Cc1c(-c2noc(-c3ccccc3F)n2)cnn1C

>  <score_type>  (79) 
oracle

>  <origin>  (79) 
adg

>  <m_score__min__energy>  (79) 
-5.5099999999999998

>  <m_primary>  (79) 
energy

$$$$
79:0
     RDKit          3D

 32 33  0  0  0  0  0  0  0  0999 V2000
   61.4490   34.2980   49.0070 C   0  0  0  0  0  0  0  0  0  0  0  0
   60.4500   34.8910   48.1840 O   0  0  0  0  0  0  0  0  0  0  0  0
   59.5280   34.1690   47.4120 C   0  0  0  0  0  0  0  0  0  0  0  0
   59.0900   32.9280   47.8850 C   0  0  0  0  0  0  0  0  0  0  0  0
   58.1710   32.1700   47.1540 C   0  0  0  0  0  0  0  0  0  0  0  0
   57.6720   32.6500   45.9300 C   0  0  0  0  0  0  0  0  0  0  0  0
   56.7220   31.9130   45.1490 N   0  0  0  0  0  0  0  0  0  0  0  0
   57.1210   30.7250   43.9510 S   0  0  0  0  0  0  0  0  0  0  0  0
   55.9180   30.4710   43.0900 O   0  0  0  0  0  0  0  0  0  0  0  0
   58.2370   31.2500   43.0920 O   0  0  0  0  0  0  0  0  0  0  0  0
   57.5930   29.2160   44.7290 C   0  0  0  0  0  0  0  0  0  0  0  0
   58.9490   28.8910   44.8580 C   0  0  0  0  0  0  0  0  0  0  0  0
   59.3280   27.6930   45.4640 C   0  0  0  0  0  0  0  0  0  0  0  0
   58.3570   26.8140   45.9520 C   0  0  0  0  0  0  0  0  0  0  0  0
   56.9920   27.1280   45.8360 C   0  0  0  0  0  0  0  0  0  0  0  0
   55.9660   26.1960   46.3540 C   0  0  0  0  0  0  0  0  0  0  0  0
   56.2840   25.2640   47.1390 O   0  0  0  0  0  0  0  0  0  0  0  0
   54.6330   26.3380   45.9820 O   0  0  0  0  0  0  0  0  0  0  0  0
   56.6180   28.3380   45.2230 C   0  0  0  0  0  0  0  0  0  0  0  0
   58.1110   33.8910   45.4540 C   0  0  0  0  0  0  0  0  0  0  0  0
   59.0310   34.6490   46.1850 C   0  0  0  0  0  0  0  0  0  0  0  0
   61.1908   34.4513   50.0652 H   0  0  0  0  0  0  0  0  0  0  0  0
   61.5056   33.2199   48.7958 H   0  0  0  0  0  0  0  0  0  0  0  0
   62.4225   34.7646   48.7958 H   0  0  0  0  0  0  0  0  0  0  0  0
   59.4727   32.5444   48.8423 H   0  0  0  0  0  0  0  0  0  0  0  0
   57.8369   31.1946   47.5374 H   0  0  0  0  0  0  0  0  0  0  0  0
   59.7172   29.5820   44.4806 H   0  0  0  0  0  0  0  0  0  0  0  0
   60.3942   27.4394   45.5581 H   0  0  0  0  0  0  0  0  0  0  0  0
   58.6628   25.8714   46.4294 H   0  0  0  0  0  0  0  0  0  0  0  0
   55.5529   28.5970   45.1307 H   0  0  0  0  0  0  0  0  0  0  0  0
   57.7287   34.2735   44.4961 H   0  0  0  0  0  0  0  0  0  0  0  0
   59.3675   35.6231   45.8004 H   0  0  0  0  0  0  0  0  0  0  0  0
  1  2  1  0
  2  3  1  0
  3  4  2  0
  4  5  1  0
  5  6  2  0
  6  7  1  0
  7  8  1  0
  8  9  2  0
  8 10  2  0
  8 11  1  0
 11 12  2  0
 12 13  1  0
 13 14  2  0
 14 15  1  0
 15 16  1  0
 16 17  2  0
 16 18  1  0
 15 19  2  0
  6 20  1  0
 20 21  2  0
 21  3  1  0
 19 11  1  0
  1 22  1  0
  1 23  1  0
  1 24  1  0
  4 25  1  0
  5 26  1  0
 12 27  1  0
 13 28  1  0
 14 29  1  0
 19 30  1  0
 20 31  1  0
 21 32  1  0
M  CHG  2   7  -1  18  -1
M  END
>  <UniqueID>  (80) 
76

>  <SMILES>  (80) 
COc1ccc([N-]S(=O)(=O)c2cccc(C(=O)[O-])c2)cc1

>  <Energy>  (80) 
35.62370412422119

>  <Genealogy>  (80) 
COc1ccc([N-]S(=O)(=O)c2cccc(C(=O)[O-])c2)cc1 (protonated)
COc1ccc([N-]S(=O)(=O)c2cccc(C(=O)[O-])c2)cc1 (3D coordinates assigned)
COc1ccc([N-]S(=O)(=O)c2cccc(C(=O)[O-])c2)cc1 (optimized conformer: 35.62370412422119 kcal/mol)

>  <smiles>  (80) 
COc1ccc(NS(=O)(=O)c2cccc(C(=O)O)c2)cc1

>  <score_type>  (80) 
oracle

>  <origin>  (80) 
adg

>  <m_score__min__energy>  (80) 
-11.380000000000001

>  <m_primary>  (80) 
energy

$$$$
80:0
     RDKit          3D

 29 29  0  0  0  0  0  0  0  0999 V2000
   57.7650   30.7880   46.4880 O   0  0  0  0  0  0  0  0  0  0  0  0
   57.6400   31.7980   45.7410 C   0  0  0  0  0  0  0  0  0  0  0  0
   56.8450   31.7330   44.5910 O   0  0  0  0  0  0  0  0  0  0  0  0
   57.2450   31.0930   43.3780 C   0  0  0  0  0  0  0  0  0  0  0  0
   56.5760   29.7130   43.2120 C   0  0  0  0  0  0  0  0  0  0  0  0
   55.1460   29.7140   43.7900 C   0  0  0  0  0  0  0  0  0  0  0  0
   55.1700   29.4770   45.1720 O   0  0  0  0  0  0  0  0  0  0  0  0
   57.4400   28.5730   43.7860 C   0  0  0  0  0  0  0  0  0  0  0  0
   57.5460   28.6720   45.1800 O   0  0  0  0  0  0  0  0  0  0  0  0
   58.3310   33.0610   46.0840 C   0  0  0  0  0  0  0  0  0  0  0  0
   58.6850   33.9820   45.0810 C   0  0  0  0  0  0  0  0  0  0  0  0
   59.3410   35.1720   45.4130 C   0  0  0  0  0  0  0  0  0  0  0  0
   59.6490   35.4540   46.7460 C   0  0  0  0  0  0  0  0  0  0  0  0
   59.3040   34.5460   47.7500 C   0  0  0  0  0  0  0  0  0  0  0  0
   58.6480   33.3550   47.4230 C   0  0  0  0  0  0  0  0  0  0  0  0
   56.9611   31.7311   42.5281 H   0  0  0  0  0  0  0  0  0  0  0  0
   58.3342   30.9434   43.4129 H   0  0  0  0  0  0  0  0  0  0  0  0
   56.4913   29.5166   42.1330 H   0  0  0  0  0  0  0  0  0  0  0  0
   54.6801   30.6921   43.5994 H   0  0  0  0  0  0  0  0  0  0  0  0
   54.5674   28.9146   43.3040 H   0  0  0  0  0  0  0  0  0  0  0  0
   55.8870   30.0480   45.5510 H   0  0  0  0  0  0  0  0  0  0  0  0
   56.9786   27.6082   43.5286 H   0  0  0  0  0  0  0  0  0  0  0  0
   58.4485   28.6475   43.3531 H   0  0  0  0  0  0  0  0  0  0  0  0
   57.3130   29.6080   45.4100 H   0  0  0  0  0  0  0  0  0  0  0  0
   58.4445   33.7650   44.0298 H   0  0  0  0  0  0  0  0  0  0  0  0
   59.6148   35.8869   44.6231 H   0  0  0  0  0  0  0  0  0  0  0  0
   60.1633   36.3912   47.0052 H   0  0  0  0  0  0  0  0  0  0  0  0
   59.5487   34.7681   48.7992 H   0  0  0  0  0  0  0  0  0  0  0  0
   58.3782   32.6437   48.2175 H   0  0  0  0  0  0  0  0  0  0  0  0
  1  2  2  0
  2  3  1  0
  3  4  1  0
  4  5  1  0
  5  6  1  0
  6  7  1  0
  5  8  1  0
  8  9  1  0
  2 10  1  0
 10 11  2  0
 11 12  1  0
 12 13  2  0
 13 14  1  0
 14 15  2  0
 15 10  1  0
  4 16  1  0
  4 17  1  0
  5 18  1  0
  6 19  1  0
  6 20  1  0
  7 21  1  0
  8 22  1  0
  8 23  1  0
  9 24  1  0
 11 25  1  0
 12 26  1  0
 13 27  1  0
 14 28  1  0
 15 29  1  0
M  END
>  <UniqueID>  (81) 
77

>  <SMILES>  (81) 
O=C(OCC(CO)CO)c1ccccc1

>  <Energy>  (81) 
23.88520165241279

>  <Genealogy>  (81) 
O=C(OCC(CO)CO)c1ccccc1 (3D coordinates assigned)
O=C(OCC(CO)CO)c1ccccc1 (optimized conformer: 23.88520165241279 kcal/mol)

>  <smiles>  (81) 
O=C(OCC(CO)CO)c1ccccc1

>  <score_type>  (81) 
oracle

>  <origin>  (81) 
adg

>  <m_score__min__energy>  (81) 
-5.75

>  <m_primary>  (81) 
energy

$$$$
81:0
     RDKit          3D

 51 55  0  0  1  0  0  0  0  0999 V2000
   55.6030   29.7200   43.7100 C   0  0  0  0  0  0  0  0  0  0  0  0
   56.1770   30.3420   44.8150 O   0  0  0  0  0  0  0  0  0  0  0  0
   57.4850   30.6870   44.4710 C   0  0  1  0  0  0  0  0  0  0  0  0
   57.5690   31.0620   42.9920 C   0  0  0  0  0  0  0  0  0  0  0  0
   57.3730   32.4610   42.9970 O   0  0  0  0  0  0  0  0  0  0  0  0
   58.3010   32.8360   43.9540 C   0  0  1  0  0  0  0  0  0  0  0  0
   58.0830   34.2210   44.4970 C   0  0  2  0  0  0  0  0  0  0  0  0
   59.4560   34.7350   44.9540 C   0  0  0  0  0  0  0  0  0  0  0  0
   59.2730   35.0720   46.3160 O   0  0  0  0  0  0  0  0  0  0  0  0
   59.9620   34.3670   47.3040 C   0  0  0  0  0  0  0  0  0  0  0  0
   59.3470   34.0010   48.4810 C   0  0  0  0  0  0  0  0  0  0  0  0
   60.0330   33.2920   49.4850 C   0  0  0  0  0  0  0  0  0  0  0  0
   59.2770   32.9640   50.6560 C   0  0  0  0  0  0  0  0  0  0  0  0
   58.9810   33.7810   51.7160 C   0  0  0  0  0  0  0  0  0  0  0  0
   58.1370   33.3840   52.7610 C   0  0  0  0  0  0  0  0  0  0  0  0
   57.5730   32.1300   52.7360 C   0  0  0  0  0  0  0  0  0  0  0  0
   57.8760   31.3240   51.6680 C   0  0  0  0  0  0  0  0  0  0  0  0
   58.6870   31.7280   50.6810 N   0  0  0  0  0  0  0  0  0  0  0  0
   61.3320   32.9880   49.2110 C   0  0  0  0  0  0  0  0  0  0  0  0
   62.0840   32.2550   50.0930 C   0  0  0  0  0  0  0  0  0  0  0  0
   61.6100   31.7980   51.1830 N   0  0  0  0  0  0  0  0  0  0  0  0
   63.3450   31.9500   49.7670 N   0  0  0  0  0  0  0  0  0  0  0  0
   63.9460   32.3110   48.6230 C   0  0  0  0  0  0  0  0  0  0  0  0
   63.2280   33.0270   47.7420 N   0  0  0  0  0  0  0  0  0  0  0  0
   61.9550   33.3560   48.0240 C   0  0  0  0  0  0  0  0  0  0  0  0
   61.2780   34.0620   47.0330 C   0  0  0  0  0  0  0  0  0  0  0  0
   57.2330   34.0020   45.7040 C   0  0  0  0  0  0  0  0  0  0  0  0
   56.8750   32.6580   45.7210 O   0  0  0  0  0  0  0  0  0  0  0  0
   57.9300   31.9640   45.1340 C   0  0  1  0  0  0  0  0  0  0  0  0
   54.8934   28.9511   44.0495 H   0  0  0  0  0  0  0  0  0  0  0  0
   55.0709   30.4678   43.1036 H   0  0  0  0  0  0  0  0  0  0  0  0
   56.3910   29.2496   43.1036 H   0  0  0  0  0  0  0  0  0  0  0  0
   58.0896   29.8150   44.7608 H   0  0  0  0  0  0  0  0  0  0  0  0
   58.5541   30.8041   42.5759 H   0  0  0  0  0  0  0  0  0  0  0  0
   56.8346   30.5278   42.3713 H   0  0  0  0  0  0  0  0  0  0  0  0
   59.3116   32.7653   43.5253 H   0  0  0  0  0  0  0  0  0  0  0  0
   57.6323   34.9248   43.7817 H   0  0  0  0  0  0  0  0  0  0  0  0
   60.2200   33.9509   44.8468 H   0  0  0  0  0  0  0  0  0  0  0  0
   59.8032   35.5896   44.3548 H   0  0  0  0  0  0  0  0  0  0  0  0
   58.2923   34.2698   48.6404 H   0  0  0  0  0  0  0  0  0  0  0  0
   59.4235   34.7876   51.7472 H   0  0  0  0  0  0  0  0  0  0  0  0
   57.9270   34.0698   53.5950 H   0  0  0  0  0  0  0  0  0  0  0  0
   56.9056   31.7869   53.5402 H   0  0  0  0  0  0  0  0  0  0  0  0
   57.4398   30.3153   51.6205 H   0  0  0  0  0  0  0  0  0  0  0  0
   60.7300   31.2620   51.1940 H   0  0  0  0  0  0  0  0  0  0  0  0
   63.9230   31.3820   50.4550 H   0  0  0  0  0  0  0  0  0  0  0  0
   64.9890   32.0308   48.4141 H   0  0  0  0  0  0  0  0  0  0  0  0
   61.7640   34.3580   46.0916 H   0  0  0  0  0  0  0  0  0  0  0  0
   57.7993   34.2520   46.6133 H   0  0  0  0  0  0  0  0  0  0  0  0
   56.3391   34.6422   45.6715 H   0  0  0  0  0  0  0  0  0  0  0  0
   58.6973   31.7487   45.8922 H   0  0  0  0  0  0  0  0  0  0  0  0
  1  2  1  0
  2  3  1  0
  3  4  1  0
  4  5  1  0
  5  6  1  0
  6  7  1  0
  7  8  1  0
  8  9  1  0
  9 10  1  0
 10 11  2  0
 11 12  1  0
 12 13  1  0
 13 14  2  0
 14 15  1  0
 15 16  2  0
 16 17  1  0
 17 18  2  0
 12 19  2  0
 19 20  1  0
 20 21  2  3
 20 22  1  0
 22 23  1  0
 23 24  2  0
 24 25  1  0
 25 26  2  0
  7 27  1  0
 27 28  1  0
 28 29  1  0
 29  3  1  0
 29  6  1  0
 26 10  1  0
 18 13  1  0
 25 19  1  0
  1 30  1  0
  1 31  1  0
  1 32  1  0
  3 33  1  6
  4 34  1  0
  4 35  1  0
  6 36  1  6
  7 37  1  6
  8 38  1  0
  8 39  1  0
 11 40  1  0
 14 41  1  0
 15 42  1  0
 16 43  1  0
 17 44  1  0
 21 45  1  0
 22 46  1  0
 23 47  1  0
 26 48  1  0
 27 49  1  0
 27 50  1  0
 29 51  1  1
M  END
>  <smiles>  (82) 
COC1COC2C(COc3cc(-c4ccccn4)c4c(=N)[nH]cnc4c3)COC12

>  <score_type>  (82) 
oracle

>  <origin>  (82) 
adg

>  <m_score__min__energy>  (82) 
-8.1899999999999995

>  <m_primary>  (82) 
energy

$$$$
82:0
     RDKit          3D

 32 33  0  0  0  0  0  0  0  0999 V2000
   59.6500   26.7540   47.6430 C   0  0  0  0  0  0  0  0  0  0  0  0
   59.2370   27.4930   46.4050 C   0  0  0  0  0  0  0  0  0  0  0  0
   58.9090   26.7870   45.2390 C   0  0  0  0  0  0  0  0  0  0  0  0
   58.4600   27.4680   44.0980 C   0  0  0  0  0  0  0  0  0  0  0  0
   58.1460   26.7120   42.8420 C   0  0  0  0  0  0  0  0  0  0  0  0
   58.3650   28.8670   44.1220 C   0  0  0  0  0  0  0  0  0  0  0  0
   58.6950   29.5870   45.2790 C   0  0  0  0  0  0  0  0  0  0  0  0
   58.5490   31.0170   45.2830 N   0  0  0  0  0  0  0  0  0  0  0  0
   57.3880   31.7100   44.7970 C   0  0  0  0  0  0  0  0  0  0  0  0
   56.3310   31.0780   44.5240 O   0  0  0  0  0  0  0  0  0  0  0  0
   57.3940   33.2030   44.7000 C   0  0  0  0  0  0  0  0  0  0  0  0
   58.2640   33.7810   45.7690 C   0  0  0  0  0  0  0  0  0  0  0  0
   59.3230   34.6580   45.5710 C   0  0  0  0  0  0  0  0  0  0  0  0
   60.0050   34.9720   46.7530 C   0  0  0  0  0  0  0  0  0  0  0  0
   59.4930   34.3380   47.8780 C   0  0  0  0  0  0  0  0  0  0  0  0
   58.1940   33.3810   47.4000 S   0  0  0  0  0  0  0  0  0  0  0  0
   59.1030   28.8890   46.4290 C   0  0  0  0  0  0  0  0  0  0  0  0
   59.3333   27.3206   48.5311 H   0  0  0  0  0  0  0  0  0  0  0  0
   59.1758   25.7615   47.6530 H   0  0  0  0  0  0  0  0  0  0  0  0
   60.7438   26.6378   47.6530 H   0  0  0  0  0  0  0  0  0  0  0  0
   59.0045   25.6913   45.2189 H   0  0  0  0  0  0  0  0  0  0  0  0
   57.7359   25.7247   43.1011 H   0  0  0  0  0  0  0  0  0  0  0  0
   57.4064   27.2728   42.2517 H   0  0  0  0  0  0  0  0  0  0  0  0
   59.0653   26.5838   42.2517 H   0  0  0  0  0  0  0  0  0  0  0  0
   58.0281   29.4051   43.2237 H   0  0  0  0  0  0  0  0  0  0  0  0
   59.2900   31.5850   45.7520 H   0  0  0  0  0  0  0  0  0  0  0  0
   57.7801   33.5025   43.7145 H   0  0  0  0  0  0  0  0  0  0  0  0
   56.3676   33.5774   44.8280 H   0  0  0  0  0  0  0  0  0  0  0  0
   59.5977   35.0642   44.5864 H   0  0  0  0  0  0  0  0  0  0  0  0
   60.8654   35.6565   46.7874 H   0  0  0  0  0  0  0  0  0  0  0  0
   59.8718   34.4435   48.9053 H   0  0  0  0  0  0  0  0  0  0  0  0
   59.3189   29.4420   47.3550 H   0  0  0  0  0  0  0  0  0  0  0  0
  1  2  1  0
  2  3  2  0
  3  4  1  0
  4  5  1  0
  4  6  2  0
  6  7  1  0
  7  8  1  0
  8  9  1  0
  9 10  2  0
  9 11  1  0
 11 12  1  0
 12 13  2  0
 13 14  1  0
 14 15  2  0
 15 16  1  0
  7 17  2  0
 17  2  1  0
 16 12  1  0
  1 18  1  0
  1 19  1  0
  1 20  1  0
  3 21  1  0
  5 22  1  0
  5 23  1  0
  5 24  1  0
  6 25  1  0
  8 26  1  0
 11 27  1  0
 11 28  1  0
 13 29  1  0
 14 30  1  0
 15 31  1  0
 17 32  1  0
M  END
>  <UniqueID>  (83) 
78

>  <SMILES>  (83) 
Cc1cc(C)cc(NC(=O)Cc2cccs2)c1

>  <Energy>  (83) 
56.65331615069354

>  <Genealogy>  (83) 
Cc1cc(C)cc(NC(=O)Cc2cccs2)c1 (3D coordinates assigned)
Cc1cc(C)cc(NC(=O)Cc2cccs2)c1 (optimized conformer: 56.65331615069354 kcal/mol)

>  <smiles>  (83) 
Cc1cc(C)cc(NC(=O)Cc2cccs2)c1

>  <score_type>  (83) 
oracle

>  <origin>  (83) 
adg

>  <m_score__min__energy>  (83) 
-6.6799999999999997

>  <m_primary>  (83) 
energy

$$$$
83:0
     RDKit          3D

 23 23  0  0  0  0  0  0  0  0999 V2000
   57.1150   28.8930   45.3160 C   0  0  0  0  0  0  0  0  0  0  0  0
   56.6490   30.2170   44.8710 N   0  0  0  0  0  0  0  0  0  0  0  0
   55.5450   30.0520   43.9100 C   0  0  0  0  0  0  0  0  0  0  0  0
   57.7680   30.9660   44.2630 C   0  0  0  0  0  0  0  0  0  0  0  0
   58.0860   32.1980   45.0750 C   0  0  0  0  0  0  0  0  0  0  0  0
   58.2130   33.4390   44.4280 C   0  0  0  0  0  0  0  0  0  0  0  0
   58.5250   34.5890   45.1600 C   0  0  0  0  0  0  0  0  0  0  0  0
   58.7160   34.5080   46.5410 C   0  0  0  0  0  0  0  0  0  0  0  0
   58.5990   33.2780   47.1930 C   0  0  0  0  0  0  0  0  0  0  0  0
   58.2860   32.1230   46.4660 C   0  0  0  0  0  0  0  0  0  0  0  0
   58.1880   30.9380   47.1200 F   0  0  0  0  0  0  0  0  0  0  0  0
   57.1270   28.8590   46.4154 H   0  0  0  0  0  0  0  0  0  0  0  0
   56.4359   28.1173   44.9325 H   0  0  0  0  0  0  0  0  0  0  0  0
   58.1303   28.7137   44.9325 H   0  0  0  0  0  0  0  0  0  0  0  0
   54.6010   29.9109   44.4567 H   0  0  0  0  0  0  0  0  0  0  0  0
   55.4720   30.9492   43.2778 H   0  0  0  0  0  0  0  0  0  0  0  0
   55.7375   29.1727   43.2778 H   0  0  0  0  0  0  0  0  0  0  0  0
   58.6570   30.3193   44.2240 H   0  0  0  0  0  0  0  0  0  0  0  0
   57.4777   31.2754   43.2481 H   0  0  0  0  0  0  0  0  0  0  0  0
   58.0662   33.5062   43.3399 H   0  0  0  0  0  0  0  0  0  0  0  0
   58.6200   35.5578   44.6478 H   0  0  0  0  0  0  0  0  0  0  0  0
   58.9588   35.4137   47.1161 H   0  0  0  0  0  0  0  0  0  0  0  0
   58.7532   33.2167   48.2804 H   0  0  0  0  0  0  0  0  0  0  0  0
  1  2  1  0
  2  3  1  0
  2  4  1  0
  4  5  1  0
  5  6  2  0
  6  7  1  0
  7  8  2  0
  8  9  1  0
  9 10  2  0
 10 11  1  0
 10  5  1  0
  1 12  1  0
  1 13  1  0
  1 14  1  0
  3 15  1  0
  3 16  1  0
  3 17  1  0
  4 18  1  0
  4 19  1  0
  6 20  1  0
  7 21  1  0
  8 22  1  0
  9 23  1  0
M  END
>  <UniqueID>  (84) 
79

>  <SMILES>  (84) 
CN(C)Cc1ccccc1F

>  <Energy>  (84) 
21.22625702938318

>  <Genealogy>  (84) 
CN(C)Cc1ccccc1F (3D coordinates assigned)
CN(C)Cc1ccccc1F (optimized conformer: 21.22625702938318 kcal/mol)

>  <smiles>  (84) 
CN(C)Cc1ccccc1F

>  <score_type>  (84) 
oracle

>  <origin>  (84) 
adg

>  <m_score__min__energy>  (84) 
-4.6500000000000004

>  <m_primary>  (84) 
energy

$$$$
84:0
     RDKit          3D

 54 55  0  0  0  0  0  0  0  0999 V2000
   57.4890   33.7940   45.7420 C   0  0  0  0  0  0  0  0  0  0  0  0
   58.8450   34.3460   46.2070 C   0  0  2  0  0  0  0  0  0  0  0  0
   60.0130   33.5450   45.6140 C   0  0  0  0  0  0  0  0  0  0  0  0
   61.3020   33.8740   46.3560 C   0  0  0  0  0  0  0  0  0  0  0  0
   61.3000   33.3880   47.8480 C   0  0  1  0  0  0  0  0  0  0  0  0
   59.8420   33.4630   48.5040 C   0  0  2  0  0  0  0  0  0  0  0  0
   59.9200   33.9800   49.9700 C   0  0  0  0  0  0  0  0  0  0  0  0
   59.1110   32.0890   48.5100 C   0  0  0  0  0  0  0  0  0  0  0  0
   59.9760   30.9270   48.9930 C   0  0  0  0  0  0  0  0  0  0  0  0
   61.2250   30.7750   48.1180 C   0  0  1  0  0  0  0  0  0  0  0  0
   60.8320   30.4670   46.7760 O   0  0  0  0  0  0  0  0  0  0  0  0
   60.2620   29.2470   46.3980 C   0  0  0  0  0  0  0  0  0  0  0  0
   60.0250   28.3500   47.2550 O   0  0  0  0  0  0  0  0  0  0  0  0
   59.9030   29.0170   44.9620 C   0  0  0  0  0  0  0  0  0  0  0  0
   58.6940   29.8640   44.5320 C   0  0  0  0  0  0  0  0  0  0  0  0
   57.4440   29.0330   44.1870 C   0  0  0  0  0  0  0  0  0  0  0  0
   56.1860   29.7020   44.6470 C   0  0  0  0  0  0  0  0  0  0  0  0
   55.1510   29.0210   44.8730 O   0  0  0  0  0  0  0  0  0  0  0  0
   56.1510   31.0810   44.8070 O   0  0  0  0  0  0  0  0  0  0  0  0
   62.1250   32.0460   48.1460 C   0  0  0  0  0  0  0  0  0  0  0  0
   63.2990   31.8210   47.1510 C   0  0  0  0  0  0  0  0  0  0  0  0
   62.8190   32.1500   49.5360 C   0  0  0  0  0  0  0  0  0  0  0  0
   58.9390   34.5000   47.7500 C   0  0  0  0  0  0  0  0  0  0  0  0
   56.8746   33.5439   46.6194 H   0  0  0  0  0  0  0  0  0  0  0  0
   56.9721   34.5533   45.1368 H   0  0  0  0  0  0  0  0  0  0  0  0
   57.6493   32.8896   45.1368 H   0  0  0  0  0  0  0  0  0  0  0  0
   58.9254   35.3684   45.8091 H   0  0  0  0  0  0  0  0  0  0  0  0
   59.8024   32.4696   45.7094 H   0  0  0  0  0  0  0  0  0  0  0  0
   60.1301   33.8103   44.5529 H   0  0  0  0  0  0  0  0  0  0  0  0
   62.1397   33.3903   45.8322 H   0  0  0  0  0  0  0  0  0  0  0  0
   61.3995   34.9696   46.3701 H   0  0  0  0  0  0  0  0  0  0  0  0
   61.9068   34.1259   48.3933 H   0  0  0  0  0  0  0  0  0  0  0  0
   59.7926   33.1359   50.6637 H   0  0  0  0  0  0  0  0  0  0  0  0
   60.8993   34.4508   50.1412 H   0  0  0  0  0  0  0  0  0  0  0  0
   59.1231   34.7187   50.1412 H   0  0  0  0  0  0  0  0  0  0  0  0
   58.7785   31.8697   47.4847 H   0  0  0  0  0  0  0  0  0  0  0  0
   58.2733   32.1775   49.2174 H   0  0  0  0  0  0  0  0  0  0  0  0
   59.3891   29.9978   48.9475 H   0  0  0  0  0  0  0  0  0  0  0  0
   60.2933   31.1306   50.0264 H   0  0  0  0  0  0  0  0  0  0  0  0
   61.8273   29.9509   48.5280 H   0  0  0  0  0  0  0  0  0  0  0  0
   60.7653   29.2823   44.3327 H   0  0  0  0  0  0  0  0  0  0  0  0
   59.6369   27.9564   44.8421 H   0  0  0  0  0  0  0  0  0  0  0  0
   58.4394   30.5480   45.3550 H   0  0  0  0  0  0  0  0  0  0  0  0
   58.9865   30.3980   43.6159 H   0  0  0  0  0  0  0  0  0  0  0  0
   57.3967   28.8974   43.0964 H   0  0  0  0  0  0  0  0  0  0  0  0
   57.5244   28.0649   44.7032 H   0  0  0  0  0  0  0  0  0  0  0  0
   64.2274   31.6431   47.7135 H   0  0  0  0  0  0  0  0  0  0  0  0
   63.0809   30.9483   46.5179 H   0  0  0  0  0  0  0  0  0  0  0  0
   63.4190   32.7125   46.5179 H   0  0  0  0  0  0  0  0  0  0  0  0
   62.0668   32.0373   50.3307 H   0  0  0  0  0  0  0  0  0  0  0  0
   63.5733   31.3549   49.6296 H   0  0  0  0  0  0  0  0  0  0  0  0
   63.3071   33.1313   49.6296 H   0  0  0  0  0  0  0  0  0  0  0  0
   57.9206   34.4142   48.1569 H   0  0  0  0  0  0  0  0  0  0  0  0
   59.4171   35.4766   47.9160 H   0  0  0  0  0  0  0  0  0  0  0  0
  1  2  1  0
  2  3  1  0
  3  4  1  0
  4  5  1  0
  5  6  1  0
  6  7  1  1
  6  8  1  0
  8  9  1  0
  9 10  1  0
 10 11  1  0
 11 12  1  0
 12 13  2  0
 12 14  1  0
 14 15  1  0
 15 16  1  0
 16 17  1  0
 17 18  2  0
 17 19  1  0
 10 20  1  0
 20 21  1  0
 20 22  1  0
  6 23  1  0
 23  2  1  0
 20  5  1  0
  1 24  1  0
  1 25  1  0
  1 26  1  0
  2 27  1  6
  3 28  1  0
  3 29  1  0
  4 30  1  0
  4 31  1  0
  5 32  1  1
  7 33  1  0
  7 34  1  0
  7 35  1  0
  8 36  1  0
  8 37  1  0
  9 38  1  0
  9 39  1  0
 10 40  1  1
 14 41  1  0
 14 42  1  0
 15 43  1  0
 15 44  1  0
 16 45  1  0
 16 46  1  0
 21 47  1  0
 21 48  1  0
 21 49  1  0
 22 50  1  0
 22 51  1  0
 22 52  1  0
 23 53  1  0
 23 54  1  0
M  CHG  1  19  -1
M  END
>  <UniqueID>  (85) 
80

>  <SMILES>  (85) 
C[C@@H]1CC[C@H]2C(C)(CCC(OC(=O)CCCC(=O)[O-])C2(C)C)C1

>  <Energy>  (85) 
64.345850134706

>  <Genealogy>  (85) 
CC1CCC2C(C)(CCC(OC(=O)CCCC(=O)[O-])C2(C)C)C1 (protonated)
C[C@@H]1CC[C@H]2C(C)(CCC(OC(=O)CCCC(=O)[O-])C2(C)C)C1 (chirality)
C[C@@H]1CC[C@H]2C(C)(CCC(OC(=O)CCCC(=O)[O-])C2(C)C)C1 (3D coordinates assigned)
C[C@@H]1CC[C@H]2C(C)(CCC(OC(=O)CCCC(=O)[O-])C2(C)C)C1 (nonaromatic ring conformer: 64.345850134706 kcal/mol)

>  <smiles>  (85) 
CC1CCC2C(C)(CCC(OC(=O)CCCC(=O)O)C2(C)C)C1

>  <score_type>  (85) 
oracle

>  <origin>  (85) 
adg

>  <m_score__min__energy>  (85) 
-11.01

>  <m_primary>  (85) 
energy

$$$$
85:0
     RDKit          3D

 25 27  0  0  0  0  0  0  0  0999 V2000
   54.5700   30.2230   44.5380 H   0  0  0  0  0  0  0  0  0  0  0  0
   55.1430   29.3490   44.5130 N   0  0  0  0  0  0  0  0  0  0  0  0
   56.3970   29.3630   44.8280 C   0  0  0  0  0  0  0  0  0  0  0  0
   57.1840   28.2620   44.7550 N   0  0  0  0  0  0  0  0  0  0  0  0
   58.3620   28.7680   45.1680 C   0  0  0  0  0  0  0  0  0  0  0  0
   59.5670   28.0860   45.2730 C   0  0  0  0  0  0  0  0  0  0  0  0
   59.6469   27.0156   45.0324 H   0  0  0  0  0  0  0  0  0  0  0  0
   60.6780   28.8290   45.7010 C   0  0  0  0  0  0  0  0  0  0  0  0
   61.6578   28.3393   45.8014 H   0  0  0  0  0  0  0  0  0  0  0  0
   60.5490   30.1590   45.9940 N   0  0  0  0  0  0  0  0  0  0  0  0
   59.3460   30.7980   45.8820 C   0  0  0  0  0  0  0  0  0  0  0  0
   59.2310   32.2380   46.2200 C   0  0  0  0  0  0  0  0  0  0  0  0
   59.6210   32.6780   47.4980 C   0  0  0  0  0  0  0  0  0  0  0  0
   59.9913   31.9509   48.2357 H   0  0  0  0  0  0  0  0  0  0  0  0
   59.5420   34.0300   47.8380 C   0  0  0  0  0  0  0  0  0  0  0  0
   59.8463   34.3620   48.8416 H   0  0  0  0  0  0  0  0  0  0  0  0
   59.0780   34.9610   46.9080 C   0  0  0  0  0  0  0  0  0  0  0  0
   59.0172   36.0254   47.1789 H   0  0  0  0  0  0  0  0  0  0  0  0
   58.6910   34.5420   45.6340 C   0  0  0  0  0  0  0  0  0  0  0  0
   58.3256   35.2791   44.9039 H   0  0  0  0  0  0  0  0  0  0  0  0
   58.7650   33.1880   45.2790 C   0  0  0  0  0  0  0  0  0  0  0  0
   58.3200   32.7960   43.9620 C   0  0  0  0  0  0  0  0  0  0  0  0
   57.9650   32.4820   42.9060 N   0  0  0  0  0  0  0  0  0  0  0  0
   58.2760   30.0680   45.4680 N   0  0  0  0  0  0  0  0  0  0  0  0
   57.0400   30.4760   45.2540 N   0  0  0  0  0  0  0  0  0  0  0  0
  1  2  1  0
  2  3  2  0
  3  4  1  0
  4  5  2  0
  5  6  1  0
  6  7  1  0
  6  8  2  0
  8  9  1  0
  8 10  1  0
 10 11  2  0
 11 12  1  0
 12 13  2  0
 13 14  1  0
 13 15  1  0
 15 16  1  0
 15 17  2  0
 17 18  1  0
 17 19  1  0
 19 20  1  0
 19 21  2  0
 21 22  1  0
 22 23  3  0
 11 24  1  0
 24 25  1  0
 25  3  1  0
 24  5  1  0
 21 12  1  0
M  CHG  1  25  -1
M  END
>  <UniqueID>  (86) 
81

>  <SMILES>  (86) 
[H]/N=c1/nc2ccnc(-c3ccccc3C#N)n2[n-]1

>  <Energy>  (86) 
73.53612802924432

>  <Genealogy>  (86) 
N#Cc1ccccc1-c1nccc2nc(=N)[n-]n12 (protonated)
[H]/N=c1/nc2ccnc(-c3ccccc3C#N)n2[n-]1 (cis-trans isomerization)
[H]/N=c1/nc2ccnc(-c3ccccc3C#N)n2[n-]1 (3D coordinates assigned)
[H]/N=c1/nc2ccnc(-c3ccccc3C#N)n2[n-]1 (optimized conformer: 73.53612802924432 kcal/mol)

>  <smiles>  (86) 
N#Cc1ccccc1-c1nccc2nc(=N)[nH]n12

>  <score_type>  (86) 
oracle

>  <origin>  (86) 
adg

>  <m_score__min__energy>  (86) 
-8.5500000000000007

>  <m_primary>  (86) 
energy

$$$$
86:0
     RDKit          3D

 32 34  0  0  0  0  0  0  0  0999 V2000
   57.6780   28.8820   45.9900 O   0  0  0  0  0  0  0  0  0  0  0  0
   56.6400   28.3120   45.5580 C   0  0  0  0  0  0  0  0  0  0  0  0
   55.6090   29.0710   44.9170 N   0  0  0  0  0  0  0  0  0  0  0  0
   55.8220   29.8620   43.7120 C   0  0  0  0  0  0  0  0  0  0  0  0
   56.8370   30.9320   43.9700 C   0  0  0  0  0  0  0  0  0  0  0  0
   57.4820   31.6980   43.0250 C   0  0  0  0  0  0  0  0  0  0  0  0
   58.3220   32.4850   43.6570 O   0  0  0  0  0  0  0  0  0  0  0  0
   58.2210   32.2260   44.9450 C   0  0  0  0  0  0  0  0  0  0  0  0
   59.0250   32.9180   45.9800 C   0  0  0  0  0  0  0  0  0  0  0  0
   59.9040   32.2140   46.8260 C   0  0  0  0  0  0  0  0  0  0  0  0
   60.6510   32.8930   47.7930 C   0  0  0  0  0  0  0  0  0  0  0  0
   60.5300   34.2780   47.9290 C   0  0  0  0  0  0  0  0  0  0  0  0
   61.2560   34.9350   48.8670 F   0  0  0  0  0  0  0  0  0  0  0  0
   59.6620   34.9870   47.0950 C   0  0  0  0  0  0  0  0  0  0  0  0
   58.9120   34.3120   46.1260 C   0  0  0  0  0  0  0  0  0  0  0  0
   57.3070   31.2600   45.1860 N   0  0  0  0  0  0  0  0  0  0  0  0
   56.4950   26.8600   45.7130 C   0  0  0  0  0  0  0  0  0  0  0  0
   57.5030   25.9240   45.5870 C   0  0  0  0  0  0  0  0  0  0  0  0
   56.9030   24.7030   45.8140 C   0  0  0  0  0  0  0  0  0  0  0  0
   55.5720   24.9700   46.0620 C   0  0  0  0  0  0  0  0  0  0  0  0
   55.3600   26.2640   45.9950 O   0  0  0  0  0  0  0  0  0  0  0  0
   56.1820   29.2062   42.9055 H   0  0  0  0  0  0  0  0  0  0  0  0
   54.8718   30.3314   43.4176 H   0  0  0  0  0  0  0  0  0  0  0  0
   57.3225   31.6580   41.9374 H   0  0  0  0  0  0  0  0  0  0  0  0
   60.0033   31.1231   46.7251 H   0  0  0  0  0  0  0  0  0  0  0  0
   61.3359   32.3352   48.4486 H   0  0  0  0  0  0  0  0  0  0  0  0
   59.5681   36.0779   47.2004 H   0  0  0  0  0  0  0  0  0  0  0  0
   58.2290   34.8758   45.4736 H   0  0  0  0  0  0  0  0  0  0  0  0
   57.0200   30.8390   46.0970 H   0  0  0  0  0  0  0  0  0  0  0  0
   58.5615   26.1127   45.3545 H   0  0  0  0  0  0  0  0  0  0  0  0
   57.3876   23.7156   45.8001 H   0  0  0  0  0  0  0  0  0  0  0  0
   54.8047   24.2132   46.2825 H   0  0  0  0  0  0  0  0  0  0  0  0
  1  2  2  0
  2  3  1  0
  3  4  1  0
  4  5  1  0
  5  6  2  0
  6  7  1  0
  7  8  1  0
  8  9  1  0
  9 10  2  0
 10 11  1  0
 11 12  2  0
 12 13  1  0
 12 14  1  0
 14 15  2  0
  8 16  2  0
  2 17  1  0
 17 18  2  0
 18 19  1  0
 19 20  2  0
 20 21  1  0
 16  5  1  0
 21 17  1  0
 15  9  1  0
  4 22  1  0
  4 23  1  0
  6 24  1  0
 10 25  1  0
 11 26  1  0
 14 27  1  0
 15 28  1  0
 16 29  1  0
 18 30  1  0
 19 31  1  0
 20 32  1  0
M  CHG  2   3  -1  16   1
M  END
>  <UniqueID>  (87) 
82

>  <SMILES>  (87) 
O=C([N-]Cc1coc(-c2ccc(F)cc2)[nH+]1)c1ccco1

>  <Energy>  (87) 
88.1814621905381

>  <Genealogy>  (87) 
O=C([N-]Cc1coc(-c2ccc(F)cc2)[nH+]1)c1ccco1 (protonated)
O=C([N-]Cc1coc(-c2ccc(F)cc2)[nH+]1)c1ccco1 (3D coordinates assigned)
O=C([N-]Cc1coc(-c2ccc(F)cc2)[nH+]1)c1ccco1 (optimized conformer: 88.1814621905381 kcal/mol)

>  <smiles>  (87) 
O=C(NCc1coc(-c2ccc(F)cc2)n1)c1ccco1

>  <score_type>  (87) 
oracle

>  <origin>  (87) 
adg

>  <m_score__min__energy>  (87) 
-7.7400000000000002

>  <m_primary>  (87) 
energy

$$$$
87:0
     RDKit          3D

 50 54  0  0  0  0  0  0  0  0999 V2000
   55.7100   22.9880   44.1170 C   0  0  0  0  0  0  0  0  0  0  0  0
   56.8690   23.5360   43.5640 C   0  0  0  0  0  0  0  0  0  0  0  0
   57.3880   24.7340   44.0640 C   0  0  0  0  0  0  0  0  0  0  0  0
   56.7530   25.3990   45.1310 C   0  0  0  0  0  0  0  0  0  0  0  0
   57.3110   26.6720   45.6570 C   0  0  0  0  0  0  0  0  0  0  0  0
   57.0340   27.9620   45.1860 C   0  0  0  0  0  0  0  0  0  0  0  0
   57.7230   28.9510   45.8930 C   0  0  0  0  0  0  0  0  0  0  0  0
   57.6650   30.2770   45.6230 N   0  0  0  0  0  0  0  0  0  0  0  0
   58.4070   31.1570   46.3590 C   0  0  0  0  0  0  0  0  0  0  0  0
   58.3620   32.5710   46.0720 N   0  0  0  0  0  0  0  0  0  0  0  0
   57.4520   33.0480   45.0200 C   0  0  0  0  0  0  0  0  0  0  0  0
   57.5300   34.5620   44.8650 C   0  0  0  0  0  0  0  0  0  0  0  0
   58.9360   34.9610   44.8780 N   0  0  0  0  0  0  0  0  0  0  0  0
   59.5170   34.8050   46.2200 C   0  0  0  0  0  0  0  0  0  0  0  0
   59.0460   33.5280   46.9590 C   0  0  0  0  0  0  0  0  0  0  0  0
   59.2060   30.6880   47.3680 N   0  0  0  0  0  0  0  0  0  0  0  0
   59.2840   29.3620   47.6780 C   0  0  0  0  0  0  0  0  0  0  0  0
   60.1440   28.9290   48.7480 N   0  0  0  0  0  0  0  0  0  0  0  0
   60.7680   27.6020   48.7470 C   0  0  0  0  0  0  0  0  0  0  0  0
   60.8130   27.0540   50.1780 C   0  0  0  0  0  0  0  0  0  0  0  0
   61.4060   27.9900   51.0570 O   0  0  0  0  0  0  0  0  0  0  0  0
   60.5950   29.1450   51.1460 C   0  0  0  0  0  0  0  0  0  0  0  0
   60.5340   29.8720   49.7990 C   0  0  0  0  0  0  0  0  0  0  0  0
   58.5210   28.4750   46.9120 C   0  0  0  0  0  0  0  0  0  0  0  0
   58.4100   26.7990   46.9460 S   0  0  0  0  0  0  0  0  0  0  0  0
   55.5820   24.8360   45.6770 C   0  0  0  0  0  0  0  0  0  0  0  0
   55.0680   23.6380   45.1710 C   0  0  0  0  0  0  0  0  0  0  0  0
   55.3038   22.0451   43.7221 H   0  0  0  0  0  0  0  0  0  0  0  0
   57.3752   23.0237   42.7326 H   0  0  0  0  0  0  0  0  0  0  0  0
   58.2997   25.1607   43.6205 H   0  0  0  0  0  0  0  0  0  0  0  0
   56.3494   28.1732   44.3513 H   0  0  0  0  0  0  0  0  0  0  0  0
   57.7283   32.5754   44.0659 H   0  0  0  0  0  0  0  0  0  0  0  0
   56.4233   32.7805   45.3033 H   0  0  0  0  0  0  0  0  0  0  0  0
   57.0689   34.8611   43.9122 H   0  0  0  0  0  0  0  0  0  0  0  0
   56.9930   35.0521   45.6905 H   0  0  0  0  0  0  0  0  0  0  0  0
   58.9890   35.9730   44.6170 H   0  0  0  0  0  0  0  0  0  0  0  0
   60.6119   34.7652   46.1217 H   0  0  0  0  0  0  0  0  0  0  0  0
   59.1796   35.6646   46.8177 H   0  0  0  0  0  0  0  0  0  0  0  0
   59.9244   33.0329   47.3986 H   0  0  0  0  0  0  0  0  0  0  0  0
   58.3237   33.8394   47.7279 H   0  0  0  0  0  0  0  0  0  0  0  0
   60.1807   26.9217   48.1127 H   0  0  0  0  0  0  0  0  0  0  0  0
   61.7922   27.6801   48.3533 H   0  0  0  0  0  0  0  0  0  0  0  0
   59.7876   26.8423   50.5153 H   0  0  0  0  0  0  0  0  0  0  0  0
   61.4163   26.1342   50.1840 H   0  0  0  0  0  0  0  0  0  0  0  0
   59.5778   28.8494   51.4427 H   0  0  0  0  0  0  0  0  0  0  0  0
   61.0298   29.8244   51.8939 H   0  0  0  0  0  0  0  0  0  0  0  0
   59.7943   30.6843   49.8547 H   0  0  0  0  0  0  0  0  0  0  0  0
   61.5240   30.2904   49.5649 H   0  0  0  0  0  0  0  0  0  0  0  0
   55.0685   25.3428   46.5074 H   0  0  0  0  0  0  0  0  0  0  0  0
   54.1542   23.2067   45.6057 H   0  0  0  0  0  0  0  0  0  0  0  0
  1  2  2  0
  2  3  1  0
  3  4  2  0
  4  5  1  0
  5  6  2  0
  6  7  1  0
  7  8  2  0
  8  9  1  0
  9 10  1  0
 10 11  1  0
 11 12  1  0
 12 13  1  0
 13 14  1  0
 14 15  1  0
  9 16  2  0
 16 17  1  0
 17 18  1  0
 18 19  1  0
 19 20  1  0
 20 21  1  0
 21 22  1  0
 22 23  1  0
 17 24  2  0
 24 25  1  0
  4 26  1  0
 26 27  2  0
 27  1  1  0
 25  5  1  0
 24  7  1  0
 15 10  1  0
 23 18  1  0
  1 28  1  0
  2 29  1  0
  3 30  1  0
  6 31  1  0
 11 32  1  0
 11 33  1  0
 12 34  1  0
 12 35  1  0
 13 36  1  0
 14 37  1  0
 14 38  1  0
 15 39  1  0
 15 40  1  0
 19 41  1  0
 19 42  1  0
 20 43  1  0
 20 44  1  0
 22 45  1  0
 22 46  1  0
 23 47  1  0
 23 48  1  0
 26 49  1  0
 27 50  1  0
M  END
>  <UniqueID>  (88) 
83

>  <SMILES>  (88) 
c1ccc(-c2cc3nc(N4CCNCC4)nc(N4CCOCC4)c3s2)cc1

>  <Energy>  (88) 
98.67351668916093

>  <Genealogy>  (88) 
c1ccc(-c2cc3nc(N4CCNCC4)nc(N4CCOCC4)c3s2)cc1 (3D coordinates assigned)
c1ccc(-c2cc3nc(N4CCNCC4)nc(N4CCOCC4)c3s2)cc1 (nonaromatic ring conformer: 98.67351668916093 kcal/mol)

>  <smiles>  (88) 
c1ccc(-c2cc3nc(N4CCNCC4)nc(N4CCOCC4)c3s2)cc1

>  <score_type>  (88) 
oracle

>  <origin>  (88) 
adg

>  <m_score__min__energy>  (88) 
-7.1299999999999999

>  <m_primary>  (88) 
energy

$$$$
88:0
     RDKit          3D

 37 39  0  0  0  0  0  0  0  0999 V2000
   58.8640   26.7150   46.8750 C   0  0  0  0  0  0  0  0  0  0  0  0
   58.3280   27.5640   45.7600 C   0  0  0  0  0  0  0  0  0  0  0  0
   58.2870   27.0750   44.4460 C   0  0  0  0  0  0  0  0  0  0  0  0
   57.7710   27.8670   43.4180 C   0  0  0  0  0  0  0  0  0  0  0  0
   57.2880   29.1480   43.6960 C   0  0  0  0  0  0  0  0  0  0  0  0
   57.3160   29.6500   45.0020 C   0  0  0  0  0  0  0  0  0  0  0  0
   56.8230   30.9760   45.2400 N   0  0  0  0  0  0  0  0  0  0  0  0
   57.6550   32.4400   44.8230 S   0  0  0  0  0  0  0  0  0  0  0  0
   58.0540   32.3870   43.3750 O   0  0  0  0  0  0  0  0  0  0  0  0
   56.7320   33.6080   45.0320 O   0  0  0  0  0  0  0  0  0  0  0  0
   59.1060   32.5980   45.8080 C   0  0  0  0  0  0  0  0  0  0  0  0
   59.6570   31.4650   46.4170 C   0  0  0  0  0  0  0  0  0  0  0  0
   60.7910   31.5810   47.2250 C   0  0  0  0  0  0  0  0  0  0  0  0
   61.3890   32.8360   47.4400 C   0  0  0  0  0  0  0  0  0  0  0  0
   62.5480   32.9620   48.2870 N   0  0  0  0  0  0  0  0  0  0  0  0
   62.6000   33.5660   49.4930 C   0  0  0  0  0  0  0  0  0  0  0  0
   63.8920   33.4850   49.9730 C   0  0  0  0  0  0  0  0  0  0  0  0
   64.5960   32.8090   48.9940 C   0  0  0  0  0  0  0  0  0  0  0  0
   63.7550   32.5030   47.9900 N   0  0  0  0  0  0  0  0  0  0  0  0
   60.8330   33.9690   46.8200 C   0  0  0  0  0  0  0  0  0  0  0  0
   59.7020   33.8490   46.0070 C   0  0  0  0  0  0  0  0  0  0  0  0
   57.8300   28.8450   46.0370 C   0  0  0  0  0  0  0  0  0  0  0  0
   58.5836   27.1592   47.8415 H   0  0  0  0  0  0  0  0  0  0  0  0
   58.4412   25.7022   46.8005 H   0  0  0  0  0  0  0  0  0  0  0  0
   59.9602   26.6612   46.8005 H   0  0  0  0  0  0  0  0  0  0  0  0
   58.6623   26.0650   44.2246 H   0  0  0  0  0  0  0  0  0  0  0  0
   57.7449   27.4816   42.3880 H   0  0  0  0  0  0  0  0  0  0  0  0
   56.8825   29.7669   42.8820 H   0  0  0  0  0  0  0  0  0  0  0  0
   59.1955   30.4791   46.2590 H   0  0  0  0  0  0  0  0  0  0  0  0
   61.2194   30.6842   47.6965 H   0  0  0  0  0  0  0  0  0  0  0  0
   61.7534   34.0436   50.0080 H   0  0  0  0  0  0  0  0  0  0  0  0
   64.2774   33.8739   50.9271 H   0  0  0  0  0  0  0  0  0  0  0  0
   65.6673   32.5621   49.0302 H   0  0  0  0  0  0  0  0  0  0  0  0
   64.0190   32.0140   47.1060 H   0  0  0  0  0  0  0  0  0  0  0  0
   61.2912   34.9568   46.9758 H   0  0  0  0  0  0  0  0  0  0  0  0
   59.2788   34.7409   45.5218 H   0  0  0  0  0  0  0  0  0  0  0  0
   57.8408   29.2238   47.0696 H   0  0  0  0  0  0  0  0  0  0  0  0
  1  2  1  0
  2  3  2  0
  3  4  1  0
  4  5  2  0
  5  6  1  0
  6  7  1  0
  7  8  1  0
  8  9  2  0
  8 10  2  0
  8 11  1  0
 11 12  2  0
 12 13  1  0
 13 14  2  0
 14 15  1  0
 15 16  1  0
 16 17  2  0
 17 18  1  0
 18 19  2  0
 14 20  1  0
 20 21  2  0
  6 22  2  0
 22  2  1  0
 21 11  1  0
 19 15  1  0
  1 23  1  0
  1 24  1  0
  1 25  1  0
  3 26  1  0
  4 27  1  0
  5 28  1  0
 12 29  1  0
 13 30  1  0
 16 31  1  0
 17 32  1  0
 18 33  1  0
 19 34  1  0
 20 35  1  0
 21 36  1  0
 22 37  1  0
M  CHG  2   7  -1  19   1
M  END
>  <UniqueID>  (89) 
84

>  <SMILES>  (89) 
Cc1cccc([N-]S(=O)(=O)c2ccc(-n3ccc[nH+]3)cc2)c1

>  <Energy>  (89) 
74.95714022038194

>  <Genealogy>  (89) 
Cc1cccc([N-]S(=O)(=O)c2ccc(-n3ccc[nH+]3)cc2)c1 (protonated)
Cc1cccc([N-]S(=O)(=O)c2ccc(-n3ccc[nH+]3)cc2)c1 (3D coordinates assigned)
Cc1cccc([N-]S(=O)(=O)c2ccc(-n3ccc[nH+]3)cc2)c1 (optimized conformer: 74.95714022038194 kcal/mol)

>  <smiles>  (89) 
Cc1cccc(NS(=O)(=O)c2ccc(-n3cccn3)cc2)c1

>  <score_type>  (89) 
oracle

>  <origin>  (89) 
adg

>  <m_score__min__energy>  (89) 
-7.6399999999999997

>  <m_primary>  (89) 
energy

$$$$
89:0
     RDKit          3D

 36 38  0  0  0  0  0  0  0  0999 V2000
   55.8460   23.9200   46.0660 C   0  0  0  0  0  0  0  0  0  0  0  0
   56.7200   24.4940   47.1740 C   0  0  0  0  0  0  0  0  0  0  0  0
   57.4350   25.6760   46.6980 N   0  0  0  0  0  0  0  0  0  0  0  0
   58.8910   25.7990   46.6120 C   0  0  0  0  0  0  0  0  0  0  0  0
   59.0850   27.1460   45.9780 C   0  0  0  0  0  0  0  0  0  0  0  0
   60.2920   27.7490   45.6300 C   0  0  0  0  0  0  0  0  0  0  0  0
   60.2600   29.0020   45.0020 C   0  0  0  0  0  0  0  0  0  0  0  0
   59.0320   29.6340   44.7300 C   0  0  0  0  0  0  0  0  0  0  0  0
   57.8110   29.0190   45.0830 C   0  0  0  0  0  0  0  0  0  0  0  0
   56.5280   29.7030   44.8100 C   0  0  0  0  0  0  0  0  0  0  0  0
   55.4570   29.0440   44.8460 O   0  0  0  0  0  0  0  0  0  0  0  0
   56.4600   31.1190   44.5990 N   0  0  0  0  0  0  0  0  0  0  0  0
   57.4210   32.0900   45.0420 C   0  0  0  0  0  0  0  0  0  0  0  0
   57.7670   32.2170   46.4000 C   0  0  0  0  0  0  0  0  0  0  0  0
   58.7190   33.1600   46.7980 C   0  0  0  0  0  0  0  0  0  0  0  0
   59.3430   33.9700   45.8460 C   0  0  0  0  0  0  0  0  0  0  0  0
   60.2670   34.8840   46.2330 F   0  0  0  0  0  0  0  0  0  0  0  0
   59.0220   33.8310   44.4930 C   0  0  0  0  0  0  0  0  0  0  0  0
   58.0700   32.8890   44.0900 C   0  0  0  0  0  0  0  0  0  0  0  0
   57.7680   32.7620   42.7740 F   0  0  0  0  0  0  0  0  0  0  0  0
   57.8770   27.7640   45.7120 C   0  0  0  0  0  0  0  0  0  0  0  0
   56.8410   26.8410   46.1350 C   0  0  0  0  0  0  0  0  0  0  0  0
   55.6000   26.9950   45.9830 O   0  0  0  0  0  0  0  0  0  0  0  0
   55.0052   23.3678   46.5111 H   0  0  0  0  0  0  0  0  0  0  0  0
   55.4578   24.7396   45.4434 H   0  0  0  0  0  0  0  0  0  0  0  0
   56.4439   23.2382   45.4434 H   0  0  0  0  0  0  0  0  0  0  0  0
   56.0855   24.7736   48.0280 H   0  0  0  0  0  0  0  0  0  0  0  0
   57.4528   23.7331   47.4807 H   0  0  0  0  0  0  0  0  0  0  0  0
   59.3495   25.7637   47.6113 H   0  0  0  0  0  0  0  0  0  0  0  0
   59.3598   24.9829   46.0427 H   0  0  0  0  0  0  0  0  0  0  0  0
   61.2499   27.2523   45.8436 H   0  0  0  0  0  0  0  0  0  0  0  0
   61.2019   29.4951   44.7196 H   0  0  0  0  0  0  0  0  0  0  0  0
   59.0235   30.6174   44.2372 H   0  0  0  0  0  0  0  0  0  0  0  0
   57.2868   31.5722   47.1508 H   0  0  0  0  0  0  0  0  0  0  0  0
   58.9772   33.2644   47.8622 H   0  0  0  0  0  0  0  0  0  0  0  0
   59.5192   34.4639   43.7432 H   0  0  0  0  0  0  0  0  0  0  0  0
  1  2  1  0
  2  3  1  0
  3  4  1  0
  4  5  1  0
  5  6  2  0
  6  7  1  0
  7  8  2  0
  8  9  1  0
  9 10  1  0
 10 11  2  0
 10 12  1  0
 12 13  1  0
 13 14  2  0
 14 15  1  0
 15 16  2  0
 16 17  1  0
 16 18  1  0
 18 19  2  0
 19 20  1  0
  9 21  2  0
 21 22  1  0
 22 23  2  0
 22  3  1  0
 21  5  1  0
 19 13  1  0
  1 24  1  0
  1 25  1  0
  1 26  1  0
  2 27  1  0
  2 28  1  0
  4 29  1  0
  4 30  1  0
  6 31  1  0
  7 32  1  0
  8 33  1  0
 14 34  1  0
 15 35  1  0
 18 36  1  0
M  CHG  1  12  -1
M  END
>  <UniqueID>  (90) 
85

>  <SMILES>  (90) 
CCN1Cc2cccc(C(=O)[N-]c3ccc(F)cc3F)c2C1=O

>  <Energy>  (90) 
63.74075321217465

>  <Genealogy>  (90) 
CCN1Cc2cccc(C(=O)[N-]c3ccc(F)cc3F)c2C1=O (protonated)
CCN1Cc2cccc(C(=O)[N-]c3ccc(F)cc3F)c2C1=O (3D coordinates assigned)
CCN1Cc2cccc(C(=O)[N-]c3ccc(F)cc3F)c2C1=O (nonaromatic ring conformer: 63.74075321217465 kcal/mol)

>  <smiles>  (90) 
CCN1Cc2cccc(C(=O)Nc3ccc(F)cc3F)c2C1=O

>  <score_type>  (90) 
oracle

>  <origin>  (90) 
adg

>  <m_score__min__energy>  (90) 
-9.6099999999999994

>  <m_primary>  (90) 
energy

$$$$
90:0
     RDKit          3D

 30 30  0  0  0  0  0  0  0  0999 V2000
   56.3484   32.7414   45.1065 H   0  0  0  0  0  0  0  0  0  0  0  0
   57.4340   32.5650   45.1260 C   0  0  0  0  0  0  0  0  0  0  0  0
   57.9340   31.5870   44.3530 C   0  0  0  0  0  0  0  0  0  0  0  0
   58.6861   30.9128   44.7887 H   0  0  0  0  0  0  0  0  0  0  0  0
   57.5370   31.3720   42.9780 N   0  0  0  0  0  0  0  0  0  0  0  0
   56.6080   30.3040   42.5690 C   0  0  0  0  0  0  0  0  0  0  0  0
   57.1757   29.5036   42.0720 H   0  0  0  0  0  0  0  0  0  0  0  0
   55.8630   30.7305   41.8812 H   0  0  0  0  0  0  0  0  0  0  0  0
   55.8790   29.7230   43.7790 C   0  0  0  0  0  0  0  0  0  0  0  0
   56.3465   30.0956   44.7024 H   0  0  0  0  0  0  0  0  0  0  0  0
   54.8230   30.0299   43.7530 H   0  0  0  0  0  0  0  0  0  0  0  0
   55.9425   28.6251   43.7530 H   0  0  0  0  0  0  0  0  0  0  0  0
   58.0860   32.2800   41.9600 C   0  0  0  0  0  0  0  0  0  0  0  0
   58.1911   33.2861   42.3920 H   0  0  0  0  0  0  0  0  0  0  0  0
   59.0666   31.8998   41.6376 H   0  0  0  0  0  0  0  0  0  0  0  0
   57.1630   32.3490   40.7480 C   0  0  0  0  0  0  0  0  0  0  0  0
   56.1191   32.4270   41.0860 H   0  0  0  0  0  0  0  0  0  0  0  0
   57.4190   33.2305   40.1419 H   0  0  0  0  0  0  0  0  0  0  0  0
   57.2851   31.4392   40.1419 H   0  0  0  0  0  0  0  0  0  0  0  0
   58.2690   33.4190   46.0040 C   0  0  0  0  0  0  0  0  0  0  0  0
   58.8910   34.5990   45.5420 C   0  0  0  0  0  0  0  0  0  0  0  0
   58.7529   34.9182   44.4984 H   0  0  0  0  0  0  0  0  0  0  0  0
   59.6820   35.3640   46.4050 C   0  0  0  0  0  0  0  0  0  0  0  0
   60.1569   36.2867   46.0402 H   0  0  0  0  0  0  0  0  0  0  0  0
   59.8710   34.9600   47.7290 C   0  0  0  0  0  0  0  0  0  0  0  0
   60.4894   35.5667   48.4068 H   0  0  0  0  0  0  0  0  0  0  0  0
   59.2740   33.7850   48.1910 C   0  0  0  0  0  0  0  0  0  0  0  0
   59.4266   33.4642   49.2321 H   0  0  0  0  0  0  0  0  0  0  0  0
   58.4830   33.0160   47.3330 C   0  0  0  0  0  0  0  0  0  0  0  0
   58.0238   32.0868   47.7014 H   0  0  0  0  0  0  0  0  0  0  0  0
  1  2  1  0
  2  3  2  0
  3  4  1  0
  3  5  1  0
  5  6  1  0
  6  7  1  0
  6  8  1  0
  6  9  1  0
  9 10  1  0
  9 11  1  0
  9 12  1  0
  5 13  1  0
 13 14  1  0
 13 15  1  0
 13 16  1  0
 16 17  1  0
 16 18  1  0
 16 19  1  0
  2 20  1  0
 20 21  2  0
 21 22  1  0
 21 23  1  0
 23 24  1  0
 23 25  2  0
 25 26  1  0
 25 27  1  0
 27 28  1  0
 27 29  2  0
 29 30  1  0
 29 20  1  0
M  END
>  <UniqueID>  (91) 
86

>  <SMILES>  (91) 
CCN(/C=C/c1ccccc1)CC

>  <Energy>  (91) 
24.15112089616638

>  <Genealogy>  (91) 
CCN(/C=C/c1ccccc1)CC (cis-trans isomerization)
CCN(/C=C/c1ccccc1)CC (3D coordinates assigned)
CCN(/C=C/c1ccccc1)CC (optimized conformer: 24.15112089616638 kcal/mol)

>  <smiles>  (91) 
CCN(C=Cc1ccccc1)CC

>  <score_type>  (91) 
oracle

>  <origin>  (91) 
adg

>  <m_score__min__energy>  (91) 
-5.1200000000000001

>  <m_primary>  (91) 
energy

$$$$
91:0
     RDKit          3D

 32 33  0  0  1  0  0  0  0  0999 V2000
   56.3350   22.1870   48.9150 C   0  0  0  0  0  0  0  0  0  0  0  0
   57.0050   22.6370   47.7870 O   0  0  0  0  0  0  0  0  0  0  0  0
   56.2070   22.7850   46.6870 C   0  0  0  0  0  0  0  0  0  0  0  0
   56.1830   24.2720   46.3990 C   0  0  0  0  0  0  0  0  0  0  0  0
   55.3850   25.1390   46.2880 N   0  0  0  0  0  0  0  0  0  0  0  0
   55.5400   26.3940   46.0200 N   0  0  0  0  0  0  0  0  0  0  0  0
   56.8250   26.7630   45.8370 C   0  0  0  0  0  0  0  0  0  0  0  0
   57.3880   27.8760   45.5650 N   0  0  0  0  0  0  0  0  0  0  0  0
   56.6890   28.9000   44.8230 C   0  0  0  0  0  0  0  0  0  0  0  0
   55.4430   28.9620   44.9060 O   0  0  0  0  0  0  0  0  0  0  0  0
   57.5340   29.8030   44.0140 C   0  0  0  0  0  0  0  0  0  0  0  0
   57.0280   31.5310   44.1090 S   0  0  0  0  0  0  0  0  0  0  0  0
   58.0140   32.3540   45.3380 C   0  0  0  0  0  0  0  0  0  0  0  0
   58.0540   33.6980   45.5410 C   0  0  0  0  0  0  0  0  0  0  0  0
   58.8520   34.2360   46.5340 C   0  0  0  0  0  0  0  0  0  0  0  0
   59.6360   33.4510   47.3550 C   0  0  0  0  0  0  0  0  0  0  0  0
   60.7380   34.2160   48.7280 Br  0  0  0  0  0  0  0  0  0  0  0  0
   59.5970   32.0790   47.1500 C   0  0  0  0  0  0  0  0  0  0  0  0
   58.8010   31.5430   46.1590 C   0  0  0  0  0  0  0  0  0  0  0  0
   57.7750   25.1750   46.0820 S   0  0  0  0  0  0  0  0  0  0  0  0
   56.8580   22.5383   49.8167 H   0  0  0  0  0  0  0  0  0  0  0  0
   55.3070   22.5785   48.9115 H   0  0  0  0  0  0  0  0  0  0  0  0
   56.3086   21.0873   48.9115 H   0  0  0  0  0  0  0  0  0  0  0  0
   56.6261   22.2348   45.8316 H   0  0  0  0  0  0  0  0  0  0  0  0
   55.1962   22.3874   46.8607 H   0  0  0  0  0  0  0  0  0  0  0  0
   54.7740   27.1320   45.9330 H   0  0  0  0  0  0  0  0  0  0  0  0
   58.5714   29.7231   44.3710 H   0  0  0  0  0  0  0  0  0  0  0  0
   57.4311   29.4911   42.9642 H   0  0  0  0  0  0  0  0  0  0  0  0
   57.4463   34.3630   44.9098 H   0  0  0  0  0  0  0  0  0  0  0  0
   58.8623   35.3270   46.6744 H   0  0  0  0  0  0  0  0  0  0  0  0
   60.2048   31.4146   47.7818 H   0  0  0  0  0  0  0  0  0  0  0  0
   58.7857   30.4530   46.0121 H   0  0  0  0  0  0  0  0  0  0  0  0
  1  2  1  0
  2  3  1  0
  3  4  1  0
  4  5  2  0
  5  6  1  0
  6  7  1  0
  7  8  2  0
  8  9  1  0
  9 10  2  0
  9 11  1  0
 11 12  1  0
 12 13  1  0
 13 14  2  0
 14 15  1  0
 15 16  2  0
 16 17  1  0
 16 18  1  0
 18 19  2  0
  7 20  1  0
 20  4  1  0
 19 13  1  0
  1 21  1  0
  1 22  1  0
  1 23  1  0
  3 24  1  0
  3 25  1  0
  6 26  1  0
 11 27  1  0
 11 28  1  0
 14 29  1  0
 15 30  1  0
 18 31  1  0
 19 32  1  0
M  END
>  <smiles>  (92) 
COCc1n[nH]c(=NC(=O)CSc2ccc(Br)cc2)s1

>  <score_type>  (92) 
oracle

>  <origin>  (92) 
adg

>  <m_score__min__energy>  (92) 
-8.4000000000000004

>  <m_primary>  (92) 
energy

$$$$
92:0
     RDKit          3D

 40 43  0  0  0  0  0  0  0  0999 V2000
   55.1110   30.4620   52.0120 C   0  0  0  0  0  0  0  0  0  0  0  0
   56.2600   29.6950   52.3010 O   0  0  0  0  0  0  0  0  0  0  0  0
   57.3890   30.5370   52.4390 C   0  0  0  0  0  0  0  0  0  0  0  0
   58.0530   30.7530   51.1050 C   0  0  0  0  0  0  0  0  0  0  0  0
   58.5820   29.6700   50.3880 C   0  0  0  0  0  0  0  0  0  0  0  0
   59.1780   29.8730   49.1390 C   0  0  0  0  0  0  0  0  0  0  0  0
   59.2510   31.1620   48.5880 C   0  0  0  0  0  0  0  0  0  0  0  0
   59.8950   31.3660   47.2330 C   0  0  0  0  0  0  0  0  0  0  0  0
   59.1850   32.4210   46.4250 C   0  0  0  0  0  0  0  0  0  0  0  0
   57.8620   32.4130   45.9790 C   0  0  0  0  0  0  0  0  0  0  0  0
   57.3980   33.5080   45.2300 C   0  0  0  0  0  0  0  0  0  0  0  0
   58.2560   34.5850   44.9370 C   0  0  0  0  0  0  0  0  0  0  0  0
   59.5870   34.5780   45.3880 C   0  0  0  0  0  0  0  0  0  0  0  0
   60.0240   33.4800   46.1300 C   0  0  0  0  0  0  0  0  0  0  0  0
   61.3240   33.2070   46.7060 C   0  0  0  0  0  0  0  0  0  0  0  0
   62.4940   33.9650   46.6770 C   0  0  0  0  0  0  0  0  0  0  0  0
   63.6330   33.4520   47.3210 C   0  0  0  0  0  0  0  0  0  0  0  0
   63.5810   32.2040   47.9730 C   0  0  0  0  0  0  0  0  0  0  0  0
   62.3910   31.4580   47.9870 C   0  0  0  0  0  0  0  0  0  0  0  0
   61.2650   31.9830   47.3480 C   0  0  0  0  0  0  0  0  0  0  0  0
   58.7120   32.2460   49.3060 C   0  0  0  0  0  0  0  0  0  0  0  0
   58.1160   32.0410   50.5530 C   0  0  0  0  0  0  0  0  0  0  0  0
   54.6359   30.7792   52.9520 H   0  0  0  0  0  0  0  0  0  0  0  0
   55.3995   31.3493   51.4294 H   0  0  0  0  0  0  0  0  0  0  0  0
   54.4022   29.8553   51.4294 H   0  0  0  0  0  0  0  0  0  0  0  0
   57.0689   31.5078   52.8453 H   0  0  0  0  0  0  0  0  0  0  0  0
   58.1079   30.0587   53.1205 H   0  0  0  0  0  0  0  0  0  0  0  0
   58.5279   28.6556   50.8101 H   0  0  0  0  0  0  0  0  0  0  0  0
   59.5920   29.0175   48.5852 H   0  0  0  0  0  0  0  0  0  0  0  0
   59.8821   30.3615   46.7849 H   0  0  0  0  0  0  0  0  0  0  0  0
   57.1969   31.5676   46.2090 H   0  0  0  0  0  0  0  0  0  0  0  0
   56.3585   33.5236   44.8707 H   0  0  0  0  0  0  0  0  0  0  0  0
   57.8821   35.4377   44.3512 H   0  0  0  0  0  0  0  0  0  0  0  0
   60.2650   35.4143   45.1625 H   0  0  0  0  0  0  0  0  0  0  0  0
   62.5247   34.9377   46.1642 H   0  0  0  0  0  0  0  0  0  0  0  0
   64.5702   34.0279   47.3160 H   0  0  0  0  0  0  0  0  0  0  0  0
   64.4780   31.8114   48.4742 H   0  0  0  0  0  0  0  0  0  0  0  0
   62.3465   30.4810   48.4905 H   0  0  0  0  0  0  0  0  0  0  0  0
   58.7603   33.2603   48.8830 H   0  0  0  0  0  0  0  0  0  0  0  0
   57.6940   32.8940   51.1047 H   0  0  0  0  0  0  0  0  0  0  0  0
  1  2  1  0
  2  3  1  0
  3  4  1  0
  4  5  2  0
  5  6  1  0
  6  7  2  0
  7  8  1  0
  8  9  1  0
  9 10  2  0
 10 11  1  0
 11 12  2  0
 12 13  1  0
 13 14  2  0
 14 15  1  0
 15 16  2  0
 16 17  1  0
 17 18  2  0
 18 19  1  0
 19 20  2  0
  7 21  1  0
 21 22  2  0
 22  4  1  0
 20  8  1  0
 14  9  1  0
 20 15  1  0
  1 23  1  0
  1 24  1  0
  1 25  1  0
  3 26  1  0
  3 27  1  0
  5 28  1  0
  6 29  1  0
  8 30  1  0
 10 31  1  0
 11 32  1  0
 12 33  1  0
 13 34  1  0
 16 35  1  0
 17 36  1  0
 18 37  1  0
 19 38  1  0
 21 39  1  0
 22 40  1  0
M  END
>  <UniqueID>  (93) 
87

>  <SMILES>  (93) 
COCc1ccc(C2c3ccccc3-c3ccccc32)cc1

>  <Energy>  (93) 
67.88152477628341

>  <Genealogy>  (93) 
COCc1ccc(C2c3ccccc3-c3ccccc32)cc1 (3D coordinates assigned)
COCc1ccc(C2c3ccccc3-c3ccccc32)cc1 (nonaromatic ring conformer: 67.88152477628341 kcal/mol)

>  <smiles>  (93) 
COCc1ccc(C2c3ccccc3-c3ccccc32)cc1

>  <score_type>  (93) 
oracle

>  <origin>  (93) 
adg

>  <m_score__min__energy>  (93) 
-7.75

>  <m_primary>  (93) 
energy

$$$$
93:0
     RDKit          3D

 39 41  0  0  0  0  0  0  0  0999 V2000
   54.7330   23.5570   44.4970 N   0  0  0  0  0  0  0  0  0  0  0  0
   55.8400   22.9120   44.2930 C   0  0  0  0  0  0  0  0  0  0  0  0
   55.9000   22.0480   43.2440 N   0  0  0  0  0  0  0  0  0  0  0  0
   57.0190   21.3370   42.9500 C   0  0  0  0  0  0  0  0  0  0  0  0
   58.1620   21.4820   43.7320 C   0  0  0  0  0  0  0  0  0  0  0  0
   58.1420   22.3580   44.8160 C   0  0  0  0  0  0  0  0  0  0  0  0
   56.9810   23.0850   45.1190 C   0  0  0  0  0  0  0  0  0  0  0  0
   56.9860   24.1680   46.5220 S   0  0  0  0  0  0  0  0  0  0  0  0
   55.6440   24.8210   46.7030 O   0  0  0  0  0  0  0  0  0  0  0  0
   57.2960   23.3660   47.7530 O   0  0  0  0  0  0  0  0  0  0  0  0
   58.1910   25.3990   46.3210 N   0  0  0  0  0  0  0  0  0  0  0  0
   57.9650   26.6970   45.7570 C   0  0  0  0  0  0  0  0  0  0  0  0
   57.9080   27.8000   46.6160 C   0  0  0  0  0  0  0  0  0  0  0  0
   57.6970   29.0850   46.1090 C   0  0  0  0  0  0  0  0  0  0  0  0
   57.5340   29.2910   44.7280 C   0  0  0  0  0  0  0  0  0  0  0  0
   57.3120   30.6520   44.1870 C   0  0  0  0  0  0  0  0  0  0  0  0
   57.3690   30.8510   42.9420 O   0  0  0  0  0  0  0  0  0  0  0  0
   56.9820   31.7320   45.0720 N   0  0  0  0  0  0  0  0  0  0  0  0
   57.8500   32.7990   45.4800 C   0  0  0  0  0  0  0  0  0  0  0  0
   58.2210   33.7620   44.5320 C   0  0  0  0  0  0  0  0  0  0  0  0
   59.0490   34.8290   44.8920 C   0  0  0  0  0  0  0  0  0  0  0  0
   59.5010   34.9510   46.2090 C   0  0  0  0  0  0  0  0  0  0  0  0
   59.1160   34.0110   47.1700 C   0  0  0  0  0  0  0  0  0  0  0  0
   59.6600   34.1800   48.8300 Cl  0  0  0  0  0  0  0  0  0  0  0  0
   58.2870   32.9400   46.8110 C   0  0  0  0  0  0  0  0  0  0  0  0
   57.5860   28.1800   43.8670 C   0  0  0  0  0  0  0  0  0  0  0  0
   57.7970   26.8950   44.3760 C   0  0  0  0  0  0  0  0  0  0  0  0
   54.6730   24.5410   44.8360 H   0  0  0  0  0  0  0  0  0  0  0  0
   57.0225   20.6463   42.0939 H   0  0  0  0  0  0  0  0  0  0  0  0
   59.0720   20.9107   43.4965 H   0  0  0  0  0  0  0  0  0  0  0  0
   59.0415   22.4800   45.4373 H   0  0  0  0  0  0  0  0  0  0  0  0
   58.0303   27.6544   47.6994 H   0  0  0  0  0  0  0  0  0  0  0  0
   57.6581   29.9428   46.7965 H   0  0  0  0  0  0  0  0  0  0  0  0
   57.8580   33.6776   43.4971 H   0  0  0  0  0  0  0  0  0  0  0  0
   59.3452   35.5734   44.1382 H   0  0  0  0  0  0  0  0  0  0  0  0
   60.1595   35.7863   46.4894 H   0  0  0  0  0  0  0  0  0  0  0  0
   57.9768   32.2076   47.5708 H   0  0  0  0  0  0  0  0  0  0  0  0
   57.4596   28.3234   42.7837 H   0  0  0  0  0  0  0  0  0  0  0  0
   57.8317   26.0344   43.6917 H   0  0  0  0  0  0  0  0  0  0  0  0
  1  2  2  3
  2  3  1  0
  3  4  1  0
  4  5  2  0
  5  6  1  0
  6  7  2  0
  7  8  1  0
  8  9  2  0
  8 10  2  0
  8 11  1  0
 11 12  1  0
 12 13  2  0
 13 14  1  0
 14 15  2  0
 15 16  1  0
 16 17  2  0
 16 18  1  0
 18 19  1  0
 19 20  2  0
 20 21  1  0
 21 22  2  0
 22 23  1  0
 23 24  1  0
 23 25  2  0
 15 26  1  0
 26 27  2  0
  7  2  1  0
 27 12  1  0
 25 19  1  0
  1 28  1  0
  4 29  1  0
  5 30  1  0
  6 31  1  0
 13 32  1  0
 14 33  1  0
 20 34  1  0
 21 35  1  0
 22 36  1  0
 25 37  1  0
 26 38  1  0
 27 39  1  0
M  CHG  3   3  -1  11  -1  18  -1
M  END
>  <UniqueID>  (94) 
88

>  <SMILES>  (94) 
N=c1[n-]cccc1S(=O)(=O)[N-]c1ccc(C(=O)[N-]c2cccc(Cl)c2)cc1

>  <Energy>  (94) 
53.16289686827861

>  <Genealogy>  (94) 
N=c1[n-]cccc1S(=O)(=O)[N-]c1ccc(C(=O)[N-]c2cccc(Cl)c2)cc1 (protonated)
N=c1[n-]cccc1S(=O)(=O)[N-]c1ccc(C(=O)[N-]c2cccc(Cl)c2)cc1 (3D coordinates assigned)
N=c1[n-]cccc1S(=O)(=O)[N-]c1ccc(C(=O)[N-]c2cccc(Cl)c2)cc1 (optimized conformer: 53.16289686827861 kcal/mol)

>  <smiles>  (94) 
N=c1[nH]cccc1S(=O)(=O)Nc1ccc(C(=O)Nc2cccc(Cl)c2)cc1

>  <score_type>  (94) 
oracle

>  <origin>  (94) 
adg

>  <m_score__min__energy>  (94) 
-13.58

>  <m_primary>  (94) 
energy

$$$$
94:0
     RDKit          3D

 69 72  0  0  0  0  0  0  0  0999 V2000
   54.6530   30.3490   45.0580 H   0  0  0  0  0  0  0  0  0  0  0  0
   55.2130   29.6630   44.5060 N   0  0  0  0  0  0  0  0  0  0  0  0
   56.3940   29.2630   44.8620 C   0  0  0  0  0  0  0  0  0  0  0  0
   56.5740   28.1570   45.6270 N   0  0  0  0  0  0  0  0  0  0  0  0
   57.9130   28.0810   45.7260 C   0  0  0  0  0  0  0  0  0  0  0  0
   58.6580   27.1090   46.3860 C   0  0  0  0  0  0  0  0  0  0  0  0
   58.1675   26.2903   46.9329 H   0  0  0  0  0  0  0  0  0  0  0  0
   60.0610   27.2090   46.3300 C   0  0  0  0  0  0  0  0  0  0  0  0
   60.6824   26.4598   46.8423 H   0  0  0  0  0  0  0  0  0  0  0  0
   60.6770   28.2640   45.6210 C   0  0  0  0  0  0  0  0  0  0  0  0
   61.7744   28.3286   45.5821 H   0  0  0  0  0  0  0  0  0  0  0  0
   59.8960   29.2330   44.9640 C   0  0  0  0  0  0  0  0  0  0  0  0
   60.3624   30.0604   44.4092 H   0  0  0  0  0  0  0  0  0  0  0  0
   58.5060   29.1060   45.0420 C   0  0  0  0  0  0  0  0  0  0  0  0
   57.5520   29.8820   44.4970 N   0  0  0  0  0  0  0  0  0  0  0  0
   57.7340   31.0490   43.6250 C   0  0  0  0  0  0  0  0  0  0  0  0
   58.7800   31.0912   43.2872 H   0  0  0  0  0  0  0  0  0  0  0  0
   57.0639   30.9582   42.7574 H   0  0  0  0  0  0  0  0  0  0  0  0
   57.3950   32.3360   44.3890 C   0  0  0  0  0  0  0  0  0  0  0  0
   57.9437   33.1718   43.9304 H   0  0  0  0  0  0  0  0  0  0  0  0
   56.3062   32.4803   44.3281 H   0  0  0  0  0  0  0  0  0  0  0  0
   57.7690   32.2610   45.8770 C   0  0  0  0  0  0  0  0  0  0  0  0
   57.2404   31.4093   46.3300 H   0  0  0  0  0  0  0  0  0  0  0  0
   58.8609   32.1426   45.9390 H   0  0  0  0  0  0  0  0  0  0  0  0
   57.3970   33.5360   46.6480 C   0  0  0  0  0  0  0  0  0  0  0  0
   56.9031   34.2408   45.9629 H   0  0  0  0  0  0  0  0  0  0  0  0
   56.7200   33.2657   47.4717 H   0  0  0  0  0  0  0  0  0  0  0  0
   58.6490   34.2000   47.2370 C   0  0  0  0  0  0  0  0  0  0  0  0
   58.3610   35.1484   47.7140 H   0  0  0  0  0  0  0  0  0  0  0  0
   59.0928   33.5136   47.9732 H   0  0  0  0  0  0  0  0  0  0  0  0
   59.6950   34.4850   46.1460 C   0  0  0  0  0  0  0  0  0  0  0  0
   59.1845   34.5258   45.1725 H   0  0  0  0  0  0  0  0  0  0  0  0
   60.1793   35.4408   46.3948 H   0  0  0  0  0  0  0  0  0  0  0  0
   60.7970   33.4130   46.0780 C   0  0  0  0  0  0  0  0  0  0  0  0
   60.4373   32.5234   46.6157 H   0  0  0  0  0  0  0  0  0  0  0  0
   60.9835   33.2408   45.0077 H   0  0  0  0  0  0  0  0  0  0  0  0
   62.1580   33.8160   46.6840 C   0  0  0  0  0  0  0  0  0  0  0  0
   62.9049   33.8203   45.8765 H   0  0  0  0  0  0  0  0  0  0  0  0
   62.0129   34.8045   47.1442 H   0  0  0  0  0  0  0  0  0  0  0  0
   62.6720   32.8730   47.8170 C   0  0  1  0  0  0  0  0  0  0  0  0
   63.0399   31.9655   47.3159 H   0  0  0  0  0  0  0  0  0  0  0  0
   63.8630   33.4880   48.6030 C   0  0  0  0  0  0  0  0  0  0  0  0
   64.7562   33.4666   47.9613 H   0  0  0  0  0  0  0  0  0  0  0  0
   63.5831   34.5156   48.8783 H   0  0  0  0  0  0  0  0  0  0  0  0
   64.1740   32.7280   49.9040 C   0  0  0  0  0  0  0  0  0  0  0  0
   65.2647   32.6206   49.9982 H   0  0  0  0  0  0  0  0  0  0  0  0
   63.7521   33.3064   50.7391 H   0  0  0  0  0  0  0  0  0  0  0  0
   63.5380   31.3340   49.9330 C   0  0  0  0  0  0  0  0  0  0  0  0
   64.0133   30.7124   49.1599 H   0  0  0  0  0  0  0  0  0  0  0  0
   63.6932   30.9147   50.9380 H   0  0  0  0  0  0  0  0  0  0  0  0
   62.0140   31.3770   49.6690 C   0  0  0  0  0  0  0  0  0  0  0  0
   61.7145   30.4158   49.2259 H   0  0  0  0  0  0  0  0  0  0  0  0
   61.5330   31.5708   50.6391 H   0  0  0  0  0  0  0  0  0  0  0  0
   61.5760   32.4730   48.7490 N   0  0  1  0  0  0  0  0  0  0  0  0
   60.8140   32.0640   48.1550 H   0  0  0  0  0  0  0  0  0  0  0  0
   61.0100   33.6260   49.5070 C   0  0  0  0  0  0  0  0  0  0  0  0
   61.7929   34.0383   50.1605 H   0  0  0  0  0  0  0  0  0  0  0  0
   60.6631   34.3716   48.7764 H   0  0  0  0  0  0  0  0  0  0  0  0
   59.8240   33.2260   50.3600 C   0  0  0  0  0  0  0  0  0  0  0  0
   58.9200   32.2470   49.9150 C   0  0  0  0  0  0  0  0  0  0  0  0
   59.0649   31.7745   48.9323 H   0  0  0  0  0  0  0  0  0  0  0  0
   57.8360   31.8700   50.7160 C   0  0  0  0  0  0  0  0  0  0  0  0
   57.1302   31.1041   50.3621 H   0  0  0  0  0  0  0  0  0  0  0  0
   57.6510   32.4670   51.9650 C   0  0  0  0  0  0  0  0  0  0  0  0
   56.8011   32.1683   52.5962 H   0  0  0  0  0  0  0  0  0  0  0  0
   58.5450   33.4440   52.4140 C   0  0  0  0  0  0  0  0  0  0  0  0
   58.3950   33.9155   53.3964 H   0  0  0  0  0  0  0  0  0  0  0  0
   59.6300   33.8230   51.6160 C   0  0  0  0  0  0  0  0  0  0  0  0
   60.3325   34.5903   51.9733 H   0  0  0  0  0  0  0  0  0  0  0  0
  1  2  1  0
  2  3  2  0
  3  4  1  0
  4  5  1  0
  5  6  2  0
  6  7  1  0
  6  8  1  0
  8  9  1  0
  8 10  2  0
 10 11  1  0
 10 12  1  0
 12 13  1  0
 12 14  2  0
 14 15  1  0
 15 16  1  0
 16 17  1  0
 16 18  1  0
 16 19  1  0
 19 20  1  0
 19 21  1  0
 19 22  1  0
 22 23  1  0
 22 24  1  0
 22 25  1  0
 25 26  1  0
 25 27  1  0
 25 28  1  0
 28 29  1  0
 28 30  1  0
 28 31  1  0
 31 32  1  0
 31 33  1  0
 31 34  1  0
 34 35  1  0
 34 36  1  0
 34 37  1  0
 37 38  1  0
 37 39  1  0
 37 40  1  0
 40 41  1  6
 40 42  1  0
 42 43  1  0
 42 44  1  0
 42 45  1  0
 45 46  1  0
 45 47  1  0
 45 48  1  0
 48 49  1  0
 48 50  1  0
 48 51  1  0
 51 52  1  0
 51 53  1  0
 51 54  1  0
 54 55  1  6
 54 56  1  0
 56 57  1  0
 56 58  1  0
 56 59  1  0
 59 60  2  0
 60 61  1  0
 60 62  1  0
 62 63  1  0
 62 64  2  0
 64 65  1  0
 64 66  1  0
 66 67  1  0
 66 68  2  0
 68 69  1  0
 15  3  1  0
 54 40  1  0
 68 59  1  0
 14  5  1  0
M  CHG  2   4  -1  54   1
M  END
>  <UniqueID>  (95) 
89

>  <SMILES>  (95) 
[H]/N=c1/[n-]c2ccccc2n1CCCCCCCC[C@H]1CCCC[N@H+]1Cc1ccccc1

>  <Energy>  (95) 
112.73173494735134

>  <Genealogy>  (95) 
N=c1[n-]c2ccccc2n1CCCCCCCCC1CCCC[NH+]1Cc1ccccc1 (protonated)
N=c1[n-]c2ccccc2n1CCCCCCCC[C@H]1CCCC[N@H+]1Cc1ccccc1 (chirality)
[H]/N=c1/[n-]c2ccccc2n1CCCCCCCC[C@H]1CCCC[N@H+]1Cc1ccccc1 (cis-trans isomerization)
[H]/N=c1/[n-]c2ccccc2n1CCCCCCCC[C@H]1CCCC[N@H+]1Cc1ccccc1 (3D coordinates assigned)
[H]/N=c1/[n-]c2ccccc2n1CCCCCCCC[C@H]1CCCC[N@H+]1Cc1ccccc1 (nonaromatic ring conformer: 112.73173494735134 kcal/mol)

>  <smiles>  (95) 
N=c1[nH]c2ccccc2n1CCCCCCCCC1CCCCN1Cc1ccccc1

>  <score_type>  (95) 
oracle

>  <origin>  (95) 
adg

>  <m_score__min__energy>  (95) 
-9.9600000000000009

>  <m_primary>  (95) 
energy

$$$$
95:0
     RDKit          3D

 49 52  0  0  0  0  0  0  0  0999 V2000
   54.6690   26.1240   45.9280 O   0  0  0  0  0  0  0  0  0  0  0  0
   55.8040   25.7170   46.2540 N   0  0  0  0  0  0  0  0  0  0  0  0
   55.9160   24.4940   46.8800 O   0  0  0  0  0  0  0  0  0  0  0  0
   56.9770   26.5180   45.9840 C   0  0  0  0  0  0  0  0  0  0  0  0
   58.2620   25.9620   46.0830 C   0  0  0  0  0  0  0  0  0  0  0  0
   59.3920   26.7380   45.8170 C   0  0  0  0  0  0  0  0  0  0  0  0
   59.2650   28.0810   45.4400 C   0  0  0  0  0  0  0  0  0  0  0  0
   60.7470   28.9650   45.1040 Cl  0  0  0  0  0  0  0  0  0  0  0  0
   57.9790   28.6600   45.3350 C   0  0  0  0  0  0  0  0  0  0  0  0
   57.7010   30.3550   44.8850 S   0  0  0  0  0  0  0  0  0  0  0  0
   58.5290   30.7870   43.7080 O   0  0  0  0  0  0  0  0  0  0  0  0
   56.2550   30.5060   44.4950 O   0  0  0  0  0  0  0  0  0  0  0  0
   58.0000   31.3750   46.2590 N   0  0  0  0  0  0  0  0  0  0  0  0
   59.1910   31.3840   47.0590 C   0  0  0  0  0  0  0  0  0  0  0  0
   59.2370   30.5710   48.2000 C   0  0  0  0  0  0  0  0  0  0  0  0
   60.3770   30.5410   49.0080 C   0  0  0  0  0  0  0  0  0  0  0  0
   61.4890   31.3380   48.6910 C   0  0  0  0  0  0  0  0  0  0  0  0
   62.6080   31.3150   49.4710 N   0  0  0  0  0  0  0  0  0  0  0  0
   63.7050   32.0820   49.1840 C   0  0  0  0  0  0  0  0  0  0  0  0
   64.8750   32.0260   50.0300 N   0  0  0  0  0  0  0  0  0  0  0  0
   65.0920   30.8780   50.9270 C   0  0  0  0  0  0  0  0  0  0  0  0
   65.7970   31.3340   52.2060 C   0  0  0  0  0  0  0  0  0  0  0  0
   67.1130   32.0920   51.9310 C   0  0  0  0  0  0  0  0  0  0  0  0
   67.2370   32.6120   50.4900 C   0  0  0  0  0  0  0  0  0  0  0  0
   65.8890   33.0880   49.9390 C   0  0  0  0  0  0  0  0  0  0  0  0
   63.6750   32.9360   48.0700 C   0  0  0  0  0  0  0  0  0  0  0  0
   62.5430   32.9810   47.2580 C   0  0  0  0  0  0  0  0  0  0  0  0
   61.4390   32.1760   47.5560 C   0  0  0  0  0  0  0  0  0  0  0  0
   60.2900   32.2020   46.7510 C   0  0  0  0  0  0  0  0  0  0  0  0
   56.8480   27.8700   45.6190 C   0  0  0  0  0  0  0  0  0  0  0  0
   58.3797   24.9073   46.3722 H   0  0  0  0  0  0  0  0  0  0  0  0
   60.3927   26.2898   45.9045 H   0  0  0  0  0  0  0  0  0  0  0  0
   58.3673   29.9505   48.4620 H   0  0  0  0  0  0  0  0  0  0  0  0
   60.4033   29.8910   49.8951 H   0  0  0  0  0  0  0  0  0  0  0  0
   62.6330   30.6770   50.2990 H   0  0  0  0  0  0  0  0  0  0  0  0
   64.1211   30.4310   51.1867 H   0  0  0  0  0  0  0  0  0  0  0  0
   65.7217   30.1357   50.4147 H   0  0  0  0  0  0  0  0  0  0  0  0
   65.1193   31.9984   52.7621 H   0  0  0  0  0  0  0  0  0  0  0  0
   66.0508   30.4317   52.7817 H   0  0  0  0  0  0  0  0  0  0  0  0
   67.1688   32.9508   52.6161 H   0  0  0  0  0  0  0  0  0  0  0  0
   67.9343   31.3770   52.0865 H   0  0  0  0  0  0  0  0  0  0  0  0
   67.9451   33.4537   50.4749 H   0  0  0  0  0  0  0  0  0  0  0  0
   67.5922   31.7851   49.8575 H   0  0  0  0  0  0  0  0  0  0  0  0
   65.5506   33.9586   50.5200 H   0  0  0  0  0  0  0  0  0  0  0  0
   66.0195   33.3568   48.8804 H   0  0  0  0  0  0  0  0  0  0  0  0
   64.5442   33.5691   47.8382 H   0  0  0  0  0  0  0  0  0  0  0  0
   62.5181   33.6487   46.3842 H   0  0  0  0  0  0  0  0  0  0  0  0
   60.2500   32.8660   45.8749 H   0  0  0  0  0  0  0  0  0  0  0  0
   55.8457   28.3186   45.5541 H   0  0  0  0  0  0  0  0  0  0  0  0
  1  2  2  0
  2  3  1  0
  2  4  1  0
  4  5  2  0
  5  6  1  0
  6  7  2  0
  7  8  1  0
  7  9  1  0
  9 10  1  0
 10 11  2  0
 10 12  2  0
 10 13  1  0
 13 14  1  0
 14 15  2  0
 15 16  1  0
 16 17  2  0
 17 18  1  0
 18 19  2  0
 19 20  1  0
 20 21  1  0
 21 22  1  0
 22 23  1  0
 23 24  1  0
 24 25  1  0
 19 26  1  0
 26 27  2  0
 27 28  1  0
 28 29  2  0
  9 30  2  0
 30  4  1  0
 29 14  1  0
 28 17  1  0
 25 20  1  0
  5 31  1  0
  6 32  1  0
 15 33  1  0
 16 34  1  0
 18 35  1  0
 21 36  1  0
 21 37  1  0
 22 38  1  0
 22 39  1  0
 23 40  1  0
 23 41  1  0
 24 42  1  0
 24 43  1  0
 25 44  1  0
 25 45  1  0
 26 46  1  0
 27 47  1  0
 29 48  1  0
 30 49  1  0
M  CHG  4   2   1   3  -1  13  -1  18   1
M  END
>  <UniqueID>  (96) 
90

>  <SMILES>  (96) 
O=[N+]([O-])c1ccc(Cl)c(S(=O)(=O)[N-]c2ccc3[nH+]c(N4CCCCC4)ccc3c2)c1

>  <Energy>  (96) 
69.16562002517331

>  <Genealogy>  (96) 
O=[N+]([O-])c1ccc(Cl)c(S(=O)(=O)[N-]c2ccc3[nH+]c(N4CCCCC4)ccc3c2)c1 (protonated)
O=[N+]([O-])c1ccc(Cl)c(S(=O)(=O)[N-]c2ccc3[nH+]c(N4CCCCC4)ccc3c2)c1 (3D coordinates assigned)
O=[N+]([O-])c1ccc(Cl)c(S(=O)(=O)[N-]c2ccc3[nH+]c(N4CCCCC4)ccc3c2)c1 (nonaromatic ring conformer: 69.16562002517331 kcal/mol)

>  <smiles>  (96) 
O=[N+]([O-])c1ccc(Cl)c(S(=O)(=O)Nc2ccc3nc(N4CCCCC4)ccc3c2)c1

>  <score_type>  (96) 
oracle

>  <origin>  (96) 
adg

>  <m_score__min__energy>  (96) 
-9.6500000000000004

>  <m_primary>  (96) 
energy

$$$$
96:0
     RDKit          3D

 28 29  0  0  0  0  0  0  0  0999 V2000
   56.7950   22.8060   46.1140 C   0  0  0  0  0  0  0  0  0  0  0  0
   56.6060   24.0320   46.8130 O   0  0  0  0  0  0  0  0  0  0  0  0
   57.1080   25.2790   46.4030 C   0  0  0  0  0  0  0  0  0  0  0  0
   58.4970   25.5250   46.3780 C   0  0  0  0  0  0  0  0  0  0  0  0
   58.9970   26.7610   45.9710 C   0  0  0  0  0  0  0  0  0  0  0  0
   58.1210   27.7750   45.5810 C   0  0  0  0  0  0  0  0  0  0  0  0
   58.5940   29.0250   45.1700 C   0  0  0  0  0  0  0  0  0  0  0  0
   57.6850   30.0200   44.7910 C   0  0  0  0  0  0  0  0  0  0  0  0
   58.1710   31.3660   44.3290 C   0  0  0  0  0  0  0  0  0  0  0  0
   56.3120   29.7180   44.8260 C   0  0  0  0  0  0  0  0  0  0  0  0
   55.4600   30.5790   44.4820 O   0  0  0  0  0  0  0  0  0  0  0  0
   55.8960   28.5180   45.2230 O   0  0  0  0  0  0  0  0  0  0  0  0
   56.7300   27.5490   45.5980 C   0  0  0  0  0  0  0  0  0  0  0  0
   56.2130   26.3080   46.0060 C   0  0  0  0  0  0  0  0  0  0  0  0
   54.8130   26.1680   45.9920 O   0  0  0  0  0  0  0  0  0  0  0  0
   54.0810   25.0060   45.6180 C   0  0  0  0  0  0  0  0  0  0  0  0
   56.9212   21.9871   46.8375 H   0  0  0  0  0  0  0  0  0  0  0  0
   55.9172   22.6050   45.4822 H   0  0  0  0  0  0  0  0  0  0  0  0
   57.6925   22.8787   45.4822 H   0  0  0  0  0  0  0  0  0  0  0  0
   59.1945   24.7312   46.6836 H   0  0  0  0  0  0  0  0  0  0  0  0
   60.0827   26.9372   45.9572 H   0  0  0  0  0  0  0  0  0  0  0  0
   59.6753   29.2256   45.1446 H   0  0  0  0  0  0  0  0  0  0  0  0
   58.3977   31.9939   45.2033 H   0  0  0  0  0  0  0  0  0  0  0  0
   59.0802   31.2393   43.7229 H   0  0  0  0  0  0  0  0  0  0  0  0
   57.3906   31.8494   43.7229 H   0  0  0  0  0  0  0  0  0  0  0  0
   53.7472   24.4761   46.5223 H   0  0  0  0  0  0  0  0  0  0  0  0
   53.2051   25.3007   45.0213 H   0  0  0  0  0  0  0  0  0  0  0  0
   54.7250   24.3432   45.0213 H   0  0  0  0  0  0  0  0  0  0  0  0
  1  2  1  0
  2  3  1  0
  3  4  2  0
  4  5  1  0
  5  6  2  0
  6  7  1  0
  7  8  2  0
  8  9  1  0
  8 10  1  0
 10 11  2  0
 10 12  1  0
 12 13  1  0
 13 14  2  0
 14 15  1  0
 15 16  1  0
 14  3  1  0
 13  6  1  0
  1 17  1  0
  1 18  1  0
  1 19  1  0
  4 20  1  0
  5 21  1  0
  7 22  1  0
  9 23  1  0
  9 24  1  0
  9 25  1  0
 16 26  1  0
 16 27  1  0
 16 28  1  0
M  END
>  <UniqueID>  (97) 
91

>  <SMILES>  (97) 
COc1ccc2cc(C)c(=O)oc2c1OC

>  <Energy>  (97) 
34.33778363357128

>  <Genealogy>  (97) 
COc1ccc2cc(C)c(=O)oc2c1OC (3D coordinates assigned)
COc1ccc2cc(C)c(=O)oc2c1OC (optimized conformer: 34.33778363357128 kcal/mol)

>  <smiles>  (97) 
COc1ccc2cc(C)c(=O)oc2c1OC

>  <score_type>  (97) 
oracle

>  <origin>  (97) 
adg

>  <m_score__min__energy>  (97) 
-6.4299999999999997

>  <m_primary>  (97) 
energy

$$$$
97:0
     RDKit          3D

 36 37  0  0  0  0  0  0  0  0999 V2000
   57.7720   30.8340   45.2570 C   0  0  0  0  0  0  0  0  0  0  0  0
   58.3940   32.1840   45.5070 C   0  0  0  0  0  0  0  0  0  0  0  0
   57.7670   33.3250   44.9800 C   0  0  0  0  0  0  0  0  0  0  0  0
   58.3090   34.5920   45.1870 C   0  0  0  0  0  0  0  0  0  0  0  0
   59.4860   34.7390   45.9180 C   0  0  0  0  0  0  0  0  0  0  0  0
   60.1280   33.6200   46.4620 C   0  0  0  0  0  0  0  0  0  0  0  0
   61.3490   33.8180   47.1870 N   0  0  0  0  0  0  0  0  0  0  0  0
   61.2930   34.0730   48.6290 C   0  0  0  0  0  0  0  0  0  0  0  0
   62.6920   33.9970   49.2480 C   0  0  0  0  0  0  0  0  0  0  0  0
   63.4370   32.8650   48.6640 N   0  0  0  0  0  0  0  0  0  0  0  0
   64.6780   32.6260   49.4200 C   0  0  0  0  0  0  0  0  0  0  0  0
   63.7410   33.0910   47.2290 C   0  0  0  0  0  0  0  0  0  0  0  0
   62.6250   33.8410   46.4640 C   0  0  0  0  0  0  0  0  0  0  0  0
   59.5700   32.3280   46.2890 C   0  0  0  0  0  0  0  0  0  0  0  0
   60.2460   31.1150   46.8840 C   0  0  0  0  0  0  0  0  0  0  0  0
   57.5487   30.3494   46.2189 H   0  0  0  0  0  0  0  0  0  0  0  0
   56.8410   30.9595   44.6848 H   0  0  0  0  0  0  0  0  0  0  0  0
   58.4724   30.2079   44.6848 H   0  0  0  0  0  0  0  0  0  0  0  0
   56.8395   33.2175   44.3985 H   0  0  0  0  0  0  0  0  0  0  0  0
   57.8064   35.4782   44.7723 H   0  0  0  0  0  0  0  0  0  0  0  0
   59.9138   35.7411   46.0688 H   0  0  0  0  0  0  0  0  0  0  0  0
   60.8757   35.0759   48.8022 H   0  0  0  0  0  0  0  0  0  0  0  0
   60.6570   33.3081   49.0985 H   0  0  0  0  0  0  0  0  0  0  0  0
   63.2324   34.9333   49.0449 H   0  0  0  0  0  0  0  0  0  0  0  0
   62.6007   33.8495   50.3342 H   0  0  0  0  0  0  0  0  0  0  0  0
   62.8510   31.9980   48.7470 H   0  0  0  0  0  0  0  0  0  0  0  0
   64.4642   32.6672   50.4982 H   0  0  0  0  0  0  0  0  0  0  0  0
   65.0785   31.6342   49.1632 H   0  0  0  0  0  0  0  0  0  0  0  0
   65.4182   33.3981   49.1632 H   0  0  0  0  0  0  0  0  0  0  0  0
   64.6662   33.6819   47.1596 H   0  0  0  0  0  0  0  0  0  0  0  0
   63.8380   32.0996   46.7625 H   0  0  0  0  0  0  0  0  0  0  0  0
   62.9336   34.8873   46.3224 H   0  0  0  0  0  0  0  0  0  0  0  0
   62.4766   33.3345   45.4989 H   0  0  0  0  0  0  0  0  0  0  0  0
   60.2112   31.1774   47.9817 H   0  0  0  0  0  0  0  0  0  0  0  0
   59.7249   30.2050   46.5518 H   0  0  0  0  0  0  0  0  0  0  0  0
   61.2940   31.0794   46.5518 H   0  0  0  0  0  0  0  0  0  0  0  0
  1  2  1  0
  2  3  2  0
  3  4  1  0
  4  5  2  0
  5  6  1  0
  6  7  1  0
  7  8  1  0
  8  9  1  0
  9 10  1  0
 10 11  1  0
 10 12  1  0
 12 13  1  0
  6 14  2  0
 14 15  1  0
 14  2  1  0
 13  7  1  0
  1 16  1  0
  1 17  1  0
  1 18  1  0
  3 19  1  0
  4 20  1  0
  5 21  1  0
  8 22  1  0
  8 23  1  0
  9 24  1  0
  9 25  1  0
 10 26  1  0
 11 27  1  0
 11 28  1  0
 11 29  1  0
 12 30  1  0
 12 31  1  0
 13 32  1  0
 13 33  1  0
 15 34  1  0
 15 35  1  0
 15 36  1  0
M  CHG  1  10   1
M  END
>  <UniqueID>  (98) 
92

>  <SMILES>  (98) 
Cc1cccc(N2CC[NH+](C)CC2)c1C

>  <Energy>  (98) 
47.233126964017934

>  <Genealogy>  (98) 
Cc1cccc(N2CC[NH+](C)CC2)c1C (protonated)
Cc1cccc(N2CC[NH+](C)CC2)c1C (3D coordinates assigned)
Cc1cccc(N2CC[NH+](C)CC2)c1C (nonaromatic ring conformer: 47.233126964017934 kcal/mol)

>  <smiles>  (98) 
Cc1cccc(N2CCN(C)CC2)c1C

>  <score_type>  (98) 
oracle

>  <origin>  (98) 
adg

>  <m_score__min__energy>  (98) 
-4.4800000000000004

>  <m_primary>  (98) 
energy

$$$$
