0:0
     RDKit          3D

 49 51  0  0  0  0  0  0  0  0999 V2000
   65.1290   31.9200   50.0410 C   0  0  0  0  0  0  0  0  0  0  0  0
   63.9910   32.3240   49.1620 C   0  0  0  0  0  0  0  0  0  0  0  0
   62.6450   32.1750   49.4810 C   0  0  0  0  0  0  0  0  0  0  0  0
   61.9600   32.7440   48.4250 C   0  0  0  0  0  0  0  0  0  0  0  0
   60.5870   32.8850   48.1920 C   0  0  0  0  0  0  0  0  0  0  0  0
   59.4020   32.2020   49.3690 S   0  0  0  0  0  0  0  0  0  0  0  0
   59.4140   30.5700   48.6170 C   0  0  0  0  0  0  0  0  0  0  0  0
   59.7170   29.4460   49.3850 C   0  0  0  0  0  0  0  0  0  0  0  0
   59.7290   28.1790   48.8010 C   0  0  0  0  0  0  0  0  0  0  0  0
   59.4280   28.0080   47.4360 C   0  0  0  0  0  0  0  0  0  0  0  0
   59.4370   26.6290   46.8790 C   0  0  0  0  0  0  0  0  0  0  0  0
   60.0630   26.3660   45.8180 O   0  0  0  0  0  0  0  0  0  0  0  0
   58.7010   25.5910   47.5370 N   0  0  0  0  0  0  0  0  0  0  0  0
   57.9100   24.6030   46.8160 C   0  0  0  0  0  0  0  0  0  0  0  0
   56.4250   24.9010   47.0040 C   0  0  0  0  0  0  0  0  0  0  0  0
   55.9790   25.9720   46.0550 C   0  0  0  0  0  0  0  0  0  0  0  0
   56.9330   26.6730   45.2560 N   0  0  0  0  0  0  0  0  0  0  0  0
   54.7600   26.2850   45.9910 O   0  0  0  0  0  0  0  0  0  0  0  0
   59.1210   29.1560   46.6530 C   0  0  0  0  0  0  0  0  0  0  0  0
   58.8210   29.0710   45.1790 C   0  0  0  0  0  0  0  0  0  0  0  0
   59.0990   30.4220   47.2650 C   0  0  0  0  0  0  0  0  0  0  0  0
   60.1880   33.5860   47.0200 C   0  0  0  0  0  0  0  0  0  0  0  0
   58.7390   33.8010   46.6760 C   0  0  0  0  0  0  0  0  0  0  0  0
   61.1730   34.0560   46.1130 C   0  0  0  0  0  0  0  0  0  0  0  0
   62.5400   33.8760   46.3740 C   0  0  0  0  0  0  0  0  0  0  0  0
   62.8990   33.2190   47.5450 C   0  0  0  0  0  0  0  0  0  0  0  0
   64.1440   32.9710   47.9860 N   0  0  0  0  0  0  0  0  0  0  0  0
   64.8332   32.0250   51.0953 H   0  0  0  0  0  0  0  0  0  0  0  0
   65.3955   30.8723   49.8375 H   0  0  0  0  0  0  0  0  0  0  0  0
   65.9964   32.5651   49.8375 H   0  0  0  0  0  0  0  0  0  0  0  0
   62.2185   31.7056   50.3798 H   0  0  0  0  0  0  0  0  0  0  0  0
   59.9473   29.5588   50.4547 H   0  0  0  0  0  0  0  0  0  0  0  0
   59.9771   27.3011   49.4156 H   0  0  0  0  0  0  0  0  0  0  0  0
   58.1592   24.6448   45.7454 H   0  0  0  0  0  0  0  0  0  0  0  0
   58.1339   23.5995   47.2069 H   0  0  0  0  0  0  0  0  0  0  0  0
   55.8455   23.9854   46.8145 H   0  0  0  0  0  0  0  0  0  0  0  0
   56.2601   25.2484   48.0346 H   0  0  0  0  0  0  0  0  0  0  0  0
   56.6210   27.4300   44.6080 H   0  0  0  0  0  0  0  0  0  0  0  0
   57.9490   26.4410   45.3150 H   0  0  0  0  0  0  0  0  0  0  0  0
   57.7718   28.7737   45.0349 H   0  0  0  0  0  0  0  0  0  0  0  0
   58.9913   30.0527   44.7130 H   0  0  0  0  0  0  0  0  0  0  0  0
   59.4809   28.3245   44.7130 H   0  0  0  0  0  0  0  0  0  0  0  0
   58.8300   31.3075   46.6704 H   0  0  0  0  0  0  0  0  0  0  0  0
   58.1514   33.8882   47.6018 H   0  0  0  0  0  0  0  0  0  0  0  0
   58.6350   34.7244   46.0874 H   0  0  0  0  0  0  0  0  0  0  0  0
   58.3713   32.9476   46.0874 H   0  0  0  0  0  0  0  0  0  0  0  0
   60.8603   34.5691   45.1916 H   0  0  0  0  0  0  0  0  0  0  0  0
   63.3041   34.2436   45.6733 H   0  0  0  0  0  0  0  0  0  0  0  0
   65.0430   33.2370   47.5230 H   0  0  0  0  0  0  0  0  0  0  0  0
  1  2  1  0
  2  3  2  0
  3  4  1  0
  4  5  2  0
  5  6  1  0
  6  7  1  0
  7  8  2  0
  8  9  1  0
  9 10  2  0
 10 11  1  0
 11 12  2  0
 11 13  1  0
 13 14  1  0
 14 15  1  0
 15 16  1  0
 16 17  1  0
 16 18  2  0
 10 19  1  0
 19 20  1  0
 19 21  2  0
  5 22  1  0
 22 23  1  0
 22 24  2  0
 24 25  1  0
 25 26  2  0
 26 27  1  0
 27  2  1  0
 26  4  1  0
 21  7  1  0
  1 28  1  0
  1 29  1  0
  1 30  1  0
  3 31  1  0
  8 32  1  0
  9 33  1  0
 14 34  1  0
 14 35  1  0
 15 36  1  0
 15 37  1  0
 17 38  1  0
 17 39  1  0
 20 40  1  0
 20 41  1  0
 20 42  1  0
 21 43  1  0
 23 44  1  0
 23 45  1  0
 23 46  1  0
 24 47  1  0
 25 48  1  0
 27 49  1  0
M  CHG  1  13  -1
M  END
>  <UniqueID>  (1) 
1

>  <SMILES>  (1) 
Cc1cc2c(Sc3ccc(C(=O)[N-]CCC(N)=O)c(C)c3)c(C)ccc2[nH]1

>  <Energy>  (1) 
74.57476084253697

>  <Genealogy>  (1) 
Cc1cc2c(Sc3ccc(C(=O)[N-]CCC(N)=O)c(C)c3)c(C)ccc2[nH]1 (protonated)
Cc1cc2c(Sc3ccc(C(=O)[N-]CCC(N)=O)c(C)c3)c(C)ccc2[nH]1 (3D coordinates assigned)
Cc1cc2c(Sc3ccc(C(=O)[N-]CCC(N)=O)c(C)c3)c(C)ccc2[nH]1 (optimized conformer: 74.57476084253697 kcal/mol)

>  <smiles>  (1) 
Cc1cc2c(Sc3ccc(C(=O)NCCC(N)=O)c(C)c3)c(C)ccc2[nH]1

>  <score_type>  (1) 
oracle

>  <origin>  (1) 
adg

>  <m_score__min__energy>  (1) 
-10.98

>  <m_primary>  (1) 
energy

$$$$
1:0
     RDKit          3D

 38 39  0  0  1  0  0  0  0  0999 V2000
   59.5450   28.9440   45.3030 C   0  0  0  0  0  0  0  0  0  0  0  0
   58.4870   28.5360   44.6140 C   0  0  0  0  0  0  0  0  0  0  0  0
   57.0990   28.5350   45.2010 C   0  0  0  0  0  0  0  0  0  0  0  0
   58.4420   33.8110   45.4780 N   0  0  0  0  0  0  0  0  0  0  0  0
   57.9730   32.8720   44.7270 C   0  0  0  0  0  0  0  0  0  0  0  0
   57.0270   30.9750   43.0240 C   0  0  0  0  0  0  0  0  0  0  0  0
   57.6120   32.1030   42.5170 C   0  0  0  0  0  0  0  0  0  0  0  0
   57.7520   32.3370   41.0610 C   0  0  0  0  0  0  0  0  0  0  0  0
   58.0720   33.0270   43.3940 N   0  0  0  0  0  0  0  0  0  0  0  0
   56.9210   30.8060   44.3880 C   0  0  0  0  0  0  0  0  0  0  0  0
   56.3710   29.7450   44.8720 N   0  0  0  0  0  0  0  0  0  0  0  0
   59.3600   33.4290   46.4990 C   0  0  0  0  0  0  0  0  0  0  0  0
   59.1280   32.5110   47.3270 O   0  0  0  0  0  0  0  0  0  0  0  0
   60.5960   34.1340   46.5690 N   0  0  0  0  0  0  0  0  0  0  0  0
   61.5880   33.8300   47.5540 C   0  0  0  0  0  0  0  0  0  0  0  0
   62.7940   33.3190   47.1160 C   0  0  0  0  0  0  0  0  0  0  0  0
   63.7930   33.0080   48.0440 C   0  0  0  0  0  0  0  0  0  0  0  0
   63.5940   33.2020   49.4000 C   0  0  0  0  0  0  0  0  0  0  0  0
   62.3790   33.7130   49.8070 C   0  0  0  0  0  0  0  0  0  0  0  0
   61.3830   34.0260   48.9020 C   0  0  0  0  0  0  0  0  0  0  0  0
   57.3950   31.7570   45.2100 N   0  0  0  0  0  0  0  0  0  0  0  0
   60.5423   28.9297   44.8392 H   0  0  0  0  0  0  0  0  0  0  0  0
   59.4248   29.2966   46.3380 H   0  0  0  0  0  0  0  0  0  0  0  0
   58.6276   28.1870   43.5804 H   0  0  0  0  0  0  0  0  0  0  0  0
   56.5467   27.6695   44.8062 H   0  0  0  0  0  0  0  0  0  0  0  0
   57.1923   28.4808   46.2957 H   0  0  0  0  0  0  0  0  0  0  0  0
   56.6410   30.2024   42.3428 H   0  0  0  0  0  0  0  0  0  0  0  0
   58.3100   33.2697   40.8915 H   0  0  0  0  0  0  0  0  0  0  0  0
   58.2957   31.4964   40.6051 H   0  0  0  0  0  0  0  0  0  0  0  0
   56.7542   32.4187   40.6051 H   0  0  0  0  0  0  0  0  0  0  0  0
   58.5130   33.8790   42.9850 H   0  0  0  0  0  0  0  0  0  0  0  0
   60.8400   34.9110   45.8980 H   0  0  0  0  0  0  0  0  0  0  0  0
   62.9680   33.1573   46.0420 H   0  0  0  0  0  0  0  0  0  0  0  0
   64.7525   32.6026   47.6905 H   0  0  0  0  0  0  0  0  0  0  0  0
   64.3796   32.9565   50.1298 H   0  0  0  0  0  0  0  0  0  0  0  0
   62.1984   33.8755   50.8798 H   0  0  0  0  0  0  0  0  0  0  0  0
   60.4249   34.4323   49.2584 H   0  0  0  0  0  0  0  0  0  0  0  0
   57.3080   31.6150   46.2180 H   0  0  0  0  0  0  0  0  0  0  0  0
  1  2  2  0
  2  3  1  0
  3  4  1  0
  4  5  2  0
  5  6  1  0
  6  7  2  0
  7  8  1  0
  7  9  1  0
  9 10  1  0
 10 11  2  0
 11 12  1  0
 12 13  2  0
 12 14  1  0
 14 15  1  0
 15 16  2  0
 16 17  1  0
 17 18  2  0
 18 19  1  0
 19 20  2  0
 10 21  1  0
 21  5  1  0
 20 15  1  0
  1 22  1  0
  1 23  1  0
  2 24  1  0
  3 25  1  0
  3 26  1  0
  6 27  1  0
  8 28  1  0
  8 29  1  0
  8 30  1  0
  9 31  1  0
 14 32  1  0
 16 33  1  0
 17 34  1  0
 18 35  1  0
 19 36  1  0
 20 37  1  0
 21 38  1  0
M  END
>  <smiles>  (2) 
C=CCN=c1cc(C)[nH]c(=NC(=O)Nc2ccccc2)[nH]1

>  <score_type>  (2) 
oracle

>  <origin>  (2) 
adg

>  <m_score__min__energy>  (2) 
-7.46

>  <m_primary>  (2) 
energy

$$$$
2:0
     RDKit          3D

 47 49  0  0  0  0  0  0  0  0999 V2000
   55.1470   29.3750   45.0100 O   0  0  0  0  0  0  0  0  0  0  0  0
   56.2710   29.7850   44.6150 C   0  0  0  0  0  0  0  0  0  0  0  0
   57.3520   28.7970   44.3170 C   0  0  0  0  0  0  0  0  0  0  0  0
   58.0570   28.4380   45.5410 N   0  0  0  0  0  0  0  0  0  0  0  0
   57.6770   27.3440   46.3860 C   0  0  0  0  0  0  0  0  0  0  0  0
   57.7660   27.4710   47.6390 O   0  0  0  0  0  0  0  0  0  0  0  0
   57.1800   26.0670   45.8050 C   0  0  0  0  0  0  0  0  0  0  0  0
   58.1090   25.0890   45.3920 C   0  0  0  0  0  0  0  0  0  0  0  0
   57.6770   23.8800   44.8410 C   0  0  0  0  0  0  0  0  0  0  0  0
   56.3140   23.6250   44.6950 C   0  0  0  0  0  0  0  0  0  0  0  0
   55.3800   24.5790   45.0980 C   0  0  0  0  0  0  0  0  0  0  0  0
   55.7990   25.7940   45.6510 C   0  0  0  0  0  0  0  0  0  0  0  0
   54.8310   26.7140   46.0380 O   0  0  0  0  0  0  0  0  0  0  0  0
   56.5180   31.1830   44.4220 N   0  0  0  0  0  0  0  0  0  0  0  0
   57.4260   31.9970   45.1800 C   0  0  0  0  0  0  0  0  0  0  0  0
   57.6060   33.3650   44.9060 C   0  0  0  0  0  0  0  0  0  0  0  0
   58.4840   34.1260   45.6830 C   0  0  0  0  0  0  0  0  0  0  0  0
   59.1750   33.5360   46.7440 C   0  0  0  0  0  0  0  0  0  0  0  0
   58.9870   32.1790   47.0400 C   0  0  0  0  0  0  0  0  0  0  0  0
   59.8580   31.4350   48.3830 S   0  0  0  0  0  0  0  0  0  0  0  0
   60.6700   30.2810   47.8640 O   0  0  0  0  0  0  0  0  0  0  0  0
   60.8070   32.4410   48.9750 O   0  0  0  0  0  0  0  0  0  0  0  0
   58.7730   30.8620   49.6260 N   0  0  0  0  0  0  0  0  0  0  0  0
   59.4170   29.8100   50.4300 C   0  0  0  0  0  0  0  0  0  0  0  0
   58.5690   29.4790   51.6750 C   0  0  0  0  0  0  0  0  0  0  0  0
   57.2740   30.0380   51.5710 O   0  0  0  0  0  0  0  0  0  0  0  0
   57.3610   31.4530   51.5590 C   0  0  0  0  0  0  0  0  0  0  0  0
   58.3460   31.9720   50.4880 C   0  0  0  0  0  0  0  0  0  0  0  0
   58.1020   31.4190   46.2620 C   0  0  0  0  0  0  0  0  0  0  0  0
   56.9066   27.8931   43.8758 H   0  0  0  0  0  0  0  0  0  0  0  0
   58.0652   29.2473   43.6109 H   0  0  0  0  0  0  0  0  0  0  0  0
   59.1863   25.2806   45.5051 H   0  0  0  0  0  0  0  0  0  0  0  0
   58.4135   23.1279   44.5218 H   0  0  0  0  0  0  0  0  0  0  0  0
   55.9756   22.6720   44.2622 H   0  0  0  0  0  0  0  0  0  0  0  0
   54.3056   24.3747   44.9802 H   0  0  0  0  0  0  0  0  0  0  0  0
   57.0549   33.8366   44.0790 H   0  0  0  0  0  0  0  0  0  0  0  0
   58.6313   35.1927   45.4583 H   0  0  0  0  0  0  0  0  0  0  0  0
   59.8688   34.1382   47.3490 H   0  0  0  0  0  0  0  0  0  0  0  0
   59.5272   28.9035   49.8168 H   0  0  0  0  0  0  0  0  0  0  0  0
   60.4028   30.1703   50.7593 H   0  0  0  0  0  0  0  0  0  0  0  0
   58.4824   28.3866   51.7709 H   0  0  0  0  0  0  0  0  0  0  0  0
   59.0644   29.9061   52.5594 H   0  0  0  0  0  0  0  0  0  0  0  0
   56.3631   31.8668   51.3517 H   0  0  0  0  0  0  0  0  0  0  0  0
   57.7337   31.7751   52.5425 H   0  0  0  0  0  0  0  0  0  0  0  0
   57.8493   32.7394   49.8762 H   0  0  0  0  0  0  0  0  0  0  0  0
   59.2265   32.4065   50.9840 H   0  0  0  0  0  0  0  0  0  0  0  0
   57.9370   30.3586   46.5037 H   0  0  0  0  0  0  0  0  0  0  0  0
  1  2  2  0
  2  3  1  0
  3  4  1  0
  4  5  1  0
  5  6  2  0
  5  7  1  0
  7  8  2  0
  8  9  1  0
  9 10  2  0
 10 11  1  0
 11 12  2  0
 12 13  1  0
  2 14  1  0
 14 15  1  0
 15 16  2  0
 16 17  1  0
 17 18  2  0
 18 19  1  0
 19 20  1  0
 20 21  2  0
 20 22  2  0
 20 23  1  0
 23 24  1  0
 24 25  1  0
 25 26  1  0
 26 27  1  0
 27 28  1  0
 19 29  2  0
 12  7  1  0
 29 15  1  0
 28 23  1  0
  3 30  1  0
  3 31  1  0
  8 32  1  0
  9 33  1  0
 10 34  1  0
 11 35  1  0
 16 36  1  0
 17 37  1  0
 18 38  1  0
 24 39  1  0
 24 40  1  0
 25 41  1  0
 25 42  1  0
 27 43  1  0
 27 44  1  0
 28 45  1  0
 28 46  1  0
 29 47  1  0
M  CHG  3   4  -1  13  -1  14  -1
M  END
>  <UniqueID>  (3) 
2

>  <SMILES>  (3) 
O=C(C[N-]C(=O)c1ccccc1[O-])[N-]c1cccc(S(=O)(=O)N2CCOCC2)c1

>  <Energy>  (3) 
58.6134905027043

>  <Genealogy>  (3) 
O=C(C[N-]C(=O)c1ccccc1[O-])[N-]c1cccc(S(=O)(=O)N2CCOCC2)c1 (protonated)
O=C(C[N-]C(=O)c1ccccc1[O-])[N-]c1cccc(S(=O)(=O)N2CCOCC2)c1 (3D coordinates assigned)
O=C(C[N-]C(=O)c1ccccc1[O-])[N-]c1cccc(S(=O)(=O)N2CCOCC2)c1 (nonaromatic ring conformer: 58.6134905027043 kcal/mol)

>  <smiles>  (3) 
O=C(CNC(=O)c1ccccc1O)Nc1cccc(S(=O)(=O)N2CCOCC2)c1

>  <score_type>  (3) 
oracle

>  <origin>  (3) 
adg

>  <m_score__min__energy>  (3) 
-16.52

>  <m_primary>  (3) 
energy

$$$$
3:0
     RDKit          3D

 50 54  0  0  0  0  0  0  0  0999 V2000
   56.9424   20.1654   42.4736 H   0  0  0  0  0  0  0  0  0  0  0  0
   56.9760   21.0980   43.0560 C   0  0  0  0  0  0  0  0  0  0  0  0
   55.9130   21.9410   43.1440 N   0  0  0  0  0  0  0  0  0  0  0  0
   56.1920   23.0160   43.9090 C   0  0  0  0  0  0  0  0  0  0  0  0
   55.3220   23.9530   44.1320 N   0  0  0  0  0  0  0  0  0  0  0  0
   54.9490   24.5840   45.7030 S   0  0  0  0  0  0  0  0  0  0  0  0
   54.6510   23.4560   46.6510 O   0  0  0  0  0  0  0  0  0  0  0  0
   53.7530   25.4900   45.6210 O   0  0  0  0  0  0  0  0  0  0  0  0
   56.3350   25.4960   46.2920 C   0  0  0  0  0  0  0  0  0  0  0  0
   57.3030   24.8710   47.0920 C   0  0  0  0  0  0  0  0  0  0  0  0
   57.1912   23.8103   47.3609 H   0  0  0  0  0  0  0  0  0  0  0  0
   58.4090   25.5930   47.5480 C   0  0  0  0  0  0  0  0  0  0  0  0
   59.1531   25.1026   48.1929 H   0  0  0  0  0  0  0  0  0  0  0  0
   58.5770   26.9360   47.1900 C   0  0  0  0  0  0  0  0  0  0  0  0
   59.7060   27.6570   47.7090 N   0  0  0  0  0  0  0  0  0  0  0  0
   59.9390   28.9300   47.5740 C   0  0  0  0  0  0  0  0  0  0  0  0
   59.0310   30.0210   46.6660 S   0  0  0  0  0  0  0  0  0  0  0  0
   60.0580   31.3200   46.9910 C   0  0  0  0  0  0  0  0  0  0  0  0
   59.7990   32.7070   46.5490 C   0  0  0  0  0  0  0  0  0  0  0  0
   59.2410   32.9470   45.2820 C   0  0  0  0  0  0  0  0  0  0  0  0
   59.0061   32.1019   44.6183 H   0  0  0  0  0  0  0  0  0  0  0  0
   58.9830   34.2550   44.8610 C   0  0  0  0  0  0  0  0  0  0  0  0
   58.5541   34.4366   43.8644 H   0  0  0  0  0  0  0  0  0  0  0  0
   59.2690   35.3320   45.7040 C   0  0  0  0  0  0  0  0  0  0  0  0
   59.0698   36.3607   45.3692 H   0  0  0  0  0  0  0  0  0  0  0  0
   59.8080   35.1020   46.9720 C   0  0  0  0  0  0  0  0  0  0  0  0
   60.0298   35.9502   47.6364 H   0  0  0  0  0  0  0  0  0  0  0  0
   60.0660   33.7960   47.3980 C   0  0  0  0  0  0  0  0  0  0  0  0
   60.4797   33.6191   48.4018 H   0  0  0  0  0  0  0  0  0  0  0  0
   61.1140   30.8490   47.7930 C   0  0  0  0  0  0  0  0  0  0  0  0
   62.2760   31.6610   48.2190 C   0  0  0  0  0  0  0  0  0  0  0  0
   62.6760   31.6940   49.5670 C   0  0  0  0  0  0  0  0  0  0  0  0
   62.1250   31.1061   50.3158 H   0  0  0  0  0  0  0  0  0  0  0  0
   63.7700   32.4700   49.9600 C   0  0  0  0  0  0  0  0  0  0  0  0
   64.0845   32.4829   51.0140 H   0  0  0  0  0  0  0  0  0  0  0  0
   64.4650   33.2300   49.0140 C   0  0  0  0  0  0  0  0  0  0  0  0
   65.3270   33.8393   49.3233 H   0  0  0  0  0  0  0  0  0  0  0  0
   64.0640   33.2150   47.6760 C   0  0  0  0  0  0  0  0  0  0  0  0
   64.6096   33.8152   46.9329 H   0  0  0  0  0  0  0  0  0  0  0  0
   62.9710   32.4390   47.2790 C   0  0  0  0  0  0  0  0  0  0  0  0
   62.6540   32.4378   46.2257 H   0  0  0  0  0  0  0  0  0  0  0  0
   61.0260   29.5260   48.1080 N   0  0  0  0  0  0  0  0  0  0  0  0
   61.7410   29.0130   48.6720 H   0  0  0  0  0  0  0  0  0  0  0  0
   57.5930   27.5680   46.4100 C   0  0  0  0  0  0  0  0  0  0  0  0
   57.6948   28.6339   46.1580 H   0  0  0  0  0  0  0  0  0  0  0  0
   56.4850   26.8470   45.9530 C   0  0  0  0  0  0  0  0  0  0  0  0
   55.7292   27.3422   45.3256 H   0  0  0  0  0  0  0  0  0  0  0  0
   57.7680   22.9640   44.5110 S   0  0  0  0  0  0  0  0  0  0  0  0
   58.1100   21.5000   43.7560 C   0  0  0  0  0  0  0  0  0  0  0  0
   59.0642   20.9550   43.8067 H   0  0  0  0  0  0  0  0  0  0  0  0
  1  2  1  0
  2  3  1  0
  3  4  1  0
  4  5  2  0
  5  6  1  0
  6  7  2  0
  6  8  2  0
  6  9  1  0
  9 10  2  0
 10 11  1  0
 10 12  1  0
 12 13  1  0
 12 14  2  0
 14 15  1  0
 15 16  2  3
 16 17  1  0
 17 18  1  0
 18 19  1  0
 19 20  2  0
 20 21  1  0
 20 22  1  0
 22 23  1  0
 22 24  2  0
 24 25  1  0
 24 26  1  0
 26 27  1  0
 26 28  2  0
 28 29  1  0
 18 30  2  0
 30 31  1  0
 31 32  2  0
 32 33  1  0
 32 34  1  0
 34 35  1  0
 34 36  2  0
 36 37  1  0
 36 38  1  0
 38 39  1  0
 38 40  2  0
 40 41  1  0
 30 42  1  0
 42 43  1  0
 14 44  1  0
 44 45  1  0
 44 46  2  0
 46 47  1  0
  4 48  1  0
 48 49  1  0
 49 50  1  0
 49  2  2  0
 46  9  1  0
 42 16  1  0
 28 19  1  0
 40 31  1  0
M  CHG  1   3  -1
M  END
>  <UniqueID>  (4) 
3

>  <SMILES>  (4) 
O=S(=O)(/N=c1/[n-]ccs1)c1ccc(N=c2[nH]c(-c3ccccc3)c(-c3ccccc3)s2)cc1

>  <Energy>  (4) 
137.32111167570466

>  <Genealogy>  (4) 
O=S(=O)(N=c1[n-]ccs1)c1ccc(N=c2[nH]c(-c3ccccc3)c(-c3ccccc3)s2)cc1 (protonated)
O=S(=O)(/N=c1/[n-]ccs1)c1ccc(N=c2[nH]c(-c3ccccc3)c(-c3ccccc3)s2)cc1 (cis-trans isomerization)
O=S(=O)(/N=c1/[n-]ccs1)c1ccc(N=c2[nH]c(-c3ccccc3)c(-c3ccccc3)s2)cc1 (3D coordinates assigned)
O=S(=O)(/N=c1/[n-]ccs1)c1ccc(N=c2[nH]c(-c3ccccc3)c(-c3ccccc3)s2)cc1 (optimized conformer: 137.32111167570466 kcal/mol)

>  <smiles>  (4) 
O=S(=O)(N=c1[nH]ccs1)c1ccc(N=c2[nH]c(-c3ccccc3)c(-c3ccccc3)s2)cc1

>  <score_type>  (4) 
oracle

>  <origin>  (4) 
adg

>  <m_score__min__energy>  (4) 
-11.32

>  <m_primary>  (4) 
energy

$$$$
4:0
     RDKit          3D

 37 38  0  0  0  0  0  0  0  0999 V2000
   55.9390   21.4670   43.8660 N   0  0  0  0  0  0  0  0  0  0  0  0
   55.6600   23.1700   43.7670 S   0  0  0  0  0  0  0  0  0  0  0  0
   54.3040   23.4140   43.1650 O   0  0  0  0  0  0  0  0  0  0  0  0
   56.7140   23.7970   42.8990 O   0  0  0  0  0  0  0  0  0  0  0  0
   55.7310   23.8680   45.4120 C   0  0  0  0  0  0  0  0  0  0  0  0
   54.6710   24.9530   45.6330 C   0  0  0  0  0  0  0  0  0  0  0  0
   55.2650   26.2320   46.0120 N   0  0  0  0  0  0  0  0  0  0  0  0
   56.6580   26.5220   46.1950 C   0  0  0  0  0  0  0  0  0  0  0  0
   57.1820   26.2720   47.3110 O   0  0  0  0  0  0  0  0  0  0  0  0
   57.5250   27.0870   45.1020 C   0  0  0  0  0  0  0  0  0  0  0  0
   57.5550   28.5880   45.1390 C   0  0  0  0  0  0  0  0  0  0  0  0
   58.9110   29.5500   45.4190 S   0  0  0  0  0  0  0  0  0  0  0  0
   58.0310   30.9910   45.3880 C   0  0  0  0  0  0  0  0  0  0  0  0
   58.5840   32.3110   45.5640 N   0  0  0  0  0  0  0  0  0  0  0  0
   59.5660   32.5390   46.6320 C   0  0  0  0  0  0  0  0  0  0  0  0
   59.6120   34.0220   47.0120 C   0  0  0  0  0  0  0  0  0  0  0  0
   59.7700   34.8290   45.8630 O   0  0  0  0  0  0  0  0  0  0  0  0
   58.6150   34.7230   45.0530 C   0  0  0  0  0  0  0  0  0  0  0  0
   58.4730   33.3060   44.4910 C   0  0  0  0  0  0  0  0  0  0  0  0
   56.7130   30.7570   45.1930 N   0  0  0  0  0  0  0  0  0  0  0  0
   56.4490   29.4310   45.0640 C   0  0  0  0  0  0  0  0  0  0  0  0
   55.1540   28.9630   44.8720 O   0  0  0  0  0  0  0  0  0  0  0  0
   55.9290   21.0990   42.8880 H   0  0  0  0  0  0  0  0  0  0  0  0
   55.5706   23.0631   46.1444 H   0  0  0  0  0  0  0  0  0  0  0  0
   56.7193   24.3347   45.5358 H   0  0  0  0  0  0  0  0  0  0  0  0
   54.1022   25.0883   44.7012 H   0  0  0  0  0  0  0  0  0  0  0  0
   54.0177   24.6259   46.4554 H   0  0  0  0  0  0  0  0  0  0  0  0
   58.5495   26.7065   45.2267 H   0  0  0  0  0  0  0  0  0  0  0  0
   57.1047   26.7755   44.1344 H   0  0  0  0  0  0  0  0  0  0  0  0
   59.2836   31.9477   47.5155 H   0  0  0  0  0  0  0  0  0  0  0  0
   60.5596   32.2333   46.2724 H   0  0  0  0  0  0  0  0  0  0  0  0
   58.6738   34.2941   47.5177 H   0  0  0  0  0  0  0  0  0  0  0  0
   60.4693   34.1885   47.6808 H   0  0  0  0  0  0  0  0  0  0  0  0
   57.7275   34.9618   45.6574 H   0  0  0  0  0  0  0  0  0  0  0  0
   58.7074   35.4276   44.2134 H   0  0  0  0  0  0  0  0  0  0  0  0
   57.4908   33.2063   44.0058 H   0  0  0  0  0  0  0  0  0  0  0  0
   59.2775   33.1317   43.7613 H   0  0  0  0  0  0  0  0  0  0  0  0
  1  2  1  0
  2  3  2  0
  2  4  2  0
  2  5  1  0
  5  6  1  0
  6  7  1  0
  7  8  1  0
  8  9  2  0
  8 10  1  0
 10 11  1  0
 11 12  1  0
 12 13  1  0
 13 14  1  0
 14 15  1  0
 15 16  1  0
 16 17  1  0
 17 18  1  0
 18 19  1  0
 13 20  2  0
 20 21  1  0
 21 22  1  0
 21 11  2  0
 19 14  1  0
  1 23  1  0
  5 24  1  0
  5 25  1  0
  6 26  1  0
  6 27  1  0
 10 28  1  0
 10 29  1  0
 15 30  1  0
 15 31  1  0
 16 32  1  0
 16 33  1  0
 18 34  1  0
 18 35  1  0
 19 36  1  0
 19 37  1  0
M  CHG  3   1  -1   7  -1  22  -1
M  END
>  <UniqueID>  (5) 
4

>  <SMILES>  (5) 
[NH-]S(=O)(=O)CC[N-]C(=O)Cc1sc(N2CCOCC2)nc1[O-]

>  <Energy>  (5) 
58.43689640996309

>  <Genealogy>  (5) 
[NH-]S(=O)(=O)CC[N-]C(=O)Cc1sc(N2CCOCC2)nc1[O-] (protonated)
[NH-]S(=O)(=O)CC[N-]C(=O)Cc1sc(N2CCOCC2)nc1[O-] (3D coordinates assigned)
[NH-]S(=O)(=O)CC[N-]C(=O)Cc1sc(N2CCOCC2)nc1[O-] (nonaromatic ring conformer: 58.43689640996309 kcal/mol)

>  <smiles>  (5) 
NS(=O)(=O)CCNC(=O)Cc1sc(N2CCOCC2)nc1O

>  <score_type>  (5) 
oracle

>  <origin>  (5) 
adg

>  <m_score__min__energy>  (5) 
-15.279999999999999

>  <m_primary>  (5) 
energy

$$$$
5:0
     RDKit          3D

 49 51  0  0  0  0  0  0  0  0999 V2000
   56.6410   20.5520   43.5580 C   0  0  0  0  0  0  0  0  0  0  0  0
   56.5680   22.0440   43.5450 C   0  0  0  0  0  0  0  0  0  0  0  0
   55.8500   22.6200   42.6830 O   0  0  0  0  0  0  0  0  0  0  0  0
   57.2350   22.8010   44.5680 N   0  0  0  0  0  0  0  0  0  0  0  0
   57.3820   24.2310   44.5460 C   0  0  0  0  0  0  0  0  0  0  0  0
   57.6100   24.9290   43.3470 C   0  0  0  0  0  0  0  0  0  0  0  0
   57.7740   26.3180   43.3580 C   0  0  0  0  0  0  0  0  0  0  0  0
   57.7250   27.0330   44.5650 C   0  0  0  0  0  0  0  0  0  0  0  0
   57.8970   28.4660   44.5750 N   0  0  0  0  0  0  0  0  0  0  0  0
   57.0830   29.2870   43.6640 C   0  0  0  0  0  0  0  0  0  0  0  0
   57.4400   30.7660   43.7880 C   0  0  0  0  0  0  0  0  0  0  0  0
   57.5610   31.0960   45.2150 N   0  0  0  0  0  0  0  0  0  0  0  0
   57.4550   32.5440   45.5030 C   0  0  0  0  0  0  0  0  0  0  0  0
   58.5120   33.0610   46.4600 C   0  0  0  0  0  0  0  0  0  0  0  0
   58.3650   32.8790   47.8460 C   0  0  0  0  0  0  0  0  0  0  0  0
   59.3380   33.3590   48.7290 C   0  0  0  0  0  0  0  0  0  0  0  0
   60.4710   34.0250   48.2400 C   0  0  0  0  0  0  0  0  0  0  0  0
   61.4940   34.5730   49.1900 C   0  0  0  0  0  0  0  0  0  0  0  0
   60.6010   34.2400   46.8600 C   0  0  0  0  0  0  0  0  0  0  0  0
   59.6300   33.7600   45.9770 C   0  0  0  0  0  0  0  0  0  0  0  0
   58.7330   30.4540   45.8490 C   0  0  0  0  0  0  0  0  0  0  0  0
   59.0520   29.0590   45.2670 C   0  0  0  0  0  0  0  0  0  0  0  0
   57.5180   26.3310   45.7640 C   0  0  0  0  0  0  0  0  0  0  0  0
   57.3570   24.9430   45.7540 C   0  0  0  0  0  0  0  0  0  0  0  0
   56.6585   20.1948   44.5982 H   0  0  0  0  0  0  0  0  0  0  0  0
   55.7621   20.1374   43.0427 H   0  0  0  0  0  0  0  0  0  0  0  0
   57.5562   20.2252   43.0427 H   0  0  0  0  0  0  0  0  0  0  0  0
   57.5600   22.2860   45.4160 H   0  0  0  0  0  0  0  0  0  0  0  0
   57.6597   24.3798   42.3952 H   0  0  0  0  0  0  0  0  0  0  0  0
   57.9428   26.8547   42.4128 H   0  0  0  0  0  0  0  0  0  0  0  0
   57.2621   28.9600   42.6291 H   0  0  0  0  0  0  0  0  0  0  0  0
   56.0238   29.1601   43.9324 H   0  0  0  0  0  0  0  0  0  0  0  0
   58.3955   30.9615   43.2792 H   0  0  0  0  0  0  0  0  0  0  0  0
   56.6581   31.3838   43.3222 H   0  0  0  0  0  0  0  0  0  0  0  0
   57.5486   33.0932   44.5545 H   0  0  0  0  0  0  0  0  0  0  0  0
   56.4808   32.7016   45.9890 H   0  0  0  0  0  0  0  0  0  0  0  0
   57.4802   32.3564   48.2384 H   0  0  0  0  0  0  0  0  0  0  0  0
   59.2137   33.2133   49.8122 H   0  0  0  0  0  0  0  0  0  0  0  0
   61.1650   34.3968   50.2248 H   0  0  0  0  0  0  0  0  0  0  0  0
   62.4577   34.0704   49.0210 H   0  0  0  0  0  0  0  0  0  0  0  0
   61.6095   35.6538   49.0210 H   0  0  0  0  0  0  0  0  0  0  0  0
   61.4713   34.7890   46.4710 H   0  0  0  0  0  0  0  0  0  0  0  0
   59.7423   33.9309   44.8962 H   0  0  0  0  0  0  0  0  0  0  0  0
   59.6091   31.1028   45.7020 H   0  0  0  0  0  0  0  0  0  0  0  0
   58.4942   30.3170   46.9140 H   0  0  0  0  0  0  0  0  0  0  0  0
   59.8819   29.1554   44.5515 H   0  0  0  0  0  0  0  0  0  0  0  0
   59.3188   28.3976   46.1045 H   0  0  0  0  0  0  0  0  0  0  0  0
   57.4824   26.8779   46.7177 H   0  0  0  0  0  0  0  0  0  0  0  0
   57.2094   24.4043   46.7016 H   0  0  0  0  0  0  0  0  0  0  0  0
  1  2  1  0
  2  3  2  0
  2  4  1  0
  4  5  1  0
  5  6  2  0
  6  7  1  0
  7  8  2  0
  8  9  1  0
  9 10  1  0
 10 11  1  0
 11 12  1  0
 12 13  1  0
 13 14  1  0
 14 15  2  0
 15 16  1  0
 16 17  2  0
 17 18  1  0
 17 19  1  0
 19 20  2  0
 12 21  1  0
 21 22  1  0
  8 23  1  0
 23 24  2  0
 24  5  1  0
 22  9  1  0
 20 14  1  0
  1 25  1  0
  1 26  1  0
  1 27  1  0
  4 28  1  0
  6 29  1  0
  7 30  1  0
 10 31  1  0
 10 32  1  0
 11 33  1  0
 11 34  1  0
 13 35  1  0
 13 36  1  0
 15 37  1  0
 16 38  1  0
 18 39  1  0
 18 40  1  0
 18 41  1  0
 19 42  1  0
 20 43  1  0
 21 44  1  0
 21 45  1  0
 22 46  1  0
 22 47  1  0
 23 48  1  0
 24 49  1  0
M  END
>  <UniqueID>  (6) 
5

>  <SMILES>  (6) 
CC(=O)Nc1ccc(N2CCN(Cc3ccc(C)cc3)CC2)cc1

>  <Energy>  (6) 
63.03277448619942

>  <Genealogy>  (6) 
CC(=O)Nc1ccc(N2CCN(Cc3ccc(C)cc3)CC2)cc1 (3D coordinates assigned)
CC(=O)Nc1ccc(N2CCN(Cc3ccc(C)cc3)CC2)cc1 (nonaromatic ring conformer: 63.03277448619942 kcal/mol)

>  <smiles>  (6) 
CC(=O)Nc1ccc(N2CCN(Cc3ccc(C)cc3)CC2)cc1

>  <score_type>  (6) 
oracle

>  <origin>  (6) 
adg

>  <m_score__min__energy>  (6) 
-7.9000000000000004

>  <m_primary>  (6) 
energy

$$$$
6:0
     RDKit          3D

 44 46  0  0  0  0  0  0  0  0999 V2000
   64.0340   33.6870   50.8430 C   0  0  0  0  0  0  0  0  0  0  0  0
   63.3400   34.6020   50.0020 O   0  0  0  0  0  0  0  0  0  0  0  0
   62.4330   34.2250   49.0010 C   0  0  0  0  0  0  0  0  0  0  0  0
   61.0650   34.2710   49.2910 C   0  0  0  0  0  0  0  0  0  0  0  0
   60.1210   33.9030   48.3300 C   0  0  0  0  0  0  0  0  0  0  0  0
   60.5320   33.4730   47.0540 C   0  0  0  0  0  0  0  0  0  0  0  0
   59.5370   33.0840   46.0250 C   0  0  0  0  0  0  0  0  0  0  0  0
   59.1560   33.9360   45.1760 O   0  0  0  0  0  0  0  0  0  0  0  0
   58.9530   31.7290   45.9790 C   0  0  0  0  0  0  0  0  0  0  0  0
   58.0870   31.2540   44.9960 C   0  0  0  0  0  0  0  0  0  0  0  0
   57.5960   32.0080   43.7980 C   0  0  0  0  0  0  0  0  0  0  0  0
   57.7650   29.9450   45.3390 C   0  0  0  0  0  0  0  0  0  0  0  0
   56.8870   29.0320   44.5950 C   0  0  0  0  0  0  0  0  0  0  0  0
   56.9780   28.9830   43.3400 O   0  0  0  0  0  0  0  0  0  0  0  0
   55.9190   28.2080   45.2530 N   0  0  0  0  0  0  0  0  0  0  0  0
   56.1560   26.5410   45.6720 S   0  0  0  0  0  0  0  0  0  0  0  0
   57.3170   25.7670   44.5650 C   0  0  0  0  0  0  0  0  0  0  0  0
   54.8470   25.8060   45.6380 O   0  0  0  0  0  0  0  0  0  0  0  0
   56.7160   26.4740   47.0640 O   0  0  0  0  0  0  0  0  0  0  0  0
   58.4630   29.6710   46.5010 C   0  0  0  0  0  0  0  0  0  0  0  0
   58.5350   28.4710   47.2120 C   0  0  0  0  0  0  0  0  0  0  0  0
   59.3550   28.4290   48.3470 C   0  0  0  0  0  0  0  0  0  0  0  0
   60.0940   29.5630   48.7290 C   0  0  0  0  0  0  0  0  0  0  0  0
   61.1370   29.5050   50.1380 Cl  0  0  0  0  0  0  0  0  0  0  0  0
   60.0030   30.7370   47.9680 C   0  0  0  0  0  0  0  0  0  0  0  0
   59.1760   30.7490   46.8840 N   0  0  0  0  0  0  0  0  0  0  0  0
   61.9060   33.4390   46.7590 C   0  0  0  0  0  0  0  0  0  0  0  0
   62.8480   33.8070   47.7230 C   0  0  0  0  0  0  0  0  0  0  0  0
   63.8425   33.9395   51.8964 H   0  0  0  0  0  0  0  0  0  0  0  0
   63.6823   32.6644   50.6413 H   0  0  0  0  0  0  0  0  0  0  0  0
   65.1135   33.7500   50.6413 H   0  0  0  0  0  0  0  0  0  0  0  0
   60.7298   34.6002   50.2856 H   0  0  0  0  0  0  0  0  0  0  0  0
   59.0489   33.9494   48.5717 H   0  0  0  0  0  0  0  0  0  0  0  0
   57.0233   32.8874   44.1276 H   0  0  0  0  0  0  0  0  0  0  0  0
   58.4547   32.3352   43.1934 H   0  0  0  0  0  0  0  0  0  0  0  0
   56.9495   31.3550   43.1934 H   0  0  0  0  0  0  0  0  0  0  0  0
   58.0923   25.2501   45.1496 H   0  0  0  0  0  0  0  0  0  0  0  0
   56.7897   25.0391   43.9309 H   0  0  0  0  0  0  0  0  0  0  0  0
   57.7861   26.5337   43.9309 H   0  0  0  0  0  0  0  0  0  0  0  0
   57.9655   27.5864   46.8907 H   0  0  0  0  0  0  0  0  0  0  0  0
   59.4211   27.5059   48.9415 H   0  0  0  0  0  0  0  0  0  0  0  0
   60.5862   31.6292   48.2396 H   0  0  0  0  0  0  0  0  0  0  0  0
   62.2422   33.1202   45.7613 H   0  0  0  0  0  0  0  0  0  0  0  0
   63.9205   33.7698   47.4815 H   0  0  0  0  0  0  0  0  0  0  0  0
  1  2  1  0
  2  3  1  0
  3  4  2  0
  4  5  1  0
  5  6  2  0
  6  7  1  0
  7  8  2  0
  7  9  1  0
  9 10  2  0
 10 11  1  0
 10 12  1  0
 12 13  1  0
 13 14  2  0
 13 15  1  0
 15 16  1  0
 16 17  1  0
 16 18  2  0
 16 19  2  0
 12 20  2  0
 20 21  1  0
 21 22  2  0
 22 23  1  0
 23 24  1  0
 23 25  2  0
 25 26  1  0
  6 27  1  0
 27 28  2  0
 28  3  1  0
 26  9  1  0
 26 20  1  0
  1 29  1  0
  1 30  1  0
  1 31  1  0
  4 32  1  0
  5 33  1  0
 11 34  1  0
 11 35  1  0
 11 36  1  0
 17 37  1  0
 17 38  1  0
 17 39  1  0
 21 40  1  0
 22 41  1  0
 25 42  1  0
 27 43  1  0
 28 44  1  0
M  CHG  1  15  -1
M  END
>  <UniqueID>  (7) 
6

>  <SMILES>  (7) 
COc1ccc(C(=O)c2c(C)c(C(=O)[N-]S(C)(=O)=O)c3ccc(Cl)cn23)cc1

>  <Energy>  (7) 
86.2841989965384

>  <Genealogy>  (7) 
COc1ccc(C(=O)c2c(C)c(C(=O)[N-]S(C)(=O)=O)c3ccc(Cl)cn23)cc1 (protonated)
COc1ccc(C(=O)c2c(C)c(C(=O)[N-]S(C)(=O)=O)c3ccc(Cl)cn23)cc1 (3D coordinates assigned)
COc1ccc(C(=O)c2c(C)c(C(=O)[N-]S(C)(=O)=O)c3ccc(Cl)cn23)cc1 (optimized conformer: 86.2841989965384 kcal/mol)

>  <smiles>  (7) 
COc1ccc(C(=O)c2c(C)c(C(=O)NS(C)(=O)=O)c3ccc(Cl)cn23)cc1

>  <score_type>  (7) 
oracle

>  <origin>  (7) 
adg

>  <m_score__min__energy>  (7) 
-10.15

>  <m_primary>  (7) 
energy

$$$$
7:0
     RDKit          3D

 36 38  0  0  0  0  0  0  0  0999 V2000
   51.5783   20.6225   45.5943 H   0  0  0  0  0  0  0  0  0  0  0  0
   52.2580   21.3900   45.9930 C   0  0  0  0  0  0  0  0  0  0  0  0
   52.4690   22.5750   45.3610 N   0  0  0  0  0  0  0  0  0  0  0  0
   53.3440   23.3530   46.0320 C   0  0  0  0  0  0  0  0  0  0  0  0
   53.6620   24.5440   45.6170 N   0  0  0  0  0  0  0  0  0  0  0  0
   54.9650   25.1510   45.6320 C   0  0  0  0  0  0  0  0  0  0  0  0
   55.1140   26.3510   45.9860 O   0  0  0  0  0  0  0  0  0  0  0  0
   56.1460   24.3380   45.2600 C   0  0  0  0  0  0  0  0  0  0  0  0
   55.9950   23.3270   44.2940 C   0  0  0  0  0  0  0  0  0  0  0  0
   55.0131   23.1630   43.8261 H   0  0  0  0  0  0  0  0  0  0  0  0
   57.0800   22.5290   43.9230 C   0  0  0  0  0  0  0  0  0  0  0  0
   56.9483   21.7387   43.1693 H   0  0  0  0  0  0  0  0  0  0  0  0
   58.3300   22.7330   44.5070 C   0  0  0  0  0  0  0  0  0  0  0  0
   59.1811   22.0982   44.2195 H   0  0  0  0  0  0  0  0  0  0  0  0
   58.5020   23.7420   45.4560 C   0  0  0  0  0  0  0  0  0  0  0  0
   59.4904   23.8997   45.9122 H   0  0  0  0  0  0  0  0  0  0  0  0
   57.4240   24.5560   45.8320 C   0  0  0  0  0  0  0  0  0  0  0  0
   57.7470   25.8930   46.9950 S   0  0  0  0  0  0  0  0  0  0  0  0
   57.7450   27.1450   45.7100 C   0  0  0  0  0  0  0  0  0  0  0  0
   58.1400   26.8120   44.4100 C   0  0  0  0  0  0  0  0  0  0  0  0
   58.4533   25.7835   44.1774 H   0  0  0  0  0  0  0  0  0  0  0  0
   58.1370   27.7840   43.4070 C   0  0  0  0  0  0  0  0  0  0  0  0
   58.4476   27.5197   42.3854 H   0  0  0  0  0  0  0  0  0  0  0  0
   57.7400   29.0920   43.6990 C   0  0  0  0  0  0  0  0  0  0  0  0
   57.7378   29.8528   42.9045 H   0  0  0  0  0  0  0  0  0  0  0  0
   57.3450   29.4400   44.9970 C   0  0  0  0  0  0  0  0  0  0  0  0
   56.9490   30.7650   45.2400 O   0  0  0  0  0  0  0  0  0  0  0  0
   57.4220   31.8910   44.5090 C   0  0  0  0  0  0  0  0  0  0  0  0
   57.7501   32.6721   45.2106 H   0  0  0  0  0  0  0  0  0  0  0  0
   58.2688   31.5877   43.8758 H   0  0  0  0  0  0  0  0  0  0  0  0
   56.6127   32.2834   43.8758 H   0  0  0  0  0  0  0  0  0  0  0  0
   57.3570   28.4590   46.0060 C   0  0  0  0  0  0  0  0  0  0  0  0
   57.0606   28.7246   47.0315 H   0  0  0  0  0  0  0  0  0  0  0  0
   53.8830   22.6000   47.4430 S   0  0  0  0  0  0  0  0  0  0  0  0
   52.9630   21.2170   47.1800 C   0  0  0  0  0  0  0  0  0  0  0  0
   52.9253   20.3316   47.8316 H   0  0  0  0  0  0  0  0  0  0  0  0
  1  2  1  0
  2  3  1  0
  3  4  1  0
  4  5  2  0
  5  6  1  0
  6  7  2  0
  6  8  1  0
  8  9  2  0
  9 10  1  0
  9 11  1  0
 11 12  1  0
 11 13  2  0
 13 14  1  0
 13 15  1  0
 15 16  1  0
 15 17  2  0
 17 18  1  0
 18 19  1  0
 19 20  2  0
 20 21  1  0
 20 22  1  0
 22 23  1  0
 22 24  2  0
 24 25  1  0
 24 26  1  0
 26 27  1  0
 27 28  1  0
 28 29  1  0
 28 30  1  0
 28 31  1  0
 26 32  2  0
 32 33  1  0
  4 34  1  0
 34 35  1  0
 35 36  1  0
 35  2  2  0
 17  8  1  0
 32 19  1  0
M  CHG  1   3  -1
M  END
>  <UniqueID>  (8) 
7

>  <SMILES>  (8) 
COc1cccc(Sc2ccccc2C(=O)/N=c2/[n-]ccs2)c1

>  <Energy>  (8) 
69.44739518541833

>  <Genealogy>  (8) 
COc1cccc(Sc2ccccc2C(=O)N=c2[n-]ccs2)c1 (protonated)
COc1cccc(Sc2ccccc2C(=O)/N=c2/[n-]ccs2)c1 (cis-trans isomerization)
COc1cccc(Sc2ccccc2C(=O)/N=c2/[n-]ccs2)c1 (3D coordinates assigned)
COc1cccc(Sc2ccccc2C(=O)/N=c2/[n-]ccs2)c1 (optimized conformer: 69.44739518541833 kcal/mol)

>  <smiles>  (8) 
COc1cccc(Sc2ccccc2C(=O)N=c2[nH]ccs2)c1

>  <score_type>  (8) 
oracle

>  <origin>  (8) 
adg

>  <m_score__min__energy>  (8) 
-9.2100000000000009

>  <m_primary>  (8) 
energy

$$$$
8:0
     RDKit          3D

 51 54  0  0  0  0  0  0  0  0999 V2000
   55.4630   25.7600   46.0080 N   0  0  0  0  0  0  0  0  0  0  0  0
   57.0830   25.3300   46.4360 S   0  0  0  0  0  0  0  0  0  0  0  0
   57.1270   24.8790   47.8700 O   0  0  0  0  0  0  0  0  0  0  0  0
   57.5550   24.2050   45.5590 O   0  0  0  0  0  0  0  0  0  0  0  0
   58.1310   26.7260   46.2080 C   0  0  0  0  0  0  0  0  0  0  0  0
   59.2280   26.9370   47.0550 C   0  0  0  0  0  0  0  0  0  0  0  0
   60.0420   28.0590   46.8790 C   0  0  0  0  0  0  0  0  0  0  0  0
   59.7560   28.9810   45.8670 C   0  0  0  0  0  0  0  0  0  0  0  0
   58.6540   28.7910   45.0240 C   0  0  0  0  0  0  0  0  0  0  0  0
   58.3800   29.7760   44.0170 N   0  0  0  0  0  0  0  0  0  0  0  0
   57.3790   31.1740   44.2320 S   0  0  0  0  0  0  0  0  0  0  0  0
   57.3780   31.9780   42.9640 O   0  0  0  0  0  0  0  0  0  0  0  0
   55.9770   30.7230   44.5330 O   0  0  0  0  0  0  0  0  0  0  0  0
   58.0020   32.1760   45.5410 C   0  0  0  0  0  0  0  0  0  0  0  0
   58.1720   31.6390   46.8240 C   0  0  0  0  0  0  0  0  0  0  0  0
   58.7010   32.4230   47.8520 C   0  0  0  0  0  0  0  0  0  0  0  0
   59.0700   33.7610   47.6130 C   0  0  0  0  0  0  0  0  0  0  0  0
   59.6270   34.5900   48.6500 N   0  0  0  0  0  0  0  0  0  0  0  0
   60.5580   34.1120   49.6750 C   0  0  0  0  0  0  0  0  0  0  0  0
   61.9250   33.8550   49.0700 C   0  0  0  0  0  0  0  0  0  0  0  0
   62.0510   34.0290   47.6830 C   0  0  0  0  0  0  0  0  0  0  0  0
   63.2700   33.7730   47.0570 C   0  0  0  0  0  0  0  0  0  0  0  0
   63.3830   33.9280   45.8120 O   0  0  0  0  0  0  0  0  0  0  0  0
   64.3120   33.3580   47.7630 O   0  0  0  0  0  0  0  0  0  0  0  0
   64.2650   33.1820   49.0790 C   0  0  0  0  0  0  0  0  0  0  0  0
   65.4150   32.7400   49.7420 C   0  0  0  0  0  0  0  0  0  0  0  0
   65.4070   32.5690   51.1270 C   0  0  0  0  0  0  0  0  0  0  0  0
   66.8530   32.0160   51.9520 Cl  0  0  0  0  0  0  0  0  0  0  0  0
   64.2500   32.8470   51.8570 C   0  0  0  0  0  0  0  0  0  0  0  0
   63.0920   33.2860   51.2080 C   0  0  0  0  0  0  0  0  0  0  0  0
   63.0710   33.4420   49.8040 C   0  0  0  0  0  0  0  0  0  0  0  0
   58.8770   34.2980   46.3290 C   0  0  0  0  0  0  0  0  0  0  0  0
   58.3490   33.5110   45.3000 C   0  0  0  0  0  0  0  0  0  0  0  0
   57.8450   27.6530   45.1970 C   0  0  0  0  0  0  0  0  0  0  0  0
   55.0950   26.3640   46.7770 H   0  0  0  0  0  0  0  0  0  0  0  0
   55.5210   26.3620   45.1540 H   0  0  0  0  0  0  0  0  0  0  0  0
   59.4481   26.2189   47.8586 H   0  0  0  0  0  0  0  0  0  0  0  0
   60.9089   28.2173   47.5373 H   0  0  0  0  0  0  0  0  0  0  0  0
   60.4012   29.8616   45.7323 H   0  0  0  0  0  0  0  0  0  0  0  0
   57.8876   30.5951   47.0226 H   0  0  0  0  0  0  0  0  0  0  0  0
   58.8303   31.9921   48.8558 H   0  0  0  0  0  0  0  0  0  0  0  0
   59.4410   35.6180   48.6180 H   0  0  0  0  0  0  0  0  0  0  0  0
   60.6485   34.8720   50.4651 H   0  0  0  0  0  0  0  0  0  0  0  0
   60.1723   33.1721   50.0967 H   0  0  0  0  0  0  0  0  0  0  0  0
   61.1883   34.3672   47.0902 H   0  0  0  0  0  0  0  0  0  0  0  0
   66.3294   32.5264   49.1691 H   0  0  0  0  0  0  0  0  0  0  0  0
   64.2494   32.7199   52.9496 H   0  0  0  0  0  0  0  0  0  0  0  0
   62.1898   33.5118   51.7954 H   0  0  0  0  0  0  0  0  0  0  0  0
   59.1435   35.3467   46.1311 H   0  0  0  0  0  0  0  0  0  0  0  0
   58.2059   33.9423   44.2983 H   0  0  0  0  0  0  0  0  0  0  0  0
   56.9823   27.4900   44.5342 H   0  0  0  0  0  0  0  0  0  0  0  0
  1  2  1  0
  2  3  2  0
  2  4  2  0
  2  5  1  0
  5  6  2  0
  6  7  1  0
  7  8  2  0
  8  9  1  0
  9 10  1  0
 10 11  1  0
 11 12  2  0
 11 13  2  0
 11 14  1  0
 14 15  2  0
 15 16  1  0
 16 17  2  0
 17 18  1  0
 18 19  1  0
 19 20  1  0
 20 21  2  0
 21 22  1  0
 22 23  2  0
 22 24  1  0
 24 25  1  0
 25 26  2  0
 26 27  1  0
 27 28  1  0
 27 29  2  0
 29 30  1  0
 30 31  2  0
 17 32  1  0
 32 33  2  0
  9 34  2  0
 34  5  1  0
 33 14  1  0
 31 20  1  0
 31 25  1  0
  1 35  1  0
  1 36  1  0
  6 37  1  0
  7 38  1  0
  8 39  1  0
 15 40  1  0
 16 41  1  0
 18 42  1  0
 19 43  1  0
 19 44  1  0
 21 45  1  0
 26 46  1  0
 29 47  1  0
 30 48  1  0
 32 49  1  0
 33 50  1  0
 34 51  1  0
M  CHG  1  10  -1
M  END
>  <UniqueID>  (9) 
8

>  <SMILES>  (9) 
NS(=O)(=O)c1cccc([N-]S(=O)(=O)c2ccc(NCc3cc(=O)oc4cc(Cl)ccc34)cc2)c1

>  <Energy>  (9) 
62.787257000934886

>  <Genealogy>  (9) 
NS(=O)(=O)c1cccc([N-]S(=O)(=O)c2ccc(NCc3cc(=O)oc4cc(Cl)ccc34)cc2)c1 (protonated)
NS(=O)(=O)c1cccc([N-]S(=O)(=O)c2ccc(NCc3cc(=O)oc4cc(Cl)ccc34)cc2)c1 (3D coordinates assigned)
NS(=O)(=O)c1cccc([N-]S(=O)(=O)c2ccc(NCc3cc(=O)oc4cc(Cl)ccc34)cc2)c1 (optimized conformer: 62.787257000934886 kcal/mol)

>  <smiles>  (9) 
NS(=O)(=O)c1cccc(NS(=O)(=O)c2ccc(NCc3cc(=O)oc4cc(Cl)ccc34)cc2)c1

>  <score_type>  (9) 
oracle

>  <origin>  (9) 
adg

>  <m_score__min__energy>  (9) 
-12

>  <m_primary>  (9) 
energy

$$$$
9:0
     RDKit          3D

 45 47  0  0  0  0  0  0  0  0999 V2000
   58.1930   26.9510   43.3790 C   0  0  0  0  0  0  0  0  0  0  0  0
   58.3210   26.4070   44.5930 C   0  0  0  0  0  0  0  0  0  0  0  0
   57.1530   25.8010   45.3200 C   0  0  0  0  0  0  0  0  0  0  0  0
   56.9820   26.4440   46.6170 N   0  0  0  0  0  0  0  0  0  0  0  0
   58.0680   26.7420   47.4990 C   0  0  0  0  0  0  0  0  0  0  0  0
   58.8050   25.8180   47.9390 O   0  0  0  0  0  0  0  0  0  0  0  0
   58.2990   28.0720   47.8640 O   0  0  0  0  0  0  0  0  0  0  0  0
   59.5850   28.6960   47.8180 C   0  0  2  0  0  0  0  0  0  0  0  0
   59.6730   29.8520   48.7820 C   0  0  0  0  0  0  0  0  0  0  0  0
   58.8990   29.9190   49.7750 O   0  0  0  0  0  0  0  0  0  0  0  0
   60.7300   30.8610   48.5880 C   0  0  0  0  0  0  0  0  0  0  0  0
   61.0640   31.7860   49.5900 C   0  0  0  0  0  0  0  0  0  0  0  0
   62.0970   32.7060   49.3770 C   0  0  0  0  0  0  0  0  0  0  0  0
   62.5200   33.8570   50.6320 Cl  0  0  0  0  0  0  0  0  0  0  0  0
   62.7970   32.7050   48.1650 C   0  0  0  0  0  0  0  0  0  0  0  0
   62.4600   31.7920   47.1620 C   0  0  0  0  0  0  0  0  0  0  0  0
   61.4210   30.8780   47.3640 C   0  0  0  0  0  0  0  0  0  0  0  0
   61.0650   29.9960   46.3350 O   0  0  0  0  0  0  0  0  0  0  0  0
   59.8960   29.1640   46.3760 C   0  0  2  0  0  0  0  0  0  0  0  0
   58.7090   29.8500   45.7190 C   0  0  0  0  0  0  0  0  0  0  0  0
   57.4880   29.1800   45.5150 C   0  0  0  0  0  0  0  0  0  0  0  0
   56.4240   29.8220   44.8740 C   0  0  0  0  0  0  0  0  0  0  0  0
   55.2230   29.1400   44.6910 O   0  0  0  0  0  0  0  0  0  0  0  0
   56.5730   31.1370   44.4210 C   0  0  0  0  0  0  0  0  0  0  0  0
   57.7820   31.8170   44.5950 C   0  0  0  0  0  0  0  0  0  0  0  0
   57.8830   33.1290   44.1120 O   0  0  0  0  0  0  0  0  0  0  0  0
   58.3380   34.2390   44.8810 C   0  0  0  0  0  0  0  0  0  0  0  0
   58.8490   31.1670   45.2440 C   0  0  0  0  0  0  0  0  0  0  0  0
   59.0693   27.3857   42.8759 H   0  0  0  0  0  0  0  0  0  0  0  0
   57.2113   26.9641   42.8829 H   0  0  0  0  0  0  0  0  0  0  0  0
   59.3101   26.4025   45.0744 H   0  0  0  0  0  0  0  0  0  0  0  0
   56.2403   25.9399   44.7219 H   0  0  0  0  0  0  0  0  0  0  0  0
   57.3410   24.7279   45.4721 H   0  0  0  0  0  0  0  0  0  0  0  0
   60.3364   27.9530   48.1236 H   0  0  0  0  0  0  0  0  0  0  0  0
   60.5138   31.7877   50.5425 H   0  0  0  0  0  0  0  0  0  0  0  0
   63.6135   33.4238   48.0017 H   0  0  0  0  0  0  0  0  0  0  0  0
   63.0134   31.7923   46.2113 H   0  0  0  0  0  0  0  0  0  0  0  0
   60.1044   28.2570   45.7895 H   0  0  0  0  0  0  0  0  0  0  0  0
   57.3699   28.1431   45.8626 H   0  0  0  0  0  0  0  0  0  0  0  0
   55.1400   28.1500   44.8910 H   0  0  0  0  0  0  0  0  0  0  0  0
   55.7312   31.6406   43.9233 H   0  0  0  0  0  0  0  0  0  0  0  0
   58.2428   34.0068   45.9520 H   0  0  0  0  0  0  0  0  0  0  0  0
   59.3923   34.4429   44.6423 H   0  0  0  0  0  0  0  0  0  0  0  0
   57.7302   35.1242   44.6423 H   0  0  0  0  0  0  0  0  0  0  0  0
   59.8040   31.6953   45.3814 H   0  0  0  0  0  0  0  0  0  0  0  0
  1  2  2  0
  2  3  1  0
  3  4  1  0
  4  5  1  0
  5  6  2  0
  5  7  1  0
  7  8  1  0
  8  9  1  0
  9 10  2  0
  9 11  1  0
 11 12  2  0
 12 13  1  0
 13 14  1  0
 13 15  2  0
 15 16  1  0
 16 17  2  0
 17 18  1  0
 18 19  1  0
 19 20  1  0
 20 21  2  0
 21 22  1  0
 22 23  1  0
 22 24  2  0
 24 25  1  0
 25 26  1  0
 26 27  1  0
 25 28  2  0
 19  8  1  0
 28 20  1  0
 17 11  1  0
  1 29  1  0
  1 30  1  0
  2 31  1  0
  3 32  1  0
  3 33  1  0
  8 34  1  1
 12 35  1  0
 15 36  1  0
 16 37  1  0
 19 38  1  6
 21 39  1  0
 23 40  1  0
 24 41  1  0
 27 42  1  0
 27 43  1  0
 27 44  1  0
 28 45  1  0
M  CHG  1   4  -1
M  END
>  <UniqueID>  (10) 
9

>  <SMILES>  (10) 
C=CC[N-]C(=O)O[C@@H]1C(=O)c2cc(Cl)ccc2O[C@@H]1c1cc(O)cc(OC)c1

>  <Energy>  (10) 
45.277538727699294

>  <Genealogy>  (10) 
C=CC[N-]C(=O)OC1C(=O)c2cc(Cl)ccc2OC1c1cc(O)cc(OC)c1 (protonated)
C=CC[N-]C(=O)O[C@@H]1C(=O)c2cc(Cl)ccc2O[C@@H]1c1cc(O)cc(OC)c1 (chirality)
C=CC[N-]C(=O)O[C@@H]1C(=O)c2cc(Cl)ccc2O[C@@H]1c1cc(O)cc(OC)c1 (3D coordinates assigned)
C=CC[N-]C(=O)O[C@@H]1C(=O)c2cc(Cl)ccc2O[C@@H]1c1cc(O)cc(OC)c1 (nonaromatic ring conformer: 45.277538727699294 kcal/mol)

>  <smiles>  (10) 
C=CCNC(=O)OC1C(=O)c2cc(Cl)ccc2OC1c1cc(O)cc(OC)c1

>  <score_type>  (10) 
oracle

>  <origin>  (10) 
adg

>  <m_score__min__energy>  (10) 
-8.8599999999999994

>  <m_primary>  (10) 
energy

$$$$
10:0
     RDKit          3D

 59 61  0  0  0  0  0  0  0  0999 V2000
   57.7570   22.5390   48.1380 H   0  0  0  0  0  0  0  0  0  0  0  0
   57.2930   22.8470   47.2540 N   0  0  0  0  0  0  0  0  0  0  0  0
   57.3720   24.0710   46.8390 C   0  0  0  0  0  0  0  0  0  0  0  0
   56.2420   24.7960   46.6450 N   0  0  0  0  0  0  0  0  0  0  0  0
   56.2920   26.0780   46.2040 C   0  0  0  0  0  0  0  0  0  0  0  0
   55.2160   26.7090   46.0260 O   0  0  0  0  0  0  0  0  0  0  0  0
   57.5320   26.6820   45.9400 C   0  0  0  0  0  0  0  0  0  0  0  0
   57.5880   28.0880   45.4610 C   0  0  0  0  0  0  0  0  0  0  0  0
   57.1530   28.3750   44.2150 C   0  0  0  0  0  0  0  0  0  0  0  0
   57.5413   27.7606   43.3894 H   0  0  0  0  0  0  0  0  0  0  0  0
   56.1770   29.4710   43.8650 C   0  0  0  0  0  0  0  0  0  0  0  0
   55.1905   29.0209   43.6799 H   0  0  0  0  0  0  0  0  0  0  0  0
   56.1439   30.1756   44.7091 H   0  0  0  0  0  0  0  0  0  0  0  0
   56.6070   30.2550   42.6120 C   0  0  0  0  0  0  0  0  0  0  0  0
   57.2223   29.5912   41.9869 H   0  0  0  0  0  0  0  0  0  0  0  0
   55.6807   30.5805   42.1160 H   0  0  0  0  0  0  0  0  0  0  0  0
   57.4180   31.5310   42.8990 C   0  0  0  0  0  0  0  0  0  0  0  0
   56.8209   32.1865   43.5500 H   0  0  0  0  0  0  0  0  0  0  0  0
   58.3585   31.2215   43.3782 H   0  0  0  0  0  0  0  0  0  0  0  0
   57.7840   32.3050   41.6330 C   0  0  0  0  0  0  0  0  0  0  0  0
   58.2391   33.2673   41.9103 H   0  0  0  0  0  0  0  0  0  0  0  0
   58.5001   31.7184   41.0388 H   0  0  0  0  0  0  0  0  0  0  0  0
   56.8762   32.4863   41.0388 H   0  0  0  0  0  0  0  0  0  0  0  0
   58.1320   29.1110   46.3860 C   0  0  0  0  0  0  0  0  0  0  0  0
   58.7930   28.7380   47.5620 C   0  0  0  0  0  0  0  0  0  0  0  0
   58.8758   27.6741   47.8288 H   0  0  0  0  0  0  0  0  0  0  0  0
   59.3470   29.7070   48.3970 C   0  0  0  0  0  0  0  0  0  0  0  0
   59.8392   29.4040   49.3329 H   0  0  0  0  0  0  0  0  0  0  0  0
   59.2820   31.0630   48.0540 C   0  0  0  0  0  0  0  0  0  0  0  0
   59.9390   32.0130   48.9050 N   0  0  0  0  0  0  0  0  0  0  0  0
   59.4950   32.2280   49.8250 H   0  0  0  0  0  0  0  0  0  0  0  0
   61.2360   32.5670   48.6130 C   0  0  0  0  0  0  0  0  0  0  0  0
   62.0660   32.0120   47.6200 C   0  0  0  0  0  0  0  0  0  0  0  0
   61.7257   31.1364   47.0477 H   0  0  0  0  0  0  0  0  0  0  0  0
   63.3210   32.5700   47.3590 C   0  0  0  0  0  0  0  0  0  0  0  0
   63.9621   32.1366   46.5772 H   0  0  0  0  0  0  0  0  0  0  0  0
   63.7630   33.6760   48.0880 C   0  0  0  0  0  0  0  0  0  0  0  0
   64.7497   34.1148   47.8784 H   0  0  0  0  0  0  0  0  0  0  0  0
   62.9510   34.2250   49.0840 C   0  0  0  0  0  0  0  0  0  0  0  0
   63.3009   35.0933   49.6615 H   0  0  0  0  0  0  0  0  0  0  0  0
   61.6950   33.6720   49.3470 C   0  0  0  0  0  0  0  0  0  0  0  0
   61.0615   34.1056   50.1348 H   0  0  0  0  0  0  0  0  0  0  0  0
   58.6190   31.4590   46.8660 C   0  0  0  0  0  0  0  0  0  0  0  0
   58.4840   32.8910   46.4870 C   0  0  0  0  0  0  0  0  0  0  0  0
   57.4280   33.5250   46.7530 O   0  0  0  0  0  0  0  0  0  0  0  0
   59.8020   33.7610   45.6280 S   0  0  0  0  0  0  0  0  0  0  0  0
   59.6400   35.2580   46.6480 C   0  0  0  0  0  0  0  0  0  0  0  0
   59.6699   34.9815   47.7123 H   0  0  0  0  0  0  0  0  0  0  0  0
   60.4690   35.9456   46.4243 H   0  0  0  0  0  0  0  0  0  0  0  0
   58.6831   35.7523   46.4243 H   0  0  0  0  0  0  0  0  0  0  0  0
   58.0580   30.4680   46.0400 C   0  0  0  0  0  0  0  0  0  0  0  0
   57.5533   30.7622   45.1080 H   0  0  0  0  0  0  0  0  0  0  0  0
   58.7030   25.9240   46.1770 C   0  0  0  0  0  0  0  0  0  0  0  0
   60.0770   26.5050   45.9620 C   0  0  0  0  0  0  0  0  0  0  0  0
   60.5475   26.7040   46.9362 H   0  0  0  0  0  0  0  0  0  0  0  0
   60.6929   25.7903   45.3965 H   0  0  0  0  0  0  0  0  0  0  0  0
   59.9933   27.4448   45.3965 H   0  0  0  0  0  0  0  0  0  0  0  0
   58.5890   24.6320   46.6010 N   0  0  0  0  0  0  0  0  0  0  0  0
   59.4500   24.0590   46.7590 H   0  0  0  0  0  0  0  0  0  0  0  0
  1  2  1  0
  2  3  2  0
  3  4  1  0
  4  5  1  0
  5  6  2  0
  5  7  1  0
  7  8  1  0
  8  9  2  3
  9 10  1  0
  9 11  1  0
 11 12  1  0
 11 13  1  0
 11 14  1  0
 14 15  1  0
 14 16  1  0
 14 17  1  0
 17 18  1  0
 17 19  1  0
 17 20  1  0
 20 21  1  0
 20 22  1  0
 20 23  1  0
  8 24  1  0
 24 25  2  0
 25 26  1  0
 25 27  1  0
 27 28  1  0
 27 29  2  0
 29 30  1  0
 30 31  1  0
 30 32  1  0
 32 33  2  0
 33 34  1  0
 33 35  1  0
 35 36  1  0
 35 37  2  0
 37 38  1  0
 37 39  1  0
 39 40  1  0
 39 41  2  0
 41 42  1  0
 29 43  1  0
 43 44  1  0
 44 45  2  0
 44 46  1  0
 46 47  1  0
 47 48  1  0
 47 49  1  0
 47 50  1  0
 43 51  2  0
 51 52  1  0
  7 53  2  0
 53 54  1  0
 54 55  1  0
 54 56  1  0
 54 57  1  0
 53 58  1  0
 58 59  1  0
 58  3  1  0
 51 24  1  0
 41 32  1  0
M  CHG  1   4  -1
M  END
>  <UniqueID>  (11) 
10

>  <SMILES>  (11) 
[H]/N=c1\[n-]c(=O)c(C(=CCCCC)c2ccc(Nc3ccccc3)c(C(=O)SC)c2)c(C)[nH]1

>  <Energy>  (11) 
75.16821054088834

>  <Genealogy>  (11) 
CCCCC=C(c1ccc(Nc2ccccc2)c(C(=O)SC)c1)c1c(C)[nH]c(=N)[n-]c1=O (protonated)
[H]/N=c1\[n-]c(=O)c(C(=CCCCC)c2ccc(Nc3ccccc3)c(C(=O)SC)c2)c(C)[nH]1 (cis-trans isomerization)
[H]/N=c1\[n-]c(=O)c(C(=CCCCC)c2ccc(Nc3ccccc3)c(C(=O)SC)c2)c(C)[nH]1 (3D coordinates assigned)
[H]/N=c1\[n-]c(=O)c(C(=CCCCC)c2ccc(Nc3ccccc3)c(C(=O)SC)c2)c(C)[nH]1 (optimized conformer: 75.16821054088834 kcal/mol)

>  <smiles>  (11) 
CCCCC=C(c1ccc(Nc2ccccc2)c(C(=O)SC)c1)c1c(C)[nH]c(=N)[nH]c1=O

>  <score_type>  (11) 
oracle

>  <origin>  (11) 
adg

>  <m_score__min__energy>  (11) 
-11.32

>  <m_primary>  (11) 
energy

$$$$
11:0
     RDKit          3D

 16 16  0  0  0  0  0  0  0  0999 V2000
   50.8190   31.4910   52.4850 C   0  0  0  0  0  0  0  0  0  0  0  0
   51.7960   31.4510   51.3870 N   0  0  0  0  0  0  0  0  0  0  0  0
   53.2320   31.5570   51.6840 C   0  0  0  0  0  0  0  0  0  0  0  0
   51.3890   31.3220   50.1480 C   0  0  0  0  0  0  0  0  0  0  0  0
   51.5050   30.1720   49.4450 N   0  0  0  0  0  0  0  0  0  0  0  0
   50.9750   30.4700   48.2480 C   0  0  0  0  0  0  0  0  0  0  0  0
   50.5530   31.7790   48.2500 C   0  0  0  0  0  0  0  0  0  0  0  0
   50.8120   32.3270   49.4500 N   0  0  0  0  0  0  0  0  0  0  0  0
   51.3492   31.4693   53.4485 H   0  0  0  0  0  0  0  0  0  0  0  0
   50.2252   32.4142   52.4140 H   0  0  0  0  0  0  0  0  0  0  0  0
   50.1517   30.6194   52.4140 H   0  0  0  0  0  0  0  0  0  0  0  0
   53.3812   31.5680   52.7738 H   0  0  0  0  0  0  0  0  0  0  0  0
   53.7607   30.6954   51.2502 H   0  0  0  0  0  0  0  0  0  0  0  0
   53.6285   32.4869   51.2502 H   0  0  0  0  0  0  0  0  0  0  0  0
   50.8914   29.7759   47.3987 H   0  0  0  0  0  0  0  0  0  0  0  0
   50.0783   32.2961   47.4031 H   0  0  0  0  0  0  0  0  0  0  0  0
  1  2  1  0
  2  3  1  0
  2  4  2  3
  4  5  1  0
  5  6  1  0
  6  7  2  0
  7  8  1  0
  8  4  1  0
  1  9  1  0
  1 10  1  0
  1 11  1  0
  3 12  1  0
  3 13  1  0
  3 14  1  0
  6 15  1  0
  7 16  1  0
M  CHG  3   2   1   5  -1   8  -1
M  END
>  <UniqueID>  (12) 
11

>  <SMILES>  (12) 
C[N+](C)=c1[n-]cc[n-]1

>  <Energy>  (12) 
41.20269546645071

>  <Genealogy>  (12) 
C[N+](C)=c1[n-]cc[n-]1 (protonated)
C[N+](C)=c1[n-]cc[n-]1 (3D coordinates assigned)
C[N+](C)=c1[n-]cc[n-]1 (optimized conformer: 41.20269546645071 kcal/mol)

>  <smiles>  (12) 
C[N+](C)=c1[nH]cc[nH]1

>  <score_type>  (12) 
oracle

>  <origin>  (12) 
adg

>  <m_score__min__energy>  (12) 
-6.1500000000000004

>  <m_primary>  (12) 
energy

$$$$
12:0
     RDKit          3D

 48 51  0  0  0  0  0  0  0  0999 V2000
   58.6380   26.0900   48.1740 O   0  0  0  0  0  0  0  0  0  0  0  0
   58.4650   27.0940   47.4320 C   0  0  0  0  0  0  0  0  0  0  0  0
   57.3660   27.1190   46.5120 N   0  0  0  0  0  0  0  0  0  0  0  0
   57.4880   27.2450   45.0880 C   0  0  0  0  0  0  0  0  0  0  0  0
   57.8380   26.1040   44.3560 C   0  0  0  0  0  0  0  0  0  0  0  0
   57.9890   26.1670   42.9700 C   0  0  0  0  0  0  0  0  0  0  0  0
   57.7670   27.3680   42.2990 C   0  0  0  0  0  0  0  0  0  0  0  0
   57.3820   28.5070   43.0080 C   0  0  0  0  0  0  0  0  0  0  0  0
   57.2380   28.4650   44.4080 C   0  0  0  0  0  0  0  0  0  0  0  0
   56.7320   29.6690   45.1140 C   0  0  0  0  0  0  0  0  0  0  0  0
   55.5970   30.1270   44.8140 O   0  0  0  0  0  0  0  0  0  0  0  0
   57.5290   30.3910   46.0640 N   0  0  0  0  0  0  0  0  0  0  0  0
   58.0290   31.7330   45.9460 C   0  0  0  0  0  0  0  0  0  0  0  0
   57.9390   32.3770   44.7060 C   0  0  0  0  0  0  0  0  0  0  0  0
   58.3990   33.6880   44.5540 C   0  0  0  0  0  0  0  0  0  0  0  0
   58.9390   34.3710   45.6460 C   0  0  0  0  0  0  0  0  0  0  0  0
   59.0130   33.7460   46.8950 C   0  0  0  0  0  0  0  0  0  0  0  0
   59.6760   34.6090   48.2710 Cl  0  0  0  0  0  0  0  0  0  0  0  0
   58.5510   32.4350   47.0490 C   0  0  0  0  0  0  0  0  0  0  0  0
   59.3770   28.2560   47.5340 C   0  0  0  0  0  0  0  0  0  0  0  0
   60.0610   28.7280   46.3990 C   0  0  0  0  0  0  0  0  0  0  0  0
   60.9210   29.8250   46.4920 C   0  0  0  0  0  0  0  0  0  0  0  0
   61.1190   30.4760   47.7220 C   0  0  0  0  0  0  0  0  0  0  0  0
   62.0350   31.6410   47.8210 C   0  0  0  0  0  0  0  0  0  0  0  0
   62.8740   31.7980   48.9410 C   0  0  0  0  0  0  0  0  0  0  0  0
   63.7360   32.8960   49.0320 C   0  0  0  0  0  0  0  0  0  0  0  0
   63.7680   33.8480   48.0110 C   0  0  0  0  0  0  0  0  0  0  0  0
   62.9410   33.7040   46.8960 C   0  0  0  0  0  0  0  0  0  0  0  0
   62.0780   32.6070   46.7980 C   0  0  0  0  0  0  0  0  0  0  0  0
   60.4350   30.0060   48.8560 C   0  0  0  0  0  0  0  0  0  0  0  0
   59.5730   28.9090   48.7630 C   0  0  0  0  0  0  0  0  0  0  0  0
   57.9955   25.1488   44.8783 H   0  0  0  0  0  0  0  0  0  0  0  0
   58.2832   25.2688   42.4073 H   0  0  0  0  0  0  0  0  0  0  0  0
   57.8955   27.4185   41.2077 H   0  0  0  0  0  0  0  0  0  0  0  0
   57.1894   29.4459   42.4682 H   0  0  0  0  0  0  0  0  0  0  0  0
   57.5034   31.8476   43.8458 H   0  0  0  0  0  0  0  0  0  0  0  0
   58.3357   34.1823   43.5734 H   0  0  0  0  0  0  0  0  0  0  0  0
   59.3062   35.4007   45.5237 H   0  0  0  0  0  0  0  0  0  0  0  0
   58.5956   31.9506   48.0356 H   0  0  0  0  0  0  0  0  0  0  0  0
   59.9174   28.2288   45.4294 H   0  0  0  0  0  0  0  0  0  0  0  0
   61.4478   30.1824   45.5949 H   0  0  0  0  0  0  0  0  0  0  0  0
   62.8514   31.0525   49.7495 H   0  0  0  0  0  0  0  0  0  0  0  0
   64.3897   33.0096   49.9094 H   0  0  0  0  0  0  0  0  0  0  0  0
   64.4452   34.7117   48.0855 H   0  0  0  0  0  0  0  0  0  0  0  0
   62.9677   34.4547   46.0924 H   0  0  0  0  0  0  0  0  0  0  0  0
   61.4293   32.4988   45.9163 H   0  0  0  0  0  0  0  0  0  0  0  0
   60.5790   30.5055   49.8254 H   0  0  0  0  0  0  0  0  0  0  0  0
   59.0437   28.5540   49.6595 H   0  0  0  0  0  0  0  0  0  0  0  0
  1  2  2  0
  2  3  1  0
  3  4  1  0
  4  5  2  0
  5  6  1  0
  6  7  2  0
  7  8  1  0
  8  9  2  0
  9 10  1  0
 10 11  2  0
 10 12  1  0
 12 13  1  0
 13 14  2  0
 14 15  1  0
 15 16  2  0
 16 17  1  0
 17 18  1  0
 17 19  2  0
  2 20  1  0
 20 21  2  0
 21 22  1  0
 22 23  2  0
 23 24  1  0
 24 25  2  0
 25 26  1  0
 26 27  2  0
 27 28  1  0
 28 29  2  0
 23 30  1  0
 30 31  2  0
  9  4  1  0
 19 13  1  0
 31 20  1  0
 29 24  1  0
  5 32  1  0
  6 33  1  0
  7 34  1  0
  8 35  1  0
 14 36  1  0
 15 37  1  0
 16 38  1  0
 19 39  1  0
 21 40  1  0
 22 41  1  0
 25 42  1  0
 26 43  1  0
 27 44  1  0
 28 45  1  0
 29 46  1  0
 30 47  1  0
 31 48  1  0
M  CHG  2   3  -1  12  -1
M  END
>  <UniqueID>  (13) 
12

>  <SMILES>  (13) 
O=C([N-]c1ccccc1C(=O)[N-]c1cccc(Cl)c1)c1ccc(-c2ccccc2)cc1

>  <Energy>  (13) 
73.37642523282388

>  <Genealogy>  (13) 
O=C([N-]c1ccccc1C(=O)[N-]c1cccc(Cl)c1)c1ccc(-c2ccccc2)cc1 (protonated)
O=C([N-]c1ccccc1C(=O)[N-]c1cccc(Cl)c1)c1ccc(-c2ccccc2)cc1 (3D coordinates assigned)
O=C([N-]c1ccccc1C(=O)[N-]c1cccc(Cl)c1)c1ccc(-c2ccccc2)cc1 (optimized conformer: 73.37642523282388 kcal/mol)

>  <smiles>  (13) 
O=C(Nc1ccccc1C(=O)Nc1cccc(Cl)c1)c1ccc(-c2ccccc2)cc1

>  <score_type>  (13) 
oracle

>  <origin>  (13) 
adg

>  <m_score__min__energy>  (13) 
-12.699999999999999

>  <m_primary>  (13) 
energy

$$$$
13:0
     RDKit          3D

 33 35  0  0  0  0  0  0  0  0999 V2000
   54.8320   26.3470   46.0830 O   0  0  0  0  0  0  0  0  0  0  0  0
   55.9030   25.7970   45.7110 C   0  0  0  0  0  0  0  0  0  0  0  0
   55.8500   24.4940   44.9790 C   0  0  0  0  0  0  0  0  0  0  0  0
   54.5400   23.8210   45.2320 C   0  0  0  0  0  0  0  0  0  0  0  0
   53.4940   23.7250   44.3460 C   0  0  0  0  0  0  0  0  0  0  0  0
   52.5170   22.9920   44.9060 N   0  0  0  0  0  0  0  0  0  0  0  0
   53.0080   22.6590   46.1190 C   0  0  0  0  0  0  0  0  0  0  0  0
   54.2470   23.1400   46.3530 N   0  0  0  0  0  0  0  0  0  0  0  0
   57.1730   26.4060   45.9730 N   0  0  0  0  0  0  0  0  0  0  0  0
   57.4840   27.8040   45.8840 C   0  0  0  0  0  0  0  0  0  0  0  0
   58.5950   28.2960   46.5730 C   0  0  0  0  0  0  0  0  0  0  0  0
   58.9110   29.6540   46.5220 C   0  0  0  0  0  0  0  0  0  0  0  0
   58.0910   30.5310   45.7910 C   0  0  0  0  0  0  0  0  0  0  0  0
   58.3840   31.9850   45.7000 C   0  0  0  0  0  0  0  0  0  0  0  0
   57.5280   32.8270   44.9650 C   0  0  0  0  0  0  0  0  0  0  0  0
   57.7860   34.1990   44.8740 C   0  0  0  0  0  0  0  0  0  0  0  0
   58.8950   34.7470   45.5210 C   0  0  0  0  0  0  0  0  0  0  0  0
   59.7470   33.9260   46.2620 C   0  0  0  0  0  0  0  0  0  0  0  0
   59.4940   32.5540   46.3560 C   0  0  0  0  0  0  0  0  0  0  0  0
   57.0030   30.0300   45.1420 N   0  0  0  0  0  0  0  0  0  0  0  0
   56.6780   28.7100   45.1730 C   0  0  0  0  0  0  0  0  0  0  0  0
   55.9637   24.6768   43.9003 H   0  0  0  0  0  0  0  0  0  0  0  0
   56.6646   23.8458   45.3344 H   0  0  0  0  0  0  0  0  0  0  0  0
   53.4618   24.1746   43.3426 H   0  0  0  0  0  0  0  0  0  0  0  0
   52.4504   22.0526   46.8480 H   0  0  0  0  0  0  0  0  0  0  0  0
   59.2239   27.6094   47.1587 H   0  0  0  0  0  0  0  0  0  0  0  0
   59.7967   30.0361   47.0507 H   0  0  0  0  0  0  0  0  0  0  0  0
   56.6489   32.4026   44.4580 H   0  0  0  0  0  0  0  0  0  0  0  0
   57.1141   34.8468   44.2919 H   0  0  0  0  0  0  0  0  0  0  0  0
   59.0975   35.8257   45.4470 H   0  0  0  0  0  0  0  0  0  0  0  0
   60.6193   34.3594   46.7731 H   0  0  0  0  0  0  0  0  0  0  0  0
   60.1663   31.9141   46.9463 H   0  0  0  0  0  0  0  0  0  0  0  0
   55.7842   28.3511   44.6416 H   0  0  0  0  0  0  0  0  0  0  0  0
  1  2  2  0
  2  3  1  0
  3  4  1  0
  4  5  2  0
  5  6  1  0
  6  7  1  0
  7  8  2  0
  2  9  1  0
  9 10  1  0
 10 11  2  0
 11 12  1  0
 12 13  2  0
 13 14  1  0
 14 15  2  0
 15 16  1  0
 16 17  2  0
 17 18  1  0
 18 19  2  0
 13 20  1  0
 20 21  2  0
  8  4  1  0
 21 10  1  0
 19 14  1  0
  3 22  1  0
  3 23  1  0
  5 24  1  0
  7 25  1  0
 11 26  1  0
 12 27  1  0
 15 28  1  0
 16 29  1  0
 17 30  1  0
 18 31  1  0
 19 32  1  0
 21 33  1  0
M  CHG  2   6  -1   9  -1
M  END
>  <UniqueID>  (14) 
13

>  <SMILES>  (14) 
O=C(Cc1c[n-]cn1)[N-]c1ccc(-c2ccccc2)nc1

>  <Energy>  (14) 
68.67885515231401

>  <Genealogy>  (14) 
O=C(Cc1c[n-]cn1)[N-]c1ccc(-c2ccccc2)nc1 (protonated)
O=C(Cc1c[n-]cn1)[N-]c1ccc(-c2ccccc2)nc1 (3D coordinates assigned)
O=C(Cc1c[n-]cn1)[N-]c1ccc(-c2ccccc2)nc1 (optimized conformer: 68.67885515231401 kcal/mol)

>  <smiles>  (14) 
O=C(Cc1c[nH]cn1)Nc1ccc(-c2ccccc2)nc1

>  <score_type>  (14) 
oracle

>  <origin>  (14) 
adg

>  <m_score__min__energy>  (14) 
-10.66

>  <m_primary>  (14) 
energy

$$$$
14:0
     RDKit          3D

 38 40  0  0  0  0  0  0  0  0999 V2000
   57.2470   34.1710   45.2830 C   0  0  0  0  0  0  0  0  0  0  0  0
   57.9370   32.9440   45.8710 C   0  0  0  0  0  0  0  0  0  0  0  0
   58.2370   31.9930   44.8490 O   0  0  0  0  0  0  0  0  0  0  0  0
   58.1970   30.5960   44.9920 C   0  0  0  0  0  0  0  0  0  0  0  0
   59.3990   29.8890   44.8850 C   0  0  0  0  0  0  0  0  0  0  0  0
   59.4260   28.4990   45.0190 C   0  0  0  0  0  0  0  0  0  0  0  0
   58.2380   27.7910   45.2660 C   0  0  0  0  0  0  0  0  0  0  0  0
   58.2150   26.3930   45.4110 C   0  0  0  0  0  0  0  0  0  0  0  0
   59.2850   25.7270   45.3360 O   0  0  0  0  0  0  0  0  0  0  0  0
   56.9920   25.7420   45.6590 C   0  0  0  0  0  0  0  0  0  0  0  0
   56.9250   24.2680   45.8150 C   0  0  0  0  0  0  0  0  0  0  0  0
   56.6210   23.7010   47.0640 C   0  0  0  0  0  0  0  0  0  0  0  0
   56.5690   22.3130   47.2140 C   0  0  0  0  0  0  0  0  0  0  0  0
   56.8130   21.4790   46.1200 C   0  0  0  0  0  0  0  0  0  0  0  0
   57.1010   22.0300   44.8630 C   0  0  0  0  0  0  0  0  0  0  0  0
   57.3980   21.1330   43.6930 C   0  0  0  0  0  0  0  0  0  0  0  0
   56.2780   20.3440   43.3970 O   0  0  0  0  0  0  0  0  0  0  0  0
   57.1690   23.4250   44.7190 C   0  0  0  0  0  0  0  0  0  0  0  0
   55.8270   26.5270   45.7550 C   0  0  0  0  0  0  0  0  0  0  0  0
   54.5900   25.9320   45.9770 O   0  0  0  0  0  0  0  0  0  0  0  0
   55.8870   27.8470   45.6160 O   0  0  0  0  0  0  0  0  0  0  0  0
   57.0220   28.4970   45.3800 C   0  0  0  0  0  0  0  0  0  0  0  0
   57.0040   29.8900   45.2450 C   0  0  0  0  0  0  0  0  0  0  0  0
   56.8852   34.8143   46.0986 H   0  0  0  0  0  0  0  0  0  0  0  0
   57.9620   34.7319   44.6632 H   0  0  0  0  0  0  0  0  0  0  0  0
   56.3963   33.8515   44.6632 H   0  0  0  0  0  0  0  0  0  0  0  0
   58.8720   33.2555   46.3596 H   0  0  0  0  0  0  0  0  0  0  0  0
   57.2611   32.4754   46.6015 H   0  0  0  0  0  0  0  0  0  0  0  0
   60.3347   30.4344   44.6929 H   0  0  0  0  0  0  0  0  0  0  0  0
   60.3794   27.9575   44.9310 H   0  0  0  0  0  0  0  0  0  0  0  0
   56.4230   24.3529   47.9276 H   0  0  0  0  0  0  0  0  0  0  0  0
   56.3354   21.8757   48.1959 H   0  0  0  0  0  0  0  0  0  0  0  0
   56.7791   20.3867   46.2450 H   0  0  0  0  0  0  0  0  0  0  0  0
   57.6516   21.7485   42.8173 H   0  0  0  0  0  0  0  0  0  0  0  0
   58.2444   20.4777   43.9463 H   0  0  0  0  0  0  0  0  0  0  0  0
   56.5910   19.4020   43.3790 H   0  0  0  0  0  0  0  0  0  0  0  0
   57.4154   23.8610   43.7396 H   0  0  0  0  0  0  0  0  0  0  0  0
   56.0538   30.4364   45.3369 H   0  0  0  0  0  0  0  0  0  0  0  0
  1  2  1  0
  2  3  1  0
  3  4  1  0
  4  5  2  0
  5  6  1  0
  6  7  2  0
  7  8  1  0
  8  9  2  0
  8 10  1  0
 10 11  1  0
 11 12  2  0
 12 13  1  0
 13 14  2  0
 14 15  1  0
 15 16  1  0
 16 17  1  0
 15 18  2  0
 10 19  2  0
 19 20  1  0
 19 21  1  0
 21 22  1  0
 22 23  2  0
 23  4  1  0
 22  7  1  0
 18 11  1  0
  1 24  1  0
  1 25  1  0
  1 26  1  0
  2 27  1  0
  2 28  1  0
  5 29  1  0
  6 30  1  0
 12 31  1  0
 13 32  1  0
 14 33  1  0
 16 34  1  0
 16 35  1  0
 17 36  1  0
 18 37  1  0
 23 38  1  0
M  CHG  1  20  -1
M  END
>  <UniqueID>  (15) 
14

>  <SMILES>  (15) 
CCOc1ccc2c(=O)c(-c3cccc(CO)c3)c([O-])oc2c1

>  <Energy>  (15) 
50.90978297716491

>  <Genealogy>  (15) 
CCOc1ccc2c(=O)c(-c3cccc(CO)c3)c([O-])oc2c1 (protonated)
CCOc1ccc2c(=O)c(-c3cccc(CO)c3)c([O-])oc2c1 (3D coordinates assigned)
CCOc1ccc2c(=O)c(-c3cccc(CO)c3)c([O-])oc2c1 (optimized conformer: 50.90978297716491 kcal/mol)

>  <smiles>  (15) 
CCOc1ccc2c(=O)c(-c3cccc(CO)c3)c(O)oc2c1

>  <score_type>  (15) 
oracle

>  <origin>  (15) 
adg

>  <m_score__min__energy>  (15) 
-10.09

>  <m_primary>  (15) 
energy

$$$$
15:0
     RDKit          3D

 49 52  0  0  0  0  0  0  0  0999 V2000
   55.8360   25.7860   45.9750 C   0  0  0  0  0  0  0  0  0  0  0  0
   56.0790   27.1870   45.9390 O   0  0  0  0  0  0  0  0  0  0  0  0
   57.3480   27.7670   45.7740 C   0  0  0  0  0  0  0  0  0  0  0  0
   58.5180   27.1240   46.2290 C   0  0  0  0  0  0  0  0  0  0  0  0
   59.7730   27.7020   46.0210 C   0  0  0  0  0  0  0  0  0  0  0  0
   59.8790   28.9200   45.3520 C   0  0  0  0  0  0  0  0  0  0  0  0
   58.7290   29.5740   44.9020 C   0  0  0  0  0  0  0  0  0  0  0  0
   57.4570   29.0180   45.1250 C   0  0  0  0  0  0  0  0  0  0  0  0
   56.2570   29.7790   44.6980 C   0  0  0  0  0  0  0  0  0  0  0  0
   55.1750   29.1580   44.5060 O   0  0  0  0  0  0  0  0  0  0  0  0
   56.2730   31.2020   44.5050 N   0  0  0  0  0  0  0  0  0  0  0  0
   57.2820   32.1230   44.9550 C   0  0  0  0  0  0  0  0  0  0  0  0
   57.9370   32.9230   44.0120 C   0  0  0  0  0  0  0  0  0  0  0  0
   58.8840   33.8650   44.4210 C   0  0  0  0  0  0  0  0  0  0  0  0
   59.1840   34.0160   45.7770 C   0  0  0  0  0  0  0  0  0  0  0  0
   58.5660   33.1990   46.7350 C   0  0  0  0  0  0  0  0  0  0  0  0
   58.8330   33.4180   48.1320 N   0  0  0  0  0  0  0  0  0  0  0  0
   59.4590   32.4450   48.9790 C   0  0  0  0  0  0  0  0  0  0  0  0
   60.4660   31.8130   48.5570 O   0  0  0  0  0  0  0  0  0  0  0  0
   58.9490   32.1920   50.3470 C   0  0  0  0  0  0  0  0  0  0  0  0
   59.3100   33.0410   51.4110 C   0  0  0  0  0  0  0  0  0  0  0  0
   58.8440   32.7930   52.7070 C   0  0  0  0  0  0  0  0  0  0  0  0
   58.0210   31.6920   52.9530 C   0  0  0  0  0  0  0  0  0  0  0  0
   57.6870   30.8190   51.9110 C   0  0  0  0  0  0  0  0  0  0  0  0
   58.1370   31.0720   50.6120 C   0  0  0  0  0  0  0  0  0  0  0  0
   56.8990   29.6960   52.1910 O   0  0  0  0  0  0  0  0  0  0  0  0
   56.6460   29.2880   53.5380 C   0  0  0  0  0  0  0  0  0  0  0  0
   56.4500   30.5160   54.4380 C   0  0  0  0  0  0  0  0  0  0  0  0
   57.5130   31.4480   54.2350 O   0  0  0  0  0  0  0  0  0  0  0  0
   57.6300   32.2360   46.3130 C   0  0  0  0  0  0  0  0  0  0  0  0
   55.7778   25.4507   47.0210 H   0  0  0  0  0  0  0  0  0  0  0  0
   54.8862   25.5654   45.4659 H   0  0  0  0  0  0  0  0  0  0  0  0
   56.6560   25.2584   45.4659 H   0  0  0  0  0  0  0  0  0  0  0  0
   58.4418   26.1593   46.7520 H   0  0  0  0  0  0  0  0  0  0  0  0
   60.6785   27.1950   46.3858 H   0  0  0  0  0  0  0  0  0  0  0  0
   60.8689   29.3670   45.1780 H   0  0  0  0  0  0  0  0  0  0  0  0
   58.8197   30.5319   44.3688 H   0  0  0  0  0  0  0  0  0  0  0  0
   57.7049   32.8095   42.9428 H   0  0  0  0  0  0  0  0  0  0  0  0
   59.3948   34.4895   43.6733 H   0  0  0  0  0  0  0  0  0  0  0  0
   59.9088   34.7798   46.0951 H   0  0  0  0  0  0  0  0  0  0  0  0
   58.5220   34.3170   48.5640 H   0  0  0  0  0  0  0  0  0  0  0  0
   59.9632   33.9056   51.2219 H   0  0  0  0  0  0  0  0  0  0  0  0
   59.1257   33.4647   53.5312 H   0  0  0  0  0  0  0  0  0  0  0  0
   57.8558   30.3935   49.7932 H   0  0  0  0  0  0  0  0  0  0  0  0
   55.7370   28.6692   53.5652 H   0  0  0  0  0  0  0  0  0  0  0  0
   57.5066   28.7091   53.9045 H   0  0  0  0  0  0  0  0  0  0  0  0
   55.4920   30.9977   54.1926 H   0  0  0  0  0  0  0  0  0  0  0  0
   56.4488   30.1948   55.4901 H   0  0  0  0  0  0  0  0  0  0  0  0
   57.1666   31.5658   47.0520 H   0  0  0  0  0  0  0  0  0  0  0  0
  1  2  1  0
  2  3  1  0
  3  4  2  0
  4  5  1  0
  5  6  2  0
  6  7  1  0
  7  8  2  0
  8  9  1  0
  9 10  2  0
  9 11  1  0
 11 12  1  0
 12 13  2  0
 13 14  1  0
 14 15  2  0
 15 16  1  0
 16 17  1  0
 17 18  1  0
 18 19  2  0
 18 20  1  0
 20 21  2  0
 21 22  1  0
 22 23  2  0
 23 24  1  0
 24 25  2  0
 24 26  1  0
 26 27  1  0
 27 28  1  0
 28 29  1  0
 16 30  2  0
  8  3  1  0
 30 12  1  0
 25 20  1  0
 29 23  1  0
  1 31  1  0
  1 32  1  0
  1 33  1  0
  4 34  1  0
  5 35  1  0
  6 36  1  0
  7 37  1  0
 13 38  1  0
 14 39  1  0
 15 40  1  0
 17 41  1  0
 21 42  1  0
 22 43  1  0
 25 44  1  0
 27 45  1  0
 27 46  1  0
 28 47  1  0
 28 48  1  0
 30 49  1  0
M  CHG  1  11  -1
M  END
>  <UniqueID>  (16) 
15

>  <SMILES>  (16) 
COc1ccccc1C(=O)[N-]c1cccc(NC(=O)c2ccc3c(c2)OCCO3)c1

>  <Energy>  (16) 
65.60701730427562

>  <Genealogy>  (16) 
COc1ccccc1C(=O)[N-]c1cccc(NC(=O)c2ccc3c(c2)OCCO3)c1 (protonated)
COc1ccccc1C(=O)[N-]c1cccc(NC(=O)c2ccc3c(c2)OCCO3)c1 (3D coordinates assigned)
COc1ccccc1C(=O)[N-]c1cccc(NC(=O)c2ccc3c(c2)OCCO3)c1 (nonaromatic ring conformer: 65.60701730427562 kcal/mol)

>  <smiles>  (16) 
COc1ccccc1C(=O)Nc1cccc(NC(=O)c2ccc3c(c2)OCCO3)c1

>  <score_type>  (16) 
oracle

>  <origin>  (16) 
adg

>  <m_score__min__energy>  (16) 
-10.5

>  <m_primary>  (16) 
energy

$$$$
16:0
     RDKit          3D

 39 40  0  0  0  0  0  0  0  0999 V2000
   58.0370   28.1780   44.3290 C   0  0  0  0  0  0  0  0  0  0  0  0
   56.9210   28.5820   45.2980 C   0  0  2  0  0  0  0  0  0  0  0  0
   56.1050   27.4110   45.6250 N   0  0  0  0  0  0  0  0  0  0  0  0
   56.6040   26.3140   46.4000 C   0  0  0  0  0  0  0  0  0  0  0  0
   57.7730   26.3480   46.8730 O   0  0  0  0  0  0  0  0  0  0  0  0
   55.7570   25.1890   46.6500 N   0  0  0  0  0  0  0  0  0  0  0  0
   54.9530   24.5410   45.6210 C   0  0  0  0  0  0  0  0  0  0  0  0
   55.7920   23.5790   44.8230 C   0  0  0  0  0  0  0  0  0  0  0  0
   56.8340   22.8700   45.4440 C   0  0  0  0  0  0  0  0  0  0  0  0
   57.6040   21.9630   44.7090 C   0  0  0  0  0  0  0  0  0  0  0  0
   57.3400   21.7550   43.3520 C   0  0  0  0  0  0  0  0  0  0  0  0
   56.3040   22.4550   42.7270 C   0  0  0  0  0  0  0  0  0  0  0  0
   55.5310   23.3640   43.4590 C   0  0  0  0  0  0  0  0  0  0  0  0
   56.0410   29.6670   44.7150 C   0  0  0  0  0  0  0  0  0  0  0  0
   54.9590   29.3530   44.1480 O   0  0  0  0  0  0  0  0  0  0  0  0
   56.3620   31.0610   44.8430 N   0  0  0  0  0  0  0  0  0  0  0  0
   57.3990   31.7770   44.1040 C   0  0  0  0  0  0  0  0  0  0  0  0
   57.9950   32.8630   44.9450 C   0  0  0  0  0  0  0  0  0  0  0  0
   58.8310   33.8640   44.4930 C   0  0  0  0  0  0  0  0  0  0  0  0
   59.1220   34.6300   45.6010 C   0  0  0  0  0  0  0  0  0  0  0  0
   58.4380   34.0550   46.6550 C   0  0  0  0  0  0  0  0  0  0  0  0
   57.7720   33.0070   46.2300 O   0  0  0  0  0  0  0  0  0  0  0  0
   58.9208   27.8581   44.9005 H   0  0  0  0  0  0  0  0  0  0  0  0
   57.6900   27.3484   43.6954 H   0  0  0  0  0  0  0  0  0  0  0  0
   58.3014   29.0375   43.6954 H   0  0  0  0  0  0  0  0  0  0  0  0
   57.3917   28.9797   46.2092 H   0  0  0  0  0  0  0  0  0  0  0  0
   55.1500   27.3220   45.2080 H   0  0  0  0  0  0  0  0  0  0  0  0
   54.1283   23.9917   46.0987 H   0  0  0  0  0  0  0  0  0  0  0  0
   54.5545   25.3110   44.9441 H   0  0  0  0  0  0  0  0  0  0  0  0
   57.0448   23.0289   46.5119 H   0  0  0  0  0  0  0  0  0  0  0  0
   58.4196   21.4118   45.1999 H   0  0  0  0  0  0  0  0  0  0  0  0
   57.9472   21.0409   42.7764 H   0  0  0  0  0  0  0  0  0  0  0  0
   56.0960   22.2915   41.6593 H   0  0  0  0  0  0  0  0  0  0  0  0
   54.7157   23.9124   42.9644 H   0  0  0  0  0  0  0  0  0  0  0  0
   58.1899   31.0694   43.8146 H   0  0  0  0  0  0  0  0  0  0  0  0
   56.9464   32.2306   43.2099 H   0  0  0  0  0  0  0  0  0  0  0  0
   59.1896   34.0179   43.4645 H   0  0  0  0  0  0  0  0  0  0  0  0
   59.7682   35.5194   45.6387 H   0  0  0  0  0  0  0  0  0  0  0  0
   58.4499   34.4201   47.6926 H   0  0  0  0  0  0  0  0  0  0  0  0
  1  2  1  0
  2  3  1  0
  3  4  1  0
  4  5  2  0
  4  6  1  0
  6  7  1  0
  7  8  1  0
  8  9  2  0
  9 10  1  0
 10 11  2  0
 11 12  1  0
 12 13  2  0
  2 14  1  0
 14 15  2  0
 14 16  1  0
 16 17  1  0
 17 18  1  0
 18 19  2  0
 19 20  1  0
 20 21  2  0
 21 22  1  0
 13  8  1  0
 22 18  1  0
  1 23  1  0
  1 24  1  0
  1 25  1  0
  2 26  1  1
  3 27  1  0
  7 28  1  0
  7 29  1  0
  9 30  1  0
 10 31  1  0
 11 32  1  0
 12 33  1  0
 13 34  1  0
 17 35  1  0
 17 36  1  0
 19 37  1  0
 20 38  1  0
 21 39  1  0
M  CHG  2   6  -1  16  -1
M  END
>  <UniqueID>  (17) 
16

>  <SMILES>  (17) 
C[C@H](NC(=O)[N-]Cc1ccccc1)C(=O)[N-]Cc1ccco1

>  <Energy>  (17) 
54.00399030067463

>  <Genealogy>  (17) 
CC(NC(=O)[N-]Cc1ccccc1)C(=O)[N-]Cc1ccco1 (protonated)
C[C@H](NC(=O)[N-]Cc1ccccc1)C(=O)[N-]Cc1ccco1 (chirality)
C[C@H](NC(=O)[N-]Cc1ccccc1)C(=O)[N-]Cc1ccco1 (3D coordinates assigned)
C[C@H](NC(=O)[N-]Cc1ccccc1)C(=O)[N-]Cc1ccco1 (optimized conformer: 54.00399030067463 kcal/mol)

>  <smiles>  (17) 
CC(NC(=O)NCc1ccccc1)C(=O)NCc1ccco1

>  <score_type>  (17) 
oracle

>  <origin>  (17) 
adg

>  <m_score__min__energy>  (17) 
-11.720000000000001

>  <m_primary>  (17) 
energy

$$$$
17:0
     RDKit          3D

 40 42  0  0  0  0  0  0  0  0999 V2000
   57.9790   32.4020   41.5050 O   0  0  0  0  0  0  0  0  0  0  0  0
   57.7830   32.0380   42.7110 C   0  0  0  0  0  0  0  0  0  0  0  0
   57.8450   32.9200   43.7350 N   0  0  0  0  0  0  0  0  0  0  0  0
   57.6320   32.5130   45.0150 C   0  0  0  0  0  0  0  0  0  0  0  0
   57.7340   33.7490   46.3090 S   0  0  0  0  0  0  0  0  0  0  0  0
   59.3720   33.5610   47.0850 C   0  0  0  0  0  0  0  0  0  0  0  0
   59.2760   33.2890   48.5410 C   0  0  0  0  0  0  0  0  0  0  0  0
   59.9220   34.1140   49.4450 C   0  0  0  0  0  0  0  0  0  0  0  0
   59.8260   33.8490   50.8090 C   0  0  0  0  0  0  0  0  0  0  0  0
   59.0880   32.7660   51.2710 C   0  0  0  0  0  0  0  0  0  0  0  0
   58.4470   31.9460   50.3890 C   0  0  0  0  0  0  0  0  0  0  0  0
   57.6920   30.8380   50.8630 N   0  0  0  0  0  0  0  0  0  0  0  0
   58.1870   29.6940   50.8500 O   0  0  0  0  0  0  0  0  0  0  0  0
   56.4130   30.9500   51.3480 O   0  0  0  0  0  0  0  0  0  0  0  0
   58.5570   32.2280   49.0480 C   0  0  0  0  0  0  0  0  0  0  0  0
   57.3590   31.2250   45.2640 N   0  0  0  0  0  0  0  0  0  0  0  0
   57.2880   30.3040   44.2560 C   0  0  0  0  0  0  0  0  0  0  0  0
   56.8920   28.6520   44.7130 S   0  0  0  0  0  0  0  0  0  0  0  0
   58.2820   27.7110   45.3480 C   0  0  0  0  0  0  0  0  0  0  0  0
   59.2110   28.5440   46.1310 C   0  0  0  0  0  0  0  0  0  0  0  0
   59.1230   28.4170   47.5250 C   0  0  0  0  0  0  0  0  0  0  0  0
   59.9130   29.1540   48.3770 C   0  0  0  0  0  0  0  0  0  0  0  0
   60.8350   30.0580   47.8880 C   0  0  0  0  0  0  0  0  0  0  0  0
   61.8290   30.9840   48.9930 Cl  0  0  0  0  0  0  0  0  0  0  0  0
   60.9200   30.1830   46.5220 C   0  0  0  0  0  0  0  0  0  0  0  0
   60.1200   29.4370   45.6530 C   0  0  0  0  0  0  0  0  0  0  0  0
   57.5050   30.7630   43.0270 N   0  0  0  0  0  0  0  0  0  0  0  0
   59.8984   32.7243   46.6025 H   0  0  0  0  0  0  0  0  0  0  0  0
   59.9178   34.5070   46.9540 H   0  0  0  0  0  0  0  0  0  0  0  0
   60.5079   34.9740   49.0884 H   0  0  0  0  0  0  0  0  0  0  0  0
   60.3398   34.5039   51.5281 H   0  0  0  0  0  0  0  0  0  0  0  0
   59.0204   32.5693   52.3512 H   0  0  0  0  0  0  0  0  0  0  0  0
   58.0400   31.5670   48.3367 H   0  0  0  0  0  0  0  0  0  0  0  0
   57.8992   26.9064   45.9930 H   0  0  0  0  0  0  0  0  0  0  0  0
   58.8359   27.3075   44.4876 H   0  0  0  0  0  0  0  0  0  0  0  0
   58.3997   27.7058   47.9505 H   0  0  0  0  0  0  0  0  0  0  0  0
   59.8085   29.0210   49.4639 H   0  0  0  0  0  0  0  0  0  0  0  0
   61.6432   30.8953   46.0981 H   0  0  0  0  0  0  0  0  0  0  0  0
   60.2263   29.5734   44.5667 H   0  0  0  0  0  0  0  0  0  0  0  0
   57.4770   30.0840   42.2460 H   0  0  0  0  0  0  0  0  0  0  0  0
  1  2  2  0
  2  3  1  0
  3  4  2  0
  4  5  1  0
  5  6  1  0
  6  7  1  0
  7  8  2  0
  8  9  1  0
  9 10  2  0
 10 11  1  0
 11 12  1  0
 12 13  2  0
 12 14  1  0
 11 15  2  0
  4 16  1  0
 16 17  2  0
 17 18  1  0
 18 19  1  0
 19 20  1  0
 20 21  2  0
 21 22  1  0
 22 23  2  0
 23 24  1  0
 23 25  1  0
 25 26  2  0
 17 27  1  0
 27  2  1  0
 15  7  1  0
 26 20  1  0
  6 28  1  0
  6 29  1  0
  8 30  1  0
  9 31  1  0
 10 32  1  0
 15 33  1  0
 19 34  1  0
 19 35  1  0
 21 36  1  0
 22 37  1  0
 25 38  1  0
 26 39  1  0
 27 40  1  0
M  CHG  2  12   1  14  -1
M  END
>  <smiles>  (18) 
O=c1nc(SCc2cccc([N+](=O)[O-])c2)nc(SCc2ccc(Cl)cc2)[nH]1

>  <score_type>  (18) 
oracle

>  <origin>  (18) 
adg

>  <m_score__min__energy>  (18) 
-9.3599999999999994

>  <m_primary>  (18) 
energy

$$$$
18:0
     RDKit          3D

 40 42  0  0  1  0  0  0  0  0999 V2000
   58.5760   32.6400   47.7370 O   0  0  0  0  0  0  0  0  0  0  0  0
   58.6280   33.6320   46.9340 C   0  0  0  0  0  0  0  0  0  0  0  0
   57.4070   34.0110   46.1350 C   0  0  0  0  0  0  0  0  0  0  0  0
   57.5530   33.3340   44.4390 S   0  0  0  0  0  0  0  0  0  0  0  0
   57.3560   31.5680   44.4570 C   0  0  0  0  0  0  0  0  0  0  0  0
   58.3850   30.6740   44.5520 C   0  0  0  0  0  0  0  0  0  0  0  0
   58.0940   29.3270   44.5560 C   0  0  0  0  0  0  0  0  0  0  0  0
   59.0410   28.4510   44.6400 N   0  0  0  0  0  0  0  0  0  0  0  0
   59.4980   28.1450   45.9550 C   0  0  0  0  0  0  0  0  0  0  0  0
   59.4810   26.8660   46.4720 C   0  0  0  0  0  0  0  0  0  0  0  0
   59.9420   26.6690   47.7550 C   0  0  0  0  0  0  0  0  0  0  0  0
   60.4120   27.7410   48.5030 C   0  0  0  0  0  0  0  0  0  0  0  0
   60.8750   27.5790   49.7750 F   0  0  0  0  0  0  0  0  0  0  0  0
   60.4400   29.0330   48.0080 C   0  0  0  0  0  0  0  0  0  0  0  0
   59.9690   29.2180   46.7050 C   0  0  0  0  0  0  0  0  0  0  0  0
   56.8400   28.8430   44.4700 N   0  0  0  0  0  0  0  0  0  0  0  0
   55.8400   29.7400   44.3760 C   0  0  0  0  0  0  0  0  0  0  0  0
   56.1030   31.0750   44.3700 N   0  0  0  0  0  0  0  0  0  0  0  0
   59.8330   34.3840   46.7890 N   0  0  0  0  0  0  0  0  0  0  0  0
   60.9730   34.0150   47.5480 C   0  0  0  0  0  0  0  0  0  0  0  0
   61.0740   34.1880   48.9120 C   0  0  0  0  0  0  0  0  0  0  0  0
   62.2380   33.7890   49.5340 C   0  0  0  0  0  0  0  0  0  0  0  0
   63.3020   33.2220   48.8300 C   0  0  0  0  0  0  0  0  0  0  0  0
   64.8990   32.6840   49.7310 Br  0  0  0  0  0  0  0  0  0  0  0  0
   63.1950   33.0500   47.4540 C   0  0  0  0  0  0  0  0  0  0  0  0
   62.0280   33.4490   46.8270 C   0  0  0  0  0  0  0  0  0  0  0  0
   56.5095   33.5980   46.6187 H   0  0  0  0  0  0  0  0  0  0  0  0
   57.3260   35.1069   46.0867 H   0  0  0  0  0  0  0  0  0  0  0  0
   59.4257   31.0228   44.6239 H   0  0  0  0  0  0  0  0  0  0  0  0
   59.1076   26.0223   45.8730 H   0  0  0  0  0  0  0  0  0  0  0  0
   59.9379   25.6583   48.1892 H   0  0  0  0  0  0  0  0  0  0  0  0
   60.8147   29.8735   48.6106 H   0  0  0  0  0  0  0  0  0  0  0  0
   59.9708   30.2267   46.2662 H   0  0  0  0  0  0  0  0  0  0  0  0
   56.6310   27.8250   44.4720 H   0  0  0  0  0  0  0  0  0  0  0  0
   54.7998   29.3898   44.3033 H   0  0  0  0  0  0  0  0  0  0  0  0
   59.8030   35.1790   46.1180 H   0  0  0  0  0  0  0  0  0  0  0  0
   60.2488   34.6320   49.4881 H   0  0  0  0  0  0  0  0  0  0  0  0
   62.3315   33.9219   50.6219 H   0  0  0  0  0  0  0  0  0  0  0  0
   64.0199   32.6066   46.8770 H   0  0  0  0  0  0  0  0  0  0  0  0
   61.9286   33.3181   45.7393 H   0  0  0  0  0  0  0  0  0  0  0  0
  1  2  2  0
  2  3  1  0
  3  4  1  0
  4  5  1  0
  5  6  2  0
  6  7  1  0
  7  8  2  0
  8  9  1  0
  9 10  2  0
 10 11  1  0
 11 12  2  0
 12 13  1  0
 12 14  1  0
 14 15  2  0
  7 16  1  0
 16 17  1  0
 17 18  2  0
  2 19  1  0
 19 20  1  0
 20 21  2  0
 21 22  1  0
 22 23  2  0
 23 24  1  0
 23 25  1  0
 25 26  2  0
 18  5  1  0
 26 20  1  0
 15  9  1  0
  3 27  1  0
  3 28  1  0
  6 29  1  0
 10 30  1  0
 11 31  1  0
 14 32  1  0
 15 33  1  0
 16 34  1  0
 17 35  1  0
 19 36  1  0
 21 37  1  0
 22 38  1  0
 25 39  1  0
 26 40  1  0
M  END
>  <smiles>  (19) 
O=C(CSc1cc(=Nc2ccc(F)cc2)[nH]cn1)Nc1ccc(Br)cc1

>  <score_type>  (19) 
oracle

>  <origin>  (19) 
adg

>  <m_score__min__energy>  (19) 
-8.3499999999999996

>  <m_primary>  (19) 
energy

$$$$
19:0
     RDKit          3D

 31 33  0  0  0  0  0  0  0  0999 V2000
   60.4190   29.4360   46.8930 O   0  0  0  0  0  0  0  0  0  0  0  0
   60.1700   28.8830   45.5180 S   0  0  0  0  0  0  0  0  0  0  0  0
   61.4680   28.6260   44.8080 O   0  0  0  0  0  0  0  0  0  0  0  0
   59.2040   29.9920   44.6010 N   0  0  0  0  0  0  0  0  0  0  0  0
   58.0170   29.6990   44.1190 C   0  0  0  0  0  0  0  0  0  0  0  0
   57.2750   30.6770   43.3640 N   0  0  0  0  0  0  0  0  0  0  0  0
   57.7580   32.0300   43.0810 C   0  0  0  0  0  0  0  0  0  0  0  0
   58.0460   32.7680   44.3600 C   0  0  0  0  0  0  0  0  0  0  0  0
   58.9440   33.8500   44.3680 C   0  0  0  0  0  0  0  0  0  0  0  0
   59.1820   34.5600   45.5480 C   0  0  0  0  0  0  0  0  0  0  0  0
   58.5180   34.2030   46.7260 C   0  0  0  0  0  0  0  0  0  0  0  0
   57.6120   33.1390   46.7230 C   0  0  0  0  0  0  0  0  0  0  0  0
   57.3710   32.4270   45.5440 C   0  0  0  0  0  0  0  0  0  0  0  0
   57.4080   28.4000   44.3170 N   0  0  0  0  0  0  0  0  0  0  0  0
   58.0140   27.3210   45.0410 C   0  0  0  0  0  0  0  0  0  0  0  0
   57.4230   26.0660   45.2310 C   0  0  0  0  0  0  0  0  0  0  0  0
   58.2220   25.1990   45.9720 C   0  0  0  0  0  0  0  0  0  0  0  0
   59.6550   25.9920   46.3850 S   0  0  0  0  0  0  0  0  0  0  0  0
   59.2480   27.4280   45.6210 C   0  0  0  0  0  0  0  0  0  0  0  0
   59.6280   30.9310   44.4500 H   0  0  0  0  0  0  0  0  0  0  0  0
   56.3360   30.3950   43.0010 H   0  0  0  0  0  0  0  0  0  0  0  0
   58.6800   31.9672   42.4844 H   0  0  0  0  0  0  0  0  0  0  0  0
   56.9810   32.5747   42.5246 H   0  0  0  0  0  0  0  0  0  0  0  0
   59.4615   34.1389   43.4413 H   0  0  0  0  0  0  0  0  0  0  0  0
   59.8920   35.4002   45.5503 H   0  0  0  0  0  0  0  0  0  0  0  0
   58.7090   34.7599   47.6552 H   0  0  0  0  0  0  0  0  0  0  0  0
   57.0878   32.8613   47.6493 H   0  0  0  0  0  0  0  0  0  0  0  0
   56.6499   31.5964   45.5435 H   0  0  0  0  0  0  0  0  0  0  0  0
   56.4630   28.2310   43.9070 H   0  0  0  0  0  0  0  0  0  0  0  0
   56.4328   25.7938   44.8368 H   0  0  0  0  0  0  0  0  0  0  0  0
   57.9621   24.1654   46.2442 H   0  0  0  0  0  0  0  0  0  0  0  0
  1  2  2  0
  2  3  2  0
  2  4  1  0
  4  5  2  0
  5  6  1  0
  6  7  1  0
  7  8  1  0
  8  9  2  0
  9 10  1  0
 10 11  2  0
 11 12  1  0
 12 13  2  0
  5 14  1  0
 14 15  1  0
 15 16  1  0
 16 17  2  0
 17 18  1  0
 18 19  1  0
 19  2  1  0
 13  8  1  0
 19 15  2  0
  4 20  1  0
  6 21  1  0
  7 22  1  0
  7 23  1  0
  9 24  1  0
 10 25  1  0
 11 26  1  0
 12 27  1  0
 13 28  1  0
 14 29  1  0
 16 30  1  0
 17 31  1  0
M  CHG  1   4   1
M  END
>  <UniqueID>  (20) 
17

>  <SMILES>  (20) 
O=S1(=O)[NH+]=C(NCc2ccccc2)Nc2ccsc21

>  <Energy>  (20) 
65.1699773574879

>  <Genealogy>  (20) 
O=S1(=O)[NH+]=C(NCc2ccccc2)Nc2ccsc21 (protonated)
O=S1(=O)[NH+]=C(NCc2ccccc2)Nc2ccsc21 (3D coordinates assigned)
O=S1(=O)[NH+]=C(NCc2ccccc2)Nc2ccsc21 (nonaromatic ring conformer: 65.1699773574879 kcal/mol)

>  <smiles>  (20) 
O=S1(=O)N=C(NCc2ccccc2)Nc2ccsc21

>  <score_type>  (20) 
oracle

>  <origin>  (20) 
adg

>  <m_score__min__energy>  (20) 
-5.5499999999999998

>  <m_primary>  (20) 
energy

$$$$
20:0
     RDKit          3D

 67 71  0  0  0  0  0  0  0  0999 V2000
   55.2713   30.4900   43.3311 H   0  0  0  0  0  0  0  0  0  0  0  0
   56.0800   30.4250   44.0740 C   0  0  0  0  0  0  0  0  0  0  0  0
   56.6540   31.5590   44.5550 N   0  0  0  0  0  0  0  0  0  0  0  0
   57.6470   31.5050   45.4830 C   0  0  0  0  0  0  0  0  0  0  0  0
   58.1980   32.6100   45.8930 N   0  0  0  0  0  0  0  0  0  0  0  0
   59.3160   32.7230   46.7900 C   0  0  0  0  0  0  0  0  0  0  0  0
   59.1990   32.4380   48.1620 C   0  0  0  0  0  0  0  0  0  0  0  0
   58.2338   32.1056   48.5719 H   0  0  0  0  0  0  0  0  0  0  0  0
   60.3020   32.5750   49.0060 C   0  0  0  0  0  0  0  0  0  0  0  0
   60.2039   32.3384   50.0758 H   0  0  0  0  0  0  0  0  0  0  0  0
   61.5340   33.0120   48.5000 C   0  0  0  0  0  0  0  0  0  0  0  0
   62.6550   33.1500   49.3840 N   0  0  0  0  0  0  0  0  0  0  0  0
   62.7420   34.2910   50.2920 C   0  0  0  0  0  0  0  0  0  0  0  0
   61.7353   34.7014   50.4595 H   0  0  0  0  0  0  0  0  0  0  0  0
   63.3880   35.0610   49.8450 H   0  0  0  0  0  0  0  0  0  0  0  0
   63.3410   33.8460   51.6360 C   0  0  0  0  0  0  0  0  0  0  0  0
   62.5813   33.2659   52.1804 H   0  0  0  0  0  0  0  0  0  0  0  0
   63.6365   34.7579   52.1755 H   0  0  0  0  0  0  0  0  0  0  0  0
   64.5590   33.0090   51.4950 N   0  0  0  0  0  0  0  0  0  0  0  0
   64.7260   32.5790   52.4350 H   0  0  0  0  0  0  0  0  0  0  0  0
   65.7510   33.7690   51.1890 C   0  0  0  0  0  0  0  0  0  0  0  0
   65.9000   34.9430   51.6250 O   0  0  0  0  0  0  0  0  0  0  0  0
   66.7180   33.2100   50.3440 O   0  0  0  0  0  0  0  0  0  0  0  0
   68.1060   33.4830   50.4830 C   0  0  0  0  0  0  0  0  0  0  0  0
   68.3645   33.5339   51.5510 H   0  0  0  0  0  0  0  0  0  0  0  0
   68.6871   32.6820   50.0028 H   0  0  0  0  0  0  0  0  0  0  0  0
   68.3405   34.4445   50.0028 H   0  0  0  0  0  0  0  0  0  0  0  0
   64.3830   31.8850   50.5490 C   0  0  0  0  0  0  0  0  0  0  0  0
   63.6706   31.1679   50.9828 H   0  0  0  0  0  0  0  0  0  0  0  0
   65.3707   31.4287   50.3869 H   0  0  0  0  0  0  0  0  0  0  0  0
   63.8530   32.3390   49.1860 C   0  0  0  0  0  0  0  0  0  0  0  0
   63.6046   31.4582   48.5756 H   0  0  0  0  0  0  0  0  0  0  0  0
   64.6211   32.9333   48.6695 H   0  0  0  0  0  0  0  0  0  0  0  0
   61.6480   33.3470   47.1340 C   0  0  0  0  0  0  0  0  0  0  0  0
   62.9480   33.8460   46.5670 C   0  0  0  0  0  0  0  0  0  0  0  0
   63.6302   34.1078   47.3892 H   0  0  0  0  0  0  0  0  0  0  0  0
   63.4043   33.0591   45.9485 H   0  0  0  0  0  0  0  0  0  0  0  0
   62.7606   34.7361   45.9485 H   0  0  0  0  0  0  0  0  0  0  0  0
   60.5350   33.1970   46.2910 C   0  0  0  0  0  0  0  0  0  0  0  0
   60.6221   33.4552   45.2253 H   0  0  0  0  0  0  0  0  0  0  0  0
   58.0840   30.2960   45.9270 N   0  0  0  0  0  0  0  0  0  0  0  0
   57.5400   29.1380   45.4730 C   0  0  0  0  0  0  0  0  0  0  0  0
   58.0330   27.8870   45.9640 N   0  0  0  0  0  0  0  0  0  0  0  0
   57.4110   26.7030   45.4430 C   0  0  0  0  0  0  0  0  0  0  0  0
   57.9170   26.0920   44.2860 C   0  0  0  0  0  0  0  0  0  0  0  0
   58.7735   26.5376   43.7588 H   0  0  0  0  0  0  0  0  0  0  0  0
   57.3330   24.9160   43.8020 C   0  0  0  0  0  0  0  0  0  0  0  0
   57.7328   24.4358   42.8967 H   0  0  0  0  0  0  0  0  0  0  0  0
   56.2410   24.3510   44.4690 C   0  0  0  0  0  0  0  0  0  0  0  0
   55.7813   23.4278   44.0866 H   0  0  0  0  0  0  0  0  0  0  0  0
   55.7330   24.9590   45.6220 C   0  0  0  0  0  0  0  0  0  0  0  0
   54.8708   24.5162   46.1422 H   0  0  0  0  0  0  0  0  0  0  0  0
   56.3200   26.1290   46.1140 C   0  0  0  0  0  0  0  0  0  0  0  0
   55.9266   26.5996   47.0271 H   0  0  0  0  0  0  0  0  0  0  0  0
   58.9410   27.8310   47.0920 C   0  0  0  0  0  0  0  0  0  0  0  0
   59.9060   26.8040   47.2000 C   0  0  0  0  0  0  0  0  0  0  0  0
   59.9712   26.0327   46.4185 H   0  0  0  0  0  0  0  0  0  0  0  0
   60.7780   26.7600   48.2910 C   0  0  0  0  0  0  0  0  0  0  0  0
   61.5267   25.9573   48.3624 H   0  0  0  0  0  0  0  0  0  0  0  0
   60.7020   27.7320   49.2910 C   0  0  0  0  0  0  0  0  0  0  0  0
   61.3918   27.6957   50.1470 H   0  0  0  0  0  0  0  0  0  0  0  0
   59.7510   28.7490   49.2040 C   0  0  0  0  0  0  0  0  0  0  0  0
   59.6912   29.5129   49.9932 H   0  0  0  0  0  0  0  0  0  0  0  0
   58.8740   28.8000   48.1170 C   0  0  0  0  0  0  0  0  0  0  0  0
   58.1242   29.6028   48.0593 H   0  0  0  0  0  0  0  0  0  0  0  0
   56.5170   29.1780   44.5230 C   0  0  0  0  0  0  0  0  0  0  0  0
   56.0674   28.2506   44.1386 H   0  0  0  0  0  0  0  0  0  0  0  0
  1  2  1  0
  2  3  1  0
  3  4  1  0
  4  5  2  0
  5  6  1  0
  6  7  2  0
  7  8  1  0
  7  9  1  0
  9 10  1  0
  9 11  2  0
 11 12  1  0
 12 13  1  0
 13 14  1  0
 13 15  1  0
 13 16  1  0
 16 17  1  0
 16 18  1  0
 16 19  1  0
 19 20  1  0
 19 21  1  0
 21 22  2  0
 21 23  1  0
 23 24  1  0
 24 25  1  0
 24 26  1  0
 24 27  1  0
 19 28  1  0
 28 29  1  0
 28 30  1  0
 28 31  1  0
 31 32  1  0
 31 33  1  0
 11 34  1  0
 34 35  1  0
 35 36  1  0
 35 37  1  0
 35 38  1  0
 34 39  2  0
 39 40  1  0
  4 41  1  0
 41 42  2  0
 42 43  1  0
 43 44  1  0
 44 45  2  0
 45 46  1  0
 45 47  1  0
 47 48  1  0
 47 49  2  0
 49 50  1  0
 49 51  1  0
 51 52  1  0
 51 53  2  0
 53 54  1  0
 43 55  1  0
 55 56  2  0
 56 57  1  0
 56 58  1  0
 58 59  1  0
 58 60  2  0
 60 61  1  0
 60 62  1  0
 62 63  1  0
 62 64  2  0
 64 65  1  0
 42 66  1  0
 66 67  1  0
 66  2  2  0
 39  6  1  0
 53 44  1  0
 64 55  1  0
 31 12  1  0
M  CHG  2   3  -1  19   1
M  END
>  <UniqueID>  (21) 
18

>  <SMILES>  (21) 
COC(=O)[NH+]1CCN(c2ccc(/N=c3\nc(N(c4ccccc4)c4ccccc4)cc[n-]3)cc2C)CC1

>  <Energy>  (21) 
103.14863459081732

>  <Genealogy>  (21) 
COC(=O)[NH+]1CCN(c2ccc(N=c3nc(N(c4ccccc4)c4ccccc4)cc[n-]3)cc2C)CC1 (protonated)
COC(=O)[NH+]1CCN(c2ccc(/N=c3\nc(N(c4ccccc4)c4ccccc4)cc[n-]3)cc2C)CC1 (cis-trans isomerization)
COC(=O)[NH+]1CCN(c2ccc(/N=c3\nc(N(c4ccccc4)c4ccccc4)cc[n-]3)cc2C)CC1 (3D coordinates assigned)
COC(=O)[NH+]1CCN(c2ccc(/N=c3\nc(N(c4ccccc4)c4ccccc4)cc[n-]3)cc2C)CC1 (nonaromatic ring conformer: 103.14863459081732 kcal/mol)

>  <smiles>  (21) 
COC(=O)N1CCN(c2ccc(N=c3nc(N(c4ccccc4)c4ccccc4)cc[nH]3)cc2C)CC1

>  <score_type>  (21) 
oracle

>  <origin>  (21) 
adg

>  <m_score__min__energy>  (21) 
-9.2899999999999991

>  <m_primary>  (21) 
energy

$$$$
21:0
     RDKit          3D

 52 55  0  0  0  0  0  0  0  0999 V2000
   55.6090   26.2210   46.3410 O   0  0  0  0  0  0  0  0  0  0  0  0
   56.3850   27.1550   46.0050 C   0  0  0  0  0  0  0  0  0  0  0  0
   55.8500   28.2530   45.2490 N   0  0  0  0  0  0  0  0  0  0  0  0
   56.5700   29.4180   44.8220 C   0  0  0  0  0  0  0  0  0  0  0  0
   56.4420   29.8470   43.4970 C   0  0  0  0  0  0  0  0  0  0  0  0
   57.1200   30.9830   43.0540 C   0  0  0  0  0  0  0  0  0  0  0  0
   57.9380   31.7000   43.9320 C   0  0  0  0  0  0  0  0  0  0  0  0
   58.0990   31.2740   45.2630 C   0  0  0  0  0  0  0  0  0  0  0  0
   58.9510   32.0400   46.2060 C   0  0  0  0  0  0  0  0  0  0  0  0
   59.7600   31.3740   47.1440 C   0  0  0  0  0  0  0  0  0  0  0  0
   60.5650   32.0980   48.0280 C   0  0  0  0  0  0  0  0  0  0  0  0
   60.5860   33.5010   47.9840 C   0  0  0  0  0  0  0  0  0  0  0  0
   61.4550   34.2850   48.9470 C   0  0  0  0  0  0  0  0  0  0  0  0
   62.5640   33.5070   49.5530 N   0  0  0  0  0  0  0  0  0  0  0  0
   62.9700   34.0160   50.8790 C   0  0  0  0  0  0  0  0  0  0  0  0
   64.0690   33.1180   51.4940 C   0  0  0  0  0  0  0  0  0  0  0  0
   64.4990   32.1040   50.6020 O   0  0  0  0  0  0  0  0  0  0  0  0
   64.9110   32.6820   49.3790 C   0  0  0  0  0  0  0  0  0  0  0  0
   63.7400   33.3910   48.6630 C   0  0  0  0  0  0  0  0  0  0  0  0
   59.7680   34.1680   47.0600 C   0  0  0  0  0  0  0  0  0  0  0  0
   58.9620   33.4460   46.1760 C   0  0  0  0  0  0  0  0  0  0  0  0
   57.4260   30.1160   45.6920 C   0  0  0  0  0  0  0  0  0  0  0  0
   57.8020   27.1100   46.4330 C   0  0  0  0  0  0  0  0  0  0  0  0
   58.2170   27.8170   47.5750 C   0  0  0  0  0  0  0  0  0  0  0  0
   59.5490   27.7580   47.9990 C   0  0  0  0  0  0  0  0  0  0  0  0
   60.4800   27.0030   47.2800 C   0  0  0  0  0  0  0  0  0  0  0  0
   60.0830   26.3120   46.1340 C   0  0  0  0  0  0  0  0  0  0  0  0
   58.7530   26.3690   45.7060 C   0  0  0  0  0  0  0  0  0  0  0  0
   55.8028   29.2853   42.7999 H   0  0  0  0  0  0  0  0  0  0  0  0
   57.0106   31.3153   42.0111 H   0  0  0  0  0  0  0  0  0  0  0  0
   58.4589   32.6027   43.5800 H   0  0  0  0  0  0  0  0  0  0  0  0
   59.7592   30.2747   47.1823 H   0  0  0  0  0  0  0  0  0  0  0  0
   61.1861   31.5650   48.7629 H   0  0  0  0  0  0  0  0  0  0  0  0
   61.8905   35.1352   48.4016 H   0  0  0  0  0  0  0  0  0  0  0  0
   60.8013   34.5931   49.7763 H   0  0  0  0  0  0  0  0  0  0  0  0
   62.1840   32.5380   49.6950 H   0  0  0  0  0  0  0  0  0  0  0  0
   63.3585   35.0393   50.7699 H   0  0  0  0  0  0  0  0  0  0  0  0
   62.0941   34.0103   51.5443 H   0  0  0  0  0  0  0  0  0  0  0  0
   64.9325   33.7465   51.7574 H   0  0  0  0  0  0  0  0  0  0  0  0
   63.6433   32.6263   52.3812 H   0  0  0  0  0  0  0  0  0  0  0  0
   65.7040   33.4172   49.5807 H   0  0  0  0  0  0  0  0  0  0  0  0
   65.2786   31.8779   48.7246 H   0  0  0  0  0  0  0  0  0  0  0  0
   64.0615   34.3982   48.3592 H   0  0  0  0  0  0  0  0  0  0  0  0
   63.4554   32.7946   47.7836 H   0  0  0  0  0  0  0  0  0  0  0  0
   59.7610   35.2676   47.0312 H   0  0  0  0  0  0  0  0  0  0  0  0
   58.3313   33.9814   45.4511 H   0  0  0  0  0  0  0  0  0  0  0  0
   57.5710   29.7522   46.7199 H   0  0  0  0  0  0  0  0  0  0  0  0
   57.4901   28.4202   48.1386 H   0  0  0  0  0  0  0  0  0  0  0  0
   59.8639   28.3063   48.8991 H   0  0  0  0  0  0  0  0  0  0  0  0
   61.5258   26.9534   47.6174 H   0  0  0  0  0  0  0  0  0  0  0  0
   60.8176   25.7217   45.5667 H   0  0  0  0  0  0  0  0  0  0  0  0
   58.4480   25.8317   44.7959 H   0  0  0  0  0  0  0  0  0  0  0  0
  1  2  2  0
  2  3  1  0
  3  4  1  0
  4  5  2  0
  5  6  1  0
  6  7  2  0
  7  8  1  0
  8  9  1  0
  9 10  2  0
 10 11  1  0
 11 12  2  0
 12 13  1  0
 13 14  1  0
 14 15  1  0
 15 16  1  0
 16 17  1  0
 17 18  1  0
 18 19  1  0
 12 20  1  0
 20 21  2  0
  8 22  2  0
  2 23  1  0
 23 24  2  0
 24 25  1  0
 25 26  2  0
 26 27  1  0
 27 28  2  0
 22  4  1  0
 28 23  1  0
 21  9  1  0
 19 14  1  0
  5 29  1  0
  6 30  1  0
  7 31  1  0
 10 32  1  0
 11 33  1  0
 13 34  1  0
 13 35  1  0
 14 36  1  0
 15 37  1  0
 15 38  1  0
 16 39  1  0
 16 40  1  0
 18 41  1  0
 18 42  1  0
 19 43  1  0
 19 44  1  0
 20 45  1  0
 21 46  1  0
 22 47  1  0
 24 48  1  0
 25 49  1  0
 26 50  1  0
 27 51  1  0
 28 52  1  0
M  CHG  2   3  -1  14   1
M  END
>  <UniqueID>  (22) 
19

>  <SMILES>  (22) 
O=C([N-]c1cccc(-c2ccc(C[NH+]3CCOCC3)cc2)c1)c1ccccc1

>  <Energy>  (22) 
79.23393605639406

>  <Genealogy>  (22) 
O=C([N-]c1cccc(-c2ccc(C[NH+]3CCOCC3)cc2)c1)c1ccccc1 (protonated)
O=C([N-]c1cccc(-c2ccc(C[NH+]3CCOCC3)cc2)c1)c1ccccc1 (3D coordinates assigned)
O=C([N-]c1cccc(-c2ccc(C[NH+]3CCOCC3)cc2)c1)c1ccccc1 (nonaromatic ring conformer: 79.23393605639406 kcal/mol)

>  <smiles>  (22) 
O=C(Nc1cccc(-c2ccc(CN3CCOCC3)cc2)c1)c1ccccc1

>  <score_type>  (22) 
oracle

>  <origin>  (22) 
adg

>  <m_score__min__energy>  (22) 
-9.7100000000000009

>  <m_primary>  (22) 
energy

$$$$
22:0
     RDKit          3D

 55 58  0  0  0  0  0  0  0  0999 V2000
   55.2940   29.8140   44.8570 N   0  0  0  0  0  0  0  0  0  0  0  0
   56.3030   30.2430   44.1650 C   0  0  0  0  0  0  0  0  0  0  0  0
   56.4440   29.8290   42.7990 N   0  0  0  0  0  0  0  0  0  0  0  0
   57.2930   31.1530   44.7960 C   0  0  0  0  0  0  0  0  0  0  0  0
   57.0560   32.5510   44.8670 C   0  0  0  0  0  0  0  0  0  0  0  0
   57.9870   33.4080   45.4750 C   0  0  0  0  0  0  0  0  0  0  0  0
   59.1350   32.8510   46.0230 C   0  0  0  0  0  0  0  0  0  0  0  0
   60.3880   33.6260   46.8240 S   0  0  0  0  0  0  0  0  0  0  0  0
   61.2540   32.2100   47.1780 C   0  0  0  0  0  0  0  0  0  0  0  0
   62.6400   32.1350   47.7690 C   0  0  0  0  0  0  0  0  0  0  0  0
   62.7690   32.2820   49.3120 C   0  0  2  0  0  0  0  0  0  0  0  0
   62.3510   31.1100   50.1100 N   0  0  0  0  0  0  0  0  0  0  0  0
   60.6430   30.7990   50.2970 S   0  0  0  0  0  0  0  0  0  0  0  0
   60.2910   30.6770   51.7520 O   0  0  0  0  0  0  0  0  0  0  0  0
   59.8980   31.9860   49.7520 O   0  0  0  0  0  0  0  0  0  0  0  0
   60.0940   29.3860   49.3990 C   0  0  0  0  0  0  0  0  0  0  0  0
   58.9010   29.4460   48.6660 C   0  0  0  0  0  0  0  0  0  0  0  0
   58.4810   28.3450   47.9150 C   0  0  0  0  0  0  0  0  0  0  0  0
   59.2440   27.1730   47.8910 C   0  0  0  0  0  0  0  0  0  0  0  0
   58.8230   26.0990   47.0950 O   0  0  0  0  0  0  0  0  0  0  0  0
   58.4420   26.2060   45.7500 C   0  0  0  0  0  0  0  0  0  0  0  0
   58.8410   27.3380   45.0270 C   0  0  0  0  0  0  0  0  0  0  0  0
   58.5030   27.4690   43.6770 C   0  0  0  0  0  0  0  0  0  0  0  0
   57.7800   26.4600   43.0350 C   0  0  0  0  0  0  0  0  0  0  0  0
   57.3960   25.3170   43.7420 C   0  0  0  0  0  0  0  0  0  0  0  0
   57.7210   25.1890   45.0950 C   0  0  0  0  0  0  0  0  0  0  0  0
   60.3960   27.0840   48.6880 C   0  0  0  0  0  0  0  0  0  0  0  0
   60.8070   28.1790   49.4520 C   0  0  0  0  0  0  0  0  0  0  0  0
   62.2960   33.5940   49.8910 C   0  0  0  0  0  0  0  0  0  0  0  0
   61.4060   33.6060   51.0090 N   0  0  0  0  0  0  0  0  0  0  0  0
   62.6080   34.6860   49.3460 O   0  0  0  0  0  0  0  0  0  0  0  0
   60.5880   31.1260   46.5960 C   0  0  0  0  0  0  0  0  0  0  0  0
   59.3880   31.4920   45.9770 C   0  0  0  0  0  0  0  0  0  0  0  0
   58.4800   30.6260   45.3640 C   0  0  0  0  0  0  0  0  0  0  0  0
   54.7940   30.4250   45.5410 H   0  0  0  0  0  0  0  0  0  0  0  0
   57.3220   30.0050   42.2610 H   0  0  0  0  0  0  0  0  0  0  0  0
   55.7040   29.2520   42.3440 H   0  0  0  0  0  0  0  0  0  0  0  0
   56.1317   32.9677   44.4404 H   0  0  0  0  0  0  0  0  0  0  0  0
   57.8116   34.4931   45.5163 H   0  0  0  0  0  0  0  0  0  0  0  0
   63.0635   31.1577   47.4941 H   0  0  0  0  0  0  0  0  0  0  0  0
   63.1687   33.0077   47.3581 H   0  0  0  0  0  0  0  0  0  0  0  0
   63.8630   32.3119   49.4229 H   0  0  0  0  0  0  0  0  0  0  0  0
   58.2933   30.3628   48.6819 H   0  0  0  0  0  0  0  0  0  0  0  0
   57.5452   28.4003   47.3395 H   0  0  0  0  0  0  0  0  0  0  0  0
   59.4232   28.1277   45.5244 H   0  0  0  0  0  0  0  0  0  0  0  0
   58.8064   28.3673   43.1193 H   0  0  0  0  0  0  0  0  0  0  0  0
   57.5131   26.5653   41.9731 H   0  0  0  0  0  0  0  0  0  0  0  0
   56.8375   24.5176   43.2329 H   0  0  0  0  0  0  0  0  0  0  0  0
   57.4126   24.2909   45.6503 H   0  0  0  0  0  0  0  0  0  0  0  0
   60.9765   26.1499   48.7111 H   0  0  0  0  0  0  0  0  0  0  0  0
   61.6934   28.0944   50.0978 H   0  0  0  0  0  0  0  0  0  0  0  0
   61.0690   32.7160   51.4360 H   0  0  0  0  0  0  0  0  0  0  0  0
   61.0650   34.5120   51.4010 H   0  0  0  0  0  0  0  0  0  0  0  0
   60.9681   30.0941   46.6224 H   0  0  0  0  0  0  0  0  0  0  0  0
   58.6838   29.5459   45.3223 H   0  0  0  0  0  0  0  0  0  0  0  0
  1  2  2  3
  2  3  1  0
  2  4  1  0
  4  5  2  0
  5  6  1  0
  6  7  2  0
  7  8  1  0
  8  9  1  0
  9 10  1  0
 10 11  1  0
 11 12  1  0
 12 13  1  0
 13 14  2  0
 13 15  2  0
 13 16  1  0
 16 17  2  0
 17 18  1  0
 18 19  2  0
 19 20  1  0
 20 21  1  0
 21 22  2  0
 22 23  1  0
 23 24  2  0
 24 25  1  0
 25 26  2  0
 19 27  1  0
 27 28  2  0
 11 29  1  0
 29 30  1  0
 29 31  2  0
  9 32  2  0
 32 33  1  0
 33 34  2  0
 34  4  1  0
 33  7  1  0
 28 16  1  0
 26 21  1  0
  1 35  1  0
  3 36  1  0
  3 37  1  0
  5 38  1  0
  6 39  1  0
 10 40  1  0
 10 41  1  0
 11 42  1  6
 17 43  1  0
 18 44  1  0
 22 45  1  0
 23 46  1  0
 24 47  1  0
 25 48  1  0
 26 49  1  0
 27 50  1  0
 28 51  1  0
 30 52  1  0
 30 53  1  0
 32 54  1  0
 34 55  1  0
M  CHG  1  12  -1
M  END
>  <UniqueID>  (23) 
20

>  <SMILES>  (23) 
N=C(N)c1ccc2sc(C[C@H]([N-]S(=O)(=O)c3ccc(Oc4ccccc4)cc3)C(N)=O)cc2c1

>  <Energy>  (23) 
104.93231349115874

>  <Genealogy>  (23) 
N=C(N)c1ccc2sc(CC([N-]S(=O)(=O)c3ccc(Oc4ccccc4)cc3)C(N)=O)cc2c1 (protonated)
N=C(N)c1ccc2sc(C[C@H]([N-]S(=O)(=O)c3ccc(Oc4ccccc4)cc3)C(N)=O)cc2c1 (chirality)
N=C(N)c1ccc2sc(C[C@H]([N-]S(=O)(=O)c3ccc(Oc4ccccc4)cc3)C(N)=O)cc2c1 (3D coordinates assigned)
N=C(N)c1ccc2sc(C[C@H]([N-]S(=O)(=O)c3ccc(Oc4ccccc4)cc3)C(N)=O)cc2c1 (optimized conformer: 104.93231349115874 kcal/mol)

>  <smiles>  (23) 
N=C(N)c1ccc2sc(CC(NS(=O)(=O)c3ccc(Oc4ccccc4)cc3)C(N)=O)cc2c1

>  <score_type>  (23) 
oracle

>  <origin>  (23) 
adg

>  <m_score__min__energy>  (23) 
-13.66

>  <m_primary>  (23) 
energy

$$$$
23:0
     RDKit          3D

 47 50  0  0  0  0  0  0  0  0999 V2000
   60.0270   36.0300   46.3550 O   0  0  0  0  0  0  0  0  0  0  0  0
   60.2760   34.7960   46.3180 C   0  0  0  0  0  0  0  0  0  0  0  0
   61.5190   34.3470   46.7470 O   0  0  0  0  0  0  0  0  0  0  0  0
   59.2610   33.8380   45.8280 C   0  0  0  0  0  0  0  0  0  0  0  0
   58.7050   32.8760   46.6910 C   0  0  0  0  0  0  0  0  0  0  0  0
   57.7440   31.9750   46.2230 C   0  0  0  0  0  0  0  0  0  0  0  0
   57.3110   32.0270   44.8950 C   0  0  0  0  0  0  0  0  0  0  0  0
   56.3360   31.0760   44.4440 N   0  0  0  0  0  0  0  0  0  0  0  0
   56.2640   29.6960   44.8240 C   0  0  0  0  0  0  0  0  0  0  0  0
   55.1580   29.1020   44.7410 O   0  0  0  0  0  0  0  0  0  0  0  0
   57.4540   28.9370   45.2570 C   0  0  0  0  0  0  0  0  0  0  0  0
   58.0280   27.9020   44.5180 C   0  0  0  0  0  0  0  0  0  0  0  0
   59.3260   27.2910   45.3950 S   0  0  0  0  0  0  0  0  0  0  0  0
   59.1040   28.3700   46.6730 C   0  0  0  0  0  0  0  0  0  0  0  0
   59.7910   28.4090   47.7760 N   0  0  0  0  0  0  0  0  0  0  0  0
   60.7050   29.4420   48.1780 C   0  0  0  0  0  0  0  0  0  0  0  0
   61.0340   29.5620   49.5330 C   0  0  0  0  0  0  0  0  0  0  0  0
   61.8890   30.5800   49.9670 C   0  0  0  0  0  0  0  0  0  0  0  0
   62.4140   31.5060   49.0500 C   0  0  0  0  0  0  0  0  0  0  0  0
   63.2870   32.5640   49.4910 N   0  0  0  0  0  0  0  0  0  0  0  0
   62.7680   33.9240   49.6870 C   0  0  0  0  0  0  0  0  0  0  0  0
   63.4550   34.6210   50.8860 C   0  0  0  0  0  0  0  0  0  0  0  0
   64.5510   33.8950   51.4170 O   0  0  0  0  0  0  0  0  0  0  0  0
   65.3990   33.4640   50.3750 C   0  0  0  0  0  0  0  0  0  0  0  0
   64.7290   32.3190   49.6150 C   0  0  0  0  0  0  0  0  0  0  0  0
   62.0480   31.4100   47.6970 C   0  0  0  0  0  0  0  0  0  0  0  0
   61.1930   30.3920   47.2650 C   0  0  0  0  0  0  0  0  0  0  0  0
   58.0460   29.1790   46.4600 N   0  0  0  0  0  0  0  0  0  0  0  0
   57.8810   32.9690   44.0210 C   0  0  0  0  0  0  0  0  0  0  0  0
   58.8410   33.8720   44.4880 C   0  0  0  0  0  0  0  0  0  0  0  0
   59.0287   32.8325   47.7414 H   0  0  0  0  0  0  0  0  0  0  0  0
   57.3256   31.2198   46.9047 H   0  0  0  0  0  0  0  0  0  0  0  0
   57.6902   27.5474   43.5330 H   0  0  0  0  0  0  0  0  0  0  0  0
   60.6173   28.8509   50.2615 H   0  0  0  0  0  0  0  0  0  0  0  0
   62.1520   30.6562   51.0324 H   0  0  0  0  0  0  0  0  0  0  0  0
   62.9529   34.5127   48.7764 H   0  0  0  0  0  0  0  0  0  0  0  0
   61.6900   33.8574   49.8954 H   0  0  0  0  0  0  0  0  0  0  0  0
   63.8185   35.6047   50.5539 H   0  0  0  0  0  0  0  0  0  0  0  0
   62.7037   34.6986   51.6857 H   0  0  0  0  0  0  0  0  0  0  0  0
   65.5881   34.3005   49.6861 H   0  0  0  0  0  0  0  0  0  0  0  0
   66.3527   33.1154   50.7981 H   0  0  0  0  0  0  0  0  0  0  0  0
   65.1716   32.2421   48.6109 H   0  0  0  0  0  0  0  0  0  0  0  0
   64.8861   31.3819   50.1692 H   0  0  0  0  0  0  0  0  0  0  0  0
   62.4369   32.1409   46.9727 H   0  0  0  0  0  0  0  0  0  0  0  0
   60.9010   30.3344   46.2060 H   0  0  0  0  0  0  0  0  0  0  0  0
   57.5707   32.9958   42.9660 H   0  0  0  0  0  0  0  0  0  0  0  0
   59.2709   34.6152   43.8003 H   0  0  0  0  0  0  0  0  0  0  0  0
  1  2  2  0
  2  3  1  0
  2  4  1  0
  4  5  2  0
  5  6  1  0
  6  7  2  0
  7  8  1  0
  8  9  1  0
  9 10  2  0
  9 11  1  0
 11 12  2  0
 12 13  1  0
 13 14  1  0
 14 15  2  3
 15 16  1  0
 16 17  2  0
 17 18  1  0
 18 19  2  0
 19 20  1  0
 20 21  1  0
 21 22  1  0
 22 23  1  0
 23 24  1  0
 24 25  1  0
 19 26  1  0
 26 27  2  0
 14 28  1  0
  7 29  1  0
 29 30  2  0
 30  4  1  0
 28 11  1  0
 27 16  1  0
 25 20  1  0
  5 31  1  0
  6 32  1  0
 12 33  1  0
 17 34  1  0
 18 35  1  0
 21 36  1  0
 21 37  1  0
 22 38  1  0
 22 39  1  0
 24 40  1  0
 24 41  1  0
 25 42  1  0
 25 43  1  0
 26 44  1  0
 27 45  1  0
 29 46  1  0
 30 47  1  0
M  CHG  3   3  -1   8  -1  28  -1
M  END
>  <UniqueID>  (24) 
21

>  <SMILES>  (24) 
O=C([O-])c1ccc([N-]C(=O)c2csc(=Nc3ccc(N4CCOCC4)cc3)[n-]2)cc1

>  <Energy>  (24) 
104.68302536898905

>  <Genealogy>  (24) 
O=C([O-])c1ccc([N-]C(=O)c2csc(=Nc3ccc(N4CCOCC4)cc3)[n-]2)cc1 (protonated)
O=C([O-])c1ccc([N-]C(=O)c2csc(=Nc3ccc(N4CCOCC4)cc3)[n-]2)cc1 (3D coordinates assigned)
O=C([O-])c1ccc([N-]C(=O)c2csc(=Nc3ccc(N4CCOCC4)cc3)[n-]2)cc1 (nonaromatic ring conformer: 104.68302536898905 kcal/mol)

>  <smiles>  (24) 
O=C(O)c1ccc(NC(=O)c2csc(=Nc3ccc(N4CCOCC4)cc3)[nH]2)cc1

>  <score_type>  (24) 
oracle

>  <origin>  (24) 
adg

>  <m_score__min__energy>  (24) 
-13.91

>  <m_primary>  (24) 
energy

$$$$
24:0
     RDKit          3D

 29 31  0  0  0  0  0  0  0  0999 V2000
   58.1320   32.3020   41.9910 C   0  0  0  0  0  0  0  0  0  0  0  0
   58.3980   32.5910   43.2710 C   0  0  0  0  0  0  0  0  0  0  0  0
   57.8110   31.8200   44.4370 C   0  0  1  0  0  0  0  0  0  0  0  0
   57.4170   32.7780   45.5710 C   0  0  0  0  0  0  0  0  0  0  0  0
   56.5840   31.0450   43.9860 C   0  0  0  0  0  0  0  0  0  0  0  0
   56.3290   29.8100   44.4260 C   0  0  0  0  0  0  0  0  0  0  0  0
   57.3020   29.0900   45.2730 C   0  0  0  0  0  0  0  0  0  0  0  0
   58.5520   29.6830   45.4880 C   0  0  0  0  0  0  0  0  0  0  0  0
   59.5290   29.0200   46.2310 C   0  0  0  0  0  0  0  0  0  0  0  0
   59.2680   27.7640   46.7860 C   0  0  0  0  0  0  0  0  0  0  0  0
   60.2690   27.1420   47.5270 O   0  0  0  0  0  0  0  0  0  0  0  0
   58.0090   27.1530   46.5890 C   0  0  0  0  0  0  0  0  0  0  0  0
   57.6760   25.8870   47.1170 C   0  0  0  0  0  0  0  0  0  0  0  0
   58.4970   25.2300   47.8100 O   0  0  0  0  0  0  0  0  0  0  0  0
   56.4470   25.3590   46.8810 N   0  0  0  0  0  0  0  0  0  0  0  0
   55.5220   26.0210   46.1420 C   0  0  0  0  0  0  0  0  0  0  0  0
   54.3930   25.5050   45.9400 O   0  0  0  0  0  0  0  0  0  0  0  0
   55.8130   27.2390   45.6220 N   0  0  0  0  0  0  0  0  0  0  0  0
   57.0250   27.8240   45.8220 C   0  0  0  0  0  0  0  0  0  0  0  0
   58.8280   30.9380   44.9350 O   0  0  0  0  0  0  0  0  0  0  0  0
   58.5880   32.8976   41.1864 H   0  0  0  0  0  0  0  0  0  0  0  0
   57.4574   31.4690   41.7440 H   0  0  0  0  0  0  0  0  0  0  0  0
   59.0762   33.4296   43.4874 H   0  0  0  0  0  0  0  0  0  0  0  0
   57.6142   32.2985   46.5412 H   0  0  0  0  0  0  0  0  0  0  0  0
   58.0080   33.7024   45.4920 H   0  0  0  0  0  0  0  0  0  0  0  0
   56.3467   33.0192   45.4920 H   0  0  0  0  0  0  0  0  0  0  0  0
   55.8861   31.5145   43.2771 H   0  0  0  0  0  0  0  0  0  0  0  0
   55.3814   29.3222   44.1539 H   0  0  0  0  0  0  0  0  0  0  0  0
   60.5124   29.4893   46.3813 H   0  0  0  0  0  0  0  0  0  0  0  0
  1  2  2  0
  2  3  1  0
  3  4  1  1
  3  5  1  0
  5  6  2  0
  6  7  1  0
  7  8  2  0
  8  9  1  0
  9 10  2  0
 10 11  1  0
 10 12  1  0
 12 13  1  0
 13 14  2  0
 13 15  1  0
 15 16  1  0
 16 17  2  0
 16 18  1  0
 18 19  1  0
  8 20  1  0
 20  3  1  0
 19  7  1  0
 19 12  2  0
  1 21  1  0
  1 22  1  0
  2 23  1  0
  4 24  1  0
  4 25  1  0
  4 26  1  0
  5 27  1  0
  6 28  1  0
  9 29  1  0
M  CHG  3  11  -1  15  -1  18  -1
M  END
>  <UniqueID>  (25) 
22

>  <SMILES>  (25) 
C=C[C@@]1(C)C=Cc2c(cc([O-])c3c(=O)[n-]c(=O)[n-]c23)O1

>  <Energy>  (25) 
38.88606529096221

>  <Genealogy>  (25) 
C=CC1(C)C=Cc2c(cc([O-])c3c(=O)[n-]c(=O)[n-]c23)O1 (protonated)
C=C[C@@]1(C)C=Cc2c(cc([O-])c3c(=O)[n-]c(=O)[n-]c23)O1 (chirality)
C=C[C@@]1(C)C=Cc2c(cc([O-])c3c(=O)[n-]c(=O)[n-]c23)O1 (3D coordinates assigned)
C=C[C@@]1(C)C=Cc2c(cc([O-])c3c(=O)[n-]c(=O)[n-]c23)O1 (nonaromatic ring conformer: 38.88606529096221 kcal/mol)

>  <smiles>  (25) 
C=CC1(C)C=Cc2c(cc(O)c3c(=O)[nH]c(=O)[nH]c23)O1

>  <score_type>  (25) 
oracle

>  <origin>  (25) 
adg

>  <m_score__min__energy>  (25) 
-12.289999999999999

>  <m_primary>  (25) 
energy

$$$$
25:0
     RDKit          3D

 44 44  0  0  0  0  0  0  0  0999 V2000
   55.6430   23.0510   45.4330 C   0  0  0  0  0  0  0  0  0  0  0  0
   55.3180   24.2290   44.8910 C   0  0  0  0  0  0  0  0  0  0  0  0
   54.4110   25.1910   45.6020 C   0  0  0  0  0  0  0  0  0  0  0  0
   55.1460   26.3890   45.9890 N   0  0  0  0  0  0  0  0  0  0  0  0
   56.4920   26.3620   46.4730 C   0  0  0  0  0  0  0  0  0  0  0  0
   56.8270   25.5590   47.3840 O   0  0  0  0  0  0  0  0  0  0  0  0
   57.5190   27.2650   45.8590 C   0  0  0  0  0  0  0  0  0  0  0  0
   56.8820   28.2580   44.8780 C   0  0  0  0  0  0  0  0  0  0  0  0
   57.3210   29.6730   45.1540 C   0  0  0  0  0  0  0  0  0  0  0  0
   58.1410   29.9580   46.2570 C   0  0  0  0  0  0  0  0  0  0  0  0
   58.5950   31.2610   46.4810 C   0  0  0  0  0  0  0  0  0  0  0  0
   58.2390   32.2930   45.6030 C   0  0  0  0  0  0  0  0  0  0  0  0
   58.8560   33.9180   45.8760 S   0  0  0  0  0  0  0  0  0  0  0  0
   58.4490   34.8250   44.7500 O   0  0  0  0  0  0  0  0  0  0  0  0
   58.2850   34.4520   47.1580 O   0  0  0  0  0  0  0  0  0  0  0  0
   60.5900   33.8680   45.9890 N   0  0  0  0  0  0  0  0  0  0  0  0
   61.0270   33.9080   47.3890 C   0  0  0  0  0  0  0  0  0  0  0  0
   62.4260   33.2790   47.5380 C   0  0  0  0  0  0  0  0  0  0  0  0
   63.3680   33.8000   46.4460 C   0  0  0  0  0  0  0  0  0  0  0  0
   62.3510   31.7470   47.4880 C   0  0  0  0  0  0  0  0  0  0  0  0
   57.4180   32.0130   44.5020 C   0  0  0  0  0  0  0  0  0  0  0  0
   56.9630   30.7110   44.2780 C   0  0  0  0  0  0  0  0  0  0  0  0
   56.3095   22.3623   44.8931 H   0  0  0  0  0  0  0  0  0  0  0  0
   55.2439   22.7704   46.4189 H   0  0  0  0  0  0  0  0  0  0  0  0
   55.7232   24.4987   43.9046 H   0  0  0  0  0  0  0  0  0  0  0  0
   53.5848   25.4728   44.9326 H   0  0  0  0  0  0  0  0  0  0  0  0
   54.0151   24.7067   46.5068 H   0  0  0  0  0  0  0  0  0  0  0  0
   58.0242   27.8269   46.6584 H   0  0  0  0  0  0  0  0  0  0  0  0
   58.2362   26.6433   45.3030 H   0  0  0  0  0  0  0  0  0  0  0  0
   57.1773   27.9864   43.8538 H   0  0  0  0  0  0  0  0  0  0  0  0
   55.7899   28.2077   44.9997 H   0  0  0  0  0  0  0  0  0  0  0  0
   58.4278   29.1521   46.9485 H   0  0  0  0  0  0  0  0  0  0  0  0
   59.2341   31.4768   47.3499 H   0  0  0  0  0  0  0  0  0  0  0  0
   61.0630   34.9542   47.7268 H   0  0  0  0  0  0  0  0  0  0  0  0
   60.3136   33.3355   48.0000 H   0  0  0  0  0  0  0  0  0  0  0  0
   62.8256   33.5713   48.5203 H   0  0  0  0  0  0  0  0  0  0  0  0
   64.2396   34.2820   46.9129 H   0  0  0  0  0  0  0  0  0  0  0  0
   63.7048   32.9599   45.8208 H   0  0  0  0  0  0  0  0  0  0  0  0
   62.8354   34.5318   45.8208 H   0  0  0  0  0  0  0  0  0  0  0  0
   62.3314   31.3472   48.5126 H   0  0  0  0  0  0  0  0  0  0  0  0
   61.4368   31.4418   46.9578 H   0  0  0  0  0  0  0  0  0  0  0  0
   63.2310   31.3539   46.9578 H   0  0  0  0  0  0  0  0  0  0  0  0
   57.1311   32.8205   43.8124 H   0  0  0  0  0  0  0  0  0  0  0  0
   56.3208   30.4977   43.4108 H   0  0  0  0  0  0  0  0  0  0  0  0
  1  2  2  0
  2  3  1  0
  3  4  1  0
  4  5  1  0
  5  6  2  0
  5  7  1  0
  7  8  1  0
  8  9  1  0
  9 10  2  0
 10 11  1  0
 11 12  2  0
 12 13  1  0
 13 14  2  0
 13 15  2  0
 13 16  1  0
 16 17  1  0
 17 18  1  0
 18 19  1  0
 18 20  1  0
 12 21  1  0
 21 22  2  0
 22  9  1  0
  1 23  1  0
  1 24  1  0
  2 25  1  0
  3 26  1  0
  3 27  1  0
  7 28  1  0
  7 29  1  0
  8 30  1  0
  8 31  1  0
 10 32  1  0
 11 33  1  0
 17 34  1  0
 17 35  1  0
 18 36  1  0
 19 37  1  0
 19 38  1  0
 19 39  1  0
 20 40  1  0
 20 41  1  0
 20 42  1  0
 21 43  1  0
 22 44  1  0
M  CHG  2   4  -1  16  -1
M  END
>  <UniqueID>  (26) 
23

>  <SMILES>  (26) 
C=CC[N-]C(=O)CCc1ccc(S(=O)(=O)[N-]CC(C)C)cc1

>  <Energy>  (26) 
25.81340117379077

>  <Genealogy>  (26) 
C=CC[N-]C(=O)CCc1ccc(S(=O)(=O)[N-]CC(C)C)cc1 (protonated)
C=CC[N-]C(=O)CCc1ccc(S(=O)(=O)[N-]CC(C)C)cc1 (3D coordinates assigned)
C=CC[N-]C(=O)CCc1ccc(S(=O)(=O)[N-]CC(C)C)cc1 (optimized conformer: 25.81340117379077 kcal/mol)

>  <smiles>  (26) 
C=CCNC(=O)CCc1ccc(S(=O)(=O)NCC(C)C)cc1

>  <score_type>  (26) 
oracle

>  <origin>  (26) 
adg

>  <m_score__min__energy>  (26) 
-9.9800000000000004

>  <m_primary>  (26) 
energy

$$$$
26:0
     RDKit          3D

 46 49  0  0  0  0  0  0  0  0999 V2000
   57.9595   33.9058   51.9680 H   0  0  0  0  0  0  0  0  0  0  0  0
   57.7690   32.8430   51.7580 C   0  0  0  0  0  0  0  0  0  0  0  0
   58.4900   32.2000   50.8070 N   0  0  0  0  0  0  0  0  0  0  0  0
   58.2550   30.8880   50.5510 C   0  0  0  0  0  0  0  0  0  0  0  0
   59.0110   30.2110   49.5500 N   0  0  0  0  0  0  0  0  0  0  0  0
   60.2820   30.4110   48.8250 C   0  0  0  0  0  0  0  0  0  0  0  0
   60.2931   31.3363   48.2302 H   0  0  0  0  0  0  0  0  0  0  0  0
   61.1955   30.5256   49.4270 H   0  0  0  0  0  0  0  0  0  0  0  0
   60.1630   29.1830   47.9840 C   0  0  0  0  0  0  0  0  0  0  0  0
   60.9477   28.4152   47.9148 H   0  0  0  0  0  0  0  0  0  0  0  0
   60.0440   29.3970   46.5660 O   0  0  0  0  0  0  0  0  0  0  0  0
   58.9170   29.6330   45.7470 C   0  0  0  0  0  0  0  0  0  0  0  0
   58.5070   30.9050   45.2930 C   0  0  0  0  0  0  0  0  0  0  0  0
   59.0821   31.7984   45.5779 H   0  0  0  0  0  0  0  0  0  0  0  0
   57.3740   31.0370   44.4830 C   0  0  0  0  0  0  0  0  0  0  0  0
   57.0626   32.0329   44.1347 H   0  0  0  0  0  0  0  0  0  0  0  0
   56.6370   29.9100   44.1150 C   0  0  0  0  0  0  0  0  0  0  0  0
   55.5400   30.0430   43.3300 F   0  0  0  0  0  0  0  0  0  0  0  0
   57.0330   28.6470   44.5570 C   0  0  0  0  0  0  0  0  0  0  0  0
   56.4539   27.7576   44.2679 H   0  0  0  0  0  0  0  0  0  0  0  0
   58.1650   28.5100   45.3670 C   0  0  0  0  0  0  0  0  0  0  0  0
   58.5340   27.2740   45.7860 F   0  0  0  0  0  0  0  0  0  0  0  0
   58.8820   28.9900   48.7280 C   0  0  0  0  0  0  0  0  0  0  0  0
   57.9997   29.0085   48.0713 H   0  0  0  0  0  0  0  0  0  0  0  0
   58.7419   28.0356   49.2567 H   0  0  0  0  0  0  0  0  0  0  0  0
   57.2970   30.2220   51.2440 N   0  0  0  0  0  0  0  0  0  0  0  0
   56.5650   30.8630   52.1890 C   0  0  0  0  0  0  0  0  0  0  0  0
   55.6670   30.1970   52.8560 N   0  0  0  0  0  0  0  0  0  0  0  0
   54.2650   30.1030   52.5510 C   0  0  0  0  0  0  0  0  0  0  0  0
   53.6250   28.8680   52.7040 C   0  0  0  0  0  0  0  0  0  0  0  0
   54.1899   28.0027   53.0810 H   0  0  0  0  0  0  0  0  0  0  0  0
   52.2730   28.7270   52.3810 C   0  0  0  0  0  0  0  0  0  0  0  0
   51.7762   27.7543   52.5114 H   0  0  0  0  0  0  0  0  0  0  0  0
   51.5510   29.8180   51.8930 C   0  0  0  0  0  0  0  0  0  0  0  0
   50.4867   29.7014   51.6406 H   0  0  0  0  0  0  0  0  0  0  0  0
   52.1770   31.0630   51.7230 C   0  0  0  0  0  0  0  0  0  0  0  0
   51.4120   32.2010   51.1750 C   0  0  0  0  0  0  0  0  0  0  0  0
   51.3780   32.3680   49.9280 O   0  0  0  0  0  0  0  0  0  0  0  0
   50.6720   33.1010   52.0100 N   0  0  0  0  0  0  0  0  0  0  0  0
   50.0150   32.7350   53.2580 C   0  0  0  0  0  0  0  0  0  0  0  0
   50.6257   33.0752   54.1073 H   0  0  0  0  0  0  0  0  0  0  0  0
   49.0246   33.2114   53.3044 H   0  0  0  0  0  0  0  0  0  0  0  0
   49.8988   31.6421   53.3044 H   0  0  0  0  0  0  0  0  0  0  0  0
   53.5440   31.1910   52.0230 C   0  0  0  0  0  0  0  0  0  0  0  0
   54.0547   32.1487   51.8439 H   0  0  0  0  0  0  0  0  0  0  0  0
   56.8120   32.1750   52.4510 N   0  0  0  0  0  0  0  0  0  0  0  0
  1  2  1  0
  2  3  2  0
  3  4  1  0
  4  5  1  0
  5  6  1  0
  6  7  1  0
  6  8  1  0
  6  9  1  0
  9 10  1  0
  9 11  1  0
 11 12  1  0
 12 13  2  0
 13 14  1  0
 13 15  1  0
 15 16  1  0
 15 17  2  0
 17 18  1  0
 17 19  1  0
 19 20  1  0
 19 21  2  0
 21 22  1  0
  9 23  1  0
 23 24  1  0
 23 25  1  0
  4 26  2  0
 26 27  1  0
 27 28  2  0
 28 29  1  0
 29 30  2  0
 30 31  1  0
 30 32  1  0
 32 33  1  0
 32 34  2  0
 34 35  1  0
 34 36  1  0
 36 37  1  0
 37 38  2  0
 37 39  1  0
 39 40  1  0
 40 41  1  0
 40 42  1  0
 40 43  1  0
 36 44  2  0
 44 45  1  0
 27 46  1  0
 46  2  1  0
 23  5  1  0
 44 29  1  0
 21 12  1  0
M  CHG  2  39  -1  46  -1
M  END
>  <UniqueID>  (27) 
24

>  <SMILES>  (27) 
C[N-]C(=O)c1cccc(/N=c2/nc(N3CC(Oc4ccc(F)cc4F)C3)nc[n-]2)c1

>  <Energy>  (27) 
113.08947753523442

>  <Genealogy>  (27) 
C[N-]C(=O)c1cccc(N=c2nc(N3CC(Oc4ccc(F)cc4F)C3)nc[n-]2)c1 (protonated)
C[N-]C(=O)c1cccc(/N=c2/nc(N3CC(Oc4ccc(F)cc4F)C3)nc[n-]2)c1 (cis-trans isomerization)
C[N-]C(=O)c1cccc(/N=c2/nc(N3CC(Oc4ccc(F)cc4F)C3)nc[n-]2)c1 (3D coordinates assigned)
C[N-]C(=O)c1cccc(/N=c2/nc(N3CC(Oc4ccc(F)cc4F)C3)nc[n-]2)c1 (nonaromatic ring conformer: 113.08947753523442 kcal/mol)

>  <smiles>  (27) 
CNC(=O)c1cccc(N=c2nc(N3CC(Oc4ccc(F)cc4F)C3)nc[nH]2)c1

>  <score_type>  (27) 
oracle

>  <origin>  (27) 
adg

>  <m_score__min__energy>  (27) 
-12.59

>  <m_primary>  (27) 
energy

$$$$
27:0
     RDKit          3D

 60 64  0  0  0  0  0  0  0  0999 V2000
   63.1200   31.2370   51.0460 O   0  0  0  0  0  0  0  0  0  0  0  0
   62.3660   32.3230   50.6660 N   0  0  0  0  0  0  0  0  0  0  0  0
   62.3330   33.1140   49.5740 C   0  0  0  0  0  0  0  0  0  0  0  0
   63.0280   33.1320   48.2590 C   0  0  0  0  0  0  0  0  0  0  0  0
   62.1270   32.6050   47.1270 C   0  0  0  0  0  0  0  0  0  0  0  0
   60.6970   33.2030   47.0400 C   0  0  0  0  0  0  0  0  0  0  0  0
   59.9040   32.9660   48.2740 N   0  0  0  0  0  0  0  0  0  0  0  0
   58.4810   32.7150   47.9480 C   0  0  0  0  0  0  0  0  0  0  0  0
   58.2350   32.8400   46.4640 C   0  0  0  0  0  0  0  0  0  0  0  0
   58.2990   31.7090   45.6300 C   0  0  0  0  0  0  0  0  0  0  0  0
   58.1320   31.8430   44.2490 C   0  0  0  0  0  0  0  0  0  0  0  0
   57.8910   33.1010   43.6910 C   0  0  0  0  0  0  0  0  0  0  0  0
   57.8150   34.2280   44.5160 C   0  0  0  0  0  0  0  0  0  0  0  0
   57.9940   34.0990   45.8960 C   0  0  0  0  0  0  0  0  0  0  0  0
   60.0240   34.1050   49.2270 C   0  0  0  0  0  0  0  0  0  0  0  0
   61.2530   33.9750   50.1680 C   0  0  1  0  0  0  0  0  0  0  0  0
   61.2660   33.0560   51.2640 C   0  0  1  0  0  0  0  0  0  0  0  0
   60.0270   32.1920   51.5040 C   0  0  0  0  0  0  0  0  0  0  0  0
   58.9360   32.7920   52.1580 C   0  0  0  0  0  0  0  0  0  0  0  0
   57.7560   32.0820   52.3780 C   0  0  0  0  0  0  0  0  0  0  0  0
   57.6410   30.7640   51.9410 C   0  0  0  0  0  0  0  0  0  0  0  0
   58.7040   30.1510   51.2780 C   0  0  0  0  0  0  0  0  0  0  0  0
   59.9030   30.8520   51.0440 C   0  0  0  0  0  0  0  0  0  0  0  0
   60.9660   30.2580   50.3470 O   0  0  0  0  0  0  0  0  0  0  0  0
   61.1310   30.2640   48.9330 C   0  0  0  0  0  0  0  0  0  0  0  0
   60.3350   29.1340   48.3490 C   0  0  0  0  0  0  0  0  0  0  0  0
   59.1820   29.4090   47.5940 C   0  0  0  0  0  0  0  0  0  0  0  0
   58.3940   28.3630   47.1030 C   0  0  0  0  0  0  0  0  0  0  0  0
   58.7510   27.0380   47.3620 C   0  0  0  0  0  0  0  0  0  0  0  0
   59.8980   26.7550   48.1080 C   0  0  0  0  0  0  0  0  0  0  0  0
   60.6890   27.7990   48.6010 C   0  0  0  0  0  0  0  0  0  0  0  0
   62.6920   30.3220   51.1220 H   0  0  0  0  0  0  0  0  0  0  0  0
   63.3231   34.1659   48.0267 H   0  0  0  0  0  0  0  0  0  0  0  0
   63.9076   32.4751   48.3289 H   0  0  0  0  0  0  0  0  0  0  0  0
   62.6340   32.8126   46.1731 H   0  0  0  0  0  0  0  0  0  0  0  0
   61.9814   31.5369   47.3462 H   0  0  0  0  0  0  0  0  0  0  0  0
   60.7778   34.2877   46.8757 H   0  0  0  0  0  0  0  0  0  0  0  0
   60.1770   32.7051   46.2083 H   0  0  0  0  0  0  0  0  0  0  0  0
   58.2115   31.6992   48.2729 H   0  0  0  0  0  0  0  0  0  0  0  0
   57.8653   33.4628   48.4692 H   0  0  0  0  0  0  0  0  0  0  0  0
   58.4811   30.7158   46.0663 H   0  0  0  0  0  0  0  0  0  0  0  0
   58.1904   30.9566   43.6003 H   0  0  0  0  0  0  0  0  0  0  0  0
   57.7611   33.2051   42.6037 H   0  0  0  0  0  0  0  0  0  0  0  0
   57.6141   35.2169   44.0781 H   0  0  0  0  0  0  0  0  0  0  0  0
   57.9456   34.9896   46.5398 H   0  0  0  0  0  0  0  0  0  0  0  0
   60.1196   35.0370   48.6506 H   0  0  0  0  0  0  0  0  0  0  0  0
   59.1226   34.1060   49.8574 H   0  0  0  0  0  0  0  0  0  0  0  0
   61.3136   35.0504   50.3910 H   0  0  0  0  0  0  0  0  0  0  0  0
   61.3265   33.4801   52.2771 H   0  0  0  0  0  0  0  0  0  0  0  0
   59.0144   33.8344   52.5003 H   0  0  0  0  0  0  0  0  0  0  0  0
   56.9144   32.5635   52.8975 H   0  0  0  0  0  0  0  0  0  0  0  0
   56.7100   30.2058   52.1192 H   0  0  0  0  0  0  0  0  0  0  0  0
   58.6050   29.1106   50.9347 H   0  0  0  0  0  0  0  0  0  0  0  0
   60.7724   31.2196   48.5229 H   0  0  0  0  0  0  0  0  0  0  0  0
   62.1946   30.1421   48.6801 H   0  0  0  0  0  0  0  0  0  0  0  0
   58.8980   30.4516   47.3883 H   0  0  0  0  0  0  0  0  0  0  0  0
   57.4926   28.5841   46.5126 H   0  0  0  0  0  0  0  0  0  0  0  0
   58.1285   26.2162   46.9783 H   0  0  0  0  0  0  0  0  0  0  0  0
   60.1796   25.7106   48.3080 H   0  0  0  0  0  0  0  0  0  0  0  0
   61.5913   27.5728   49.1881 H   0  0  0  0  0  0  0  0  0  0  0  0
  1  2  1  0
  2  3  2  0
  3  4  1  0
  4  5  1  0
  5  6  1  0
  6  7  1  0
  7  8  1  0
  8  9  1  0
  9 10  2  0
 10 11  1  0
 11 12  2  0
 12 13  1  0
 13 14  2  0
  7 15  1  0
 15 16  1  0
 16 17  1  0
 17 18  1  0
 18 19  2  0
 19 20  1  0
 20 21  2  0
 21 22  1  0
 22 23  2  0
 23 24  1  0
 24 25  1  0
 25 26  1  0
 26 27  2  0
 27 28  1  0
 28 29  2  0
 29 30  1  0
 30 31  2  0
 17  2  1  0
 23 18  1  0
 31 26  1  0
 16  3  1  0
 14  9  1  0
  1 32  1  0
  4 33  1  0
  4 34  1  0
  5 35  1  0
  5 36  1  0
  6 37  1  0
  6 38  1  0
  8 39  1  0
  8 40  1  0
 10 41  1  0
 11 42  1  0
 12 43  1  0
 13 44  1  0
 14 45  1  0
 15 46  1  0
 15 47  1  0
 16 48  1  1
 17 49  1  1
 19 50  1  0
 20 51  1  0
 21 52  1  0
 22 53  1  0
 25 54  1  0
 25 55  1  0
 27 56  1  0
 28 57  1  0
 29 58  1  0
 30 59  1  0
 31 60  1  0
M  CHG  1   2   1
M  END
>  <UniqueID>  (28) 
25

>  <SMILES>  (28) 
O[N+]1=C2CCCN(Cc3ccccc3)C[C@H]2[C@H]1c1ccccc1OCc1ccccc1

>  <Energy>  (28) 
118.31055602337496

>  <Genealogy>  (28) 
O[N+]1=C2CCCN(Cc3ccccc3)CC2C1c1ccccc1OCc1ccccc1 (protonated)
O[N+]1=C2CCCN(Cc3ccccc3)C[C@H]2[C@H]1c1ccccc1OCc1ccccc1 (chirality)
O[N+]1=C2CCCN(Cc3ccccc3)C[C@H]2[C@H]1c1ccccc1OCc1ccccc1 (3D coordinates assigned)
O[N+]1=C2CCCN(Cc3ccccc3)C[C@H]2[C@H]1c1ccccc1OCc1ccccc1 (nonaromatic ring conformer: 118.31055602337496 kcal/mol)

>  <smiles>  (28) 
[O-][N+]1=C2CCCN(Cc3ccccc3)CC2C1c1ccccc1OCc1ccccc1

>  <score_type>  (28) 
oracle

>  <origin>  (28) 
adg

>  <m_score__min__energy>  (28) 
-5.1900000000000004

>  <m_primary>  (28) 
energy

$$$$
28:0
     RDKit          3D

 49 51  0  0  0  0  0  0  0  0999 V2000
   57.7860   27.2180   47.8700 O   0  0  0  0  0  0  0  0  0  0  0  0
   58.7000   27.8560   47.2830 C   0  0  0  0  0  0  0  0  0  0  0  0
   59.8120   28.3690   48.0220 N   0  0  0  0  0  0  0  0  0  0  0  0
   60.0070   29.7310   48.4240 C   0  0  0  0  0  0  0  0  0  0  0  0
   59.2150   30.3290   49.4210 C   0  0  0  0  0  0  0  0  0  0  0  0
   59.4710   31.6420   49.8260 C   0  0  0  0  0  0  0  0  0  0  0  0
   60.5220   32.3620   49.2520 C   0  0  0  0  0  0  0  0  0  0  0  0
   61.3250   31.7670   48.2740 C   0  0  0  0  0  0  0  0  0  0  0  0
   62.7750   32.7410   47.5050 Br  0  0  0  0  0  0  0  0  0  0  0  0
   61.0710   30.4520   47.8680 C   0  0  0  0  0  0  0  0  0  0  0  0
   58.6340   28.0310   45.8560 N   0  0  0  0  0  0  0  0  0  0  0  0
   59.5300   29.0250   45.2500 C   0  0  0  0  0  0  0  0  0  0  0  0
   58.7140   30.0680   44.4600 C   0  0  0  0  0  0  0  0  0  0  0  0
   57.3570   30.1960   45.0400 N   0  0  0  0  0  0  0  0  0  0  0  0
   56.6480   31.3650   44.4760 C   0  0  0  0  0  0  0  0  0  0  0  0
   57.6340   32.4310   43.9750 C   0  0  0  0  0  0  0  0  0  0  0  0
   58.1760   33.2670   45.1100 C   0  0  0  0  0  0  0  0  0  0  0  0
   59.1280   34.2690   44.8570 C   0  0  0  0  0  0  0  0  0  0  0  0
   59.6460   35.0310   45.9080 C   0  0  0  0  0  0  0  0  0  0  0  0
   59.2140   34.8040   47.2170 C   0  0  0  0  0  0  0  0  0  0  0  0
   58.2630   33.8140   47.4770 C   0  0  0  0  0  0  0  0  0  0  0  0
   57.7520   33.0390   46.4310 C   0  0  0  0  0  0  0  0  0  0  0  0
   56.5670   28.9440   44.8800 C   0  0  0  0  0  0  0  0  0  0  0  0
   57.4500   27.6840   45.0510 C   0  0  2  0  0  0  0  0  0  0  0  0
   56.7030   26.4130   45.5180 C   0  0  0  0  0  0  0  0  0  0  0  0
   55.5110   26.7160   46.1890 O   0  0  0  0  0  0  0  0  0  0  0  0
   58.3929   29.7624   49.8826 H   0  0  0  0  0  0  0  0  0  0  0  0
   58.8434   32.1099   50.5988 H   0  0  0  0  0  0  0  0  0  0  0  0
   60.7177   33.3968   49.5695 H   0  0  0  0  0  0  0  0  0  0  0  0
   61.7113   29.9817   47.1072 H   0  0  0  0  0  0  0  0  0  0  0  0
   60.0979   29.5333   46.0432 H   0  0  0  0  0  0  0  0  0  0  0  0
   60.2195   28.5137   44.5622 H   0  0  0  0  0  0  0  0  0  0  0  0
   59.2238   31.0415   44.5080 H   0  0  0  0  0  0  0  0  0  0  0  0
   58.6294   29.7419   43.4129 H   0  0  0  0  0  0  0  0  0  0  0  0
   56.0226   31.0323   43.6344 H   0  0  0  0  0  0  0  0  0  0  0  0
   56.0302   31.8108   45.2694 H   0  0  0  0  0  0  0  0  0  0  0  0
   58.4726   31.9310   43.4683 H   0  0  0  0  0  0  0  0  0  0  0  0
   57.0971   33.0974   43.2839 H   0  0  0  0  0  0  0  0  0  0  0  0
   59.4671   34.4546   43.8272 H   0  0  0  0  0  0  0  0  0  0  0  0
   60.3949   35.8105   45.7042 H   0  0  0  0  0  0  0  0  0  0  0  0
   59.6226   35.4047   48.0430 H   0  0  0  0  0  0  0  0  0  0  0  0
   57.9154   33.6438   48.5067 H   0  0  0  0  0  0  0  0  0  0  0  0
   57.0164   32.2489   46.6423 H   0  0  0  0  0  0  0  0  0  0  0  0
   55.7699   28.9262   45.6378 H   0  0  0  0  0  0  0  0  0  0  0  0
   56.1455   28.9320   43.8640 H   0  0  0  0  0  0  0  0  0  0  0  0
   57.7885   27.3756   44.0508 H   0  0  0  0  0  0  0  0  0  0  0  0
   56.4672   25.7971   44.6376 H   0  0  0  0  0  0  0  0  0  0  0  0
   57.3578   25.8750   46.2193 H   0  0  0  0  0  0  0  0  0  0  0  0
   55.7750   27.0590   47.0820 H   0  0  0  0  0  0  0  0  0  0  0  0
  1  2  2  0
  2  3  1  0
  3  4  1  0
  4  5  2  0
  5  6  1  0
  6  7  2  0
  7  8  1  0
  8  9  1  0
  8 10  2  0
  2 11  1  0
 11 12  1  0
 12 13  1  0
 13 14  1  0
 14 15  1  0
 15 16  1  0
 16 17  1  0
 17 18  2  0
 18 19  1  0
 19 20  2  0
 20 21  1  0
 21 22  2  0
 14 23  1  0
 23 24  1  0
 24 25  1  0
 25 26  1  0
 10  4  1  0
 24 11  1  0
 22 17  1  0
  5 27  1  0
  6 28  1  0
  7 29  1  0
 10 30  1  0
 12 31  1  0
 12 32  1  0
 13 33  1  0
 13 34  1  0
 15 35  1  0
 15 36  1  0
 16 37  1  0
 16 38  1  0
 18 39  1  0
 19 40  1  0
 20 41  1  0
 21 42  1  0
 22 43  1  0
 23 44  1  0
 23 45  1  0
 24 46  1  6
 25 47  1  0
 25 48  1  0
 26 49  1  0
M  CHG  1   3  -1
M  END
>  <UniqueID>  (29) 
26

>  <SMILES>  (29) 
O=C([N-]c1cccc(Br)c1)N1CCN(CCc2ccccc2)C[C@@H]1CO

>  <Energy>  (29) 
63.962218377067344

>  <Genealogy>  (29) 
O=C([N-]c1cccc(Br)c1)N1CCN(CCc2ccccc2)CC1CO (protonated)
O=C([N-]c1cccc(Br)c1)N1CCN(CCc2ccccc2)C[C@@H]1CO (chirality)
O=C([N-]c1cccc(Br)c1)N1CCN(CCc2ccccc2)C[C@@H]1CO (3D coordinates assigned)
O=C([N-]c1cccc(Br)c1)N1CCN(CCc2ccccc2)C[C@@H]1CO (nonaromatic ring conformer: 63.962218377067344 kcal/mol)

>  <smiles>  (29) 
O=C(Nc1cccc(Br)c1)N1CCN(CCc2ccccc2)CC1CO

>  <score_type>  (29) 
oracle

>  <origin>  (29) 
adg

>  <m_score__min__energy>  (29) 
-10.26

>  <m_primary>  (29) 
energy

$$$$
29:0
     RDKit          3D

 30 32  0  0  0  0  0  0  0  0999 V2000
   57.8290   26.4260   47.7330 O   0  0  0  0  0  0  0  0  0  0  0  0
   57.5610   26.5190   46.5040 C   0  0  0  0  0  0  0  0  0  0  0  0
   57.9460   27.7380   45.7470 C   0  0  0  0  0  0  0  0  0  0  0  0
   56.9360   28.5530   45.2000 C   0  0  0  0  0  0  0  0  0  0  0  0
   57.2610   29.7150   44.4960 C   0  0  0  0  0  0  0  0  0  0  0  0
   58.5960   30.0790   44.3260 C   0  0  0  0  0  0  0  0  0  0  0  0
   59.6110   29.2810   44.8560 C   0  0  0  0  0  0  0  0  0  0  0  0
   59.3000   28.1130   45.5640 C   0  0  0  0  0  0  0  0  0  0  0  0
   60.6410   27.1290   46.1430 Cl  0  0  0  0  0  0  0  0  0  0  0  0
   56.8510   25.3980   45.8420 C   0  0  0  0  0  0  0  0  0  0  0  0
   55.4640   25.5110   45.6180 C   0  0  0  0  0  0  0  0  0  0  0  0
   54.7710   26.6470   46.0220 O   0  0  0  0  0  0  0  0  0  0  0  0
   54.7650   24.4890   44.9730 C   0  0  0  0  0  0  0  0  0  0  0  0
   55.4290   23.3460   44.5340 C   0  0  0  0  0  0  0  0  0  0  0  0
   56.8070   23.2020   44.7490 C   0  0  0  0  0  0  0  0  0  0  0  0
   57.4650   22.0400   44.3160 C   0  0  0  0  0  0  0  0  0  0  0  0
   58.8330   21.8800   44.5460 C   0  0  0  0  0  0  0  0  0  0  0  0
   59.5510   22.8710   45.2140 C   0  0  0  0  0  0  0  0  0  0  0  0
   58.9120   24.0340   45.6490 C   0  0  0  0  0  0  0  0  0  0  0  0
   57.5330   24.2280   45.4130 C   0  0  0  0  0  0  0  0  0  0  0  0
   55.8804   28.2717   45.3284 H   0  0  0  0  0  0  0  0  0  0  0  0
   56.4624   30.3437   44.0752 H   0  0  0  0  0  0  0  0  0  0  0  0
   58.8496   30.9959   43.7737 H   0  0  0  0  0  0  0  0  0  0  0  0
   60.6628   29.5714   44.7167 H   0  0  0  0  0  0  0  0  0  0  0  0
   53.6815   24.5872   44.8102 H   0  0  0  0  0  0  0  0  0  0  0  0
   54.8698   22.5527   44.0163 H   0  0  0  0  0  0  0  0  0  0  0  0
   56.9011   21.2530   43.7938 H   0  0  0  0  0  0  0  0  0  0  0  0
   59.3452   20.9703   44.1995 H   0  0  0  0  0  0  0  0  0  0  0  0
   60.6268   22.7360   45.3994 H   0  0  0  0  0  0  0  0  0  0  0  0
   59.4879   24.8061   46.1803 H   0  0  0  0  0  0  0  0  0  0  0  0
  1  2  2  0
  2  3  1  0
  3  4  2  0
  4  5  1  0
  5  6  2  0
  6  7  1  0
  7  8  2  0
  8  9  1  0
  2 10  1  0
 10 11  2  0
 11 12  1  0
 11 13  1  0
 13 14  2  0
 14 15  1  0
 15 16  2  0
 16 17  1  0
 17 18  2  0
 18 19  1  0
 19 20  2  0
  8  3  1  0
 20 10  1  0
 20 15  1  0
  4 21  1  0
  5 22  1  0
  6 23  1  0
  7 24  1  0
 13 25  1  0
 14 26  1  0
 16 27  1  0
 17 28  1  0
 18 29  1  0
 19 30  1  0
M  CHG  1  12  -1
M  END
>  <UniqueID>  (30) 
27

>  <SMILES>  (30) 
O=C(c1ccccc1Cl)c1c([O-])ccc2ccccc12

>  <Energy>  (30) 
49.80190930476855

>  <Genealogy>  (30) 
O=C(c1ccccc1Cl)c1c([O-])ccc2ccccc12 (protonated)
O=C(c1ccccc1Cl)c1c([O-])ccc2ccccc12 (3D coordinates assigned)
O=C(c1ccccc1Cl)c1c([O-])ccc2ccccc12 (optimized conformer: 49.80190930476855 kcal/mol)

>  <smiles>  (30) 
O=C(c1ccccc1Cl)c1c(O)ccc2ccccc12

>  <score_type>  (30) 
oracle

>  <origin>  (30) 
adg

>  <m_score__min__energy>  (30) 
-10.81

>  <m_primary>  (30) 
energy

$$$$
30:0
     RDKit          3D

 50 53  0  0  0  0  0  0  0  0999 V2000
   54.2090   25.2940   45.7770 N   0  0  0  0  0  0  0  0  0  0  0  0
   55.4910   25.3370   45.6440 C   0  0  0  0  0  0  0  0  0  0  0  0
   56.1900   26.4420   45.9970 N   0  0  0  0  0  0  0  0  0  0  0  0
   57.5060   26.5460   45.8840 C   0  0  0  0  0  0  0  0  0  0  0  0
   58.2840   27.7230   46.2550 C   0  0  0  0  0  0  0  0  0  0  0  0
   59.1520   27.6860   47.3490 C   0  0  0  0  0  0  0  0  0  0  0  0
   59.8990   28.8080   47.7080 C   0  0  0  0  0  0  0  0  0  0  0  0
   59.8000   29.9840   46.9930 C   0  0  0  0  0  0  0  0  0  0  0  0
   60.6100   31.1160   47.4260 C   0  0  0  0  0  0  0  0  0  0  0  0
   61.6350   31.3840   46.7470 O   0  0  0  0  0  0  0  0  0  0  0  0
   60.2840   31.9070   48.5610 N   0  0  0  0  0  0  0  0  0  0  0  0
   61.1900   33.0180   48.8820 C   0  0  0  0  0  0  0  0  0  0  0  0
   60.4010   33.9940   49.7150 C   0  0  0  0  0  0  0  0  0  0  0  0
   59.5990   34.8110   48.8400 N   0  0  0  0  0  0  0  0  0  0  0  0
   59.2190   34.4840   47.5210 C   0  0  0  0  0  0  0  0  0  0  0  0
   58.1450   33.6140   47.3010 C   0  0  0  0  0  0  0  0  0  0  0  0
   57.7250   33.2820   46.0360 C   0  0  0  0  0  0  0  0  0  0  0  0
   58.3360   33.7840   44.9270 C   0  0  0  0  0  0  0  0  0  0  0  0
   59.3960   34.6420   45.1040 C   0  0  0  0  0  0  0  0  0  0  0  0
   59.8190   34.9780   46.3880 C   0  0  0  0  0  0  0  0  0  0  0  0
   58.9470   30.0280   45.9130 C   0  0  0  0  0  0  0  0  0  0  0  0
   58.2070   28.8920   45.5690 C   0  0  0  0  0  0  0  0  0  0  0  0
   58.1660   25.4640   45.3820 N   0  0  0  0  0  0  0  0  0  0  0  0
   57.5330   24.3560   45.0210 C   0  0  0  0  0  0  0  0  0  0  0  0
   58.2190   23.2750   44.5160 C   0  0  0  0  0  0  0  0  0  0  0  0
   57.6110   22.1010   44.1270 C   0  0  0  0  0  0  0  0  0  0  0  0
   56.2480   22.0250   44.2550 C   0  0  0  0  0  0  0  0  0  0  0  0
   55.5150   23.0830   44.7570 C   0  0  0  0  0  0  0  0  0  0  0  0
   56.1550   24.2490   45.1390 C   0  0  0  0  0  0  0  0  0  0  0  0
   53.6610   25.9250   46.3710 H   0  0  0  0  0  0  0  0  0  0  0  0
   55.6480   27.2330   46.3700 H   0  0  0  0  0  0  0  0  0  0  0  0
   59.2476   26.7600   47.9350 H   0  0  0  0  0  0  0  0  0  0  0  0
   60.5764   28.7546   48.5731 H   0  0  0  0  0  0  0  0  0  0  0  0
   59.4390   31.6920   49.1270 H   0  0  0  0  0  0  0  0  0  0  0  0
   62.0563   32.6485   49.4502 H   0  0  0  0  0  0  0  0  0  0  0  0
   61.5695   33.4958   47.9667 H   0  0  0  0  0  0  0  0  0  0  0  0
   59.7479   33.4442   50.4087 H   0  0  0  0  0  0  0  0  0  0  0  0
   61.0866   34.6296   50.2946 H   0  0  0  0  0  0  0  0  0  0  0  0
   59.2740   35.7320   49.2320 H   0  0  0  0  0  0  0  0  0  0  0  0
   57.6215   33.1831   48.1672 H   0  0  0  0  0  0  0  0  0  0  0  0
   56.8749   32.5943   45.9157 H   0  0  0  0  0  0  0  0  0  0  0  0
   57.9914   33.5109   43.9187 H   0  0  0  0  0  0  0  0  0  0  0  0
   59.9115   35.0643   44.2289 H   0  0  0  0  0  0  0  0  0  0  0  0
   60.6688   35.6675   46.4995 H   0  0  0  0  0  0  0  0  0  0  0  0
   58.8480   30.9516   45.3239 H   0  0  0  0  0  0  0  0  0  0  0  0
   57.5315   28.9484   44.7027 H   0  0  0  0  0  0  0  0  0  0  0  0
   59.3119   23.3523   44.4175 H   0  0  0  0  0  0  0  0  0  0  0  0
   58.1959   21.2584   43.7296 H   0  0  0  0  0  0  0  0  0  0  0  0
   55.7282   21.1041   43.9522 H   0  0  0  0  0  0  0  0  0  0  0  0
   54.4225   22.9986   44.8531 H   0  0  0  0  0  0  0  0  0  0  0  0
  1  2  2  3
  2  3  1  0
  3  4  1  0
  4  5  1  0
  5  6  2  0
  6  7  1  0
  7  8  2  0
  8  9  1  0
  9 10  2  0
  9 11  1  0
 11 12  1  0
 12 13  1  0
 13 14  1  0
 14 15  1  0
 15 16  2  0
 16 17  1  0
 17 18  2  0
 18 19  1  0
 19 20  2  0
  8 21  1  0
 21 22  2  0
  4 23  2  0
 23 24  1  0
 24 25  2  0
 25 26  1  0
 26 27  2  0
 27 28  1  0
 28 29  2  0
 29  2  1  0
 22  5  1  0
 29 24  1  0
 20 15  1  0
  1 30  1  0
  3 31  1  0
  6 32  1  0
  7 33  1  0
 11 34  1  0
 12 35  1  0
 12 36  1  0
 13 37  1  0
 13 38  1  0
 14 39  1  0
 16 40  1  0
 17 41  1  0
 18 42  1  0
 19 43  1  0
 20 44  1  0
 21 45  1  0
 22 46  1  0
 25 47  1  0
 26 48  1  0
 27 49  1  0
 28 50  1  0
M  END
>  <smiles>  (31) 
N=c1[nH]c(-c2ccc(C(=O)NCCNc3ccccc3)cc2)nc2ccccc12

>  <score_type>  (31) 
oracle

>  <origin>  (31) 
adg

>  <m_score__min__energy>  (31) 
-8.5800000000000001

>  <m_primary>  (31) 
energy

$$$$
31:0
     RDKit          3D

 68 71  0  0  0  0  0  0  0  0999 V2000
   57.5360   33.0300   43.6510 O   0  0  0  0  0  0  0  0  0  0  0  0
   57.3250   32.2570   44.6210 C   0  0  0  0  0  0  0  0  0  0  0  0
   56.2830   31.2770   44.5260 N   0  0  0  0  0  0  0  0  0  0  0  0
   56.3670   30.1190   43.6430 C   0  0  0  0  0  0  0  0  0  0  0  0
   57.7370   29.4530   43.7500 C   0  0  0  0  0  0  0  0  0  0  0  0
   57.5880   28.1120   44.4160 C   0  0  0  0  0  0  0  0  0  0  0  0
   57.0650   28.0290   45.7180 C   0  0  0  0  0  0  0  0  0  0  0  0
   56.7920   26.7850   46.2910 C   0  0  0  0  0  0  0  0  0  0  0  0
   57.0430   25.6080   45.5730 C   0  0  0  0  0  0  0  0  0  0  0  0
   56.6300   24.0470   46.2770 S   0  0  0  0  0  0  0  0  0  0  0  0
   55.3520   24.1910   47.0590 O   0  0  0  0  0  0  0  0  0  0  0  0
   57.7200   23.6100   47.2200 O   0  0  0  0  0  0  0  0  0  0  0  0
   56.4130   22.8680   45.0070 N   0  0  0  0  0  0  0  0  0  0  0  0
   57.6490   22.7510   44.2070 C   0  0  0  0  0  0  0  0  0  0  0  0
   57.5910   21.5200   43.2790 C   0  0  0  0  0  0  0  0  0  0  0  0
   56.2780   21.0000   43.2050 O   0  0  0  0  0  0  0  0  0  0  0  0
   55.8800   20.5140   44.4750 C   0  0  0  0  0  0  0  0  0  0  0  0
   56.0620   21.5650   45.5910 C   0  0  0  0  0  0  0  0  0  0  0  0
   57.5710   25.6850   44.2770 C   0  0  0  0  0  0  0  0  0  0  0  0
   57.8360   26.9300   43.6990 C   0  0  0  0  0  0  0  0  0  0  0  0
   58.1960   32.3250   45.8070 C   0  0  0  0  0  0  0  0  0  0  0  0
   58.1650   33.4570   46.6330 C   0  0  0  0  0  0  0  0  0  0  0  0
   59.1300   33.6230   47.6320 C   0  0  0  0  0  0  0  0  0  0  0  0
   60.1300   32.6580   47.8150 C   0  0  0  0  0  0  0  0  0  0  0  0
   61.4730   32.9700   48.9160 S   0  0  0  0  0  0  0  0  0  0  0  0
   62.4950   31.8760   48.7780 O   0  0  0  0  0  0  0  0  0  0  0  0
   62.1310   34.2710   48.5480 O   0  0  0  0  0  0  0  0  0  0  0  0
   60.9090   33.0510   50.5710 N   0  0  0  0  0  0  0  0  0  0  0  0
   60.7560   31.6910   51.1300 C   0  0  0  0  0  0  0  0  0  0  0  0
   59.5800   30.9210   50.4770 C   0  0  0  0  0  0  0  0  0  0  0  0
   58.2680   30.9660   51.2850 C   0  0  0  0  0  0  0  0  0  0  0  0
   57.6970   32.3860   51.4880 C   0  0  0  0  0  0  0  0  0  0  0  0
   58.7370   33.4720   51.8070 C   0  0  0  0  0  0  0  0  0  0  0  0
   59.6580   33.8400   50.6290 C   0  0  0  0  0  0  0  0  0  0  0  0
   60.1130   31.4900   47.0400 C   0  0  0  0  0  0  0  0  0  0  0  0
   59.1490   31.3230   46.0440 C   0  0  0  0  0  0  0  0  0  0  0  0
   55.5902   29.3932   43.9254 H   0  0  0  0  0  0  0  0  0  0  0  0
   56.2186   30.4550   42.6062 H   0  0  0  0  0  0  0  0  0  0  0  0
   58.1596   29.3183   42.7434 H   0  0  0  0  0  0  0  0  0  0  0  0
   58.4094   30.0875   44.3461 H   0  0  0  0  0  0  0  0  0  0  0  0
   56.8697   28.9489   46.2887 H   0  0  0  0  0  0  0  0  0  0  0  0
   56.3787   26.7289   47.3089 H   0  0  0  0  0  0  0  0  0  0  0  0
   57.7691   23.6574   43.5955 H   0  0  0  0  0  0  0  0  0  0  0  0
   58.5011   22.6338   44.8927 H   0  0  0  0  0  0  0  0  0  0  0  0
   57.9183   21.8143   42.2709 H   0  0  0  0  0  0  0  0  0  0  0  0
   58.2524   20.7422   43.6884 H   0  0  0  0  0  0  0  0  0  0  0  0
   54.8185   20.2294   44.4275 H   0  0  0  0  0  0  0  0  0  0  0  0
   56.5180   19.6518   44.7191 H   0  0  0  0  0  0  0  0  0  0  0  0
   55.1235   21.6610   46.1567 H   0  0  0  0  0  0  0  0  0  0  0  0
   56.8721   21.2413   46.2611 H   0  0  0  0  0  0  0  0  0  0  0  0
   57.7774   24.7633   43.7131 H   0  0  0  0  0  0  0  0  0  0  0  0
   58.2407   26.9842   42.6776 H   0  0  0  0  0  0  0  0  0  0  0  0
   57.3807   34.2159   46.4955 H   0  0  0  0  0  0  0  0  0  0  0  0
   59.1040   34.5141   48.2763 H   0  0  0  0  0  0  0  0  0  0  0  0
   61.6864   31.1300   50.9578 H   0  0  0  0  0  0  0  0  0  0  0  0
   60.5418   31.7886   52.2045 H   0  0  0  0  0  0  0  0  0  0  0  0
   59.3897   31.3583   49.4858 H   0  0  0  0  0  0  0  0  0  0  0  0
   59.8835   29.8649   50.4263 H   0  0  0  0  0  0  0  0  0  0  0  0
   57.5154   30.3644   50.7543 H   0  0  0  0  0  0  0  0  0  0  0  0
   58.5000   30.5730   52.2859 H   0  0  0  0  0  0  0  0  0  0  0  0
   57.1736   32.6771   50.5653 H   0  0  0  0  0  0  0  0  0  0  0  0
   57.0390   32.3268   52.3675 H   0  0  0  0  0  0  0  0  0  0  0  0
   58.2007   34.3798   52.1204 H   0  0  0  0  0  0  0  0  0  0  0  0
   59.3858   33.0620   52.5950 H   0  0  0  0  0  0  0  0  0  0  0  0
   59.1034   33.6776   49.6930 H   0  0  0  0  0  0  0  0  0  0  0  0
   59.9516   34.8904   50.7719 H   0  0  0  0  0  0  0  0  0  0  0  0
   60.8610   30.7031   47.2170 H   0  0  0  0  0  0  0  0  0  0  0  0
   59.1366   30.4020   45.4426 H   0  0  0  0  0  0  0  0  0  0  0  0
  1  2  2  0
  2  3  1  0
  3  4  1  0
  4  5  1  0
  5  6  1  0
  6  7  2  0
  7  8  1  0
  8  9  2  0
  9 10  1  0
 10 11  2  0
 10 12  2  0
 10 13  1  0
 13 14  1  0
 14 15  1  0
 15 16  1  0
 16 17  1  0
 17 18  1  0
  9 19  1  0
 19 20  2  0
  2 21  1  0
 21 22  2  0
 22 23  1  0
 23 24  2  0
 24 25  1  0
 25 26  2  0
 25 27  2  0
 25 28  1  0
 28 29  1  0
 29 30  1  0
 30 31  1  0
 31 32  1  0
 32 33  1  0
 33 34  1  0
 24 35  1  0
 35 36  2  0
 20  6  1  0
 36 21  1  0
 18 13  1  0
 34 28  1  0
  4 37  1  0
  4 38  1  0
  5 39  1  0
  5 40  1  0
  7 41  1  0
  8 42  1  0
 14 43  1  0
 14 44  1  0
 15 45  1  0
 15 46  1  0
 17 47  1  0
 17 48  1  0
 18 49  1  0
 18 50  1  0
 19 51  1  0
 20 52  1  0
 22 53  1  0
 23 54  1  0
 29 55  1  0
 29 56  1  0
 30 57  1  0
 30 58  1  0
 31 59  1  0
 31 60  1  0
 32 61  1  0
 32 62  1  0
 33 63  1  0
 33 64  1  0
 34 65  1  0
 34 66  1  0
 35 67  1  0
 36 68  1  0
M  CHG  1   3  -1
M  END
>  <UniqueID>  (32) 
28

>  <SMILES>  (32) 
O=C([N-]CCc1ccc(S(=O)(=O)N2CCOCC2)cc1)c1ccc(S(=O)(=O)N2CCCCCC2)cc1

>  <Energy>  (32) 
82.73081821281973

>  <Genealogy>  (32) 
O=C([N-]CCc1ccc(S(=O)(=O)N2CCOCC2)cc1)c1ccc(S(=O)(=O)N2CCCCCC2)cc1 (protonated)
O=C([N-]CCc1ccc(S(=O)(=O)N2CCOCC2)cc1)c1ccc(S(=O)(=O)N2CCCCCC2)cc1 (3D coordinates assigned)
O=C([N-]CCc1ccc(S(=O)(=O)N2CCOCC2)cc1)c1ccc(S(=O)(=O)N2CCCCCC2)cc1 (nonaromatic ring conformer: 82.73081821281973 kcal/mol)

>  <smiles>  (32) 
O=C(NCCc1ccc(S(=O)(=O)N2CCOCC2)cc1)c1ccc(S(=O)(=O)N2CCCCCC2)cc1

>  <score_type>  (32) 
oracle

>  <origin>  (32) 
adg

>  <m_score__min__energy>  (32) 
-9.1899999999999995

>  <m_primary>  (32) 
energy

$$$$
32:0
     RDKit          3D

 51 53  0  0  0  0  0  0  0  0999 V2000
   59.6942   25.8791   46.8140 H   0  0  0  0  0  0  0  0  0  0  0  0
   60.2610   26.7780   47.0980 C   0  0  0  0  0  0  0  0  0  0  0  0
   61.3050   26.8956   46.7721 H   0  0  0  0  0  0  0  0  0  0  0  0
   59.6820   27.7260   47.8380 C   0  0  0  0  0  0  0  0  0  0  0  0
   58.6370   27.5827   48.1501 H   0  0  0  0  0  0  0  0  0  0  0  0
   60.3810   28.9610   48.2580 C   0  0  0  0  0  0  0  0  0  0  0  0
   60.7840   29.8790   47.2820 C   0  0  0  0  0  0  0  0  0  0  0  0
   60.5792   29.6750   46.2207 H   0  0  0  0  0  0  0  0  0  0  0  0
   61.4270   31.0210   47.6390 N   0  0  0  0  0  0  0  0  0  0  0  0
   61.6950   31.2990   48.9390 C   0  0  0  0  0  0  0  0  0  0  0  0
   62.2670   32.4240   49.2460 N   0  0  0  0  0  0  0  0  0  0  0  0
   61.6970   33.7530   49.0000 C   0  0  0  0  0  0  0  0  0  0  0  0
   61.2761   34.1375   49.9407 H   0  0  0  0  0  0  0  0  0  0  0  0
   62.5029   34.4021   48.6269 H   0  0  0  0  0  0  0  0  0  0  0  0
   60.6030   33.7220   47.9530 C   0  0  0  0  0  0  0  0  0  0  0  0
   59.2990   33.3620   48.3320 C   0  0  0  0  0  0  0  0  0  0  0  0
   59.0780   33.1539   49.3893 H   0  0  0  0  0  0  0  0  0  0  0  0
   58.2770   33.2650   47.3790 C   0  0  0  0  0  0  0  0  0  0  0  0
   57.2589   32.9932   47.6946 H   0  0  0  0  0  0  0  0  0  0  0  0
   58.5450   33.5130   46.0220 C   0  0  0  0  0  0  0  0  0  0  0  0
   57.4620   33.4180   45.0130 C   0  0  0  0  0  0  0  0  0  0  0  0
   56.6360   34.3630   44.8960 O   0  0  0  0  0  0  0  0  0  0  0  0
   57.3700   32.3050   44.1100 N   0  0  0  0  0  0  0  0  0  0  0  0
   57.0200   31.0950   44.4380 C   0  0  0  0  0  0  0  0  0  0  0  0
   55.7340   30.7130   44.5420 N   0  0  0  0  0  0  0  0  0  0  0  0
   55.7500   29.4580   44.8880 O   0  0  0  0  0  0  0  0  0  0  0  0
   56.9830   29.0170   45.0170 C   0  0  0  0  0  0  0  0  0  0  0  0
   57.3500   27.6360   45.4420 C   0  0  0  0  0  0  0  0  0  0  0  0
   57.3643   27.5821   46.5406 H   0  0  0  0  0  0  0  0  0  0  0  0
   56.6102   26.9228   45.0495 H   0  0  0  0  0  0  0  0  0  0  0  0
   58.3462   27.3841   45.0495 H   0  0  0  0  0  0  0  0  0  0  0  0
   57.8630   30.0410   44.7440 C   0  0  0  0  0  0  0  0  0  0  0  0
   58.9627   30.0249   44.7642 H   0  0  0  0  0  0  0  0  0  0  0  0
   59.8490   33.8720   45.6410 C   0  0  0  0  0  0  0  0  0  0  0  0
   60.0683   34.0851   44.5844 H   0  0  0  0  0  0  0  0  0  0  0  0
   60.8700   33.9610   46.5910 C   0  0  0  0  0  0  0  0  0  0  0  0
   61.8905   34.2198   46.2724 H   0  0  0  0  0  0  0  0  0  0  0  0
   61.3150   30.4180   49.9060 N   0  0  0  0  0  0  0  0  0  0  0  0
   60.6490   29.2730   49.6060 C   0  0  0  0  0  0  0  0  0  0  0  0
   60.1480   28.4650   50.6330 O   0  0  0  0  0  0  0  0  0  0  0  0
   59.5370   28.9600   51.8230 C   0  0  0  0  0  0  0  0  0  0  0  0
   59.0439   28.1224   52.3380 H   0  0  0  0  0  0  0  0  0  0  0  0
   60.3309   29.4104   52.4369 H   0  0  0  0  0  0  0  0  0  0  0  0
   58.5150   30.0270   51.5590 C   0  0  0  0  0  0  0  0  0  0  0  0
   57.2870   29.7520   51.6430 O   0  0  0  0  0  0  0  0  0  0  0  0
   58.9410   31.3510   51.2240 N   0  0  0  0  0  0  0  0  0  0  0  0
   59.9160   31.5110   50.8780 H   0  0  0  0  0  0  0  0  0  0  0  0
   58.0330   32.4920   51.3060 C   0  0  0  0  0  0  0  0  0  0  0  0
   57.8413   32.7329   52.3620 H   0  0  0  0  0  0  0  0  0  0  0  0
   58.4897   33.3605   50.8089 H   0  0  0  0  0  0  0  0  0  0  0  0
   57.0841   32.2420   50.8089 H   0  0  0  0  0  0  0  0  0  0  0  0
  1  2  1  0
  2  3  1  0
  2  4  2  0
  4  5  1  0
  4  6  1  0
  6  7  1  0
  7  8  1  0
  7  9  2  0
  9 10  1  0
 10 11  2  0
 11 12  1  0
 12 13  1  0
 12 14  1  0
 12 15  1  0
 15 16  2  0
 16 17  1  0
 16 18  1  0
 18 19  1  0
 18 20  2  0
 20 21  1  0
 21 22  2  0
 21 23  1  0
 23 24  2  3
 24 25  1  0
 25 26  1  0
 26 27  1  0
 27 28  1  0
 28 29  1  0
 28 30  1  0
 28 31  1  0
 27 32  2  0
 32 33  1  0
 20 34  1  0
 34 35  1  0
 34 36  2  0
 36 37  1  0
 10 38  1  0
 38 39  1  0
 39 40  1  0
 40 41  1  0
 41 42  1  0
 41 43  1  0
 41 44  1  0
 44 45  2  0
 44 46  1  0
 46 47  1  0
 46 48  1  0
 48 49  1  0
 48 50  1  0
 48 51  1  0
 39  6  2  0
 36 15  1  0
 32 24  1  0
M  CHG  2  25  -1  38  -1
M  END
>  <UniqueID>  (33) 
29

>  <SMILES>  (33) 
C=Cc1cn/c(=N/Cc2ccc(C(=O)N=c3cc(C)o[n-]3)cc2)[n-]c1OCC(=O)NC

>  <Energy>  (33) 
96.95975490708585

>  <Genealogy>  (33) 
C=Cc1cnc(=NCc2ccc(C(=O)N=c3cc(C)o[n-]3)cc2)[n-]c1OCC(=O)NC (protonated)
C=Cc1cn/c(=N/Cc2ccc(C(=O)N=c3cc(C)o[n-]3)cc2)[n-]c1OCC(=O)NC (cis-trans isomerization)
C=Cc1cn/c(=N/Cc2ccc(C(=O)N=c3cc(C)o[n-]3)cc2)[n-]c1OCC(=O)NC (3D coordinates assigned)
C=Cc1cn/c(=N/Cc2ccc(C(=O)N=c3cc(C)o[n-]3)cc2)[n-]c1OCC(=O)NC (optimized conformer: 96.95975490708585 kcal/mol)

>  <smiles>  (33) 
C=Cc1cnc(=NCc2ccc(C(=O)N=c3cc(C)o[nH]3)cc2)[nH]c1OCC(=O)NC

>  <score_type>  (33) 
oracle

>  <origin>  (33) 
adg

>  <m_score__min__energy>  (33) 
-11.380000000000001

>  <m_primary>  (33) 
energy

$$$$
33:0
     RDKit          3D

 39 41  0  0  0  0  0  0  0  0999 V2000
   59.2320   33.0610   50.9720 C   0  0  0  0  0  0  0  0  0  0  0  0
   59.5860   34.1900   50.1800 O   0  0  0  0  0  0  0  0  0  0  0  0
   60.1650   34.1150   48.9040 C   0  0  0  0  0  0  0  0  0  0  0  0
   59.4940   34.5440   47.7440 C   0  0  0  0  0  0  0  0  0  0  0  0
   60.1170   34.4570   46.4900 C   0  0  0  0  0  0  0  0  0  0  0  0
   59.3840   34.8830   45.2500 C   0  0  0  0  0  0  0  0  0  0  0  0
   58.7010   33.7300   44.6760 N   0  0  0  0  0  0  0  0  0  0  0  0
   57.5660   33.0810   45.2640 C   0  0  0  0  0  0  0  0  0  0  0  0
   56.6730   33.7900   45.7960 O   0  0  0  0  0  0  0  0  0  0  0  0
   57.4060   31.6110   45.2310 C   0  0  0  0  0  0  0  0  0  0  0  0
   56.2770   31.0990   44.6700 N   0  0  0  0  0  0  0  0  0  0  0  0
   56.0340   29.7640   44.6410 C   0  0  0  0  0  0  0  0  0  0  0  0
   54.9790   29.3300   44.1120 O   0  0  0  0  0  0  0  0  0  0  0  0
   56.9260   28.8970   45.1830 N   0  0  0  0  0  0  0  0  0  0  0  0
   58.0740   29.3420   45.7530 C   0  0  0  0  0  0  0  0  0  0  0  0
   58.9820   28.4290   46.2940 C   0  0  0  0  0  0  0  0  0  0  0  0
   60.1710   28.8970   46.8550 C   0  0  0  0  0  0  0  0  0  0  0  0
   60.4430   30.2270   46.8650 N   0  0  0  0  0  0  0  0  0  0  0  0
   59.5790   31.1430   46.3500 C   0  0  0  0  0  0  0  0  0  0  0  0
   58.3560   30.7250   45.7900 C   0  0  0  0  0  0  0  0  0  0  0  0
   61.4070   33.9120   46.3940 C   0  0  0  0  0  0  0  0  0  0  0  0
   62.0860   33.4800   47.5480 C   0  0  0  0  0  0  0  0  0  0  0  0
   63.3780   32.9370   47.5020 O   0  0  0  0  0  0  0  0  0  0  0  0
   64.0710   32.4100   48.6290 C   0  0  0  0  0  0  0  0  0  0  0  0
   61.4570   33.5900   48.7930 C   0  0  0  0  0  0  0  0  0  0  0  0
   59.3134   33.3207   52.0378 H   0  0  0  0  0  0  0  0  0  0  0  0
   58.1975   32.7637   50.7450 H   0  0  0  0  0  0  0  0  0  0  0  0
   59.9115   32.2263   50.7450 H   0  0  0  0  0  0  0  0  0  0  0  0
   58.4746   34.9501   47.8209 H   0  0  0  0  0  0  0  0  0  0  0  0
   58.6461   35.6573   45.5067 H   0  0  0  0  0  0  0  0  0  0  0  0
   60.0991   35.2898   44.5198 H   0  0  0  0  0  0  0  0  0  0  0  0
   58.7620   27.3513   46.2780 H   0  0  0  0  0  0  0  0  0  0  0  0
   60.8894   28.1867   47.2901 H   0  0  0  0  0  0  0  0  0  0  0  0
   59.8360   32.2123   46.3710 H   0  0  0  0  0  0  0  0  0  0  0  0
   61.8903   33.8221   45.4099 H   0  0  0  0  0  0  0  0  0  0  0  0
   63.5961   32.7711   49.5532 H   0  0  0  0  0  0  0  0  0  0  0  0
   64.0324   31.3110   48.6022 H   0  0  0  0  0  0  0  0  0  0  0  0
   65.1197   32.7408   48.6022 H   0  0  0  0  0  0  0  0  0  0  0  0
   61.9865   33.2586   49.6984 H   0  0  0  0  0  0  0  0  0  0  0  0
  1  2  1  0
  2  3  1  0
  3  4  2  0
  4  5  1  0
  5  6  1  0
  6  7  1  0
  7  8  1  0
  8  9  2  0
  8 10  1  0
 10 11  1  0
 11 12  1  0
 12 13  2  0
 12 14  1  0
 14 15  2  0
 15 16  1  0
 16 17  2  0
 17 18  1  0
 18 19  2  0
 19 20  1  0
  5 21  2  0
 21 22  1  0
 22 23  1  0
 23 24  1  0
 22 25  2  0
 25  3  1  0
 20 10  2  0
 20 15  1  0
  1 26  1  0
  1 27  1  0
  1 28  1  0
  4 29  1  0
  6 30  1  0
  6 31  1  0
 16 32  1  0
 17 33  1  0
 19 34  1  0
 21 35  1  0
 24 36  1  0
 24 37  1  0
 24 38  1  0
 25 39  1  0
M  CHG  2   7  -1  11  -1
M  END
>  <UniqueID>  (34) 
30

>  <SMILES>  (34) 
COc1cc(C[N-]C(=O)c2[n-]c(=O)nc3ccncc23)cc(OC)c1

>  <Energy>  (34) 
49.48142734582808

>  <Genealogy>  (34) 
COc1cc(C[N-]C(=O)c2[n-]c(=O)nc3ccncc23)cc(OC)c1 (protonated)
COc1cc(C[N-]C(=O)c2[n-]c(=O)nc3ccncc23)cc(OC)c1 (3D coordinates assigned)
COc1cc(C[N-]C(=O)c2[n-]c(=O)nc3ccncc23)cc(OC)c1 (optimized conformer: 49.48142734582808 kcal/mol)

>  <smiles>  (34) 
COc1cc(CNC(=O)c2[nH]c(=O)nc3ccncc23)cc(OC)c1

>  <score_type>  (34) 
oracle

>  <origin>  (34) 
adg

>  <m_score__min__energy>  (34) 
-10.9

>  <m_primary>  (34) 
energy

$$$$
34:0
     RDKit          3D

 44 45  0  0  0  0  0  0  0  0999 V2000
   58.8630   33.9610   46.3120 C   0  0  0  0  0  0  0  0  0  0  0  0
   58.1510   32.3230   46.7110 S   0  0  0  0  0  0  0  0  0  0  0  0
   57.7990   31.9290   44.9880 C   0  0  0  0  0  0  0  0  0  0  0  0
   58.0200   32.9140   44.0150 C   0  0  0  0  0  0  0  0  0  0  0  0
   57.7770   32.6310   42.6690 C   0  0  0  0  0  0  0  0  0  0  0  0
   57.2720   31.3810   42.2850 C   0  0  0  0  0  0  0  0  0  0  0  0
   56.9960   30.4120   43.2490 C   0  0  0  0  0  0  0  0  0  0  0  0
   57.2910   30.6630   44.6100 C   0  0  0  0  0  0  0  0  0  0  0  0
   57.0530   29.6790   45.6350 N   0  0  0  0  0  0  0  0  0  0  0  0
   56.9770   28.2510   45.4820 C   0  0  0  0  0  0  0  0  0  0  0  0
   55.8770   27.6400   45.6160 O   0  0  0  0  0  0  0  0  0  0  0  0
   58.2120   27.4880   45.0980 C   0  0  0  0  0  0  0  0  0  0  0  0
   59.2300   28.3580   44.3460 C   0  0  0  0  0  0  0  0  0  0  0  0
   60.2270   28.9940   45.2770 C   0  0  0  0  0  0  0  0  0  0  0  0
   61.4520   28.9900   44.9640 O   0  0  0  0  0  0  0  0  0  0  0  0
   59.7740   29.6290   46.4890 N   0  0  0  0  0  0  0  0  0  0  0  0
   60.6380   30.2540   47.4560 C   0  0  0  0  0  0  0  0  0  0  0  0
   60.6260   29.7850   48.7780 C   0  0  0  0  0  0  0  0  0  0  0  0
   61.4740   30.3500   49.7350 C   0  0  0  0  0  0  0  0  0  0  0  0
   62.3540   31.3790   49.3750 C   0  0  0  0  0  0  0  0  0  0  0  0
   62.3840   31.8690   48.0550 C   0  0  0  0  0  0  0  0  0  0  0  0
   63.3300   32.9570   47.6850 C   0  0  0  0  0  0  0  0  0  0  0  0
   63.0970   33.8480   46.5000 C   0  0  0  0  0  0  0  0  0  0  0  0
   64.3820   33.1230   48.3680 O   0  0  0  0  0  0  0  0  0  0  0  0
   61.5260   31.2920   47.0960 C   0  0  0  0  0  0  0  0  0  0  0  0
   59.0958   34.4965   47.2442 H   0  0  0  0  0  0  0  0  0  0  0  0
   59.7843   33.8275   45.7260 H   0  0  0  0  0  0  0  0  0  0  0  0
   58.1369   34.5435   45.7260 H   0  0  0  0  0  0  0  0  0  0  0  0
   58.3844   33.9087   44.3114 H   0  0  0  0  0  0  0  0  0  0  0  0
   57.9834   33.3946   41.9046 H   0  0  0  0  0  0  0  0  0  0  0  0
   57.0932   31.1642   41.2215 H   0  0  0  0  0  0  0  0  0  0  0  0
   56.5488   29.4521   42.9513 H   0  0  0  0  0  0  0  0  0  0  0  0
   58.6859   27.1006   46.0120 H   0  0  0  0  0  0  0  0  0  0  0  0
   57.9062   26.6735   44.4249 H   0  0  0  0  0  0  0  0  0  0  0  0
   59.7703   27.7281   43.6240 H   0  0  0  0  0  0  0  0  0  0  0  0
   58.6786   29.1631   43.8383 H   0  0  0  0  0  0  0  0  0  0  0  0
   58.7410   29.7830   46.6000 H   0  0  0  0  0  0  0  0  0  0  0  0
   59.9460   28.9687   49.0630 H   0  0  0  0  0  0  0  0  0  0  0  0
   61.4503   29.9860   50.7727 H   0  0  0  0  0  0  0  0  0  0  0  0
   63.0281   31.8084   50.1308 H   0  0  0  0  0  0  0  0  0  0  0  0
   62.8329   34.8579   46.8469 H   0  0  0  0  0  0  0  0  0  0  0  0
   64.0126   33.8968   45.8923 H   0  0  0  0  0  0  0  0  0  0  0  0
   62.2747   33.4423   45.8923 H   0  0  0  0  0  0  0  0  0  0  0  0
   61.5484   31.6538   46.0574 H   0  0  0  0  0  0  0  0  0  0  0  0
  1  2  1  0
  2  3  1  0
  3  4  2  0
  4  5  1  0
  5  6  2  0
  6  7  1  0
  7  8  2  0
  8  9  1  0
  9 10  1  0
 10 11  2  0
 10 12  1  0
 12 13  1  0
 13 14  1  0
 14 15  2  0
 14 16  1  0
 16 17  1  0
 17 18  2  0
 18 19  1  0
 19 20  2  0
 20 21  1  0
 21 22  1  0
 22 23  1  0
 22 24  2  0
 21 25  2  0
  8  3  1  0
 25 17  1  0
  1 26  1  0
  1 27  1  0
  1 28  1  0
  4 29  1  0
  5 30  1  0
  6 31  1  0
  7 32  1  0
 12 33  1  0
 12 34  1  0
 13 35  1  0
 13 36  1  0
 16 37  1  0
 18 38  1  0
 19 39  1  0
 20 40  1  0
 23 41  1  0
 23 42  1  0
 23 43  1  0
 25 44  1  0
M  CHG  1   9  -1
M  END
>  <UniqueID>  (35) 
31

>  <SMILES>  (35) 
CSc1ccccc1[N-]C(=O)CCC(=O)Nc1cccc(C(C)=O)c1

>  <Energy>  (35) 
42.17616381081985

>  <Genealogy>  (35) 
CSc1ccccc1[N-]C(=O)CCC(=O)Nc1cccc(C(C)=O)c1 (protonated)
CSc1ccccc1[N-]C(=O)CCC(=O)Nc1cccc(C(C)=O)c1 (3D coordinates assigned)
CSc1ccccc1[N-]C(=O)CCC(=O)Nc1cccc(C(C)=O)c1 (optimized conformer: 42.17616381081985 kcal/mol)

>  <smiles>  (35) 
CSc1ccccc1NC(=O)CCC(=O)Nc1cccc(C(C)=O)c1

>  <score_type>  (35) 
oracle

>  <origin>  (35) 
adg

>  <m_score__min__energy>  (35) 
-10.359999999999999

>  <m_primary>  (35) 
energy

$$$$
35:0
     RDKit          3D

 41 43  0  0  1  0  0  0  0  0999 V2000
   57.4460   25.4790   44.3840 C   0  0  0  0  0  0  0  0  0  0  0  0
   57.2420   26.0970   46.0250 S   0  0  0  0  0  0  0  0  0  0  0  0
   55.7870   26.2320   46.3400 O   0  0  0  0  0  0  0  0  0  0  0  0
   57.8120   25.0550   46.9750 O   0  0  0  0  0  0  0  0  0  0  0  0
   58.0840   27.5910   46.2810 C   0  0  0  0  0  0  0  0  0  0  0  0
   58.6710   28.2070   45.2030 C   0  0  0  0  0  0  0  0  0  0  0  0
   59.3680   29.4060   45.3070 C   0  0  0  0  0  0  0  0  0  0  0  0
   59.4620   29.9860   46.5630 C   0  0  0  0  0  0  0  0  0  0  0  0
   60.1690   31.2450   46.7900 C   0  0  0  0  0  0  0  0  0  0  0  0
   61.5240   31.1340   47.0930 C   0  0  0  0  0  0  0  0  0  0  0  0
   62.1880   32.2980   47.3050 N   0  0  0  0  0  0  0  0  0  0  0  0
   61.5560   33.4920   47.2240 C   0  0  0  0  0  0  0  0  0  0  0  0
   60.2470   33.5990   46.9320 N   0  0  0  0  0  0  0  0  0  0  0  0
   59.5450   32.4750   46.7120 C   0  0  0  0  0  0  0  0  0  0  0  0
   58.3010   32.5090   46.4310 N   0  0  0  0  0  0  0  0  0  0  0  0
   57.7980   33.1980   45.2580 C   0  0  0  0  0  0  0  0  0  0  0  0
   58.1200   32.4270   43.9960 C   0  0  0  0  0  0  0  0  0  0  0  0
   57.1590   31.2960   43.8010 C   0  0  0  0  0  0  0  0  0  0  0  0
   56.8330   30.6590   42.6240 C   0  0  0  0  0  0  0  0  0  0  0  0
   55.9300   29.7100   42.9310 N   0  0  0  0  0  0  0  0  0  0  0  0
   55.7140   29.7660   44.2530 C   0  0  0  0  0  0  0  0  0  0  0  0
   56.4550   30.7350   44.8250 N   0  0  0  0  0  0  0  0  0  0  0  0
   58.8820   29.3840   47.6450 C   0  0  0  0  0  0  0  0  0  0  0  0
   58.1950   28.1950   47.5210 C   0  0  0  0  0  0  0  0  0  0  0  0
   57.7906   24.4352   44.4255 H   0  0  0  0  0  0  0  0  0  0  0  0
   56.4844   25.5268   43.8520 H   0  0  0  0  0  0  0  0  0  0  0  0
   58.1902   26.0899   43.8520 H   0  0  0  0  0  0  0  0  0  0  0  0
   58.5862   27.7316   44.2147 H   0  0  0  0  0  0  0  0  0  0  0  0
   59.8277   29.8768   44.4255 H   0  0  0  0  0  0  0  0  0  0  0  0
   62.0272   30.1579   47.1568 H   0  0  0  0  0  0  0  0  0  0  0  0
   62.1346   34.4101   47.4038 H   0  0  0  0  0  0  0  0  0  0  0  0
   59.7740   34.5260   46.8720 H   0  0  0  0  0  0  0  0  0  0  0  0
   56.7068   33.3062   45.3448 H   0  0  0  0  0  0  0  0  0  0  0  0
   58.2798   34.1851   45.1980 H   0  0  0  0  0  0  0  0  0  0  0  0
   58.0567   33.1062   43.1330 H   0  0  0  0  0  0  0  0  0  0  0  0
   59.1354   32.0137   44.0861 H   0  0  0  0  0  0  0  0  0  0  0  0
   57.2341   30.8832   41.6246 H   0  0  0  0  0  0  0  0  0  0  0  0
   55.5010   29.0680   42.2440 H   0  0  0  0  0  0  0  0  0  0  0  0
   55.0226   29.1073   44.7990 H   0  0  0  0  0  0  0  0  0  0  0  0
   58.9651   29.8578   48.6343 H   0  0  0  0  0  0  0  0  0  0  0  0
   57.7365   27.7280   48.4051 H   0  0  0  0  0  0  0  0  0  0  0  0
  1  2  1  0
  2  3  2  0
  2  4  2  0
  2  5  1  0
  5  6  2  0
  6  7  1  0
  7  8  2  0
  8  9  1  0
  9 10  2  0
 10 11  1  0
 11 12  2  0
 12 13  1  0
 13 14  1  0
 14 15  2  0
 15 16  1  0
 16 17  1  0
 17 18  1  0
 18 19  2  0
 19 20  1  0
 20 21  1  0
 21 22  2  0
  8 23  1  0
 23 24  2  0
 24  5  1  0
 14  9  1  0
 22 18  1  0
  1 25  1  0
  1 26  1  0
  1 27  1  0
  6 28  1  0
  7 29  1  0
 10 30  1  0
 12 31  1  0
 13 32  1  0
 16 33  1  0
 16 34  1  0
 17 35  1  0
 17 36  1  0
 19 37  1  0
 20 38  1  0
 21 39  1  0
 23 40  1  0
 24 41  1  0
M  END
>  <smiles>  (36) 
CS(=O)(=O)c1ccc(-c2cnc[nH]c2=NCCc2c[nH]cn2)cc1

>  <score_type>  (36) 
oracle

>  <origin>  (36) 
adg

>  <m_score__min__energy>  (36) 
-7.9100000000000001

>  <m_primary>  (36) 
energy

$$$$
36:0
     RDKit          3D

 31 33  0  0  0  0  0  0  0  0999 V2000
   53.9650   23.6980   45.3740 O   0  0  0  0  0  0  0  0  0  0  0  0
   54.6620   24.7240   45.5860 C   0  0  0  0  0  0  0  0  0  0  0  0
   56.0370   24.7610   45.6070 C   0  0  0  0  0  0  0  0  0  0  0  0
   56.2970   26.0900   45.8710 C   0  0  0  0  0  0  0  0  0  0  0  0
   57.6480   26.7150   46.0220 C   0  0  0  0  0  0  0  0  0  0  0  0
   57.5250   28.0840   46.4060 O   0  0  0  0  0  0  0  0  0  0  0  0
   57.3610   29.1620   45.5200 C   0  0  0  0  0  0  0  0  0  0  0  0
   56.6990   29.0360   44.2850 C   0  0  0  0  0  0  0  0  0  0  0  0
   56.5570   30.1430   43.4480 C   0  0  0  0  0  0  0  0  0  0  0  0
   57.0750   31.3830   43.8280 C   0  0  0  0  0  0  0  0  0  0  0  0
   57.7500   31.5300   45.0530 C   0  0  0  0  0  0  0  0  0  0  0  0
   58.2990   32.8530   45.4470 C   0  0  0  0  0  0  0  0  0  0  0  0
   58.3040   33.2630   46.6680 N   0  0  0  0  0  0  0  0  0  0  0  0
   58.8990   34.5920   46.7480 C   0  0  0  0  0  0  0  0  0  0  0  0
   59.2580   34.9530   45.3000 C   0  0  0  0  0  0  0  0  0  0  0  0
   58.8530   33.7890   44.5390 N   0  0  0  0  0  0  0  0  0  0  0  0
   57.8830   30.4090   45.8930 C   0  0  0  0  0  0  0  0  0  0  0  0
   55.1600   26.7390   45.9950 O   0  0  0  0  0  0  0  0  0  0  0  0
   54.1440   25.9410   45.8250 N   0  0  0  0  0  0  0  0  0  0  0  0
   56.7500   23.9378   45.4522 H   0  0  0  0  0  0  0  0  0  0  0  0
   58.2139   26.1721   46.7933 H   0  0  0  0  0  0  0  0  0  0  0  0
   58.1745   26.6618   45.0577 H   0  0  0  0  0  0  0  0  0  0  0  0
   56.2919   28.0612   43.9783 H   0  0  0  0  0  0  0  0  0  0  0  0
   56.0352   30.0388   42.4853 H   0  0  0  0  0  0  0  0  0  0  0  0
   56.9541   32.2516   43.1639 H   0  0  0  0  0  0  0  0  0  0  0  0
   58.1785   35.3142   47.1595 H   0  0  0  0  0  0  0  0  0  0  0  0
   59.7776   34.6127   47.4095 H   0  0  0  0  0  0  0  0  0  0  0  0
   58.7068   35.8464   44.9714 H   0  0  0  0  0  0  0  0  0  0  0  0
   60.3245   35.1912   45.1746 H   0  0  0  0  0  0  0  0  0  0  0  0
   58.8990   33.7120   43.5000 H   0  0  0  0  0  0  0  0  0  0  0  0
   58.4040   30.5123   46.8563 H   0  0  0  0  0  0  0  0  0  0  0  0
  1  2  2  0
  2  3  1  0
  3  4  2  0
  4  5  1  0
  5  6  1  0
  6  7  1  0
  7  8  2  0
  8  9  1  0
  9 10  2  0
 10 11  1  0
 11 12  1  0
 12 13  2  0
 13 14  1  0
 14 15  1  0
 15 16  1  0
 11 17  2  0
  4 18  1  0
 18 19  1  0
 19  2  1  0
 17  7  1  0
 16 12  1  0
  3 20  1  0
  5 21  1  0
  5 22  1  0
  8 23  1  0
  9 24  1  0
 10 25  1  0
 14 26  1  0
 14 27  1  0
 15 28  1  0
 15 29  1  0
 16 30  1  0
 17 31  1  0
M  CHG  1  19  -1
M  END
>  <UniqueID>  (37) 
32

>  <SMILES>  (37) 
O=c1cc(COc2cccc(C3=NCCN3)c2)o[n-]1

>  <Energy>  (37) 
76.73118282949046

>  <Genealogy>  (37) 
O=c1cc(COc2cccc(C3=NCCN3)c2)o[n-]1 (protonated)
O=c1cc(COc2cccc(C3=NCCN3)c2)o[n-]1 (3D coordinates assigned)
O=c1cc(COc2cccc(C3=NCCN3)c2)o[n-]1 (nonaromatic ring conformer: 76.73118282949046 kcal/mol)

>  <smiles>  (37) 
O=c1cc(COc2cccc(C3=NCCN3)c2)o[nH]1

>  <score_type>  (37) 
oracle

>  <origin>  (37) 
adg

>  <m_score__min__energy>  (37) 
-10.31

>  <m_primary>  (37) 
energy

$$$$
37:0
     RDKit          3D

 30 31  0  0  0  0  0  0  0  0999 V2000
   56.1870   29.2990   44.9990 O   0  0  0  0  0  0  0  0  0  0  0  0
   57.4480   29.3320   44.9900 C   0  0  0  0  0  0  0  0  0  0  0  0
   58.1420   30.5800   45.1430 N   0  0  0  0  0  0  0  0  0  0  0  0
   57.4840   31.8570   45.2170 C   0  0  0  0  0  0  0  0  0  0  0  0
   56.2770   31.9660   44.8650 O   0  0  0  0  0  0  0  0  0  0  0  0
   58.2190   33.0640   45.6590 C   0  0  0  0  0  0  0  0  0  0  0  0
   58.5870   34.0390   44.7130 C   0  0  0  0  0  0  0  0  0  0  0  0
   59.2850   35.1840   45.1080 C   0  0  0  0  0  0  0  0  0  0  0  0
   59.6140   35.3740   46.4520 C   0  0  0  0  0  0  0  0  0  0  0  0
   59.2390   34.4240   47.4030 C   0  0  0  0  0  0  0  0  0  0  0  0
   58.5420   33.2740   47.0160 C   0  0  0  0  0  0  0  0  0  0  0  0
   58.1440   32.4000   47.9740 F   0  0  0  0  0  0  0  0  0  0  0  0
   58.2020   28.1240   44.8000 N   0  0  0  0  0  0  0  0  0  0  0  0
   57.6380   26.8030   44.8550 C   0  0  0  0  0  0  0  0  0  0  0  0
   57.7690   25.9530   43.7450 C   0  0  0  0  0  0  0  0  0  0  0  0
   57.2490   24.6550   43.7820 C   0  0  0  0  0  0  0  0  0  0  0  0
   56.6070   24.1910   44.9330 C   0  0  0  0  0  0  0  0  0  0  0  0
   56.4930   25.0200   46.0520 C   0  0  0  0  0  0  0  0  0  0  0  0
   55.8870   24.5610   47.1740 F   0  0  0  0  0  0  0  0  0  0  0  0
   57.0100   26.3200   46.0180 C   0  0  0  0  0  0  0  0  0  0  0  0
   59.1860   30.5550   45.1660 H   0  0  0  0  0  0  0  0  0  0  0  0
   58.3233   33.8989   43.6543 H   0  0  0  0  0  0  0  0  0  0  0  0
   59.5754   35.9360   44.3596 H   0  0  0  0  0  0  0  0  0  0  0  0
   60.1686   36.2723   46.7609 H   0  0  0  0  0  0  0  0  0  0  0  0
   59.4926   34.5800   48.4620 H   0  0  0  0  0  0  0  0  0  0  0  0
   59.2040   28.2200   44.5180 H   0  0  0  0  0  0  0  0  0  0  0  0
   58.2837   26.3101   42.8408 H   0  0  0  0  0  0  0  0  0  0  0  0
   57.3456   23.9990   42.9043 H   0  0  0  0  0  0  0  0  0  0  0  0
   56.1912   23.1729   44.9582 H   0  0  0  0  0  0  0  0  0  0  0  0
   56.9252   26.9667   46.9037 H   0  0  0  0  0  0  0  0  0  0  0  0
  1  2  2  0
  2  3  1  0
  3  4  1  0
  4  5  2  0
  4  6  1  0
  6  7  2  0
  7  8  1  0
  8  9  2  0
  9 10  1  0
 10 11  2  0
 11 12  1  0
  2 13  1  0
 13 14  1  0
 14 15  2  0
 15 16  1  0
 16 17  2  0
 17 18  1  0
 18 19  1  0
 18 20  2  0
 11  6  1  0
 20 14  1  0
  3 21  1  0
  7 22  1  0
  8 23  1  0
  9 24  1  0
 10 25  1  0
 13 26  1  0
 15 27  1  0
 16 28  1  0
 17 29  1  0
 20 30  1  0
M  END
>  <UniqueID>  (38) 
33

>  <SMILES>  (38) 
O=C(NC(=O)c1ccccc1F)Nc1cccc(F)c1

>  <Energy>  (38) 
38.17127063088381

>  <Genealogy>  (38) 
O=C(NC(=O)c1ccccc1F)Nc1cccc(F)c1 (3D coordinates assigned)
O=C(NC(=O)c1ccccc1F)Nc1cccc(F)c1 (optimized conformer: 38.17127063088381 kcal/mol)

>  <smiles>  (38) 
O=C(NC(=O)c1ccccc1F)Nc1cccc(F)c1

>  <score_type>  (38) 
oracle

>  <origin>  (38) 
adg

>  <m_score__min__energy>  (38) 
-6.8200000000000003

>  <m_primary>  (38) 
energy

$$$$
38:0
     RDKit          3D

 38 40  0  0  0  0  0  0  0  0999 V2000
   52.3267   30.5772   49.6338 H   0  0  0  0  0  0  0  0  0  0  0  0
   51.9160   31.1400   50.4850 C   0  0  0  0  0  0  0  0  0  0  0  0
   50.8380   31.9440   50.4400 N   0  0  0  0  0  0  0  0  0  0  0  0
   50.6390   32.4530   51.6460 N   0  0  0  0  0  0  0  0  0  0  0  0
   51.5870   31.9770   52.4750 C   0  0  0  0  0  0  0  0  0  0  0  0
   51.6797   32.2207   53.5437 H   0  0  0  0  0  0  0  0  0  0  0  0
   52.4260   31.1330   51.7700 C   0  0  0  0  0  0  0  0  0  0  0  0
   53.6080   30.3870   52.2780 C   0  0  0  0  0  0  0  0  0  0  0  0
   53.4410   29.2810   53.1280 C   0  0  0  0  0  0  0  0  0  0  0  0
   52.4268   28.9678   53.4165 H   0  0  0  0  0  0  0  0  0  0  0  0
   54.5450   28.5720   53.6130 C   0  0  0  0  0  0  0  0  0  0  0  0
   54.3120   27.4730   54.4540 O   0  0  0  0  0  0  0  0  0  0  0  0
   55.2220   26.3940   54.6410 C   0  0  0  0  0  0  0  0  0  0  0  0
   55.3685   26.2203   55.7173 H   0  0  0  0  0  0  0  0  0  0  0  0
   54.8137   25.4850   54.1751 H   0  0  0  0  0  0  0  0  0  0  0  0
   56.1868   26.6431   54.1751 H   0  0  0  0  0  0  0  0  0  0  0  0
   55.8400   28.9760   53.2460 C   0  0  0  0  0  0  0  0  0  0  0  0
   56.7123   28.4307   53.6356 H   0  0  0  0  0  0  0  0  0  0  0  0
   56.0300   30.0700   52.3860 C   0  0  0  0  0  0  0  0  0  0  0  0
   57.3990   30.4920   51.9900 C   0  0  0  0  0  0  0  0  0  0  0  0
   57.9570   31.4440   52.5980 O   0  0  0  0  0  0  0  0  0  0  0  0
   58.1450   29.7930   50.9800 N   0  0  0  0  0  0  0  0  0  0  0  0
   58.6990   30.3030   49.9130 C   0  0  0  0  0  0  0  0  0  0  0  0
   59.0710   29.5110   48.8080 C   0  0  0  0  0  0  0  0  0  0  0  0
   58.9023   28.4241   48.8246 H   0  0  0  0  0  0  0  0  0  0  0  0
   59.6540   30.1130   47.6940 C   0  0  0  0  0  0  0  0  0  0  0  0
   59.9521   29.5004   46.8304 H   0  0  0  0  0  0  0  0  0  0  0  0
   59.8590   31.4910   47.6750 C   0  0  0  0  0  0  0  0  0  0  0  0
   60.3147   31.9720   46.7970 H   0  0  0  0  0  0  0  0  0  0  0  0
   59.4800   32.2580   48.7830 C   0  0  0  0  0  0  0  0  0  0  0  0
   59.6530   33.7480   48.7570 C   0  0  0  0  0  0  0  0  0  0  0  0
   59.6974   34.1300   49.7876 H   0  0  0  0  0  0  0  0  0  0  0  0
   60.5864   33.9997   48.2322 H   0  0  0  0  0  0  0  0  0  0  0  0
   58.8021   34.2068   48.2322 H   0  0  0  0  0  0  0  0  0  0  0  0
   58.8940   31.6530   49.8580 N   0  0  0  0  0  0  0  0  0  0  0  0
   58.5960   32.2410   50.6700 H   0  0  0  0  0  0  0  0  0  0  0  0
   54.9100   30.7750   51.9140 C   0  0  0  0  0  0  0  0  0  0  0  0
   55.0533   31.6413   51.2514 H   0  0  0  0  0  0  0  0  0  0  0  0
  1  2  1  0
  2  3  2  0
  3  4  1  0
  4  5  1  0
  5  6  1  0
  5  7  2  0
  7  8  1  0
  8  9  2  0
  9 10  1  0
  9 11  1  0
 11 12  1  0
 12 13  1  0
 13 14  1  0
 13 15  1  0
 13 16  1  0
 11 17  2  0
 17 18  1  0
 17 19  1  0
 19 20  1  0
 20 21  2  0
 20 22  1  0
 22 23  2  0
 23 24  1  0
 24 25  1  0
 24 26  2  0
 26 27  1  0
 26 28  1  0
 28 29  1  0
 28 30  2  0
 30 31  1  0
 31 32  1  0
 31 33  1  0
 31 34  1  0
 30 35  1  0
 35 36  1  0
 19 37  2  0
 37 38  1  0
  7  2  1  0
 37  8  1  0
 35 23  1  0
M  CHG  1   4  -1
M  END
>  <UniqueID>  (39) 
34

>  <SMILES>  (39) 
COc1cc(C(=O)/N=c2\cccc(C)[nH]2)cc(-c2cn[n-]c2)c1

>  <Energy>  (39) 
81.46261902493333

>  <Genealogy>  (39) 
COc1cc(C(=O)N=c2cccc(C)[nH]2)cc(-c2cn[n-]c2)c1 (protonated)
COc1cc(C(=O)/N=c2\cccc(C)[nH]2)cc(-c2cn[n-]c2)c1 (cis-trans isomerization)
COc1cc(C(=O)/N=c2\cccc(C)[nH]2)cc(-c2cn[n-]c2)c1 (3D coordinates assigned)
COc1cc(C(=O)/N=c2\cccc(C)[nH]2)cc(-c2cn[n-]c2)c1 (optimized conformer: 81.46261902493333 kcal/mol)

>  <smiles>  (39) 
COc1cc(C(=O)N=c2cccc(C)[nH]2)cc(-c2cn[nH]c2)c1

>  <score_type>  (39) 
oracle

>  <origin>  (39) 
adg

>  <m_score__min__energy>  (39) 
-9.3200000000000003

>  <m_primary>  (39) 
energy

$$$$
39:0
     RDKit          3D

 34 35  0  0  0  0  0  0  0  0999 V2000
   55.1130   26.7140   46.0030 O   0  0  0  0  0  0  0  0  0  0  0  0
   55.9210   25.7660   46.1920 C   0  0  0  0  0  0  0  0  0  0  0  0
   55.4480   24.5360   46.6310 O   0  0  0  0  0  0  0  0  0  0  0  0
   57.3880   25.9780   45.9970 C   0  0  0  0  0  0  0  0  0  0  0  0
   57.8740   27.1690   46.8270 C   0  0  0  0  0  0  0  0  0  0  0  0
   58.0000   28.3990   45.9670 C   0  0  0  0  0  0  0  0  0  0  0  0
   56.8900   28.8690   45.2480 C   0  0  0  0  0  0  0  0  0  0  0  0
   57.0060   29.9900   44.4220 C   0  0  0  0  0  0  0  0  0  0  0  0
   58.2320   30.6520   44.2870 C   0  0  0  0  0  0  0  0  0  0  0  0
   58.2920   31.7690   43.4390 O   0  0  0  0  0  0  0  0  0  0  0  0
   57.7650   33.0620   43.7390 C   0  0  0  0  0  0  0  0  0  0  0  0
   58.2840   33.5580   45.0630 C   0  0  0  0  0  0  0  0  0  0  0  0
   59.2660   34.5630   45.1030 C   0  0  0  0  0  0  0  0  0  0  0  0
   59.7440   35.0330   46.3310 C   0  0  0  0  0  0  0  0  0  0  0  0
   59.2400   34.5110   47.5240 C   0  0  0  0  0  0  0  0  0  0  0  0
   58.2540   33.5200   47.4930 C   0  0  0  0  0  0  0  0  0  0  0  0
   57.7750   33.0480   46.2680 C   0  0  0  0  0  0  0  0  0  0  0  0
   59.3490   30.1780   45.0020 C   0  0  0  0  0  0  0  0  0  0  0  0
   59.2360   29.0560   45.8290 C   0  0  0  0  0  0  0  0  0  0  0  0
   60.3330   28.6100   46.4930 F   0  0  0  0  0  0  0  0  0  0  0  0
   57.9291   25.0733   46.3111 H   0  0  0  0  0  0  0  0  0  0  0  0
   57.5787   26.1847   44.9336 H   0  0  0  0  0  0  0  0  0  0  0  0
   57.1532   27.3649   47.6345 H   0  0  0  0  0  0  0  0  0  0  0  0
   58.8613   26.9283   47.2480 H   0  0  0  0  0  0  0  0  0  0  0  0
   55.9231   28.3518   45.3353 H   0  0  0  0  0  0  0  0  0  0  0  0
   56.1259   30.3557   43.8728 H   0  0  0  0  0  0  0  0  0  0  0  0
   58.0641   33.7656   42.9481 H   0  0  0  0  0  0  0  0  0  0  0  0
   56.6687   32.9913   43.7946 H   0  0  0  0  0  0  0  0  0  0  0  0
   59.6601   34.9815   44.1652 H   0  0  0  0  0  0  0  0  0  0  0  0
   60.5176   35.8145   46.3567 H   0  0  0  0  0  0  0  0  0  0  0  0
   59.6188   34.8796   48.4887 H   0  0  0  0  0  0  0  0  0  0  0  0
   57.8552   33.1117   48.4334 H   0  0  0  0  0  0  0  0  0  0  0  0
   56.9949   32.2727   46.2477 H   0  0  0  0  0  0  0  0  0  0  0  0
   60.3163   30.6935   44.9093 H   0  0  0  0  0  0  0  0  0  0  0  0
  1  2  2  0
  2  3  1  0
  2  4  1  0
  4  5  1  0
  5  6  1  0
  6  7  2  0
  7  8  1  0
  8  9  2  0
  9 10  1  0
 10 11  1  0
 11 12  1  0
 12 13  2  0
 13 14  1  0
 14 15  2  0
 15 16  1  0
 16 17  2  0
  9 18  1  0
 18 19  2  0
 19 20  1  0
 19  6  1  0
 17 12  1  0
  4 21  1  0
  4 22  1  0
  5 23  1  0
  5 24  1  0
  7 25  1  0
  8 26  1  0
 11 27  1  0
 11 28  1  0
 13 29  1  0
 14 30  1  0
 15 31  1  0
 16 32  1  0
 17 33  1  0
 18 34  1  0
M  CHG  1   3  -1
M  END
>  <UniqueID>  (40) 
35

>  <SMILES>  (40) 
O=C([O-])CCc1ccc(OCc2ccccc2)cc1F

>  <Energy>  (40) 
30.68362217817566

>  <Genealogy>  (40) 
O=C([O-])CCc1ccc(OCc2ccccc2)cc1F (protonated)
O=C([O-])CCc1ccc(OCc2ccccc2)cc1F (3D coordinates assigned)
O=C([O-])CCc1ccc(OCc2ccccc2)cc1F (optimized conformer: 30.68362217817566 kcal/mol)

>  <smiles>  (40) 
O=C(O)CCc1ccc(OCc2ccccc2)cc1F

>  <score_type>  (40) 
oracle

>  <origin>  (40) 
adg

>  <m_score__min__energy>  (40) 
-10.039999999999999

>  <m_primary>  (40) 
energy

$$$$
40:0
     RDKit          3D

 28 29  0  0  0  0  0  0  0  0999 V2000
   60.4076   35.5724   46.8933 H   0  0  0  0  0  0  0  0  0  0  0  0
   59.6420   34.8660   46.5400 C   0  0  0  0  0  0  0  0  0  0  0  0
   59.0360   33.9840   47.4400 C   0  0  0  0  0  0  0  0  0  0  0  0
   59.3340   33.9889   48.4988 H   0  0  0  0  0  0  0  0  0  0  0  0
   58.0520   33.0960   46.9960 C   0  0  0  0  0  0  0  0  0  0  0  0
   57.5900   32.3916   47.7033 H   0  0  0  0  0  0  0  0  0  0  0  0
   57.6520   33.1000   45.6530 C   0  0  0  0  0  0  0  0  0  0  0  0
   56.6430   32.1710   45.2220 N   0  0  0  0  0  0  0  0  0  0  0  0
   56.8430   31.1340   44.5000 N   0  0  0  0  0  0  0  0  0  0  0  0
   56.6320   29.7730   44.9110 C   0  0  0  0  0  0  0  0  0  0  0  0
   55.4630   29.3050   44.8690 O   0  0  0  0  0  0  0  0  0  0  0  0
   57.7530   28.8930   45.3170 C   0  0  0  0  0  0  0  0  0  0  0  0
   57.5120   27.6960   46.0140 C   0  0  0  0  0  0  0  0  0  0  0  0
   56.4817   27.4156   46.2785 H   0  0  0  0  0  0  0  0  0  0  0  0
   58.5730   26.8600   46.3730 C   0  0  0  0  0  0  0  0  0  0  0  0
   58.3731   25.9207   46.9095 H   0  0  0  0  0  0  0  0  0  0  0  0
   59.8910   27.2140   46.0520 C   0  0  0  0  0  0  0  0  0  0  0  0
   60.9750   26.3550   46.4160 N   0  0  0  0  0  0  0  0  0  0  0  0
   61.2250   25.5300   45.8260 H   0  0  0  0  0  0  0  0  0  0  0  0
   61.5360   26.5390   47.2780 H   0  0  0  0  0  0  0  0  0  0  0  0
   60.1380   28.4140   45.3740 C   0  0  0  0  0  0  0  0  0  0  0  0
   61.1706   28.6994   45.1243 H   0  0  0  0  0  0  0  0  0  0  0  0
   59.0780   29.2510   45.0130 C   0  0  0  0  0  0  0  0  0  0  0  0
   59.2821   30.1957   44.4877 H   0  0  0  0  0  0  0  0  0  0  0  0
   58.2910   33.9610   44.7450 C   0  0  0  0  0  0  0  0  0  0  0  0
   58.0171   33.9362   43.6799 H   0  0  0  0  0  0  0  0  0  0  0  0
   59.2750   34.8500   45.1920 C   0  0  0  0  0  0  0  0  0  0  0  0
   59.7596   35.5363   44.4820 H   0  0  0  0  0  0  0  0  0  0  0  0
  1  2  1  0
  2  3  2  0
  3  4  1  0
  3  5  1  0
  5  6  1  0
  5  7  2  0
  7  8  1  0
  8  9  2  0
  9 10  1  0
 10 11  2  0
 10 12  1  0
 12 13  2  0
 13 14  1  0
 13 15  1  0
 15 16  1  0
 15 17  2  0
 17 18  1  0
 18 19  1  0
 18 20  1  0
 17 21  1  0
 21 22  1  0
 21 23  2  0
 23 24  1  0
  7 25  1  0
 25 26  1  0
 25 27  2  0
 27 28  1  0
 27  2  1  0
 23 12  1  0
M  END
>  <UniqueID>  (41) 
36

>  <SMILES>  (41) 
Nc1ccc(C(=O)/N=N\c2ccccc2)cc1

>  <Energy>  (41) 
41.388465545903124

>  <Genealogy>  (41) 
Nc1ccc(C(=O)/N=N\c2ccccc2)cc1 (cis-trans isomerization)
Nc1ccc(C(=O)/N=N\c2ccccc2)cc1 (3D coordinates assigned)
Nc1ccc(C(=O)/N=N\c2ccccc2)cc1 (optimized conformer: 41.388465545903124 kcal/mol)

>  <smiles>  (41) 
Nc1ccc(C(=O)N=Nc2ccccc2)cc1

>  <score_type>  (41) 
oracle

>  <origin>  (41) 
adg

>  <m_score__min__energy>  (41) 
-6.8300000000000001

>  <m_primary>  (41) 
energy

$$$$
41:0
     RDKit          3D

 43 45  0  0  0  0  0  0  0  0999 V2000
   58.1500   32.6370   42.7660 C   0  0  0  0  0  0  0  0  0  0  0  0
   58.2660   33.1210   44.1860 C   0  0  0  0  0  0  0  0  0  0  0  0
   59.1950   34.1250   44.5090 C   0  0  0  0  0  0  0  0  0  0  0  0
   59.3010   34.5940   45.8200 C   0  0  0  0  0  0  0  0  0  0  0  0
   58.4780   34.0720   46.8180 C   0  0  0  0  0  0  0  0  0  0  0  0
   57.5510   33.0740   46.5120 C   0  0  0  0  0  0  0  0  0  0  0  0
   57.4460   32.5760   45.1970 C   0  0  0  0  0  0  0  0  0  0  0  0
   56.4700   31.5790   44.8510 N   0  0  0  0  0  0  0  0  0  0  0  0
   56.7390   30.3180   44.2290 C   0  0  0  0  0  0  0  0  0  0  0  0
   55.8210   29.6850   43.6410 O   0  0  0  0  0  0  0  0  0  0  0  0
   58.1010   29.7010   44.3410 C   0  0  0  0  0  0  0  0  0  0  0  0
   58.5480   29.2830   46.0670 S   0  0  0  0  0  0  0  0  0  0  0  0
   57.7670   27.6710   46.0600 C   0  0  0  0  0  0  0  0  0  0  0  0
   58.5180   26.5460   46.1700 N   0  0  0  0  0  0  0  0  0  0  0  0
   57.9380   25.3190   46.2250 C   0  0  0  0  0  0  0  0  0  0  0  0
   58.6690   24.2990   46.3410 O   0  0  0  0  0  0  0  0  0  0  0  0
   56.5370   25.1990   46.1600 C   0  0  0  0  0  0  0  0  0  0  0  0
   55.8500   23.8610   46.3120 C   0  0  0  0  0  0  0  0  0  0  0  0
   56.2000   22.9620   45.1550 C   0  0  0  0  0  0  0  0  0  0  0  0
   56.1160   23.4390   43.8360 C   0  0  0  0  0  0  0  0  0  0  0  0
   56.4840   22.6210   42.7650 C   0  0  0  0  0  0  0  0  0  0  0  0
   56.9420   21.3220   43.0000 C   0  0  0  0  0  0  0  0  0  0  0  0
   57.0330   20.8400   44.3090 C   0  0  0  0  0  0  0  0  0  0  0  0
   56.6680   21.6560   45.3840 C   0  0  0  0  0  0  0  0  0  0  0  0
   55.7870   26.3800   46.0270 C   0  0  0  0  0  0  0  0  0  0  0  0
   54.4000   26.3400   45.9480 O   0  0  0  0  0  0  0  0  0  0  0  0
   56.4160   27.5810   45.9820 N   0  0  0  0  0  0  0  0  0  0  0  0
   57.8936   31.5673   42.7630 H   0  0  0  0  0  0  0  0  0  0  0  0
   57.3624   33.2043   42.2485 H   0  0  0  0  0  0  0  0  0  0  0  0
   59.1092   32.7856   42.2485 H   0  0  0  0  0  0  0  0  0  0  0  0
   59.8424   34.5438   43.7245 H   0  0  0  0  0  0  0  0  0  0  0  0
   60.0344   35.3761   46.0660 H   0  0  0  0  0  0  0  0  0  0  0  0
   58.5596   34.4476   47.8486 H   0  0  0  0  0  0  0  0  0  0  0  0
   56.8983   32.6736   47.3018 H   0  0  0  0  0  0  0  0  0  0  0  0
   58.1207   28.7802   43.7396 H   0  0  0  0  0  0  0  0  0  0  0  0
   58.8311   30.4396   43.9784 H   0  0  0  0  0  0  0  0  0  0  0  0
   56.1768   23.3893   47.2505 H   0  0  0  0  0  0  0  0  0  0  0  0
   54.7612   24.0165   46.3291 H   0  0  0  0  0  0  0  0  0  0  0  0
   55.7586   24.4618   43.6457 H   0  0  0  0  0  0  0  0  0  0  0  0
   56.4131   23.0002   41.7349 H   0  0  0  0  0  0  0  0  0  0  0  0
   57.2308   20.6791   42.1555 H   0  0  0  0  0  0  0  0  0  0  0  0
   57.3924   19.8169   44.4936 H   0  0  0  0  0  0  0  0  0  0  0  0
   56.7472   21.2749   46.4128 H   0  0  0  0  0  0  0  0  0  0  0  0
  1  2  1  0
  2  3  2  0
  3  4  1  0
  4  5  2  0
  5  6  1  0
  6  7  2  0
  7  8  1  0
  8  9  1  0
  9 10  2  0
  9 11  1  0
 11 12  1  0
 12 13  1  0
 13 14  2  0
 14 15  1  0
 15 16  2  0
 15 17  1  0
 17 18  1  0
 18 19  1  0
 19 20  2  0
 20 21  1  0
 21 22  2  0
 22 23  1  0
 23 24  2  0
 17 25  2  0
 25 26  1  0
 25 27  1  0
  7  2  1  0
 27 13  1  0
 24 19  1  0
  1 28  1  0
  1 29  1  0
  1 30  1  0
  3 31  1  0
  4 32  1  0
  5 33  1  0
  6 34  1  0
 11 35  1  0
 11 36  1  0
 18 37  1  0
 18 38  1  0
 20 39  1  0
 21 40  1  0
 22 41  1  0
 23 42  1  0
 24 43  1  0
M  CHG  3   8  -1  26  -1  27  -1
M  END
>  <UniqueID>  (42) 
37

>  <SMILES>  (42) 
Cc1ccccc1[N-]C(=O)CSc1nc(=O)c(Cc2ccccc2)c([O-])[n-]1

>  <Energy>  (42) 
43.80091042857497

>  <Genealogy>  (42) 
Cc1ccccc1[N-]C(=O)CSc1nc(=O)c(Cc2ccccc2)c([O-])[n-]1 (protonated)
Cc1ccccc1[N-]C(=O)CSc1nc(=O)c(Cc2ccccc2)c([O-])[n-]1 (3D coordinates assigned)
Cc1ccccc1[N-]C(=O)CSc1nc(=O)c(Cc2ccccc2)c([O-])[n-]1 (optimized conformer: 43.80091042857497 kcal/mol)

>  <smiles>  (42) 
Cc1ccccc1NC(=O)CSc1nc(=O)c(Cc2ccccc2)c(O)[nH]1

>  <score_type>  (42) 
oracle

>  <origin>  (42) 
adg

>  <m_score__min__energy>  (42) 
-16.07

>  <m_primary>  (42) 
energy

$$$$
42:0
     RDKit          3D

 54 57  0  0  0  0  0  0  0  0999 V2000
   60.8540   29.6290   50.0800 C   0  0  0  0  0  0  0  0  0  0  0  0
   59.7570   30.4770   49.7530 O   0  0  0  0  0  0  0  0  0  0  0  0
   58.8680   31.0310   50.6850 C   0  0  0  0  0  0  0  0  0  0  0  0
   57.7680   30.3040   51.1810 C   0  0  0  0  0  0  0  0  0  0  0  0
   56.8800   30.8920   52.0850 C   0  0  0  0  0  0  0  0  0  0  0  0
   57.0800   32.2070   52.5070 C   0  0  0  0  0  0  0  0  0  0  0  0
   58.1680   32.9370   52.0280 C   0  0  0  0  0  0  0  0  0  0  0  0
   59.0730   32.3590   51.1220 C   0  0  0  0  0  0  0  0  0  0  0  0
   60.1810   33.1360   50.6310 N   0  0  0  0  0  0  0  0  0  0  0  0
   60.0150   33.9590   49.4300 C   0  0  0  0  0  0  0  0  0  0  0  0
   61.3490   34.5880   48.9810 C   0  0  0  0  0  0  0  0  0  0  0  0
   62.4990   33.6560   49.0450 N   0  0  0  0  0  0  0  0  0  0  0  0
   62.7420   32.7990   47.5380 S   0  0  0  0  0  0  0  0  0  0  0  0
   63.3920   33.7310   46.5530 O   0  0  0  0  0  0  0  0  0  0  0  0
   63.6660   31.6310   47.7520 O   0  0  0  0  0  0  0  0  0  0  0  0
   61.2190   32.2150   46.8670 C   0  0  0  0  0  0  0  0  0  0  0  0
   60.9850   30.8280   46.7430 C   0  0  0  0  0  0  0  0  0  0  0  0
   59.8100   30.3560   46.1390 C   0  0  0  0  0  0  0  0  0  0  0  0
   58.8680   31.2870   45.6850 C   0  0  0  0  0  0  0  0  0  0  0  0
   59.1090   32.6320   45.7770 C   0  0  0  0  0  0  0  0  0  0  0  0
   60.2670   33.1280   46.3790 C   0  0  0  0  0  0  0  0  0  0  0  0
   58.0380   33.4060   45.0960 C   0  0  0  0  0  0  0  0  0  0  0  0
   57.0970   32.3110   44.5450 C   0  0  0  0  0  0  0  0  0  0  0  0
   57.6560   31.0320   44.9870 N   0  0  0  0  0  0  0  0  0  0  0  0
   56.9650   29.7820   44.8270 C   0  0  0  0  0  0  0  0  0  0  0  0
   57.6980   28.4900   44.6390 C   0  0  0  0  0  0  0  0  0  0  0  0
   55.7070   29.7600   44.8790 O   0  0  0  0  0  0  0  0  0  0  0  0
   62.5460   32.7500   50.2200 C   0  0  0  0  0  0  0  0  0  0  0  0
   61.4930   33.0830   51.2780 C   0  0  0  0  0  0  0  0  0  0  0  0
   60.9480   29.5563   51.1736 H   0  0  0  0  0  0  0  0  0  0  0  0
   60.6812   28.6274   49.6595 H   0  0  0  0  0  0  0  0  0  0  0  0
   61.7798   30.0485   49.6595 H   0  0  0  0  0  0  0  0  0  0  0  0
   57.6072   29.2661   50.8542 H   0  0  0  0  0  0  0  0  0  0  0  0
   56.0221   30.3177   52.4646 H   0  0  0  0  0  0  0  0  0  0  0  0
   56.3790   32.6684   53.2181 H   0  0  0  0  0  0  0  0  0  0  0  0
   58.3186   33.9740   52.3625 H   0  0  0  0  0  0  0  0  0  0  0  0
   59.6266   33.3285   48.6167 H   0  0  0  0  0  0  0  0  0  0  0  0
   59.3143   34.7733   49.6665 H   0  0  0  0  0  0  0  0  0  0  0  0
   61.2383   34.9320   47.9420 H   0  0  0  0  0  0  0  0  0  0  0  0
   61.5651   35.4129   49.6758 H   0  0  0  0  0  0  0  0  0  0  0  0
   61.7293   30.1125   47.1227 H   0  0  0  0  0  0  0  0  0  0  0  0
   59.6324   29.2765   46.0244 H   0  0  0  0  0  0  0  0  0  0  0  0
   60.4315   34.2118   46.4698 H   0  0  0  0  0  0  0  0  0  0  0  0
   57.5095   34.0567   45.8082 H   0  0  0  0  0  0  0  0  0  0  0  0
   58.4242   34.0736   44.3117 H   0  0  0  0  0  0  0  0  0  0  0  0
   56.0817   32.4429   44.9473 H   0  0  0  0  0  0  0  0  0  0  0  0
   57.0245   32.3593   43.4485 H   0  0  0  0  0  0  0  0  0  0  0  0
   57.9418   28.0604   45.6218 H   0  0  0  0  0  0  0  0  0  0  0  0
   57.0642   27.7870   44.0785 H   0  0  0  0  0  0  0  0  0  0  0  0
   58.6266   28.6734   44.0785 H   0  0  0  0  0  0  0  0  0  0  0  0
   62.3804   31.7191   49.8738 H   0  0  0  0  0  0  0  0  0  0  0  0
   63.5329   32.8737   50.6898 H   0  0  0  0  0  0  0  0  0  0  0  0
   61.4911   32.3058   52.0564 H   0  0  0  0  0  0  0  0  0  0  0  0
   61.7218   34.0531   51.7435 H   0  0  0  0  0  0  0  0  0  0  0  0
  1  2  1  0
  2  3  1  0
  3  4  2  0
  4  5  1  0
  5  6  2  0
  6  7  1  0
  7  8  2  0
  8  9  1  0
  9 10  1  0
 10 11  1  0
 11 12  1  0
 12 13  1  0
 13 14  2  0
 13 15  2  0
 13 16  1  0
 16 17  2  0
 17 18  1  0
 18 19  2  0
 19 20  1  0
 20 21  2  0
 20 22  1  0
 22 23  1  0
 23 24  1  0
 24 25  1  0
 25 26  1  0
 25 27  2  0
 12 28  1  0
 28 29  1  0
  8  3  1  0
 29  9  1  0
 21 16  1  0
 24 19  1  0
  1 30  1  0
  1 31  1  0
  1 32  1  0
  4 33  1  0
  5 34  1  0
  6 35  1  0
  7 36  1  0
 10 37  1  0
 10 38  1  0
 11 39  1  0
 11 40  1  0
 17 41  1  0
 18 42  1  0
 21 43  1  0
 22 44  1  0
 22 45  1  0
 23 46  1  0
 23 47  1  0
 26 48  1  0
 26 49  1  0
 26 50  1  0
 28 51  1  0
 28 52  1  0
 29 53  1  0
 29 54  1  0
M  END
>  <UniqueID>  (43) 
38

>  <SMILES>  (43) 
COc1ccccc1N1CCN(S(=O)(=O)c2ccc3c(c2)CCN3C(C)=O)CC1

>  <Energy>  (43) 
81.07956750504741

>  <Genealogy>  (43) 
COc1ccccc1N1CCN(S(=O)(=O)c2ccc3c(c2)CCN3C(C)=O)CC1 (3D coordinates assigned)
COc1ccccc1N1CCN(S(=O)(=O)c2ccc3c(c2)CCN3C(C)=O)CC1 (nonaromatic ring conformer: 81.07956750504741 kcal/mol)

>  <smiles>  (43) 
COc1ccccc1N1CCN(S(=O)(=O)c2ccc3c(c2)CCN3C(C)=O)CC1

>  <score_type>  (43) 
oracle

>  <origin>  (43) 
adg

>  <m_score__min__energy>  (43) 
-8.3300000000000001

>  <m_primary>  (43) 
energy

$$$$
43:0
     RDKit          3D

 32 33  0  0  0  0  0  0  0  0999 V2000
   59.1683   26.7997   47.7404 H   0  0  0  0  0  0  0  0  0  0  0  0
   58.2770   27.0040   47.1290 C   0  0  0  0  0  0  0  0  0  0  0  0
   57.2490   26.1190   47.1140 N   0  0  0  0  0  0  0  0  0  0  0  0
   56.1370   26.3520   46.3660 C   0  0  0  0  0  0  0  0  0  0  0  0
   55.1510   25.5060   46.3490 N   0  0  0  0  0  0  0  0  0  0  0  0
   55.0950   24.3370   45.4780 C   0  0  0  0  0  0  0  0  0  0  0  0
   55.0513   23.4247   46.0911 H   0  0  0  0  0  0  0  0  0  0  0  0
   54.1986   24.3954   44.8431 H   0  0  0  0  0  0  0  0  0  0  0  0
   55.9929   24.3094   44.8431 H   0  0  0  0  0  0  0  0  0  0  0  0
   56.0530   27.4870   45.6230 N   0  0  0  0  0  0  0  0  0  0  0  0
   57.0550   28.4090   45.5980 C   0  0  0  0  0  0  0  0  0  0  0  0
   56.9130   29.5990   44.7810 N   0  0  0  0  0  0  0  0  0  0  0  0
   55.5900   30.0650   44.3480 C   0  0  0  0  0  0  0  0  0  0  0  0
   54.9710   30.2830   45.2308 H   0  0  0  0  0  0  0  0  0  0  0  0
   55.7022   30.9777   43.7444 H   0  0  0  0  0  0  0  0  0  0  0  0
   55.1054   29.2835   43.7444 H   0  0  0  0  0  0  0  0  0  0  0  0
   58.1090   30.3590   44.3830 C   0  0  0  0  0  0  0  0  0  0  0  0
   59.0086   29.8097   44.6978 H   0  0  0  0  0  0  0  0  0  0  0  0
   58.1047   30.4836   43.2901 H   0  0  0  0  0  0  0  0  0  0  0  0
   58.1070   31.7210   45.0300 C   0  0  0  0  0  0  0  0  0  0  0  0
   58.1460   31.8220   46.4320 C   0  0  0  0  0  0  0  0  0  0  0  0
   58.1664   30.9094   47.0458 H   0  0  0  0  0  0  0  0  0  0  0  0
   58.1590   33.0760   47.0500 C   0  0  0  0  0  0  0  0  0  0  0  0
   58.1905   33.1472   48.1472 H   0  0  0  0  0  0  0  0  0  0  0  0
   58.1320   34.2390   46.2760 C   0  0  0  0  0  0  0  0  0  0  0  0
   58.1446   35.2248   46.7640 H   0  0  0  0  0  0  0  0  0  0  0  0
   58.0890   34.1500   44.8830 C   0  0  0  0  0  0  0  0  0  0  0  0
   58.0653   35.0670   44.2759 H   0  0  0  0  0  0  0  0  0  0  0  0
   58.0760   32.8980   44.2560 C   0  0  0  0  0  0  0  0  0  0  0  0
   58.0300   32.8410   42.9010 F   0  0  0  0  0  0  0  0  0  0  0  0
   58.2060   28.1720   46.3710 C   0  0  0  0  0  0  0  0  0  0  0  0
   59.0350   28.8950   46.3773 H   0  0  0  0  0  0  0  0  0  0  0  0
  1  2  1  0
  2  3  1  0
  3  4  1  0
  4  5  2  0
  5  6  1  0
  6  7  1  0
  6  8  1  0
  6  9  1  0
  4 10  1  0
 10 11  2  0
 11 12  1  0
 12 13  1  0
 13 14  1  0
 13 15  1  0
 13 16  1  0
 12 17  1  0
 17 18  1  0
 17 19  1  0
 17 20  1  0
 20 21  2  0
 21 22  1  0
 21 23  1  0
 23 24  1  0
 23 25  2  0
 25 26  1  0
 25 27  1  0
 27 28  1  0
 27 29  2  0
 29 30  1  0
 11 31  1  0
 31 32  1  0
 31  2  2  0
 29 20  1  0
M  CHG  1   3  -1
M  END
>  <UniqueID>  (44) 
39

>  <SMILES>  (44) 
C/N=c1/nc(N(C)Cc2ccccc2F)cc[n-]1

>  <Energy>  (44) 
31.480852700055898

>  <Genealogy>  (44) 
CN=c1nc(N(C)Cc2ccccc2F)cc[n-]1 (protonated)
C/N=c1/nc(N(C)Cc2ccccc2F)cc[n-]1 (cis-trans isomerization)
C/N=c1/nc(N(C)Cc2ccccc2F)cc[n-]1 (3D coordinates assigned)
C/N=c1/nc(N(C)Cc2ccccc2F)cc[n-]1 (optimized conformer: 31.480852700055898 kcal/mol)

>  <smiles>  (44) 
CN=c1nc(N(C)Cc2ccccc2F)cc[nH]1

>  <score_type>  (44) 
oracle

>  <origin>  (44) 
adg

>  <m_score__min__energy>  (44) 
-7.9800000000000004

>  <m_primary>  (44) 
energy

$$$$
44:0
     RDKit          3D

 39 41  0  0  0  0  0  0  0  0999 V2000
   63.3720   34.3750   51.4170 C   0  0  0  0  0  0  0  0  0  0  0  0
   63.3630   34.5860   50.0090 O   0  0  0  0  0  0  0  0  0  0  0  0
   62.5060   33.9310   49.1100 C   0  0  0  0  0  0  0  0  0  0  0  0
   61.1900   34.3660   48.8790 C   0  0  0  0  0  0  0  0  0  0  0  0
   60.3550   33.6730   47.9910 C   0  0  0  0  0  0  0  0  0  0  0  0
   59.0910   34.1780   47.6870 C   0  0  0  0  0  0  0  0  0  0  0  0
   58.3150   33.5380   46.7810 N   0  0  0  0  0  0  0  0  0  0  0  0
   58.6960   32.3910   46.2240 N   0  0  0  0  0  0  0  0  0  0  0  0
   59.8800   31.7910   46.5160 C   0  0  0  0  0  0  0  0  0  0  0  0
   60.0640   30.5880   46.0320 N   0  0  0  0  0  0  0  0  0  0  0  0
   59.1930   29.4500   46.0490 C   0  0  0  0  0  0  0  0  0  0  0  0
   58.0250   29.4640   45.2780 C   0  0  0  0  0  0  0  0  0  0  0  0
   57.1700   28.3570   45.2760 C   0  0  0  0  0  0  0  0  0  0  0  0
   57.4620   27.2400   46.0720 C   0  0  0  0  0  0  0  0  0  0  0  0
   56.4210   25.8220   46.0370 S   0  0  0  0  0  0  0  0  0  0  0  0
   54.7670   26.3240   46.0120 N   0  0  0  0  0  0  0  0  0  0  0  0
   56.6650   24.9680   47.2500 O   0  0  0  0  0  0  0  0  0  0  0  0
   56.7170   25.0090   44.8070 O   0  0  0  0  0  0  0  0  0  0  0  0
   58.6090   27.2430   46.8770 C   0  0  0  0  0  0  0  0  0  0  0  0
   59.4640   28.3490   46.8770 C   0  0  0  0  0  0  0  0  0  0  0  0
   60.8020   32.4880   47.3590 C   0  0  0  0  0  0  0  0  0  0  0  0
   62.1610   32.1350   47.5120 C   0  0  0  0  0  0  0  0  0  0  0  0
   62.9980   32.8230   48.4110 C   0  0  0  0  0  0  0  0  0  0  0  0
   64.3320   32.4360   48.6290 O   0  0  0  0  0  0  0  0  0  0  0  0
   64.8510   31.9890   49.8780 C   0  0  0  0  0  0  0  0  0  0  0  0
   63.3306   35.3453   51.9334 H   0  0  0  0  0  0  0  0  0  0  0  0
   62.4989   33.7700   51.7027 H   0  0  0  0  0  0  0  0  0  0  0  0
   64.2935   33.8466   51.7027 H   0  0  0  0  0  0  0  0  0  0  0  0
   60.8115   35.2581   49.3994 H   0  0  0  0  0  0  0  0  0  0  0  0
   58.7267   35.0911   48.1806 H   0  0  0  0  0  0  0  0  0  0  0  0
   57.7787   30.3482   44.6718 H   0  0  0  0  0  0  0  0  0  0  0  0
   56.2665   28.3626   44.6486 H   0  0  0  0  0  0  0  0  0  0  0  0
   54.6710   27.0910   46.7150 H   0  0  0  0  0  0  0  0  0  0  0  0
   58.8371   26.3731   47.5104 H   0  0  0  0  0  0  0  0  0  0  0  0
   60.3512   28.3567   47.5273 H   0  0  0  0  0  0  0  0  0  0  0  0
   62.5734   31.3066   46.9173 H   0  0  0  0  0  0  0  0  0  0  0  0
   64.2956   32.4674   50.6982 H   0  0  0  0  0  0  0  0  0  0  0  0
   64.7430   30.8967   49.9502 H   0  0  0  0  0  0  0  0  0  0  0  0
   65.9152   32.2578   49.9502 H   0  0  0  0  0  0  0  0  0  0  0  0
  1  2  1  0
  2  3  1  0
  3  4  2  0
  4  5  1  0
  5  6  1  0
  6  7  2  0
  7  8  1  0
  8  9  1  0
  9 10  2  3
 10 11  1  0
 11 12  2  0
 12 13  1  0
 13 14  2  0
 14 15  1  0
 15 16  1  0
 15 17  2  0
 15 18  2  0
 14 19  1  0
 19 20  2  0
  9 21  1  0
 21 22  1  0
 22 23  2  0
 23 24  1  0
 24 25  1  0
 23  3  1  0
 21  5  2  0
 20 11  1  0
  1 26  1  0
  1 27  1  0
  1 28  1  0
  4 29  1  0
  6 30  1  0
 12 31  1  0
 13 32  1  0
 16 33  1  0
 19 34  1  0
 20 35  1  0
 22 36  1  0
 25 37  1  0
 25 38  1  0
 25 39  1  0
M  CHG  2   8  -1  16  -1
M  END
>  <UniqueID>  (45) 
40

>  <SMILES>  (45) 
COc1cc2cn[n-]c(=Nc3ccc(S([NH-])(=O)=O)cc3)c2cc1OC

>  <Energy>  (45) 
63.85332154429678

>  <Genealogy>  (45) 
COc1cc2cn[n-]c(=Nc3ccc(S([NH-])(=O)=O)cc3)c2cc1OC (protonated)
COc1cc2cn[n-]c(=Nc3ccc(S([NH-])(=O)=O)cc3)c2cc1OC (3D coordinates assigned)
COc1cc2cn[n-]c(=Nc3ccc(S([NH-])(=O)=O)cc3)c2cc1OC (optimized conformer: 63.85332154429678 kcal/mol)

>  <smiles>  (45) 
COc1cc2cn[nH]c(=Nc3ccc(S(N)(=O)=O)cc3)c2cc1OC

>  <score_type>  (45) 
oracle

>  <origin>  (45) 
adg

>  <m_score__min__energy>  (45) 
-11.02

>  <m_primary>  (45) 
energy

$$$$
45:0
     RDKit          3D

 39 41  0  0  0  0  0  0  0  0999 V2000
   64.1460   32.5650   48.4820 N   0  0  0  0  0  0  0  0  0  0  0  0
   62.8830   33.5300   47.8050 S   0  0  0  0  0  0  0  0  0  0  0  0
   63.3850   34.2210   46.5680 O   0  0  0  0  0  0  0  0  0  0  0  0
   62.4650   34.5740   48.8030 O   0  0  0  0  0  0  0  0  0  0  0  0
   61.5110   32.5040   47.3990 C   0  0  0  0  0  0  0  0  0  0  0  0
   61.6870   31.1220   47.2550 C   0  0  0  0  0  0  0  0  0  0  0  0
   60.5970   30.3030   46.9460 C   0  0  0  0  0  0  0  0  0  0  0  0
   59.3200   30.8610   46.7650 C   0  0  0  0  0  0  0  0  0  0  0  0
   58.1760   30.0450   46.4790 N   0  0  0  0  0  0  0  0  0  0  0  0
   57.3110   30.1610   45.3410 C   0  0  0  0  0  0  0  0  0  0  0  0
   57.2780   31.2530   44.7140 O   0  0  0  0  0  0  0  0  0  0  0  0
   56.4800   29.0050   44.8540 C   0  0  0  0  0  0  0  0  0  0  0  0
   56.9520   27.7210   45.4660 C   0  0  0  0  0  0  0  0  0  0  0  0
   58.2480   27.3550   45.5400 N   0  0  0  0  0  0  0  0  0  0  0  0
   58.2010   26.1220   46.0920 C   0  0  0  0  0  0  0  0  0  0  0  0
   59.2370   25.4530   46.3490 O   0  0  0  0  0  0  0  0  0  0  0  0
   56.9460   25.6910   46.3580 N   0  0  0  0  0  0  0  0  0  0  0  0
   56.5380   24.4350   46.9290 C   0  0  0  0  0  0  0  0  0  0  0  0
   55.6580   23.5860   46.2330 C   0  0  0  0  0  0  0  0  0  0  0  0
   55.2620   22.3660   46.7920 C   0  0  0  0  0  0  0  0  0  0  0  0
   55.7390   21.9830   48.0470 C   0  0  0  0  0  0  0  0  0  0  0  0
   56.6130   22.8180   48.7480 C   0  0  0  0  0  0  0  0  0  0  0  0
   57.0110   24.0390   48.1930 C   0  0  0  0  0  0  0  0  0  0  0  0
   56.1610   26.7050   45.9530 C   0  0  0  0  0  0  0  0  0  0  0  0
   54.7700   26.6990   45.9900 O   0  0  0  0  0  0  0  0  0  0  0  0
   59.1430   32.2380   46.9460 C   0  0  0  0  0  0  0  0  0  0  0  0
   60.2320   33.0570   47.2550 C   0  0  0  0  0  0  0  0  0  0  0  0
   64.5220   31.9700   47.7100 H   0  0  0  0  0  0  0  0  0  0  0  0
   62.6857   30.6798   47.3854 H   0  0  0  0  0  0  0  0  0  0  0  0
   60.7395   29.2170   46.8441 H   0  0  0  0  0  0  0  0  0  0  0  0
   55.4290   29.1730   45.1318 H   0  0  0  0  0  0  0  0  0  0  0  0
   56.5780   28.9337   43.7607 H   0  0  0  0  0  0  0  0  0  0  0  0
   55.2792   23.8830   45.2439 H   0  0  0  0  0  0  0  0  0  0  0  0
   54.5737   21.7075   46.2418 H   0  0  0  0  0  0  0  0  0  0  0  0
   55.4266   21.0232   48.4843 H   0  0  0  0  0  0  0  0  0  0  0  0
   56.9883   22.5152   49.7367 H   0  0  0  0  0  0  0  0  0  0  0  0
   57.6984   24.6936   48.7488 H   0  0  0  0  0  0  0  0  0  0  0  0
   58.1400   32.6780   46.8443 H   0  0  0  0  0  0  0  0  0  0  0  0
   60.0846   34.1392   47.3856 H   0  0  0  0  0  0  0  0  0  0  0  0
  1  2  1  0
  2  3  2  0
  2  4  2  0
  2  5  1  0
  5  6  2  0
  6  7  1  0
  7  8  2  0
  8  9  1  0
  9 10  1  0
 10 11  2  0
 10 12  1  0
 12 13  1  0
 13 14  1  0
 14 15  1  0
 15 16  2  0
 15 17  1  0
 17 18  1  0
 18 19  2  0
 19 20  1  0
 20 21  2  0
 21 22  1  0
 22 23  2  0
 17 24  1  0
 24 25  1  0
  8 26  1  0
 26 27  2  0
 27  5  1  0
 24 13  2  0
 23 18  1  0
  1 28  1  0
  6 29  1  0
  7 30  1  0
 12 31  1  0
 12 32  1  0
 19 33  1  0
 20 34  1  0
 21 35  1  0
 22 36  1  0
 23 37  1  0
 26 38  1  0
 27 39  1  0
M  CHG  4   1  -1   9  -1  14  -1  25  -1
M  END
>  <UniqueID>  (46) 
41

>  <SMILES>  (46) 
[NH-]S(=O)(=O)c1ccc([N-]C(=O)Cc2[n-]c(=O)n(-c3ccccc3)c2[O-])cc1

>  <Energy>  (46) 
82.61125427148907

>  <Genealogy>  (46) 
[NH-]S(=O)(=O)c1ccc([N-]C(=O)Cc2[n-]c(=O)n(-c3ccccc3)c2[O-])cc1 (protonated)
[NH-]S(=O)(=O)c1ccc([N-]C(=O)Cc2[n-]c(=O)n(-c3ccccc3)c2[O-])cc1 (3D coordinates assigned)
[NH-]S(=O)(=O)c1ccc([N-]C(=O)Cc2[n-]c(=O)n(-c3ccccc3)c2[O-])cc1 (optimized conformer: 82.61125427148907 kcal/mol)

>  <smiles>  (46) 
NS(=O)(=O)c1ccc(NC(=O)Cc2[nH]c(=O)n(-c3ccccc3)c2O)cc1

>  <score_type>  (46) 
oracle

>  <origin>  (46) 
adg

>  <m_score__min__energy>  (46) 
-14.119999999999999

>  <m_primary>  (46) 
energy

$$$$
46:0
     RDKit          3D

 39 41  0  0  0  0  0  0  0  0999 V2000
   60.7310   28.8140   46.7510 O   0  0  0  0  0  0  0  0  0  0  0  0
   59.7790   29.6390   46.6830 C   0  0  0  0  0  0  0  0  0  0  0  0
   58.4270   29.1640   46.6050 N   0  0  0  0  0  0  0  0  0  0  0  0
   58.0420   27.9120   46.0080 C   0  0  0  0  0  0  0  0  0  0  0  0
   58.5870   27.4770   44.7880 C   0  0  0  0  0  0  0  0  0  0  0  0
   58.1410   26.2810   44.2200 C   0  0  0  0  0  0  0  0  0  0  0  0
   57.1800   25.5480   44.8410 N   0  0  0  0  0  0  0  0  0  0  0  0
   56.6250   25.9490   46.0160 C   0  0  0  0  0  0  0  0  0  0  0  0
   55.7340   25.2450   46.5580 O   0  0  0  0  0  0  0  0  0  0  0  0
   57.0400   27.1420   46.6150 C   0  0  0  0  0  0  0  0  0  0  0  0
   60.0660   31.0910   46.7600 C   0  0  0  0  0  0  0  0  0  0  0  0
   61.3620   31.5130   47.1060 C   0  0  0  0  0  0  0  0  0  0  0  0
   61.6650   32.8770   47.2520 C   0  0  0  0  0  0  0  0  0  0  0  0
   63.0450   33.3100   47.6800 C   0  0  0  0  0  0  0  0  0  0  0  0
   63.7830   32.2220   48.1140 F   0  0  0  0  0  0  0  0  0  0  0  0
   63.7230   33.9010   46.6290 F   0  0  0  0  0  0  0  0  0  0  0  0
   62.9350   34.2220   48.7140 F   0  0  0  0  0  0  0  0  0  0  0  0
   60.6400   33.8230   47.1000 C   0  0  0  0  0  0  0  0  0  0  0  0
   59.3540   33.4180   46.7390 C   0  0  0  0  0  0  0  0  0  0  0  0
   59.0630   32.0670   46.5320 C   0  0  0  0  0  0  0  0  0  0  0  0
   57.7700   31.7280   46.1110 O   0  0  0  0  0  0  0  0  0  0  0  0
   57.4080   31.4620   44.7810 C   0  0  0  0  0  0  0  0  0  0  0  0
   57.8530   32.2600   43.7090 C   0  0  0  0  0  0  0  0  0  0  0  0
   57.4800   31.9470   42.3980 C   0  0  0  0  0  0  0  0  0  0  0  0
   56.6590   30.8450   42.1460 C   0  0  0  0  0  0  0  0  0  0  0  0
   56.2010   30.0590   43.2080 C   0  0  0  0  0  0  0  0  0  0  0  0
   56.5680   30.3720   44.5200 C   0  0  0  0  0  0  0  0  0  0  0  0
   57.6770   29.7640   47.0190 H   0  0  0  0  0  0  0  0  0  0  0  0
   59.3603   28.0746   44.2831 H   0  0  0  0  0  0  0  0  0  0  0  0
   58.5685   25.9321   43.2684 H   0  0  0  0  0  0  0  0  0  0  0  0
   56.5824   27.4750   47.5583 H   0  0  0  0  0  0  0  0  0  0  0  0
   62.1510   30.7632   47.2649 H   0  0  0  0  0  0  0  0  0  0  0  0
   60.8511   34.8897   47.2662 H   0  0  0  0  0  0  0  0  0  0  0  0
   58.5610   34.1704   46.6161 H   0  0  0  0  0  0  0  0  0  0  0  0
   58.4954   33.1315   43.9035 H   0  0  0  0  0  0  0  0  0  0  0  0
   57.8338   32.5699   41.5633 H   0  0  0  0  0  0  0  0  0  0  0  0
   56.3732   30.5959   41.1134 H   0  0  0  0  0  0  0  0  0  0  0  0
   55.5513   29.1936   43.0108 H   0  0  0  0  0  0  0  0  0  0  0  0
   56.1946   29.7582   45.3530 H   0  0  0  0  0  0  0  0  0  0  0  0
  1  2  2  0
  2  3  1  0
  3  4  1  0
  4  5  1  0
  5  6  2  0
  6  7  1  0
  7  8  1  0
  8  9  2  0
  8 10  1  0
  2 11  1  0
 11 12  2  0
 12 13  1  0
 13 14  1  0
 14 15  1  0
 14 16  1  0
 14 17  1  0
 13 18  2  0
 18 19  1  0
 19 20  2  0
 20 21  1  0
 21 22  1  0
 22 23  2  0
 23 24  1  0
 24 25  2  0
 25 26  1  0
 26 27  2  0
 10  4  2  0
 20 11  1  0
 27 22  1  0
  3 28  1  0
  5 29  1  0
  6 30  1  0
 10 31  1  0
 12 32  1  0
 18 33  1  0
 19 34  1  0
 23 35  1  0
 24 36  1  0
 25 37  1  0
 26 38  1  0
 27 39  1  0
M  CHG  1   7  -1
M  END
>  <UniqueID>  (47) 
42

>  <SMILES>  (47) 
O=C(Nc1cc[n-]c(=O)c1)c1cc(C(F)(F)F)ccc1Oc1ccccc1

>  <Energy>  (47) 
55.601052550879494

>  <Genealogy>  (47) 
O=C(Nc1cc[n-]c(=O)c1)c1cc(C(F)(F)F)ccc1Oc1ccccc1 (protonated)
O=C(Nc1cc[n-]c(=O)c1)c1cc(C(F)(F)F)ccc1Oc1ccccc1 (3D coordinates assigned)
O=C(Nc1cc[n-]c(=O)c1)c1cc(C(F)(F)F)ccc1Oc1ccccc1 (optimized conformer: 55.601052550879494 kcal/mol)

>  <smiles>  (47) 
O=C(Nc1cc[nH]c(=O)c1)c1cc(C(F)(F)F)ccc1Oc1ccccc1

>  <score_type>  (47) 
oracle

>  <origin>  (47) 
adg

>  <m_score__min__energy>  (47) 
-9.0999999999999996

>  <m_primary>  (47) 
energy

$$$$
47:0
     RDKit          3D

 38 41  0  0  0  0  0  0  0  0999 V2000
   56.1950   29.2040   44.9360 O   0  0  0  0  0  0  0  0  0  0  0  0
   57.3880   29.5900   45.1890 C   0  0  0  0  0  0  0  0  0  0  0  0
   58.3120   28.5550   45.4920 N   0  0  0  0  0  0  0  0  0  0  0  0
   57.7970   27.2190   45.4760 C   0  0  0  0  0  0  0  0  0  0  0  0
   57.2410   26.7260   46.6430 C   0  0  0  0  0  0  0  0  0  0  0  0
   56.7400   25.4850   46.7020 N   0  0  0  0  0  0  0  0  0  0  0  0
   56.7850   24.7150   45.5990 C   0  0  0  0  0  0  0  0  0  0  0  0
   56.3460   23.4410   45.4150 N   0  0  0  0  0  0  0  0  0  0  0  0
   56.6060   23.0800   44.1330 C   0  0  0  0  0  0  0  0  0  0  0  0
   56.3080   21.8040   43.5020 C   0  0  0  0  0  0  0  0  0  0  0  0
   56.0290   21.7200   42.2600 O   0  0  0  0  0  0  0  0  0  0  0  0
   56.3250   20.6490   44.2710 O   0  0  0  0  0  0  0  0  0  0  0  0
   57.2180   24.1410   43.4980 C   0  0  0  0  0  0  0  0  0  0  0  0
   57.3350   25.1750   44.4110 C   0  0  0  0  0  0  0  0  0  0  0  0
   57.8640   26.4560   44.3130 C   0  0  0  0  0  0  0  0  0  0  0  0
   57.7580   31.0010   45.1640 C   0  0  0  0  0  0  0  0  0  0  0  0
   57.4500   31.8460   44.1200 C   0  0  0  0  0  0  0  0  0  0  0  0
   57.8490   33.1630   44.1980 C   0  0  0  0  0  0  0  0  0  0  0  0
   58.5440   33.6540   45.2840 C   0  0  0  0  0  0  0  0  0  0  0  0
   58.9400   34.9700   45.3560 C   0  0  0  0  0  0  0  0  0  0  0  0
   59.6320   35.4370   46.4500 C   0  0  0  0  0  0  0  0  0  0  0  0
   59.9620   34.6090   47.5260 C   0  0  0  0  0  0  0  0  0  0  0  0
   59.5550   33.2730   47.4440 C   0  0  0  0  0  0  0  0  0  0  0  0
   58.8620   32.8170   46.3410 C   0  0  0  0  0  0  0  0  0  0  0  0
   58.4520   31.5040   46.2410 C   0  0  0  0  0  0  0  0  0  0  0  0
   59.3040   28.7820   45.7090 H   0  0  0  0  0  0  0  0  0  0  0  0
   57.2098   27.3644   47.5383 H   0  0  0  0  0  0  0  0  0  0  0  0
   55.8890   22.8620   46.1580 H   0  0  0  0  0  0  0  0  0  0  0  0
   57.0120   19.9010   44.1200 H   0  0  0  0  0  0  0  0  0  0  0  0
   57.5538   24.1617   42.4507 H   0  0  0  0  0  0  0  0  0  0  0  0
   58.3050   26.8407   43.3816 H   0  0  0  0  0  0  0  0  0  0  0  0
   56.8975   31.4774   43.2431 H   0  0  0  0  0  0  0  0  0  0  0  0
   57.6058   33.8436   43.3688 H   0  0  0  0  0  0  0  0  0  0  0  0
   58.7008   35.6561   44.5301 H   0  0  0  0  0  0  0  0  0  0  0  0
   59.9345   36.4942   46.4782 H   0  0  0  0  0  0  0  0  0  0  0  0
   60.5159   34.9898   48.3968 H   0  0  0  0  0  0  0  0  0  0  0  0
   59.7893   32.5801   48.2656 H   0  0  0  0  0  0  0  0  0  0  0  0
   58.6931   30.8204   47.0684 H   0  0  0  0  0  0  0  0  0  0  0  0
  1  2  2  0
  2  3  1  0
  3  4  1  0
  4  5  2  0
  5  6  1  0
  6  7  2  0
  7  8  1  0
  8  9  1  0
  9 10  1  0
 10 11  2  0
 10 12  1  0
  9 13  2  0
 13 14  1  0
 14 15  2  0
  2 16  1  0
 16 17  2  0
 17 18  1  0
 18 19  2  0
 19 20  1  0
 20 21  2  0
 21 22  1  0
 22 23  2  0
 23 24  1  0
 24 25  2  0
 15  4  1  0
 25 16  1  0
 14  7  1  0
 24 19  1  0
  3 26  1  0
  5 27  1  0
  8 28  1  0
 12 29  1  0
 13 30  1  0
 15 31  1  0
 17 32  1  0
 18 33  1  0
 20 34  1  0
 21 35  1  0
 22 36  1  0
 23 37  1  0
 25 38  1  0
M  END
>  <smiles>  (48) 
O=C(Nc1cnc2[nH]c(C(=O)O)cc2c1)c1ccc2ccccc2c1

>  <score_type>  (48) 
oracle

>  <origin>  (48) 
adg

>  <m_score__min__energy>  (48) 
-9.5500000000000007

>  <m_primary>  (48) 
energy

$$$$
48:0
     RDKit          3D

 40 41  0  0  0  0  0  0  0  0999 V2000
   56.0550   24.2520   44.8890 C   0  0  0  0  0  0  0  0  0  0  0  0
   56.4340   25.7340   45.8010 S   0  0  0  0  0  0  0  0  0  0  0  0
   55.1750   26.5330   45.9790 O   0  0  0  0  0  0  0  0  0  0  0  0
   56.9650   25.3510   47.1530 O   0  0  0  0  0  0  0  0  0  0  0  0
   57.6620   26.7310   44.9600 C   0  0  0  0  0  0  0  0  0  0  0  0
   58.2120   27.8100   45.8670 C   0  0  0  0  0  0  0  0  0  0  0  0
   59.1220   27.4250   46.8670 C   0  0  0  0  0  0  0  0  0  0  0  0
   59.6420   28.3570   47.7630 C   0  0  0  0  0  0  0  0  0  0  0  0
   59.2740   29.7080   47.6770 C   0  0  0  0  0  0  0  0  0  0  0  0
   59.7970   30.6980   48.5830 N   0  0  0  0  0  0  0  0  0  0  0  0
   59.1090   31.9410   48.9410 C   0  0  0  0  0  0  0  0  0  0  0  0
   59.1390   32.9150   47.7930 C   0  0  0  0  0  0  0  0  0  0  0  0
   60.3310   33.5700   47.4410 C   0  0  0  0  0  0  0  0  0  0  0  0
   60.3500   34.4770   46.3770 C   0  0  0  0  0  0  0  0  0  0  0  0
   59.1780   34.7420   45.6610 C   0  0  0  0  0  0  0  0  0  0  0  0
   57.9860   34.1040   46.0130 C   0  0  0  0  0  0  0  0  0  0  0  0
   56.8500   34.3650   45.3210 F   0  0  0  0  0  0  0  0  0  0  0  0
   57.9630   33.1960   47.0760 C   0  0  0  0  0  0  0  0  0  0  0  0
   58.3740   30.1030   46.6780 C   0  0  0  0  0  0  0  0  0  0  0  0
   57.8390   29.1770   45.7660 C   0  0  0  0  0  0  0  0  0  0  0  0
   56.7650   29.7800   44.4900 S   0  0  0  0  0  0  0  0  0  0  0  0
   55.1330   29.3420   44.8530 N   0  0  0  0  0  0  0  0  0  0  0  0
   57.1390   29.1800   43.1630 O   0  0  0  0  0  0  0  0  0  0  0  0
   56.8770   31.2740   44.3840 O   0  0  0  0  0  0  0  0  0  0  0  0
   55.8454   23.4324   45.5920 H   0  0  0  0  0  0  0  0  0  0  0  0
   55.1726   24.4267   44.2558 H   0  0  0  0  0  0  0  0  0  0  0  0
   56.9129   23.9816   44.2558 H   0  0  0  0  0  0  0  0  0  0  0  0
   58.4881   26.0818   44.6342 H   0  0  0  0  0  0  0  0  0  0  0  0
   57.1826   27.2155   44.0966 H   0  0  0  0  0  0  0  0  0  0  0  0
   59.4284   26.3713   46.9434 H   0  0  0  0  0  0  0  0  0  0  0  0
   60.3458   28.0311   48.5430 H   0  0  0  0  0  0  0  0  0  0  0  0
   60.7070   30.5070   49.0600 H   0  0  0  0  0  0  0  0  0  0  0  0
   58.0630   31.7145   49.1953 H   0  0  0  0  0  0  0  0  0  0  0  0
   59.6216   32.3937   49.8026 H   0  0  0  0  0  0  0  0  0  0  0  0
   61.2536   33.3684   48.0050 H   0  0  0  0  0  0  0  0  0  0  0  0
   61.2876   34.9827   46.1027 H   0  0  0  0  0  0  0  0  0  0  0  0
   59.1948   35.4523   44.8213 H   0  0  0  0  0  0  0  0  0  0  0  0
   57.0210   32.6996   47.3523 H   0  0  0  0  0  0  0  0  0  0  0  0
   58.0800   31.1605   46.6061 H   0  0  0  0  0  0  0  0  0  0  0  0
   55.1700   28.6420   45.6280 H   0  0  0  0  0  0  0  0  0  0  0  0
  1  2  1  0
  2  3  2  0
  2  4  2  0
  2  5  1  0
  5  6  1  0
  6  7  2  0
  7  8  1  0
  8  9  2  0
  9 10  1  0
 10 11  1  0
 11 12  1  0
 12 13  2  0
 13 14  1  0
 14 15  2  0
 15 16  1  0
 16 17  1  0
 16 18  2  0
  9 19  1  0
 19 20  2  0
 20 21  1  0
 21 22  1  0
 21 23  2  0
 21 24  2  0
 20  6  1  0
 18 12  1  0
  1 25  1  0
  1 26  1  0
  1 27  1  0
  5 28  1  0
  5 29  1  0
  7 30  1  0
  8 31  1  0
 10 32  1  0
 11 33  1  0
 11 34  1  0
 13 35  1  0
 14 36  1  0
 15 37  1  0
 18 38  1  0
 19 39  1  0
 22 40  1  0
M  CHG  1  22  -1
M  END
>  <UniqueID>  (49) 
43

>  <SMILES>  (49) 
CS(=O)(=O)Cc1ccc(NCc2cccc(F)c2)cc1S([NH-])(=O)=O

>  <Energy>  (49) 
34.52117551582229

>  <Genealogy>  (49) 
CS(=O)(=O)Cc1ccc(NCc2cccc(F)c2)cc1S([NH-])(=O)=O (protonated)
CS(=O)(=O)Cc1ccc(NCc2cccc(F)c2)cc1S([NH-])(=O)=O (3D coordinates assigned)
CS(=O)(=O)Cc1ccc(NCc2cccc(F)c2)cc1S([NH-])(=O)=O (optimized conformer: 34.52117551582229 kcal/mol)

>  <smiles>  (49) 
CS(=O)(=O)Cc1ccc(NCc2cccc(F)c2)cc1S(N)(=O)=O

>  <score_type>  (49) 
oracle

>  <origin>  (49) 
adg

>  <m_score__min__energy>  (49) 
-11.81

>  <m_primary>  (49) 
energy

$$$$
49:0
     RDKit          3D

 18 18  0  0  0  0  0  0  0  0999 V2000
   56.5510   29.8450   42.6230 C   0  0  0  0  0  0  0  0  0  0  0  0
   56.4930   29.8530   44.4000 S   0  0  0  0  0  0  0  0  0  0  0  0
   55.1530   29.3530   44.8620 O   0  0  0  0  0  0  0  0  0  0  0  0
   56.6850   31.2560   44.9030 O   0  0  0  0  0  0  0  0  0  0  0  0
   57.7660   28.8140   45.0320 C   0  0  0  0  0  0  0  0  0  0  0  0
   59.1090   29.0730   44.7210 C   0  0  0  0  0  0  0  0  0  0  0  0
   60.1180   28.2380   45.2120 C   0  0  0  0  0  0  0  0  0  0  0  0
   59.7910   27.1390   46.0110 C   0  0  0  0  0  0  0  0  0  0  0  0
   60.7710   26.3300   46.4860 F   0  0  0  0  0  0  0  0  0  0  0  0
   58.4530   26.8710   46.3170 C   0  0  0  0  0  0  0  0  0  0  0  0
   57.4420   27.7040   45.8270 C   0  0  0  0  0  0  0  0  0  0  0  0
   57.5898   29.7017   42.2907 H   0  0  0  0  0  0  0  0  0  0  0  0
   55.9268   29.0245   42.2395 H   0  0  0  0  0  0  0  0  0  0  0  0
   56.1723   30.8039   42.2395 H   0  0  0  0  0  0  0  0  0  0  0  0
   59.3694   29.9351   44.0893 H   0  0  0  0  0  0  0  0  0  0  0  0
   61.1703   28.4466   44.9689 H   0  0  0  0  0  0  0  0  0  0  0  0
   58.1955   26.0043   46.9436 H   0  0  0  0  0  0  0  0  0  0  0  0
   56.3900   27.4884   46.0655 H   0  0  0  0  0  0  0  0  0  0  0  0
  1  2  1  0
  2  3  2  0
  2  4  2  0
  2  5  1  0
  5  6  2  0
  6  7  1  0
  7  8  2  0
  8  9  1  0
  8 10  1  0
 10 11  2  0
 11  5  1  0
  1 12  1  0
  1 13  1  0
  1 14  1  0
  6 15  1  0
  7 16  1  0
 10 17  1  0
 11 18  1  0
M  END
>  <UniqueID>  (50) 
44

>  <SMILES>  (50) 
CS(=O)(=O)c1ccc(F)cc1

>  <Energy>  (50) 
13.758127684095433

>  <Genealogy>  (50) 
CS(=O)(=O)c1ccc(F)cc1 (3D coordinates assigned)
CS(=O)(=O)c1ccc(F)cc1 (optimized conformer: 13.758127684095433 kcal/mol)

>  <smiles>  (50) 
CS(=O)(=O)c1ccc(F)cc1

>  <score_type>  (50) 
oracle

>  <origin>  (50) 
adg

>  <m_score__min__energy>  (50) 
-5.3499999999999996

>  <m_primary>  (50) 
energy

$$$$
50:0
     RDKit          3D

 27 28  0  0  0  0  0  0  0  0999 V2000
   54.1810   25.1090   45.6260 C   0  0  0  0  0  0  0  0  0  0  0  0
   54.8890   26.3360   45.9680 N   0  0  0  0  0  0  0  0  0  0  0  0
   56.2940   26.4240   46.2370 C   0  0  0  0  0  0  0  0  0  0  0  0
   56.8120   25.5930   47.0290 O   0  0  0  0  0  0  0  0  0  0  0  0
   57.1450   27.4760   45.6470 C   0  0  0  0  0  0  0  0  0  0  0  0
   58.4520   27.1910   45.2210 C   0  0  0  0  0  0  0  0  0  0  0  0
   59.2550   28.2010   44.6880 C   0  0  0  0  0  0  0  0  0  0  0  0
   58.7650   29.5040   44.5790 C   0  0  0  0  0  0  0  0  0  0  0  0
   57.4580   29.8060   45.0030 C   0  0  0  0  0  0  0  0  0  0  0  0
   56.9380   31.1060   44.9340 O   0  0  0  0  0  0  0  0  0  0  0  0
   57.6570   32.2840   45.1850 C   0  0  0  0  0  0  0  0  0  0  0  0
   58.1960   33.0740   44.1590 C   0  0  0  0  0  0  0  0  0  0  0  0
   58.8670   34.2160   44.4640 N   0  0  0  0  0  0  0  0  0  0  0  0
   59.0190   34.6130   45.7540 C   0  0  0  0  0  0  0  0  0  0  0  0
   59.6480   35.6720   46.0150 O   0  0  0  0  0  0  0  0  0  0  0  0
   58.4910   33.8720   46.7610 N   0  0  0  0  0  0  0  0  0  0  0  0
   57.8110   32.7250   46.5010 C   0  0  0  0  0  0  0  0  0  0  0  0
   56.6660   28.7930   45.5560 C   0  0  0  0  0  0  0  0  0  0  0  0
   53.8812   24.5895   46.5481 H   0  0  0  0  0  0  0  0  0  0  0  0
   53.2858   25.3546   45.0359 H   0  0  0  0  0  0  0  0  0  0  0  0
   54.8416   24.4568   45.0359 H   0  0  0  0  0  0  0  0  0  0  0  0
   58.8451   26.1673   45.3076 H   0  0  0  0  0  0  0  0  0  0  0  0
   60.2768   27.9696   44.3529 H   0  0  0  0  0  0  0  0  0  0  0  0
   59.4027   30.2966   44.1604 H   0  0  0  0  0  0  0  0  0  0  0  0
   58.0758   32.7697   43.1088 H   0  0  0  0  0  0  0  0  0  0  0  0
   57.3808   32.1424   47.3289 H   0  0  0  0  0  0  0  0  0  0  0  0
   55.6569   29.0312   45.9235 H   0  0  0  0  0  0  0  0  0  0  0  0
  1  2  1  0
  2  3  1  0
  3  4  2  0
  3  5  1  0
  5  6  2  0
  6  7  1  0
  7  8  2  0
  8  9  1  0
  9 10  1  0
 10 11  1  0
 11 12  1  0
 12 13  2  0
 13 14  1  0
 14 15  2  0
 14 16  1  0
 16 17  1  0
  9 18  2  0
 18  5  1  0
 17 11  2  0
  1 19  1  0
  1 20  1  0
  1 21  1  0
  6 22  1  0
  7 23  1  0
  8 24  1  0
 12 25  1  0
 17 26  1  0
 18 27  1  0
M  CHG  2   2  -1  16  -1
M  END
>  <UniqueID>  (51) 
45

>  <SMILES>  (51) 
C[N-]C(=O)c1cccc(Oc2cnc(=O)[n-]c2)c1

>  <Energy>  (51) 
38.96379336032561

>  <Genealogy>  (51) 
C[N-]C(=O)c1cccc(Oc2cnc(=O)[n-]c2)c1 (protonated)
C[N-]C(=O)c1cccc(Oc2cnc(=O)[n-]c2)c1 (3D coordinates assigned)
C[N-]C(=O)c1cccc(Oc2cnc(=O)[n-]c2)c1 (optimized conformer: 38.96379336032561 kcal/mol)

>  <smiles>  (51) 
CNC(=O)c1cccc(Oc2cnc(=O)[nH]c2)c1

>  <score_type>  (51) 
oracle

>  <origin>  (51) 
adg

>  <m_score__min__energy>  (51) 
-9.8599999999999994

>  <m_primary>  (51) 
energy

$$$$
51:0
     RDKit          3D

 67 71  0  0  1  0  0  0  0  0999 V2000
   57.0330   28.6600   45.4950 C   0  0  0  0  0  0  0  0  0  0  0  0
   57.6950   29.5700   44.5500 N   0  0  0  0  0  0  0  0  0  0  0  0
   59.0850   29.3780   44.1700 C   0  0  0  0  0  0  0  0  0  0  0  0
   56.8940   30.6290   44.0440 C   0  0  0  0  0  0  0  0  0  0  0  0
   55.7030   30.6820   44.4580 O   0  0  0  0  0  0  0  0  0  0  0  0
   57.3650   31.6470   43.0880 C   0  0  0  0  0  0  0  0  0  0  0  0
   60.6310   34.0070   51.2490 N   0  0  0  0  0  0  0  0  0  0  0  0
   61.3800   33.8890   50.2130 C   0  0  0  0  0  0  0  0  0  0  0  0
   57.0850   33.2310   45.9640 C   0  0  0  0  0  0  0  0  0  0  0  0
   57.5830   33.4120   47.2580 C   0  0  0  0  0  0  0  0  0  0  0  0
   58.9510   33.4750   47.4960 C   0  0  0  0  0  0  0  0  0  0  0  0
   59.4390   33.6540   48.7750 C   0  0  0  0  0  0  0  0  0  0  0  0
   60.8060   33.7100   48.9570 C   0  0  0  0  0  0  0  0  0  0  0  0
   57.9550   33.1120   44.8980 C   0  0  0  0  0  0  0  0  0  0  0  0
   57.5470   32.9450   43.6950 N   0  0  0  0  0  0  0  0  0  0  0  0
   59.6470   33.0330   51.5670 C   0  0  0  0  0  0  0  0  0  0  0  0
   59.6440   31.7660   51.0680 C   0  0  0  0  0  0  0  0  0  0  0  0
   58.6980   30.8180   51.3680 C   0  0  0  0  0  0  0  0  0  0  0  0
   58.7200   29.5400   50.8500 O   0  0  0  0  0  0  0  0  0  0  0  0
   59.2240   29.2880   49.5870 C   0  0  0  0  0  0  0  0  0  0  0  0
   59.9980   28.1480   49.4290 C   0  0  0  0  0  0  0  0  0  0  0  0
   60.5570   27.7830   48.2330 C   0  0  0  0  0  0  0  0  0  0  0  0
   60.3350   28.5910   47.1430 C   0  0  0  0  0  0  0  0  0  0  0  0
   59.5660   29.7320   47.2800 C   0  0  0  0  0  0  0  0  0  0  0  0
   58.9990   30.1020   48.4950 C   0  0  0  0  0  0  0  0  0  0  0  0
   57.6880   31.1930   52.2360 C   0  0  0  0  0  0  0  0  0  0  0  0
   57.6620   32.4840   52.7640 C   0  0  0  0  0  0  0  0  0  0  0  0
   58.6350   33.4040   52.4330 C   0  0  0  0  0  0  0  0  0  0  0  0
   58.5710   34.7270   52.9990 N   0  0  0  0  0  0  0  0  0  0  0  0
   59.1830   35.0650   54.5760 S   0  0  0  0  0  0  0  0  0  0  0  0
   58.9350   36.7770   55.0210 C   0  0  0  0  0  0  0  0  0  0  0  0
   58.5230   34.1540   55.5460 O   0  0  0  0  0  0  0  0  0  0  0  0
   60.6830   34.8480   54.5470 O   0  0  0  0  0  0  0  0  0  0  0  0
   62.7090   33.9360   50.3330 N   0  0  0  0  0  0  0  0  0  0  0  0
   63.4850   33.8110   49.2440 C   0  0  0  0  0  0  0  0  0  0  0  0
   62.9890   33.6360   48.0020 N   0  0  0  0  0  0  0  0  0  0  0  0
   61.6610   33.5870   47.8670 C   0  0  0  0  0  0  0  0  0  0  0  0
   61.1410   33.4060   46.5860 C   0  0  0  0  0  0  0  0  0  0  0  0
   59.7770   33.3490   46.3930 C   0  0  0  0  0  0  0  0  0  0  0  0
   59.2760   33.1730   45.1380 N   0  0  0  0  0  0  0  0  0  0  0  0
   57.2602   28.9723   46.5250 H   0  0  0  0  0  0  0  0  0  0  0  0
   55.9454   28.6916   45.3337 H   0  0  0  0  0  0  0  0  0  0  0  0
   57.3979   27.6349   45.3337 H   0  0  0  0  0  0  0  0  0  0  0  0
   59.7041   29.2925   45.0752 H   0  0  0  0  0  0  0  0  0  0  0  0
   59.1784   28.4584   43.5736 H   0  0  0  0  0  0  0  0  0  0  0  0
   59.4242   30.2378   43.5736 H   0  0  0  0  0  0  0  0  0  0  0  0
   58.3272   31.3171   42.6693 H   0  0  0  0  0  0  0  0  0  0  0  0
   56.5947   31.7511   42.3097 H   0  0  0  0  0  0  0  0  0  0  0  0
   55.9991   33.1833   45.7949 H   0  0  0  0  0  0  0  0  0  0  0  0
   56.8817   33.5059   48.1002 H   0  0  0  0  0  0  0  0  0  0  0  0
   58.7536   33.7499   49.6300 H   0  0  0  0  0  0  0  0  0  0  0  0
   60.4535   31.4836   50.3788 H   0  0  0  0  0  0  0  0  0  0  0  0
   60.1711   27.5066   50.3057 H   0  0  0  0  0  0  0  0  0  0  0  0
   61.1654   26.8706   48.1472 H   0  0  0  0  0  0  0  0  0  0  0  0
   60.7675   28.3308   46.1656 H   0  0  0  0  0  0  0  0  0  0  0  0
   59.3970   30.3683   46.3987 H   0  0  0  0  0  0  0  0  0  0  0  0
   58.3906   31.0142   48.5829 H   0  0  0  0  0  0  0  0  0  0  0  0
   56.9040   30.4718   52.5103 H   0  0  0  0  0  0  0  0  0  0  0  0
   56.8548   32.7721   53.4535 H   0  0  0  0  0  0  0  0  0  0  0  0
   58.1370   35.4700   52.4100 H   0  0  0  0  0  0  0  0  0  0  0  0
   58.9211   36.8727   56.1167 H   0  0  0  0  0  0  0  0  0  0  0  0
   59.7544   37.3851   54.6102 H   0  0  0  0  0  0  0  0  0  0  0  0
   57.9767   37.1275   54.6102 H   0  0  0  0  0  0  0  0  0  0  0  0
   64.5768   33.8533   49.3710 H   0  0  0  0  0  0  0  0  0  0  0  0
   63.6250   33.5400   47.1580 H   0  0  0  0  0  0  0  0  0  0  0  0
   61.8210   33.3084   45.7269 H   0  0  0  0  0  0  0  0  0  0  0  0
   59.9550   33.0880   44.3650 H   0  0  0  0  0  0  0  0  0  0  0  0
  1  2  1  0
  2  3  1  0
  2  4  1  0
  4  5  2  0
  4  6  1  0
  6  7  1  0
  7  8  2  0
  8  9  1  0
  9 10  2  0
 10 11  1  0
 11 12  2  0
 12 13  1  0
 13 14  1  0
 14 15  2  0
 15 16  1  0
 16 17  2  0
 17 18  1  0
 18 19  1  0
 19 20  1  0
 20 21  2  0
 21 22  1  0
 22 23  2  0
 23 24  1  0
 24 25  2  0
 18 26  2  0
 26 27  1  0
 27 28  2  0
 28 29  1  0
 29 30  1  0
 30 31  1  0
 30 32  2  0
 30 33  2  0
 14 34  1  0
 34 35  2  0
 35 36  1  0
 36 37  1  0
 37 38  1  0
 38 39  2  0
 39 40  1  0
 40  8  1  0
 39 11  1  0
 37 13  2  0
 28 16  1  0
 25 20  1  0
  1 41  1  0
  1 42  1  0
  1 43  1  0
  3 44  1  0
  3 45  1  0
  3 46  1  0
  6 47  1  0
  6 48  1  0
  9 49  1  0
 10 50  1  0
 12 51  1  0
 17 52  1  0
 21 53  1  0
 22 54  1  0
 23 55  1  0
 24 56  1  0
 25 57  1  0
 26 58  1  0
 27 59  1  0
 29 60  1  0
 31 61  1  0
 31 62  1  0
 31 63  1  0
 35 64  1  0
 36 65  1  0
 38 66  1  0
 40 67  1  0
M  END
>  <smiles>  (52) 
CN(C)C(=O)CN=c1ccc2cc3c(=Nc4cc(Oc5ccccc5)ccc4NS(C)(=O)=O)nc[nH]c3cc2[nH]1

>  <score_type>  (52) 
oracle

>  <origin>  (52) 
adg

>  <m_score__min__energy>  (52) 
-10.109999999999999

>  <m_primary>  (52) 
energy

$$$$
52:0
     RDKit          3D

 56 60  0  0  0  0  0  0  0  0999 V2000
   59.6098   34.5379   49.7306 H   0  0  0  0  0  0  0  0  0  0  0  0
   59.6530   33.4670   49.9780 C   0  0  0  0  0  0  0  0  0  0  0  0
   60.1150   32.5560   49.0290 C   0  0  0  0  0  0  0  0  0  0  0  0
   60.4238   32.9144   48.0359 H   0  0  0  0  0  0  0  0  0  0  0  0
   60.1900   31.1920   49.3260 C   0  0  0  0  0  0  0  0  0  0  0  0
   60.7080   30.3050   48.3240 N   0  0  0  0  0  0  0  0  0  0  0  0
   60.1340   29.1970   47.9480 C   0  0  0  0  0  0  0  0  0  0  0  0
   60.5940   28.0000   48.4020 N   0  0  0  0  0  0  0  0  0  0  0  0
   60.0320   26.8460   48.0470 N   0  0  0  0  0  0  0  0  0  0  0  0
   58.9670   26.7950   47.2050 C   0  0  0  0  0  0  0  0  0  0  0  0
   58.3850   25.5180   46.8930 N   0  0  0  0  0  0  0  0  0  0  0  0
   58.8080   24.8040   45.6820 C   0  0  0  0  0  0  0  0  0  0  0  0
   59.7553   25.2285   45.3181 H   0  0  0  0  0  0  0  0  0  0  0  0
   58.9493   23.7383   45.9152 H   0  0  0  0  0  0  0  0  0  0  0  0
   57.7330   24.9520   44.6000 C   0  0  0  0  0  0  0  0  0  0  0  0
   57.6849   26.0036   44.2808 H   0  0  0  0  0  0  0  0  0  0  0  0
   57.9969   24.3057   43.7499 H   0  0  0  0  0  0  0  0  0  0  0  0
   56.3590   24.5250   45.1350 C   0  0  0  0  0  0  0  0  0  0  0  0
   55.5979   24.7225   44.3658 H   0  0  0  0  0  0  0  0  0  0  0  0
   56.3988   23.4527   45.3771 H   0  0  0  0  0  0  0  0  0  0  0  0
   55.9920   25.2970   46.4120 C   0  0  0  0  0  0  0  0  0  0  0  0
   55.8693   26.3624   46.1673 H   0  0  0  0  0  0  0  0  0  0  0  0
   55.0541   24.8878   46.8156 H   0  0  0  0  0  0  0  0  0  0  0  0
   57.0910   25.1470   47.4700 C   0  0  0  0  0  0  0  0  0  0  0  0
   56.8692   25.8045   48.3235 H   0  0  0  0  0  0  0  0  0  0  0  0
   57.1297   24.1015   47.8096 H   0  0  0  0  0  0  0  0  0  0  0  0
   58.4530   27.9940   46.6710 C   0  0  0  0  0  0  0  0  0  0  0  0
   57.3900   27.9980   45.7500 C   0  0  0  0  0  0  0  0  0  0  0  0
   56.9456   27.0443   45.4291 H   0  0  0  0  0  0  0  0  0  0  0  0
   56.8880   29.2070   45.2340 C   0  0  0  0  0  0  0  0  0  0  0  0
   55.8190   29.2400   44.3230 O   0  0  0  0  0  0  0  0  0  0  0  0
   55.9130   29.7160   42.9840 C   0  0  0  0  0  0  0  0  0  0  0  0
   56.1261   30.7951   42.9926 H   0  0  0  0  0  0  0  0  0  0  0  0
   56.7239   29.1863   42.4626 H   0  0  0  0  0  0  0  0  0  0  0  0
   54.9616   29.5343   42.4626 H   0  0  0  0  0  0  0  0  0  0  0  0
   57.4580   30.4230   45.6320 C   0  0  0  0  0  0  0  0  0  0  0  0
   56.9270   31.6100   45.1010 O   0  0  0  0  0  0  0  0  0  0  0  0
   57.4840   32.9050   45.3000 C   0  0  0  0  0  0  0  0  0  0  0  0
   57.5702   33.1054   46.3782 H   0  0  0  0  0  0  0  0  0  0  0  0
   58.4812   32.9502   44.8378 H   0  0  0  0  0  0  0  0  0  0  0  0
   56.8310   33.6600   44.8378 H   0  0  0  0  0  0  0  0  0  0  0  0
   58.5350   30.4260   46.5370 C   0  0  0  0  0  0  0  0  0  0  0  0
   58.9851   31.3819   46.8431 H   0  0  0  0  0  0  0  0  0  0  0  0
   59.0440   29.2190   47.0560 C   0  0  0  0  0  0  0  0  0  0  0  0
   59.7390   30.7210   50.5840 C   0  0  0  0  0  0  0  0  0  0  0  0
   59.2780   31.6540   51.5530 C   0  0  0  0  0  0  0  0  0  0  0  0
   58.8530   31.1700   52.8020 C   0  0  0  0  0  0  0  0  0  0  0  0
   58.5033   31.8733   53.5722 H   0  0  0  0  0  0  0  0  0  0  0  0
   58.8730   29.8040   53.0680 C   0  0  0  0  0  0  0  0  0  0  0  0
   58.5492   29.4256   54.0488 H   0  0  0  0  0  0  0  0  0  0  0  0
   59.3060   28.9200   52.0830 C   0  0  0  0  0  0  0  0  0  0  0  0
   59.3138   27.8388   52.2851 H   0  0  0  0  0  0  0  0  0  0  0  0
   59.7190   29.3830   50.8740 N   0  0  0  0  0  0  0  0  0  0  0  0
   60.0090   28.6750   50.1650 H   0  0  0  0  0  0  0  0  0  0  0  0
   59.2450   33.0310   51.2390 C   0  0  0  0  0  0  0  0  0  0  0  0
   58.6830   34.2460   52.3870 Cl  0  0  0  0  0  0  0  0  0  0  0  0
  1  2  1  0
  2  3  2  0
  3  4  1  0
  3  5  1  0
  5  6  1  0
  6  7  2  0
  7  8  1  0
  8  9  1  0
  9 10  2  0
 10 11  1  0
 11 12  1  0
 12 13  1  0
 12 14  1  0
 12 15  1  0
 15 16  1  0
 15 17  1  0
 15 18  1  0
 18 19  1  0
 18 20  1  0
 18 21  1  0
 21 22  1  0
 21 23  1  0
 21 24  1  0
 24 25  1  0
 24 26  1  0
 10 27  1  0
 27 28  2  0
 28 29  1  0
 28 30  1  0
 30 31  1  0
 31 32  1  0
 32 33  1  0
 32 34  1  0
 32 35  1  0
 30 36  2  0
 36 37  1  0
 37 38  1  0
 38 39  1  0
 38 40  1  0
 38 41  1  0
 36 42  1  0
 42 43  1  0
 42 44  2  0
  5 45  2  0
 45 46  1  0
 46 47  1  0
 47 48  1  0
 47 49  2  0
 49 50  1  0
 49 51  1  0
 51 52  1  0
 51 53  2  0
 53 54  1  0
 46 55  2  0
 55 56  1  0
 55  2  1  0
 44  7  1  0
 53 45  1  0
 24 11  1  0
 44 27  1  0
M  CHG  2   8  -1  53   1
M  END
>  <UniqueID>  (53) 
46

>  <SMILES>  (53) 
COc1cc2c(N3CCCCC3)n[n-]/c(=N\c3ccc(Cl)c4ccc[nH+]c34)c2cc1OC

>  <Energy>  (53) 
81.69220718133242

>  <Genealogy>  (53) 
COc1cc2c(N3CCCCC3)n[n-]c(=Nc3ccc(Cl)c4ccc[nH+]c34)c2cc1OC (protonated)
COc1cc2c(N3CCCCC3)n[n-]/c(=N\c3ccc(Cl)c4ccc[nH+]c34)c2cc1OC (cis-trans isomerization)
COc1cc2c(N3CCCCC3)n[n-]/c(=N\c3ccc(Cl)c4ccc[nH+]c34)c2cc1OC (3D coordinates assigned)
COc1cc2c(N3CCCCC3)n[n-]/c(=N\c3ccc(Cl)c4ccc[nH+]c34)c2cc1OC (nonaromatic ring conformer: 81.69220718133242 kcal/mol)

>  <smiles>  (53) 
COc1cc2c(N3CCCCC3)n[nH]c(=Nc3ccc(Cl)c4cccnc34)c2cc1OC

>  <score_type>  (53) 
oracle

>  <origin>  (53) 
adg

>  <m_score__min__energy>  (53) 
-7.2699999999999996

>  <m_primary>  (53) 
energy

$$$$
53:0
     RDKit          3D

 38 40  0  0  0  0  0  0  0  0999 V2000
   59.1890   28.1540   44.5180 C   0  0  0  0  0  0  0  0  0  0  0  0
   58.3540   28.2730   45.5530 C   0  0  0  0  0  0  0  0  0  0  0  0
   56.9640   27.7070   45.5060 C   0  0  0  0  0  0  0  0  0  0  0  0
   56.0140   28.7310   45.2200 O   0  0  0  0  0  0  0  0  0  0  0  0
   56.2110   29.7120   44.2430 C   0  0  0  0  0  0  0  0  0  0  0  0
   56.4850   29.3860   43.0560 O   0  0  0  0  0  0  0  0  0  0  0  0
   56.0510   31.0980   44.5620 N   0  0  0  0  0  0  0  0  0  0  0  0
   57.0830   31.9730   45.0360 C   0  0  0  0  0  0  0  0  0  0  0  0
   57.0160   33.3770   44.8470 C   0  0  0  0  0  0  0  0  0  0  0  0
   58.0290   34.2130   45.3410 C   0  0  0  0  0  0  0  0  0  0  0  0
   59.0860   33.6270   46.0300 C   0  0  0  0  0  0  0  0  0  0  0  0
   60.4190   34.3620   46.7320 S   0  0  0  0  0  0  0  0  0  0  0  0
   61.0430   32.8820   47.2890 C   0  0  0  0  0  0  0  0  0  0  0  0
   62.2990   32.7170   48.0560 C   0  0  0  0  0  0  0  0  0  0  0  0
   62.3950   31.7420   49.0620 C   0  0  0  0  0  0  0  0  0  0  0  0
   63.5800   31.5900   49.7840 C   0  0  0  0  0  0  0  0  0  0  0  0
   64.6700   32.4130   49.4980 C   0  0  0  0  0  0  0  0  0  0  0  0
   65.8570   32.2600   50.2210 O   0  0  0  0  0  0  0  0  0  0  0  0
   66.7360   33.3440   50.4970 C   0  0  0  0  0  0  0  0  0  0  0  0
   64.5650   33.3550   48.5200 N   0  0  0  0  0  0  0  0  0  0  0  0
   63.4220   33.5240   47.8020 C   0  0  0  0  0  0  0  0  0  0  0  0
   60.2420   31.8420   46.9440 N   0  0  0  0  0  0  0  0  0  0  0  0
   59.1570   32.2620   46.2440 C   0  0  0  0  0  0  0  0  0  0  0  0
   58.1570   31.4190   45.7600 C   0  0  0  0  0  0  0  0  0  0  0  0
   60.2025   28.5775   44.5774 H   0  0  0  0  0  0  0  0  0  0  0  0
   58.8635   27.6324   43.6059 H   0  0  0  0  0  0  0  0  0  0  0  0
   58.6915   28.7968   46.4595 H   0  0  0  0  0  0  0  0  0  0  0  0
   56.9134   26.9377   44.7214 H   0  0  0  0  0  0  0  0  0  0  0  0
   56.7270   27.2675   46.4861 H   0  0  0  0  0  0  0  0  0  0  0  0
   56.1624   33.8145   44.3084 H   0  0  0  0  0  0  0  0  0  0  0  0
   57.9884   35.3015   45.1877 H   0  0  0  0  0  0  0  0  0  0  0  0
   61.5328   31.0953   49.2820 H   0  0  0  0  0  0  0  0  0  0  0  0
   63.6540   30.8269   50.5728 H   0  0  0  0  0  0  0  0  0  0  0  0
   66.8358   33.4671   51.5855 H   0  0  0  0  0  0  0  0  0  0  0  0
   67.7235   33.1359   50.0594 H   0  0  0  0  0  0  0  0  0  0  0  0
   66.3283   34.2672   50.0594 H   0  0  0  0  0  0  0  0  0  0  0  0
   63.3761   34.2954   47.0192 H   0  0  0  0  0  0  0  0  0  0  0  0
   58.2062   30.3352   45.9413 H   0  0  0  0  0  0  0  0  0  0  0  0
  1  2  2  0
  2  3  1  0
  3  4  1  0
  4  5  1  0
  5  6  2  0
  5  7  1  0
  7  8  1  0
  8  9  2  0
  9 10  1  0
 10 11  2  0
 11 12  1  0
 12 13  1  0
 13 14  1  0
 14 15  2  0
 15 16  1  0
 16 17  2  0
 17 18  1  0
 18 19  1  0
 17 20  1  0
 20 21  2  0
 13 22  2  0
 22 23  1  0
 23 24  2  0
 24  8  1  0
 23 11  1  0
 21 14  1  0
  1 25  1  0
  1 26  1  0
  2 27  1  0
  3 28  1  0
  3 29  1  0
  9 30  1  0
 10 31  1  0
 15 32  1  0
 16 33  1  0
 19 34  1  0
 19 35  1  0
 19 36  1  0
 21 37  1  0
 24 38  1  0
M  CHG  1   7  -1
M  END
>  <UniqueID>  (54) 
47

>  <SMILES>  (54) 
C=CCOC(=O)[N-]c1ccc2sc(-c3ccc(OC)nc3)nc2c1

>  <Energy>  (54) 
72.41549191032857

>  <Genealogy>  (54) 
C=CCOC(=O)[N-]c1ccc2sc(-c3ccc(OC)nc3)nc2c1 (protonated)
C=CCOC(=O)[N-]c1ccc2sc(-c3ccc(OC)nc3)nc2c1 (3D coordinates assigned)
C=CCOC(=O)[N-]c1ccc2sc(-c3ccc(OC)nc3)nc2c1 (optimized conformer: 72.41549191032857 kcal/mol)

>  <smiles>  (54) 
C=CCOC(=O)Nc1ccc2sc(-c3ccc(OC)nc3)nc2c1

>  <score_type>  (54) 
oracle

>  <origin>  (54) 
adg

>  <m_score__min__energy>  (54) 
-8.6400000000000006

>  <m_primary>  (54) 
energy

$$$$
54:0
     RDKit          3D

 45 48  0  0  0  0  0  0  0  0999 V2000
   58.7770   33.5530   43.9230 C   0  0  0  0  0  0  0  0  0  0  0  0
   58.1880   32.5110   43.0710 N   0  0  0  0  0  0  0  0  0  0  0  0
   58.2460   32.6740   41.6130 C   0  0  0  0  0  0  0  0  0  0  0  0
   57.5660   31.3370   43.6610 C   0  0  0  0  0  0  0  0  0  0  0  0
   56.8960   30.3890   42.8580 C   0  0  0  0  0  0  0  0  0  0  0  0
   56.3160   29.2510   43.4260 C   0  0  0  0  0  0  0  0  0  0  0  0
   56.4090   29.0220   44.8050 C   0  0  0  0  0  0  0  0  0  0  0  0
   55.8770   27.8330   45.4070 N   0  0  0  0  0  0  0  0  0  0  0  0
   56.6460   26.7740   45.9990 C   0  0  0  0  0  0  0  0  0  0  0  0
   56.0420   25.8080   46.5310 O   0  0  0  0  0  0  0  0  0  0  0  0
   58.0810   26.7850   46.0050 N   0  0  0  0  0  0  0  0  0  0  0  0
   58.9070   27.9040   46.3530 C   0  0  0  0  0  0  0  0  0  0  0  0
   59.7740   28.4360   45.3920 C   0  0  0  0  0  0  0  0  0  0  0  0
   60.5320   29.5740   45.6770 C   0  0  0  0  0  0  0  0  0  0  0  0
   60.4440   30.1920   46.9370 C   0  0  0  0  0  0  0  0  0  0  0  0
   61.2130   31.4260   47.2220 C   0  0  0  0  0  0  0  0  0  0  0  0
   62.6180   31.4000   47.3720 C   0  0  0  0  0  0  0  0  0  0  0  0
   63.3240   32.5960   47.6350 C   0  0  0  0  0  0  0  0  0  0  0  0
   62.6620   33.7860   47.7390 N   0  0  0  0  0  0  0  0  0  0  0  0
   61.3150   33.8000   47.5900 C   0  0  0  0  0  0  0  0  0  0  0  0
   60.5220   34.8780   47.6350 N   0  0  0  0  0  0  0  0  0  0  0  0
   59.2980   34.3400   47.3970 C   0  0  0  0  0  0  0  0  0  0  0  0
   59.2990   32.9940   47.2050 N   0  0  0  0  0  0  0  0  0  0  0  0
   60.5960   32.6770   47.3410 C   0  0  0  0  0  0  0  0  0  0  0  0
   59.6140   29.6220   47.9180 C   0  0  0  0  0  0  0  0  0  0  0  0
   58.8600   28.4820   47.6320 C   0  0  0  0  0  0  0  0  0  0  0  0
   57.0330   29.9730   45.6160 C   0  0  0  0  0  0  0  0  0  0  0  0
   57.6130   31.1130   45.0550 C   0  0  0  0  0  0  0  0  0  0  0  0
   58.6280   33.2895   44.9805 H   0  0  0  0  0  0  0  0  0  0  0  0
   59.8538   33.6329   43.7132 H   0  0  0  0  0  0  0  0  0  0  0  0
   58.2901   34.5168   43.7132 H   0  0  0  0  0  0  0  0  0  0  0  0
   58.6057   33.6850   41.3711 H   0  0  0  0  0  0  0  0  0  0  0  0
   58.9340   31.9285   41.1878 H   0  0  0  0  0  0  0  0  0  0  0  0
   57.2417   32.5307   41.1878 H   0  0  0  0  0  0  0  0  0  0  0  0
   56.8294   30.5477   41.7716 H   0  0  0  0  0  0  0  0  0  0  0  0
   55.7837   28.5313   42.7867 H   0  0  0  0  0  0  0  0  0  0  0  0
   59.8590   27.9551   44.4063 H   0  0  0  0  0  0  0  0  0  0  0  0
   61.2025   29.9897   44.9104 H   0  0  0  0  0  0  0  0  0  0  0  0
   63.1626   30.4483   47.2840 H   0  0  0  0  0  0  0  0  0  0  0  0
   64.4169   32.5680   47.7570 H   0  0  0  0  0  0  0  0  0  0  0  0
   58.3797   34.9445   47.3623 H   0  0  0  0  0  0  0  0  0  0  0  0
   59.5581   30.0772   48.9179 H   0  0  0  0  0  0  0  0  0  0  0  0
   58.2264   28.0347   48.4120 H   0  0  0  0  0  0  0  0  0  0  0  0
   57.0678   29.8228   46.7051 H   0  0  0  0  0  0  0  0  0  0  0  0
   58.1124   31.8452   45.7065 H   0  0  0  0  0  0  0  0  0  0  0  0
  1  2  1  0
  2  3  1  0
  2  4  1  0
  4  5  2  0
  5  6  1  0
  6  7  2  0
  7  8  1  0
  8  9  1  0
  9 10  2  0
  9 11  1  0
 11 12  1  0
 12 13  2  0
 13 14  1  0
 14 15  2  0
 15 16  1  0
 16 17  2  0
 17 18  1  0
 18 19  2  0
 19 20  1  0
 20 21  1  0
 21 22  1  0
 22 23  2  0
 23 24  1  0
 15 25  1  0
 25 26  2  0
  7 27  1  0
 27 28  2  0
 28  4  1  0
 26 12  1  0
 24 16  1  0
 24 20  2  0
  1 29  1  0
  1 30  1  0
  1 31  1  0
  3 32  1  0
  3 33  1  0
  3 34  1  0
  5 35  1  0
  6 36  1  0
 13 37  1  0
 14 38  1  0
 17 39  1  0
 18 40  1  0
 22 41  1  0
 25 42  1  0
 26 43  1  0
 27 44  1  0
 28 45  1  0
M  CHG  3   8  -1  11  -1  21  -1
M  END
>  <UniqueID>  (55) 
48

>  <SMILES>  (55) 
CN(C)c1ccc([N-]C(=O)[N-]c2ccc(-c3ccnc4[n-]cnc34)cc2)cc1

>  <Energy>  (55) 
98.95280913644785

>  <Genealogy>  (55) 
CN(C)c1ccc([N-]C(=O)[N-]c2ccc(-c3ccnc4[n-]cnc34)cc2)cc1 (protonated)
CN(C)c1ccc([N-]C(=O)[N-]c2ccc(-c3ccnc4[n-]cnc34)cc2)cc1 (3D coordinates assigned)
CN(C)c1ccc([N-]C(=O)[N-]c2ccc(-c3ccnc4[n-]cnc34)cc2)cc1 (optimized conformer: 98.95280913644785 kcal/mol)

>  <smiles>  (55) 
CN(C)c1ccc(NC(=O)Nc2ccc(-c3ccnc4[nH]cnc34)cc2)cc1

>  <score_type>  (55) 
oracle

>  <origin>  (55) 
adg

>  <m_score__min__energy>  (55) 
-11.890000000000001

>  <m_primary>  (55) 
energy

$$$$
55:0
     RDKit          3D

 48 51  0  0  0  0  0  0  0  0999 V2000
   55.1540   29.3410   44.8390 O   0  0  0  0  0  0  0  0  0  0  0  0
   56.4090   29.3290   44.7360 C   0  0  0  0  0  0  0  0  0  0  0  0
   57.1120   30.5430   44.2070 C   0  0  0  0  0  0  0  0  0  0  0  0
   56.6490   31.7010   44.8970 O   0  0  0  0  0  0  0  0  0  0  0  0
   57.4880   32.6840   45.4460 C   0  0  0  0  0  0  0  0  0  0  0  0
   57.7680   32.7550   46.8250 C   0  0  0  0  0  0  0  0  0  0  0  0
   58.6110   33.7550   47.3210 C   0  0  0  0  0  0  0  0  0  0  0  0
   59.1790   34.6880   46.4500 C   0  0  0  0  0  0  0  0  0  0  0  0
   58.9060   34.6230   45.0810 C   0  0  0  0  0  0  0  0  0  0  0  0
   58.0640   33.6250   44.5820 C   0  0  0  0  0  0  0  0  0  0  0  0
   57.1210   28.1380   45.0990 N   0  0  0  0  0  0  0  0  0  0  0  0
   58.0400   27.9930   46.1910 C   0  0  0  0  0  0  0  0  0  0  0  0
   58.6750   26.7570   46.4650 C   0  0  0  0  0  0  0  0  0  0  0  0
   59.5920   26.6410   47.5230 C   0  0  0  0  0  0  0  0  0  0  0  0
   59.8810   27.7720   48.2870 C   0  0  0  0  0  0  0  0  0  0  0  0
   60.7470   27.8030   49.3330 N   0  0  0  0  0  0  0  0  0  0  0  0
   60.8250   29.0410   49.8750 C   0  0  0  0  0  0  0  0  0  0  0  0
   61.8620   29.4430   51.2770 S   0  0  0  0  0  0  0  0  0  0  0  0
   61.5390   31.2320   51.1430 C   0  0  0  0  0  0  0  0  0  0  0  0
   62.5540   31.8610   50.2240 C   0  0  0  0  0  0  0  0  0  0  0  0
   62.1440   32.3180   48.9600 C   0  0  0  0  0  0  0  0  0  0  0  0
   63.0580   32.9310   48.0820 C   0  0  0  0  0  0  0  0  0  0  0  0
   62.6370   33.3900   46.7840 N   0  0  0  0  0  0  0  0  0  0  0  0
   61.5260   33.0570   46.3200 O   0  0  0  0  0  0  0  0  0  0  0  0
   63.4520   34.2040   46.0320 O   0  0  0  0  0  0  0  0  0  0  0  0
   64.3910   33.0910   48.4930 C   0  0  0  0  0  0  0  0  0  0  0  0
   64.8010   32.6560   49.7540 C   0  0  0  0  0  0  0  0  0  0  0  0
   63.8930   32.0470   50.6250 C   0  0  0  0  0  0  0  0  0  0  0  0
   64.4680   31.5410   52.2110 Cl  0  0  0  0  0  0  0  0  0  0  0  0
   59.8280   30.1510   49.0770 S   0  0  0  0  0  0  0  0  0  0  0  0
   59.2760   28.9850   47.9980 C   0  0  0  0  0  0  0  0  0  0  0  0
   58.3640   29.1270   46.9560 C   0  0  0  0  0  0  0  0  0  0  0  0
   58.1959   30.4344   44.3600 H   0  0  0  0  0  0  0  0  0  0  0  0
   56.9011   30.6487   43.1326 H   0  0  0  0  0  0  0  0  0  0  0  0
   57.3224   32.0220   47.5136 H   0  0  0  0  0  0  0  0  0  0  0  0
   58.8270   33.8068   48.3983 H   0  0  0  0  0  0  0  0  0  0  0  0
   59.8413   35.4740   46.8419 H   0  0  0  0  0  0  0  0  0  0  0  0
   59.3540   35.3576   44.3957 H   0  0  0  0  0  0  0  0  0  0  0  0
   57.8521   33.5780   43.5036 H   0  0  0  0  0  0  0  0  0  0  0  0
   58.4478   25.8787   45.8429 H   0  0  0  0  0  0  0  0  0  0  0  0
   60.0729   25.6769   47.7448 H   0  0  0  0  0  0  0  0  0  0  0  0
   61.2830   26.9770   49.6810 H   0  0  0  0  0  0  0  0  0  0  0  0
   60.5291   31.3924   50.7377 H   0  0  0  0  0  0  0  0  0  0  0  0
   61.6131   31.6924   52.1393 H   0  0  0  0  0  0  0  0  0  0  0  0
   61.0950   32.1952   48.6525 H   0  0  0  0  0  0  0  0  0  0  0  0
   65.1179   33.5630   47.8156 H   0  0  0  0  0  0  0  0  0  0  0  0
   65.8471   32.7935   50.0651 H   0  0  0  0  0  0  0  0  0  0  0  0
   57.9076   30.1035   46.7364 H   0  0  0  0  0  0  0  0  0  0  0  0
  1  2  2  0
  2  3  1  0
  3  4  1  0
  4  5  1  0
  5  6  2  0
  6  7  1  0
  7  8  2  0
  8  9  1  0
  9 10  2  0
  2 11  1  0
 11 12  1  0
 12 13  2  0
 13 14  1  0
 14 15  2  0
 15 16  1  0
 16 17  2  0
 17 18  1  0
 18 19  1  0
 19 20  1  0
 20 21  2  0
 21 22  1  0
 22 23  1  0
 23 24  2  0
 23 25  1  0
 22 26  2  0
 26 27  1  0
 27 28  2  0
 28 29  1  0
 17 30  1  0
 30 31  1  0
 31 32  2  0
 10  5  1  0
 32 12  1  0
 31 15  1  0
 28 20  1  0
  3 33  1  0
  3 34  1  0
  6 35  1  0
  7 36  1  0
  8 37  1  0
  9 38  1  0
 10 39  1  0
 13 40  1  0
 14 41  1  0
 16 42  1  0
 19 43  1  0
 19 44  1  0
 21 45  1  0
 26 46  1  0
 27 47  1  0
 32 48  1  0
M  CHG  4  11  -1  16   1  23   1  25  -1
M  END
>  <UniqueID>  (56) 
49

>  <SMILES>  (56) 
O=C(COc1ccccc1)[N-]c1ccc2[nH+]c(SCc3cc([N+](=O)[O-])ccc3Cl)sc2c1

>  <Energy>  (56) 
88.33838399636663

>  <Genealogy>  (56) 
O=C(COc1ccccc1)[N-]c1ccc2[nH+]c(SCc3cc([N+](=O)[O-])ccc3Cl)sc2c1 (protonated)
O=C(COc1ccccc1)[N-]c1ccc2[nH+]c(SCc3cc([N+](=O)[O-])ccc3Cl)sc2c1 (3D coordinates assigned)
O=C(COc1ccccc1)[N-]c1ccc2[nH+]c(SCc3cc([N+](=O)[O-])ccc3Cl)sc2c1 (optimized conformer: 88.33838399636663 kcal/mol)

>  <smiles>  (56) 
O=C(COc1ccccc1)Nc1ccc2nc(SCc3cc([N+](=O)[O-])ccc3Cl)sc2c1

>  <score_type>  (56) 
oracle

>  <origin>  (56) 
adg

>  <m_score__min__energy>  (56) 
-9.3399999999999999

>  <m_primary>  (56) 
energy

$$$$
56:0
     RDKit          3D

 36 37  0  0  0  0  0  0  0  0999 V2000
   60.5428   35.6422   46.9151 H   0  0  0  0  0  0  0  0  0  0  0  0
   59.8660   34.8450   46.5740 C   0  0  0  0  0  0  0  0  0  0  0  0
   58.8740   34.9040   45.2140 S   0  0  0  0  0  0  0  0  0  0  0  0
   58.2500   33.3570   45.4680 C   0  0  0  0  0  0  0  0  0  0  0  0
   57.3670   32.7420   44.7350 N   0  0  0  0  0  0  0  0  0  0  0  0
   57.5420   31.5320   43.9770 C   0  0  0  0  0  0  0  0  0  0  0  0
   57.7730   31.5740   42.7380 O   0  0  0  0  0  0  0  0  0  0  0  0
   57.4840   30.2160   44.6650 C   0  0  0  0  0  0  0  0  0  0  0  0
   56.3560   29.3850   44.5730 C   0  0  0  0  0  0  0  0  0  0  0  0
   55.1490   29.7350   43.7520 C   0  0  0  0  0  0  0  0  0  0  0  0
   54.3094   29.9785   44.4197 H   0  0  0  0  0  0  0  0  0  0  0  0
   55.3767   30.6041   43.1173 H   0  0  0  0  0  0  0  0  0  0  0  0
   54.8764   28.8789   43.1173 H   0  0  0  0  0  0  0  0  0  0  0  0
   56.3460   28.2140   45.2480 N   0  0  0  0  0  0  0  0  0  0  0  0
   57.3930   27.7840   45.9920 C   0  0  0  0  0  0  0  0  0  0  0  0
   57.1930   26.3480   46.7620 S   0  0  0  0  0  0  0  0  0  0  0  0
   58.5470   28.5440   46.0800 N   0  0  0  0  0  0  0  0  0  0  0  0
   59.7470   28.1150   46.8680 C   0  0  2  0  0  0  0  0  0  0  0  0
   60.5470   28.8462   46.6801 H   0  0  0  0  0  0  0  0  0  0  0  0
   60.3120   26.7650   46.3850 C   0  0  0  0  0  0  0  0  0  0  0  0
   60.5719   26.1440   47.2549 H   0  0  0  0  0  0  0  0  0  0  0  0
   59.5552   26.2470   45.7777 H   0  0  0  0  0  0  0  0  0  0  0  0
   61.2122   26.9405   45.7777 H   0  0  0  0  0  0  0  0  0  0  0  0
   59.4700   28.1600   48.3890 C   0  0  0  0  0  0  0  0  0  0  0  0
   60.4094   27.9596   48.9251 H   0  0  0  0  0  0  0  0  0  0  0  0
   58.7074   27.3997   48.6135 H   0  0  0  0  0  0  0  0  0  0  0  0
   58.9250   29.5150   48.8430 C   0  0  0  0  0  0  0  0  0  0  0  0
   58.9092   29.5542   49.9422 H   0  0  0  0  0  0  0  0  0  0  0  0
   59.5702   30.3178   48.4567 H   0  0  0  0  0  0  0  0  0  0  0  0
   57.9036   29.6475   48.4567 H   0  0  0  0  0  0  0  0  0  0  0  0
   58.5770   29.7670   45.4350 C   0  0  0  0  0  0  0  0  0  0  0  0
   59.5860   30.5200   45.5420 O   0  0  0  0  0  0  0  0  0  0  0  0
   58.7850   32.7960   46.5730 N   0  0  0  0  0  0  0  0  0  0  0  0
   58.5410   31.8420   46.9210 H   0  0  0  0  0  0  0  0  0  0  0  0
   59.6800   33.6130   47.1900 C   0  0  0  0  0  0  0  0  0  0  0  0
   60.2153   33.3214   48.1057 H   0  0  0  0  0  0  0  0  0  0  0  0
  1  2  1  0
  2  3  1  0
  3  4  1  0
  4  5  2  0
  5  6  1  0
  6  7  2  0
  6  8  1  0
  8  9  2  0
  9 10  1  0
 10 11  1  0
 10 12  1  0
 10 13  1  0
  9 14  1  0
 14 15  1  0
 15 16  2  0
 15 17  1  0
 17 18  1  0
 18 19  1  1
 18 20  1  0
 20 21  1  0
 20 22  1  0
 20 23  1  0
 18 24  1  0
 24 25  1  0
 24 26  1  0
 24 27  1  0
 27 28  1  0
 27 29  1  0
 27 30  1  0
 17 31  1  0
 31 32  2  0
  4 33  1  0
 33 34  1  0
 33 35  1  0
 35 36  1  0
 35  2  2  0
 31  8  1  0
M  CHG  1  14  -1
M  END
>  <UniqueID>  (57) 
50

>  <SMILES>  (57) 
CC[C@@H](C)n1c(=S)[n-]c(C)c(C(=O)/N=c2/[nH]ccs2)c1=O

>  <Energy>  (57) 
83.43832251825417

>  <Genealogy>  (57) 
CCC(C)n1c(=S)[n-]c(C)c(C(=O)N=c2[nH]ccs2)c1=O (protonated)
CC[C@@H](C)n1c(=S)[n-]c(C)c(C(=O)N=c2[nH]ccs2)c1=O (chirality)
CC[C@@H](C)n1c(=S)[n-]c(C)c(C(=O)/N=c2/[nH]ccs2)c1=O (cis-trans isomerization)
CC[C@@H](C)n1c(=S)[n-]c(C)c(C(=O)/N=c2/[nH]ccs2)c1=O (3D coordinates assigned)
CC[C@@H](C)n1c(=S)[n-]c(C)c(C(=O)/N=c2/[nH]ccs2)c1=O (optimized conformer: 83.43832251825417 kcal/mol)

>  <smiles>  (57) 
CCC(C)n1c(=S)[nH]c(C)c(C(=O)N=c2[nH]ccs2)c1=O

>  <score_type>  (57) 
oracle

>  <origin>  (57) 
adg

>  <m_score__min__energy>  (57) 
-7.6699999999999999

>  <m_primary>  (57) 
energy

$$$$
57:0
     RDKit          3D

 54 57  0  0  0  0  0  0  0  0999 V2000
   62.0070   26.0980   52.0030 C   0  0  0  0  0  0  0  0  0  0  0  0
   61.2850   26.0410   50.7760 O   0  0  0  0  0  0  0  0  0  0  0  0
   60.7710   27.1620   50.1080 C   0  0  0  0  0  0  0  0  0  0  0  0
   60.3690   27.0160   48.7760 C   0  0  0  0  0  0  0  0  0  0  0  0
   59.8520   28.1040   48.0650 C   0  0  0  0  0  0  0  0  0  0  0  0
   59.7460   29.3640   48.6790 C   0  0  0  0  0  0  0  0  0  0  0  0
   59.1970   30.4990   47.9930 N   0  0  0  0  0  0  0  0  0  0  0  0
   59.8600   31.2910   46.9980 C   0  0  0  0  0  0  0  0  0  0  0  0
   61.0950   31.1400   46.7990 O   0  0  0  0  0  0  0  0  0  0  0  0
   59.1000   32.3190   46.2430 C   0  0  0  0  0  0  0  0  0  0  0  0
   58.9420   33.6110   46.7760 C   0  0  0  0  0  0  0  0  0  0  0  0
   58.2320   34.5540   46.1030 N   0  0  0  0  0  0  0  0  0  0  0  0
   57.6480   34.2920   44.9060 C   0  0  0  0  0  0  0  0  0  0  0  0
   57.7670   33.0280   44.3340 C   0  0  0  0  0  0  0  0  0  0  0  0
   58.4920   32.0330   45.0000 C   0  0  0  0  0  0  0  0  0  0  0  0
   58.5930   30.7660   44.4210 O   0  0  0  0  0  0  0  0  0  0  0  0
   57.7990   29.6730   44.7980 C   0  0  0  0  0  0  0  0  0  0  0  0
   58.4250   28.4900   45.1980 C   0  0  0  0  0  0  0  0  0  0  0  0
   57.6640   27.3920   45.6040 C   0  0  0  0  0  0  0  0  0  0  0  0
   56.2680   27.4900   45.6180 C   0  0  0  0  0  0  0  0  0  0  0  0
   55.5580   26.4680   45.9980 N   0  0  0  0  0  0  0  0  0  0  0  0
   56.0690   25.1740   46.3580 C   0  0  0  0  0  0  0  0  0  0  0  0
   56.1420   24.8760   47.5800 O   0  0  0  0  0  0  0  0  0  0  0  0
   56.4520   24.1660   45.3400 C   0  0  0  0  0  0  0  0  0  0  0  0
   55.5750   23.8340   44.2910 C   0  0  0  0  0  0  0  0  0  0  0  0
   55.9450   22.8860   43.3350 C   0  0  0  0  0  0  0  0  0  0  0  0
   57.1820   22.2470   43.4220 C   0  0  0  0  0  0  0  0  0  0  0  0
   58.0550   22.5380   44.4810 C   0  0  0  0  0  0  0  0  0  0  0  0
   59.3980   21.8760   44.5540 C   0  0  0  0  0  0  0  0  0  0  0  0
   57.6890   23.5060   45.4310 C   0  0  0  0  0  0  0  0  0  0  0  0
   55.6730   28.6480   45.2100 N   0  0  0  0  0  0  0  0  0  0  0  0
   56.3940   29.7270   44.8070 C   0  0  0  0  0  0  0  0  0  0  0  0
   60.1260   29.5060   50.0180 C   0  0  0  0  0  0  0  0  0  0  0  0
   60.6430   28.4190   50.7290 C   0  0  0  0  0  0  0  0  0  0  0  0
   61.3025   26.0424   52.8459 H   0  0  0  0  0  0  0  0  0  0  0  0
   62.7087   25.2525   52.0552 H   0  0  0  0  0  0  0  0  0  0  0  0
   62.5673   27.0432   52.0552 H   0  0  0  0  0  0  0  0  0  0  0  0
   60.4603   26.0367   48.2833 H   0  0  0  0  0  0  0  0  0  0  0  0
   59.5274   27.9732   47.0222 H   0  0  0  0  0  0  0  0  0  0  0  0
   59.3971   33.8602   47.7460 H   0  0  0  0  0  0  0  0  0  0  0  0
   57.0804   35.0787   44.3875 H   0  0  0  0  0  0  0  0  0  0  0  0
   57.2940   32.8127   43.3645 H   0  0  0  0  0  0  0  0  0  0  0  0
   59.5230   28.4231   45.1931 H   0  0  0  0  0  0  0  0  0  0  0  0
   58.1575   26.4579   45.9103 H   0  0  0  0  0  0  0  0  0  0  0  0
   54.5925   24.3240   44.2237 H   0  0  0  0  0  0  0  0  0  0  0  0
   55.2588   22.6422   42.5105 H   0  0  0  0  0  0  0  0  0  0  0  0
   57.4740   21.5121   42.6573 H   0  0  0  0  0  0  0  0  0  0  0  0
   59.6812   21.7364   45.6077 H   0  0  0  0  0  0  0  0  0  0  0  0
   59.3520   20.8973   44.0539 H   0  0  0  0  0  0  0  0  0  0  0  0
   60.1462   22.5085   44.0539 H   0  0  0  0  0  0  0  0  0  0  0  0
   58.3773   23.7495   46.2538 H   0  0  0  0  0  0  0  0  0  0  0  0
   55.8777   30.6442   44.4873 H   0  0  0  0  0  0  0  0  0  0  0  0
   60.0171   30.4810   50.5154 H   0  0  0  0  0  0  0  0  0  0  0  0
   60.9509   28.5463   51.7773 H   0  0  0  0  0  0  0  0  0  0  0  0
  1  2  1  0
  2  3  1  0
  3  4  2  0
  4  5  1  0
  5  6  2  0
  6  7  1  0
  7  8  1  0
  8  9  2  0
  8 10  1  0
 10 11  2  0
 11 12  1  0
 12 13  2  0
 13 14  1  0
 14 15  2  0
 15 16  1  0
 16 17  1  0
 17 18  1  0
 18 19  2  0
 19 20  1  0
 20 21  2  3
 21 22  1  0
 22 23  2  0
 22 24  1  0
 24 25  2  0
 25 26  1  0
 26 27  2  0
 27 28  1  0
 28 29  1  0
 28 30  2  0
 20 31  1  0
 31 32  1  0
  6 33  1  0
 33 34  2  0
 34  3  1  0
 15 10  1  0
 32 17  2  0
 30 24  1  0
  1 35  1  0
  1 36  1  0
  1 37  1  0
  4 38  1  0
  5 39  1  0
 11 40  1  0
 13 41  1  0
 14 42  1  0
 18 43  1  0
 19 44  1  0
 25 45  1  0
 26 46  1  0
 27 47  1  0
 29 48  1  0
 29 49  1  0
 29 50  1  0
 30 51  1  0
 32 52  1  0
 33 53  1  0
 34 54  1  0
M  CHG  2   7  -1  31  -1
M  END
>  <UniqueID>  (58) 
51

>  <SMILES>  (58) 
COc1ccc([N-]C(=O)c2cnccc2Oc2ccc(=NC(=O)c3cccc(C)c3)[n-]c2)cc1

>  <Energy>  (58) 
80.9323985662479

>  <Genealogy>  (58) 
COc1ccc([N-]C(=O)c2cnccc2Oc2ccc(=NC(=O)c3cccc(C)c3)[n-]c2)cc1 (protonated)
COc1ccc([N-]C(=O)c2cnccc2Oc2ccc(=NC(=O)c3cccc(C)c3)[n-]c2)cc1 (3D coordinates assigned)
COc1ccc([N-]C(=O)c2cnccc2Oc2ccc(=NC(=O)c3cccc(C)c3)[n-]c2)cc1 (optimized conformer: 80.9323985662479 kcal/mol)

>  <smiles>  (58) 
COc1ccc(NC(=O)c2cnccc2Oc2ccc(=NC(=O)c3cccc(C)c3)[nH]c2)cc1

>  <score_type>  (58) 
oracle

>  <origin>  (58) 
adg

>  <m_score__min__energy>  (58) 
-12.69

>  <m_primary>  (58) 
energy

$$$$
58:0
     RDKit          3D

 38 41  0  0  0  0  0  0  0  0999 V2000
   56.4050   26.7140   45.6180 O   0  0  0  0  0  0  0  0  0  0  0  0
   56.8650   27.8750   45.7840 C   0  0  0  0  0  0  0  0  0  0  0  0
   56.3890   28.8990   45.0430 N   0  0  0  0  0  0  0  0  0  0  0  0
   56.8690   30.1300   45.1940 N   0  0  0  0  0  0  0  0  0  0  0  0
   57.8470   30.4130   46.0970 C   0  0  0  0  0  0  0  0  0  0  0  0
   58.3450   29.4010   46.8960 N   0  0  0  0  0  0  0  0  0  0  0  0
   57.8620   28.1260   46.7280 C   0  0  0  0  0  0  0  0  0  0  0  0
   58.3170   27.1660   47.4120 O   0  0  0  0  0  0  0  0  0  0  0  0
   59.3010   29.6500   47.9590 C   0  0  0  0  0  0  0  0  0  0  0  0
   59.0550   29.1480   49.2010 N   0  0  0  0  0  0  0  0  0  0  0  0
   59.9090   29.3280   50.2390 C   0  0  0  0  0  0  0  0  0  0  0  0
   61.0840   30.0530   50.0630 C   0  0  0  0  0  0  0  0  0  0  0  0
   61.3820   30.6010   48.8020 C   0  0  0  0  0  0  0  0  0  0  0  0
   62.5400   31.3660   48.5790 O   0  0  0  0  0  0  0  0  0  0  0  0
   62.6820   32.7650   48.8290 C   0  0  0  0  0  0  0  0  0  0  0  0
   63.3340   33.4620   47.6340 C   0  0  0  0  0  0  0  0  0  0  0  0
   63.8070   32.5120   46.7180 O   0  0  0  0  0  0  0  0  0  0  0  0
   60.4920   30.3770   47.7310 C   0  0  0  0  0  0  0  0  0  0  0  0
   60.7210   31.0110   46.3900 C   0  0  0  0  0  0  0  0  0  0  0  0
   59.7180   32.1160   46.2390 C   0  0  0  0  0  0  0  0  0  0  0  0
   60.1410   33.4560   46.2590 C   0  0  0  0  0  0  0  0  0  0  0  0
   59.2100   34.4910   46.1640 C   0  0  0  0  0  0  0  0  0  0  0  0
   57.8500   34.2000   46.0540 C   0  0  0  0  0  0  0  0  0  0  0  0
   57.4160   32.8720   46.0450 C   0  0  0  0  0  0  0  0  0  0  0  0
   58.3390   31.8170   46.1560 C   0  0  0  0  0  0  0  0  0  0  0  0
   59.6721   28.8993   51.2239 H   0  0  0  0  0  0  0  0  0  0  0  0
   61.7762   30.1968   50.9057 H   0  0  0  0  0  0  0  0  0  0  0  0
   61.6886   33.2034   49.0053 H   0  0  0  0  0  0  0  0  0  0  0  0
   63.3217   32.9041   49.7130 H   0  0  0  0  0  0  0  0  0  0  0  0
   62.5916   34.1055   47.1393 H   0  0  0  0  0  0  0  0  0  0  0  0
   64.1794   34.0690   47.9901 H   0  0  0  0  0  0  0  0  0  0  0  0
   64.2110   31.7800   47.2530 H   0  0  0  0  0  0  0  0  0  0  0  0
   61.7410   31.4192   46.3364 H   0  0  0  0  0  0  0  0  0  0  0  0
   60.6063   30.2698   45.5853 H   0  0  0  0  0  0  0  0  0  0  0  0
   61.2119   33.6902   46.3500 H   0  0  0  0  0  0  0  0  0  0  0  0
   59.5487   35.5375   46.1759 H   0  0  0  0  0  0  0  0  0  0  0  0
   57.1182   35.0174   45.9742 H   0  0  0  0  0  0  0  0  0  0  0  0
   56.3429   32.6498   45.9502 H   0  0  0  0  0  0  0  0  0  0  0  0
  1  2  2  0
  2  3  1  0
  3  4  1  0
  4  5  2  0
  5  6  1  0
  6  7  1  0
  7  8  2  0
  6  9  1  0
  9 10  2  0
 10 11  1  0
 11 12  2  0
 12 13  1  0
 13 14  1  0
 14 15  1  0
 15 16  1  0
 16 17  1  0
 13 18  2  0
 18 19  1  0
 19 20  1  0
 20 21  2  0
 21 22  1  0
 22 23  2  0
 23 24  1  0
 24 25  2  0
  7  2  1  0
 18  9  1  0
 25 20  1  0
 25  5  1  0
 11 26  1  0
 12 27  1  0
 15 28  1  0
 15 29  1  0
 16 30  1  0
 16 31  1  0
 17 32  1  0
 19 33  1  0
 19 34  1  0
 21 35  1  0
 22 36  1  0
 23 37  1  0
 24 38  1  0
M  CHG  1   3  -1
M  END
>  <UniqueID>  (59) 
52

>  <SMILES>  (59) 
O=c1[n-]nc2n(c1=O)-c1nccc(OCCO)c1Cc1ccccc1-2

>  <Energy>  (59) 
63.6524869088695

>  <Genealogy>  (59) 
O=c1[n-]nc2n(c1=O)-c1nccc(OCCO)c1Cc1ccccc1-2 (protonated)
O=c1[n-]nc2n(c1=O)-c1nccc(OCCO)c1Cc1ccccc1-2 (3D coordinates assigned)
O=c1[n-]nc2n(c1=O)-c1nccc(OCCO)c1Cc1ccccc1-2 (nonaromatic ring conformer: 63.6524869088695 kcal/mol)

>  <smiles>  (59) 
O=c1[nH]nc2n(c1=O)-c1nccc(OCCO)c1Cc1ccccc1-2

>  <score_type>  (59) 
oracle

>  <origin>  (59) 
adg

>  <m_score__min__energy>  (59) 
-8.3499999999999996

>  <m_primary>  (59) 
energy

$$$$
59:0
     RDKit          3D

 39 42  0  0  0  0  0  0  0  0999 V2000
   55.6210   26.0610   45.9810 O   0  0  0  0  0  0  0  0  0  0  0  0
   56.3810   27.0570   45.8390 C   0  0  0  0  0  0  0  0  0  0  0  0
   55.8830   28.2630   45.2410 N   0  0  0  0  0  0  0  0  0  0  0  0
   56.6160   29.4770   45.0230 C   0  0  0  0  0  0  0  0  0  0  0  0
   56.3670   30.3080   43.9150 C   0  0  0  0  0  0  0  0  0  0  0  0
   57.0870   31.4950   43.7490 C   0  0  0  0  0  0  0  0  0  0  0  0
   58.0470   31.8700   44.6930 C   0  0  0  0  0  0  0  0  0  0  0  0
   58.7510   33.0160   44.5320 N   0  0  0  0  0  0  0  0  0  0  0  0
   59.6620   33.3930   45.4270 N   0  0  0  0  0  0  0  0  0  0  0  0
   59.9210   32.6690   46.5200 N   0  0  0  0  0  0  0  0  0  0  0  0
   60.9200   33.1580   47.4360 C   0  0  0  0  0  0  0  0  0  0  0  0
   60.5300   33.7230   48.6620 C   0  0  0  0  0  0  0  0  0  0  0  0
   61.4920   34.1810   49.5670 C   0  0  0  0  0  0  0  0  0  0  0  0
   62.8510   34.0660   49.2630 C   0  0  0  0  0  0  0  0  0  0  0  0
   63.7830   34.5080   50.1440 F   0  0  0  0  0  0  0  0  0  0  0  0
   63.2500   33.4880   48.0540 C   0  0  0  0  0  0  0  0  0  0  0  0
   62.2910   33.0300   47.1460 C   0  0  0  0  0  0  0  0  0  0  0  0
   59.2600   31.4870   46.7350 C   0  0  0  0  0  0  0  0  0  0  0  0
   59.5350   30.7720   47.7390 O   0  0  0  0  0  0  0  0  0  0  0  0
   58.2890   31.0630   45.8150 C   0  0  0  0  0  0  0  0  0  0  0  0
   57.5630   29.8690   45.9780 C   0  0  0  0  0  0  0  0  0  0  0  0
   57.8040   26.9630   46.2410 C   0  0  0  0  0  0  0  0  0  0  0  0
   58.1580   26.8460   47.6000 C   0  0  0  0  0  0  0  0  0  0  0  0
   59.5010   26.7580   47.9770 C   0  0  0  0  0  0  0  0  0  0  0  0
   60.5050   26.7870   47.0080 C   0  0  0  0  0  0  0  0  0  0  0  0
   60.1690   26.9050   45.6580 C   0  0  0  0  0  0  0  0  0  0  0  0
   58.8270   26.9930   45.2730 C   0  0  0  0  0  0  0  0  0  0  0  0
   55.6031   30.0227   43.1767 H   0  0  0  0  0  0  0  0  0  0  0  0
   56.8976   32.1345   42.8743 H   0  0  0  0  0  0  0  0  0  0  0  0
   59.4617   33.8054   48.9110 H   0  0  0  0  0  0  0  0  0  0  0  0
   61.1787   34.6326   50.5198 H   0  0  0  0  0  0  0  0  0  0  0  0
   64.3200   33.3936   47.8171 H   0  0  0  0  0  0  0  0  0  0  0  0
   62.6096   32.5673   46.2003 H   0  0  0  0  0  0  0  0  0  0  0  0
   57.7403   29.2386   46.8618 H   0  0  0  0  0  0  0  0  0  0  0  0
   57.3721   26.8238   48.3693 H   0  0  0  0  0  0  0  0  0  0  0  0
   59.7673   26.6656   49.0403 H   0  0  0  0  0  0  0  0  0  0  0  0
   61.5610   26.7169   47.3079 H   0  0  0  0  0  0  0  0  0  0  0  0
   60.9614   26.9288   44.8954 H   0  0  0  0  0  0  0  0  0  0  0  0
   58.5690   27.0862   44.2078 H   0  0  0  0  0  0  0  0  0  0  0  0
  1  2  2  0
  2  3  1  0
  3  4  1  0
  4  5  2  0
  5  6  1  0
  6  7  2  0
  7  8  1  0
  8  9  2  0
  9 10  1  0
 10 11  1  0
 11 12  2  0
 12 13  1  0
 13 14  2  0
 14 15  1  0
 14 16  1  0
 16 17  2  0
 10 18  1  0
 18 19  2  0
 18 20  1  0
 20 21  2  0
  2 22  1  0
 22 23  2  0
 23 24  1  0
 24 25  2  0
 25 26  1  0
 26 27  2  0
 21  4  1  0
 27 22  1  0
 20  7  1  0
 17 11  1  0
  5 28  1  0
  6 29  1  0
 12 30  1  0
 13 31  1  0
 16 32  1  0
 17 33  1  0
 21 34  1  0
 23 35  1  0
 24 36  1  0
 25 37  1  0
 26 38  1  0
 27 39  1  0
M  CHG  1   3  -1
M  END
>  <UniqueID>  (60) 
53

>  <SMILES>  (60) 
O=C([N-]c1ccc2nnn(-c3ccc(F)cc3)c(=O)c2c1)c1ccccc1

>  <Energy>  (60) 
60.70095820830146

>  <Genealogy>  (60) 
O=C([N-]c1ccc2nnn(-c3ccc(F)cc3)c(=O)c2c1)c1ccccc1 (protonated)
O=C([N-]c1ccc2nnn(-c3ccc(F)cc3)c(=O)c2c1)c1ccccc1 (3D coordinates assigned)
O=C([N-]c1ccc2nnn(-c3ccc(F)cc3)c(=O)c2c1)c1ccccc1 (optimized conformer: 60.70095820830146 kcal/mol)

>  <smiles>  (60) 
O=C(Nc1ccc2nnn(-c3ccc(F)cc3)c(=O)c2c1)c1ccccc1

>  <score_type>  (60) 
oracle

>  <origin>  (60) 
adg

>  <m_score__min__energy>  (60) 
-10.529999999999999

>  <m_primary>  (60) 
energy

$$$$
60:0
     RDKit          3D

 28 29  0  0  0  0  0  0  0  0999 V2000
   60.1370   29.5180   51.7270 C   0  0  0  0  0  0  0  0  0  0  0  0
   58.6710   29.7260   51.5210 C   0  0  0  0  0  0  0  0  0  0  0  0
   58.2070   29.7260   50.3500 O   0  0  0  0  0  0  0  0  0  0  0  0
   57.8260   30.0170   52.6450 N   0  0  0  0  0  0  0  0  0  0  0  0
   56.3900   30.0540   52.5880 C   0  0  0  0  0  0  0  0  0  0  0  0
   55.6000   29.2680   53.4470 C   0  0  0  0  0  0  0  0  0  0  0  0
   54.2060   29.3400   53.3880 C   0  0  0  0  0  0  0  0  0  0  0  0
   53.5780   30.2010   52.4740 C   0  0  0  0  0  0  0  0  0  0  0  0
   52.0780   30.3060   52.4390 C   0  0  0  0  0  0  0  0  0  0  0  0
   51.6280   30.7880   51.0950 C   0  0  0  0  0  0  0  0  0  0  0  0
   51.5650   30.0130   49.9970 N   0  0  0  0  0  0  0  0  0  0  0  0
   51.0490   30.8400   49.0620 C   0  0  0  0  0  0  0  0  0  0  0  0
   50.8400   30.4770   47.8760 O   0  0  0  0  0  0  0  0  0  0  0  0
   50.7670   32.0870   49.5010 N   0  0  0  0  0  0  0  0  0  0  0  0
   51.1340   32.0330   50.7910 C   0  0  0  0  0  0  0  0  0  0  0  0
   51.0160   33.1000   51.6740 O   0  0  0  0  0  0  0  0  0  0  0  0
   54.3650   31.0120   51.6430 C   0  0  0  0  0  0  0  0  0  0  0  0
   55.7600   30.9390   51.7020 C   0  0  0  0  0  0  0  0  0  0  0  0
   60.3551   29.4871   52.8047 H   0  0  0  0  0  0  0  0  0  0  0  0
   60.4411   28.5677   51.2639 H   0  0  0  0  0  0  0  0  0  0  0  0
   60.6935   30.3462   51.2639 H   0  0  0  0  0  0  0  0  0  0  0  0
   58.2900   30.2990   53.5390 H   0  0  0  0  0  0  0  0  0  0  0  0
   56.0827   28.5930   54.1691 H   0  0  0  0  0  0  0  0  0  0  0  0
   53.5972   28.7187   54.0613 H   0  0  0  0  0  0  0  0  0  0  0  0
   51.6392   29.3169   52.6366 H   0  0  0  0  0  0  0  0  0  0  0  0
   51.7488   31.0213   53.2071 H   0  0  0  0  0  0  0  0  0  0  0  0
   53.8824   31.7086   50.9417 H   0  0  0  0  0  0  0  0  0  0  0  0
   56.3681   31.5812   51.0479 H   0  0  0  0  0  0  0  0  0  0  0  0
  1  2  1  0
  2  3  2  0
  2  4  1  0
  4  5  1  0
  5  6  2  0
  6  7  1  0
  7  8  2  0
  8  9  1  0
  9 10  1  0
 10 11  1  0
 11 12  1  0
 12 13  2  0
 12 14  1  0
 14 15  1  0
 15 16  1  0
  8 17  1  0
 17 18  2  0
 18  5  1  0
 15 10  2  0
  1 19  1  0
  1 20  1  0
  1 21  1  0
  4 22  1  0
  6 23  1  0
  7 24  1  0
  9 25  1  0
  9 26  1  0
 17 27  1  0
 18 28  1  0
M  CHG  3  11  -1  14  -1  16  -1
M  END
>  <UniqueID>  (61) 
54

>  <SMILES>  (61) 
CC(=O)Nc1ccc(Cc2[n-]c(=O)[n-]c2[O-])cc1

>  <Energy>  (61) 
57.458004961217334

>  <Genealogy>  (61) 
CC(=O)Nc1ccc(Cc2[n-]c(=O)[n-]c2[O-])cc1 (protonated)
CC(=O)Nc1ccc(Cc2[n-]c(=O)[n-]c2[O-])cc1 (3D coordinates assigned)
CC(=O)Nc1ccc(Cc2[n-]c(=O)[n-]c2[O-])cc1 (optimized conformer: 57.458004961217334 kcal/mol)

>  <smiles>  (61) 
CC(=O)Nc1ccc(Cc2[nH]c(=O)[nH]c2O)cc1

>  <score_type>  (61) 
oracle

>  <origin>  (61) 
adg

>  <m_score__min__energy>  (61) 
-15.08

>  <m_primary>  (61) 
energy

$$$$
61:0
     RDKit          3D

 48 50  0  0  0  0  0  0  0  0999 V2000
   55.0880   29.7060   52.7260 C   0  0  0  0  0  0  0  0  0  0  0  0
   55.6040   30.8570   51.8630 C   0  0  0  0  0  0  0  0  0  0  0  0
   56.7520   31.6230   52.5360 C   0  0  0  0  0  0  0  0  0  0  0  0
   57.8290   32.0050   51.5520 C   0  0  0  0  0  0  0  0  0  0  0  0
   58.4990   33.2330   51.6720 C   0  0  0  0  0  0  0  0  0  0  0  0
   59.4810   33.5950   50.7460 C   0  0  0  0  0  0  0  0  0  0  0  0
   59.8130   32.7320   49.6870 C   0  0  0  0  0  0  0  0  0  0  0  0
   60.8520   33.1240   48.7090 C   0  0  0  0  0  0  0  0  0  0  0  0
   62.0090   33.5480   49.0850 N   0  0  0  0  0  0  0  0  0  0  0  0
   62.7970   33.9540   47.9270 C   0  0  1  0  0  0  0  0  0  0  0  0
   64.0650   33.1040   47.8350 C   0  0  0  0  0  0  0  0  0  0  0  0
   61.8620   33.7480   46.7180 C   0  0  0  0  0  0  0  0  0  0  0  0
   60.6600   33.1700   47.2970 N   0  0  0  0  0  0  0  0  0  0  0  0
   59.7130   32.4040   46.5310 C   0  0  0  0  0  0  0  0  0  0  0  0
   58.6440   33.0530   45.8950 C   0  0  0  0  0  0  0  0  0  0  0  0
   57.7220   32.3220   45.1410 C   0  0  0  0  0  0  0  0  0  0  0  0
   57.8600   30.9340   45.0100 C   0  0  0  0  0  0  0  0  0  0  0  0
   56.7030   30.0180   44.0500 S   0  0  0  0  0  0  0  0  0  0  0  0
   57.4260   28.5310   43.5460 N   0  0  0  0  0  0  0  0  0  0  0  0
   56.2980   30.8180   42.8430 O   0  0  0  0  0  0  0  0  0  0  0  0
   55.4780   29.7260   44.8690 O   0  0  0  0  0  0  0  0  0  0  0  0
   58.9400   30.2850   45.6220 C   0  0  0  0  0  0  0  0  0  0  0  0
   59.8630   31.0160   46.3760 C   0  0  0  0  0  0  0  0  0  0  0  0
   59.1230   31.5150   49.5550 C   0  0  0  0  0  0  0  0  0  0  0  0
   58.1410   31.1540   50.4820 C   0  0  0  0  0  0  0  0  0  0  0  0
   55.2038   29.9642   53.7890 H   0  0  0  0  0  0  0  0  0  0  0  0
   54.0249   29.5301   52.5051 H   0  0  0  0  0  0  0  0  0  0  0  0
   55.6640   28.7953   52.5051 H   0  0  0  0  0  0  0  0  0  0  0  0
   55.9642   30.4483   50.9074 H   0  0  0  0  0  0  0  0  0  0  0  0
   54.7732   31.5619   51.7118 H   0  0  0  0  0  0  0  0  0  0  0  0
   56.3482   32.5381   52.9937 H   0  0  0  0  0  0  0  0  0  0  0  0
   57.2018   30.9646   53.2937 H   0  0  0  0  0  0  0  0  0  0  0  0
   58.2496   33.9137   52.4993 H   0  0  0  0  0  0  0  0  0  0  0  0
   59.9974   34.5611   50.8463 H   0  0  0  0  0  0  0  0  0  0  0  0
   63.1395   34.9979   47.9810 H   0  0  0  0  0  0  0  0  0  0  0  0
   64.4208   32.8655   48.8482 H   0  0  0  0  0  0  0  0  0  0  0  0
   63.8430   32.1715   47.2953 H   0  0  0  0  0  0  0  0  0  0  0  0
   64.8432   33.6636   47.2953 H   0  0  0  0  0  0  0  0  0  0  0  0
   61.6380   34.7076   46.2291 H   0  0  0  0  0  0  0  0  0  0  0  0
   62.3079   33.1082   45.9422 H   0  0  0  0  0  0  0  0  0  0  0  0
   58.5310   34.1430   45.9904 H   0  0  0  0  0  0  0  0  0  0  0  0
   56.8848   32.8383   44.6485 H   0  0  0  0  0  0  0  0  0  0  0  0
   58.1460   28.7700   42.8280 H   0  0  0  0  0  0  0  0  0  0  0  0
   56.6840   27.9810   43.0570 H   0  0  0  0  0  0  0  0  0  0  0  0
   59.0622   29.1977   45.5091 H   0  0  0  0  0  0  0  0  0  0  0  0
   60.7114   30.5013   46.8505 H   0  0  0  0  0  0  0  0  0  0  0  0
   59.3571   30.8421   48.7169 H   0  0  0  0  0  0  0  0  0  0  0  0
   57.6100   30.1970   50.3715 H   0  0  0  0  0  0  0  0  0  0  0  0
  1  2  1  0
  2  3  1  0
  3  4  1  0
  4  5  2  0
  5  6  1  0
  6  7  2  0
  7  8  1  0
  8  9  2  0
  9 10  1  0
 10 11  1  0
 10 12  1  0
 12 13  1  0
 13 14  1  0
 14 15  2  0
 15 16  1  0
 16 17  2  0
 17 18  1  0
 18 19  1  0
 18 20  2  0
 18 21  2  0
 17 22  1  0
 22 23  2  0
  7 24  1  0
 24 25  2  0
 25  4  1  0
 13  8  1  0
 23 14  1  0
  1 26  1  0
  1 27  1  0
  1 28  1  0
  2 29  1  0
  2 30  1  0
  3 31  1  0
  3 32  1  0
  5 33  1  0
  6 34  1  0
 10 35  1  1
 11 36  1  0
 11 37  1  0
 11 38  1  0
 12 39  1  0
 12 40  1  0
 15 41  1  0
 16 42  1  0
 19 43  1  0
 19 44  1  0
 22 45  1  0
 23 46  1  0
 24 47  1  0
 25 48  1  0
M  END
>  <UniqueID>  (62) 
55

>  <SMILES>  (62) 
CCCc1ccc(C2=N[C@@H](C)CN2c2ccc(S(N)(=O)=O)cc2)cc1

>  <Energy>  (62) 
60.370646165821874

>  <Genealogy>  (62) 
CCCc1ccc(C2=N[C@@H](C)CN2c2ccc(S(N)(=O)=O)cc2)cc1 (chirality)
CCCc1ccc(C2=N[C@@H](C)CN2c2ccc(S(N)(=O)=O)cc2)cc1 (3D coordinates assigned)
CCCc1ccc(C2=N[C@@H](C)CN2c2ccc(S(N)(=O)=O)cc2)cc1 (nonaromatic ring conformer: 60.370646165821874 kcal/mol)

>  <smiles>  (62) 
CCCc1ccc(C2=NC(C)CN2c2ccc(S(N)(=O)=O)cc2)cc1

>  <score_type>  (62) 
oracle

>  <origin>  (62) 
adg

>  <m_score__min__energy>  (62) 
-8.8900000000000006

>  <m_primary>  (62) 
energy

$$$$
62:0
     RDKit          3D

 36 38  0  0  0  0  0  0  0  0999 V2000
   54.0610   25.5590   45.6120 O   0  0  0  0  0  0  0  0  0  0  0  0
   55.2900   25.3540   45.8060 C   0  0  0  0  0  0  0  0  0  0  0  0
   56.0370   26.2420   46.6510 N   0  0  0  0  0  0  0  0  0  0  0  0
   57.4290   26.5720   46.5330 C   0  0  0  0  0  0  0  0  0  0  0  0
   58.4340   25.7470   47.0720 C   0  0  0  0  0  0  0  0  0  0  0  0
   59.7800   26.0850   46.9210 C   0  0  0  0  0  0  0  0  0  0  0  0
   60.1380   27.2420   46.2270 C   0  0  0  0  0  0  0  0  0  0  0  0
   59.1510   28.0540   45.6660 C   0  0  0  0  0  0  0  0  0  0  0  0
   57.7920   27.7120   45.7960 C   0  0  0  0  0  0  0  0  0  0  0  0
   56.7790   28.5170   45.2490 O   0  0  0  0  0  0  0  0  0  0  0  0
   56.9820   29.6100   44.3930 C   0  0  0  0  0  0  0  0  0  0  0  0
   56.4660   29.6380   43.0840 C   0  0  0  0  0  0  0  0  0  0  0  0
   56.6760   30.7540   42.2690 C   0  0  0  0  0  0  0  0  0  0  0  0
   57.3900   31.8530   42.7570 C   0  0  0  0  0  0  0  0  0  0  0  0
   57.8870   31.8390   44.0620 C   0  0  0  0  0  0  0  0  0  0  0  0
   57.6790   30.7240   44.8790 C   0  0  0  0  0  0  0  0  0  0  0  0
   55.9780   24.2310   45.1210 C   0  0  0  0  0  0  0  0  0  0  0  0
   55.9120   24.1170   43.7170 C   0  0  0  0  0  0  0  0  0  0  0  0
   56.5550   23.0670   43.0570 C   0  0  0  0  0  0  0  0  0  0  0  0
   57.2720   22.1160   43.7830 C   0  0  0  0  0  0  0  0  0  0  0  0
   57.8950   21.0980   43.1400 F   0  0  0  0  0  0  0  0  0  0  0  0
   57.3500   22.2140   45.1740 C   0  0  0  0  0  0  0  0  0  0  0  0
   56.7100   23.2620   45.8450 C   0  0  0  0  0  0  0  0  0  0  0  0
   56.8120   23.3240   47.1960 F   0  0  0  0  0  0  0  0  0  0  0  0
   58.1574   24.8312   47.6150 H   0  0  0  0  0  0  0  0  0  0  0  0
   60.5599   25.4384   47.3497 H   0  0  0  0  0  0  0  0  0  0  0  0
   61.1987   27.5140   46.1221 H   0  0  0  0  0  0  0  0  0  0  0  0
   59.4366   28.9652   45.1199 H   0  0  0  0  0  0  0  0  0  0  0  0
   55.8956   28.7789   42.7010 H   0  0  0  0  0  0  0  0  0  0  0  0
   56.2794   30.7678   41.2431 H   0  0  0  0  0  0  0  0  0  0  0  0
   57.5601   32.7284   42.1130 H   0  0  0  0  0  0  0  0  0  0  0  0
   58.4428   32.7064   44.4475 H   0  0  0  0  0  0  0  0  0  0  0  0
   58.0647   30.7212   45.9092 H   0  0  0  0  0  0  0  0  0  0  0  0
   55.3488   24.8620   43.1359 H   0  0  0  0  0  0  0  0  0  0  0  0
   56.4957   22.9900   41.9613 H   0  0  0  0  0  0  0  0  0  0  0  0
   57.9171   21.4639   45.7447 H   0  0  0  0  0  0  0  0  0  0  0  0
  1  2  2  0
  2  3  1  0
  3  4  1  0
  4  5  2  0
  5  6  1  0
  6  7  2  0
  7  8  1  0
  8  9  2  0
  9 10  1  0
 10 11  1  0
 11 12  2  0
 12 13  1  0
 13 14  2  0
 14 15  1  0
 15 16  2  0
  2 17  1  0
 17 18  2  0
 18 19  1  0
 19 20  2  0
 20 21  1  0
 20 22  1  0
 22 23  2  0
 23 24  1  0
  9  4  1  0
 16 11  1  0
 23 17  1  0
  5 25  1  0
  6 26  1  0
  7 27  1  0
  8 28  1  0
 12 29  1  0
 13 30  1  0
 14 31  1  0
 15 32  1  0
 16 33  1  0
 18 34  1  0
 19 35  1  0
 22 36  1  0
M  CHG  1   3  -1
M  END
>  <UniqueID>  (63) 
56

>  <SMILES>  (63) 
O=C([N-]c1ccccc1Oc1ccccc1)c1ccc(F)cc1F

>  <Energy>  (63) 
51.21557999896331

>  <Genealogy>  (63) 
O=C([N-]c1ccccc1Oc1ccccc1)c1ccc(F)cc1F (protonated)
O=C([N-]c1ccccc1Oc1ccccc1)c1ccc(F)cc1F (3D coordinates assigned)
O=C([N-]c1ccccc1Oc1ccccc1)c1ccc(F)cc1F (optimized conformer: 51.21557999896331 kcal/mol)

>  <smiles>  (63) 
O=C(Nc1ccccc1Oc1ccccc1)c1ccc(F)cc1F

>  <score_type>  (63) 
oracle

>  <origin>  (63) 
adg

>  <m_score__min__energy>  (63) 
-9.8100000000000005

>  <m_primary>  (63) 
energy

$$$$
63:0
     RDKit          3D

 47 50  0  0  0  0  0  0  0  0999 V2000
   56.5770   23.1180   42.8640 C   0  0  0  0  0  0  0  0  0  0  0  0
   56.8510   24.1430   43.9230 C   0  0  0  0  0  0  0  0  0  0  0  0
   57.4130   25.2640   43.5570 N   0  0  0  0  0  0  0  0  0  0  0  0
   57.8250   26.3370   44.4220 C   0  0  0  0  0  0  0  0  0  0  0  0
   57.5030   27.6530   44.0720 C   0  0  0  0  0  0  0  0  0  0  0  0
   57.8700   28.7280   44.9030 C   0  0  0  0  0  0  0  0  0  0  0  0
   57.4990   30.1130   44.5260 C   0  0  0  0  0  0  0  0  0  0  0  0
   56.3720   30.5650   44.8700 O   0  0  0  0  0  0  0  0  0  0  0  0
   58.3920   30.9420   43.7640 N   0  0  0  0  0  0  0  0  0  0  0  0
   58.0840   32.3350   43.4440 C   0  0  0  0  0  0  0  0  0  0  0  0
   58.3840   33.2180   44.6250 C   0  0  0  0  0  0  0  0  0  0  0  0
   59.3420   34.2410   44.5290 C   0  0  0  0  0  0  0  0  0  0  0  0
   59.6270   35.0440   45.6380 C   0  0  0  0  0  0  0  0  0  0  0  0
   58.9610   34.8300   46.8480 C   0  0  0  0  0  0  0  0  0  0  0  0
   58.0090   33.8120   46.9520 C   0  0  0  0  0  0  0  0  0  0  0  0
   57.7210   33.0070   45.8460 C   0  0  0  0  0  0  0  0  0  0  0  0
   58.5620   28.4600   46.0980 C   0  0  0  0  0  0  0  0  0  0  0  0
   58.9130   27.1510   46.4340 C   0  0  0  0  0  0  0  0  0  0  0  0
   58.5730   26.0920   45.5890 C   0  0  0  0  0  0  0  0  0  0  0  0
   59.0950   24.4270   45.9940 S   0  0  0  0  0  0  0  0  0  0  0  0
   57.4040   23.9720   46.3680 C   0  0  0  0  0  0  0  0  0  0  0  0
   57.0410   23.7520   47.6990 C   0  0  0  0  0  0  0  0  0  0  0  0
   55.7280   23.4170   48.0210 C   0  0  0  0  0  0  0  0  0  0  0  0
   54.7630   23.3300   47.0200 C   0  0  0  0  0  0  0  0  0  0  0  0
   55.0960   23.5840   45.6780 C   0  0  0  0  0  0  0  0  0  0  0  0
   53.9990   23.5440   44.6460 C   0  0  0  0  0  0  0  0  0  0  0  0
   56.4420   23.8810   45.3370 C   0  0  0  0  0  0  0  0  0  0  0  0
   56.3208   22.1595   43.3390 H   0  0  0  0  0  0  0  0  0  0  0  0
   55.7369   23.4531   42.2380 H   0  0  0  0  0  0  0  0  0  0  0  0
   57.4723   22.9892   42.2380 H   0  0  0  0  0  0  0  0  0  0  0  0
   56.9572   27.8494   43.1374 H   0  0  0  0  0  0  0  0  0  0  0  0
   59.2650   30.5350   43.3600 H   0  0  0  0  0  0  0  0  0  0  0  0
   58.6949   32.6546   42.5869 H   0  0  0  0  0  0  0  0  0  0  0  0
   57.0157   32.4185   43.1956 H   0  0  0  0  0  0  0  0  0  0  0  0
   59.8695   34.4109   43.5788 H   0  0  0  0  0  0  0  0  0  0  0  0
   60.3764   35.8452   45.5578 H   0  0  0  0  0  0  0  0  0  0  0  0
   59.1862   35.4631   47.7189 H   0  0  0  0  0  0  0  0  0  0  0  0
   57.4859   33.6441   47.9050 H   0  0  0  0  0  0  0  0  0  0  0  0
   56.9726   32.2054   45.9318 H   0  0  0  0  0  0  0  0  0  0  0  0
   58.8284   29.2872   46.7723 H   0  0  0  0  0  0  0  0  0  0  0  0
   59.4595   26.9529   47.3679 H   0  0  0  0  0  0  0  0  0  0  0  0
   57.7945   23.8436   48.4952 H   0  0  0  0  0  0  0  0  0  0  0  0
   55.4525   23.2207   49.0677 H   0  0  0  0  0  0  0  0  0  0  0  0
   53.7295   23.0597   47.2825 H   0  0  0  0  0  0  0  0  0  0  0  0
   53.0221   23.5084   45.1505 H   0  0  0  0  0  0  0  0  0  0  0  0
   54.0542   24.4448   44.0170 H   0  0  0  0  0  0  0  0  0  0  0  0
   54.1197   22.6497   44.0170 H   0  0  0  0  0  0  0  0  0  0  0  0
  1  2  1  0
  2  3  2  0
  3  4  1  0
  4  5  2  0
  5  6  1  0
  6  7  1  0
  7  8  2  0
  7  9  1  0
  9 10  1  0
 10 11  1  0
 11 12  2  0
 12 13  1  0
 13 14  2  0
 14 15  1  0
 15 16  2  0
  6 17  2  0
 17 18  1  0
 18 19  2  0
 19 20  1  0
 20 21  1  0
 21 22  2  0
 22 23  1  0
 23 24  2  0
 24 25  1  0
 25 26  1  0
 25 27  2  0
 27  2  1  0
 19  4  1  0
 27 21  1  0
 16 11  1  0
  1 28  1  0
  1 29  1  0
  1 30  1  0
  5 31  1  0
  9 32  1  0
 10 33  1  0
 10 34  1  0
 12 35  1  0
 13 36  1  0
 14 37  1  0
 15 38  1  0
 16 39  1  0
 17 40  1  0
 18 41  1  0
 22 42  1  0
 23 43  1  0
 24 44  1  0
 26 45  1  0
 26 46  1  0
 26 47  1  0
M  END
>  <UniqueID>  (64) 
57

>  <SMILES>  (64) 
CC1=Nc2cc(C(=O)NCc3ccccc3)ccc2Sc2cccc(C)c21

>  <Energy>  (64) 
66.89908181088242

>  <Genealogy>  (64) 
CC1=Nc2cc(C(=O)NCc3ccccc3)ccc2Sc2cccc(C)c21 (3D coordinates assigned)
CC1=Nc2cc(C(=O)NCc3ccccc3)ccc2Sc2cccc(C)c21 (nonaromatic ring conformer: 66.89908181088242 kcal/mol)

>  <smiles>  (64) 
CC1=Nc2cc(C(=O)NCc3ccccc3)ccc2Sc2cccc(C)c21

>  <score_type>  (64) 
oracle

>  <origin>  (64) 
adg

>  <m_score__min__energy>  (64) 
-9.0299999999999994

>  <m_primary>  (64) 
energy

$$$$
64:0
     RDKit          3D

 45 47  0  0  0  0  0  0  0  0999 V2000
   64.4510   33.2150   50.0300 C   0  0  0  0  0  0  0  0  0  0  0  0
   64.7410   32.9180   48.6220 N   0  0  0  0  0  0  0  0  0  0  0  0
   63.7790   33.5600   47.7100 C   0  0  0  0  0  0  0  0  0  0  0  0
   62.5490   32.7150   47.5080 C   0  0  0  0  0  0  0  0  0  0  0  0
   62.5440   31.3520   47.2910 C   0  0  0  0  0  0  0  0  0  0  0  0
   61.2230   30.9920   47.1160 C   0  0  0  0  0  0  0  0  0  0  0  0
   60.7750   29.6170   46.8310 C   0  0  0  0  0  0  0  0  0  0  0  0
   60.7270   29.1520   45.5070 C   0  0  0  0  0  0  0  0  0  0  0  0
   60.3290   27.8400   45.2370 C   0  0  0  0  0  0  0  0  0  0  0  0
   59.9590   26.9910   46.2850 C   0  0  0  0  0  0  0  0  0  0  0  0
   59.9810   27.4560   47.6020 C   0  0  0  0  0  0  0  0  0  0  0  0
   60.3840   28.7670   47.8770 C   0  0  0  0  0  0  0  0  0  0  0  0
   60.4170   32.0730   47.2390 N   0  0  0  0  0  0  0  0  0  0  0  0
   58.6700   32.0730   47.2520 S   0  0  0  0  0  0  0  0  0  0  0  0
   58.1480   31.2190   48.3720 O   0  0  0  0  0  0  0  0  0  0  0  0
   58.1850   33.4810   47.4520 O   0  0  0  0  0  0  0  0  0  0  0  0
   58.0390   31.4040   45.7400 C   0  0  0  0  0  0  0  0  0  0  0  0
   57.5390   30.0920   45.7180 C   0  0  0  0  0  0  0  0  0  0  0  0
   56.9900   29.5630   44.5480 C   0  0  0  0  0  0  0  0  0  0  0  0
   56.9420   30.3350   43.3860 C   0  0  0  0  0  0  0  0  0  0  0  0
   57.4520   31.6350   43.3900 C   0  0  0  0  0  0  0  0  0  0  0  0
   58.0040   32.1760   44.5580 C   0  0  0  0  0  0  0  0  0  0  0  0
   58.6280   33.8200   44.5010 Cl  0  0  0  0  0  0  0  0  0  0  0  0
   61.2260   33.1380   47.4520 C   0  0  0  0  0  0  0  0  0  0  0  0
   60.7500   34.5460   47.6630 C   0  0  0  0  0  0  0  0  0  0  0  0
   65.0735   32.5774   50.6750 H   0  0  0  0  0  0  0  0  0  0  0  0
   64.6737   34.2725   50.2351 H   0  0  0  0  0  0  0  0  0  0  0  0
   63.3885   33.0176   50.2351 H   0  0  0  0  0  0  0  0  0  0  0  0
   64.7430   31.8810   48.4810 H   0  0  0  0  0  0  0  0  0  0  0  0
   65.6990   33.2800   48.4020 H   0  0  0  0  0  0  0  0  0  0  0  0
   63.4790   34.5295   48.1342 H   0  0  0  0  0  0  0  0  0  0  0  0
   64.2684   33.6897   46.7335 H   0  0  0  0  0  0  0  0  0  0  0  0
   63.4185   30.6854   47.2631 H   0  0  0  0  0  0  0  0  0  0  0  0
   61.0035   29.8224   44.6799 H   0  0  0  0  0  0  0  0  0  0  0  0
   60.3067   27.4748   44.1996 H   0  0  0  0  0  0  0  0  0  0  0  0
   59.6506   25.9568   46.0721 H   0  0  0  0  0  0  0  0  0  0  0  0
   59.6809   26.7900   48.4244 H   0  0  0  0  0  0  0  0  0  0  0  0
   60.3944   29.1322   48.9146 H   0  0  0  0  0  0  0  0  0  0  0  0
   57.5801   29.4766   46.6288 H   0  0  0  0  0  0  0  0  0  0  0  0
   56.5948   28.5365   44.5421 H   0  0  0  0  0  0  0  0  0  0  0  0
   56.5025   29.9194   42.4673 H   0  0  0  0  0  0  0  0  0  0  0  0
   57.4200   32.2377   42.4704 H   0  0  0  0  0  0  0  0  0  0  0  0
   60.6804   34.7518   48.7413 H   0  0  0  0  0  0  0  0  0  0  0  0
   61.4612   35.2466   47.2011 H   0  0  0  0  0  0  0  0  0  0  0  0
   59.7596   34.6713   47.2011 H   0  0  0  0  0  0  0  0  0  0  0  0
  1  2  1  0
  2  3  1  0
  3  4  1  0
  4  5  1  0
  5  6  2  0
  6  7  1  0
  7  8  2  0
  8  9  1  0
  9 10  2  0
 10 11  1  0
 11 12  2  0
  6 13  1  0
 13 14  1  0
 14 15  2  0
 14 16  2  0
 14 17  1  0
 17 18  2  0
 18 19  1  0
 19 20  2  0
 20 21  1  0
 21 22  2  0
 22 23  1  0
 13 24  1  0
 24 25  1  0
 24  4  2  0
 12  7  1  0
 22 17  1  0
  1 26  1  0
  1 27  1  0
  1 28  1  0
  2 29  1  0
  2 30  1  0
  3 31  1  0
  3 32  1  0
  5 33  1  0
  8 34  1  0
  9 35  1  0
 10 36  1  0
 11 37  1  0
 12 38  1  0
 18 39  1  0
 19 40  1  0
 20 41  1  0
 21 42  1  0
 25 43  1  0
 25 44  1  0
 25 45  1  0
M  CHG  1   2   1
M  END
>  <UniqueID>  (65) 
58

>  <SMILES>  (65) 
C[NH2+]Cc1cc(-c2ccccc2)n(S(=O)(=O)c2ccccc2Cl)c1C

>  <Energy>  (65) 
77.91445339547339

>  <Genealogy>  (65) 
C[NH2+]Cc1cc(-c2ccccc2)n(S(=O)(=O)c2ccccc2Cl)c1C (protonated)
C[NH2+]Cc1cc(-c2ccccc2)n(S(=O)(=O)c2ccccc2Cl)c1C (3D coordinates assigned)
C[NH2+]Cc1cc(-c2ccccc2)n(S(=O)(=O)c2ccccc2Cl)c1C (optimized conformer: 77.91445339547339 kcal/mol)

>  <smiles>  (65) 
CNCc1cc(-c2ccccc2)n(S(=O)(=O)c2ccccc2Cl)c1C

>  <score_type>  (65) 
oracle

>  <origin>  (65) 
adg

>  <m_score__min__energy>  (65) 
-7.25

>  <m_primary>  (65) 
energy

$$$$
65:0
     RDKit          3D

 44 46  0  0  0  0  0  0  0  0999 V2000
   64.4640   32.3470   49.3970 C   0  0  0  0  0  0  0  0  0  0  0  0
   63.4010   32.7270   48.4040 C   0  0  0  0  0  0  0  0  0  0  0  0
   63.7330   33.5170   47.2910 C   0  0  0  0  0  0  0  0  0  0  0  0
   62.7570   33.8750   46.3580 C   0  0  0  0  0  0  0  0  0  0  0  0
   61.4250   33.4570   46.5260 C   0  0  0  0  0  0  0  0  0  0  0  0
   60.3940   33.8380   45.5970 N   0  0  0  0  0  0  0  0  0  0  0  0
   58.7010   33.7310   45.9640 S   0  0  0  0  0  0  0  0  0  0  0  0
   58.4810   34.1300   47.3970 O   0  0  0  0  0  0  0  0  0  0  0  0
   57.9340   34.6640   45.0700 O   0  0  0  0  0  0  0  0  0  0  0  0
   58.1440   32.0860   45.6800 C   0  0  0  0  0  0  0  0  0  0  0  0
   57.2890   31.7920   44.6090 C   0  0  0  0  0  0  0  0  0  0  0  0
   56.7650   30.5040   44.4620 C   0  0  0  0  0  0  0  0  0  0  0  0
   57.0760   29.5050   45.3930 C   0  0  0  0  0  0  0  0  0  0  0  0
   56.4730   28.2120   45.2550 N   0  0  0  0  0  0  0  0  0  0  0  0
   57.0230   26.9690   45.7150 C   0  0  0  0  0  0  0  0  0  0  0  0
   58.2690   26.8900   45.8830 O   0  0  0  0  0  0  0  0  0  0  0  0
   56.1560   25.7610   46.0080 C   0  0  2  0  0  0  0  0  0  0  0  0
   56.4040   24.6180   45.0380 C   0  0  0  0  0  0  0  0  0  0  0  0
   55.0920   23.8820   45.0430 C   0  0  0  0  0  0  0  0  0  0  0  0
   54.1110   24.8890   45.6240 C   0  0  0  0  0  0  0  0  0  0  0  0
   54.7900   26.0870   45.9170 O   0  0  0  0  0  0  0  0  0  0  0  0
   57.9830   29.7850   46.4280 C   0  0  0  0  0  0  0  0  0  0  0  0
   58.5070   31.0710   46.5740 C   0  0  0  0  0  0  0  0  0  0  0  0
   61.0970   32.6510   47.6250 C   0  0  0  0  0  0  0  0  0  0  0  0
   62.0720   32.2870   48.5620 C   0  0  0  0  0  0  0  0  0  0  0  0
   61.5940   31.2790   49.9250 Cl  0  0  0  0  0  0  0  0  0  0  0  0
   64.0782   32.4849   50.4179 H   0  0  0  0  0  0  0  0  0  0  0  0
   64.7434   31.2933   49.2498 H   0  0  0  0  0  0  0  0  0  0  0  0
   65.3481   32.9848   49.2498 H   0  0  0  0  0  0  0  0  0  0  0  0
   64.7701   33.8565   47.1530 H   0  0  0  0  0  0  0  0  0  0  0  0
   63.0321   34.4875   45.4867 H   0  0  0  0  0  0  0  0  0  0  0  0
   60.6520   34.0340   44.6050 H   0  0  0  0  0  0  0  0  0  0  0  0
   57.0297   32.5762   43.8825 H   0  0  0  0  0  0  0  0  0  0  0  0
   56.1059   30.2745   43.6118 H   0  0  0  0  0  0  0  0  0  0  0  0
   56.4237   25.4465   47.0275 H   0  0  0  0  0  0  0  0  0  0  0  0
   56.6416   24.9965   44.0329 H   0  0  0  0  0  0  0  0  0  0  0  0
   57.2580   23.9853   45.3216 H   0  0  0  0  0  0  0  0  0  0  0  0
   54.8000   23.5952   44.0220 H   0  0  0  0  0  0  0  0  0  0  0  0
   55.1321   22.9465   45.6203 H   0  0  0  0  0  0  0  0  0  0  0  0
   53.3135   25.0884   44.8931 H   0  0  0  0  0  0  0  0  0  0  0  0
   53.6689   24.4821   46.5454 H   0  0  0  0  0  0  0  0  0  0  0  0
   58.2815   28.9888   47.1258 H   0  0  0  0  0  0  0  0  0  0  0  0
   59.2074   31.2876   47.3941 H   0  0  0  0  0  0  0  0  0  0  0  0
   60.0622   32.3005   47.7528 H   0  0  0  0  0  0  0  0  0  0  0  0
  1  2  1  0
  2  3  2  0
  3  4  1  0
  4  5  2  0
  5  6  1  0
  6  7  1  0
  7  8  2  0
  7  9  2  0
  7 10  1  0
 10 11  2  0
 11 12  1  0
 12 13  2  0
 13 14  1  0
 14 15  1  0
 15 16  2  0
 15 17  1  0
 17 18  1  0
 18 19  1  0
 19 20  1  0
 20 21  1  0
 13 22  1  0
 22 23  2  0
  5 24  1  0
 24 25  2  0
 25 26  1  0
 25  2  1  0
 23 10  1  0
 21 17  1  0
  1 27  1  0
  1 28  1  0
  1 29  1  0
  3 30  1  0
  4 31  1  0
  6 32  1  0
 11 33  1  0
 12 34  1  0
 17 35  1  1
 18 36  1  0
 18 37  1  0
 19 38  1  0
 19 39  1  0
 20 40  1  0
 20 41  1  0
 22 42  1  0
 23 43  1  0
 24 44  1  0
M  CHG  1  14  -1
M  END
>  <UniqueID>  (66) 
59

>  <SMILES>  (66) 
Cc1ccc(NS(=O)(=O)c2ccc([N-]C(=O)[C@@H]3CCCO3)cc2)cc1Cl

>  <Energy>  (66) 
51.86453608816181

>  <Genealogy>  (66) 
Cc1ccc(NS(=O)(=O)c2ccc([N-]C(=O)C3CCCO3)cc2)cc1Cl (protonated)
Cc1ccc(NS(=O)(=O)c2ccc([N-]C(=O)[C@@H]3CCCO3)cc2)cc1Cl (chirality)
Cc1ccc(NS(=O)(=O)c2ccc([N-]C(=O)[C@@H]3CCCO3)cc2)cc1Cl (3D coordinates assigned)
Cc1ccc(NS(=O)(=O)c2ccc([N-]C(=O)[C@@H]3CCCO3)cc2)cc1Cl (nonaromatic ring conformer: 51.86453608816181 kcal/mol)

>  <smiles>  (66) 
Cc1ccc(NS(=O)(=O)c2ccc(NC(=O)C3CCCO3)cc2)cc1Cl

>  <score_type>  (66) 
oracle

>  <origin>  (66) 
adg

>  <m_score__min__energy>  (66) 
-10.77

>  <m_primary>  (66) 
energy

$$$$
66:0
     RDKit          3D

 28 29  0  0  0  0  0  0  0  0999 V2000
   55.1430   27.4610   45.6100 H   0  0  0  0  0  0  0  0  0  0  0  0
   54.8840   26.6910   46.2150 O   0  0  0  0  0  0  0  0  0  0  0  0
   57.2420   27.6580   45.8120 N   0  0  0  0  0  0  0  0  0  0  0  0
   56.5200   25.2580   45.3380 C   0  0  0  0  0  0  0  0  0  0  0  0
   57.4690   26.3850   45.1890 C   0  0  0  0  0  0  0  0  0  0  0  0
   58.4710   26.2500   44.4390 O   0  0  0  0  0  0  0  0  0  0  0  0
   55.4190   25.4420   46.0040 N   0  0  0  0  0  0  0  0  0  0  0  0
   57.0730   28.7940   45.1970 C   0  0  0  0  0  0  0  0  0  0  0  0
   55.8240   29.2510   44.8920 N   0  0  0  0  0  0  0  0  0  0  0  0
   55.6270   30.4440   44.2690 C   0  0  0  0  0  0  0  0  0  0  0  0
   54.6062   30.7792   44.0331 H   0  0  0  0  0  0  0  0  0  0  0  0
   56.7200   31.2430   43.9290 C   0  0  0  0  0  0  0  0  0  0  0  0
   56.5681   32.2073   43.4219 H   0  0  0  0  0  0  0  0  0  0  0  0
   58.0080   30.8040   44.2400 C   0  0  0  0  0  0  0  0  0  0  0  0
   58.8786   31.4248   43.9819 H   0  0  0  0  0  0  0  0  0  0  0  0
   58.1900   29.5760   44.8790 C   0  0  0  0  0  0  0  0  0  0  0  0
   59.2021   29.2260   45.1304 H   0  0  0  0  0  0  0  0  0  0  0  0
   56.8170   23.9550   44.6920 C   0  0  0  0  0  0  0  0  0  0  0  0
   56.2880   23.6560   43.4240 C   0  0  0  0  0  0  0  0  0  0  0  0
   55.6427   24.3869   42.9146 H   0  0  0  0  0  0  0  0  0  0  0  0
   56.5770   22.4360   42.8070 C   0  0  0  0  0  0  0  0  0  0  0  0
   56.1566   22.2076   41.8165 H   0  0  0  0  0  0  0  0  0  0  0  0
   57.4000   21.5060   43.4480 C   0  0  0  0  0  0  0  0  0  0  0  0
   57.6265   20.5456   42.9619 H   0  0  0  0  0  0  0  0  0  0  0  0
   57.9350   21.7950   44.7050 C   0  0  0  0  0  0  0  0  0  0  0  0
   58.5831   21.0616   45.2070 H   0  0  0  0  0  0  0  0  0  0  0  0
   57.6490   23.0150   45.3280 C   0  0  0  0  0  0  0  0  0  0  0  0
   58.1650   23.2680   46.5580 F   0  0  0  0  0  0  0  0  0  0  0  0
  1  2  1  0
  2  3  1  0
  3  4  2  0
  4  5  1  0
  5  6  2  0
  5  7  1  0
  7  8  2  0
  8  9  1  0
  9 10  1  0
 10 11  1  0
 10 12  2  0
 12 13  1  0
 12 14  1  0
 14 15  1  0
 14 16  2  0
 16 17  1  0
  4 18  1  0
 18 19  2  0
 19 20  1  0
 19 21  1  0
 21 22  1  0
 21 23  2  0
 23 24  1  0
 23 25  1  0
 25 26  1  0
 25 27  2  0
 27 28  1  0
 16  8  1  0
 27 18  1  0
M  CHG  1   9  -1
M  END
>  <UniqueID>  (67) 
60

>  <SMILES>  (67) 
O=C(/N=c1/cccc[n-]1)/C(=N/O)c1ccccc1F

>  <Energy>  (67) 
41.73631206621915

>  <Genealogy>  (67) 
O=C(N=c1cccc[n-]1)C(=NO)c1ccccc1F (protonated)
O=C(/N=c1/cccc[n-]1)/C(=N/O)c1ccccc1F (cis-trans isomerization)
O=C(/N=c1/cccc[n-]1)/C(=N/O)c1ccccc1F (3D coordinates assigned)
O=C(/N=c1/cccc[n-]1)/C(=N/O)c1ccccc1F (optimized conformer: 41.73631206621915 kcal/mol)

>  <smiles>  (67) 
O=C(N=c1cccc[nH]1)C(=NO)c1ccccc1F

>  <score_type>  (67) 
oracle

>  <origin>  (67) 
adg

>  <m_score__min__energy>  (67) 
-9.4100000000000001

>  <m_primary>  (67) 
energy

$$$$
67:0
     RDKit          3D

 38 40  0  0  0  0  0  0  0  0999 V2000
   56.2830   30.6220   43.1130 O   0  0  0  0  0  0  0  0  0  0  0  0
   56.8380   30.5730   44.2430 C   0  0  0  0  0  0  0  0  0  0  0  0
   56.8830   31.7680   45.0360 N   0  0  0  0  0  0  0  0  0  0  0  0
   58.0660   32.3960   45.5540 C   0  0  0  0  0  0  0  0  0  0  0  0
   58.4240   33.7030   45.1930 C   0  0  0  0  0  0  0  0  0  0  0  0
   59.5910   34.2790   45.6980 C   0  0  0  0  0  0  0  0  0  0  0  0
   60.4350   33.5550   46.5560 C   0  0  0  0  0  0  0  0  0  0  0  0
   60.0760   32.2370   46.9210 C   0  0  0  0  0  0  0  0  0  0  0  0
   58.9060   31.6630   46.3980 C   0  0  0  0  0  0  0  0  0  0  0  0
   60.9760   31.4210   47.8090 C   0  0  0  0  0  0  0  0  0  0  0  0
   62.3630   31.2220   47.1730 C   0  0  0  0  0  0  0  0  0  0  0  0
   63.3220   32.3030   47.4750 N   0  0  0  0  0  0  0  0  0  0  0  0
   63.0400   33.5530   46.7430 C   0  0  0  0  0  0  0  0  0  0  0  0
   61.6830   34.2220   47.1080 C   0  0  0  0  0  0  0  0  0  0  0  0
   57.4680   29.3090   44.6890 C   0  0  0  0  0  0  0  0  0  0  0  0
   58.8410   29.0770   44.4900 C   0  0  0  0  0  0  0  0  0  0  0  0
   59.4250   27.8790   44.9140 C   0  0  0  0  0  0  0  0  0  0  0  0
   58.6440   26.8970   45.5300 C   0  0  0  0  0  0  0  0  0  0  0  0
   59.4440   25.2620   46.1080 Br  0  0  0  0  0  0  0  0  0  0  0  0
   57.2750   27.1110   45.7180 C   0  0  0  0  0  0  0  0  0  0  0  0
   56.6870   28.3080   45.2960 C   0  0  0  0  0  0  0  0  0  0  0  0
   57.7821   34.2771   44.5086 H   0  0  0  0  0  0  0  0  0  0  0  0
   59.8524   35.3110   45.4210 H   0  0  0  0  0  0  0  0  0  0  0  0
   58.6474   30.6252   46.6551 H   0  0  0  0  0  0  0  0  0  0  0  0
   61.0949   31.9399   48.7716 H   0  0  0  0  0  0  0  0  0  0  0  0
   60.5162   30.4321   47.9525 H   0  0  0  0  0  0  0  0  0  0  0  0
   62.7812   30.2747   47.5442 H   0  0  0  0  0  0  0  0  0  0  0  0
   62.2164   31.2215   46.0828 H   0  0  0  0  0  0  0  0  0  0  0  0
   63.2460   32.5070   48.5000 H   0  0  0  0  0  0  0  0  0  0  0  0
   64.3050   31.9860   47.3110 H   0  0  0  0  0  0  0  0  0  0  0  0
   63.8460   34.2688   46.9621 H   0  0  0  0  0  0  0  0  0  0  0  0
   62.9806   33.2854   45.6777 H   0  0  0  0  0  0  0  0  0  0  0  0
   61.5995   34.2343   48.2048 H   0  0  0  0  0  0  0  0  0  0  0  0
   61.7128   35.2190   46.6442 H   0  0  0  0  0  0  0  0  0  0  0  0
   59.4591   29.8424   43.9980 H   0  0  0  0  0  0  0  0  0  0  0  0
   60.5012   27.7092   44.7624 H   0  0  0  0  0  0  0  0  0  0  0  0
   56.6593   26.3365   46.1987 H   0  0  0  0  0  0  0  0  0  0  0  0
   55.6082   28.4678   45.4394 H   0  0  0  0  0  0  0  0  0  0  0  0
  1  2  2  0
  2  3  1  0
  3  4  1  0
  4  5  2  0
  5  6  1  0
  6  7  2  0
  7  8  1  0
  8  9  2  0
  8 10  1  0
 10 11  1  0
 11 12  1  0
 12 13  1  0
 13 14  1  0
  2 15  1  0
 15 16  2  0
 16 17  1  0
 17 18  2  0
 18 19  1  0
 18 20  1  0
 20 21  2  0
  9  4  1  0
 21 15  1  0
 14  7  1  0
  5 22  1  0
  6 23  1  0
  9 24  1  0
 10 25  1  0
 10 26  1  0
 11 27  1  0
 11 28  1  0
 12 29  1  0
 12 30  1  0
 13 31  1  0
 13 32  1  0
 14 33  1  0
 14 34  1  0
 16 35  1  0
 17 36  1  0
 20 37  1  0
 21 38  1  0
M  CHG  2   3  -1  12   1
M  END
>  <UniqueID>  (68) 
61

>  <SMILES>  (68) 
O=C([N-]c1ccc2c(c1)CC[NH2+]CC2)c1ccc(Br)cc1

>  <Energy>  (68) 
57.034481468228414

>  <Genealogy>  (68) 
O=C([N-]c1ccc2c(c1)CC[NH2+]CC2)c1ccc(Br)cc1 (protonated)
O=C([N-]c1ccc2c(c1)CC[NH2+]CC2)c1ccc(Br)cc1 (3D coordinates assigned)
O=C([N-]c1ccc2c(c1)CC[NH2+]CC2)c1ccc(Br)cc1 (nonaromatic ring conformer: 57.034481468228414 kcal/mol)

>  <smiles>  (68) 
O=C(Nc1ccc2c(c1)CCNCC2)c1ccc(Br)cc1

>  <score_type>  (68) 
oracle

>  <origin>  (68) 
adg

>  <m_score__min__energy>  (68) 
-6.4800000000000004

>  <m_primary>  (68) 
energy

$$$$
68:0
     RDKit          3D

 31 33  0  0  0  0  0  0  0  0999 V2000
   65.1100   32.1090   50.1960 C   0  0  0  0  0  0  0  0  0  0  0  0
   64.2400   32.4170   49.0180 C   0  0  0  0  0  0  0  0  0  0  0  0
   63.1590   31.5830   48.7000 C   0  0  0  0  0  0  0  0  0  0  0  0
   62.3580   31.8900   47.5950 C   0  0  0  0  0  0  0  0  0  0  0  0
   61.2450   31.0470   47.2510 C   0  0  0  0  0  0  0  0  0  0  0  0
   60.3120   30.3400   46.9630 C   0  0  0  0  0  0  0  0  0  0  0  0
   59.1990   29.4950   46.6190 C   0  0  0  0  0  0  0  0  0  0  0  0
   58.1520   30.0000   45.8340 C   0  0  0  0  0  0  0  0  0  0  0  0
   57.0680   29.1850   45.4970 C   0  0  0  0  0  0  0  0  0  0  0  0
   57.0210   27.8600   45.9410 C   0  0  0  0  0  0  0  0  0  0  0  0
   55.9880   27.0850   45.6190 O   0  0  0  0  0  0  0  0  0  0  0  0
   55.8920   25.8190   46.0140 C   0  0  0  0  0  0  0  0  0  0  0  0
   54.8900   25.1350   45.6780 O   0  0  0  0  0  0  0  0  0  0  0  0
   56.8970   25.2440   46.8010 C   0  0  0  0  0  0  0  0  0  0  0  0
   57.9990   26.0190   47.1620 C   0  0  0  0  0  0  0  0  0  0  0  0
   58.0740   27.3470   46.7320 C   0  0  0  0  0  0  0  0  0  0  0  0
   59.1600   28.1680   47.0690 C   0  0  0  0  0  0  0  0  0  0  0  0
   62.6450   33.0220   46.8250 C   0  0  0  0  0  0  0  0  0  0  0  0
   63.7310   33.8290   47.1750 C   0  0  0  0  0  0  0  0  0  0  0  0
   64.4970   33.5130   48.2520 N   0  0  0  0  0  0  0  0  0  0  0  0
   64.5536   32.3060   51.1242 H   0  0  0  0  0  0  0  0  0  0  0  0
   65.4082   31.0507   50.1648 H   0  0  0  0  0  0  0  0  0  0  0  0
   66.0077   32.7440   50.1648 H   0  0  0  0  0  0  0  0  0  0  0  0
   62.9428   30.6959   49.3134 H   0  0  0  0  0  0  0  0  0  0  0  0
   58.1843   31.0417   45.4822 H   0  0  0  0  0  0  0  0  0  0  0  0
   56.2499   29.5868   44.8811 H   0  0  0  0  0  0  0  0  0  0  0  0
   56.8187   24.1971   47.1296 H   0  0  0  0  0  0  0  0  0  0  0  0
   58.8016   25.5892   47.7793 H   0  0  0  0  0  0  0  0  0  0  0  0
   59.9800   27.7712   47.6856 H   0  0  0  0  0  0  0  0  0  0  0  0
   62.0228   33.2742   45.9537 H   0  0  0  0  0  0  0  0  0  0  0  0
   63.9662   34.7220   46.5773 H   0  0  0  0  0  0  0  0  0  0  0  0
  1  2  1  0
  2  3  2  0
  3  4  1  0
  4  5  1  0
  5  6  3  0
  6  7  1  0
  7  8  2  0
  8  9  1  0
  9 10  2  0
 10 11  1  0
 11 12  1  0
 12 13  2  0
 12 14  1  0
 14 15  2  0
 15 16  1  0
 16 17  2  0
  4 18  2  0
 18 19  1  0
 19 20  2  0
 20  2  1  0
 17  7  1  0
 16 10  1  0
  1 21  1  0
  1 22  1  0
  1 23  1  0
  3 24  1  0
  8 25  1  0
  9 26  1  0
 14 27  1  0
 15 28  1  0
 17 29  1  0
 18 30  1  0
 19 31  1  0
M  END
>  <UniqueID>  (69) 
62

>  <SMILES>  (69) 
Cc1cc(C#Cc2ccc3oc(=O)ccc3c2)ccn1

>  <Energy>  (69) 
33.421937769781955

>  <Genealogy>  (69) 
Cc1cc(C#Cc2ccc3oc(=O)ccc3c2)ccn1 (3D coordinates assigned)
Cc1cc(C#Cc2ccc3oc(=O)ccc3c2)ccn1 (optimized conformer: 33.421937769781955 kcal/mol)

>  <smiles>  (69) 
Cc1cc(C#Cc2ccc3oc(=O)ccc3c2)ccn1

>  <score_type>  (69) 
oracle

>  <origin>  (69) 
adg

>  <m_score__min__energy>  (69) 
-6.4699999999999998

>  <m_primary>  (69) 
energy

$$$$
69:0
     RDKit          3D

 37 38  0  0  0  0  0  0  0  0999 V2000
   56.6490   24.0730   43.0200 C   0  0  0  0  0  0  0  0  0  0  0  0
   56.2590   22.7080   43.4760 C   0  0  0  0  0  0  0  0  0  0  0  0
   55.9120   21.8410   42.6290 O   0  0  0  0  0  0  0  0  0  0  0  0
   56.2290   22.4100   44.8730 N   0  0  0  0  0  0  0  0  0  0  0  0
   57.5400   22.8010   45.9340 S   0  0  0  0  0  0  0  0  0  0  0  0
   58.8220   22.2750   45.3530 O   0  0  0  0  0  0  0  0  0  0  0  0
   57.2990   22.1470   47.2660 O   0  0  0  0  0  0  0  0  0  0  0  0
   57.6650   24.5480   46.1170 C   0  0  0  0  0  0  0  0  0  0  0  0
   56.5050   25.3250   46.2190 C   0  0  0  0  0  0  0  0  0  0  0  0
   56.5980   26.7120   46.3670 C   0  0  0  0  0  0  0  0  0  0  0  0
   57.8510   27.3430   46.3950 C   0  0  0  0  0  0  0  0  0  0  0  0
   57.9200   28.7680   46.5700 N   0  0  0  0  0  0  0  0  0  0  0  0
   57.4040   29.7160   45.6190 C   0  0  0  0  0  0  0  0  0  0  0  0
   56.5120   29.3570   44.8030 O   0  0  0  0  0  0  0  0  0  0  0  0
   57.8690   31.1240   45.6200 C   0  0  0  0  0  0  0  0  0  0  0  0
   58.6290   31.6330   46.6870 C   0  0  0  0  0  0  0  0  0  0  0  0
   59.0690   32.9610   46.6760 C   0  0  0  0  0  0  0  0  0  0  0  0
   58.7640   33.8070   45.5970 C   0  0  0  0  0  0  0  0  0  0  0  0
   59.2190   35.1720   45.5900 N   0  0  0  0  0  0  0  0  0  0  0  0
   59.2530   35.8270   44.5270 O   0  0  0  0  0  0  0  0  0  0  0  0
   59.6230   35.7810   46.7560 O   0  0  0  0  0  0  0  0  0  0  0  0
   58.0130   33.2940   44.5250 C   0  0  0  0  0  0  0  0  0  0  0  0
   57.5730   31.9670   44.5350 C   0  0  0  0  0  0  0  0  0  0  0  0
   59.0140   26.5560   46.3070 C   0  0  0  0  0  0  0  0  0  0  0  0
   58.9200   25.1690   46.1610 C   0  0  0  0  0  0  0  0  0  0  0  0
   56.8320   24.7136   43.8953 H   0  0  0  0  0  0  0  0  0  0  0  0
   57.5649   24.0094   42.4142 H   0  0  0  0  0  0  0  0  0  0  0  0
   55.8377   24.5029   42.4142 H   0  0  0  0  0  0  0  0  0  0  0  0
   55.5171   24.8426   46.1826 H   0  0  0  0  0  0  0  0  0  0  0  0
   55.6819   27.3133   46.4622 H   0  0  0  0  0  0  0  0  0  0  0  0
   58.2620   29.1310   47.4880 H   0  0  0  0  0  0  0  0  0  0  0  0
   58.8799   30.9821   47.5375 H   0  0  0  0  0  0  0  0  0  0  0  0
   59.6594   33.3463   47.5204 H   0  0  0  0  0  0  0  0  0  0  0  0
   57.7694   33.9426   43.6706 H   0  0  0  0  0  0  0  0  0  0  0  0
   56.9902   31.5794   43.6864 H   0  0  0  0  0  0  0  0  0  0  0  0
   60.0031   27.0351   46.3534 H   0  0  0  0  0  0  0  0  0  0  0  0
   59.8345   24.5631   46.0804 H   0  0  0  0  0  0  0  0  0  0  0  0
  1  2  1  0
  2  3  2  0
  2  4  1  0
  4  5  1  0
  5  6  2  0
  5  7  2  0
  5  8  1  0
  8  9  2  0
  9 10  1  0
 10 11  2  0
 11 12  1  0
 12 13  1  0
 13 14  2  0
 13 15  1  0
 15 16  2  0
 16 17  1  0
 17 18  2  0
 18 19  1  0
 19 20  2  0
 19 21  1  0
 18 22  1  0
 22 23  2  0
 11 24  1  0
 24 25  2  0
 25  8  1  0
 23 15  1  0
  1 26  1  0
  1 27  1  0
  1 28  1  0
  9 29  1  0
 10 30  1  0
 12 31  1  0
 16 32  1  0
 17 33  1  0
 22 34  1  0
 23 35  1  0
 24 36  1  0
 25 37  1  0
M  CHG  3   4  -1  19   1  21  -1
M  END
>  <UniqueID>  (70) 
63

>  <SMILES>  (70) 
CC(=O)[N-]S(=O)(=O)c1ccc(NC(=O)c2ccc([N+](=O)[O-])cc2)cc1

>  <Energy>  (70) 
44.508112916800876

>  <Genealogy>  (70) 
CC(=O)[N-]S(=O)(=O)c1ccc(NC(=O)c2ccc([N+](=O)[O-])cc2)cc1 (protonated)
CC(=O)[N-]S(=O)(=O)c1ccc(NC(=O)c2ccc([N+](=O)[O-])cc2)cc1 (3D coordinates assigned)
CC(=O)[N-]S(=O)(=O)c1ccc(NC(=O)c2ccc([N+](=O)[O-])cc2)cc1 (optimized conformer: 44.508112916800876 kcal/mol)

>  <smiles>  (70) 
CC(=O)NS(=O)(=O)c1ccc(NC(=O)c2ccc([N+](=O)[O-])cc2)cc1

>  <score_type>  (70) 
oracle

>  <origin>  (70) 
adg

>  <m_score__min__energy>  (70) 
-9.2599999999999998

>  <m_primary>  (70) 
energy

$$$$
70:0
     RDKit          3D

 27 28  0  0  0  0  0  0  0  0999 V2000
   57.6830   22.0420   43.8270 C   0  0  0  0  0  0  0  0  0  0  0  0
   57.5800   22.9320   44.9760 N   0  0  0  0  0  0  0  0  0  0  0  0
   56.3130   23.2900   45.5420 C   0  0  0  0  0  0  0  0  0  0  0  0
   55.2460   22.8350   45.0480 O   0  0  0  0  0  0  0  0  0  0  0  0
   56.2440   24.2450   46.6960 C   0  0  0  0  0  0  0  0  0  0  0  0
   56.6940   25.6220   46.2620 C   0  0  0  0  0  0  0  0  0  0  0  0
   55.7480   26.6140   45.9380 C   0  0  0  0  0  0  0  0  0  0  0  0
   54.3860   26.3400   45.9840 O   0  0  0  0  0  0  0  0  0  0  0  0
   56.1560   27.8560   45.5780 N   0  0  0  0  0  0  0  0  0  0  0  0
   57.4680   28.2000   45.5180 C   0  0  0  0  0  0  0  0  0  0  0  0
   57.8250   29.4970   45.1370 C   0  0  0  0  0  0  0  0  0  0  0  0
   59.1700   29.8670   45.0750 C   0  0  0  0  0  0  0  0  0  0  0  0
   60.1670   28.9410   45.3920 C   0  0  0  0  0  0  0  0  0  0  0  0
   61.4700   29.3100   45.3280 F   0  0  0  0  0  0  0  0  0  0  0  0
   59.8260   27.6380   45.7750 C   0  0  0  0  0  0  0  0  0  0  0  0
   60.8240   26.7680   46.0760 F   0  0  0  0  0  0  0  0  0  0  0  0
   58.4670   27.2510   45.8410 C   0  0  0  0  0  0  0  0  0  0  0  0
   58.0650   25.9530   46.2210 C   0  0  0  0  0  0  0  0  0  0  0  0
   58.9250   25.0810   46.5280 O   0  0  0  0  0  0  0  0  0  0  0  0
   57.8029   21.0056   44.1756 H   0  0  0  0  0  0  0  0  0  0  0  0
   56.7697   22.1210   43.2190 H   0  0  0  0  0  0  0  0  0  0  0  0
   58.5541   22.3275   43.2190 H   0  0  0  0  0  0  0  0  0  0  0  0
   58.4570   23.3160   45.3940 H   0  0  0  0  0  0  0  0  0  0  0  0
   55.2077   24.2996   47.0610 H   0  0  0  0  0  0  0  0  0  0  0  0
   56.9063   23.8872   47.4981 H   0  0  0  0  0  0  0  0  0  0  0  0
   57.0433   30.2288   44.8851 H   0  0  0  0  0  0  0  0  0  0  0  0
   59.4450   30.8893   44.7761 H   0  0  0  0  0  0  0  0  0  0  0  0
  1  2  1  0
  2  3  1  0
  3  4  2  0
  3  5  1  0
  5  6  1  0
  6  7  2  0
  7  8  1  0
  7  9  1  0
  9 10  1  0
 10 11  2  0
 11 12  1  0
 12 13  2  0
 13 14  1  0
 13 15  1  0
 15 16  1  0
 15 17  2  0
 17 18  1  0
 18 19  2  0
 18  6  1  0
 17 10  1  0
  1 20  1  0
  1 21  1  0
  1 22  1  0
  2 23  1  0
  5 24  1  0
  5 25  1  0
 11 26  1  0
 12 27  1  0
M  CHG  2   8  -1   9  -1
M  END
>  <UniqueID>  (71) 
64

>  <SMILES>  (71) 
CNC(=O)Cc1c([O-])[n-]c2ccc(F)c(F)c2c1=O

>  <Energy>  (71) 
30.13528368330526

>  <Genealogy>  (71) 
CNC(=O)Cc1c([O-])[n-]c2ccc(F)c(F)c2c1=O (protonated)
CNC(=O)Cc1c([O-])[n-]c2ccc(F)c(F)c2c1=O (3D coordinates assigned)
CNC(=O)Cc1c([O-])[n-]c2ccc(F)c(F)c2c1=O (optimized conformer: 30.13528368330526 kcal/mol)

>  <smiles>  (71) 
CNC(=O)Cc1c(O)[nH]c2ccc(F)c(F)c2c1=O

>  <score_type>  (71) 
oracle

>  <origin>  (71) 
adg

>  <m_score__min__energy>  (71) 
-11.1

>  <m_primary>  (71) 
energy

$$$$
71:0
     RDKit          3D

 28 29  0  0  0  0  0  0  0  0999 V2000
   57.8520   19.3330   47.2510 C   0  0  0  0  0  0  0  0  0  0  0  0
   57.0900   19.6660   45.9650 C   0  0  0  0  0  0  0  0  0  0  0  0
   57.8420   20.5860   45.0920 N   0  0  0  0  0  0  0  0  0  0  0  0
   57.4430   21.9630   45.2930 C   0  0  0  0  0  0  0  0  0  0  0  0
   56.0740   22.2880   45.2750 C   0  0  0  0  0  0  0  0  0  0  0  0
   55.6420   23.6090   45.4560 C   0  0  0  0  0  0  0  0  0  0  0  0
   54.2760   23.9200   45.4350 C   0  0  0  0  0  0  0  0  0  0  0  0
   53.8710   25.2410   45.6170 C   0  0  0  0  0  0  0  0  0  0  0  0
   54.7940   26.2180   45.8140 N   0  0  0  0  0  0  0  0  0  0  0  0
   56.1280   25.9550   45.8410 C   0  0  0  0  0  0  0  0  0  0  0  0
   56.9370   26.9040   46.0270 O   0  0  0  0  0  0  0  0  0  0  0  0
   56.5880   24.6350   45.6610 C   0  0  0  0  0  0  0  0  0  0  0  0
   57.9560   24.3180   45.6780 C   0  0  0  0  0  0  0  0  0  0  0  0
   58.3950   22.9980   45.4940 C   0  0  0  0  0  0  0  0  0  0  0  0
   59.8070   22.7370   45.5130 N   0  0  0  0  0  0  0  0  0  0  0  0
   57.2364   19.6020   48.1220 H   0  0  0  0  0  0  0  0  0  0  0  0
   58.0738   18.2559   47.2773 H   0  0  0  0  0  0  0  0  0  0  0  0
   58.7931   19.9019   47.2773 H   0  0  0  0  0  0  0  0  0  0  0  0
   56.8994   18.7327   45.4149 H   0  0  0  0  0  0  0  0  0  0  0  0
   56.1510   20.1634   46.2492 H   0  0  0  0  0  0  0  0  0  0  0  0
   57.7000   20.3180   44.0930 H   0  0  0  0  0  0  0  0  0  0  0  0
   58.8680   20.4720   45.2690 H   0  0  0  0  0  0  0  0  0  0  0  0
   55.3310   21.4926   45.1163 H   0  0  0  0  0  0  0  0  0  0  0  0
   53.5294   23.1280   45.2762 H   0  0  0  0  0  0  0  0  0  0  0  0
   52.8005   25.4933   45.6011 H   0  0  0  0  0  0  0  0  0  0  0  0
   58.6949   25.1170   45.8381 H   0  0  0  0  0  0  0  0  0  0  0  0
   60.3740   22.9700   46.3580 H   0  0  0  0  0  0  0  0  0  0  0  0
   60.3190   22.3320   44.7010 H   0  0  0  0  0  0  0  0  0  0  0  0
  1  2  1  0
  2  3  1  0
  3  4  1  0
  4  5  2  0
  5  6  1  0
  6  7  1  0
  7  8  2  0
  8  9  1  0
  9 10  1  0
 10 11  2  0
 10 12  1  0
 12 13  1  0
 13 14  2  0
 14 15  1  0
 14  4  1  0
 12  6  2  0
  1 16  1  0
  1 17  1  0
  1 18  1  0
  2 19  1  0
  2 20  1  0
  3 21  1  0
  3 22  1  0
  5 23  1  0
  7 24  1  0
  8 25  1  0
 13 26  1  0
 15 27  1  0
 15 28  1  0
M  CHG  2   3   1   9  -1
M  END
>  <UniqueID>  (72) 
65

>  <SMILES>  (72) 
CC[NH2+]c1cc2cc[n-]c(=O)c2cc1N

>  <Energy>  (72) 
33.92345570001645

>  <Genealogy>  (72) 
CC[NH2+]c1cc2cc[n-]c(=O)c2cc1N (protonated)
CC[NH2+]c1cc2cc[n-]c(=O)c2cc1N (3D coordinates assigned)
CC[NH2+]c1cc2cc[n-]c(=O)c2cc1N (optimized conformer: 33.92345570001645 kcal/mol)

>  <smiles>  (72) 
CCNc1cc2cc[nH]c(=O)c2cc1N

>  <score_type>  (72) 
oracle

>  <origin>  (72) 
adg

>  <m_score__min__energy>  (72) 
-6.3300000000000001

>  <m_primary>  (72) 
energy

$$$$
72:0
     RDKit          3D

 49 52  0  0  0  0  0  0  0  0999 V2000
   54.7810   29.8800   52.4660 C   0  0  0  0  0  0  0  0  0  0  0  0
   56.1930   29.7120   52.3910 O   0  0  0  0  0  0  0  0  0  0  0  0
   57.0790   30.6790   51.8960 C   0  0  0  0  0  0  0  0  0  0  0  0
   57.1330   32.0000   52.4220 C   0  0  0  0  0  0  0  0  0  0  0  0
   58.0400   32.9410   51.9030 C   0  0  0  0  0  0  0  0  0  0  0  0
   58.8750   32.5410   50.8640 C   0  0  0  0  0  0  0  0  0  0  0  0
   59.8050   33.2840   50.2420 N   0  0  0  0  0  0  0  0  0  0  0  0
   60.3550   32.4800   49.3020 C   0  0  0  0  0  0  0  0  0  0  0  0
   61.3700   32.9520   48.3430 C   0  0  0  0  0  0  0  0  0  0  0  0
   62.7000   32.5420   48.5300 C   0  0  0  0  0  0  0  0  0  0  0  0
   63.6960   32.9340   47.6350 C   0  0  0  0  0  0  0  0  0  0  0  0
   63.3800   33.7600   46.5560 C   0  0  0  0  0  0  0  0  0  0  0  0
   62.0690   34.2070   46.3760 C   0  0  0  0  0  0  0  0  0  0  0  0
   61.0510   33.8190   47.2660 C   0  0  0  0  0  0  0  0  0  0  0  0
   59.6670   34.3860   47.0610 C   0  0  0  0  0  0  0  0  0  0  0  0
   59.2080   34.3000   45.2960 S   0  0  0  0  0  0  0  0  0  0  0  0
   57.4650   33.8830   45.6120 C   0  0  0  0  0  0  0  0  0  0  0  0
   59.7780   31.2040   49.3460 C   0  0  0  0  0  0  0  0  0  0  0  0
   60.1040   30.0290   48.5100 C   0  0  0  0  0  0  0  0  0  0  0  0
   60.7970   29.1020   49.0100 O   0  0  0  0  0  0  0  0  0  0  0  0
   59.6430   29.9140   47.1070 C   0  0  0  0  0  0  0  0  0  0  0  0
   58.5200   30.6380   46.6700 C   0  0  0  0  0  0  0  0  0  0  0  0
   58.0900   30.5430   45.3430 C   0  0  0  0  0  0  0  0  0  0  0  0
   58.7630   29.7130   44.4460 C   0  0  0  0  0  0  0  0  0  0  0  0
   59.8620   28.9650   44.8750 C   0  0  0  0  0  0  0  0  0  0  0  0
   60.2960   29.0580   46.2010 C   0  0  0  0  0  0  0  0  0  0  0  0
   58.8230   31.2730   50.3440 C   0  0  0  0  0  0  0  0  0  0  0  0
   57.9420   30.3140   50.8430 C   0  0  0  0  0  0  0  0  0  0  0  0
   54.4717   29.9168   53.5210 H   0  0  0  0  0  0  0  0  0  0  0  0
   54.4964   30.8183   51.9675 H   0  0  0  0  0  0  0  0  0  0  0  0
   54.2842   29.0346   51.9675 H   0  0  0  0  0  0  0  0  0  0  0  0
   56.4590   32.2878   53.2423 H   0  0  0  0  0  0  0  0  0  0  0  0
   58.0881   33.9632   52.3064 H   0  0  0  0  0  0  0  0  0  0  0  0
   60.0370   34.2860   50.4250 H   0  0  0  0  0  0  0  0  0  0  0  0
   62.9588   31.9063   49.3896 H   0  0  0  0  0  0  0  0  0  0  0  0
   64.7312   32.5915   47.7802 H   0  0  0  0  0  0  0  0  0  0  0  0
   64.1647   34.0598   45.8458 H   0  0  0  0  0  0  0  0  0  0  0  0
   61.8303   34.8687   45.5303 H   0  0  0  0  0  0  0  0  0  0  0  0
   58.9446   33.8053   47.6534 H   0  0  0  0  0  0  0  0  0  0  0  0
   59.6574   35.4373   47.3844 H   0  0  0  0  0  0  0  0  0  0  0  0
   57.2890   33.8409   46.6970 H   0  0  0  0  0  0  0  0  0  0  0  0
   56.8173   34.6515   45.1650 H   0  0  0  0  0  0  0  0  0  0  0  0
   57.2352   32.9045   45.1650 H   0  0  0  0  0  0  0  0  0  0  0  0
   57.9765   31.2830   47.3761 H   0  0  0  0  0  0  0  0  0  0  0  0
   57.2191   31.1240   45.0054 H   0  0  0  0  0  0  0  0  0  0  0  0
   58.4280   29.6476   43.4003 H   0  0  0  0  0  0  0  0  0  0  0  0
   60.3859   28.3030   44.1698 H   0  0  0  0  0  0  0  0  0  0  0  0
   61.1539   28.4578   46.5382 H   0  0  0  0  0  0  0  0  0  0  0  0
   57.9211   29.2968   50.4247 H   0  0  0  0  0  0  0  0  0  0  0  0
  1  2  1  0
  2  3  1  0
  3  4  2  0
  4  5  1  0
  5  6  2  0
  6  7  1  0
  7  8  1  0
  8  9  1  0
  9 10  2  0
 10 11  1  0
 11 12  2  0
 12 13  1  0
 13 14  2  0
 14 15  1  0
 15 16  1  0
 16 17  1  0
  8 18  2  0
 18 19  1  0
 19 20  2  0
 19 21  1  0
 21 22  2  0
 22 23  1  0
 23 24  2  0
 24 25  1  0
 25 26  2  0
 18 27  1  0
 27 28  2  0
 28  3  1  0
 27  6  1  0
 14  9  1  0
 26 21  1  0
  1 29  1  0
  1 30  1  0
  1 31  1  0
  4 32  1  0
  5 33  1  0
  7 34  1  0
 10 35  1  0
 11 36  1  0
 12 37  1  0
 13 38  1  0
 15 39  1  0
 15 40  1  0
 17 41  1  0
 17 42  1  0
 17 43  1  0
 22 44  1  0
 23 45  1  0
 24 46  1  0
 25 47  1  0
 26 48  1  0
 28 49  1  0
M  END
>  <UniqueID>  (73) 
66

>  <SMILES>  (73) 
COc1ccc2[nH]c(-c3ccccc3CSC)c(C(=O)c3ccccc3)c2c1

>  <Energy>  (73) 
92.37678026290277

>  <Genealogy>  (73) 
COc1ccc2[nH]c(-c3ccccc3CSC)c(C(=O)c3ccccc3)c2c1 (3D coordinates assigned)
COc1ccc2[nH]c(-c3ccccc3CSC)c(C(=O)c3ccccc3)c2c1 (optimized conformer: 92.37678026290277 kcal/mol)

>  <smiles>  (73) 
COc1ccc2[nH]c(-c3ccccc3CSC)c(C(=O)c3ccccc3)c2c1

>  <score_type>  (73) 
oracle

>  <origin>  (73) 
adg

>  <m_score__min__energy>  (73) 
-7.9199999999999999

>  <m_primary>  (73) 
energy

$$$$
73:0
     RDKit          3D

 44 47  0  0  0  0  0  0  0  0999 V2000
   58.7666   26.4767   43.3130 H   0  0  0  0  0  0  0  0  0  0  0  0
   57.9610   26.1500   43.9870 C   0  0  0  0  0  0  0  0  0  0  0  0
   57.3070   24.9360   43.7500 C   0  0  0  0  0  0  0  0  0  0  0  0
   57.5936   24.3178   42.8865 H   0  0  0  0  0  0  0  0  0  0  0  0
   56.2880   24.5060   44.6100 C   0  0  0  0  0  0  0  0  0  0  0  0
   55.4530   22.9850   44.3120 S   0  0  0  0  0  0  0  0  0  0  0  0
   53.9800   23.1300   44.5780 O   0  0  0  0  0  0  0  0  0  0  0  0
   55.6550   22.5890   42.8780 O   0  0  0  0  0  0  0  0  0  0  0  0
   56.0930   21.7420   45.3420 N   0  0  0  0  0  0  0  0  0  0  0  0
   56.2240   21.8520   46.6290 C   0  0  0  0  0  0  0  0  0  0  0  0
   57.3780   22.2180   47.2150 N   0  0  0  0  0  0  0  0  0  0  0  0
   57.1500   22.2340   48.4970 O   0  0  0  0  0  0  0  0  0  0  0  0
   55.9090   21.8950   48.7620 C   0  0  0  0  0  0  0  0  0  0  0  0
   55.3220   21.8400   50.1320 C   0  0  0  0  0  0  0  0  0  0  0  0
   56.1262   21.9153   50.8788 H   0  0  0  0  0  0  0  0  0  0  0  0
   54.6197   22.6763   50.2638 H   0  0  0  0  0  0  0  0  0  0  0  0
   54.7872   20.8878   50.2638 H   0  0  0  0  0  0  0  0  0  0  0  0
   55.2460   21.6340   47.5830 C   0  0  0  0  0  0  0  0  0  0  0  0
   54.1995   21.3284   47.4365 H   0  0  0  0  0  0  0  0  0  0  0  0
   55.9400   25.2900   45.7170 C   0  0  0  0  0  0  0  0  0  0  0  0
   55.1511   24.9489   46.4035 H   0  0  0  0  0  0  0  0  0  0  0  0
   56.5910   26.5040   45.9530 C   0  0  0  0  0  0  0  0  0  0  0  0
   56.3154   27.1112   46.8278 H   0  0  0  0  0  0  0  0  0  0  0  0
   57.5970   26.9540   45.0780 C   0  0  0  0  0  0  0  0  0  0  0  0
   58.2970   28.1880   45.3100 N   0  0  0  0  0  0  0  0  0  0  0  0
   59.3330   28.1930   45.1830 H   0  0  0  0  0  0  0  0  0  0  0  0
   57.6370   29.4440   45.5430 C   0  0  0  0  0  0  0  0  0  0  0  0
   56.4540   29.6170   45.1430 O   0  0  0  0  0  0  0  0  0  0  0  0
   58.3380   30.5710   46.1930 C   0  0  0  0  0  0  0  0  0  0  0  0
   59.4380   30.3140   46.8990 O   0  0  0  0  0  0  0  0  0  0  0  0
   60.1380   31.2600   47.5200 C   0  0  0  0  0  0  0  0  0  0  0  0
   61.2810   30.9120   48.2470 C   0  0  0  0  0  0  0  0  0  0  0  0
   61.5972   29.8598   48.3015 H   0  0  0  0  0  0  0  0  0  0  0  0
   62.0220   31.8970   48.9040 C   0  0  0  0  0  0  0  0  0  0  0  0
   62.9179   31.6175   49.4777 H   0  0  0  0  0  0  0  0  0  0  0  0
   61.6290   33.2370   48.8350 C   0  0  0  0  0  0  0  0  0  0  0  0
   62.6500   34.5780   49.7350 Br  0  0  0  0  0  0  0  0  0  0  0  0
   60.4880   33.5970   48.1080 C   0  0  0  0  0  0  0  0  0  0  0  0
   60.1807   34.6519   48.0552 H   0  0  0  0  0  0  0  0  0  0  0  0
   59.7340   32.6120   47.4450 C   0  0  0  0  0  0  0  0  0  0  0  0
   58.5860   32.9210   46.7010 C   0  0  0  0  0  0  0  0  0  0  0  0
   58.1800   34.1100   46.5920 O   0  0  0  0  0  0  0  0  0  0  0  0
   57.8820   31.8940   46.0680 C   0  0  0  0  0  0  0  0  0  0  0  0
   56.9809   32.1185   45.4784 H   0  0  0  0  0  0  0  0  0  0  0  0
  1  2  1  0
  2  3  2  0
  3  4  1  0
  3  5  1  0
  5  6  1  0
  6  7  2  0
  6  8  2  0
  6  9  1  0
  9 10  2  0
 10 11  1  0
 11 12  1  0
 12 13  1  0
 13 14  1  0
 14 15  1  0
 14 16  1  0
 14 17  1  0
 13 18  2  0
 18 19  1  0
  5 20  2  0
 20 21  1  0
 20 22  1  0
 22 23  1  0
 22 24  2  0
 24 25  1  0
 25 26  1  0
 25 27  1  0
 27 28  2  0
 27 29  1  0
 29 30  1  0
 30 31  1  0
 31 32  2  0
 32 33  1  0
 32 34  1  0
 34 35  1  0
 34 36  2  0
 36 37  1  0
 36 38  1  0
 38 39  1  0
 38 40  2  0
 40 41  1  0
 41 42  2  0
 41 43  1  0
 43 44  1  0
 24  2  1  0
 43 29  2  0
 18 10  1  0
 40 31  1  0
M  CHG  1  11  -1
M  END
>  <UniqueID>  (74) 
67

>  <SMILES>  (74) 
Cc1c/c(=N\S(=O)(=O)c2ccc(NC(=O)c3cc(=O)c4cc(Br)ccc4o3)cc2)[n-]o1

>  <Energy>  (74) 
91.04899009215092

>  <Genealogy>  (74) 
Cc1cc(=NS(=O)(=O)c2ccc(NC(=O)c3cc(=O)c4cc(Br)ccc4o3)cc2)[n-]o1 (protonated)
Cc1c/c(=N\S(=O)(=O)c2ccc(NC(=O)c3cc(=O)c4cc(Br)ccc4o3)cc2)[n-]o1 (cis-trans isomerization)
Cc1c/c(=N\S(=O)(=O)c2ccc(NC(=O)c3cc(=O)c4cc(Br)ccc4o3)cc2)[n-]o1 (3D coordinates assigned)
Cc1c/c(=N\S(=O)(=O)c2ccc(NC(=O)c3cc(=O)c4cc(Br)ccc4o3)cc2)[n-]o1 (optimized conformer: 91.04899009215092 kcal/mol)

>  <smiles>  (74) 
Cc1cc(=NS(=O)(=O)c2ccc(NC(=O)c3cc(=O)c4cc(Br)ccc4o3)cc2)[nH]o1

>  <score_type>  (74) 
oracle

>  <origin>  (74) 
adg

>  <m_score__min__energy>  (74) 
-11.16

>  <m_primary>  (74) 
energy

$$$$
74:0
     RDKit          3D

 49 52  0  0  0  0  0  0  0  0999 V2000
   65.7260   32.6680   50.0380 C   0  0  0  0  0  0  0  0  0  0  0  0
   64.4610   32.0310   49.4550 C   0  0  0  0  0  0  0  0  0  0  0  0
   64.1440   32.5520   48.1060 N   0  0  0  0  0  0  0  0  0  0  0  0
   62.9570   33.4260   48.0840 C   0  0  0  0  0  0  0  0  0  0  0  0
   61.7520   32.7350   47.4960 C   0  0  0  0  0  0  0  0  0  0  0  0
   61.4630   31.4070   47.8410 C   0  0  0  0  0  0  0  0  0  0  0  0
   60.3660   30.7510   47.2750 C   0  0  0  0  0  0  0  0  0  0  0  0
   59.5370   31.4150   46.3520 C   0  0  0  0  0  0  0  0  0  0  0  0
   58.3730   30.7180   45.7460 C   0  0  0  0  0  0  0  0  0  0  0  0
   57.4580   31.4230   44.9470 C   0  0  0  0  0  0  0  0  0  0  0  0
   56.3650   30.7670   44.3780 C   0  0  0  0  0  0  0  0  0  0  0  0
   56.1710   29.4020   44.5980 C   0  0  0  0  0  0  0  0  0  0  0  0
   57.0730   28.6750   45.3940 C   0  0  0  0  0  0  0  0  0  0  0  0
   56.8700   27.2270   45.6240 C   0  0  0  0  0  0  0  0  0  0  0  0
   57.8810   26.3200   45.5570 N   0  0  0  0  0  0  0  0  0  0  0  0
   57.2590   25.1610   45.8270 C   0  0  0  0  0  0  0  0  0  0  0  0
   57.8180   23.8800   45.8930 C   0  0  0  0  0  0  0  0  0  0  0  0
   59.2720   23.6470   45.6150 C   0  0  0  0  0  0  0  0  0  0  0  0
   56.9420   22.8070   46.1730 C   0  0  0  0  0  0  0  0  0  0  0  0
   55.5670   23.0430   46.3970 C   0  0  0  0  0  0  0  0  0  0  0  0
   55.0490   24.3490   46.3330 C   0  0  0  0  0  0  0  0  0  0  0  0
   55.9340   25.3840   46.0410 C   0  0  0  0  0  0  0  0  0  0  0  0
   55.6560   26.6890   45.9200 N   0  0  0  0  0  0  0  0  0  0  0  0
   58.1720   29.3420   45.9640 C   0  0  0  0  0  0  0  0  0  0  0  0
   59.8290   32.7470   46.0110 C   0  0  0  0  0  0  0  0  0  0  0  0
   60.9270   33.4010   46.5770 C   0  0  0  0  0  0  0  0  0  0  0  0
   65.6763   32.6429   51.1366 H   0  0  0  0  0  0  0  0  0  0  0  0
   66.6091   32.1071   49.6981 H   0  0  0  0  0  0  0  0  0  0  0  0
   65.8012   33.7114   49.6981 H   0  0  0  0  0  0  0  0  0  0  0  0
   64.6103   30.9432   49.3887 H   0  0  0  0  0  0  0  0  0  0  0  0
   63.6204   32.2796   50.1195 H   0  0  0  0  0  0  0  0  0  0  0  0
   63.9340   31.7340   47.4850 H   0  0  0  0  0  0  0  0  0  0  0  0
   64.9630   33.0470   47.6830 H   0  0  0  0  0  0  0  0  0  0  0  0
   62.7226   33.7313   49.1145 H   0  0  0  0  0  0  0  0  0  0  0  0
   63.1895   34.2958   47.4521 H   0  0  0  0  0  0  0  0  0  0  0  0
   62.1037   30.8779   48.5618 H   0  0  0  0  0  0  0  0  0  0  0  0
   60.1494   29.7090   47.5530 H   0  0  0  0  0  0  0  0  0  0  0  0
   57.6035   32.4986   44.7685 H   0  0  0  0  0  0  0  0  0  0  0  0
   55.6537   31.3278   43.7538 H   0  0  0  0  0  0  0  0  0  0  0  0
   55.3073   28.8926   44.1458 H   0  0  0  0  0  0  0  0  0  0  0  0
   59.8177   23.5595   46.5661 H   0  0  0  0  0  0  0  0  0  0  0  0
   59.3907   22.7184   45.0374 H   0  0  0  0  0  0  0  0  0  0  0  0
   59.6749   24.4920   45.0374 H   0  0  0  0  0  0  0  0  0  0  0  0
   57.3336   21.7800   46.2169 H   0  0  0  0  0  0  0  0  0  0  0  0
   54.8975   22.2000   46.6229 H   0  0  0  0  0  0  0  0  0  0  0  0
   53.9810   24.5463   46.5077 H   0  0  0  0  0  0  0  0  0  0  0  0
   58.8835   28.7814   46.5881 H   0  0  0  0  0  0  0  0  0  0  0  0
   59.1880   33.2792   45.2927 H   0  0  0  0  0  0  0  0  0  0  0  0
   61.1454   34.4431   46.3006 H   0  0  0  0  0  0  0  0  0  0  0  0
  1  2  1  0
  2  3  1  0
  3  4  1  0
  4  5  1  0
  5  6  2  0
  6  7  1  0
  7  8  2  0
  8  9  1  0
  9 10  2  0
 10 11  1  0
 11 12  2  0
 12 13  1  0
 13 14  1  0
 14 15  2  0
 15 16  1  0
 16 17  2  0
 17 18  1  0
 17 19  1  0
 19 20  2  0
 20 21  1  0
 21 22  2  0
 22 23  1  0
 13 24  2  0
  8 25  1  0
 25 26  2  0
 26  5  1  0
 24  9  1  0
 23 14  1  0
 22 16  1  0
  1 27  1  0
  1 28  1  0
  1 29  1  0
  2 30  1  0
  2 31  1  0
  3 32  1  0
  3 33  1  0
  4 34  1  0
  4 35  1  0
  6 36  1  0
  7 37  1  0
 10 38  1  0
 11 39  1  0
 12 40  1  0
 18 41  1  0
 18 42  1  0
 18 43  1  0
 19 44  1  0
 20 45  1  0
 21 46  1  0
 24 47  1  0
 25 48  1  0
 26 49  1  0
M  CHG  2   3   1  23  -1
M  END
>  <UniqueID>  (75) 
68

>  <SMILES>  (75) 
CC[NH2+]Cc1ccc(-c2cccc(-c3nc4c(C)cccc4[n-]3)c2)cc1

>  <Energy>  (75) 
92.11269740489881

>  <Genealogy>  (75) 
CC[NH2+]Cc1ccc(-c2cccc(-c3nc4c(C)cccc4[n-]3)c2)cc1 (protonated)
CC[NH2+]Cc1ccc(-c2cccc(-c3nc4c(C)cccc4[n-]3)c2)cc1 (3D coordinates assigned)
CC[NH2+]Cc1ccc(-c2cccc(-c3nc4c(C)cccc4[n-]3)c2)cc1 (optimized conformer: 92.11269740489881 kcal/mol)

>  <smiles>  (75) 
CCNCc1ccc(-c2cccc(-c3nc4c(C)cccc4[nH]3)c2)cc1

>  <score_type>  (75) 
oracle

>  <origin>  (75) 
adg

>  <m_score__min__energy>  (75) 
-8.5299999999999994

>  <m_primary>  (75) 
energy

$$$$
75:0
     RDKit          3D

 55 57  0  0  0  0  0  0  0  0999 V2000
   56.9290   21.5120   43.3610 C   0  0  0  0  0  0  0  0  0  0  0  0
   55.9590   22.4050   43.8840 O   0  0  0  0  0  0  0  0  0  0  0  0
   56.2330   23.7080   44.3310 C   0  0  0  0  0  0  0  0  0  0  0  0
   57.3680   24.4260   43.8970 C   0  0  0  0  0  0  0  0  0  0  0  0
   57.6120   25.7130   44.3780 C   0  0  0  0  0  0  0  0  0  0  0  0
   56.7130   26.3210   45.2610 C   0  0  0  0  0  0  0  0  0  0  0  0
   56.9860   27.6490   45.7190 N   0  0  0  0  0  0  0  0  0  0  0  0
   56.6290   29.0810   44.8050 S   0  0  0  0  0  0  0  0  0  0  0  0
   55.1410   29.3120   44.8270 O   0  0  0  0  0  0  0  0  0  0  0  0
   57.0480   28.8640   43.3780 O   0  0  0  0  0  0  0  0  0  0  0  0
   57.4860   30.4910   45.4270 C   0  0  0  0  0  0  0  0  0  0  0  0
   58.3850   30.3470   46.4930 C   0  0  0  0  0  0  0  0  0  0  0  0
   59.1050   31.4500   46.9540 C   0  0  0  0  0  0  0  0  0  0  0  0
   58.9410   32.7200   46.3590 C   0  0  0  0  0  0  0  0  0  0  0  0
   59.7680   33.8630   46.8360 C   0  0  0  0  0  0  0  0  0  0  0  0
   59.3050   35.0310   46.7060 O   0  0  0  0  0  0  0  0  0  0  0  0
   61.0380   33.6680   47.5130 N   0  0  0  0  0  0  0  0  0  0  0  0
   60.8180   33.3870   48.9570 C   0  0  0  0  0  0  0  0  0  0  0  0
   62.0730   32.8730   49.6950 C   0  0  0  0  0  0  0  0  0  0  0  0
   63.2790   33.7980   49.4670 C   0  0  0  0  0  0  0  0  0  0  0  0
   63.7570   33.8360   48.0140 C   0  0  0  0  0  0  0  0  0  0  0  0
   63.3370   32.5960   47.2100 C   0  0  0  0  0  0  0  0  0  0  0  0
   61.8550   32.6680   46.7760 C   0  0  0  0  0  0  0  0  0  0  0  0
   58.0330   32.8550   45.2870 C   0  0  0  0  0  0  0  0  0  0  0  0
   57.3090   31.7510   44.8280 C   0  0  0  0  0  0  0  0  0  0  0  0
   55.5850   25.6090   45.7020 C   0  0  0  0  0  0  0  0  0  0  0  0
   55.3490   24.2950   45.2530 C   0  0  0  0  0  0  0  0  0  0  0  0
   54.2560   23.5410   45.7080 O   0  0  0  0  0  0  0  0  0  0  0  0
   52.9130   23.7250   45.2660 C   0  0  0  0  0  0  0  0  0  0  0  0
   57.4611   21.0222   44.1898 H   0  0  0  0  0  0  0  0  0  0  0  0
   56.4308   20.7499   42.7438 H   0  0  0  0  0  0  0  0  0  0  0  0
   57.6474   22.0714   42.7438 H   0  0  0  0  0  0  0  0  0  0  0  0
   58.0629   23.9693   43.1769 H   0  0  0  0  0  0  0  0  0  0  0  0
   58.5166   26.2527   44.0610 H   0  0  0  0  0  0  0  0  0  0  0  0
   58.5230   29.3638   46.9665 H   0  0  0  0  0  0  0  0  0  0  0  0
   59.8086   31.3286   47.7908 H   0  0  0  0  0  0  0  0  0  0  0  0
   61.5640   34.5700   47.4880 H   0  0  0  0  0  0  0  0  0  0  0  0
   60.4868   34.3162   49.4437 H   0  0  0  0  0  0  0  0  0  0  0  0
   60.0650   32.5872   49.0145 H   0  0  0  0  0  0  0  0  0  0  0  0
   61.8588   32.8240   50.7728 H   0  0  0  0  0  0  0  0  0  0  0  0
   62.3222   31.8772   49.2996 H   0  0  0  0  0  0  0  0  0  0  0  0
   62.9963   34.8179   49.7667 H   0  0  0  0  0  0  0  0  0  0  0  0
   64.1090   33.3995   50.0689 H   0  0  0  0  0  0  0  0  0  0  0  0
   63.3334   34.7279   47.5291 H   0  0  0  0  0  0  0  0  0  0  0  0
   64.8566   33.8599   48.0304 H   0  0  0  0  0  0  0  0  0  0  0  0
   63.9679   32.5235   46.3118 H   0  0  0  0  0  0  0  0  0  0  0  0
   63.4623   31.7127   47.8535 H   0  0  0  0  0  0  0  0  0  0  0  0
   61.8236   32.9218   45.7061 H   0  0  0  0  0  0  0  0  0  0  0  0
   61.4179   31.6840   47.0013 H   0  0  0  0  0  0  0  0  0  0  0  0
   57.8941   33.8361   44.8093 H   0  0  0  0  0  0  0  0  0  0  0  0
   56.5989   31.8680   43.9961 H   0  0  0  0  0  0  0  0  0  0  0  0
   54.8810   26.0812   46.4030 H   0  0  0  0  0  0  0  0  0  0  0  0
   52.2491   23.8160   46.1383 H   0  0  0  0  0  0  0  0  0  0  0  0
   52.8488   24.6403   44.6593 H   0  0  0  0  0  0  0  0  0  0  0  0
   52.6050   22.8607   44.6593 H   0  0  0  0  0  0  0  0  0  0  0  0
  1  2  1  0
  2  3  1  0
  3  4  2  0
  4  5  1  0
  5  6  2  0
  6  7  1  0
  7  8  1  0
  8  9  2  0
  8 10  2  0
  8 11  1  0
 11 12  2  0
 12 13  1  0
 13 14  2  0
 14 15  1  0
 15 16  2  0
 15 17  1  0
 17 18  1  0
 18 19  1  0
 19 20  1  0
 20 21  1  0
 21 22  1  0
 22 23  1  0
 14 24  1  0
 24 25  2  0
  6 26  1  0
 26 27  2  0
 27 28  1  0
 28 29  1  0
 27  3  1  0
 25 11  1  0
 23 17  1  0
  1 30  1  0
  1 31  1  0
  1 32  1  0
  4 33  1  0
  5 34  1  0
 12 35  1  0
 13 36  1  0
 17 37  1  0
 18 38  1  0
 18 39  1  0
 19 40  1  0
 19 41  1  0
 20 42  1  0
 20 43  1  0
 21 44  1  0
 21 45  1  0
 22 46  1  0
 22 47  1  0
 23 48  1  0
 23 49  1  0
 24 50  1  0
 25 51  1  0
 26 52  1  0
 29 53  1  0
 29 54  1  0
 29 55  1  0
M  CHG  2   7  -1  17   1
M  END
>  <UniqueID>  (76) 
69

>  <SMILES>  (76) 
COc1ccc([N-]S(=O)(=O)c2ccc(C(=O)[NH+]3CCCCCC3)cc2)cc1OC

>  <Energy>  (76) 
73.29417013965971

>  <Genealogy>  (76) 
COc1ccc([N-]S(=O)(=O)c2ccc(C(=O)[NH+]3CCCCCC3)cc2)cc1OC (protonated)
COc1ccc([N-]S(=O)(=O)c2ccc(C(=O)[NH+]3CCCCCC3)cc2)cc1OC (3D coordinates assigned)
COc1ccc([N-]S(=O)(=O)c2ccc(C(=O)[NH+]3CCCCCC3)cc2)cc1OC (nonaromatic ring conformer: 73.29417013965971 kcal/mol)

>  <smiles>  (76) 
COc1ccc(NS(=O)(=O)c2ccc(C(=O)N3CCCCCC3)cc2)cc1OC

>  <score_type>  (76) 
oracle

>  <origin>  (76) 
adg

>  <m_score__min__energy>  (76) 
-6.7199999999999998

>  <m_primary>  (76) 
energy

$$$$
76:0
     RDKit          3D

 36 38  0  0  0  0  0  0  0  0999 V2000
   55.1830   26.5900   46.0030 N   0  0  0  0  0  0  0  0  0  0  0  0
   56.8810   26.9050   45.9930 S   0  0  0  0  0  0  0  0  0  0  0  0
   57.5710   25.9130   45.1010 O   0  0  0  0  0  0  0  0  0  0  0  0
   57.4250   26.7600   47.3870 O   0  0  0  0  0  0  0  0  0  0  0  0
   57.1730   28.5410   45.4070 C   0  0  0  0  0  0  0  0  0  0  0  0
   56.8670   28.8760   44.0830 C   0  0  0  0  0  0  0  0  0  0  0  0
   57.0830   30.1730   43.6120 C   0  0  0  0  0  0  0  0  0  0  0  0
   57.6050   31.1650   44.4610 C   0  0  0  0  0  0  0  0  0  0  0  0
   57.8240   32.4920   43.9880 C   0  0  0  0  0  0  0  0  0  0  0  0
   57.5170   32.7890   42.6460 O   0  0  0  0  0  0  0  0  0  0  0  0
   58.2370   32.3440   41.4940 C   0  0  0  0  0  0  0  0  0  0  0  0
   57.3670   32.4200   40.2400 C   0  0  0  0  0  0  0  0  0  0  0  0
   56.4080   33.4320   40.3700 O   0  0  0  0  0  0  0  0  0  0  0  0
   58.3550   33.4670   44.8670 C   0  0  0  0  0  0  0  0  0  0  0  0
   58.6350   33.0990   46.1780 C   0  0  0  0  0  0  0  0  0  0  0  0
   59.1350   33.8870   47.1450 N   0  0  0  0  0  0  0  0  0  0  0  0
   59.2400   33.1030   48.2410 C   0  0  0  0  0  0  0  0  0  0  0  0
   59.7480   33.5740   49.5370 C   0  0  0  0  0  0  0  0  0  0  0  0
   60.4830   34.5940   49.6000 O   0  0  0  0  0  0  0  0  0  0  0  0
   59.4170   32.8950   50.7030 O   0  0  0  0  0  0  0  0  0  0  0  0
   58.8050   31.8090   47.9690 C   0  0  0  0  0  0  0  0  0  0  0  0
   58.4220   31.8270   46.6390 C   0  0  0  0  0  0  0  0  0  0  0  0
   57.9060   30.8240   45.8110 C   0  0  0  0  0  0  0  0  0  0  0  0
   57.6860   29.5150   46.2720 C   0  0  0  0  0  0  0  0  0  0  0  0
   54.7840   27.0950   46.8270 H   0  0  0  0  0  0  0  0  0  0  0  0
   56.4533   28.1121   43.4083 H   0  0  0  0  0  0  0  0  0  0  0  0
   56.8426   30.4207   42.5676 H   0  0  0  0  0  0  0  0  0  0  0  0
   59.1233   32.9807   41.3558 H   0  0  0  0  0  0  0  0  0  0  0  0
   58.5348   31.2967   41.6504 H   0  0  0  0  0  0  0  0  0  0  0  0
   58.0043   32.6347   39.3695 H   0  0  0  0  0  0  0  0  0  0  0  0
   56.8526   31.4572   40.1046 H   0  0  0  0  0  0  0  0  0  0  0  0
   56.2700   33.5560   41.3450 H   0  0  0  0  0  0  0  0  0  0  0  0
   58.5420   34.4939   44.5198 H   0  0  0  0  0  0  0  0  0  0  0  0
   59.3880   34.8980   47.0630 H   0  0  0  0  0  0  0  0  0  0  0  0
   58.7726   30.9555   48.6621 H   0  0  0  0  0  0  0  0  0  0  0  0
   57.9175   29.2548   47.3154 H   0  0  0  0  0  0  0  0  0  0  0  0
  1  2  1  0
  2  3  2  0
  2  4  2  0
  2  5  1  0
  5  6  2  0
  6  7  1  0
  7  8  2  0
  8  9  1  0
  9 10  1  0
 10 11  1  0
 11 12  1  0
 12 13  1  0
  9 14  2  0
 14 15  1  0
 15 16  1  0
 16 17  1  0
 17 18  1  0
 18 19  2  0
 18 20  1  0
 17 21  2  0
 21 22  1  0
 22 23  1  0
 23 24  2  0
 24  5  1  0
 23  8  1  0
 22 15  2  0
  1 25  1  0
  6 26  1  0
  7 27  1  0
 11 28  1  0
 11 29  1  0
 12 30  1  0
 12 31  1  0
 13 32  1  0
 14 33  1  0
 16 34  1  0
 21 35  1  0
 24 36  1  0
M  CHG  2   1  -1  20  -1
M  END
>  <UniqueID>  (77) 
70

>  <SMILES>  (77) 
[NH-]S(=O)(=O)c1ccc2c(OCCO)cc3[nH]c(C(=O)[O-])cc3c2c1

>  <Energy>  (77) 
72.77634193395318

>  <Genealogy>  (77) 
[NH-]S(=O)(=O)c1ccc2c(OCCO)cc3[nH]c(C(=O)[O-])cc3c2c1 (protonated)
[NH-]S(=O)(=O)c1ccc2c(OCCO)cc3[nH]c(C(=O)[O-])cc3c2c1 (3D coordinates assigned)
[NH-]S(=O)(=O)c1ccc2c(OCCO)cc3[nH]c(C(=O)[O-])cc3c2c1 (optimized conformer: 72.77634193395318 kcal/mol)

>  <smiles>  (77) 
NS(=O)(=O)c1ccc2c(OCCO)cc3[nH]c(C(=O)O)cc3c2c1

>  <score_type>  (77) 
oracle

>  <origin>  (77) 
adg

>  <m_score__min__energy>  (77) 
-9.5899999999999999

>  <m_primary>  (77) 
energy

$$$$
77:0
     RDKit          3D

 60 63  0  0  0  0  0  0  0  0999 V2000
   59.3117   31.7847   45.7904 H   0  0  0  0  0  0  0  0  0  0  0  0
   59.1900   30.9880   46.5390 C   0  0  0  0  0  0  0  0  0  0  0  0
   58.1570   29.9610   46.2830 C   0  0  0  0  0  0  0  0  0  0  0  0
   57.2190   30.1950   45.4760 O   0  0  0  0  0  0  0  0  0  0  0  0
   58.2700   28.6500   46.8470 N   0  0  0  0  0  0  0  0  0  0  0  0
   57.9680   27.4160   46.1800 C   0  0  0  0  0  0  0  0  0  0  0  0
   58.0310   27.2950   44.7850 C   0  0  0  0  0  0  0  0  0  0  0  0
   58.2865   28.1721   44.1722 H   0  0  0  0  0  0  0  0  0  0  0  0
   57.7720   26.0700   44.1670 C   0  0  0  0  0  0  0  0  0  0  0  0
   57.8198   25.9972   43.0705 H   0  0  0  0  0  0  0  0  0  0  0  0
   57.4490   24.9200   44.9270 C   0  0  0  0  0  0  0  0  0  0  0  0
   57.1790   23.6370   44.2820 N   0  0  0  0  0  0  0  0  0  0  0  0
   57.5550   22.3850   44.9730 C   0  0  0  0  0  0  0  0  0  0  0  0
   58.6272   22.4301   45.2147 H   0  0  0  0  0  0  0  0  0  0  0  0
   56.9252   22.3119   45.8719 H   0  0  0  0  0  0  0  0  0  0  0  0
   57.2990   21.1240   44.1430 C   0  0  0  0  0  0  0  0  0  0  0  0
   58.1349   20.9784   43.4429 H   0  0  0  0  0  0  0  0  0  0  0  0
   57.2144   20.2661   44.8263 H   0  0  0  0  0  0  0  0  0  0  0  0
   56.1000   21.2350   43.4120 O   0  0  0  0  0  0  0  0  0  0  0  0
   56.2790   22.2100   42.4130 C   0  0  0  0  0  0  0  0  0  0  0  0
   57.1962   21.9836   41.8496 H   0  0  0  0  0  0  0  0  0  0  0  0
   55.4039   22.1941   41.7467 H   0  0  0  0  0  0  0  0  0  0  0  0
   56.4000   23.6070   43.0260 C   0  0  0  0  0  0  0  0  0  0  0  0
   56.8925   24.2657   42.2956 H   0  0  0  0  0  0  0  0  0  0  0  0
   55.3809   23.9412   43.2706 H   0  0  0  0  0  0  0  0  0  0  0  0
   57.4170   25.0570   46.3340 C   0  0  0  0  0  0  0  0  0  0  0  0
   57.1804   24.1819   46.9571 H   0  0  0  0  0  0  0  0  0  0  0  0
   57.6810   26.2860   46.9470 C   0  0  0  0  0  0  0  0  0  0  0  0
   57.6622   26.3627   48.0442 H   0  0  0  0  0  0  0  0  0  0  0  0
   59.9900   31.0210   47.6160 C   0  0  0  0  0  0  0  0  0  0  0  0
   59.6782   30.4445   48.4994 H   0  0  0  0  0  0  0  0  0  0  0  0
   61.2620   31.7760   47.7040 C   0  0  0  0  0  0  0  0  0  0  0  0
   62.4330   31.2530   47.1240 C   0  0  0  0  0  0  0  0  0  0  0  0
   62.4147   30.2556   46.6606 H   0  0  0  0  0  0  0  0  0  0  0  0
   63.6180   31.9920   47.1330 C   0  0  0  0  0  0  0  0  0  0  0  0
   64.5327   31.5680   46.6930 H   0  0  0  0  0  0  0  0  0  0  0  0
   63.6440   33.2670   47.6990 C   0  0  0  0  0  0  0  0  0  0  0  0
   64.5793   33.8459   47.7067 H   0  0  0  0  0  0  0  0  0  0  0  0
   62.4850   33.8080   48.2550 C   0  0  0  0  0  0  0  0  0  0  0  0
   62.5099   34.8163   48.6941 H   0  0  0  0  0  0  0  0  0  0  0  0
   61.2860   33.0760   48.2590 C   0  0  0  0  0  0  0  0  0  0  0  0
   60.1060   33.6510   48.8500 N   0  0  0  0  0  0  0  0  0  0  0  0
   59.7410   33.3050   50.2260 C   0  0  0  0  0  0  0  0  0  0  0  0
   60.3566   33.8885   50.9264 H   0  0  0  0  0  0  0  0  0  0  0  0
   58.6783   33.5352   50.3924 H   0  0  0  0  0  0  0  0  0  0  0  0
   59.9141   32.2315   50.3924 H   0  0  0  0  0  0  0  0  0  0  0  0
   59.4180   34.7610   48.1790 C   0  0  0  0  0  0  0  0  0  0  0  0
   58.5956   35.1164   48.8172 H   0  0  0  0  0  0  0  0  0  0  0  0
   60.1386   35.5733   48.0035 H   0  0  0  0  0  0  0  0  0  0  0  0
   58.8600   34.3100   46.8570 C   0  0  0  0  0  0  0  0  0  0  0  0
   57.5790   33.7380   46.7930 C   0  0  0  0  0  0  0  0  0  0  0  0
   56.9940   33.6000   47.7142 H   0  0  0  0  0  0  0  0  0  0  0  0
   57.0440   33.3430   45.5620 C   0  0  0  0  0  0  0  0  0  0  0  0
   56.0401   32.8957   45.5166 H   0  0  0  0  0  0  0  0  0  0  0  0
   57.7860   33.5170   44.3890 C   0  0  0  0  0  0  0  0  0  0  0  0
   57.3663   33.2037   43.4217 H   0  0  0  0  0  0  0  0  0  0  0  0
   59.0610   34.0890   44.4450 C   0  0  0  0  0  0  0  0  0  0  0  0
   59.6434   34.2241   43.5217 H   0  0  0  0  0  0  0  0  0  0  0  0
   59.5960   34.4890   45.6720 C   0  0  0  0  0  0  0  0  0  0  0  0
   60.5961   34.9454   45.7114 H   0  0  0  0  0  0  0  0  0  0  0  0
  1  2  1  0
  2  3  1  0
  3  4  2  0
  3  5  1  0
  5  6  1  0
  6  7  2  0
  7  8  1  0
  7  9  1  0
  9 10  1  0
  9 11  2  0
 11 12  1  0
 12 13  1  0
 13 14  1  0
 13 15  1  0
 13 16  1  0
 16 17  1  0
 16 18  1  0
 16 19  1  0
 19 20  1  0
 20 21  1  0
 20 22  1  0
 20 23  1  0
 23 24  1  0
 23 25  1  0
 11 26  1  0
 26 27  1  0
 26 28  2  0
 28 29  1  0
  2 30  2  0
 30 31  1  0
 30 32  1  0
 32 33  2  0
 33 34  1  0
 33 35  1  0
 35 36  1  0
 35 37  2  0
 37 38  1  0
 37 39  1  0
 39 40  1  0
 39 41  2  0
 41 42  1  0
 42 43  1  0
 43 44  1  0
 43 45  1  0
 43 46  1  0
 42 47  1  0
 47 48  1  0
 47 49  1  0
 47 50  1  0
 50 51  2  0
 51 52  1  0
 51 53  1  0
 53 54  1  0
 53 55  2  0
 55 56  1  0
 55 57  1  0
 57 58  1  0
 57 59  2  0
 59 60  1  0
 28  6  1  0
 41 32  1  0
 59 50  1  0
 23 12  1  0
M  CHG  1   5  -1
M  END
>  <UniqueID>  (78) 
71

>  <SMILES>  (78) 
CN(Cc1ccccc1)c1ccccc1/C=C\C(=O)[N-]c1ccc(N2CCOCC2)cc1

>  <Energy>  (78) 
86.24266911303566

>  <Genealogy>  (78) 
CN(Cc1ccccc1)c1ccccc1C=CC(=O)[N-]c1ccc(N2CCOCC2)cc1 (protonated)
CN(Cc1ccccc1)c1ccccc1/C=C\C(=O)[N-]c1ccc(N2CCOCC2)cc1 (cis-trans isomerization)
CN(Cc1ccccc1)c1ccccc1/C=C\C(=O)[N-]c1ccc(N2CCOCC2)cc1 (3D coordinates assigned)
CN(Cc1ccccc1)c1ccccc1/C=C\C(=O)[N-]c1ccc(N2CCOCC2)cc1 (nonaromatic ring conformer: 86.24266911303566 kcal/mol)

>  <smiles>  (78) 
CN(Cc1ccccc1)c1ccccc1C=CC(=O)Nc1ccc(N2CCOCC2)cc1

>  <score_type>  (78) 
oracle

>  <origin>  (78) 
adg

>  <m_score__min__energy>  (78) 
-11.029999999999999

>  <m_primary>  (78) 
energy

$$$$
78:0
     RDKit          3D

 72 77  0  0  0  0  0  0  0  0999 V2000
   56.3480   29.8230   44.3340 C   0  0  0  0  0  0  0  0  0  0  0  0
   57.2840   30.7800   43.9330 C   0  0  0  0  0  0  0  0  0  0  0  0
   58.6500   30.5460   44.1150 C   0  0  0  0  0  0  0  0  0  0  0  0
   59.0910   29.3450   44.6970 C   0  0  0  0  0  0  0  0  0  0  0  0
   60.5650   29.0580   44.8230 C   0  0  0  0  0  0  0  0  0  0  0  0
   61.1280   29.7280   45.9520 O   0  0  0  0  0  0  0  0  0  0  0  0
   60.7190   29.5690   47.2890 C   0  0  0  0  0  0  0  0  0  0  0  0
   59.8770   28.5140   47.6900 C   0  0  0  0  0  0  0  0  0  0  0  0
   59.4520   28.4120   49.0160 C   0  0  0  0  0  0  0  0  0  0  0  0
   59.8560   29.3530   49.9720 C   0  0  0  0  0  0  0  0  0  0  0  0
   59.4030   29.2150   51.3320 N   0  0  0  0  0  0  0  0  0  0  0  0
   60.2020   29.6290   52.4890 C   0  0  0  0  0  0  0  0  0  0  0  0
   59.3870   30.4770   53.4200 C   0  0  0  0  0  0  0  0  0  0  0  0
   58.4170   30.0130   54.2850 C   0  0  0  0  0  0  0  0  0  0  0  0
   57.9760   31.0500   55.0220 N   0  0  0  0  0  0  0  0  0  0  0  0
   58.6830   32.1200   54.6130 C   0  0  0  0  0  0  0  0  0  0  0  0
   59.5550   31.8010   53.6350 N   0  0  0  0  0  0  0  0  0  0  0  0
   60.5100   32.7110   52.9970 C   0  0  0  0  0  0  0  0  0  0  0  0
   60.1130   32.9740   51.5700 C   0  0  0  0  0  0  0  0  0  0  0  0
   58.9200   32.4400   51.0660 C   0  0  0  0  0  0  0  0  0  0  0  0
   58.5260   32.7030   49.7520 C   0  0  0  0  0  0  0  0  0  0  0  0
   59.3180   33.5100   48.9180 C   0  0  0  0  0  0  0  0  0  0  0  0
   58.8910   33.7970   47.5270 C   0  0  0  0  0  0  0  0  0  0  0  0
   57.7710   33.1490   46.9760 C   0  0  0  0  0  0  0  0  0  0  0  0
   57.3960   33.3910   45.6510 C   0  0  0  0  0  0  0  0  0  0  0  0
   58.1190   34.2950   44.8700 C   0  0  0  0  0  0  0  0  0  0  0  0
   59.2250   34.9550   45.4110 C   0  0  0  0  0  0  0  0  0  0  0  0
   59.6140   34.7060   46.7300 C   0  0  0  0  0  0  0  0  0  0  0  0
   60.5170   34.0430   49.4240 C   0  0  0  0  0  0  0  0  0  0  0  0
   60.9150   33.7710   50.7370 C   0  0  0  0  0  0  0  0  0  0  0  0
   60.7050   30.4020   49.5770 C   0  0  0  0  0  0  0  0  0  0  0  0
   61.1450   30.5120   48.2470 C   0  0  0  0  0  0  0  0  0  0  0  0
   62.0460   31.6270   47.8730 C   0  0  0  0  0  0  0  0  0  0  0  0
   63.2240   31.8630   48.6040 C   0  0  0  0  0  0  0  0  0  0  0  0
   64.0850   32.9030   48.2410 C   0  0  0  0  0  0  0  0  0  0  0  0
   63.7810   33.7120   47.1430 C   0  0  0  0  0  0  0  0  0  0  0  0
   62.6170   33.4820   46.4060 C   0  0  0  0  0  0  0  0  0  0  0  0
   61.7530   32.4420   46.7660 C   0  0  0  0  0  0  0  0  0  0  0  0
   58.1440   28.3780   45.0750 C   0  0  0  0  0  0  0  0  0  0  0  0
   56.7780   28.6220   44.9050 C   0  0  0  0  0  0  0  0  0  0  0  0
   55.2731   30.0149   44.2003 H   0  0  0  0  0  0  0  0  0  0  0  0
   56.9449   31.7199   43.4729 H   0  0  0  0  0  0  0  0  0  0  0  0
   59.3825   31.3045   43.8016 H   0  0  0  0  0  0  0  0  0  0  0  0
   60.7106   27.9740   44.9400 H   0  0  0  0  0  0  0  0  0  0  0  0
   61.0691   29.4218   43.9155 H   0  0  0  0  0  0  0  0  0  0  0  0
   59.5517   27.7648   46.9532 H   0  0  0  0  0  0  0  0  0  0  0  0
   58.7925   27.5834   49.3134 H   0  0  0  0  0  0  0  0  0  0  0  0
   58.4700   28.7720   51.4980 H   0  0  0  0  0  0  0  0  0  0  0  0
   60.5497   28.7344   53.0264 H   0  0  0  0  0  0  0  0  0  0  0  0
   61.0601   30.2183   52.1336 H   0  0  0  0  0  0  0  0  0  0  0  0
   58.0644   28.9737   54.3596 H   0  0  0  0  0  0  0  0  0  0  0  0
   57.2500   31.0240   55.7690 H   0  0  0  0  0  0  0  0  0  0  0  0
   58.5638   33.1323   55.0266 H   0  0  0  0  0  0  0  0  0  0  0  0
   60.5281   33.6622   53.5491 H   0  0  0  0  0  0  0  0  0  0  0  0
   61.5072   32.2468   53.0095 H   0  0  0  0  0  0  0  0  0  0  0  0
   58.2891   31.8092   51.7095 H   0  0  0  0  0  0  0  0  0  0  0  0
   57.5885   32.2751   49.3672 H   0  0  0  0  0  0  0  0  0  0  0  0
   57.1870   32.4482   47.5907 H   0  0  0  0  0  0  0  0  0  0  0  0
   56.5286   32.8676   45.2224 H   0  0  0  0  0  0  0  0  0  0  0  0
   57.8179   34.4873   43.8296 H   0  0  0  0  0  0  0  0  0  0  0  0
   59.7907   35.6719   44.7978 H   0  0  0  0  0  0  0  0  0  0  0  0
   60.4902   35.2230   47.1484 H   0  0  0  0  0  0  0  0  0  0  0  0
   61.1460   34.6781   48.7829 H   0  0  0  0  0  0  0  0  0  0  0  0
   61.8606   34.1833   51.1189 H   0  0  0  0  0  0  0  0  0  0  0  0
   61.0291   31.1465   50.3191 H   0  0  0  0  0  0  0  0  0  0  0  0
   63.4694   31.2257   49.4663 H   0  0  0  0  0  0  0  0  0  0  0  0
   65.0024   33.0845   48.8202 H   0  0  0  0  0  0  0  0  0  0  0  0
   64.4588   34.5305   46.8589 H   0  0  0  0  0  0  0  0  0  0  0  0
   62.3793   34.1193   45.5415 H   0  0  0  0  0  0  0  0  0  0  0  0
   60.8399   32.2613   46.1798 H   0  0  0  0  0  0  0  0  0  0  0  0
   58.4794   27.4237   45.5071 H   0  0  0  0  0  0  0  0  0  0  0  0
   56.0414   27.8685   45.2207 H   0  0  0  0  0  0  0  0  0  0  0  0
  1  2  2  0
  2  3  1  0
  3  4  2  0
  4  5  1  0
  5  6  1  0
  6  7  1  0
  7  8  2  0
  8  9  1  0
  9 10  2  0
 10 11  1  0
 11 12  1  0
 12 13  1  0
 13 14  2  0
 14 15  1  0
 15 16  2  0
 16 17  1  0
 17 18  1  0
 18 19  1  0
 19 20  2  0
 20 21  1  0
 21 22  2  0
 22 23  1  0
 23 24  2  0
 24 25  1  0
 25 26  2  0
 26 27  1  0
 27 28  2  0
 22 29  1  0
 29 30  2  0
 10 31  1  0
 31 32  2  0
 32 33  1  0
 33 34  2  0
 34 35  1  0
 35 36  2  0
 36 37  1  0
 37 38  2  0
  4 39  1  0
 39 40  2  0
 40  1  1  0
 32  7  1  0
 38 33  1  0
 17 13  1  0
 30 19  1  0
 28 23  1  0
  1 41  1  0
  2 42  1  0
  3 43  1  0
  5 44  1  0
  5 45  1  0
  8 46  1  0
  9 47  1  0
 11 48  1  0
 12 49  1  0
 12 50  1  0
 14 51  1  0
 15 52  1  0
 16 53  1  0
 18 54  1  0
 18 55  1  0
 20 56  1  0
 21 57  1  0
 24 58  1  0
 25 59  1  0
 26 60  1  0
 27 61  1  0
 28 62  1  0
 29 63  1  0
 30 64  1  0
 31 65  1  0
 34 66  1  0
 35 67  1  0
 36 68  1  0
 37 69  1  0
 38 70  1  0
 39 71  1  0
 40 72  1  0
M  CHG  1  15   1
M  END
>  <UniqueID>  (79) 
72

>  <SMILES>  (79) 
c1ccc(COc2ccc(NCc3c[nH+]cn3Cc3ccc(-c4ccccc4)cc3)cc2-c2ccccc2)cc1

>  <Energy>  (79) 
113.71396763863014

>  <Genealogy>  (79) 
c1ccc(COc2ccc(NCc3c[nH+]cn3Cc3ccc(-c4ccccc4)cc3)cc2-c2ccccc2)cc1 (protonated)
c1ccc(COc2ccc(NCc3c[nH+]cn3Cc3ccc(-c4ccccc4)cc3)cc2-c2ccccc2)cc1 (3D coordinates assigned)
c1ccc(COc2ccc(NCc3c[nH+]cn3Cc3ccc(-c4ccccc4)cc3)cc2-c2ccccc2)cc1 (optimized conformer: 113.71396763863014 kcal/mol)

>  <smiles>  (79) 
c1ccc(COc2ccc(NCc3cncn3Cc3ccc(-c4ccccc4)cc3)cc2-c2ccccc2)cc1

>  <score_type>  (79) 
oracle

>  <origin>  (79) 
adg

>  <m_score__min__energy>  (79) 
-8.7300000000000004

>  <m_primary>  (79) 
energy

$$$$
79:0
     RDKit          3D

 40 43  0  0  0  0  0  0  0  0999 V2000
   54.9020   26.3250   46.0040 O   0  0  0  0  0  0  0  0  0  0  0  0
   56.0480   25.9030   46.2690 C   0  0  0  0  0  0  0  0  0  0  0  0
   56.3780   24.6390   46.6560 N   0  0  0  0  0  0  0  0  0  0  0  0
   57.6840   24.5630   46.8470 N   0  0  0  0  0  0  0  0  0  0  0  0
   58.2220   25.7520   46.5930 C   0  0  0  0  0  0  0  0  0  0  0  0
   57.2180   26.5830   46.2350 N   0  0  0  0  0  0  0  0  0  0  0  0
   57.3990   27.9510   45.8860 C   0  0  0  0  0  0  0  0  0  0  0  0
   58.0980   28.8290   46.6300 N   0  0  0  0  0  0  0  0  0  0  0  0
   58.0920   30.0400   46.0450 C   0  0  0  0  0  0  0  0  0  0  0  0
   58.6730   31.2260   46.4450 C   0  0  0  0  0  0  0  0  0  0  0  0
   58.4930   32.3270   45.6250 C   0  0  0  0  0  0  0  0  0  0  0  0
   59.2530   33.8230   46.1760 S   0  0  0  0  0  0  0  0  0  0  0  0
   59.6470   34.6420   44.9980 O   0  0  0  0  0  0  0  0  0  0  0  0
   58.2630   34.6070   47.0160 O   0  0  0  0  0  0  0  0  0  0  0  0
   60.6100   33.4330   47.1720 N   0  0  0  0  0  0  0  0  0  0  0  0
   60.5200   34.2090   48.3940 C   0  0  0  0  0  0  0  0  0  0  0  0
   61.6670   33.7620   49.2860 C   0  0  0  0  0  0  0  0  0  0  0  0
   62.9490   34.2070   48.5870 C   0  0  0  0  0  0  0  0  0  0  0  0
   63.0600   33.5340   47.2430 C   0  0  0  0  0  0  0  0  0  0  0  0
   61.8010   33.6910   46.4230 C   0  0  0  0  0  0  0  0  0  0  0  0
   57.7710   32.2670   44.4540 C   0  0  0  0  0  0  0  0  0  0  0  0
   57.2100   31.0430   44.1050 C   0  0  0  0  0  0  0  0  0  0  0  0
   57.3570   29.9170   44.8840 C   0  0  0  0  0  0  0  0  0  0  0  0
   56.9480   28.6310   44.8160 N   0  0  0  0  0  0  0  0  0  0  0  0
   55.6940   23.8600   46.7800 H   0  0  0  0  0  0  0  0  0  0  0  0
   59.2887   26.0118   46.6616 H   0  0  0  0  0  0  0  0  0  0  0  0
   59.2547   31.2938   47.3762 H   0  0  0  0  0  0  0  0  0  0  0  0
   60.6119   35.2817   48.1686 H   0  0  0  0  0  0  0  0  0  0  0  0
   59.5509   34.0517   48.8900 H   0  0  0  0  0  0  0  0  0  0  0  0
   61.5878   34.2363   50.2753 H   0  0  0  0  0  0  0  0  0  0  0  0
   61.6527   32.6732   49.4416 H   0  0  0  0  0  0  0  0  0  0  0  0
   62.9290   35.2980   48.4481 H   0  0  0  0  0  0  0  0  0  0  0  0
   63.8147   33.9269   49.2051 H   0  0  0  0  0  0  0  0  0  0  0  0
   63.9006   33.9802   46.6913 H   0  0  0  0  0  0  0  0  0  0  0  0
   63.2206   32.4594   47.4146 H   0  0  0  0  0  0  0  0  0  0  0  0
   61.7581   34.7215   46.0405 H   0  0  0  0  0  0  0  0  0  0  0  0
   61.8443   32.9522   45.6092 H   0  0  0  0  0  0  0  0  0  0  0  0
   57.6425   33.1549   43.8176 H   0  0  0  0  0  0  0  0  0  0  0  0
   56.6285   30.9720   43.1740 H   0  0  0  0  0  0  0  0  0  0  0  0
   56.3670   28.2280   44.0430 H   0  0  0  0  0  0  0  0  0  0  0  0
  1  2  2  0
  2  3  1  0
  3  4  1  0
  4  5  2  0
  5  6  1  0
  6  7  1  0
  7  8  2  0
  8  9  1  0
  9 10  2  0
 10 11  1  0
 11 12  1  0
 12 13  2  0
 12 14  2  0
 12 15  1  0
 15 16  1  0
 16 17  1  0
 17 18  1  0
 18 19  1  0
 19 20  1  0
 11 21  2  0
 21 22  1  0
 22 23  2  0
 23 24  1  0
  6  2  1  0
 24  7  1  0
 23  9  1  0
 20 15  1  0
  3 25  1  0
  5 26  1  0
 10 27  1  0
 16 28  1  0
 16 29  1  0
 17 30  1  0
 17 31  1  0
 18 32  1  0
 18 33  1  0
 19 34  1  0
 19 35  1  0
 20 36  1  0
 20 37  1  0
 21 38  1  0
 22 39  1  0
 24 40  1  0
M  END
>  <smiles>  (80) 
O=c1[nH]ncn1-c1nc2cc(S(=O)(=O)N3CCCCC3)ccc2[nH]1

>  <score_type>  (80) 
oracle

>  <origin>  (80) 
adg

>  <m_score__min__energy>  (80) 
-8.8000000000000007

>  <m_primary>  (80) 
energy

$$$$
80:0
     RDKit          3D

 48 50  0  0  0  0  0  0  0  0999 V2000
   54.9570   25.1820   45.6160 C   0  0  0  0  0  0  0  0  0  0  0  0
   55.2210   26.5660   45.9950 N   0  0  0  0  0  0  0  0  0  0  0  0
   56.9300   26.8720   45.9390 S   0  0  0  0  0  0  0  0  0  0  0  0
   57.6070   25.7600   45.1900 O   0  0  0  0  0  0  0  0  0  0  0  0
   57.4770   26.9140   47.3390 O   0  0  0  0  0  0  0  0  0  0  0  0
   57.2480   28.3940   45.1090 C   0  0  0  0  0  0  0  0  0  0  0  0
   58.5610   28.8160   44.8600 C   0  0  0  0  0  0  0  0  0  0  0  0
   58.7980   30.0270   44.2050 C   0  0  0  0  0  0  0  0  0  0  0  0
   57.7240   30.8320   43.7930 C   0  0  0  0  0  0  0  0  0  0  0  0
   57.9750   32.1190   43.0490 C   0  0  0  0  0  0  0  0  0  0  0  0
   58.4430   33.2560   43.9800 C   0  0  0  0  0  0  0  0  0  0  0  0
   57.4040   33.7200   44.9210 N   0  0  0  0  0  0  0  0  0  0  0  0
   57.9660   34.1430   46.2140 C   0  0  0  0  0  0  0  0  0  0  0  0
   58.8770   33.0810   46.7570 C   0  0  0  0  0  0  0  0  0  0  0  0
   58.5030   31.8030   47.1590 C   0  0  0  0  0  0  0  0  0  0  0  0
   59.5980   31.0830   47.4990 N   0  0  0  0  0  0  0  0  0  0  0  0
   59.6150   29.6870   47.9250 C   0  0  0  0  0  0  0  0  0  0  0  0
   60.6620   31.8840   47.2900 C   0  0  0  0  0  0  0  0  0  0  0  0
   62.0150   31.5780   47.4550 C   0  0  0  0  0  0  0  0  0  0  0  0
   62.9590   32.5730   47.1420 C   0  0  0  0  0  0  0  0  0  0  0  0
   62.5380   33.8350   46.6680 C   0  0  0  0  0  0  0  0  0  0  0  0
   61.1700   34.1150   46.5060 C   0  0  0  0  0  0  0  0  0  0  0  0
   60.2570   33.1130   46.8320 C   0  0  0  0  0  0  0  0  0  0  0  0
   56.4100   30.4040   44.0410 C   0  0  0  0  0  0  0  0  0  0  0  0
   56.1740   29.1940   44.6980 C   0  0  0  0  0  0  0  0  0  0  0  0
   54.8402   24.5696   46.5222 H   0  0  0  0  0  0  0  0  0  0  0  0
   54.0337   25.1348   45.0200 H   0  0  0  0  0  0  0  0  0  0  0  0
   55.7981   24.7982   45.0200 H   0  0  0  0  0  0  0  0  0  0  0  0
   59.4077   28.1917   45.1813 H   0  0  0  0  0  0  0  0  0  0  0  0
   59.8310   30.3514   44.0111 H   0  0  0  0  0  0  0  0  0  0  0  0
   58.7511   31.9423   42.2898 H   0  0  0  0  0  0  0  0  0  0  0  0
   57.0253   32.4313   42.5902 H   0  0  0  0  0  0  0  0  0  0  0  0
   59.3032   32.8952   44.5631 H   0  0  0  0  0  0  0  0  0  0  0  0
   58.6995   34.1115   43.3378 H   0  0  0  0  0  0  0  0  0  0  0  0
   56.7520   32.9190   45.0910 H   0  0  0  0  0  0  0  0  0  0  0  0
   56.8470   34.4970   44.4990 H   0  0  0  0  0  0  0  0  0  0  0  0
   58.5355   35.0738   46.0753 H   0  0  0  0  0  0  0  0  0  0  0  0
   57.1435   34.3077   46.9256 H   0  0  0  0  0  0  0  0  0  0  0  0
   57.4683   31.4314   47.1954 H   0  0  0  0  0  0  0  0  0  0  0  0
   59.6156   29.6390   49.0240 H   0  0  0  0  0  0  0  0  0  0  0  0
   58.7230   29.1741   47.5360 H   0  0  0  0  0  0  0  0  0  0  0  0
   60.5192   29.1959   47.5360 H   0  0  0  0  0  0  0  0  0  0  0  0
   62.3325   30.5895   47.8185 H   0  0  0  0  0  0  0  0  0  0  0  0
   64.0322   32.3667   47.2673 H   0  0  0  0  0  0  0  0  0  0  0  0
   63.2856   34.6041   46.4239 H   0  0  0  0  0  0  0  0  0  0  0  0
   60.8308   35.0931   46.1340 H   0  0  0  0  0  0  0  0  0  0  0  0
   55.5619   31.0247   43.7163 H   0  0  0  0  0  0  0  0  0  0  0  0
   55.1416   28.8684   44.8932 H   0  0  0  0  0  0  0  0  0  0  0  0
  1  2  1  0
  2  3  1  0
  3  4  2  0
  3  5  2  0
  3  6  1  0
  6  7  2  0
  7  8  1  0
  8  9  2  0
  9 10  1  0
 10 11  1  0
 11 12  1  0
 12 13  1  0
 13 14  1  0
 14 15  2  0
 15 16  1  0
 16 17  1  0
 16 18  1  0
 18 19  2  0
 19 20  1  0
 20 21  2  0
 21 22  1  0
 22 23  2  0
  9 24  1  0
 24 25  2  0
 25  6  1  0
 23 14  1  0
 23 18  1  0
  1 26  1  0
  1 27  1  0
  1 28  1  0
  7 29  1  0
  8 30  1  0
 10 31  1  0
 10 32  1  0
 11 33  1  0
 11 34  1  0
 12 35  1  0
 12 36  1  0
 13 37  1  0
 13 38  1  0
 15 39  1  0
 17 40  1  0
 17 41  1  0
 17 42  1  0
 19 43  1  0
 20 44  1  0
 21 45  1  0
 22 46  1  0
 24 47  1  0
 25 48  1  0
M  CHG  2   2  -1  12   1
M  END
>  <UniqueID>  (81) 
73

>  <SMILES>  (81) 
C[N-]S(=O)(=O)c1ccc(CC[NH2+]Cc2cn(C)c3ccccc23)cc1

>  <Energy>  (81) 
77.86484073553284

>  <Genealogy>  (81) 
C[N-]S(=O)(=O)c1ccc(CC[NH2+]Cc2cn(C)c3ccccc23)cc1 (protonated)
C[N-]S(=O)(=O)c1ccc(CC[NH2+]Cc2cn(C)c3ccccc23)cc1 (3D coordinates assigned)
C[N-]S(=O)(=O)c1ccc(CC[NH2+]Cc2cn(C)c3ccccc23)cc1 (optimized conformer: 77.86484073553284 kcal/mol)

>  <smiles>  (81) 
CNS(=O)(=O)c1ccc(CCNCc2cn(C)c3ccccc23)cc1

>  <score_type>  (81) 
oracle

>  <origin>  (81) 
adg

>  <m_score__min__energy>  (81) 
-9.0500000000000007

>  <m_primary>  (81) 
energy

$$$$
81:0
     RDKit          3D

 48 50  0  0  0  0  0  0  0  0999 V2000
   59.9980   35.4730   45.9850 C   0  0  0  0  0  0  0  0  0  0  0  0
   59.0280   34.3710   45.6740 C   0  0  0  0  0  0  0  0  0  0  0  0
   58.2970   33.7750   46.7090 C   0  0  0  0  0  0  0  0  0  0  0  0
   57.4080   32.7320   46.4360 C   0  0  0  0  0  0  0  0  0  0  0  0
   57.2340   32.2690   45.1190 C   0  0  0  0  0  0  0  0  0  0  0  0
   56.3400   31.1860   44.8190 N   0  0  0  0  0  0  0  0  0  0  0  0
   56.6830   29.9270   44.2220 C   0  0  0  0  0  0  0  0  0  0  0  0
   56.1390   29.5680   43.1420 O   0  0  0  0  0  0  0  0  0  0  0  0
   57.7200   29.0710   44.8460 C   0  0  0  0  0  0  0  0  0  0  0  0
   57.8350   27.7150   44.4940 C   0  0  0  0  0  0  0  0  0  0  0  0
   58.8070   26.9100   45.0890 C   0  0  0  0  0  0  0  0  0  0  0  0
   59.6840   27.4460   46.0340 C   0  0  0  0  0  0  0  0  0  0  0  0
   59.6040   28.8040   46.3820 C   0  0  0  0  0  0  0  0  0  0  0  0
   60.4760   29.3760   47.3730 N   0  0  0  0  0  0  0  0  0  0  0  0
   60.0160   30.0230   48.5720 C   0  0  0  0  0  0  0  0  0  0  0  0
   58.7960   29.9880   48.8920 O   0  0  0  0  0  0  0  0  0  0  0  0
   60.9920   30.7090   49.4810 C   0  0  0  0  0  0  0  0  0  0  0  0
   61.7070   31.8210   48.7520 C   0  0  0  0  0  0  0  0  0  0  0  0
   62.7600   31.4980   47.8760 C   0  0  0  0  0  0  0  0  0  0  0  0
   63.4250   32.5010   47.1650 C   0  0  0  0  0  0  0  0  0  0  0  0
   63.0420   33.8340   47.3130 C   0  0  0  0  0  0  0  0  0  0  0  0
   61.9900   34.1690   48.1690 C   0  0  0  0  0  0  0  0  0  0  0  0
   61.3170   33.1720   48.8880 C   0  0  0  0  0  0  0  0  0  0  0  0
   59.9920   33.6580   49.9400 Cl  0  0  0  0  0  0  0  0  0  0  0  0
   58.6080   29.6040   45.7990 C   0  0  0  0  0  0  0  0  0  0  0  0
   58.0020   32.8370   44.0800 C   0  0  0  0  0  0  0  0  0  0  0  0
   57.8630   32.3340   42.6690 C   0  0  0  0  0  0  0  0  0  0  0  0
   58.8900   33.8880   44.3650 C   0  0  0  0  0  0  0  0  0  0  0  0
   60.0930   35.5809   47.0756 H   0  0  0  0  0  0  0  0  0  0  0  0
   60.9802   35.2295   45.5537 H   0  0  0  0  0  0  0  0  0  0  0  0
   59.6318   36.4163   45.5537 H   0  0  0  0  0  0  0  0  0  0  0  0
   58.4232   34.1298   47.7425 H   0  0  0  0  0  0  0  0  0  0  0  0
   56.8401   32.2696   47.2568 H   0  0  0  0  0  0  0  0  0  0  0  0
   57.1541   27.2856   43.7444 H   0  0  0  0  0  0  0  0  0  0  0  0
   58.8827   25.8481   44.8123 H   0  0  0  0  0  0  0  0  0  0  0  0
   60.4400   26.8024   46.5074 H   0  0  0  0  0  0  0  0  0  0  0  0
   61.5060   29.2340   47.2550 H   0  0  0  0  0  0  0  0  0  0  0  0
   60.4505   31.1303   50.3408 H   0  0  0  0  0  0  0  0  0  0  0  0
   61.7355   29.9736   49.8223 H   0  0  0  0  0  0  0  0  0  0  0  0
   63.0621   30.4479   47.7498 H   0  0  0  0  0  0  0  0  0  0  0  0
   64.2513   32.2388   46.4880 H   0  0  0  0  0  0  0  0  0  0  0  0
   63.5688   34.6222   46.7552 H   0  0  0  0  0  0  0  0  0  0  0  0
   61.6883   35.2211   48.2792 H   0  0  0  0  0  0  0  0  0  0  0  0
   58.5207   30.6610   46.0909 H   0  0  0  0  0  0  0  0  0  0  0  0
   57.5700   31.2738   42.6849 H   0  0  0  0  0  0  0  0  0  0  0  0
   57.0930   32.9194   42.1452 H   0  0  0  0  0  0  0  0  0  0  0  0
   58.8244   32.4410   42.1452 H   0  0  0  0  0  0  0  0  0  0  0  0
   59.4824   34.3360   43.5536 H   0  0  0  0  0  0  0  0  0  0  0  0
  1  2  1  0
  2  3  2  0
  3  4  1  0
  4  5  2  0
  5  6  1  0
  6  7  1  0
  7  8  2  0
  7  9  1  0
  9 10  2  0
 10 11  1  0
 11 12  2  0
 12 13  1  0
 13 14  1  0
 14 15  1  0
 15 16  2  0
 15 17  1  0
 17 18  1  0
 18 19  2  0
 19 20  1  0
 20 21  2  0
 21 22  1  0
 22 23  2  0
 23 24  1  0
 13 25  2  0
  5 26  1  0
 26 27  1  0
 26 28  2  0
 28  2  1  0
 25  9  1  0
 23 18  1  0
  1 29  1  0
  1 30  1  0
  1 31  1  0
  3 32  1  0
  4 33  1  0
 10 34  1  0
 11 35  1  0
 12 36  1  0
 14 37  1  0
 17 38  1  0
 17 39  1  0
 19 40  1  0
 20 41  1  0
 21 42  1  0
 22 43  1  0
 25 44  1  0
 27 45  1  0
 27 46  1  0
 27 47  1  0
 28 48  1  0
M  CHG  1   6  -1
M  END
>  <UniqueID>  (82) 
74

>  <SMILES>  (82) 
Cc1ccc([N-]C(=O)c2cccc(NC(=O)Cc3ccccc3Cl)c2)c(C)c1

>  <Energy>  (82) 
57.05471327317569

>  <Genealogy>  (82) 
Cc1ccc([N-]C(=O)c2cccc(NC(=O)Cc3ccccc3Cl)c2)c(C)c1 (protonated)
Cc1ccc([N-]C(=O)c2cccc(NC(=O)Cc3ccccc3Cl)c2)c(C)c1 (3D coordinates assigned)
Cc1ccc([N-]C(=O)c2cccc(NC(=O)Cc3ccccc3Cl)c2)c(C)c1 (optimized conformer: 57.05471327317569 kcal/mol)

>  <smiles>  (82) 
Cc1ccc(NC(=O)c2cccc(NC(=O)Cc3ccccc3Cl)c2)c(C)c1

>  <score_type>  (82) 
oracle

>  <origin>  (82) 
adg

>  <m_score__min__energy>  (82) 
-11.42

>  <m_primary>  (82) 
energy

$$$$
82:0
     RDKit          3D

 49 51  0  0  0  0  0  0  0  0999 V2000
   65.2020   31.8070   51.2590 C   0  0  0  0  0  0  0  0  0  0  0  0
   64.4190   33.2100   50.4940 S   0  0  1  0  0  0  0  0  0  0  0  0
   64.8090   34.4550   51.2430 O   0  0  0  0  0  0  0  0  0  0  0  0
   64.9040   33.3330   49.0060 N   0  0  0  0  0  0  0  0  0  0  0  0
   64.1420   32.7990   47.9580 C   0  0  0  0  0  0  0  0  0  0  0  0
   63.5130   32.3600   47.0920 N   0  0  0  0  0  0  0  0  0  0  0  0
   62.6710   32.9910   50.5400 C   0  0  0  0  0  0  0  0  0  0  0  0
   61.8110   34.0200   50.1320 C   0  0  0  0  0  0  0  0  0  0  0  0
   60.4260   33.8380   50.1780 C   0  0  0  0  0  0  0  0  0  0  0  0
   59.8840   32.6220   50.6240 C   0  0  0  0  0  0  0  0  0  0  0  0
   58.3980   32.4410   50.7090 C   0  0  0  0  0  0  0  0  0  0  0  0
   57.8940   31.9750   49.4220 N   0  0  0  0  0  0  0  0  0  0  0  0
   58.4430   32.3410   48.1510 C   0  0  0  0  0  0  0  0  0  0  0  0
   58.2570   33.5100   47.7230 O   0  0  0  0  0  0  0  0  0  0  0  0
   59.2460   31.3980   47.3430 C   0  0  0  0  0  0  0  0  0  0  0  0
   60.6320   31.3410   47.4960 C   0  0  0  0  0  0  0  0  0  0  0  0
   61.3630   30.4760   46.7510 N   0  0  0  0  0  0  0  0  0  0  0  0
   60.7670   29.6370   45.8670 C   0  0  0  0  0  0  0  0  0  0  0  0
   59.4060   29.6200   45.7230 N   0  0  0  0  0  0  0  0  0  0  0  0
   58.8000   28.6990   44.7400 C   0  0  0  0  0  0  0  0  0  0  0  0
   57.9880   27.6090   45.4190 C   0  0  0  0  0  0  0  0  0  0  0  0
   56.5810   27.6950   45.5520 C   0  0  0  0  0  0  0  0  0  0  0  0
   55.8340   28.7970   45.0260 N   0  0  0  0  0  0  0  0  0  0  0  0
   55.9070   26.7050   46.1950 N   0  0  0  0  0  0  0  0  0  0  0  0
   56.5480   25.6310   46.7170 C   0  0  0  0  0  0  0  0  0  0  0  0
   55.8930   24.7340   47.3060 O   0  0  0  0  0  0  0  0  0  0  0  0
   57.8940   25.5250   46.6050 N   0  0  0  0  0  0  0  0  0  0  0  0
   58.6260   26.4790   45.9760 C   0  0  0  0  0  0  0  0  0  0  0  0
   59.8760   26.3400   45.9020 O   0  0  0  0  0  0  0  0  0  0  0  0
   58.6410   30.5150   46.4330 C   0  0  0  0  0  0  0  0  0  0  0  0
   57.3910   30.5630   46.2660 O   0  0  0  0  0  0  0  0  0  0  0  0
   60.7490   31.6000   51.0500 C   0  0  0  0  0  0  0  0  0  0  0  0
   62.1340   31.7830   51.0030 C   0  0  0  0  0  0  0  0  0  0  0  0
   65.1461   31.9072   52.3530 H   0  0  0  0  0  0  0  0  0  0  0  0
   64.6877   30.8856   50.9484 H   0  0  0  0  0  0  0  0  0  0  0  0
   66.2562   31.7610   50.9484 H   0  0  0  0  0  0  0  0  0  0  0  0
   62.2273   34.9734   49.7746 H   0  0  0  0  0  0  0  0  0  0  0  0
   59.7567   34.6521   49.8630 H   0  0  0  0  0  0  0  0  0  0  0  0
   58.1622   31.6992   51.4862 H   0  0  0  0  0  0  0  0  0  0  0  0
   57.9243   33.4004   50.9644 H   0  0  0  0  0  0  0  0  0  0  0  0
   61.1320   31.9989   48.2221 H   0  0  0  0  0  0  0  0  0  0  0  0
   62.4010   30.4530   46.8610 H   0  0  0  0  0  0  0  0  0  0  0  0
   61.3857   28.9615   45.2580 H   0  0  0  0  0  0  0  0  0  0  0  0
   58.1395   29.2730   44.0734 H   0  0  0  0  0  0  0  0  0  0  0  0
   59.6115   28.2197   44.1728 H   0  0  0  0  0  0  0  0  0  0  0  0
   55.5160   28.8410   44.0360 H   0  0  0  0  0  0  0  0  0  0  0  0
   55.5650   29.5850   45.6550 H   0  0  0  0  0  0  0  0  0  0  0  0
   60.3344   30.6515   51.4222 H   0  0  0  0  0  0  0  0  0  0  0  0
   62.8048   30.9752   51.3309 H   0  0  0  0  0  0  0  0  0  0  0  0
  2  1  1  1
  2  3  2  0
  2  4  2  0
  4  5  1  0
  5  6  3  0
  2  7  1  0
  7  8  2  0
  8  9  1  0
  9 10  2  0
 10 11  1  0
 11 12  1  0
 12 13  1  0
 13 14  2  0
 13 15  1  0
 15 16  2  0
 16 17  1  0
 17 18  2  0
 18 19  1  0
 19 20  1  0
 20 21  1  0
 21 22  2  0
 22 23  1  0
 22 24  1  0
 24 25  1  0
 25 26  2  0
 25 27  1  0
 27 28  1  0
 28 29  2  0
 19 30  1  0
 30 31  2  0
 10 32  1  0
 32 33  2  0
 33  7  1  0
 30 15  1  0
 28 21  1  0
  1 34  1  0
  1 35  1  0
  1 36  1  0
  8 37  1  0
  9 38  1  0
 11 39  1  0
 11 40  1  0
 16 41  1  0
 17 42  1  0
 18 43  1  0
 20 44  1  0
 20 45  1  0
 23 46  1  0
 23 47  1  0
 32 48  1  0
 33 49  1  0
M  CHG  4  12  -1  17   1  24  -1  27  -1
M  END
>  <UniqueID>  (83) 
75

>  <SMILES>  (83) 
C[S@@](=O)(=NC#N)c1ccc(C[N-]C(=O)c2c[nH+]cn(Cc3c(N)[n-]c(=O)[n-]c3=O)c2=O)cc1

>  <Energy>  (83) 
56.79075397172483

>  <Genealogy>  (83) 
CS(=O)(=NC#N)c1ccc(C[N-]C(=O)c2c[nH+]cn(Cc3c(N)[n-]c(=O)[n-]c3=O)c2=O)cc1 (protonated)
C[S@@](=O)(=NC#N)c1ccc(C[N-]C(=O)c2c[nH+]cn(Cc3c(N)[n-]c(=O)[n-]c3=O)c2=O)cc1 (chirality)
C[S@@](=O)(=NC#N)c1ccc(C[N-]C(=O)c2c[nH+]cn(Cc3c(N)[n-]c(=O)[n-]c3=O)c2=O)cc1 (3D coordinates assigned)
C[S@@](=O)(=NC#N)c1ccc(C[N-]C(=O)c2c[nH+]cn(Cc3c(N)[n-]c(=O)[n-]c3=O)c2=O)cc1 (optimized conformer: 56.79075397172483 kcal/mol)

>  <smiles>  (83) 
CS(=O)(=NC#N)c1ccc(CNC(=O)c2cncn(Cc3c(N)[nH]c(=O)[nH]c3=O)c2=O)cc1

>  <score_type>  (83) 
oracle

>  <origin>  (83) 
adg

>  <m_score__min__energy>  (83) 
-12.75

>  <m_primary>  (83) 
energy

$$$$
83:0
     RDKit          3D

 37 39  0  0  0  0  0  0  0  0999 V2000
   51.0930   31.8420   55.5370 C   0  0  0  0  0  0  0  0  0  0  0  0
   50.7910   31.6260   54.2560 C   0  0  0  0  0  0  0  0  0  0  0  0
   51.7970   31.2970   53.2130 C   0  0  0  0  0  0  0  0  0  0  0  0
   52.8680   30.4140   53.4660 C   0  0  0  0  0  0  0  0  0  0  0  0
   53.7880   30.0960   52.4560 C   0  0  0  0  0  0  0  0  0  0  0  0
   54.9020   29.1700   52.7440 C   0  0  0  0  0  0  0  0  0  0  0  0
   54.6690   28.1190   53.3970 O   0  0  0  0  0  0  0  0  0  0  0  0
   56.2390   29.4170   52.2880 N   0  0  0  0  0  0  0  0  0  0  0  0
   57.1700   30.3860   52.8630 C   0  0  0  0  0  0  0  0  0  0  0  0
   56.8850   31.7920   52.3290 C   0  0  0  0  0  0  0  0  0  0  0  0
   57.8630   32.1490   51.2560 C   0  0  0  0  0  0  0  0  0  0  0  0
   58.0340   31.3910   50.1400 N   0  0  0  0  0  0  0  0  0  0  0  0
   58.9410   32.0940   49.4490 C   0  0  0  0  0  0  0  0  0  0  0  0
   59.4980   31.7850   48.2100 C   0  0  0  0  0  0  0  0  0  0  0  0
   60.4350   32.6870   47.6720 C   0  0  0  0  0  0  0  0  0  0  0  0
   60.7850   33.8610   48.3780 C   0  0  0  0  0  0  0  0  0  0  0  0
   60.2010   34.1410   49.6280 C   0  0  0  0  0  0  0  0  0  0  0  0
   59.2790   33.2240   50.1300 C   0  0  0  0  0  0  0  0  0  0  0  0
   58.6010   33.2900   51.2850 N   0  0  0  0  0  0  0  0  0  0  0  0
   53.6590   30.6870   51.1930 C   0  0  0  0  0  0  0  0  0  0  0  0
   52.5980   31.5510   50.9280 C   0  0  0  0  0  0  0  0  0  0  0  0
   51.6650   31.8530   51.9240 C   0  0  0  0  0  0  0  0  0  0  0  0
   50.6170   32.7190   51.6270 O   0  0  0  0  0  0  0  0  0  0  0  0
   50.2966   32.0816   56.2570 H   0  0  0  0  0  0  0  0  0  0  0  0
   52.1385   31.7806   55.8735 H   0  0  0  0  0  0  0  0  0  0  0  0
   49.7356   31.6955   53.9539 H   0  0  0  0  0  0  0  0  0  0  0  0
   52.9827   29.9702   54.4659 H   0  0  0  0  0  0  0  0  0  0  0  0
   57.0607   30.3863   53.9576 H   0  0  0  0  0  0  0  0  0  0  0  0
   58.1949   30.1018   52.5821 H   0  0  0  0  0  0  0  0  0  0  0  0
   55.8660   31.8234   51.9159 H   0  0  0  0  0  0  0  0  0  0  0  0
   56.9803   32.5136   53.1538 H   0  0  0  0  0  0  0  0  0  0  0  0
   59.2155   30.8685   47.6712 H   0  0  0  0  0  0  0  0  0  0  0  0
   60.8978   32.4773   46.6964 H   0  0  0  0  0  0  0  0  0  0  0  0
   61.5179   34.5596   47.9481 H   0  0  0  0  0  0  0  0  0  0  0  0
   60.4629   35.0506   50.1883 H   0  0  0  0  0  0  0  0  0  0  0  0
   54.3975   30.4686   50.4075 H   0  0  0  0  0  0  0  0  0  0  0  0
   52.4942   31.9982   49.9284 H   0  0  0  0  0  0  0  0  0  0  0  0
  1  2  2  0
  2  3  1  0
  3  4  2  0
  4  5  1  0
  5  6  1  0
  6  7  2  0
  6  8  1  0
  8  9  1  0
  9 10  1  0
 10 11  1  0
 11 12  2  0
 12 13  1  0
 13 14  2  0
 14 15  1  0
 15 16  2  0
 16 17  1  0
 17 18  2  0
 18 19  1  0
  5 20  2  0
 20 21  1  0
 21 22  2  0
 22 23  1  0
 22  3  1  0
 19 11  1  0
 18 13  1  0
  1 24  1  0
  1 25  1  0
  2 26  1  0
  4 27  1  0
  9 28  1  0
  9 29  1  0
 10 30  1  0
 10 31  1  0
 14 32  1  0
 15 33  1  0
 16 34  1  0
 17 35  1  0
 20 36  1  0
 21 37  1  0
M  CHG  3   8  -1  19  -1  23  -1
M  END
>  <UniqueID>  (84) 
76

>  <SMILES>  (84) 
C=Cc1cc(C(=O)[N-]CCc2nc3ccccc3[n-]2)ccc1[O-]

>  <Energy>  (84) 
77.12979197345916

>  <Genealogy>  (84) 
C=Cc1cc(C(=O)[N-]CCc2nc3ccccc3[n-]2)ccc1[O-] (protonated)
C=Cc1cc(C(=O)[N-]CCc2nc3ccccc3[n-]2)ccc1[O-] (3D coordinates assigned)
C=Cc1cc(C(=O)[N-]CCc2nc3ccccc3[n-]2)ccc1[O-] (optimized conformer: 77.12979197345916 kcal/mol)

>  <smiles>  (84) 
C=Cc1cc(C(=O)NCCc2nc3ccccc3[nH]2)ccc1O

>  <score_type>  (84) 
oracle

>  <origin>  (84) 
adg

>  <m_score__min__energy>  (84) 
-12.619999999999999

>  <m_primary>  (84) 
energy

$$$$
84:0
     RDKit          3D

 36 38  0  0  0  0  0  0  0  0999 V2000
   55.9010   25.2120   47.3370 O   0  0  0  0  0  0  0  0  0  0  0  0
   55.9950   25.4900   46.1110 C   0  0  0  0  0  0  0  0  0  0  0  0
   55.7210   26.8220   45.6530 N   0  0  0  0  0  0  0  0  0  0  0  0
   56.6870   27.8180   45.2850 C   0  0  0  0  0  0  0  0  0  0  0  0
   57.9980   27.4800   44.9040 C   0  0  0  0  0  0  0  0  0  0  0  0
   58.8950   28.4790   44.5180 C   0  0  0  0  0  0  0  0  0  0  0  0
   58.4940   29.8160   44.5010 C   0  0  0  0  0  0  0  0  0  0  0  0
   57.1920   30.1680   44.8740 C   0  0  0  0  0  0  0  0  0  0  0  0
   56.8190   31.5190   44.8220 O   0  0  0  0  0  0  0  0  0  0  0  0
   57.5690   32.5910   45.3280 C   0  0  0  0  0  0  0  0  0  0  0  0
   58.1680   33.4790   44.4260 C   0  0  0  0  0  0  0  0  0  0  0  0
   58.9360   34.5510   44.8930 C   0  0  0  0  0  0  0  0  0  0  0  0
   59.1210   34.7330   46.2660 C   0  0  0  0  0  0  0  0  0  0  0  0
   58.5440   33.8410   47.1730 C   0  0  0  0  0  0  0  0  0  0  0  0
   57.7760   32.7690   46.7100 C   0  0  0  0  0  0  0  0  0  0  0  0
   56.2840   29.1580   45.2420 C   0  0  0  0  0  0  0  0  0  0  0  0
   56.3370   24.4270   45.1370 C   0  0  0  0  0  0  0  0  0  0  0  0
   55.4290   24.0630   44.1240 C   0  0  0  0  0  0  0  0  0  0  0  0
   55.7570   23.0600   43.2070 C   0  0  0  0  0  0  0  0  0  0  0  0
   56.9910   22.4110   43.2870 C   0  0  0  0  0  0  0  0  0  0  0  0
   57.9010   22.7630   44.2870 C   0  0  0  0  0  0  0  0  0  0  0  0
   57.5780   23.7650   45.2070 C   0  0  0  0  0  0  0  0  0  0  0  0
   58.3175   26.4274   44.9100 H   0  0  0  0  0  0  0  0  0  0  0  0
   59.9212   28.2110   44.2263 H   0  0  0  0  0  0  0  0  0  0  0  0
   59.2050   30.5967   44.1929 H   0  0  0  0  0  0  0  0  0  0  0  0
   58.0339   33.3328   43.3440 H   0  0  0  0  0  0  0  0  0  0  0  0
   59.3945   35.2510   44.1790 H   0  0  0  0  0  0  0  0  0  0  0  0
   59.7211   35.5788   46.6327 H   0  0  0  0  0  0  0  0  0  0  0  0
   58.6943   33.9825   48.2535 H   0  0  0  0  0  0  0  0  0  0  0  0
   57.3320   32.0624   47.4266 H   0  0  0  0  0  0  0  0  0  0  0  0
   55.2478   29.4238   45.4983 H   0  0  0  0  0  0  0  0  0  0  0  0
   54.4558   24.5709   44.0538 H   0  0  0  0  0  0  0  0  0  0  0  0
   55.0409   22.7811   42.4200 H   0  0  0  0  0  0  0  0  0  0  0  0
   57.2464   21.6231   42.5631 H   0  0  0  0  0  0  0  0  0  0  0  0
   58.8726   22.2512   44.3506 H   0  0  0  0  0  0  0  0  0  0  0  0
   58.2988   24.0384   45.9916 H   0  0  0  0  0  0  0  0  0  0  0  0
  1  2  2  0
  2  3  1  0
  3  4  1  0
  4  5  2  0
  5  6  1  0
  6  7  2  0
  7  8  1  0
  8  9  1  0
  9 10  1  0
 10 11  2  0
 11 12  1  0
 12 13  2  0
 13 14  1  0
 14 15  2  0
  8 16  2  0
  2 17  1  0
 17 18  2  0
 18 19  1  0
 19 20  2  0
 20 21  1  0
 21 22  2  0
 16  4  1  0
 22 17  1  0
 15 10  1  0
  5 23  1  0
  6 24  1  0
  7 25  1  0
 11 26  1  0
 12 27  1  0
 13 28  1  0
 14 29  1  0
 15 30  1  0
 16 31  1  0
 18 32  1  0
 19 33  1  0
 20 34  1  0
 21 35  1  0
 22 36  1  0
M  CHG  1   3  -1
M  END
>  <UniqueID>  (85) 
77

>  <SMILES>  (85) 
O=C([N-]c1cccc(Oc2ccccc2)c1)c1ccccc1

>  <Energy>  (85) 
49.7672185640947

>  <Genealogy>  (85) 
O=C([N-]c1cccc(Oc2ccccc2)c1)c1ccccc1 (protonated)
O=C([N-]c1cccc(Oc2ccccc2)c1)c1ccccc1 (3D coordinates assigned)
O=C([N-]c1cccc(Oc2ccccc2)c1)c1ccccc1 (optimized conformer: 49.7672185640947 kcal/mol)

>  <smiles>  (85) 
O=C(Nc1cccc(Oc2ccccc2)c1)c1ccccc1

>  <score_type>  (85) 
oracle

>  <origin>  (85) 
adg

>  <m_score__min__energy>  (85) 
-9.8300000000000001

>  <m_primary>  (85) 
energy

$$$$
85:0
     RDKit          3D

 54 58  0  0  0  0  0  0  0  0999 V2000
   58.9541   35.2298   43.8679 H   0  0  0  0  0  0  0  0  0  0  0  0
   58.8150   34.7150   44.8300 C   0  0  0  0  0  0  0  0  0  0  0  0
   59.8890   34.5860   45.7150 C   0  0  0  0  0  0  0  0  0  0  0  0
   60.8722   35.0018   45.4495 H   0  0  0  0  0  0  0  0  0  0  0  0
   59.7160   33.9290   46.9380 C   0  0  0  0  0  0  0  0  0  0  0  0
   60.5630   33.8326   47.6332 H   0  0  0  0  0  0  0  0  0  0  0  0
   58.4640   33.3920   47.2810 C   0  0  0  0  0  0  0  0  0  0  0  0
   58.2830   32.6620   48.5880 C   0  0  0  0  0  0  0  0  0  0  0  0
   57.4128   31.9935   48.5113 H   0  0  0  0  0  0  0  0  0  0  0  0
   58.1259   33.4003   49.3881 H   0  0  0  0  0  0  0  0  0  0  0  0
   59.4850   31.8610   48.9070 N   0  0  0  0  0  0  0  0  0  0  0  0
   60.5500   32.4350   49.5640 C   0  0  0  0  0  0  0  0  0  0  0  0
   60.5020   33.6440   49.9270 O   0  0  0  0  0  0  0  0  0  0  0  0
   61.7080   31.6850   49.8410 C   0  0  0  0  0  0  0  0  0  0  0  0
   62.8690   32.2980   50.5250 C   0  0  0  0  0  0  0  0  0  0  0  0
   63.8760   32.9330   49.7670 C   0  0  0  0  0  0  0  0  0  0  0  0
   63.7940   33.0110   48.0100 Cl  0  0  0  0  0  0  0  0  0  0  0  0
   64.9800   33.5030   50.4090 C   0  0  0  0  0  0  0  0  0  0  0  0
   65.7632   33.9973   49.8154 H   0  0  0  0  0  0  0  0  0  0  0  0
   65.0930   33.4480   51.7970 C   0  0  0  0  0  0  0  0  0  0  0  0
   65.9656   33.8968   52.2941 H   0  0  0  0  0  0  0  0  0  0  0  0
   64.1020   32.8250   52.5590 C   0  0  0  0  0  0  0  0  0  0  0  0
   64.2013   32.7803   53.6536 H   0  0  0  0  0  0  0  0  0  0  0  0
   62.9790   32.2550   51.9360 C   0  0  0  0  0  0  0  0  0  0  0  0
   61.9230   31.5910   52.7820 C   0  0  0  0  0  0  0  0  0  0  0  0
   62.1589   31.7393   53.8461 H   0  0  0  0  0  0  0  0  0  0  0  0
   60.9416   32.0349   52.5587 H   0  0  0  0  0  0  0  0  0  0  0  0
   61.8978   30.5142   52.5587 H   0  0  0  0  0  0  0  0  0  0  0  0
   61.7710   30.3470   49.4500 C   0  0  0  0  0  0  0  0  0  0  0  0
   62.6677   29.7486   49.6688 H   0  0  0  0  0  0  0  0  0  0  0  0
   60.6920   29.7730   48.7810 C   0  0  0  0  0  0  0  0  0  0  0  0
   60.7190   28.4410   48.3540 C   0  0  0  0  0  0  0  0  0  0  0  0
   61.5993   27.8141   48.5590 H   0  0  0  0  0  0  0  0  0  0  0  0
   59.6560   27.9240   47.6860 N   0  0  0  0  0  0  0  0  0  0  0  0
   58.5550   28.6760   47.4270 C   0  0  0  0  0  0  0  0  0  0  0  0
   57.5660   28.1530   46.7640 N   0  0  0  0  0  0  0  0  0  0  0  0
   57.6320   27.7520   45.3860 C   0  0  0  0  0  0  0  0  0  0  0  0
   57.9450   26.4200   45.0870 C   0  0  0  0  0  0  0  0  0  0  0  0
   58.1281   25.7051   45.9027 H   0  0  0  0  0  0  0  0  0  0  0  0
   58.0260   25.9940   43.7590 C   0  0  0  0  0  0  0  0  0  0  0  0
   58.2871   24.9498   43.5321 H   0  0  0  0  0  0  0  0  0  0  0  0
   57.7760   26.8920   42.7190 C   0  0  0  0  0  0  0  0  0  0  0  0
   57.8478   26.5560   41.6740 H   0  0  0  0  0  0  0  0  0  0  0  0
   57.4350   28.2160   43.0040 C   0  0  0  0  0  0  0  0  0  0  0  0
   57.2284   28.9177   42.1824 H   0  0  0  0  0  0  0  0  0  0  0  0
   57.3550   28.6540   44.3330 C   0  0  0  0  0  0  0  0  0  0  0  0
   56.9640   30.0180   44.5970 C   0  0  0  0  0  0  0  0  0  0  0  0
   56.6510   31.1110   44.8100 N   0  0  0  0  0  0  0  0  0  0  0  0
   58.5140   29.9730   47.8370 N   0  0  0  0  0  0  0  0  0  0  0  0
   59.5490   30.5470   48.5090 C   0  0  0  0  0  0  0  0  0  0  0  0
   57.3870   33.5330   46.3880 C   0  0  0  0  0  0  0  0  0  0  0  0
   56.4004   33.1243   46.6516 H   0  0  0  0  0  0  0  0  0  0  0  0
   57.5640   34.1900   45.1670 C   0  0  0  0  0  0  0  0  0  0  0  0
   56.7185   34.2940   44.4710 H   0  0  0  0  0  0  0  0  0  0  0  0
  1  2  1  0
  2  3  2  0
  3  4  1  0
  3  5  1  0
  5  6  1  0
  5  7  2  0
  7  8  1  0
  8  9  1  0
  8 10  1  0
  8 11  1  0
 11 12  1  0
 12 13  2  0
 12 14  1  0
 14 15  1  0
 15 16  2  0
 16 17  1  0
 16 18  1  0
 18 19  1  0
 18 20  2  0
 20 21  1  0
 20 22  1  0
 22 23  1  0
 22 24  2  0
 24 25  1  0
 25 26  1  0
 25 27  1  0
 25 28  1  0
 14 29  2  0
 29 30  1  0
 29 31  1  0
 31 32  2  0
 32 33  1  0
 32 34  1  0
 34 35  1  0
 35 36  2  0
 36 37  1  0
 37 38  2  0
 38 39  1  0
 38 40  1  0
 40 41  1  0
 40 42  2  0
 42 43  1  0
 42 44  1  0
 44 45  1  0
 44 46  2  0
 46 47  1  0
 47 48  3  0
 35 49  1  0
 49 50  2  0
  7 51  1  0
 51 52  1  0
 51 53  2  0
 53 54  1  0
 53  2  1  0
 50 11  1  0
 24 15  1  0
 50 31  1  0
 46 37  1  0
M  CHG  1  34  -1
M  END
>  <UniqueID>  (86) 
78

>  <SMILES>  (86) 
Cc1cccc(Cl)c1-c1cc2c[n-]/c(=N/c3ccccc3C#N)nc2n(Cc2ccccc2)c1=O

>  <Energy>  (86) 
81.56321531034311

>  <Genealogy>  (86) 
Cc1cccc(Cl)c1-c1cc2c[n-]c(=Nc3ccccc3C#N)nc2n(Cc2ccccc2)c1=O (protonated)
Cc1cccc(Cl)c1-c1cc2c[n-]/c(=N/c3ccccc3C#N)nc2n(Cc2ccccc2)c1=O (cis-trans isomerization)
Cc1cccc(Cl)c1-c1cc2c[n-]/c(=N/c3ccccc3C#N)nc2n(Cc2ccccc2)c1=O (3D coordinates assigned)
Cc1cccc(Cl)c1-c1cc2c[n-]/c(=N/c3ccccc3C#N)nc2n(Cc2ccccc2)c1=O (optimized conformer: 81.56321531034311 kcal/mol)

>  <smiles>  (86) 
Cc1cccc(Cl)c1-c1cc2c[nH]c(=Nc3ccccc3C#N)nc2n(Cc2ccccc2)c1=O

>  <score_type>  (86) 
oracle

>  <origin>  (86) 
adg

>  <m_score__min__energy>  (86) 
-10.08

>  <m_primary>  (86) 
energy

$$$$
86:0
     RDKit          3D

 46 48  0  0  0  0  0  0  0  0999 V2000
   58.8260   32.6330   49.5130 C   0  0  0  0  0  0  0  0  0  0  0  0
   58.1800   32.7330   48.2490 O   0  0  0  0  0  0  0  0  0  0  0  0
   58.5630   33.6150   47.2260 C   0  0  0  0  0  0  0  0  0  0  0  0
   59.3330   34.7670   47.4820 C   0  0  0  0  0  0  0  0  0  0  0  0
   59.6820   35.6290   46.4410 C   0  0  0  0  0  0  0  0  0  0  0  0
   59.2580   35.3600   45.1400 C   0  0  0  0  0  0  0  0  0  0  0  0
   58.4950   34.2210   44.8720 C   0  0  0  0  0  0  0  0  0  0  0  0
   58.1620   33.3300   45.9090 C   0  0  0  0  0  0  0  0  0  0  0  0
   57.3570   32.1640   45.6770 N   0  0  0  0  0  0  0  0  0  0  0  0
   57.6220   31.0830   44.7770 C   0  0  0  0  0  0  0  0  0  0  0  0
   58.0960   31.3030   43.6310 O   0  0  0  0  0  0  0  0  0  0  0  0
   57.4500   29.6960   45.2380 C   0  0  0  0  0  0  0  0  0  0  0  0
   56.3000   28.9300   45.1170 C   0  0  0  0  0  0  0  0  0  0  0  0
   55.0850   29.3460   44.4920 N   0  0  0  0  0  0  0  0  0  0  0  0
   56.4700   27.6930   45.6200 N   0  0  0  0  0  0  0  0  0  0  0  0
   57.7350   27.6650   46.0830 C   0  0  0  0  0  0  0  0  0  0  0  0
   58.3370   26.4560   46.7240 C   0  0  0  0  0  0  0  0  0  0  0  0
   58.3790   28.8730   45.8590 C   0  0  0  0  0  0  0  0  0  0  0  0
   60.0020   29.2780   46.4390 S   0  0  0  0  0  0  0  0  0  0  0  0
   60.3930   28.4780   47.6470 O   0  0  0  0  0  0  0  0  0  0  0  0
   60.9800   28.9800   45.3380 O   0  0  0  0  0  0  0  0  0  0  0  0
   60.0860   30.9680   46.8260 N   0  0  0  0  0  0  0  0  0  0  0  0
   61.2560   31.6180   47.3540 C   0  0  0  0  0  0  0  0  0  0  0  0
   61.8920   31.0710   48.4810 C   0  0  0  0  0  0  0  0  0  0  0  0
   63.0330   31.6770   49.0170 C   0  0  0  0  0  0  0  0  0  0  0  0
   63.5470   32.8380   48.4350 C   0  0  0  0  0  0  0  0  0  0  0  0
   62.9210   33.3940   47.3180 C   0  0  0  0  0  0  0  0  0  0  0  0
   61.7800   32.7920   46.7810 C   0  0  0  0  0  0  0  0  0  0  0  0
   58.0821   32.7482   50.3151 H   0  0  0  0  0  0  0  0  0  0  0  0
   59.3102   31.6492   49.6005 H   0  0  0  0  0  0  0  0  0  0  0  0
   59.5850   33.4243   49.6005 H   0  0  0  0  0  0  0  0  0  0  0  0
   59.6611   34.9884   48.5083 H   0  0  0  0  0  0  0  0  0  0  0  0
   60.2918   36.5210   46.6470 H   0  0  0  0  0  0  0  0  0  0  0  0
   59.5250   36.0463   44.3229 H   0  0  0  0  0  0  0  0  0  0  0  0
   58.1530   34.0197   43.8461 H   0  0  0  0  0  0  0  0  0  0  0  0
   54.6540   30.2740   44.7010 H   0  0  0  0  0  0  0  0  0  0  0  0
   54.6270   28.7300   43.7850 H   0  0  0  0  0  0  0  0  0  0  0  0
   58.2864   26.5575   47.8181 H   0  0  0  0  0  0  0  0  0  0  0  0
   57.7798   25.5601   46.4128 H   0  0  0  0  0  0  0  0  0  0  0  0
   59.3877   26.3608   46.4128 H   0  0  0  0  0  0  0  0  0  0  0  0
   59.2020   31.5160   46.7320 H   0  0  0  0  0  0  0  0  0  0  0  0
   61.4894   30.1588   48.9456 H   0  0  0  0  0  0  0  0  0  0  0  0
   63.5258   31.2389   49.8975 H   0  0  0  0  0  0  0  0  0  0  0  0
   64.4446   33.3140   48.8566 H   0  0  0  0  0  0  0  0  0  0  0  0
   63.3267   34.3079   46.8596 H   0  0  0  0  0  0  0  0  0  0  0  0
   61.2879   33.2387   45.9044 H   0  0  0  0  0  0  0  0  0  0  0  0
  1  2  1  0
  2  3  1  0
  3  4  2  0
  4  5  1  0
  5  6  2  0
  6  7  1  0
  7  8  2  0
  8  9  1  0
  9 10  1  0
 10 11  2  0
 10 12  1  0
 12 13  2  0
 13 14  1  0
 13 15  1  0
 15 16  1  0
 16 17  1  0
 16 18  2  0
 18 19  1  0
 19 20  2  0
 19 21  2  0
 19 22  1  0
 22 23  1  0
 23 24  2  0
 24 25  1  0
 25 26  2  0
 26 27  1  0
 27 28  2  0
  8  3  1  0
 18 12  1  0
 28 23  1  0
  1 29  1  0
  1 30  1  0
  1 31  1  0
  4 32  1  0
  5 33  1  0
  6 34  1  0
  7 35  1  0
 14 36  1  0
 14 37  1  0
 17 38  1  0
 17 39  1  0
 17 40  1  0
 22 41  1  0
 24 42  1  0
 25 43  1  0
 26 44  1  0
 27 45  1  0
 28 46  1  0
M  CHG  2   9  -1  15  -1
M  END
>  <UniqueID>  (87) 
79

>  <SMILES>  (87) 
COc1ccccc1[N-]C(=O)c1c(N)[n-]c(C)c1S(=O)(=O)Nc1ccccc1

>  <Energy>  (87) 
81.7632941099156

>  <Genealogy>  (87) 
COc1ccccc1[N-]C(=O)c1c(N)[n-]c(C)c1S(=O)(=O)Nc1ccccc1 (protonated)
COc1ccccc1[N-]C(=O)c1c(N)[n-]c(C)c1S(=O)(=O)Nc1ccccc1 (3D coordinates assigned)
COc1ccccc1[N-]C(=O)c1c(N)[n-]c(C)c1S(=O)(=O)Nc1ccccc1 (optimized conformer: 81.7632941099156 kcal/mol)

>  <smiles>  (87) 
COc1ccccc1NC(=O)c1c(N)[nH]c(C)c1S(=O)(=O)Nc1ccccc1

>  <score_type>  (87) 
oracle

>  <origin>  (87) 
adg

>  <m_score__min__energy>  (87) 
-11.66

>  <m_primary>  (87) 
energy

$$$$
87:0
     RDKit          3D

 50 53  0  0  0  0  0  0  0  0999 V2000
   56.4020   29.1020   44.8750 O   0  0  0  0  0  0  0  0  0  0  0  0
   57.6350   29.3230   44.7210 C   0  0  0  0  0  0  0  0  0  0  0  0
   58.3710   28.5740   43.7410 N   0  0  0  0  0  0  0  0  0  0  0  0
   57.7670   27.4380   43.0460 C   0  0  0  0  0  0  0  0  0  0  0  0
   57.7990   26.2080   43.9120 C   0  0  0  0  0  0  0  0  0  0  0  0
   58.3560   26.2650   45.2000 C   0  0  0  0  0  0  0  0  0  0  0  0
   58.4210   25.1130   45.9900 C   0  0  0  0  0  0  0  0  0  0  0  0
   57.9420   23.8960   45.4970 C   0  0  0  0  0  0  0  0  0  0  0  0
   57.4010   23.8270   44.2090 C   0  0  0  0  0  0  0  0  0  0  0  0
   56.7600   22.1610   43.5290 Br  0  0  0  0  0  0  0  0  0  0  0  0
   57.3340   24.9790   43.4160 C   0  0  0  0  0  0  0  0  0  0  0  0
   58.2970   30.3620   45.5460 C   0  0  0  0  0  0  0  0  0  0  0  0
   58.9190   30.0070   46.7530 C   0  0  0  0  0  0  0  0  0  0  0  0
   59.5610   30.9660   47.5370 C   0  0  0  0  0  0  0  0  0  0  0  0
   59.6190   32.3120   47.1190 C   0  0  0  0  0  0  0  0  0  0  0  0
   60.3010   33.3230   47.8430 C   0  0  0  0  0  0  0  0  0  0  0  0
   61.1030   33.0540   49.0970 C   0  0  0  0  0  0  0  0  0  0  0  0
   62.7430   33.7590   48.9600 S   0  0  0  0  0  0  0  0  0  0  0  0
   62.7400   35.1370   49.5600 O   0  0  0  0  0  0  0  0  0  0  0  0
   63.1200   33.8710   47.5090 O   0  0  0  0  0  0  0  0  0  0  0  0
   63.9260   32.7550   49.7950 C   0  0  0  0  0  0  0  0  0  0  0  0
   65.2920   33.0600   49.7090 C   0  0  0  0  0  0  0  0  0  0  0  0
   66.2410   32.2120   50.2880 C   0  0  0  0  0  0  0  0  0  0  0  0
   65.8290   31.0570   50.9610 C   0  0  0  0  0  0  0  0  0  0  0  0
   67.0210   29.9810   51.6650 Cl  0  0  0  0  0  0  0  0  0  0  0  0
   64.4670   30.7560   51.0610 C   0  0  0  0  0  0  0  0  0  0  0  0
   63.5170   31.6010   50.4800 C   0  0  0  0  0  0  0  0  0  0  0  0
   60.3100   34.6250   47.3230 C   0  0  0  0  0  0  0  0  0  0  0  0
   59.6500   34.8950   46.1240 C   0  0  0  0  0  0  0  0  0  0  0  0
   59.6490   36.0640   45.6560 O   0  0  0  0  0  0  0  0  0  0  0  0
   59.0290   33.9250   45.4660 O   0  0  0  0  0  0  0  0  0  0  0  0
   58.9920   32.6700   45.9000 C   0  0  0  0  0  0  0  0  0  0  0  0
   58.3400   31.7020   45.1300 C   0  0  0  0  0  0  0  0  0  0  0  0
   59.3360   28.8790   43.4800 H   0  0  0  0  0  0  0  0  0  0  0  0
   56.7225   27.6792   42.7994 H   0  0  0  0  0  0  0  0  0  0  0  0
   58.3393   27.2396   42.1278 H   0  0  0  0  0  0  0  0  0  0  0  0
   58.7423   27.2188   45.5886 H   0  0  0  0  0  0  0  0  0  0  0  0
   58.8500   25.1647   47.0016 H   0  0  0  0  0  0  0  0  0  0  0  0
   57.9905   22.9922   46.1221 H   0  0  0  0  0  0  0  0  0  0  0  0
   56.9155   24.9213   42.4004 H   0  0  0  0  0  0  0  0  0  0  0  0
   58.9001   28.9586   47.0853 H   0  0  0  0  0  0  0  0  0  0  0  0
   60.0258   30.6700   48.4890 H   0  0  0  0  0  0  0  0  0  0  0  0
   60.5875   33.5027   49.9589 H   0  0  0  0  0  0  0  0  0  0  0  0
   61.1949   31.9662   49.2324 H   0  0  0  0  0  0  0  0  0  0  0  0
   65.6182   33.9699   49.1840 H   0  0  0  0  0  0  0  0  0  0  0  0
   67.3117   32.4531   50.2143 H   0  0  0  0  0  0  0  0  0  0  0  0
   64.1426   29.8524   51.5980 H   0  0  0  0  0  0  0  0  0  0  0  0
   62.4466   31.3606   50.5601 H   0  0  0  0  0  0  0  0  0  0  0  0
   60.8351   35.4300   47.8580 H   0  0  0  0  0  0  0  0  0  0  0  0
   57.8549   31.9940   44.1869 H   0  0  0  0  0  0  0  0  0  0  0  0
  1  2  2  0
  2  3  1  0
  3  4  1  0
  4  5  1  0
  5  6  2  0
  6  7  1  0
  7  8  2  0
  8  9  1  0
  9 10  1  0
  9 11  2  0
  2 12  1  0
 12 13  2  0
 13 14  1  0
 14 15  2  0
 15 16  1  0
 16 17  1  0
 17 18  1  0
 18 19  2  0
 18 20  2  0
 18 21  1  0
 21 22  2  0
 22 23  1  0
 23 24  2  0
 24 25  1  0
 24 26  1  0
 26 27  2  0
 16 28  2  0
 28 29  1  0
 29 30  2  0
 29 31  1  0
 31 32  1  0
 32 33  2  0
 11  5  1  0
 33 12  1  0
 32 15  1  0
 27 21  1  0
  3 34  1  0
  4 35  1  0
  4 36  1  0
  6 37  1  0
  7 38  1  0
  8 39  1  0
 11 40  1  0
 13 41  1  0
 14 42  1  0
 17 43  1  0
 17 44  1  0
 22 45  1  0
 23 46  1  0
 26 47  1  0
 27 48  1  0
 28 49  1  0
 33 50  1  0
M  END
>  <UniqueID>  (88) 
80

>  <SMILES>  (88) 
O=C(NCc1cccc(Br)c1)c1ccc2c(CS(=O)(=O)c3ccc(Cl)cc3)cc(=O)oc2c1

>  <Energy>  (88) 
55.32426309620843

>  <Genealogy>  (88) 
O=C(NCc1cccc(Br)c1)c1ccc2c(CS(=O)(=O)c3ccc(Cl)cc3)cc(=O)oc2c1 (3D coordinates assigned)
O=C(NCc1cccc(Br)c1)c1ccc2c(CS(=O)(=O)c3ccc(Cl)cc3)cc(=O)oc2c1 (optimized conformer: 55.32426309620843 kcal/mol)

>  <smiles>  (88) 
O=C(NCc1cccc(Br)c1)c1ccc2c(CS(=O)(=O)c3ccc(Cl)cc3)cc(=O)oc2c1

>  <score_type>  (88) 
oracle

>  <origin>  (88) 
adg

>  <m_score__min__energy>  (88) 
-10.140000000000001

>  <m_primary>  (88) 
energy

$$$$
88:0
     RDKit          3D

 32 34  0  0  0  0  0  0  0  0999 V2000
   58.7180   24.9730   46.4240 C   0  0  0  0  0  0  0  0  0  0  0  0
   58.4470   25.8880   45.3060 N   0  0  0  0  0  0  0  0  0  0  0  0
   57.0610   26.4300   45.3820 C   0  0  0  0  0  0  0  0  0  0  0  0
   57.2510   27.8770   45.5690 C   0  0  0  0  0  0  0  0  0  0  0  0
   56.5070   28.9620   45.1610 C   0  0  0  0  0  0  0  0  0  0  0  0
   55.1450   28.9670   44.8880 O   0  0  0  0  0  0  0  0  0  0  0  0
   57.3430   30.0070   44.9480 N   0  0  0  0  0  0  0  0  0  0  0  0
   57.0070   31.3000   44.3530 C   0  0  0  0  0  0  0  0  0  0  0  0
   57.7450   32.4060   45.0580 C   0  0  0  0  0  0  0  0  0  0  0  0
   58.3900   33.4120   44.3190 C   0  0  0  0  0  0  0  0  0  0  0  0
   59.0430   34.4600   44.9760 C   0  0  0  0  0  0  0  0  0  0  0  0
   59.0490   34.5150   46.3720 C   0  0  0  0  0  0  0  0  0  0  0  0
   58.4030   33.5230   47.1140 C   0  0  0  0  0  0  0  0  0  0  0  0
   57.7500   32.4740   46.4610 C   0  0  0  0  0  0  0  0  0  0  0  0
   58.5780   29.4860   45.1480 C   0  0  0  0  0  0  0  0  0  0  0  0
   59.6520   30.0880   44.8770 O   0  0  0  0  0  0  0  0  0  0  0  0
   58.5220   28.2110   45.5750 N   0  0  0  0  0  0  0  0  0  0  0  0
   59.3650   27.0630   45.3400 C   0  0  0  0  0  0  0  0  0  0  0  0
   58.5616   25.5011   47.3762 H   0  0  0  0  0  0  0  0  0  0  0  0
   58.0364   24.1115   46.3662 H   0  0  0  0  0  0  0  0  0  0  0  0
   59.7588   24.6216   46.3662 H   0  0  0  0  0  0  0  0  0  0  0  0
   56.5103   26.2255   44.4520 H   0  0  0  0  0  0  0  0  0  0  0  0
   56.4731   25.9734   46.1918 H   0  0  0  0  0  0  0  0  0  0  0  0
   57.2898   31.2949   43.2900 H   0  0  0  0  0  0  0  0  0  0  0  0
   55.9250   31.4703   44.4538 H   0  0  0  0  0  0  0  0  0  0  0  0
   58.3814   33.3753   43.2196 H   0  0  0  0  0  0  0  0  0  0  0  0
   59.5523   35.2416   44.3931 H   0  0  0  0  0  0  0  0  0  0  0  0
   59.5627   35.3399   46.8873 H   0  0  0  0  0  0  0  0  0  0  0  0
   58.4083   33.5676   48.2131 H   0  0  0  0  0  0  0  0  0  0  0  0
   57.2375   31.6980   47.0485 H   0  0  0  0  0  0  0  0  0  0  0  0
   59.8931   27.1650   44.3804 H   0  0  0  0  0  0  0  0  0  0  0  0
   60.1322   26.9562   46.1210 H   0  0  0  0  0  0  0  0  0  0  0  0
  1  2  1  0
  2  3  1  0
  3  4  1  0
  4  5  2  0
  5  6  1  0
  5  7  1  0
  7  8  1  0
  8  9  1  0
  9 10  2  0
 10 11  1  0
 11 12  2  0
 12 13  1  0
 13 14  2  0
  7 15  1  0
 15 16  2  0
 15 17  1  0
 17 18  1  0
 18  2  1  0
 17  4  1  0
 14  9  1  0
  1 19  1  0
  1 20  1  0
  1 21  1  0
  3 22  1  0
  3 23  1  0
  8 24  1  0
  8 25  1  0
 10 26  1  0
 11 27  1  0
 12 28  1  0
 13 29  1  0
 14 30  1  0
 18 31  1  0
 18 32  1  0
M  CHG  1   6  -1
M  END
>  <UniqueID>  (89) 
81

>  <SMILES>  (89) 
CN1Cc2c([O-])n(Cc3ccccc3)c(=O)n2C1

>  <Energy>  (89) 
94.08761304808523

>  <Genealogy>  (89) 
CN1Cc2c([O-])n(Cc3ccccc3)c(=O)n2C1 (protonated)
CN1Cc2c([O-])n(Cc3ccccc3)c(=O)n2C1 (3D coordinates assigned)
CN1Cc2c([O-])n(Cc3ccccc3)c(=O)n2C1 (nonaromatic ring conformer: 94.08761304808523 kcal/mol)

>  <smiles>  (89) 
CN1Cc2c(O)n(Cc3ccccc3)c(=O)n2C1

>  <score_type>  (89) 
oracle

>  <origin>  (89) 
adg

>  <m_score__min__energy>  (89) 
-9.7699999999999996

>  <m_primary>  (89) 
energy

$$$$
89:0
     RDKit          3D

 62 65  0  0  0  0  0  0  0  0999 V2000
   54.3340   30.5090   52.0030 C   0  0  0  0  0  0  0  0  0  0  0  0
   55.2510   29.6020   52.8270 C   0  0  0  0  0  0  0  0  0  0  0  0
   56.6620   30.1920   52.9820 C   0  0  0  0  0  0  0  0  0  0  0  0
   57.4260   30.1400   51.7170 N   0  0  0  0  0  0  0  0  0  0  0  0
   57.3730   31.4360   50.9900 C   0  0  0  0  0  0  0  0  0  0  0  0
   58.5220   31.6100   49.9740 C   0  0  0  0  0  0  0  0  0  0  0  0
   59.0600   30.3040   49.5810 N   0  0  0  0  0  0  0  0  0  0  0  0
   58.9710   29.8760   48.2130 C   0  0  0  0  0  0  0  0  0  0  0  0
   58.6800   28.5740   47.9330 N   0  0  0  0  0  0  0  0  0  0  0  0
   58.5010   28.1480   46.6500 C   0  0  0  0  0  0  0  0  0  0  0  0
   58.1950   26.8110   46.3690 C   0  0  0  0  0  0  0  0  0  0  0  0
   58.0060   26.3830   45.0420 C   0  0  0  0  0  0  0  0  0  0  0  0
   57.6740   24.9380   44.7750 C   0  0  0  0  0  0  0  0  0  0  0  0
   58.1280   27.3170   43.9850 C   0  0  0  0  0  0  0  0  0  0  0  0
   57.9500   26.9280   42.6160 N   0  0  0  0  0  0  0  0  0  0  0  0
   58.4300   28.6570   44.2760 C   0  0  0  0  0  0  0  0  0  0  0  0
   58.6130   29.0720   45.5970 C   0  0  0  0  0  0  0  0  0  0  0  0
   58.8960   30.3690   45.8770 N   0  0  0  0  0  0  0  0  0  0  0  0
   59.0840   30.8010   47.1530 C   0  0  0  0  0  0  0  0  0  0  0  0
   59.4010   32.1830   47.3870 N   0  0  0  0  0  0  0  0  0  0  0  0
   60.7890   32.6190   47.5730 C   0  0  0  0  0  0  0  0  0  0  0  0
   61.1040   33.8100   46.6530 C   0  0  0  0  0  0  0  0  0  0  0  0
   60.0070   34.8130   46.5500 N   0  0  0  0  0  0  0  0  0  0  0  0
   59.5220   34.9490   45.1640 C   0  0  0  0  0  0  0  0  0  0  0  0
   58.8920   34.5970   47.4990 C   0  0  0  0  0  0  0  0  0  0  0  0
   58.3230   33.1740   47.3970 C   0  0  0  0  0  0  0  0  0  0  0  0
   59.4750   29.3600   50.6240 C   0  0  0  0  0  0  0  0  0  0  0  0
   58.8170   29.7150   51.9630 C   0  0  0  0  0  0  0  0  0  0  0  0
   53.7173   31.1189   52.6796 H   0  0  0  0  0  0  0  0  0  0  0  0
   54.9444   31.1685   51.3686 H   0  0  0  0  0  0  0  0  0  0  0  0
   53.6812   29.8914   51.3686 H   0  0  0  0  0  0  0  0  0  0  0  0
   54.8114   29.4671   53.8263 H   0  0  0  0  0  0  0  0  0  0  0  0
   55.3419   28.6421   52.2976 H   0  0  0  0  0  0  0  0  0  0  0  0
   56.5752   31.2409   53.3016 H   0  0  0  0  0  0  0  0  0  0  0  0
   57.2012   29.5916   53.7296 H   0  0  0  0  0  0  0  0  0  0  0  0
   56.4166   31.4951   50.4498 H   0  0  0  0  0  0  0  0  0  0  0  0
   57.4744   32.2355   51.7387 H   0  0  0  0  0  0  0  0  0  0  0  0
   58.1412   32.1283   49.0817 H   0  0  0  0  0  0  0  0  0  0  0  0
   59.3243   32.2002   50.4409 H   0  0  0  0  0  0  0  0  0  0  0  0
   58.5590   27.9000   48.7240 H   0  0  0  0  0  0  0  0  0  0  0  0
   58.1015   26.0885   47.1932 H   0  0  0  0  0  0  0  0  0  0  0  0
   57.5520   24.4072   45.7307 H   0  0  0  0  0  0  0  0  0  0  0  0
   56.7384   24.8770   44.1997 H   0  0  0  0  0  0  0  0  0  0  0  0
   58.4891   24.4748   44.1997 H   0  0  0  0  0  0  0  0  0  0  0  0
   57.0100   26.7100   42.2170 H   0  0  0  0  0  0  0  0  0  0  0  0
   58.7740   26.8410   41.9810 H   0  0  0  0  0  0  0  0  0  0  0  0
   58.5232   29.3856   43.4572 H   0  0  0  0  0  0  0  0  0  0  0  0
   60.9369   32.9209   48.6204 H   0  0  0  0  0  0  0  0  0  0  0  0
   61.4617   31.7858   47.3214 H   0  0  0  0  0  0  0  0  0  0  0  0
   61.9994   34.3176   47.0411 H   0  0  0  0  0  0  0  0  0  0  0  0
   61.2495   33.3980   45.6435 H   0  0  0  0  0  0  0  0  0  0  0  0
   58.4629   35.2460   45.1736 H   0  0  0  0  0  0  0  0  0  0  0  0
   60.1132   35.7160   44.6423 H   0  0  0  0  0  0  0  0  0  0  0  0
   59.6282   33.9864   44.6423 H   0  0  0  0  0  0  0  0  0  0  0  0
   59.2592   34.7610   48.5229 H   0  0  0  0  0  0  0  0  0  0  0  0
   58.0883   35.3051   47.2487 H   0  0  0  0  0  0  0  0  0  0  0  0
   57.6672   32.9850   48.2597 H   0  0  0  0  0  0  0  0  0  0  0  0
   57.7554   33.0874   46.4587 H   0  0  0  0  0  0  0  0  0  0  0  0
   59.1750   28.3429   50.3317 H   0  0  0  0  0  0  0  0  0  0  0  0
   60.5676   29.4150   50.7391 H   0  0  0  0  0  0  0  0  0  0  0  0
   58.8224   28.8340   52.6216 H   0  0  0  0  0  0  0  0  0  0  0  0
   59.3748   30.5306   52.4464 H   0  0  0  0  0  0  0  0  0  0  0  0
  1  2  1  0
  2  3  1  0
  3  4  1  0
  4  5  1  0
  5  6  1  0
  6  7  1  0
  7  8  1  0
  8  9  2  0
  9 10  1  0
 10 11  2  0
 11 12  1  0
 12 13  1  0
 12 14  2  0
 14 15  1  0
 14 16  1  0
 16 17  2  0
 17 18  1  0
 18 19  2  0
 19 20  1  0
 20 21  1  0
 21 22  1  0
 22 23  1  0
 23 24  1  0
 23 25  1  0
 25 26  1  0
  7 27  1  0
 27 28  1  0
 28  4  1  0
 19  8  1  0
 26 20  1  0
 17 10  1  0
  1 29  1  0
  1 30  1  0
  1 31  1  0
  2 32  1  0
  2 33  1  0
  3 34  1  0
  3 35  1  0
  5 36  1  0
  5 37  1  0
  6 38  1  0
  6 39  1  0
  9 40  1  0
 11 41  1  0
 13 42  1  0
 13 43  1  0
 13 44  1  0
 15 45  1  0
 15 46  1  0
 16 47  1  0
 21 48  1  0
 21 49  1  0
 22 50  1  0
 22 51  1  0
 24 52  1  0
 24 53  1  0
 24 54  1  0
 25 55  1  0
 25 56  1  0
 26 57  1  0
 26 58  1  0
 27 59  1  0
 27 60  1  0
 28 61  1  0
 28 62  1  0
M  CHG  1   9   1
M  END
>  <UniqueID>  (90) 
82

>  <SMILES>  (90) 
CCCN1CCN(c2[nH+]c3cc(C)c(N)cc3nc2N2CCN(C)CC2)CC1

>  <Energy>  (90) 
85.02740814316049

>  <Genealogy>  (90) 
CCCN1CCN(c2[nH+]c3cc(C)c(N)cc3nc2N2CCN(C)CC2)CC1 (protonated)
CCCN1CCN(c2[nH+]c3cc(C)c(N)cc3nc2N2CCN(C)CC2)CC1 (3D coordinates assigned)
CCCN1CCN(c2[nH+]c3cc(C)c(N)cc3nc2N2CCN(C)CC2)CC1 (nonaromatic ring conformer: 85.02740814316049 kcal/mol)

>  <smiles>  (90) 
CCCN1CCN(c2nc3cc(C)c(N)cc3nc2N2CCN(C)CC2)CC1

>  <score_type>  (90) 
oracle

>  <origin>  (90) 
adg

>  <m_score__min__energy>  (90) 
-6.3600000000000003

>  <m_primary>  (90) 
energy

$$$$
90:0
     RDKit          3D

 62 66  0  0  0  0  0  0  0  0999 V2000
   57.0168   23.4296   48.1734 H   0  0  0  0  0  0  0  0  0  0  0  0
   56.9060   23.5700   47.0880 C   0  0  0  0  0  0  0  0  0  0  0  0
   57.0380   22.4850   46.3110 C   0  0  0  0  0  0  0  0  0  0  0  0
   57.4175   21.5655   46.7807 H   0  0  0  0  0  0  0  0  0  0  0  0
   56.7130   22.4330   44.8770 C   0  0  0  0  0  0  0  0  0  0  0  0
   57.1910   21.4810   43.9960 C   0  0  0  0  0  0  0  0  0  0  0  0
   57.8345   20.6215   44.2350 H   0  0  0  0  0  0  0  0  0  0  0  0
   56.6960   21.8290   42.7550 C   0  0  0  0  0  0  0  0  0  0  0  0
   56.8529   21.2860   41.8113 H   0  0  0  0  0  0  0  0  0  0  0  0
   55.9650   22.9910   42.9250 C   0  0  0  0  0  0  0  0  0  0  0  0
   55.4407   23.5309   42.1228 H   0  0  0  0  0  0  0  0  0  0  0  0
   55.9910   23.3620   44.2170 N   0  0  0  0  0  0  0  0  0  0  0  0
   55.5430   24.2190   44.6210 H   0  0  0  0  0  0  0  0  0  0  0  0
   56.6240   24.9390   46.6070 C   0  0  0  0  0  0  0  0  0  0  0  0
   55.3960   25.4330   46.3110 N   0  0  0  0  0  0  0  0  0  0  0  0
   55.5060   26.7130   45.9820 N   0  0  0  0  0  0  0  0  0  0  0  0
   56.8050   27.0420   46.0740 C   0  0  0  0  0  0  0  0  0  0  0  0
   57.3880   28.2810   45.8340 C   0  0  0  0  0  0  0  0  0  0  0  0
   56.7858   29.1379   45.4978 H   0  0  0  0  0  0  0  0  0  0  0  0
   58.7810   28.4010   46.0370 C   0  0  0  0  0  0  0  0  0  0  0  0
   59.6230   29.9590   45.7410 S   0  0  0  0  0  0  0  0  0  0  0  0
   59.1370   30.6570   47.3320 C   0  0  0  0  0  0  0  0  0  0  0  0
   58.9090   29.7580   48.3880 C   0  0  0  0  0  0  0  0  0  0  0  0
   58.9702   28.6755   48.2023 H   0  0  0  0  0  0  0  0  0  0  0  0
   58.6060   30.2210   49.6690 C   0  0  0  0  0  0  0  0  0  0  0  0
   58.4200   29.5049   50.4830 H   0  0  0  0  0  0  0  0  0  0  0  0
   58.5390   31.5900   49.9170 C   0  0  0  0  0  0  0  0  0  0  0  0
   58.3119   31.9542   50.9298 H   0  0  0  0  0  0  0  0  0  0  0  0
   58.7590   32.4980   48.8850 C   0  0  0  0  0  0  0  0  0  0  0  0
   58.6965   33.5766   49.0919 H   0  0  0  0  0  0  0  0  0  0  0  0
   59.0610   32.0590   47.5770 C   0  0  0  0  0  0  0  0  0  0  0  0
   59.3710   33.0970   46.5510 C   0  0  0  0  0  0  0  0  0  0  0  0
   58.5180   33.3750   45.6590 O   0  0  0  0  0  0  0  0  0  0  0  0
   60.6270   33.7790   46.5150 N   0  0  0  0  0  0  0  0  0  0  0  0
   61.6570   33.5450   47.4810 C   0  0  0  0  0  0  0  0  0  0  0  0
   61.5970   34.1700   48.7300 C   0  0  0  0  0  0  0  0  0  0  0  0
   60.7672   34.8548   48.9591 H   0  0  0  0  0  0  0  0  0  0  0  0
   62.5860   33.9300   49.6910 C   0  0  0  0  0  0  0  0  0  0  0  0
   62.5140   34.4163   50.6750 H   0  0  0  0  0  0  0  0  0  0  0  0
   63.6790   33.0700   49.4160 C   0  0  0  0  0  0  0  0  0  0  0  0
   64.7820   32.7490   50.4530 C   0  0  0  0  0  0  0  0  0  0  0  0
   66.1600   32.7970   49.7560 C   0  0  0  0  0  0  0  0  0  0  0  0
   66.9546   32.8247   50.5161 H   0  0  0  0  0  0  0  0  0  0  0  0
   66.2845   31.9026   49.1278 H   0  0  0  0  0  0  0  0  0  0  0  0
   66.2220   33.6978   49.1278 H   0  0  0  0  0  0  0  0  0  0  0  0
   64.7400   33.7930   51.5950 C   0  0  0  0  0  0  0  0  0  0  0  0
   64.7608   33.2758   52.5656 H   0  0  0  0  0  0  0  0  0  0  0  0
   65.6121   34.4587   51.5155 H   0  0  0  0  0  0  0  0  0  0  0  0
   63.8173   34.3865   51.5155 H   0  0  0  0  0  0  0  0  0  0  0  0
   64.6340   31.3460   51.0980 C   0  0  0  0  0  0  0  0  0  0  0  0
   64.6443   31.4432   52.1936 H   0  0  0  0  0  0  0  0  0  0  0  0
   63.6832   30.8942   50.7789 H   0  0  0  0  0  0  0  0  0  0  0  0
   65.4696   30.7057   50.7789 H   0  0  0  0  0  0  0  0  0  0  0  0
   63.7360   32.4760   48.1350 C   0  0  0  0  0  0  0  0  0  0  0  0
   64.5841   31.8237   47.8796 H   0  0  0  0  0  0  0  0  0  0  0  0
   62.7350   32.7020   47.1870 C   0  0  0  0  0  0  0  0  0  0  0  0
   62.7944   32.2142   46.2029 H   0  0  0  0  0  0  0  0  0  0  0  0
   59.5370   27.2810   46.4610 C   0  0  0  0  0  0  0  0  0  0  0  0
   60.6213   27.3836   46.6153 H   0  0  0  0  0  0  0  0  0  0  0  0
   58.9170   26.0390   46.6870 C   0  0  0  0  0  0  0  0  0  0  0  0
   59.4952   25.1628   47.0156 H   0  0  0  0  0  0  0  0  0  0  0  0
   57.5400   25.9620   46.4780 C   0  0  0  0  0  0  0  0  0  0  0  0
  1  2  1  0
  2  3  2  0
  3  4  1  0
  3  5  1  0
  5  6  2  0
  6  7  1  0
  6  8  1  0
  8  9  1  0
  8 10  2  0
 10 11  1  0
 10 12  1  0
 12 13  1  0
  2 14  1  0
 14 15  1  0
 15 16  1  0
 16 17  2  0
 17 18  1  0
 18 19  1  0
 18 20  2  0
 20 21  1  0
 21 22  1  0
 22 23  2  0
 23 24  1  0
 23 25  1  0
 25 26  1  0
 25 27  2  0
 27 28  1  0
 27 29  1  0
 29 30  1  0
 29 31  2  0
 31 32  1  0
 32 33  2  0
 32 34  1  0
 34 35  1  0
 35 36  2  0
 36 37  1  0
 36 38  1  0
 38 39  1  0
 38 40  2  0
 40 41  1  0
 41 42  1  0
 42 43  1  0
 42 44  1  0
 42 45  1  0
 41 46  1  0
 46 47  1  0
 46 48  1  0
 46 49  1  0
 41 50  1  0
 50 51  1  0
 50 52  1  0
 50 53  1  0
 40 54  1  0
 54 55  1  0
 54 56  2  0
 56 57  1  0
 20 58  1  0
 58 59  1  0
 58 60  2  0
 60 61  1  0
 60 62  1  0
 12  5  1  0
 62 14  2  0
 62 17  1  0
 31 22  1  0
 56 35  1  0
M  CHG  2  15  -1  34  -1
M  END
>  <UniqueID>  (91) 
83

>  <SMILES>  (91) 
CC(C)(C)c1ccc([N-]C(=O)c2ccccc2Sc2ccc3c(/C=C\c4ccc[nH]4)[n-]nc3c2)cc1

>  <Energy>  (91) 
148.24190583657344

>  <Genealogy>  (91) 
CC(C)(C)c1ccc([N-]C(=O)c2ccccc2Sc2ccc3c(C=Cc4ccc[nH]4)[n-]nc3c2)cc1 (protonated)
CC(C)(C)c1ccc([N-]C(=O)c2ccccc2Sc2ccc3c(/C=C\c4ccc[nH]4)[n-]nc3c2)cc1 (cis-trans isomerization)
CC(C)(C)c1ccc([N-]C(=O)c2ccccc2Sc2ccc3c(/C=C\c4ccc[nH]4)[n-]nc3c2)cc1 (3D coordinates assigned)
CC(C)(C)c1ccc([N-]C(=O)c2ccccc2Sc2ccc3c(/C=C\c4ccc[nH]4)[n-]nc3c2)cc1 (optimized conformer: 148.24190583657344 kcal/mol)

>  <smiles>  (91) 
CC(C)(C)c1ccc(NC(=O)c2ccccc2Sc2ccc3c(C=Cc4ccc[nH]4)[nH]nc3c2)cc1

>  <score_type>  (91) 
oracle

>  <origin>  (91) 
adg

>  <m_score__min__energy>  (91) 
-13.16

>  <m_primary>  (91) 
energy

$$$$
91:0
     RDKit          3D

 41 44  0  0  0  0  0  0  0  0999 V2000
   59.6390   34.8180   45.9960 C   0  0  0  0  0  0  0  0  0  0  0  0
   58.7020   34.0490   46.5560 C   0  0  0  0  0  0  0  0  0  0  0  0
   57.5290   33.5400   45.7700 C   0  0  0  0  0  0  0  0  0  0  0  0
   58.0720   32.7320   44.2230 S   0  0  0  0  0  0  0  0  0  0  0  0
   57.7020   31.0570   44.7870 C   0  0  0  0  0  0  0  0  0  0  0  0
   56.4770   30.4950   44.4080 C   0  0  0  0  0  0  0  0  0  0  0  0
   56.1330   29.2030   44.8020 C   0  0  0  0  0  0  0  0  0  0  0  0
   57.0100   28.4450   45.5890 C   0  0  0  0  0  0  0  0  0  0  0  0
   58.2480   28.9950   45.9840 C   0  0  0  0  0  0  0  0  0  0  0  0
   59.1370   28.2360   46.7780 C   0  0  0  0  0  0  0  0  0  0  0  0
   60.3680   28.7820   47.1610 C   0  0  0  0  0  0  0  0  0  0  0  0
   60.7320   30.0690   46.7590 C   0  0  0  0  0  0  0  0  0  0  0  0
   61.9760   30.5740   47.1680 O   0  0  0  0  0  0  0  0  0  0  0  0
   62.1800   31.8100   47.8010 C   0  0  0  0  0  0  0  0  0  0  0  0
   63.3050   32.5680   47.4510 C   0  0  0  0  0  0  0  0  0  0  0  0
   63.5370   33.8070   48.0540 C   0  0  0  0  0  0  0  0  0  0  0  0
   62.6400   34.3050   49.0030 C   0  0  0  0  0  0  0  0  0  0  0  0
   61.5030   33.5660   49.3430 C   0  0  0  0  0  0  0  0  0  0  0  0
   61.2670   32.3260   48.7420 C   0  0  0  0  0  0  0  0  0  0  0  0
   59.8390   30.8390   45.9960 C   0  0  0  0  0  0  0  0  0  0  0  0
   58.6000   30.3110   45.5870 C   0  0  0  0  0  0  0  0  0  0  0  0
   58.7780   26.8620   47.2030 C   0  0  0  0  0  0  0  0  0  0  0  0
   57.6140   26.3150   46.8450 C   0  0  0  0  0  0  0  0  0  0  0  0
   56.6620   27.0710   46.0170 C   0  0  0  0  0  0  0  0  0  0  0  0
   55.5660   26.5440   45.6850 O   0  0  0  0  0  0  0  0  0  0  0  0
   60.4877   35.1765   46.5969 H   0  0  0  0  0  0  0  0  0  0  0  0
   59.5622   35.0930   44.9337 H   0  0  0  0  0  0  0  0  0  0  0  0
   58.7920   33.7820   47.6193 H   0  0  0  0  0  0  0  0  0  0  0  0
   56.9766   32.8110   46.3810 H   0  0  0  0  0  0  0  0  0  0  0  0
   56.8861   34.3940   45.5104 H   0  0  0  0  0  0  0  0  0  0  0  0
   55.7779   31.0798   43.7922 H   0  0  0  0  0  0  0  0  0  0  0  0
   55.1674   28.7760   44.4933 H   0  0  0  0  0  0  0  0  0  0  0  0
   61.0552   28.1915   47.7847 H   0  0  0  0  0  0  0  0  0  0  0  0
   64.0094   32.1858   46.6975 H   0  0  0  0  0  0  0  0  0  0  0  0
   64.4278   34.3918   47.7811 H   0  0  0  0  0  0  0  0  0  0  0  0
   62.8284   35.2772   49.4818 H   0  0  0  0  0  0  0  0  0  0  0  0
   60.7929   33.9608   50.0846 H   0  0  0  0  0  0  0  0  0  0  0  0
   60.3663   31.7517   49.0044 H   0  0  0  0  0  0  0  0  0  0  0  0
   60.1111   31.8670   45.7147 H   0  0  0  0  0  0  0  0  0  0  0  0
   59.4806   26.2849   47.8221 H   0  0  0  0  0  0  0  0  0  0  0  0
   57.3657   25.2941   47.1708 H   0  0  0  0  0  0  0  0  0  0  0  0
  1  2  2  0
  2  3  1  0
  3  4  1  0
  4  5  1  0
  5  6  2  0
  6  7  1  0
  7  8  2  0
  8  9  1  0
  9 10  2  0
 10 11  1  0
 11 12  2  0
 12 13  1  0
 13 14  1  0
 14 15  2  0
 15 16  1  0
 16 17  2  0
 17 18  1  0
 18 19  2  0
 12 20  1  0
 20 21  2  0
 10 22  1  0
 22 23  2  0
 23 24  1  0
 24 25  2  0
 21  5  1  0
 24  8  1  0
 21  9  1  0
 19 14  1  0
  1 26  1  0
  1 27  1  0
  2 28  1  0
  3 29  1  0
  3 30  1  0
  6 31  1  0
  7 32  1  0
 11 33  1  0
 15 34  1  0
 16 35  1  0
 17 36  1  0
 18 37  1  0
 19 38  1  0
 20 39  1  0
 22 40  1  0
 23 41  1  0
M  END
>  <UniqueID>  (92) 
84

>  <SMILES>  (92) 
C=CCSc1ccc2c3c(cc(Oc4ccccc4)cc13)C=CC2=O

>  <Energy>  (92) 
50.64514101838874

>  <Genealogy>  (92) 
C=CCSc1ccc2c3c(cc(Oc4ccccc4)cc13)C=CC2=O (3D coordinates assigned)
C=CCSc1ccc2c3c(cc(Oc4ccccc4)cc13)C=CC2=O (nonaromatic ring conformer: 50.64514101838874 kcal/mol)

>  <smiles>  (92) 
C=CCSc1ccc2c3c(cc(Oc4ccccc4)cc13)C=CC2=O

>  <score_type>  (92) 
oracle

>  <origin>  (92) 
adg

>  <m_score__min__energy>  (92) 
-8.6099999999999994

>  <m_primary>  (92) 
energy

$$$$
92:0
     RDKit          3D

 33 35  0  0  0  0  0  0  0  0999 V2000
   57.6940   32.1016   41.8392 H   0  0  0  0  0  0  0  0  0  0  0  0
   57.3580   31.5740   42.7440 C   0  0  0  0  0  0  0  0  0  0  0  0
   56.6110   30.0640   42.7930 S   0  0  0  0  0  0  0  0  0  0  0  0
   56.4680   30.0780   44.4660 C   0  0  0  0  0  0  0  0  0  0  0  0
   56.0270   29.0730   45.1620 N   0  0  0  0  0  0  0  0  0  0  0  0
   56.6620   27.7880   45.2770 C   0  0  0  0  0  0  0  0  0  0  0  0
   56.0890   26.7300   46.0110 C   0  0  0  0  0  0  0  0  0  0  0  0
   55.1156   26.8696   46.5040 H   0  0  0  0  0  0  0  0  0  0  0  0
   56.7520   25.5050   46.1150 C   0  0  0  0  0  0  0  0  0  0  0  0
   56.3053   24.6867   46.6989 H   0  0  0  0  0  0  0  0  0  0  0  0
   57.9830   25.3170   45.4780 C   0  0  0  0  0  0  0  0  0  0  0  0
   58.8210   23.7820   45.6230 Cl  0  0  0  0  0  0  0  0  0  0  0  0
   58.5420   26.3510   44.7220 C   0  0  0  0  0  0  0  0  0  0  0  0
   59.5045   26.1998   44.2113 H   0  0  0  0  0  0  0  0  0  0  0  0
   57.8790   27.5780   44.6140 C   0  0  0  0  0  0  0  0  0  0  0  0
   58.3155   28.3832   44.0049 H   0  0  0  0  0  0  0  0  0  0  0  0
   56.9780   31.2040   45.0050 N   0  0  0  0  0  0  0  0  0  0  0  0
   57.4740   32.0340   44.0510 C   0  0  0  0  0  0  0  0  0  0  0  0
   58.2710   33.5790   44.4850 S   0  0  0  0  0  0  0  0  0  0  0  0
   58.2870   33.2460   46.2840 C   0  0  0  0  0  0  0  0  0  0  0  0
   57.2965   32.8784   46.5902 H   0  0  0  0  0  0  0  0  0  0  0  0
   58.5321   34.1804   46.8102 H   0  0  0  0  0  0  0  0  0  0  0  0
   59.3230   32.2150   46.6340 C   0  0  0  0  0  0  0  0  0  0  0  0
   60.5570   32.5410   47.1930 C   0  0  0  0  0  0  0  0  0  0  0  0
   60.8866   33.5464   47.4939 H   0  0  0  0  0  0  0  0  0  0  0  0
   61.4540   31.1220   47.3260 S   0  0  0  0  0  0  0  0  0  0  0  0
   60.2450   30.1580   46.6660 C   0  0  0  0  0  0  0  0  0  0  0  0
   60.3320   28.6800   46.4880 C   0  0  0  0  0  0  0  0  0  0  0  0
   60.3607   28.1930   47.4739 H   0  0  0  0  0  0  0  0  0  0  0  0
   59.4532   28.3256   45.9294 H   0  0  0  0  0  0  0  0  0  0  0  0
   61.2463   28.4311   45.9294 H   0  0  0  0  0  0  0  0  0  0  0  0
   59.1550   30.8930   46.3550 N   0  0  0  0  0  0  0  0  0  0  0  0
   58.2890   30.4930   45.9310 H   0  0  0  0  0  0  0  0  0  0  0  0
  1  2  1  0
  2  3  1  0
  3  4  1  0
  4  5  2  0
  5  6  1  0
  6  7  2  0
  7  8  1  0
  7  9  1  0
  9 10  1  0
  9 11  2  0
 11 12  1  0
 11 13  1  0
 13 14  1  0
 13 15  2  0
 15 16  1  0
  4 17  1  0
 17 18  1  0
 18 19  1  0
 19 20  1  0
 20 21  1  0
 20 22  1  0
 20 23  1  0
 23 24  2  0
 24 25  1  0
 24 26  1  0
 26 27  1  0
 27 28  1  0
 28 29  1  0
 28 30  1  0
 28 31  1  0
 27 32  2  0
 32 33  1  0
 18  2  2  0
 32 23  1  0
 15  6  1  0
M  CHG  2  17  -1  32   1
M  END
>  <UniqueID>  (93) 
85

>  <SMILES>  (93) 
Cc1[nH+]c(CSc2cs/c(=N/c3ccc(Cl)cc3)[n-]2)cs1

>  <Energy>  (93) 
89.7961727059373

>  <Genealogy>  (93) 
Cc1[nH+]c(CSc2csc(=Nc3ccc(Cl)cc3)[n-]2)cs1 (protonated)
Cc1[nH+]c(CSc2cs/c(=N/c3ccc(Cl)cc3)[n-]2)cs1 (cis-trans isomerization)
Cc1[nH+]c(CSc2cs/c(=N/c3ccc(Cl)cc3)[n-]2)cs1 (3D coordinates assigned)
Cc1[nH+]c(CSc2cs/c(=N/c3ccc(Cl)cc3)[n-]2)cs1 (optimized conformer: 89.7961727059373 kcal/mol)

>  <smiles>  (93) 
Cc1nc(CSc2csc(=Nc3ccc(Cl)cc3)[nH]2)cs1

>  <score_type>  (93) 
oracle

>  <origin>  (93) 
adg

>  <m_score__min__energy>  (93) 
-7.0800000000000001

>  <m_primary>  (93) 
energy

$$$$
