0:0
     RDKit          3D

 77 81  0  0  0  0  0  0  0  0999 V2000
   63.7470   33.4150   46.9550 C   0  0  0  0  0  0  0  0  0  0  0  0
   62.9130   33.4720   48.2410 C   0  0  0  0  0  0  0  0  0  0  0  0
   61.5330   32.9450   48.1010 N   0  0  0  0  0  0  0  0  0  0  0  0
   60.4790   33.9730   48.2640 C   0  0  0  0  0  0  0  0  0  0  0  0
   59.4890   33.9070   47.1330 C   0  0  0  0  0  0  0  0  0  0  0  0
   58.2920   33.1850   47.2720 C   0  0  0  0  0  0  0  0  0  0  0  0
   57.3630   33.1560   46.2270 C   0  0  0  0  0  0  0  0  0  0  0  0
   57.6230   33.8440   45.0390 C   0  0  0  0  0  0  0  0  0  0  0  0
   58.8100   34.5670   44.8960 C   0  0  0  0  0  0  0  0  0  0  0  0
   59.7380   34.6050   45.9400 C   0  0  0  0  0  0  0  0  0  0  0  0
   61.2860   31.7610   48.9490 C   0  0  0  0  0  0  0  0  0  0  0  0
   60.6470   30.6650   48.1360 C   0  0  0  0  0  0  0  0  0  0  0  0
   60.7570   30.6540   46.7360 C   0  0  0  0  0  0  0  0  0  0  0  0
   60.1550   29.6360   45.9900 C   0  0  0  0  0  0  0  0  0  0  0  0
   59.4410   28.6100   46.6310 C   0  0  0  0  0  0  0  0  0  0  0  0
   58.8080   27.5260   45.8440 C   0  0  0  0  0  0  0  0  0  0  0  0
   58.5250   26.2840   46.4360 C   0  0  0  0  0  0  0  0  0  0  0  0
   57.9340   25.2620   45.6880 C   0  0  0  0  0  0  0  0  0  0  0  0
   57.5990   25.4680   44.3400 C   0  0  0  0  0  0  0  0  0  0  0  0
   56.8780   24.3990   43.5610 C   0  0  0  0  0  0  0  0  0  0  0  0
   55.9300   23.6760   44.4260 N   0  0  0  0  0  0  0  0  0  0  0  0
   55.0250   24.4470   45.2960 C   0  0  0  0  0  0  0  0  0  0  0  0
   53.6210   23.8930   45.2580 C   0  0  0  0  0  0  0  0  0  0  0  0
   53.0960   23.2230   46.3760 C   0  0  0  0  0  0  0  0  0  0  0  0
   51.7850   22.7370   46.3560 C   0  0  0  0  0  0  0  0  0  0  0  0
   50.9890   22.9130   45.2210 C   0  0  0  0  0  0  0  0  0  0  0  0
   51.5100   23.5580   44.0970 C   0  0  0  0  0  0  0  0  0  0  0  0
   52.8240   24.0350   44.1070 C   0  0  0  0  0  0  0  0  0  0  0  0
   55.8510   22.2340   44.3790 C   0  0  0  0  0  0  0  0  0  0  0  0
   56.1590   21.6180   43.3240 O   0  0  0  0  0  0  0  0  0  0  0  0
   55.3710   21.5030   45.5180 N   0  0  0  0  0  0  0  0  0  0  0  0
   55.9490   21.4820   46.8320 C   0  0  0  0  0  0  0  0  0  0  0  0
   56.3440   20.2510   47.3690 C   0  0  0  0  0  0  0  0  0  0  0  0
   56.9000   20.1840   48.6500 C   0  0  0  0  0  0  0  0  0  0  0  0
   57.0470   21.3460   49.4120 C   0  0  0  0  0  0  0  0  0  0  0  0
   56.6310   22.5760   48.8950 C   0  0  0  0  0  0  0  0  0  0  0  0
   56.0790   22.6460   47.6120 C   0  0  0  0  0  0  0  0  0  0  0  0
   57.8850   26.7070   43.7460 C   0  0  0  0  0  0  0  0  0  0  0  0
   58.4870   27.7240   44.4890 C   0  0  0  0  0  0  0  0  0  0  0  0
   59.3320   28.6260   48.0310 C   0  0  0  0  0  0  0  0  0  0  0  0
   59.9240   29.6480   48.7760 C   0  0  0  0  0  0  0  0  0  0  0  0
   64.8139   33.3421   47.2128 H   0  0  0  0  0  0  0  0  0  0  0  0
   63.4514   32.5350   46.3650 H   0  0  0  0  0  0  0  0  0  0  0  0
   63.5739   34.3271   46.3650 H   0  0  0  0  0  0  0  0  0  0  0  0
   63.4298   32.8823   49.0125 H   0  0  0  0  0  0  0  0  0  0  0  0
   62.8174   34.5353   48.5060 H   0  0  0  0  0  0  0  0  0  0  0  0
   59.9525   33.8021   49.2146 H   0  0  0  0  0  0  0  0  0  0  0  0
   60.9517   34.9662   48.2613 H   0  0  0  0  0  0  0  0  0  0  0  0
   58.0848   32.6410   48.2053 H   0  0  0  0  0  0  0  0  0  0  0  0
   56.4262   32.5907   46.3405 H   0  0  0  0  0  0  0  0  0  0  0  0
   56.8932   33.8164   44.2164 H   0  0  0  0  0  0  0  0  0  0  0  0
   59.0144   35.1073   43.9599 H   0  0  0  0  0  0  0  0  0  0  0  0
   60.6667   35.1836   45.8271 H   0  0  0  0  0  0  0  0  0  0  0  0
   62.2416   31.4007   49.3577 H   0  0  0  0  0  0  0  0  0  0  0  0
   60.6093   32.0412   49.7697 H   0  0  0  0  0  0  0  0  0  0  0  0
   61.3189   31.4493   46.2243 H   0  0  0  0  0  0  0  0  0  0  0  0
   60.2411   29.6386   44.8934 H   0  0  0  0  0  0  0  0  0  0  0  0
   58.7701   26.1147   47.4949 H   0  0  0  0  0  0  0  0  0  0  0  0
   57.7298   24.2890   46.1587 H   0  0  0  0  0  0  0  0  0  0  0  0
   56.3265   24.8661   42.7317 H   0  0  0  0  0  0  0  0  0  0  0  0
   57.6181   23.6844   43.1717 H   0  0  0  0  0  0  0  0  0  0  0  0
   55.3990   24.4039   46.3296 H   0  0  0  0  0  0  0  0  0  0  0  0
   54.9977   25.4854   44.9341 H   0  0  0  0  0  0  0  0  0  0  0  0
   53.7192   23.0802   47.2711 H   0  0  0  0  0  0  0  0  0  0  0  0
   51.3795   22.2152   47.2354 H   0  0  0  0  0  0  0  0  0  0  0  0
   49.9528   22.5438   45.2128 H   0  0  0  0  0  0  0  0  0  0  0  0
   50.8848   23.6910   43.2017 H   0  0  0  0  0  0  0  0  0  0  0  0
   53.2365   24.5232   43.2117 H   0  0  0  0  0  0  0  0  0  0  0  0
   56.2162   19.3311   46.7796 H   0  0  0  0  0  0  0  0  0  0  0  0
   57.2223   19.2149   49.0587 H   0  0  0  0  0  0  0  0  0  0  0  0
   57.4896   21.2927   50.4176 H   0  0  0  0  0  0  0  0  0  0  0  0
   56.7379   23.4899   49.4978 H   0  0  0  0  0  0  0  0  0  0  0  0
   55.7452   23.6144   47.2111 H   0  0  0  0  0  0  0  0  0  0  0  0
   57.6333   26.8777   42.6889 H   0  0  0  0  0  0  0  0  0  0  0  0
   58.7123   28.6886   44.0106 H   0  0  0  0  0  0  0  0  0  0  0  0
   58.7762   27.8276   48.5445 H   0  0  0  0  0  0  0  0  0  0  0  0
   59.8226   29.6554   49.8713 H   0  0  0  0  0  0  0  0  0  0  0  0
  1  2  1  0
  2  3  1  0
  3  4  1  0
  4  5  1  0
  5  6  2  0
  6  7  1  0
  7  8  2  0
  8  9  1  0
  9 10  2  0
  3 11  1  0
 11 12  1  0
 12 13  2  0
 13 14  1  0
 14 15  2  0
 15 16  1  0
 16 17  2  0
 17 18  1  0
 18 19  2  0
 19 20  1  0
 20 21  1  0
 21 22  1  0
 22 23  1  0
 23 24  2  0
 24 25  1  0
 25 26  2  0
 26 27  1  0
 27 28  2  0
 21 29  1  0
 29 30  2  0
 29 31  1  0
 31 32  1  0
 32 33  2  0
 33 34  1  0
 34 35  2  0
 35 36  1  0
 36 37  2  0
 19 38  1  0
 38 39  2  0
 15 40  1  0
 40 41  2  0
 10  5  1  0
 41 12  1  0
 39 16  1  0
 28 23  1  0
 37 32  1  0
  1 42  1  0
  1 43  1  0
  1 44  1  0
  2 45  1  0
  2 46  1  0
  4 47  1  0
  4 48  1  0
  6 49  1  0
  7 50  1  0
  8 51  1  0
  9 52  1  0
 10 53  1  0
 11 54  1  0
 11 55  1  0
 13 56  1  0
 14 57  1  0
 17 58  1  0
 18 59  1  0
 20 60  1  0
 20 61  1  0
 22 62  1  0
 22 63  1  0
 24 64  1  0
 25 65  1  0
 26 66  1  0
 27 67  1  0
 28 68  1  0
 33 69  1  0
 34 70  1  0
 35 71  1  0
 36 72  1  0
 37 73  1  0
 38 74  1  0
 39 75  1  0
 40 76  1  0
 41 77  1  0
M  CHG  1  31  -1
M  END
>  <UniqueID>  (1) 
1

>  <SMILES>  (1) 
CCN(Cc1ccccc1)Cc1ccc(-c2ccc(CN(Cc3ccccc3)C(=O)[N-]c3ccccc3)cc2)cc1

>  <Energy>  (1) 
89.32701524729691

>  <Genealogy>  (1) 
CCN(Cc1ccccc1)Cc1ccc(-c2ccc(CN(Cc3ccccc3)C(=O)[N-]c3ccccc3)cc2)cc1 (protonated)
CCN(Cc1ccccc1)Cc1ccc(-c2ccc(CN(Cc3ccccc3)C(=O)[N-]c3ccccc3)cc2)cc1 (3D coordinates assigned)
CCN(Cc1ccccc1)Cc1ccc(-c2ccc(CN(Cc3ccccc3)C(=O)[N-]c3ccccc3)cc2)cc1 (optimized conformer: 89.32701524729691 kcal/mol)

>  <smiles>  (1) 
CCN(Cc1ccccc1)Cc1ccc(-c2ccc(CN(Cc3ccccc3)C(=O)Nc3ccccc3)cc2)cc1

>  <score_type>  (1) 
oracle

>  <origin>  (1) 
adg

>  <m_score__min__energy>  (1) 
-10.93

>  <m_primary>  (1) 
energy

$$$$
1:0
     RDKit          3D

 27 28  0  0  0  0  0  0  0  0999 V2000
   56.3180   25.1350   47.1040 O   0  0  0  0  0  0  0  0  0  0  0  0
   56.0560   26.1630   46.4420 N   0  0  0  0  0  0  0  0  0  0  0  0
   54.7760   26.3350   45.9680 O   0  0  0  0  0  0  0  0  0  0  0  0
   57.1040   27.1010   46.2190 C   0  0  0  0  0  0  0  0  0  0  0  0
   58.3730   26.8220   46.6790 C   0  0  0  0  0  0  0  0  0  0  0  0
   59.4130   27.7020   46.4820 C   0  0  0  0  0  0  0  0  0  0  0  0
   59.2310   28.9040   45.8160 C   0  0  0  0  0  0  0  0  0  0  0  0
   60.3660   29.8380   45.6690 C   0  0  0  0  0  0  0  0  0  0  0  0
   60.4780   31.0250   47.0010 S   0  0  0  0  0  0  0  0  0  0  0  0
   59.9280   32.6520   46.5490 C   0  0  0  0  0  0  0  0  0  0  0  0
   60.4800   33.8530   46.7770 N   0  0  0  0  0  0  0  0  0  0  0  0
   59.6980   34.8100   46.2460 C   0  0  0  0  0  0  0  0  0  0  0  0
   58.6200   34.2040   45.6610 C   0  0  0  0  0  0  0  0  0  0  0  0
   58.7870   32.8810   45.8630 N   0  0  0  0  0  0  0  0  0  0  0  0
   57.9730   29.1950   45.3500 C   0  0  0  0  0  0  0  0  0  0  0  0
   57.6400   30.3730   44.6340 N   0  0  0  0  0  0  0  0  0  0  0  0
   56.5090   30.9240   44.7970 O   0  0  0  0  0  0  0  0  0  0  0  0
   58.4700   30.9990   43.7370 O   0  0  0  0  0  0  0  0  0  0  0  0
   56.9190   28.2950   45.5540 C   0  0  0  0  0  0  0  0  0  0  0  0
   58.5581   25.8786   47.2135 H   0  0  0  0  0  0  0  0  0  0  0  0
   60.4127   27.4452   46.8623 H   0  0  0  0  0  0  0  0  0  0  0  0
   61.2979   29.2542   45.6416 H   0  0  0  0  0  0  0  0  0  0  0  0
   60.2055   30.4038   44.7394 H   0  0  0  0  0  0  0  0  0  0  0  0
   59.8917   35.8924   46.2768 H   0  0  0  0  0  0  0  0  0  0  0  0
   57.7883   34.6947   45.1343 H   0  0  0  0  0  0  0  0  0  0  0  0
   58.1150   32.1400   45.5270 H   0  0  0  0  0  0  0  0  0  0  0  0
   55.9180   28.5471   45.1740 H   0  0  0  0  0  0  0  0  0  0  0  0
  1  2  2  0
  2  3  1  0
  2  4  1  0
  4  5  2  0
  5  6  1  0
  6  7  2  0
  7  8  1  0
  8  9  1  0
  9 10  1  0
 10 11  2  0
 11 12  1  0
 12 13  2  0
 13 14  1  0
  7 15  1  0
 15 16  1  0
 16 17  2  0
 16 18  1  0
 15 19  2  0
 19  4  1  0
 14 10  1  0
  5 20  1  0
  6 21  1  0
  8 22  1  0
  8 23  1  0
 12 24  1  0
 13 25  1  0
 14 26  1  0
 19 27  1  0
M  CHG  4   2   1   3  -1  16   1  18  -1
M  END
>  <smiles>  (2) 
O=[N+]([O-])c1ccc(CSc2ncc[nH]2)c([N+](=O)[O-])c1

>  <score_type>  (2) 
oracle

>  <origin>  (2) 
adg

>  <m_score__min__energy>  (2) 
-6.3499999999999996

>  <m_primary>  (2) 
energy

$$$$
2:0
     RDKit          3D

 61 62  0  0  0  0  0  0  0  0999 V2000
   58.2120   22.2810   45.2940 C   0  0  0  0  0  0  0  0  0  0  0  0
   58.2420   23.2300   46.3550 O   0  0  0  0  0  0  0  0  0  0  0  0
   58.2200   24.6240   46.1790 C   0  0  0  0  0  0  0  0  0  0  0  0
   59.4000   25.3610   45.9620 C   0  0  0  0  0  0  0  0  0  0  0  0
   59.3560   26.7530   45.8580 C   0  0  0  0  0  0  0  0  0  0  0  0
   58.1410   27.4360   45.9900 C   0  0  0  0  0  0  0  0  0  0  0  0
   58.1120   28.9070   45.8680 C   0  0  0  0  0  0  0  0  0  0  0  0
   59.1920   29.5480   45.9620 O   0  0  0  0  0  0  0  0  0  0  0  0
   56.8930   29.6340   45.6740 N   0  0  0  0  0  0  0  0  0  0  0  0
   55.9060   29.3500   44.6390 C   0  0  0  0  0  0  0  0  0  0  0  0
   55.8830   30.4940   43.6260 C   0  0  0  0  0  0  0  0  0  0  0  0
   57.2610   30.6960   42.9710 C   0  0  0  0  0  0  0  0  0  0  0  0
   58.1590   31.4410   43.8700 N   0  0  0  0  0  0  0  0  0  0  0  0
   57.7800   32.8590   44.0100 C   0  0  0  0  0  0  0  0  0  0  0  0
   58.4960   33.4990   45.1810 C   0  0  0  0  0  0  0  0  0  0  0  0
   59.0860   34.7570   44.9660 C   0  0  0  0  0  0  0  0  0  0  0  0
   59.6630   35.4640   46.0180 C   0  0  0  0  0  0  0  0  0  0  0  0
   59.6550   34.9330   47.3040 C   0  0  0  0  0  0  0  0  0  0  0  0
   59.0920   33.6780   47.5510 C   0  0  0  0  0  0  0  0  0  0  0  0
   59.0880   33.2120   48.8740 O   0  0  0  0  0  0  0  0  0  0  0  0
   59.0960   31.8610   49.2460 C   0  0  0  0  0  0  0  0  0  0  0  0
   58.1410   31.3810   49.9180 O   0  0  0  0  0  0  0  0  0  0  0  0
   60.1770   31.0130   48.8220 N   0  0  0  0  0  0  0  0  0  0  0  0
   61.2250   31.5600   47.9570 C   0  0  0  0  0  0  0  0  0  0  0  0
   60.2210   29.6170   49.2640 C   0  0  0  0  0  0  0  0  0  0  0  0
   58.4980   32.9510   46.4940 C   0  0  0  0  0  0  0  0  0  0  0  0
   57.8910   31.7280   46.7910 O   0  0  0  0  0  0  0  0  0  0  0  0
   56.9580   26.7030   46.1710 C   0  0  0  0  0  0  0  0  0  0  0  0
   56.9870   25.3060   46.2490 C   0  0  0  0  0  0  0  0  0  0  0  0
   55.7740   24.6260   46.4320 O   0  0  0  0  0  0  0  0  0  0  0  0
   54.6390   24.8090   45.6330 C   0  0  0  0  0  0  0  0  0  0  0  0
   54.1150   23.6720   44.8250 C   0  0  0  0  0  0  0  0  0  0  0  0
   54.0280   25.9130   45.6210 O   0  0  0  0  0  0  0  0  0  0  0  0
   58.1799   21.2642   45.7124 H   0  0  0  0  0  0  0  0  0  0  0  0
   57.3188   22.4512   44.6750 H   0  0  0  0  0  0  0  0  0  0  0  0
   59.1142   22.3945   44.6750 H   0  0  0  0  0  0  0  0  0  0  0  0
   60.3630   24.8368   45.8738 H   0  0  0  0  0  0  0  0  0  0  0  0
   60.2820   27.3165   45.6711 H   0  0  0  0  0  0  0  0  0  0  0  0
   56.1711   28.4130   44.1273 H   0  0  0  0  0  0  0  0  0  0  0  0
   54.9121   29.2492   45.0994 H   0  0  0  0  0  0  0  0  0  0  0  0
   55.1456   30.2632   42.8431 H   0  0  0  0  0  0  0  0  0  0  0  0
   55.6145   31.4193   44.1568 H   0  0  0  0  0  0  0  0  0  0  0  0
   57.7039   29.7135   42.7507 H   0  0  0  0  0  0  0  0  0  0  0  0
   57.1311   31.2720   42.0429 H   0  0  0  0  0  0  0  0  0  0  0  0
   58.0830   31.0080   44.8210 H   0  0  0  0  0  0  0  0  0  0  0  0
   58.0476   33.3956   43.0878 H   0  0  0  0  0  0  0  0  0  0  0  0
   56.6960   32.9161   44.1883 H   0  0  0  0  0  0  0  0  0  0  0  0
   59.0919   35.1882   43.9541 H   0  0  0  0  0  0  0  0  0  0  0  0
   60.1260   36.4443   45.8318 H   0  0  0  0  0  0  0  0  0  0  0  0
   60.0955   35.5059   48.1333 H   0  0  0  0  0  0  0  0  0  0  0  0
   62.0302   31.9803   48.5774 H   0  0  0  0  0  0  0  0  0  0  0  0
   61.6315   30.7590   47.3220 H   0  0  0  0  0  0  0  0  0  0  0  0
   60.8003   32.3515   47.3220 H   0  0  0  0  0  0  0  0  0  0  0  0
   60.2222   29.5803   50.3634 H   0  0  0  0  0  0  0  0  0  0  0  0
   59.3392   29.0829   48.8802 H   0  0  0  0  0  0  0  0  0  0  0  0
   61.1346   29.1395   48.8802 H   0  0  0  0  0  0  0  0  0  0  0  0
   57.6680   31.0170   46.1130 H   0  0  0  0  0  0  0  0  0  0  0  0
   55.9972   27.2324   46.2525 H   0  0  0  0  0  0  0  0  0  0  0  0
   53.7507   22.8815   45.4975 H   0  0  0  0  0  0  0  0  0  0  0  0
   53.2881   24.0235   44.1905 H   0  0  0  0  0  0  0  0  0  0  0  0
   54.9194   23.2717   44.1905 H   0  0  0  0  0  0  0  0  0  0  0  0
  1  2  1  0
  2  3  1  0
  3  4  2  0
  4  5  1  0
  5  6  2  0
  6  7  1  0
  7  8  2  0
  7  9  1  0
  9 10  1  0
 10 11  1  0
 11 12  1  0
 12 13  1  0
 13 14  1  0
 14 15  1  0
 15 16  2  0
 16 17  1  0
 17 18  2  0
 18 19  1  0
 19 20  1  0
 20 21  1  0
 21 22  2  0
 21 23  1  0
 23 24  1  0
 23 25  1  0
 19 26  2  0
 26 27  1  0
  6 28  1  0
 28 29  2  0
 29 30  1  0
 30 31  1  0
 31 32  1  0
 31 33  2  0
 29  3  1  0
 26 15  1  0
  1 34  1  0
  1 35  1  0
  1 36  1  0
  4 37  1  0
  5 38  1  0
 10 39  1  0
 10 40  1  0
 11 41  1  0
 11 42  1  0
 12 43  1  0
 12 44  1  0
 13 45  1  0
 14 46  1  0
 14 47  1  0
 16 48  1  0
 17 49  1  0
 18 50  1  0
 24 51  1  0
 24 52  1  0
 24 53  1  0
 25 54  1  0
 25 55  1  0
 25 56  1  0
 27 57  1  0
 28 58  1  0
 32 59  1  0
 32 60  1  0
 32 61  1  0
M  CHG  1   9  -1
M  END
>  <UniqueID>  (3) 
2

>  <SMILES>  (3) 
COc1ccc(C(=O)[N-]CCCNCc2cccc(OC(=O)N(C)C)c2O)cc1OC(C)=O

>  <Energy>  (3) 
67.38570693492869

>  <Genealogy>  (3) 
COc1ccc(C(=O)[N-]CCCNCc2cccc(OC(=O)N(C)C)c2O)cc1OC(C)=O (protonated)
COc1ccc(C(=O)[N-]CCCNCc2cccc(OC(=O)N(C)C)c2O)cc1OC(C)=O (3D coordinates assigned)
COc1ccc(C(=O)[N-]CCCNCc2cccc(OC(=O)N(C)C)c2O)cc1OC(C)=O (optimized conformer: 67.38570693492869 kcal/mol)

>  <smiles>  (3) 
COc1ccc(C(=O)NCCCNCc2cccc(OC(=O)N(C)C)c2O)cc1OC(C)=O

>  <score_type>  (3) 
oracle

>  <origin>  (3) 
adg

>  <m_score__min__energy>  (3) 
-9.0899999999999999

>  <m_primary>  (3) 
energy

$$$$
3:0
     RDKit          3D

 56 60  0  0  0  0  0  0  0  0999 V2000
   59.9220   35.7410   46.7850 O   0  0  0  0  0  0  0  0  0  0  0  0
   59.4440   34.7530   47.4020 C   0  0  0  0  0  0  0  0  0  0  0  0
   59.5880   34.7020   48.8280 N   0  0  0  0  0  0  0  0  0  0  0  0
   59.9610   33.5500   49.5970 C   0  0  0  0  0  0  0  0  0  0  0  0
   61.1900   32.9000   49.3960 C   0  0  0  0  0  0  0  0  0  0  0  0
   61.5280   31.7870   50.1680 C   0  0  0  0  0  0  0  0  0  0  0  0
   60.6470   31.3160   51.1450 C   0  0  0  0  0  0  0  0  0  0  0  0
   59.4140   31.9570   51.3620 C   0  0  0  0  0  0  0  0  0  0  0  0
   58.4770   31.4430   52.3910 C   0  0  0  0  0  0  0  0  0  0  0  0
   58.5850   31.8430   53.5830 O   0  0  0  0  0  0  0  0  0  0  0  0
   57.4910   30.4480   52.0580 N   0  0  0  0  0  0  0  0  0  0  0  0
   56.3420   30.1510   52.8720 C   0  0  0  0  0  0  0  0  0  0  0  0
   56.3490   30.3670   54.2610 C   0  0  0  0  0  0  0  0  0  0  0  0
   55.2170   30.0760   55.0260 C   0  0  0  0  0  0  0  0  0  0  0  0
   54.0630   29.5820   54.4130 C   0  0  0  0  0  0  0  0  0  0  0  0
   54.0270   29.3960   53.0220 C   0  0  0  0  0  0  0  0  0  0  0  0
   52.7930   28.8480   52.3580 C   0  0  0  0  0  0  0  0  0  0  0  0
   52.1600   29.8980   51.4920 C   0  0  0  0  0  0  0  0  0  0  0  0
   51.8820   31.1750   51.9930 C   0  0  0  0  0  0  0  0  0  0  0  0
   51.3290   32.1330   51.1450 C   0  0  0  0  0  0  0  0  0  0  0  0
   51.0380   33.4050   51.6240 O   0  0  0  0  0  0  0  0  0  0  0  0
   51.0770   31.7970   49.8130 C   0  0  0  0  0  0  0  0  0  0  0  0
   50.5780   32.6400   49.0230 O   0  0  0  0  0  0  0  0  0  0  0  0
   51.3770   30.5480   49.3710 N   0  0  0  0  0  0  0  0  0  0  0  0
   51.9040   29.6300   50.1830 N   0  0  0  0  0  0  0  0  0  0  0  0
   55.1700   29.6810   52.2580 C   0  0  0  0  0  0  0  0  0  0  0  0
   59.0930   33.0920   50.5950 C   0  0  0  0  0  0  0  0  0  0  0  0
   58.6980   33.7160   46.6470 C   0  0  0  0  0  0  0  0  0  0  0  0
   57.6140   34.0650   45.8180 C   0  0  0  0  0  0  0  0  0  0  0  0
   56.9320   33.0850   45.0900 C   0  0  0  0  0  0  0  0  0  0  0  0
   57.3370   31.7510   45.1690 C   0  0  0  0  0  0  0  0  0  0  0  0
   58.4050   31.3910   46.0000 C   0  0  0  0  0  0  0  0  0  0  0  0
   59.0960   32.3700   46.7200 C   0  0  0  0  0  0  0  0  0  0  0  0
   58.7660   30.0440   46.0960 O   0  0  0  0  0  0  0  0  0  0  0  0
   57.9160   29.0130   45.5840 C   0  0  0  0  0  0  0  0  0  0  0  0
   57.2730   29.4640   44.2660 C   0  0  0  0  0  0  0  0  0  0  0  0
   56.6930   30.7620   44.4190 O   0  0  0  0  0  0  0  0  0  0  0  0
   61.8872   33.2686   48.6291 H   0  0  0  0  0  0  0  0  0  0  0  0
   62.4905   31.2794   50.0067 H   0  0  0  0  0  0  0  0  0  0  0  0
   60.9197   30.4378   51.7486 H   0  0  0  0  0  0  0  0  0  0  0  0
   57.6840   29.8200   51.2460 H   0  0  0  0  0  0  0  0  0  0  0  0
   57.2505   30.7672   54.7480 H   0  0  0  0  0  0  0  0  0  0  0  0
   55.2343   30.2363   56.1141 H   0  0  0  0  0  0  0  0  0  0  0  0
   53.1800   29.3381   55.0220 H   0  0  0  0  0  0  0  0  0  0  0  0
   53.0684   27.9827   51.7372 H   0  0  0  0  0  0  0  0  0  0  0  0
   52.0749   28.5413   53.1328 H   0  0  0  0  0  0  0  0  0  0  0  0
   52.0974   31.4197   53.0436 H   0  0  0  0  0  0  0  0  0  0  0  0
   55.1471   29.5347   51.1680 H   0  0  0  0  0  0  0  0  0  0  0  0
   58.1493   33.6254   50.7817 H   0  0  0  0  0  0  0  0  0  0  0  0
   57.3014   35.1170   45.7427 H   0  0  0  0  0  0  0  0  0  0  0  0
   56.0777   33.3646   44.4560 H   0  0  0  0  0  0  0  0  0  0  0  0
   59.9546   32.0858   47.3461 H   0  0  0  0  0  0  0  0  0  0  0  0
   58.5118   28.1056   45.4061 H   0  0  0  0  0  0  0  0  0  0  0  0
   57.1234   28.8034   46.3174 H   0  0  0  0  0  0  0  0  0  0  0  0
   58.0418   29.4998   43.4801 H   0  0  0  0  0  0  0  0  0  0  0  0
   56.4848   28.7489   43.9877 H   0  0  0  0  0  0  0  0  0  0  0  0
  1  2  2  0
  2  3  1  0
  3  4  1  0
  4  5  2  0
  5  6  1  0
  6  7  2  0
  7  8  1  0
  8  9  1  0
  9 10  2  0
  9 11  1  0
 11 12  1  0
 12 13  2  0
 13 14  1  0
 14 15  2  0
 15 16  1  0
 16 17  1  0
 17 18  1  0
 18 19  1  0
 19 20  2  0
 20 21  1  0
 20 22  1  0
 22 23  2  0
 22 24  1  0
 24 25  1  0
 16 26  2  0
  8 27  2  0
  2 28  1  0
 28 29  2  0
 29 30  1  0
 30 31  2  0
 31 32  1  0
 32 33  2  0
 32 34  1  0
 34 35  1  0
 35 36  1  0
 36 37  1  0
 27  4  1  0
 33 28  1  0
 26 12  1  0
 37 31  1  0
 25 18  2  0
  5 38  1  0
  6 39  1  0
  7 40  1  0
 11 41  1  0
 13 42  1  0
 14 43  1  0
 15 44  1  0
 17 45  1  0
 17 46  1  0
 19 47  1  0
 26 48  1  0
 27 49  1  0
 29 50  1  0
 30 51  1  0
 33 52  1  0
 35 53  1  0
 35 54  1  0
 36 55  1  0
 36 56  1  0
M  CHG  3   3  -1  21  -1  24  -1
M  END
>  <UniqueID>  (4) 
3

>  <SMILES>  (4) 
O=C([N-]c1cccc(C(=O)Nc2cccc(Cc3cc([O-])c(=O)[n-]n3)c2)c1)c1ccc2c(c1)OCCO2

>  <Energy>  (4) 
76.15115827931601

>  <Genealogy>  (4) 
O=C([N-]c1cccc(C(=O)Nc2cccc(Cc3cc([O-])c(=O)[n-]n3)c2)c1)c1ccc2c(c1)OCCO2 (protonated)
O=C([N-]c1cccc(C(=O)Nc2cccc(Cc3cc([O-])c(=O)[n-]n3)c2)c1)c1ccc2c(c1)OCCO2 (3D coordinates assigned)
O=C([N-]c1cccc(C(=O)Nc2cccc(Cc3cc([O-])c(=O)[n-]n3)c2)c1)c1ccc2c(c1)OCCO2 (nonaromatic ring conformer: 76.15115827931601 kcal/mol)

>  <smiles>  (4) 
O=C(Nc1cccc(Cc2cc(O)c(=O)[nH]n2)c1)c1cccc(NC(=O)c2ccc3c(c2)OCCO3)c1

>  <score_type>  (4) 
oracle

>  <origin>  (4) 
adg

>  <m_score__min__energy>  (4) 
-18.16

>  <m_primary>  (4) 
energy

$$$$
4:0
     RDKit          3D

 37 39  0  0  0  0  0  0  0  0999 V2000
   64.5890   32.4210   47.2790 H   0  0  0  0  0  0  0  0  0  0  0  0
   63.8650   32.8330   47.8580 O   0  0  0  0  0  0  0  0  0  0  0  0
   62.5260   32.8030   47.4790 C   0  0  0  0  0  0  0  0  0  0  0  0
   61.9730   33.8450   46.7290 C   0  0  0  0  0  0  0  0  0  0  0  0
   62.5979   34.7022   46.4380 H   0  0  0  0  0  0  0  0  0  0  0  0
   60.6310   33.8020   46.3480 C   0  0  0  0  0  0  0  0  0  0  0  0
   60.2055   34.6285   45.7600 H   0  0  0  0  0  0  0  0  0  0  0  0
   59.8170   32.7130   46.7080 C   0  0  0  0  0  0  0  0  0  0  0  0
   58.4050   32.7000   46.2600 C   0  0  0  0  0  0  0  0  0  0  0  0
   57.7830   33.7860   46.1090 O   0  0  0  0  0  0  0  0  0  0  0  0
   57.7550   31.4400   46.0220 N   0  0  0  0  0  0  0  0  0  0  0  0
   57.2550   31.0030   44.9030 C   0  0  0  0  0  0  0  0  0  0  0  0
   56.2340   30.1220   44.8750 N   0  0  0  0  0  0  0  0  0  0  0  0
   55.8920   29.7830   43.6030 C   0  0  0  0  0  0  0  0  0  0  0  0
   55.0787   29.0768   43.3797 H   0  0  0  0  0  0  0  0  0  0  0  0
   56.6440   30.3930   42.6050 C   0  0  0  0  0  0  0  0  0  0  0  0
   56.5208   30.2466   41.5218 H   0  0  0  0  0  0  0  0  0  0  0  0
   57.7750   31.3940   43.3450 S   0  0  0  0  0  0  0  0  0  0  0  0
   60.3730   31.6730   47.4950 C   0  0  0  0  0  0  0  0  0  0  0  0
   59.3870   30.2910   48.1080 S   0  0  0  0  0  0  0  0  0  0  0  0
   60.3080   29.0080   47.1880 C   0  0  0  0  0  0  0  0  0  0  0  0
   60.6604   28.2430   47.8955 H   0  0  0  0  0  0  0  0  0  0  0  0
   61.1571   29.4876   46.6790 H   0  0  0  0  0  0  0  0  0  0  0  0
   59.4400   28.3520   46.1490 C   0  0  0  0  0  0  0  0  0  0  0  0
   59.7580   28.4570   44.7860 C   0  0  0  0  0  0  0  0  0  0  0  0
   60.6369   29.0393   44.4723 H   0  0  0  0  0  0  0  0  0  0  0  0
   58.9630   27.8250   43.8250 C   0  0  0  0  0  0  0  0  0  0  0  0
   59.2196   27.9089   42.7586 H   0  0  0  0  0  0  0  0  0  0  0  0
   57.8430   27.0870   44.2170 C   0  0  0  0  0  0  0  0  0  0  0  0
   57.2170   26.5937   43.4589 H   0  0  0  0  0  0  0  0  0  0  0  0
   57.5170   26.9750   45.5740 C   0  0  0  0  0  0  0  0  0  0  0  0
   56.3670   26.2090   45.9770 C   0  0  0  0  0  0  0  0  0  0  0  0
   55.4430   25.5910   46.3000 N   0  0  0  0  0  0  0  0  0  0  0  0
   58.3160   27.6030   46.5390 C   0  0  0  0  0  0  0  0  0  0  0  0
   58.0628   27.5096   47.6054 H   0  0  0  0  0  0  0  0  0  0  0  0
   61.7260   31.7220   47.8560 C   0  0  0  0  0  0  0  0  0  0  0  0
   62.1628   30.9003   48.4426 H   0  0  0  0  0  0  0  0  0  0  0  0
  1  2  1  0
  2  3  1  0
  3  4  2  0
  4  5  1  0
  4  6  1  0
  6  7  1  0
  6  8  2  0
  8  9  1  0
  9 10  2  0
  9 11  1  0
 11 12  2  0
 12 13  1  0
 13 14  1  0
 14 15  1  0
 14 16  2  0
 16 17  1  0
 16 18  1  0
  8 19  1  0
 19 20  1  0
 20 21  1  0
 21 22  1  0
 21 23  1  0
 21 24  1  0
 24 25  2  0
 25 26  1  0
 25 27  1  0
 27 28  1  0
 27 29  2  0
 29 30  1  0
 29 31  1  0
 31 32  1  0
 32 33  3  0
 31 34  2  0
 34 35  1  0
 19 36  2  0
 36 37  1  0
 36  3  1  0
 18 12  1  0
 34 24  1  0
M  CHG  1  13  -1
M  END
>  <UniqueID>  (5) 
4

>  <SMILES>  (5) 
N#Cc1cccc(CSc2cc(O)ccc2C(=O)/N=c2/[n-]ccs2)c1

>  <Energy>  (5) 
67.50154631883413

>  <Genealogy>  (5) 
N#Cc1cccc(CSc2cc(O)ccc2C(=O)N=c2[n-]ccs2)c1 (protonated)
N#Cc1cccc(CSc2cc(O)ccc2C(=O)/N=c2/[n-]ccs2)c1 (cis-trans isomerization)
N#Cc1cccc(CSc2cc(O)ccc2C(=O)/N=c2/[n-]ccs2)c1 (3D coordinates assigned)
N#Cc1cccc(CSc2cc(O)ccc2C(=O)/N=c2/[n-]ccs2)c1 (optimized conformer: 67.50154631883413 kcal/mol)

>  <smiles>  (5) 
N#Cc1cccc(CSc2cc(O)ccc2C(=O)N=c2[nH]ccs2)c1

>  <score_type>  (5) 
oracle

>  <origin>  (5) 
adg

>  <m_score__min__energy>  (5) 
-9.8800000000000008

>  <m_primary>  (5) 
energy

$$$$
5:0
     RDKit          3D

 46 49  0  0  0  0  0  0  0  0999 V2000
   64.6130   33.0430   49.0330 C   0  0  0  0  0  0  0  0  0  0  0  0
   63.2950   33.3530   48.3880 C   0  0  0  0  0  0  0  0  0  0  0  0
   63.1210   33.1680   47.0070 C   0  0  0  0  0  0  0  0  0  0  0  0
   61.9000   33.4830   46.4030 C   0  0  0  0  0  0  0  0  0  0  0  0
   60.8440   33.9900   47.1710 C   0  0  0  0  0  0  0  0  0  0  0  0
   59.3210   34.3950   46.3970 S   0  0  0  0  0  0  0  0  0  0  0  0
   59.5120   35.6990   45.6730 O   0  0  0  0  0  0  0  0  0  0  0  0
   58.2220   34.5830   47.4020 O   0  0  0  0  0  0  0  0  0  0  0  0
   58.8550   33.1690   45.2540 N   0  0  0  0  0  0  0  0  0  0  0  0
   58.5260   33.4550   43.9720 C   0  0  0  0  0  0  0  0  0  0  0  0
   58.0170   32.3400   43.3290 C   0  0  0  0  0  0  0  0  0  0  0  0
   58.0360   31.3420   44.2720 C   0  0  0  0  0  0  0  0  0  0  0  0
   57.5970   30.0260   44.1590 C   0  0  0  0  0  0  0  0  0  0  0  0
   57.7070   29.1980   45.2820 C   0  0  0  0  0  0  0  0  0  0  0  0
   58.2670   29.6880   46.4750 C   0  0  0  0  0  0  0  0  0  0  0  0
   58.7180   31.0230   46.5750 C   0  0  0  0  0  0  0  0  0  0  0  0
   59.4120   31.4260   47.7650 N   0  0  0  0  0  0  0  0  0  0  0  0
   60.6820   30.7500   48.0760 C   0  0  0  0  0  0  0  0  0  0  0  0
   60.9540   30.7530   49.5840 C   0  0  0  0  0  0  0  0  0  0  0  0
   59.7810   30.2600   50.3240 N   0  0  0  0  0  0  0  0  0  0  0  0
   58.5240   30.9840   50.0230 C   0  0  0  0  0  0  0  0  0  0  0  0
   58.6410   31.9990   48.8730 C   0  0  0  0  0  0  0  0  0  0  0  0
   58.5640   31.8550   45.4400 C   0  0  0  0  0  0  0  0  0  0  0  0
   61.0280   34.2150   48.5420 C   0  0  0  0  0  0  0  0  0  0  0  0
   62.2480   33.8980   49.1480 C   0  0  0  0  0  0  0  0  0  0  0  0
   64.5011   33.0693   50.1270 H   0  0  0  0  0  0  0  0  0  0  0  0
   64.9467   32.0419   48.7226 H   0  0  0  0  0  0  0  0  0  0  0  0
   65.3580   33.7904   48.7226 H   0  0  0  0  0  0  0  0  0  0  0  0
   63.9481   32.7739   46.3983 H   0  0  0  0  0  0  0  0  0  0  0  0
   61.7683   33.3322   45.3214 H   0  0  0  0  0  0  0  0  0  0  0  0
   58.6472   34.4428   43.5035 H   0  0  0  0  0  0  0  0  0  0  0  0
   57.6717   32.2687   42.2871 H   0  0  0  0  0  0  0  0  0  0  0  0
   57.1763   29.6481   43.2155 H   0  0  0  0  0  0  0  0  0  0  0  0
   57.3532   28.1577   45.2310 H   0  0  0  0  0  0  0  0  0  0  0  0
   58.3554   29.0207   47.3450 H   0  0  0  0  0  0  0  0  0  0  0  0
   60.6312   29.7097   47.7222 H   0  0  0  0  0  0  0  0  0  0  0  0
   61.4975   31.2902   47.5729 H   0  0  0  0  0  0  0  0  0  0  0  0
   61.8152   30.1026   49.7971 H   0  0  0  0  0  0  0  0  0  0  0  0
   61.1667   31.7839   49.9035 H   0  0  0  0  0  0  0  0  0  0  0  0
   59.6520   29.2480   50.0900 H   0  0  0  0  0  0  0  0  0  0  0  0
   57.7559   30.2442   49.7534 H   0  0  0  0  0  0  0  0  0  0  0  0
   58.2654   31.5572   50.9255 H   0  0  0  0  0  0  0  0  0  0  0  0
   57.6339   32.2615   48.5168 H   0  0  0  0  0  0  0  0  0  0  0  0
   59.1569   32.8983   49.2405 H   0  0  0  0  0  0  0  0  0  0  0  0
   60.2113   34.6418   49.1427 H   0  0  0  0  0  0  0  0  0  0  0  0
   62.3877   34.0764   50.2244 H   0  0  0  0  0  0  0  0  0  0  0  0
  1  2  1  0
  2  3  2  0
  3  4  1  0
  4  5  2  0
  5  6  1  0
  6  7  2  0
  6  8  2  0
  6  9  1  0
  9 10  1  0
 10 11  2  0
 11 12  1  0
 12 13  2  0
 13 14  1  0
 14 15  2  0
 15 16  1  0
 16 17  1  0
 17 18  1  0
 18 19  1  0
 19 20  1  0
 20 21  1  0
 21 22  1  0
 16 23  2  0
  5 24  1  0
 24 25  2  0
 25  2  1  0
 23  9  1  0
 23 12  1  0
 22 17  1  0
  1 26  1  0
  1 27  1  0
  1 28  1  0
  3 29  1  0
  4 30  1  0
 10 31  1  0
 11 32  1  0
 13 33  1  0
 14 34  1  0
 15 35  1  0
 18 36  1  0
 18 37  1  0
 19 38  1  0
 19 39  1  0
 20 40  1  0
 21 41  1  0
 21 42  1  0
 22 43  1  0
 22 44  1  0
 24 45  1  0
 25 46  1  0
M  END
>  <UniqueID>  (6) 
5

>  <SMILES>  (6) 
Cc1ccc(S(=O)(=O)n2ccc3cccc(N4CCNCC4)c32)cc1

>  <Energy>  (6) 
97.291846694198

>  <Genealogy>  (6) 
Cc1ccc(S(=O)(=O)n2ccc3cccc(N4CCNCC4)c32)cc1 (3D coordinates assigned)
Cc1ccc(S(=O)(=O)n2ccc3cccc(N4CCNCC4)c32)cc1 (nonaromatic ring conformer: 97.291846694198 kcal/mol)

>  <smiles>  (6) 
Cc1ccc(S(=O)(=O)n2ccc3cccc(N4CCNCC4)c32)cc1

>  <score_type>  (6) 
oracle

>  <origin>  (6) 
adg

>  <m_score__min__energy>  (6) 
-7.79

>  <m_primary>  (6) 
energy

$$$$
6:0
     RDKit          3D

 58 61  0  0  1  0  0  0  0  0999 V2000
   55.4120   24.8440   45.3630 C   0  0  0  0  0  0  0  0  0  0  0  0
   55.4840   25.9580   46.2340 O   0  0  0  0  0  0  0  0  0  0  0  0
   56.6810   26.6730   46.2480 C   0  0  0  0  0  0  0  0  0  0  0  0
   56.8170   27.8250   45.4960 C   0  0  0  0  0  0  0  0  0  0  0  0
   58.0050   28.5080   45.5290 C   0  0  0  0  0  0  0  0  0  0  0  0
   58.2590   29.7640   44.7580 C   0  0  0  0  0  0  0  0  0  0  0  0
   57.7380   30.8650   45.5060 N   0  0  0  0  0  0  0  0  0  0  0  0
   58.3090   31.4870   46.4670 C   0  0  0  0  0  0  0  0  0  0  0  0
   58.5040   30.9050   47.6580 N   0  0  0  0  0  0  0  0  0  0  0  0
   59.0980   31.5930   48.6130 C   0  0  0  0  0  0  0  0  0  0  0  0
   59.2880   31.0360   49.7620 N   0  0  0  0  0  0  0  0  0  0  0  0
   60.4870   30.5680   50.3050 C   0  0  0  0  0  0  0  0  0  0  0  0
   61.4840   30.3660   49.1640 C   0  0  0  0  0  0  0  0  0  0  0  0
   62.2290   31.5670   48.8000 C   0  0  0  0  0  0  0  0  0  0  0  0
   62.5410   32.5670   49.7020 C   0  0  0  0  0  0  0  0  0  0  0  0
   63.2550   33.6870   49.2880 C   0  0  0  0  0  0  0  0  0  0  0  0
   63.6510   33.8030   47.9840 C   0  0  0  0  0  0  0  0  0  0  0  0
   63.3560   32.8160   47.0470 C   0  0  0  0  0  0  0  0  0  0  0  0
   62.6470   31.7150   47.4830 C   0  0  0  0  0  0  0  0  0  0  0  0
   59.5310   32.8600   48.4790 N   0  0  0  0  0  0  0  0  0  0  0  0
   59.3610   33.4810   47.3150 C   0  0  0  0  0  0  0  0  0  0  0  0
   59.7840   34.7950   47.0970 C   0  0  0  0  0  0  0  0  0  0  0  0
   59.5960   35.4180   45.8810 C   0  0  0  0  0  0  0  0  0  0  0  0
   58.9760   34.7260   44.8580 C   0  0  0  0  0  0  0  0  0  0  0  0
   58.5540   33.4150   45.0750 C   0  0  0  0  0  0  0  0  0  0  0  0
   58.7450   32.8040   46.2840 C   0  0  0  0  0  0  0  0  0  0  0  0
   59.0400   28.0300   46.3130 C   0  0  0  0  0  0  0  0  0  0  0  0
   58.9090   26.8760   47.0700 C   0  0  0  0  0  0  0  0  0  0  0  0
   59.9370   26.3790   47.8640 O   0  0  0  0  0  0  0  0  0  0  0  0
   60.5430   27.2450   48.8120 C   0  0  0  0  0  0  0  0  0  0  0  0
   57.7050   26.1780   47.0390 C   0  0  0  0  0  0  0  0  0  0  0  0
   57.5140   25.0230   47.7710 O   0  0  0  0  0  0  0  0  0  0  0  0
   55.3522   23.9189   45.9551 H   0  0  0  0  0  0  0  0  0  0  0  0
   54.5177   24.9318   44.7286 H   0  0  0  0  0  0  0  0  0  0  0  0
   56.3102   24.8159   44.7286 H   0  0  0  0  0  0  0  0  0  0  0  0
   55.9823   28.1890   44.8789 H   0  0  0  0  0  0  0  0  0  0  0  0
   59.3407   29.8955   44.6078 H   0  0  0  0  0  0  0  0  0  0  0  0
   57.7695   29.7096   43.7744 H   0  0  0  0  0  0  0  0  0  0  0  0
   58.1840   29.9420   47.7890 H   0  0  0  0  0  0  0  0  0  0  0  0
   60.8839   31.3039   51.0198 H   0  0  0  0  0  0  0  0  0  0  0  0
   60.3185   29.6182   50.8337 H   0  0  0  0  0  0  0  0  0  0  0  0
   62.2043   29.5924   49.4684 H   0  0  0  0  0  0  0  0  0  0  0  0
   60.8973   30.0781   48.2792 H   0  0  0  0  0  0  0  0  0  0  0  0
   62.2235   32.4768   50.7513 H   0  0  0  0  0  0  0  0  0  0  0  0
   63.5012   34.4797   50.0098 H   0  0  0  0  0  0  0  0  0  0  0  0
   64.2139   34.6940   47.6690 H   0  0  0  0  0  0  0  0  0  0  0  0
   63.6760   32.9103   45.9988 H   0  0  0  0  0  0  0  0  0  0  0  0
   62.4032   30.9233   46.7593 H   0  0  0  0  0  0  0  0  0  0  0  0
   59.9870   33.3420   49.2600 H   0  0  0  0  0  0  0  0  0  0  0  0
   60.2774   35.3440   47.9126 H   0  0  0  0  0  0  0  0  0  0  0  0
   59.9354   36.4530   45.7273 H   0  0  0  0  0  0  0  0  0  0  0  0
   58.8168   35.2054   43.8809 H   0  0  0  0  0  0  0  0  0  0  0  0
   58.0599   32.8635   44.2616 H   0  0  0  0  0  0  0  0  0  0  0  0
   59.9922   28.5803   46.3363 H   0  0  0  0  0  0  0  0  0  0  0  0
   60.3025   26.9013   49.8289 H   0  0  0  0  0  0  0  0  0  0  0  0
   61.6339   27.2374   48.6708 H   0  0  0  0  0  0  0  0  0  0  0  0
   60.1621   28.2673   48.6708 H   0  0  0  0  0  0  0  0  0  0  0  0
   56.6280   24.5330   47.7890 H   0  0  0  0  0  0  0  0  0  0  0  0
  1  2  1  0
  2  3  1  0
  3  4  2  0
  4  5  1  0
  5  6  1  0
  6  7  1  0
  7  8  2  0
  8  9  1  0
  9 10  1  0
 10 11  2  0
 11 12  1  0
 12 13  1  0
 13 14  1  0
 14 15  2  0
 15 16  1  0
 16 17  2  0
 17 18  1  0
 18 19  2  0
 10 20  1  0
 20 21  1  0
 21 22  2  0
 22 23  1  0
 23 24  2  0
 24 25  1  0
 25 26  2  0
  5 27  2  0
 27 28  1  0
 28 29  1  0
 29 30  1  0
 28 31  2  0
 31 32  1  0
 31  3  1  0
 26  8  1  0
 19 14  1  0
 26 21  1  0
  1 33  1  0
  1 34  1  0
  1 35  1  0
  4 36  1  0
  6 37  1  0
  6 38  1  0
  9 39  1  0
 12 40  1  0
 12 41  1  0
 13 42  1  0
 13 43  1  0
 15 44  1  0
 16 45  1  0
 17 46  1  0
 18 47  1  0
 19 48  1  0
 20 49  1  0
 22 50  1  0
 23 51  1  0
 24 52  1  0
 25 53  1  0
 27 54  1  0
 30 55  1  0
 30 56  1  0
 30 57  1  0
 32 58  1  0
M  END
>  <smiles>  (7) 
COc1cc(CN=c2[nH]c(=NCCc3ccccc3)[nH]c3ccccc23)cc(OC)c1O

>  <score_type>  (7) 
oracle

>  <origin>  (7) 
adg

>  <m_score__min__energy>  (7) 
-9.5099999999999998

>  <m_primary>  (7) 
energy

$$$$
7:0
     RDKit          3D

 54 56  0  0  0  0  0  0  0  0999 V2000
   57.4020   31.6120   51.5880 C   0  0  0  0  0  0  0  0  0  0  0  0
   58.5560   32.5440   51.2410 C   0  0  0  0  0  0  0  0  0  0  0  0
   59.4680   31.9060   50.3490 O   0  0  0  0  0  0  0  0  0  0  0  0
   59.0630   31.1460   49.2440 C   0  0  0  0  0  0  0  0  0  0  0  0
   58.6340   29.9680   49.4050 O   0  0  0  0  0  0  0  0  0  0  0  0
   59.1140   31.7270   47.9240 N   0  0  0  0  0  0  0  0  0  0  0  0
   58.2690   32.9490   47.8420 C   0  0  0  0  0  0  0  0  0  0  0  0
   59.1030   34.2400   47.9240 C   0  0  0  0  0  0  0  0  0  0  0  0
   60.1180   34.3240   46.8420 N   0  0  0  0  0  0  0  0  0  0  0  0
   59.6240   35.1230   45.6980 C   0  0  0  0  0  0  0  0  0  0  0  0
   59.2330   34.2210   44.5120 C   0  0  0  0  0  0  0  0  0  0  0  0
   57.7850   33.7160   44.6180 C   0  0  0  0  0  0  0  0  0  0  0  0
   57.6540   32.2230   44.4190 C   0  0  0  0  0  0  0  0  0  0  0  0
   57.7510   31.7400   43.2590 O   0  0  0  0  0  0  0  0  0  0  0  0
   57.4100   31.3220   45.5120 N   0  0  0  0  0  0  0  0  0  0  0  0
   57.7680   30.0750   45.6000 C   0  0  0  0  0  0  0  0  0  0  0  0
   58.8540   29.6390   46.2870 N   0  0  0  0  0  0  0  0  0  0  0  0
   58.9480   28.2860   46.2240 C   0  0  0  0  0  0  0  0  0  0  0  0
   59.9590   27.5390   46.8250 C   0  0  0  0  0  0  0  0  0  0  0  0
   59.9400   26.1400   46.6880 C   0  0  0  0  0  0  0  0  0  0  0  0
   58.9180   25.4990   45.9550 C   0  0  0  0  0  0  0  0  0  0  0  0
   58.9540   24.0990   45.8540 O   0  0  0  0  0  0  0  0  0  0  0  0
   58.1400   23.3390   44.9660 C   0  0  0  0  0  0  0  0  0  0  0  0
   57.9000   26.2740   45.3530 C   0  0  0  0  0  0  0  0  0  0  0  0
   57.9460   27.6560   45.5050 C   0  0  0  0  0  0  0  0  0  0  0  0
   56.8820   28.8110   44.9110 S   0  0  0  0  0  0  0  0  0  0  0  0
   60.6190   32.9940   46.4050 C   0  0  0  0  0  0  0  0  0  0  0  0
   60.5240   31.9510   47.5260 C   0  0  0  0  0  0  0  0  0  0  0  0
   57.3080   31.5361   52.6813 H   0  0  0  0  0  0  0  0  0  0  0  0
   56.4680   32.0122   51.1666 H   0  0  0  0  0  0  0  0  0  0  0  0
   57.5967   30.6147   51.1666 H   0  0  0  0  0  0  0  0  0  0  0  0
   58.1568   33.4503   50.7622 H   0  0  0  0  0  0  0  0  0  0  0  0
   59.0904   32.8053   52.1663 H   0  0  0  0  0  0  0  0  0  0  0  0
   58.7070   31.0240   47.2600 H   0  0  0  0  0  0  0  0  0  0  0  0
   57.7243   32.9394   46.8864 H   0  0  0  0  0  0  0  0  0  0  0  0
   57.5776   32.9391   48.6975 H   0  0  0  0  0  0  0  0  0  0  0  0
   58.4269   35.1039   47.8429 H   0  0  0  0  0  0  0  0  0  0  0  0
   59.6358   34.2365   48.8864 H   0  0  0  0  0  0  0  0  0  0  0  0
   58.7420   35.6979   46.0168 H   0  0  0  0  0  0  0  0  0  0  0  0
   60.4302   35.7961   45.3710 H   0  0  0  0  0  0  0  0  0  0  0  0
   59.3404   34.7953   43.5800 H   0  0  0  0  0  0  0  0  0  0  0  0
   59.8975   33.3444   44.5215 H   0  0  0  0  0  0  0  0  0  0  0  0
   57.3993   33.9699   45.6164 H   0  0  0  0  0  0  0  0  0  0  0  0
   57.2118   34.2023   43.8149 H   0  0  0  0  0  0  0  0  0  0  0  0
   60.7575   28.0349   47.3963 H   0  0  0  0  0  0  0  0  0  0  0  0
   60.7313   25.5374   47.1578 H   0  0  0  0  0  0  0  0  0  0  0  0
   57.4579   22.7021   45.5483 H   0  0  0  0  0  0  0  0  0  0  0  0
   57.5538   24.0205   44.3320 H   0  0  0  0  0  0  0  0  0  0  0  0
   58.7797   22.7075   44.3320 H   0  0  0  0  0  0  0  0  0  0  0  0
   57.0923   25.7963   44.7791 H   0  0  0  0  0  0  0  0  0  0  0  0
   60.0192   32.6517   45.5488 H   0  0  0  0  0  0  0  0  0  0  0  0
   61.6782   33.1024   46.1287 H   0  0  0  0  0  0  0  0  0  0  0  0
   60.9531   31.0020   47.1719 H   0  0  0  0  0  0  0  0  0  0  0  0
   61.0801   32.3229   48.3992 H   0  0  0  0  0  0  0  0  0  0  0  0
  1  2  1  0
  2  3  1  0
  3  4  1  0
  4  5  2  0
  4  6  1  0
  6  7  1  0
  7  8  1  0
  8  9  1  0
  9 10  1  0
 10 11  1  0
 11 12  1  0
 12 13  1  0
 13 14  2  0
 13 15  1  0
 15 16  2  3
 16 17  1  0
 17 18  1  0
 18 19  2  0
 19 20  1  0
 20 21  2  0
 21 22  1  0
 22 23  1  0
 21 24  1  0
 24 25  2  0
 25 26  1  0
  9 27  1  0
 27 28  1  0
 28  6  1  0
 26 16  1  0
 25 18  1  0
  1 29  1  0
  1 30  1  0
  1 31  1  0
  2 32  1  0
  2 33  1  0
  6 34  1  0
  7 35  1  0
  7 36  1  0
  8 37  1  0
  8 38  1  0
 10 39  1  0
 10 40  1  0
 11 41  1  0
 11 42  1  0
 12 43  1  0
 12 44  1  0
 19 45  1  0
 20 46  1  0
 23 47  1  0
 23 48  1  0
 23 49  1  0
 24 50  1  0
 27 51  1  0
 27 52  1  0
 28 53  1  0
 28 54  1  0
M  CHG  2   6   1  17  -1
M  END
>  <UniqueID>  (8) 
6

>  <SMILES>  (8) 
CCOC(=O)[NH+]1CCN(CCCC(=O)N=c2[n-]c3ccc(OC)cc3s2)CC1

>  <Energy>  (8) 
100.45019351409128

>  <Genealogy>  (8) 
CCOC(=O)[NH+]1CCN(CCCC(=O)N=c2[n-]c3ccc(OC)cc3s2)CC1 (protonated)
CCOC(=O)[NH+]1CCN(CCCC(=O)N=c2[n-]c3ccc(OC)cc3s2)CC1 (3D coordinates assigned)
CCOC(=O)[NH+]1CCN(CCCC(=O)N=c2[n-]c3ccc(OC)cc3s2)CC1 (nonaromatic ring conformer: 100.45019351409128 kcal/mol)

>  <smiles>  (8) 
CCOC(=O)N1CCN(CCCC(=O)N=c2[nH]c3ccc(OC)cc3s2)CC1

>  <score_type>  (8) 
oracle

>  <origin>  (8) 
adg

>  <m_score__min__energy>  (8) 
-8.5

>  <m_primary>  (8) 
energy

$$$$
8:0
     RDKit          3D

 28 29  0  0  0  0  0  0  0  0999 V2000
   57.3910   31.9750   41.2710 C   0  0  0  0  0  0  0  0  0  0  0  0
   57.2130   31.4280   42.6450 C   0  0  0  0  0  0  0  0  0  0  0  0
   58.0670   31.8260   43.6710 C   0  0  0  0  0  0  0  0  0  0  0  0
   57.9380   31.3440   44.9580 C   0  0  0  0  0  0  0  0  0  0  0  0
   58.8590   31.7930   45.9980 C   0  0  0  0  0  0  0  0  0  0  0  0
   59.0580   31.0580   47.0260 O   0  0  0  0  0  0  0  0  0  0  0  0
   59.5260   33.0430   45.8590 N   0  0  0  0  0  0  0  0  0  0  0  0
   60.4170   33.4300   46.9100 C   0  0  0  0  0  0  0  0  0  0  0  0
   61.7930   33.4270   46.7390 C   0  0  0  0  0  0  0  0  0  0  0  0
   62.6060   33.8110   47.7870 C   0  0  0  0  0  0  0  0  0  0  0  0
   62.0520   34.1970   48.9960 C   0  0  0  0  0  0  0  0  0  0  0  0
   60.6660   34.2090   49.1880 C   0  0  0  0  0  0  0  0  0  0  0  0
   59.8520   33.8180   48.1200 C   0  0  0  0  0  0  0  0  0  0  0  0
   56.9450   30.4640   45.1840 N   0  0  0  0  0  0  0  0  0  0  0  0
   56.1060   30.0620   44.2090 C   0  0  0  0  0  0  0  0  0  0  0  0
   55.1900   29.2330   44.4780 O   0  0  0  0  0  0  0  0  0  0  0  0
   56.2550   30.5540   42.9470 N   0  0  0  0  0  0  0  0  0  0  0  0
   57.7308   33.0193   41.3333 H   0  0  0  0  0  0  0  0  0  0  0  0
   58.1409   31.3769   40.7325 H   0  0  0  0  0  0  0  0  0  0  0  0
   56.4327   31.9327   40.7325 H   0  0  0  0  0  0  0  0  0  0  0  0
   58.8683   32.5461   43.4489 H   0  0  0  0  0  0  0  0  0  0  0  0
   59.3600   33.6410   45.0150 H   0  0  0  0  0  0  0  0  0  0  0  0
   62.2326   33.1217   45.7780 H   0  0  0  0  0  0  0  0  0  0  0  0
   63.6987   33.8103   47.6609 H   0  0  0  0  0  0  0  0  0  0  0  0
   62.7138   34.4998   49.8208 H   0  0  0  0  0  0  0  0  0  0  0  0
   60.2298   34.5167   50.1498 H   0  0  0  0  0  0  0  0  0  0  0  0
   58.7583   33.8174   48.2378 H   0  0  0  0  0  0  0  0  0  0  0  0
   55.6030   30.2470   42.1710 H   0  0  0  0  0  0  0  0  0  0  0  0
  1  2  1  0
  2  3  2  0
  3  4  1  0
  4  5  1  0
  5  6  2  0
  5  7  1  0
  7  8  1  0
  8  9  2  0
  9 10  1  0
 10 11  2  0
 11 12  1  0
 12 13  2  0
  4 14  2  0
 14 15  1  0
 15 16  2  0
 15 17  1  0
 17  2  1  0
 13  8  1  0
  1 18  1  0
  1 19  1  0
  1 20  1  0
  3 21  1  0
  7 22  1  0
  9 23  1  0
 10 24  1  0
 11 25  1  0
 12 26  1  0
 13 27  1  0
 17 28  1  0
M  END
>  <smiles>  (9) 
Cc1cc(C(=O)Nc2ccccc2)nc(=O)[nH]1

>  <score_type>  (9) 
oracle

>  <origin>  (9) 
adg

>  <m_score__min__energy>  (9) 
-6.8899999999999997

>  <m_primary>  (9) 
energy

$$$$
9:0
     RDKit          3D

 32 34  0  0  0  0  0  0  0  0999 V2000
   61.2700   33.3250   46.7570 H   0  0  0  0  0  0  0  0  0  0  0  0
   61.2370   34.3680   46.7160 N   0  0  0  0  0  0  0  0  0  0  0  0
   59.6190   34.8040   46.2960 S   0  0  0  0  0  0  0  0  0  0  0  0
   58.9130   35.3490   47.5060 O   0  0  0  0  0  0  0  0  0  0  0  0
   59.6490   35.8700   45.2360 O   0  0  0  0  0  0  0  0  0  0  0  0
   58.7650   33.3870   45.6950 C   0  0  0  0  0  0  0  0  0  0  0  0
   58.6010   32.2620   46.5130 C   0  0  0  0  0  0  0  0  0  0  0  0
   59.0157   32.2606   47.5318 H   0  0  0  0  0  0  0  0  0  0  0  0
   57.9120   31.1400   46.0400 C   0  0  0  0  0  0  0  0  0  0  0  0
   57.7898   30.2580   46.6859 H   0  0  0  0  0  0  0  0  0  0  0  0
   57.3750   31.1380   44.7390 C   0  0  0  0  0  0  0  0  0  0  0  0
   56.6620   30.0080   44.2230 N   0  0  0  0  0  0  0  0  0  0  0  0
   56.1160   29.1460   44.9810 N   0  0  0  0  0  0  0  0  0  0  0  0
   56.7900   27.9430   45.3570 C   0  0  0  0  0  0  0  0  0  0  0  0
   56.1720   26.8590   45.9520 C   0  0  0  0  0  0  0  0  0  0  0  0
   54.7970   26.7100   46.0900 O   0  0  0  0  0  0  0  0  0  0  0  0
   57.0620   25.9680   46.4370 N   0  0  0  0  0  0  0  0  0  0  0  0
   58.2620   26.5050   46.1370 C   0  0  0  0  0  0  0  0  0  0  0  0
   59.5030   25.9670   46.4740 C   0  0  0  0  0  0  0  0  0  0  0  0
   59.5763   25.0140   47.0184 H   0  0  0  0  0  0  0  0  0  0  0  0
   60.6570   26.6740   46.1000 C   0  0  0  0  0  0  0  0  0  0  0  0
   61.6488   26.2888   46.3793 H   0  0  0  0  0  0  0  0  0  0  0  0
   60.5520   27.8740   45.3690 C   0  0  0  0  0  0  0  0  0  0  0  0
   61.4643   28.4183   45.0836 H   0  0  0  0  0  0  0  0  0  0  0  0
   59.2940   28.3840   45.0000 C   0  0  0  0  0  0  0  0  0  0  0  0
   59.2350   29.4860   44.1500 O   0  0  0  0  0  0  0  0  0  0  0  0
   58.5860   29.5400   43.3780 H   0  0  0  0  0  0  0  0  0  0  0  0
   58.1520   27.7020   45.4580 C   0  0  0  0  0  0  0  0  0  0  0  0
   57.5350   32.2660   43.9280 C   0  0  0  0  0  0  0  0  0  0  0  0
   57.1166   32.2718   42.9107 H   0  0  0  0  0  0  0  0  0  0  0  0
   58.2240   33.3870   44.4030 C   0  0  0  0  0  0  0  0  0  0  0  0
   58.3413   34.2715   43.7597 H   0  0  0  0  0  0  0  0  0  0  0  0
  1  2  1  0
  2  3  1  0
  3  4  2  0
  3  5  2  0
  3  6  1  0
  6  7  2  0
  7  8  1  0
  7  9  1  0
  9 10  1  0
  9 11  2  0
 11 12  1  0
 12 13  2  0
 13 14  1  0
 14 15  2  0
 15 16  1  0
 15 17  1  0
 17 18  1  0
 18 19  2  0
 19 20  1  0
 19 21  1  0
 21 22  1  0
 21 23  2  0
 23 24  1  0
 23 25  1  0
 25 26  1  0
 26 27  1  0
 25 28  2  0
 11 29  1  0
 29 30  1  0
 29 31  2  0
 31 32  1  0
 31  6  1  0
 28 14  1  0
 28 18  1  0
M  CHG  3   2  -1  16  -1  17  -1
M  END
>  <UniqueID>  (10) 
7

>  <SMILES>  (10) 
[NH-]S(=O)(=O)c1ccc(/N=N/c2c([O-])[n-]c3cccc(O)c23)cc1

>  <Energy>  (10) 
76.0608982324274

>  <Genealogy>  (10) 
[NH-]S(=O)(=O)c1ccc(N=Nc2c([O-])[n-]c3cccc(O)c23)cc1 (protonated)
[NH-]S(=O)(=O)c1ccc(/N=N/c2c([O-])[n-]c3cccc(O)c23)cc1 (cis-trans isomerization)
[NH-]S(=O)(=O)c1ccc(/N=N/c2c([O-])[n-]c3cccc(O)c23)cc1 (3D coordinates assigned)
[NH-]S(=O)(=O)c1ccc(/N=N/c2c([O-])[n-]c3cccc(O)c23)cc1 (optimized conformer: 76.0608982324274 kcal/mol)

>  <smiles>  (10) 
NS(=O)(=O)c1ccc(N=Nc2c(O)[nH]c3cccc(O)c23)cc1

>  <score_type>  (10) 
oracle

>  <origin>  (10) 
adg

>  <m_score__min__energy>  (10) 
-13.93

>  <m_primary>  (10) 
energy

$$$$
10:0
     RDKit          3D

 45 47  0  0  0  0  0  0  0  0999 V2000
   60.2250   30.4240   47.1450 C   0  0  0  0  0  0  0  0  0  0  0  0
   58.9200   29.9110   46.8900 O   0  0  0  0  0  0  0  0  0  0  0  0
   58.6550   28.7020   46.2220 C   0  0  0  0  0  0  0  0  0  0  0  0
   58.5760   27.4770   46.9120 C   0  0  0  0  0  0  0  0  0  0  0  0
   58.2900   26.2840   46.2260 C   0  0  0  0  0  0  0  0  0  0  0  0
   58.2050   25.0190   46.8970 N   0  0  0  0  0  0  0  0  0  0  0  0
   56.8540   23.9300   46.8170 S   0  0  0  0  0  0  0  0  0  0  0  0
   57.0090   22.8740   47.8770 O   0  0  0  0  0  0  0  0  0  0  0  0
   55.5880   24.6980   47.0850 O   0  0  0  0  0  0  0  0  0  0  0  0
   56.7930   23.1480   45.2380 C   0  0  0  0  0  0  0  0  0  0  0  0
   57.6590   22.0840   44.9540 C   0  0  0  0  0  0  0  0  0  0  0  0
   57.6280   21.4690   43.6980 C   0  0  0  0  0  0  0  0  0  0  0  0
   56.7390   21.9210   42.7190 C   0  0  0  0  0  0  0  0  0  0  0  0
   55.8750   22.9830   42.9970 C   0  0  0  0  0  0  0  0  0  0  0  0
   55.8960   23.5950   44.2550 C   0  0  0  0  0  0  0  0  0  0  0  0
   58.0790   26.3230   44.8490 C   0  0  0  0  0  0  0  0  0  0  0  0
   58.1840   27.5250   44.1500 C   0  0  0  0  0  0  0  0  0  0  0  0
   58.4820   28.7210   44.8250 C   0  0  0  0  0  0  0  0  0  0  0  0
   58.6150   29.9550   44.0970 N   0  0  0  0  0  0  0  0  0  0  0  0
   57.4040   31.1970   44.1650 S   0  0  0  0  0  0  0  0  0  0  0  0
   56.1790   30.6650   44.8530 O   0  0  0  0  0  0  0  0  0  0  0  0
   57.0420   31.6110   42.7640 O   0  0  0  0  0  0  0  0  0  0  0  0
   58.0210   32.5680   45.0850 C   0  0  0  0  0  0  0  0  0  0  0  0
   58.7750   33.5590   44.4350 C   0  0  0  0  0  0  0  0  0  0  0  0
   59.2420   34.6680   45.1460 C   0  0  0  0  0  0  0  0  0  0  0  0
   58.9640   34.7880   46.5130 C   0  0  0  0  0  0  0  0  0  0  0  0
   58.2230   33.7990   47.1680 C   0  0  0  0  0  0  0  0  0  0  0  0
   57.7510   32.6890   46.4570 C   0  0  0  0  0  0  0  0  0  0  0  0
   60.3880   30.4881   48.2310 H   0  0  0  0  0  0  0  0  0  0  0  0
   60.9757   29.7540   46.7004 H   0  0  0  0  0  0  0  0  0  0  0  0
   60.3185   31.4258   46.7004 H   0  0  0  0  0  0  0  0  0  0  0  0
   58.7399   27.4535   47.9995 H   0  0  0  0  0  0  0  0  0  0  0  0
   58.3649   21.7314   45.7204 H   0  0  0  0  0  0  0  0  0  0  0  0
   58.3040   20.6289   43.4807 H   0  0  0  0  0  0  0  0  0  0  0  0
   56.7196   21.4406   41.7296 H   0  0  0  0  0  0  0  0  0  0  0  0
   55.1767   23.3388   42.2252 H   0  0  0  0  0  0  0  0  0  0  0  0
   55.2097   24.4263   44.4738 H   0  0  0  0  0  0  0  0  0  0  0  0
   57.8276   25.3981   44.3092 H   0  0  0  0  0  0  0  0  0  0  0  0
   58.0322   27.5371   43.0606 H   0  0  0  0  0  0  0  0  0  0  0  0
   59.3360   30.0350   43.3440 H   0  0  0  0  0  0  0  0  0  0  0  0
   58.9988   33.4619   43.3624 H   0  0  0  0  0  0  0  0  0  0  0  0
   59.8270   35.4452   44.6325 H   0  0  0  0  0  0  0  0  0  0  0  0
   59.3290   35.6617   47.0728 H   0  0  0  0  0  0  0  0  0  0  0  0
   58.0108   33.8934   48.2432 H   0  0  0  0  0  0  0  0  0  0  0  0
   57.1686   31.9119   46.9736 H   0  0  0  0  0  0  0  0  0  0  0  0
  1  2  1  0
  2  3  1  0
  3  4  2  0
  4  5  1  0
  5  6  1  0
  6  7  1  0
  7  8  2  0
  7  9  2  0
  7 10  1  0
 10 11  2  0
 11 12  1  0
 12 13  2  0
 13 14  1  0
 14 15  2  0
  5 16  2  0
 16 17  1  0
 17 18  2  0
 18 19  1  0
 19 20  1  0
 20 21  2  0
 20 22  2  0
 20 23  1  0
 23 24  2  0
 24 25  1  0
 25 26  2  0
 26 27  1  0
 27 28  2  0
 18  3  1  0
 28 23  1  0
 15 10  1  0
  1 29  1  0
  1 30  1  0
  1 31  1  0
  4 32  1  0
 11 33  1  0
 12 34  1  0
 13 35  1  0
 14 36  1  0
 15 37  1  0
 16 38  1  0
 17 39  1  0
 19 40  1  0
 24 41  1  0
 25 42  1  0
 26 43  1  0
 27 44  1  0
 28 45  1  0
M  CHG  1   6  -1
M  END
>  <UniqueID>  (11) 
8

>  <SMILES>  (11) 
COc1cc([N-]S(=O)(=O)c2ccccc2)ccc1NS(=O)(=O)c1ccccc1

>  <Energy>  (11) 
53.516210435076715

>  <Genealogy>  (11) 
COc1cc([N-]S(=O)(=O)c2ccccc2)ccc1NS(=O)(=O)c1ccccc1 (protonated)
COc1cc([N-]S(=O)(=O)c2ccccc2)ccc1NS(=O)(=O)c1ccccc1 (3D coordinates assigned)
COc1cc([N-]S(=O)(=O)c2ccccc2)ccc1NS(=O)(=O)c1ccccc1 (optimized conformer: 53.516210435076715 kcal/mol)

>  <smiles>  (11) 
COc1cc(NS(=O)(=O)c2ccccc2)ccc1NS(=O)(=O)c1ccccc1

>  <score_type>  (11) 
oracle

>  <origin>  (11) 
adg

>  <m_score__min__energy>  (11) 
-11.119999999999999

>  <m_primary>  (11) 
energy

$$$$
11:0
     RDKit          3D

 40 41  0  0  0  0  0  0  0  0999 V2000
   58.0708   34.1332   48.1536 H   0  0  0  0  0  0  0  0  0  0  0  0
   58.1090   33.8710   47.0860 C   0  0  0  0  0  0  0  0  0  0  0  0
   57.3920   32.8130   46.6180 N   0  0  0  0  0  0  0  0  0  0  0  0
   57.4100   32.4510   45.3050 C   0  0  0  0  0  0  0  0  0  0  0  0
   56.7370   31.4230   44.8710 N   0  0  0  0  0  0  0  0  0  0  0  0
   57.0160   30.0260   45.0730 C   0  0  0  0  0  0  0  0  0  0  0  0
   56.0470   29.2340   45.2090 O   0  0  0  0  0  0  0  0  0  0  0  0
   58.4130   29.4780   45.1960 C   0  0  0  0  0  0  0  0  0  0  0  0
   59.0856   30.0556   44.5449 H   0  0  0  0  0  0  0  0  0  0  0  0
   58.4045   28.4199   44.8953 H   0  0  0  0  0  0  0  0  0  0  0  0
   58.8750   29.5670   46.5420 O   0  0  0  0  0  0  0  0  0  0  0  0
   59.9990   30.3090   46.9260 C   0  0  0  0  0  0  0  0  0  0  0  0
   61.0840   30.1790   46.2940 O   0  0  0  0  0  0  0  0  0  0  0  0
   59.9280   31.2250   48.0910 C   0  0  0  0  0  0  0  0  0  0  0  0
   58.9060   31.0450   49.0440 C   0  0  0  0  0  0  0  0  0  0  0  0
   58.2036   30.2060   48.9310 H   0  0  0  0  0  0  0  0  0  0  0  0
   58.7680   31.9180   50.1360 C   0  0  0  0  0  0  0  0  0  0  0  0
   57.7120   31.7230   51.0950 N   0  0  0  0  0  0  0  0  0  0  0  0
   57.2900   32.6780   51.7810 O   0  0  0  0  0  0  0  0  0  0  0  0
   57.1490   30.4800   51.2750 O   0  0  0  0  0  0  0  0  0  0  0  0
   59.6710   32.9820   50.2740 C   0  0  0  0  0  0  0  0  0  0  0  0
   59.5710   33.6765   51.1211 H   0  0  0  0  0  0  0  0  0  0  0  0
   60.6940   33.1660   49.3460 C   0  0  0  0  0  0  0  0  0  0  0  0
   61.3953   34.0045   49.4692 H   0  0  0  0  0  0  0  0  0  0  0  0
   60.8400   32.2950   48.2570 C   0  0  0  0  0  0  0  0  0  0  0  0
   61.9480   32.4780   47.3580 N   0  0  0  0  0  0  0  0  0  0  0  0
   63.1890   31.7480   47.6110 C   0  0  0  0  0  0  0  0  0  0  0  0
   63.3456   31.6559   48.6959 H   0  0  0  0  0  0  0  0  0  0  0  0
   63.1222   30.7453   47.1637 H   0  0  0  0  0  0  0  0  0  0  0  0
   64.0330   32.2935   47.1637 H   0  0  0  0  0  0  0  0  0  0  0  0
   62.0000   33.6730   46.5190 C   0  0  0  0  0  0  0  0  0  0  0  0
   62.0389   34.5679   47.1575 H   0  0  0  0  0  0  0  0  0  0  0  0
   62.8974   33.6364   45.8839 H   0  0  0  0  0  0  0  0  0  0  0  0
   61.1028   33.7145   45.8839 H   0  0  0  0  0  0  0  0  0  0  0  0
   58.1970   33.1780   44.4030 C   0  0  0  0  0  0  0  0  0  0  0  0
   58.2330   32.8896   43.3421 H   0  0  0  0  0  0  0  0  0  0  0  0
   58.9360   34.2720   44.8600 C   0  0  0  0  0  0  0  0  0  0  0  0
   59.5501   34.8549   44.1577 H   0  0  0  0  0  0  0  0  0  0  0  0
   58.8930   34.6230   46.2090 C   0  0  0  0  0  0  0  0  0  0  0  0
   59.4707   35.4832   46.5782 H   0  0  0  0  0  0  0  0  0  0  0  0
  1  2  1  0
  2  3  1  0
  3  4  1  0
  4  5  2  0
  5  6  1  0
  6  7  2  0
  6  8  1  0
  8  9  1  0
  8 10  1  0
  8 11  1  0
 11 12  1  0
 12 13  2  0
 12 14  1  0
 14 15  2  0
 15 16  1  0
 15 17  1  0
 17 18  1  0
 18 19  2  0
 18 20  1  0
 17 21  2  0
 21 22  1  0
 21 23  1  0
 23 24  1  0
 23 25  2  0
 25 26  1  0
 26 27  1  0
 27 28  1  0
 27 29  1  0
 27 30  1  0
 26 31  1  0
 31 32  1  0
 31 33  1  0
 31 34  1  0
  4 35  1  0
 35 36  1  0
 35 37  2  0
 37 38  1  0
 37 39  1  0
 39 40  1  0
 39  2  2  0
 25 14  1  0
M  CHG  3   3  -1  18   1  20  -1
M  END
>  <UniqueID>  (12) 
9

>  <SMILES>  (12) 
CN(C)c1ccc([N+](=O)[O-])cc1C(=O)OCC(=O)/N=c1/cccc[n-]1

>  <Energy>  (12) 
49.51739043920651

>  <Genealogy>  (12) 
CN(C)c1ccc([N+](=O)[O-])cc1C(=O)OCC(=O)N=c1cccc[n-]1 (protonated)
CN(C)c1ccc([N+](=O)[O-])cc1C(=O)OCC(=O)/N=c1/cccc[n-]1 (cis-trans isomerization)
CN(C)c1ccc([N+](=O)[O-])cc1C(=O)OCC(=O)/N=c1/cccc[n-]1 (3D coordinates assigned)
CN(C)c1ccc([N+](=O)[O-])cc1C(=O)OCC(=O)/N=c1/cccc[n-]1 (optimized conformer: 49.51739043920651 kcal/mol)

>  <smiles>  (12) 
CN(C)c1ccc([N+](=O)[O-])cc1C(=O)OCC(=O)N=c1cccc[nH]1

>  <score_type>  (12) 
oracle

>  <origin>  (12) 
adg

>  <m_score__min__energy>  (12) 
-9.75

>  <m_primary>  (12) 
energy

$$$$
12:0
     RDKit          3D

 43 44  0  0  0  0  0  0  0  0999 V2000
   59.6520   33.7480   49.3820 C   0  0  0  0  0  0  0  0  0  0  0  0
   60.6270   34.4980   48.4780 C   0  0  0  0  0  0  0  0  0  0  0  0
   60.7860   33.8050   47.1910 N   0  0  0  0  0  0  0  0  0  0  0  0
   62.1010   33.3440   46.7320 C   0  0  0  0  0  0  0  0  0  0  0  0
   62.9100   32.8460   47.8970 C   0  0  0  0  0  0  0  0  0  0  0  0
   64.1040   33.4900   48.2620 C   0  0  0  0  0  0  0  0  0  0  0  0
   64.8300   33.0510   49.3740 C   0  0  0  0  0  0  0  0  0  0  0  0
   64.3660   31.9690   50.1320 C   0  0  0  0  0  0  0  0  0  0  0  0
   63.1740   31.3280   49.7790 C   0  0  0  0  0  0  0  0  0  0  0  0
   62.4450   31.7660   48.6690 C   0  0  0  0  0  0  0  0  0  0  0  0
   59.6230   33.4860   46.4090 C   0  0  0  0  0  0  0  0  0  0  0  0
   59.0240   34.4960   45.6440 C   0  0  0  0  0  0  0  0  0  0  0  0
   57.8940   34.2240   44.8780 C   0  0  0  0  0  0  0  0  0  0  0  0
   57.3440   32.9430   44.8680 C   0  0  0  0  0  0  0  0  0  0  0  0
   57.9230   31.9120   45.6300 C   0  0  0  0  0  0  0  0  0  0  0  0
   57.3660   30.5870   45.6420 N   0  0  0  0  0  0  0  0  0  0  0  0
   56.5120   29.8230   44.3410 S   0  0  0  0  0  0  0  0  0  0  0  0
   57.4640   28.4650   43.6950 C   0  0  0  0  0  0  0  0  0  0  0  0
   55.1690   29.3440   44.8130 O   0  0  0  0  0  0  0  0  0  0  0  0
   56.3090   30.8290   43.2420 O   0  0  0  0  0  0  0  0  0  0  0  0
   59.0800   32.1790   46.3980 C   0  0  0  0  0  0  0  0  0  0  0  0
   59.7020   31.0650   47.2060 C   0  0  0  0  0  0  0  0  0  0  0  0
   59.9046   33.9423   50.4348 H   0  0  0  0  0  0  0  0  0  0  0  0
   58.6268   34.0925   49.1813 H   0  0  0  0  0  0  0  0  0  0  0  0
   59.7220   32.6687   49.1813 H   0  0  0  0  0  0  0  0  0  0  0  0
   60.2423   35.5124   48.2960 H   0  0  0  0  0  0  0  0  0  0  0  0
   61.6063   34.5430   48.9770 H   0  0  0  0  0  0  0  0  0  0  0  0
   61.9675   32.5280   46.0066 H   0  0  0  0  0  0  0  0  0  0  0  0
   62.6313   34.1833   46.2583 H   0  0  0  0  0  0  0  0  0  0  0  0
   64.4693   34.3428   47.6710 H   0  0  0  0  0  0  0  0  0  0  0  0
   65.7663   33.5562   49.6533 H   0  0  0  0  0  0  0  0  0  0  0  0
   64.9389   31.6231   51.0050 H   0  0  0  0  0  0  0  0  0  0  0  0
   62.8096   30.4784   50.3752 H   0  0  0  0  0  0  0  0  0  0  0  0
   61.5043   31.2641   48.3985 H   0  0  0  0  0  0  0  0  0  0  0  0
   59.4496   35.5103   45.6489 H   0  0  0  0  0  0  0  0  0  0  0  0
   57.4333   35.0228   44.2783 H   0  0  0  0  0  0  0  0  0  0  0  0
   56.4508   32.7370   44.2599 H   0  0  0  0  0  0  0  0  0  0  0  0
   57.8762   27.8770   44.5283 H   0  0  0  0  0  0  0  0  0  0  0  0
   56.8167   27.8238   43.0787 H   0  0  0  0  0  0  0  0  0  0  0  0
   58.2875   28.8549   43.0787 H   0  0  0  0  0  0  0  0  0  0  0  0
   59.5825   31.2790   48.2783 H   0  0  0  0  0  0  0  0  0  0  0  0
   59.2041   30.1144   46.9641 H   0  0  0  0  0  0  0  0  0  0  0  0
   60.7725   30.9901   46.9641 H   0  0  0  0  0  0  0  0  0  0  0  0
  1  2  1  0
  2  3  1  0
  3  4  1  0
  4  5  1  0
  5  6  2  0
  6  7  1  0
  7  8  2  0
  8  9  1  0
  9 10  2  0
  3 11  1  0
 11 12  2  0
 12 13  1  0
 13 14  2  0
 14 15  1  0
 15 16  1  0
 16 17  1  0
 17 18  1  0
 17 19  2  0
 17 20  2  0
 15 21  2  0
 21 22  1  0
 10  5  1  0
 21 11  1  0
  1 23  1  0
  1 24  1  0
  1 25  1  0
  2 26  1  0
  2 27  1  0
  4 28  1  0
  4 29  1  0
  6 30  1  0
  7 31  1  0
  8 32  1  0
  9 33  1  0
 10 34  1  0
 12 35  1  0
 13 36  1  0
 14 37  1  0
 18 38  1  0
 18 39  1  0
 18 40  1  0
 22 41  1  0
 22 42  1  0
 22 43  1  0
M  CHG  1  16  -1
M  END
>  <UniqueID>  (13) 
10

>  <SMILES>  (13) 
CCN(Cc1ccccc1)c1cccc([N-]S(C)(=O)=O)c1C

>  <Energy>  (13) 
42.86716610560001

>  <Genealogy>  (13) 
CCN(Cc1ccccc1)c1cccc([N-]S(C)(=O)=O)c1C (protonated)
CCN(Cc1ccccc1)c1cccc([N-]S(C)(=O)=O)c1C (3D coordinates assigned)
CCN(Cc1ccccc1)c1cccc([N-]S(C)(=O)=O)c1C (optimized conformer: 42.86716610560001 kcal/mol)

>  <smiles>  (13) 
CCN(Cc1ccccc1)c1cccc(NS(C)(=O)=O)c1C

>  <score_type>  (13) 
oracle

>  <origin>  (13) 
adg

>  <m_score__min__energy>  (13) 
-10.449999999999999

>  <m_primary>  (13) 
energy

$$$$
13:0
     RDKit          3D

 41 43  0  0  0  0  0  0  0  0999 V2000
   56.4880   29.8840   42.6230 C   0  0  0  0  0  0  0  0  0  0  0  0
   56.3810   30.0180   44.3950 S   0  0  0  0  0  0  0  0  0  0  0  0
   55.1390   29.3380   44.9000 O   0  0  0  0  0  0  0  0  0  0  0  0
   57.5800   29.3460   45.0020 O   0  0  0  0  0  0  0  0  0  0  0  0
   56.3800   31.6870   44.8680 N   0  0  0  0  0  0  0  0  0  0  0  0
   57.5330   32.4550   45.2380 C   0  0  0  0  0  0  0  0  0  0  0  0
   57.7070   33.8050   44.8310 C   0  0  0  0  0  0  0  0  0  0  0  0
   58.8530   34.5270   45.2100 C   0  0  0  0  0  0  0  0  0  0  0  0
   59.8020   33.8790   45.9970 C   0  0  0  0  0  0  0  0  0  0  0  0
   60.9620   34.3780   46.4530 N   0  0  0  0  0  0  0  0  0  0  0  0
   61.5380   33.3780   47.1650 C   0  0  0  0  0  0  0  0  0  0  0  0
   62.8590   33.5000   47.8080 C   0  0  0  0  0  0  0  0  0  0  0  0
   63.7420   34.2090   47.2520 O   0  0  0  0  0  0  0  0  0  0  0  0
   63.1560   32.8430   49.0550 N   0  0  0  0  0  0  0  0  0  0  0  0
   64.5210   32.3770   49.3300 C   0  0  0  0  0  0  0  0  0  0  0  0
   65.1640   33.2180   50.4450 C   0  0  0  0  0  0  0  0  0  0  0  0
   64.1570   33.6880   51.5250 C   0  0  0  0  0  0  0  0  0  0  0  0
   63.8270   35.0360   51.3000 O   0  0  0  0  0  0  0  0  0  0  0  0
   62.8800   32.8280   51.5280 C   0  0  0  0  0  0  0  0  0  0  0  0
   62.1810   32.8820   50.1580 C   0  0  0  0  0  0  0  0  0  0  0  0
   60.7410   32.2340   47.1430 C   0  0  0  0  0  0  0  0  0  0  0  0
   59.6370   32.5810   46.3970 C   0  0  0  0  0  0  0  0  0  0  0  0
   58.5180   31.8360   46.0340 C   0  0  0  0  0  0  0  0  0  0  0  0
   57.1542   29.0497   42.3579 H   0  0  0  0  0  0  0  0  0  0  0  0
   55.4861   29.6993   42.2081 H   0  0  0  0  0  0  0  0  0  0  0  0
   56.8898   30.8202   42.2081 H   0  0  0  0  0  0  0  0  0  0  0  0
   56.9374   34.2907   44.2130 H   0  0  0  0  0  0  0  0  0  0  0  0
   58.9954   35.5712   44.8946 H   0  0  0  0  0  0  0  0  0  0  0  0
   61.3390   35.3390   46.2900 H   0  0  0  0  0  0  0  0  0  0  0  0
   64.4871   31.3237   49.6452 H   0  0  0  0  0  0  0  0  0  0  0  0
   65.1228   32.4805   48.4151 H   0  0  0  0  0  0  0  0  0  0  0  0
   65.9410   32.6119   50.9339 H   0  0  0  0  0  0  0  0  0  0  0  0
   65.5754   34.1217   49.9717 H   0  0  0  0  0  0  0  0  0  0  0  0
   64.6342   33.5764   52.5098 H   0  0  0  0  0  0  0  0  0  0  0  0
   63.4820   35.0960   50.3710 H   0  0  0  0  0  0  0  0  0  0  0  0
   63.1479   31.7856   51.7553 H   0  0  0  0  0  0  0  0  0  0  0  0
   62.1918   33.2217   52.2905 H   0  0  0  0  0  0  0  0  0  0  0  0
   61.5038   32.0199   50.0676 H   0  0  0  0  0  0  0  0  0  0  0  0
   61.6215   33.8268   50.0920 H   0  0  0  0  0  0  0  0  0  0  0  0
   60.9492   31.2643   47.6187 H   0  0  0  0  0  0  0  0  0  0  0  0
   58.4056   30.7914   46.3600 H   0  0  0  0  0  0  0  0  0  0  0  0
  1  2  1  0
  2  3  2  0
  2  4  2  0
  2  5  1  0
  5  6  1  0
  6  7  2  0
  7  8  1  0
  8  9  2  0
  9 10  1  0
 10 11  1  0
 11 12  1  0
 12 13  2  0
 12 14  1  0
 14 15  1  0
 15 16  1  0
 16 17  1  0
 17 18  1  0
 17 19  1  0
 19 20  1  0
 11 21  2  0
 21 22  1  0
 22 23  2  0
 23  6  1  0
 22  9  1  0
 20 14  1  0
  1 24  1  0
  1 25  1  0
  1 26  1  0
  7 27  1  0
  8 28  1  0
 10 29  1  0
 15 30  1  0
 15 31  1  0
 16 32  1  0
 16 33  1  0
 17 34  1  0
 18 35  1  0
 19 36  1  0
 19 37  1  0
 20 38  1  0
 20 39  1  0
 21 40  1  0
 23 41  1  0
M  CHG  1   5  -1
M  END
>  <UniqueID>  (14) 
11

>  <SMILES>  (14) 
CS(=O)(=O)[N-]c1ccc2[nH]c(C(=O)N3CCC(O)CC3)cc2c1

>  <Energy>  (14) 
79.63742612622065

>  <Genealogy>  (14) 
CS(=O)(=O)[N-]c1ccc2[nH]c(C(=O)N3CCC(O)CC3)cc2c1 (protonated)
CS(=O)(=O)[N-]c1ccc2[nH]c(C(=O)N3CCC(O)CC3)cc2c1 (3D coordinates assigned)
CS(=O)(=O)[N-]c1ccc2[nH]c(C(=O)N3CCC(O)CC3)cc2c1 (nonaromatic ring conformer: 79.63742612622065 kcal/mol)

>  <smiles>  (14) 
CS(=O)(=O)Nc1ccc2[nH]c(C(=O)N3CCC(O)CC3)cc2c1

>  <score_type>  (14) 
oracle

>  <origin>  (14) 
adg

>  <m_score__min__energy>  (14) 
-9.2200000000000006

>  <m_primary>  (14) 
energy

$$$$
14:0
     RDKit          3D

 46 48  0  0  0  0  0  0  0  0999 V2000
   57.0160   27.5750   45.7920 C   0  0  0  0  0  0  0  0  0  0  0  0
   57.1810   28.8620   45.0480 C   0  0  0  0  0  0  0  0  0  0  0  0
   56.1600   29.7190   44.8310 N   0  0  0  0  0  0  0  0  0  0  0  0
   56.7210   30.7350   44.1440 C   0  0  0  0  0  0  0  0  0  0  0  0
   58.0610   30.4840   43.9570 C   0  0  0  0  0  0  0  0  0  0  0  0
   58.3500   29.3040   44.5330 N   0  0  0  0  0  0  0  0  0  0  0  0
   59.6520   28.6330   44.5210 C   0  0  0  0  0  0  0  0  0  0  0  0
   60.3780   28.8150   45.8590 C   0  0  0  0  0  0  0  0  0  0  0  0
   60.2110   30.1730   46.3720 N   0  0  0  0  0  0  0  0  0  0  0  0
   59.2500   30.5050   47.3880 C   0  0  0  0  0  0  0  0  0  0  0  0
   58.5510   29.6020   47.9170 O   0  0  0  0  0  0  0  0  0  0  0  0
   59.0210   31.8670   47.7630 N   0  0  0  0  0  0  0  0  0  0  0  0
   58.7950   32.9510   46.8530 C   0  0  0  0  0  0  0  0  0  0  0  0
   57.5630   33.0770   46.1890 C   0  0  0  0  0  0  0  0  0  0  0  0
   57.3710   34.0840   45.2410 C   0  0  0  0  0  0  0  0  0  0  0  0
   58.4100   34.9640   44.9360 C   0  0  0  0  0  0  0  0  0  0  0  0
   59.6430   34.8410   45.5800 C   0  0  0  0  0  0  0  0  0  0  0  0
   59.8470   33.8370   46.5400 C   0  0  0  0  0  0  0  0  0  0  0  0
   61.1110   33.7630   47.2240 N   0  0  0  0  0  0  0  0  0  0  0  0
   61.1690   33.8640   48.6830 C   0  0  0  0  0  0  0  0  0  0  0  0
   62.2870   32.9600   49.2120 C   0  0  0  0  0  0  0  0  0  0  0  0
   63.5090   33.2280   48.5460 O   0  0  0  0  0  0  0  0  0  0  0  0
   63.3950   32.8900   47.1750 C   0  0  0  0  0  0  0  0  0  0  0  0
   62.3710   33.7900   46.4780 C   0  0  0  0  0  0  0  0  0  0  0  0
   57.0412   27.7712   46.8741 H   0  0  0  0  0  0  0  0  0  0  0  0
   56.0519   27.1179   45.5245 H   0  0  0  0  0  0  0  0  0  0  0  0
   57.8336   26.8894   45.5245 H   0  0  0  0  0  0  0  0  0  0  0  0
   56.1882   31.6288   43.7873 H   0  0  0  0  0  0  0  0  0  0  0  0
   58.7722   31.1356   43.4281 H   0  0  0  0  0  0  0  0  0  0  0  0
   59.5012   27.5590   44.3371 H   0  0  0  0  0  0  0  0  0  0  0  0
   60.2677   29.0783   43.7256 H   0  0  0  0  0  0  0  0  0  0  0  0
   59.9672   28.1027   46.5896 H   0  0  0  0  0  0  0  0  0  0  0  0
   61.4511   28.6330   45.6999 H   0  0  0  0  0  0  0  0  0  0  0  0
   60.7740   30.9320   45.9290 H   0  0  0  0  0  0  0  0  0  0  0  0
   56.7449   32.3781   46.4174 H   0  0  0  0  0  0  0  0  0  0  0  0
   56.3998   34.1837   44.7342 H   0  0  0  0  0  0  0  0  0  0  0  0
   58.2577   35.7555   44.1875 H   0  0  0  0  0  0  0  0  0  0  0  0
   60.4598   35.5353   45.3335 H   0  0  0  0  0  0  0  0  0  0  0  0
   61.3725   34.9060   48.9709 H   0  0  0  0  0  0  0  0  0  0  0  0
   60.2068   33.5472   49.1116 H   0  0  0  0  0  0  0  0  0  0  0  0
   62.4166   33.1398   50.2894 H   0  0  0  0  0  0  0  0  0  0  0  0
   62.0086   31.9116   49.0293 H   0  0  0  0  0  0  0  0  0  0  0  0
   64.3744   33.0146   46.6899 H   0  0  0  0  0  0  0  0  0  0  0  0
   63.0593   31.8455   47.0954 H   0  0  0  0  0  0  0  0  0  0  0  0
   62.7535   34.8207   46.4411 H   0  0  0  0  0  0  0  0  0  0  0  0
   62.1993   33.4263   45.4542 H   0  0  0  0  0  0  0  0  0  0  0  0
  1  2  1  0
  2  3  2  0
  3  4  1  0
  4  5  2  0
  5  6  1  0
  6  7  1  0
  7  8  1  0
  8  9  1  0
  9 10  1  0
 10 11  2  0
 10 12  1  0
 12 13  1  0
 13 14  2  0
 14 15  1  0
 15 16  2  0
 16 17  1  0
 17 18  2  0
 18 19  1  0
 19 20  1  0
 20 21  1  0
 21 22  1  0
 22 23  1  0
 23 24  1  0
  6  2  1  0
 18 13  1  0
 24 19  1  0
  1 25  1  0
  1 26  1  0
  1 27  1  0
  4 28  1  0
  5 29  1  0
  7 30  1  0
  7 31  1  0
  8 32  1  0
  8 33  1  0
  9 34  1  0
 14 35  1  0
 15 36  1  0
 16 37  1  0
 17 38  1  0
 20 39  1  0
 20 40  1  0
 21 41  1  0
 21 42  1  0
 23 43  1  0
 23 44  1  0
 24 45  1  0
 24 46  1  0
M  CHG  1  12  -1
M  END
>  <UniqueID>  (15) 
12

>  <SMILES>  (15) 
Cc1nccn1CCNC(=O)[N-]c1ccccc1N1CCOCC1

>  <Energy>  (15) 
78.93098084728

>  <Genealogy>  (15) 
Cc1nccn1CCNC(=O)[N-]c1ccccc1N1CCOCC1 (protonated)
Cc1nccn1CCNC(=O)[N-]c1ccccc1N1CCOCC1 (3D coordinates assigned)
Cc1nccn1CCNC(=O)[N-]c1ccccc1N1CCOCC1 (nonaromatic ring conformer: 78.93098084728 kcal/mol)

>  <smiles>  (15) 
Cc1nccn1CCNC(=O)Nc1ccccc1N1CCOCC1

>  <score_type>  (15) 
oracle

>  <origin>  (15) 
adg

>  <m_score__min__energy>  (15) 
-8.2699999999999996

>  <m_primary>  (15) 
energy

$$$$
15:0
     RDKit          3D

 45 48  0  0  0  0  0  0  0  0999 V2000
   58.3423   24.5207   45.1223 H   0  0  0  0  0  0  0  0  0  0  0  0
   58.3750   25.6150   45.2290 C   0  0  0  0  0  0  0  0  0  0  0  0
   57.7750   26.4270   44.2640 C   0  0  0  0  0  0  0  0  0  0  0  0
   57.2745   25.9726   43.3962 H   0  0  0  0  0  0  0  0  0  0  0  0
   57.8110   27.8200   44.4020 C   0  0  0  0  0  0  0  0  0  0  0  0
   57.1730   28.6590   43.4210 C   0  0  0  0  0  0  0  0  0  0  0  0
   56.6600   29.3330   42.6320 N   0  0  0  0  0  0  0  0  0  0  0  0
   58.4560   28.3970   45.5030 C   0  0  0  0  0  0  0  0  0  0  0  0
   58.4756   29.4912   45.6138 H   0  0  0  0  0  0  0  0  0  0  0  0
   59.0790   27.5850   46.4680 C   0  0  0  0  0  0  0  0  0  0  0  0
   59.7450   28.1750   47.6480 C   0  0  0  0  0  0  0  0  0  0  0  0
   59.6560   27.6590   48.8980 N   0  0  0  0  0  0  0  0  0  0  0  0
   60.3320   28.4320   49.7420 N   0  0  0  0  0  0  0  0  0  0  0  0
   60.8580   29.4400   49.0250 C   0  0  0  0  0  0  0  0  0  0  0  0
   61.6420   30.4930   49.4850 C   0  0  0  0  0  0  0  0  0  0  0  0
   61.9148   30.5835   50.5468 H   0  0  0  0  0  0  0  0  0  0  0  0
   62.0720   31.4390   48.5330 C   0  0  0  0  0  0  0  0  0  0  0  0
   62.7450   32.4790   48.9280 N   0  0  0  0  0  0  0  0  0  0  0  0
   62.6400   33.8110   48.3950 C   0  0  0  0  0  0  0  0  0  0  0  0
   63.6600   34.3470   47.8900 O   0  0  0  0  0  0  0  0  0  0  0  0
   61.4160   34.5620   48.4460 N   0  0  0  0  0  0  0  0  0  0  0  0
   60.2620   34.3390   47.6240 C   0  0  0  0  0  0  0  0  0  0  0  0
   60.2270   34.9040   46.3440 C   0  0  0  0  0  0  0  0  0  0  0  0
   61.0252   35.5920   46.0286 H   0  0  0  0  0  0  0  0  0  0  0  0
   59.1850   34.6000   45.4640 C   0  0  0  0  0  0  0  0  0  0  0  0
   59.1784   35.0327   44.4527 H   0  0  0  0  0  0  0  0  0  0  0  0
   58.1470   33.7450   45.8650 C   0  0  0  0  0  0  0  0  0  0  0  0
   57.0800   33.3400   44.8870 C   0  0  0  0  0  0  0  0  0  0  0  0
   56.0977   33.3902   45.3796 H   0  0  0  0  0  0  0  0  0  0  0  0
   57.1040   34.0243   44.0261 H   0  0  0  0  0  0  0  0  0  0  0  0
   57.3220   31.9400   44.4060 C   0  0  0  0  0  0  0  0  0  0  0  0
   56.7820   30.9700   45.0010 O   0  0  0  0  0  0  0  0  0  0  0  0
   58.1440   31.7000   43.2640 N   0  0  0  0  0  0  0  0  0  0  0  0
   58.5890   32.4920   42.7490 H   0  0  0  0  0  0  0  0  0  0  0  0
   58.3060   30.7240   42.9260 H   0  0  0  0  0  0  0  0  0  0  0  0
   58.1510   33.2230   47.1680 C   0  0  0  0  0  0  0  0  0  0  0  0
   57.3291   32.5705   47.4976 H   0  0  0  0  0  0  0  0  0  0  0  0
   59.1930   33.5270   48.0500 C   0  0  0  0  0  0  0  0  0  0  0  0
   59.1550   33.0310   49.3120 F   0  0  0  0  0  0  0  0  0  0  0  0
   61.7690   31.2540   47.2040 N   0  0  0  0  0  0  0  0  0  0  0  0
   61.0090   30.2100   46.7640 C   0  0  0  0  0  0  0  0  0  0  0  0
   60.7871   30.0805   45.6944 H   0  0  0  0  0  0  0  0  0  0  0  0
   60.5240   29.3150   47.7110 C   0  0  0  0  0  0  0  0  0  0  0  0
   59.0170   26.1890   46.3300 C   0  0  0  0  0  0  0  0  0  0  0  0
   59.4764   25.5433   47.0929 H   0  0  0  0  0  0  0  0  0  0  0  0
  1  2  1  0
  2  3  2  0
  3  4  1  0
  3  5  1  0
  5  6  1  0
  6  7  3  0
  5  8  2  0
  8  9  1  0
  8 10  1  0
 10 11  1  0
 11 12  2  0
 12 13  1  0
 13 14  1  0
 14 15  2  0
 15 16  1  0
 15 17  1  0
 17 18  2  0
 18 19  1  0
 19 20  2  0
 19 21  1  0
 21 22  1  0
 22 23  2  0
 23 24  1  0
 23 25  1  0
 25 26  1  0
 25 27  2  0
 27 28  1  0
 28 29  1  0
 28 30  1  0
 28 31  1  0
 31 32  2  0
 31 33  1  0
 33 34  1  0
 33 35  1  0
 27 36  1  0
 36 37  1  0
 36 38  2  0
 38 39  1  0
 17 40  1  0
 40 41  1  0
 41 42  1  0
 41 43  2  0
 10 44  2  0
 44 45  1  0
 44  2  1  0
 43 11  1  0
 43 14  1  0
 38 22  1  0
M  CHG  3  13  -1  21  -1  40  -1
M  END
>  <UniqueID>  (16) 
13

>  <SMILES>  (16) 
N#Cc1cccc(-c2n[n-]c3c/c(=N/C(=O)[N-]c4ccc(CC(N)=O)cc4F)[n-]cc23)c1

>  <Energy>  (16) 
96.3797768235699

>  <Genealogy>  (16) 
N#Cc1cccc(-c2n[n-]c3cc(=NC(=O)[N-]c4ccc(CC(N)=O)cc4F)[n-]cc23)c1 (protonated)
N#Cc1cccc(-c2n[n-]c3c/c(=N/C(=O)[N-]c4ccc(CC(N)=O)cc4F)[n-]cc23)c1 (cis-trans isomerization)
N#Cc1cccc(-c2n[n-]c3c/c(=N/C(=O)[N-]c4ccc(CC(N)=O)cc4F)[n-]cc23)c1 (3D coordinates assigned)
N#Cc1cccc(-c2n[n-]c3c/c(=N/C(=O)[N-]c4ccc(CC(N)=O)cc4F)[n-]cc23)c1 (optimized conformer: 96.3797768235699 kcal/mol)

>  <smiles>  (16) 
N#Cc1cccc(-c2n[nH]c3cc(=NC(=O)Nc4ccc(CC(N)=O)cc4F)[nH]cc23)c1

>  <score_type>  (16) 
oracle

>  <origin>  (16) 
adg

>  <m_score__min__energy>  (16) 
-12.130000000000001

>  <m_primary>  (16) 
energy

$$$$
16:0
     RDKit          3D

 35 37  0  0  0  0  0  0  0  0999 V2000
   59.1778   35.2389   46.1502 H   0  0  0  0  0  0  0  0  0  0  0  0
   58.7550   34.2560   45.8950 C   0  0  0  0  0  0  0  0  0  0  0  0
   57.2300   33.9800   45.2440 S   0  0  0  0  0  0  0  0  0  0  0  0
   57.4340   32.3070   45.2070 C   0  0  0  0  0  0  0  0  0  0  0  0
   56.5860   31.4350   44.7450 N   0  0  0  0  0  0  0  0  0  0  0  0
   56.6720   30.0090   44.8730 C   0  0  0  0  0  0  0  0  0  0  0  0
   55.6520   29.3170   44.6140 O   0  0  0  0  0  0  0  0  0  0  0  0
   57.9180   29.3640   45.1800 N   0  0  0  0  0  0  0  0  0  0  0  0
   58.7870   29.8720   44.9110 H   0  0  0  0  0  0  0  0  0  0  0  0
   58.0080   28.0280   45.7120 C   0  0  0  0  0  0  0  0  0  0  0  0
   56.9070   27.1550   45.6120 C   0  0  0  0  0  0  0  0  0  0  0  0
   55.9690   27.5114   45.1613 H   0  0  0  0  0  0  0  0  0  0  0  0
   56.9940   25.8420   46.0790 C   0  0  0  0  0  0  0  0  0  0  0  0
   56.1273   25.1700   45.9935 H   0  0  0  0  0  0  0  0  0  0  0  0
   58.1770   25.3820   46.6530 C   0  0  0  0  0  0  0  0  0  0  0  0
   58.2482   24.3428   47.0066 H   0  0  0  0  0  0  0  0  0  0  0  0
   59.2720   26.2380   46.7800 C   0  0  0  0  0  0  0  0  0  0  0  0
   60.2032   25.8679   47.2338 H   0  0  0  0  0  0  0  0  0  0  0  0
   59.1960   27.5670   46.3340 C   0  0  0  0  0  0  0  0  0  0  0  0
   60.3340   28.4240   46.5000 N   0  0  0  0  0  0  0  0  0  0  0  0
   60.7660   28.6650   47.6460 O   0  0  0  0  0  0  0  0  0  0  0  0
   60.7650   29.2030   45.4520 O   0  0  0  0  0  0  0  0  0  0  0  0
   58.6510   31.9490   45.6630 N   0  0  0  0  0  0  0  0  0  0  0  0
   59.3950   33.0220   46.0570 C   0  0  0  0  0  0  0  0  0  0  0  0
   60.7700   32.8530   46.5940 C   0  0  0  0  0  0  0  0  0  0  0  0
   61.1410   31.7080   47.3290 C   0  0  0  0  0  0  0  0  0  0  0  0
   60.4009   30.9161   47.5164 H   0  0  0  0  0  0  0  0  0  0  0  0
   62.4420   31.5720   47.8210 C   0  0  0  0  0  0  0  0  0  0  0  0
   62.7198   30.6760   48.3955 H   0  0  0  0  0  0  0  0  0  0  0  0
   63.3900   32.5690   47.5860 C   0  0  0  0  0  0  0  0  0  0  0  0
   64.4124   32.4594   47.9768 H   0  0  0  0  0  0  0  0  0  0  0  0
   63.0400   33.7050   46.8550 C   0  0  0  0  0  0  0  0  0  0  0  0
   63.7877   34.4900   46.6686 H   0  0  0  0  0  0  0  0  0  0  0  0
   61.7400   33.8470   46.3590 C   0  0  0  0  0  0  0  0  0  0  0  0
   61.4726   34.7432   45.7800 H   0  0  0  0  0  0  0  0  0  0  0  0
  1  2  1  0
  2  3  1  0
  3  4  1  0
  4  5  2  0
  5  6  1  0
  6  7  2  0
  6  8  1  0
  8  9  1  0
  8 10  1  0
 10 11  2  0
 11 12  1  0
 11 13  1  0
 13 14  1  0
 13 15  2  0
 15 16  1  0
 15 17  1  0
 17 18  1  0
 17 19  2  0
 19 20  1  0
 20 21  2  0
 20 22  1  0
  4 23  1  0
 23 24  1  0
 24 25  1  0
 25 26  2  0
 26 27  1  0
 26 28  1  0
 28 29  1  0
 28 30  2  0
 30 31  1  0
 30 32  1  0
 32 33  1  0
 32 34  2  0
 34 35  1  0
 24  2  2  0
 34 25  1  0
 19 10  1  0
M  CHG  3  20   1  22  -1  23  -1
M  END
>  <UniqueID>  (17) 
14

>  <SMILES>  (17) 
O=C(/N=c1/[n-]c(-c2ccccc2)cs1)Nc1ccccc1[N+](=O)[O-]

>  <Energy>  (17) 
85.72376745367139

>  <Genealogy>  (17) 
O=C(N=c1[n-]c(-c2ccccc2)cs1)Nc1ccccc1[N+](=O)[O-] (protonated)
O=C(/N=c1/[n-]c(-c2ccccc2)cs1)Nc1ccccc1[N+](=O)[O-] (cis-trans isomerization)
O=C(/N=c1/[n-]c(-c2ccccc2)cs1)Nc1ccccc1[N+](=O)[O-] (3D coordinates assigned)
O=C(/N=c1/[n-]c(-c2ccccc2)cs1)Nc1ccccc1[N+](=O)[O-] (optimized conformer: 85.72376745367139 kcal/mol)

>  <smiles>  (17) 
O=C(N=c1[nH]c(-c2ccccc2)cs1)Nc1ccccc1[N+](=O)[O-]

>  <score_type>  (17) 
oracle

>  <origin>  (17) 
adg

>  <m_score__min__energy>  (17) 
-10.369999999999999

>  <m_primary>  (17) 
energy

$$$$
17:0
     RDKit          3D

 63 66  0  0  1  0  0  0  0  0999 V2000
   60.1000   26.8340   48.7260 N   0  0  0  0  0  0  0  0  0  0  0  0
   58.7900   30.4790   46.0480 C   0  0  0  0  0  0  0  0  0  0  0  0
   60.0780   30.4380   45.9520 N   0  0  0  0  0  0  0  0  0  0  0  0
   58.0830   28.2810   46.2190 C   0  0  0  0  0  0  0  0  0  0  0  0
   57.2390   27.2440   45.9650 N   0  0  0  0  0  0  0  0  0  0  0  0
   57.3500   26.0710   46.6340 C   0  0  0  0  0  0  0  0  0  0  0  0
   56.3960   24.9510   46.3250 C   0  0  0  0  0  0  0  0  0  0  0  0
   56.7700   24.2340   45.2270 F   0  0  0  0  0  0  0  0  0  0  0  0
   56.2040   24.2090   47.4610 F   0  0  0  0  0  0  0  0  0  0  0  0
   55.1880   25.5770   46.0000 F   0  0  0  0  0  0  0  0  0  0  0  0
   58.3340   25.9270   47.5850 C   0  0  0  0  0  0  0  0  0  0  0  0
   59.1860   26.9810   47.8370 C   0  0  0  0  0  0  0  0  0  0  0  0
   57.9560   29.4040   45.5620 N   0  0  0  0  0  0  0  0  0  0  0  0
   60.5380   27.9800   49.4520 C   0  0  0  0  0  0  0  0  0  0  0  0
   60.4760   27.8970   50.8310 C   0  0  0  0  0  0  0  0  0  0  0  0
   60.8680   28.9340   51.6510 C   0  0  0  0  0  0  0  0  0  0  0  0
   61.3390   30.0870   51.0290 C   0  0  0  0  0  0  0  0  0  0  0  0
   61.4000   30.1650   49.6480 C   0  0  0  0  0  0  0  0  0  0  0  0
   61.9010   31.3950   49.0430 C   0  0  0  0  0  0  0  0  0  0  0  0
   62.5280   31.3560   47.8120 C   0  0  0  0  0  0  0  0  0  0  0  0
   62.9890   32.5610   47.2750 C   0  0  0  0  0  0  0  0  0  0  0  0
   62.8150   33.7590   47.9750 C   0  0  0  0  0  0  0  0  0  0  0  0
   62.1940   33.7790   49.1930 C   0  0  0  0  0  0  0  0  0  0  0  0
   61.7330   32.5900   49.7330 C   0  0  0  0  0  0  0  0  0  0  0  0
   61.0050   29.1240   48.8360 C   0  0  0  0  0  0  0  0  0  0  0  0
   59.0550   28.1450   47.1540 N   0  0  0  0  0  0  0  0  0  0  0  0
   58.2010   31.6390   46.6720 N   0  0  0  0  0  0  0  0  0  0  0  0
   58.6460   32.9520   46.3750 C   0  0  0  0  0  0  0  0  0  0  0  0
   59.1470   33.7620   47.4030 C   0  0  0  0  0  0  0  0  0  0  0  0
   59.6350   35.0260   47.1880 C   0  0  0  0  0  0  0  0  0  0  0  0
   59.6460   35.5380   45.9350 C   0  0  0  0  0  0  0  0  0  0  0  0
   59.1510   34.7500   44.8930 C   0  0  0  0  0  0  0  0  0  0  0  0
   58.6570   33.4810   45.0870 C   0  0  0  0  0  0  0  0  0  0  0  0
   58.1110   32.7210   43.9410 C   0  0  0  0  0  0  0  0  0  0  0  0
   58.3960   33.0150   42.7520 O   0  0  0  0  0  0  0  0  0  0  0  0
   57.2420   31.6250   44.1140 N   0  0  0  0  0  0  0  0  0  0  0  0
   56.6580   30.8000   43.1120 C   0  0  0  0  0  0  0  0  0  0  0  0
   55.7960   29.7180   43.6390 C   0  0  0  0  0  0  0  0  0  0  0  0
   55.4100   29.9340   44.9400 O   0  0  0  0  0  0  0  0  0  0  0  0
   60.6400   31.3100   45.9910 H   0  0  0  0  0  0  0  0  0  0  0  0
   56.4740   27.3140   45.2480 H   0  0  0  0  0  0  0  0  0  0  0  0
   58.4395   24.9818   48.1377 H   0  0  0  0  0  0  0  0  0  0  0  0
   60.1006   26.9706   51.2902 H   0  0  0  0  0  0  0  0  0  0  0  0
   60.8111   28.8539   52.7466 H   0  0  0  0  0  0  0  0  0  0  0  0
   61.6650   30.9422   51.6391 H   0  0  0  0  0  0  0  0  0  0  0  0
   62.6600   30.4067   47.2721 H   0  0  0  0  0  0  0  0  0  0  0  0
   63.4914   32.5672   46.2965 H   0  0  0  0  0  0  0  0  0  0  0  0
   63.1833   34.6995   47.5392 H   0  0  0  0  0  0  0  0  0  0  0  0
   62.0624   34.7263   49.7364 H   0  0  0  0  0  0  0  0  0  0  0  0
   61.2317   32.5912   50.7121 H   0  0  0  0  0  0  0  0  0  0  0  0
   61.0596   29.2014   47.7401 H   0  0  0  0  0  0  0  0  0  0  0  0
   59.6860   28.9590   47.3260 H   0  0  0  0  0  0  0  0  0  0  0  0
   57.4250   31.3960   47.3250 H   0  0  0  0  0  0  0  0  0  0  0  0
   59.1491   33.3662   48.4293 H   0  0  0  0  0  0  0  0  0  0  0  0
   60.0160   35.6213   48.0309 H   0  0  0  0  0  0  0  0  0  0  0  0
   60.0348   36.5488   45.7421 H   0  0  0  0  0  0  0  0  0  0  0  0
   59.1565   35.1622   43.8732 H   0  0  0  0  0  0  0  0  0  0  0  0
   56.9930   31.3880   45.1190 H   0  0  0  0  0  0  0  0  0  0  0  0
   56.0481   31.4366   42.4542 H   0  0  0  0  0  0  0  0  0  0  0  0
   57.4893   30.3107   42.5833 H   0  0  0  0  0  0  0  0  0  0  0  0
   54.8952   29.6485   43.0115 H   0  0  0  0  0  0  0  0  0  0  0  0
   56.3805   28.7864   43.6160 H   0  0  0  0  0  0  0  0  0  0  0  0
   56.1400   30.0880   45.5640 H   0  0  0  0  0  0  0  0  0  0  0  0
  1  2  2  0
  2  3  1  0
  3  4  2  0
  4  5  1  0
  5  6  1  0
  6  7  1  0
  7  8  1  0
  7  9  1  0
  7 10  1  0
  6 11  2  0
 11 12  1  0
 12 13  2  0
 13 14  1  0
 14 15  2  0
 15 16  1  0
 16 17  2  0
 17 18  1  0
 18 19  1  0
 19 20  2  0
 20 21  1  0
 21 22  2  0
 22 23  1  0
 23 24  2  0
 18 25  2  0
 12 26  1  0
  2 27  1  0
 27 28  1  0
 28 29  2  0
 29 30  1  0
 30 31  2  0
 31 32  1  0
 32 33  2  0
 33 34  1  0
 34 35  2  0
 34 36  1  0
 36 37  1  0
 37 38  1  0
 38 39  1  0
 26  4  1  0
 33 28  1  0
 25 14  1  0
 24 19  1  0
  1 40  1  0
  5 41  1  0
 11 42  1  0
 15 43  1  0
 16 44  1  0
 17 45  1  0
 20 46  1  0
 21 47  1  0
 22 48  1  0
 23 49  1  0
 24 50  1  0
 25 51  1  0
 26 52  1  0
 27 53  1  0
 29 54  1  0
 30 55  1  0
 31 56  1  0
 32 57  1  0
 36 58  1  0
 37 59  1  0
 37 60  1  0
 38 61  1  0
 38 62  1  0
 39 63  1  0
M  END
>  <smiles>  (18) 
N=C(N=c1[nH]c(C(F)(F)F)cc(=Nc2cccc(-c3ccccc3)c2)[nH]1)Nc1ccccc1C(=O)NCCO

>  <score_type>  (18) 
oracle

>  <origin>  (18) 
adg

>  <m_score__min__energy>  (18) 
-9.5600000000000005

>  <m_primary>  (18) 
energy

$$$$
18:0
     RDKit          3D

 42 44  0  0  0  0  0  0  0  0999 V2000
   57.9910   31.9380   44.4510 C   0  0  0  0  0  0  0  0  0  0  0  0
   58.1970   30.7280   45.3140 C   0  0  0  0  0  0  0  0  0  0  0  0
   57.3710   29.6230   45.3860 C   0  0  0  0  0  0  0  0  0  0  0  0
   55.8790   29.3550   44.4950 Cl  0  0  0  0  0  0  0  0  0  0  0  0
   57.9860   28.7850   46.3060 C   0  0  0  0  0  0  0  0  0  0  0  0
   57.5320   27.4590   46.7580 C   0  0  0  0  0  0  0  0  0  0  0  0
   58.2230   26.8280   47.6010 O   0  0  0  0  0  0  0  0  0  0  0  0
   56.3470   26.8720   46.2030 N   0  0  0  0  0  0  0  0  0  0  0  0
   56.2690   25.6710   45.4230 C   0  0  0  0  0  0  0  0  0  0  0  0
   57.2760   25.3060   44.5110 C   0  0  0  0  0  0  0  0  0  0  0  0
   57.1710   24.1140   43.7880 C   0  0  0  0  0  0  0  0  0  0  0  0
   56.0770   23.2620   43.9710 C   0  0  0  0  0  0  0  0  0  0  0  0
   56.0220   22.0790   43.2160 O   0  0  0  0  0  0  0  0  0  0  0  0
   56.7530   20.8880   43.4970 C   0  0  0  0  0  0  0  0  0  0  0  0
   57.8070   20.7540   42.6100 F   0  0  0  0  0  0  0  0  0  0  0  0
   55.9210   19.7860   43.4090 F   0  0  0  0  0  0  0  0  0  0  0  0
   57.2580   20.9640   44.7800 F   0  0  0  0  0  0  0  0  0  0  0  0
   55.0800   23.6180   44.9010 C   0  0  0  0  0  0  0  0  0  0  0  0
   55.1850   24.8090   45.6240 C   0  0  0  0  0  0  0  0  0  0  0  0
   59.1140   29.3680   46.7590 N   0  0  0  0  0  0  0  0  0  0  0  0
   59.2280   30.5500   46.1700 N   0  0  0  0  0  0  0  0  0  0  0  0
   60.3660   31.4470   46.3810 C   0  0  0  0  0  0  0  0  0  0  0  0
   60.1510   32.2940   47.6110 C   0  0  0  0  0  0  0  0  0  0  0  0
   60.1670   31.6890   48.8810 C   0  0  0  0  0  0  0  0  0  0  0  0
   59.9410   32.4490   50.0310 C   0  0  0  0  0  0  0  0  0  0  0  0
   59.9620   31.8570   51.2500 F   0  0  0  0  0  0  0  0  0  0  0  0
   59.6900   33.8180   49.9260 C   0  0  0  0  0  0  0  0  0  0  0  0
   59.6590   34.4300   48.6700 C   0  0  0  0  0  0  0  0  0  0  0  0
   59.8830   33.6770   47.5120 C   0  0  0  0  0  0  0  0  0  0  0  0
   59.8110   34.4960   45.9540 Cl  0  0  0  0  0  0  0  0  0  0  0  0
   57.8405   32.8217   45.0885 H   0  0  0  0  0  0  0  0  0  0  0  0
   58.8761   32.0904   43.8159 H   0  0  0  0  0  0  0  0  0  0  0  0
   57.1053   31.7889   43.8159 H   0  0  0  0  0  0  0  0  0  0  0  0
   58.1484   25.9602   44.3663 H   0  0  0  0  0  0  0  0  0  0  0  0
   57.9570   23.8434   43.0677 H   0  0  0  0  0  0  0  0  0  0  0  0
   54.2159   22.9558   45.0584 H   0  0  0  0  0  0  0  0  0  0  0  0
   54.4087   25.0715   46.3578 H   0  0  0  0  0  0  0  0  0  0  0  0
   61.2798   30.8483   46.5091 H   0  0  0  0  0  0  0  0  0  0  0  0
   60.4646   32.1078   45.5071 H   0  0  0  0  0  0  0  0  0  0  0  0
   60.3589   30.6095   48.9691 H   0  0  0  0  0  0  0  0  0  0  0  0
   59.5164   34.4159   50.8329 H   0  0  0  0  0  0  0  0  0  0  0  0
   59.4576   35.5085   48.5913 H   0  0  0  0  0  0  0  0  0  0  0  0
  1  2  1  0
  2  3  2  0
  3  4  1  0
  3  5  1  0
  5  6  1  0
  6  7  2  0
  6  8  1  0
  8  9  1  0
  9 10  2  0
 10 11  1  0
 11 12  2  0
 12 13  1  0
 13 14  1  0
 14 15  1  0
 14 16  1  0
 14 17  1  0
 12 18  1  0
 18 19  2  0
  5 20  2  0
 20 21  1  0
 21 22  1  0
 22 23  1  0
 23 24  2  0
 24 25  1  0
 25 26  1  0
 25 27  2  0
 27 28  1  0
 28 29  2  0
 29 30  1  0
 21  2  1  0
 29 23  1  0
 19  9  1  0
  1 31  1  0
  1 32  1  0
  1 33  1  0
 10 34  1  0
 11 35  1  0
 18 36  1  0
 19 37  1  0
 22 38  1  0
 22 39  1  0
 24 40  1  0
 27 41  1  0
 28 42  1  0
M  CHG  1   8  -1
M  END
>  <UniqueID>  (19) 
15

>  <SMILES>  (19) 
Cc1c(Cl)c(C(=O)[N-]c2ccc(OC(F)(F)F)cc2)nn1Cc1cc(F)ccc1Cl

>  <Energy>  (19) 
78.53248527371872

>  <Genealogy>  (19) 
Cc1c(Cl)c(C(=O)[N-]c2ccc(OC(F)(F)F)cc2)nn1Cc1cc(F)ccc1Cl (protonated)
Cc1c(Cl)c(C(=O)[N-]c2ccc(OC(F)(F)F)cc2)nn1Cc1cc(F)ccc1Cl (3D coordinates assigned)
Cc1c(Cl)c(C(=O)[N-]c2ccc(OC(F)(F)F)cc2)nn1Cc1cc(F)ccc1Cl (optimized conformer: 78.53248527371872 kcal/mol)

>  <smiles>  (19) 
Cc1c(Cl)c(C(=O)Nc2ccc(OC(F)(F)F)cc2)nn1Cc1cc(F)ccc1Cl

>  <score_type>  (19) 
oracle

>  <origin>  (19) 
adg

>  <m_score__min__energy>  (19) 
-10.06

>  <m_primary>  (19) 
energy

$$$$
19:0
     RDKit          3D

 40 41  0  0  0  0  0  0  0  0999 V2000
   59.0180   22.2020   44.4920 C   0  0  0  0  0  0  0  0  0  0  0  0
   57.5810   22.0660   44.1960 N   0  0  0  0  0  0  0  0  0  0  0  0
   57.4020   21.1650   43.0460 C   0  0  0  0  0  0  0  0  0  0  0  0
   56.9750   23.3810   43.9090 C   0  0  0  0  0  0  0  0  0  0  0  0
   55.5540   23.4280   44.4120 C   0  0  0  0  0  0  0  0  0  0  0  0
   55.0960   24.1560   45.4420 C   0  0  0  0  0  0  0  0  0  0  0  0
   55.7040   25.3810   45.9960 C   0  0  0  0  0  0  0  0  0  0  0  0
   55.0770   26.4740   46.0080 O   0  0  0  0  0  0  0  0  0  0  0  0
   57.0740   25.3330   46.4150 N   0  0  0  0  0  0  0  0  0  0  0  0
   58.0630   26.3550   46.2170 C   0  0  0  0  0  0  0  0  0  0  0  0
   59.4150   26.0110   46.3290 C   0  0  0  0  0  0  0  0  0  0  0  0
   60.4080   26.9770   46.1510 C   0  0  0  0  0  0  0  0  0  0  0  0
   60.0570   28.3020   45.8840 C   0  0  0  0  0  0  0  0  0  0  0  0
   58.7070   28.6740   45.8180 C   0  0  0  0  0  0  0  0  0  0  0  0
   58.3550   30.0360   45.5290 N   0  0  0  0  0  0  0  0  0  0  0  0
   59.0500   31.0630   45.9930 N   0  0  0  0  0  0  0  0  0  0  0  0
   58.5070   32.1910   45.4950 C   0  0  0  0  0  0  0  0  0  0  0  0
   57.4320   31.8730   44.6910 C   0  0  0  0  0  0  0  0  0  0  0  0
   57.3540   30.4950   44.7390 C   0  0  0  0  0  0  0  0  0  0  0  0
   56.2810   29.6910   44.1190 C   0  0  0  0  0  0  0  0  0  0  0  0
   55.1290   29.3380   44.8800 N   0  0  0  0  0  0  0  0  0  0  0  0
   56.3860   29.2840   42.9320 O   0  0  0  0  0  0  0  0  0  0  0  0
   57.7110   27.6950   45.9710 C   0  0  0  0  0  0  0  0  0  0  0  0
   59.1682   22.2162   45.5816 H   0  0  0  0  0  0  0  0  0  0  0  0
   59.5639   21.3515   44.0577 H   0  0  0  0  0  0  0  0  0  0  0  0
   59.3947   23.1398   44.0577 H   0  0  0  0  0  0  0  0  0  0  0  0
   57.1995   20.1458   43.4068 H   0  0  0  0  0  0  0  0  0  0  0  0
   56.5554   21.5129   42.4359 H   0  0  0  0  0  0  0  0  0  0  0  0
   58.3173   21.1629   42.4359 H   0  0  0  0  0  0  0  0  0  0  0  0
   57.5618   24.1667   44.4074 H   0  0  0  0  0  0  0  0  0  0  0  0
   56.9731   23.5423   42.8209 H   0  0  0  0  0  0  0  0  0  0  0  0
   54.8200   22.8034   43.8818 H   0  0  0  0  0  0  0  0  0  0  0  0
   54.1718   23.8031   45.9230 H   0  0  0  0  0  0  0  0  0  0  0  0
   59.6974   24.9730   46.5587 H   0  0  0  0  0  0  0  0  0  0  0  0
   61.4685   26.6935   46.2213 H   0  0  0  0  0  0  0  0  0  0  0  0
   60.8420   29.0559   45.7250 H   0  0  0  0  0  0  0  0  0  0  0  0
   58.8662   33.2106   45.6986 H   0  0  0  0  0  0  0  0  0  0  0  0
   56.7812   32.5639   44.1350 H   0  0  0  0  0  0  0  0  0  0  0  0
   55.1780   28.5960   45.6130 H   0  0  0  0  0  0  0  0  0  0  0  0
   56.6504   27.9775   45.8981 H   0  0  0  0  0  0  0  0  0  0  0  0
  1  2  1  0
  2  3  1  0
  2  4  1  0
  4  5  1  0
  5  6  2  3
  6  7  1  0
  7  8  2  0
  7  9  1  0
  9 10  1  0
 10 11  2  0
 11 12  1  0
 12 13  2  0
 13 14  1  0
 14 15  1  0
 15 16  1  0
 16 17  2  0
 17 18  1  0
 18 19  2  0
 19 20  1  0
 20 21  1  0
 20 22  2  0
 14 23  2  0
 23 10  1  0
 19 15  1  0
  1 24  1  0
  1 25  1  0
  1 26  1  0
  3 27  1  0
  3 28  1  0
  3 29  1  0
  4 30  1  0
  4 31  1  0
  5 32  1  0
  6 33  1  0
 11 34  1  0
 12 35  1  0
 13 36  1  0
 17 37  1  0
 18 38  1  0
 21 39  1  0
 23 40  1  0
M  CHG  2   9  -1  21  -1
M  END
>  <UniqueID>  (20) 
16

>  <SMILES>  (20) 
CN(C)CC=CC(=O)[N-]c1cccc(-n2nccc2C([NH-])=O)c1

>  <Energy>  (20) 
82.62137684759806

>  <Genealogy>  (20) 
CN(C)CC=CC(=O)[N-]c1cccc(-n2nccc2C([NH-])=O)c1 (protonated)
CN(C)CC=CC(=O)[N-]c1cccc(-n2nccc2C([NH-])=O)c1 (3D coordinates assigned)
CN(C)CC=CC(=O)[N-]c1cccc(-n2nccc2C([NH-])=O)c1 (optimized conformer: 82.62137684759806 kcal/mol)

>  <smiles>  (20) 
CN(C)CC=CC(=O)Nc1cccc(-n2nccc2C(N)=O)c1

>  <score_type>  (20) 
oracle

>  <origin>  (20) 
adg

>  <m_score__min__energy>  (20) 
-12.24

>  <m_primary>  (20) 
energy

$$$$
20:0
     RDKit          3D

 34 36  0  0  0  0  0  0  0  0999 V2000
   59.7450   33.9260   49.8200 C   0  0  0  0  0  0  0  0  0  0  0  0
   60.8280   33.8160   48.7810 C   0  0  0  0  0  0  0  0  0  0  0  0
   62.1510   33.5590   49.1800 C   0  0  0  0  0  0  0  0  0  0  0  0
   63.1680   33.4450   48.2280 C   0  0  0  0  0  0  0  0  0  0  0  0
   62.8750   33.5860   46.8710 C   0  0  0  0  0  0  0  0  0  0  0  0
   61.5660   33.8440   46.4620 C   0  0  0  0  0  0  0  0  0  0  0  0
   60.5390   33.9690   47.4070 C   0  0  0  0  0  0  0  0  0  0  0  0
   58.8690   34.3090   46.8290 S   0  0  0  0  0  0  0  0  0  0  0  0
   59.2170   33.7740   45.1220 C   0  0  0  0  0  0  0  0  0  0  0  0
   58.5160   32.4760   44.8570 C   0  0  0  0  0  0  0  0  0  0  0  0
   57.8000   32.2930   43.6500 C   0  0  0  0  0  0  0  0  0  0  0  0
   57.1240   31.0840   43.4420 C   0  0  0  0  0  0  0  0  0  0  0  0
   56.4770   30.8780   42.3800 O   0  0  0  0  0  0  0  0  0  0  0  0
   57.1820   30.1430   44.4160 N   0  0  0  0  0  0  0  0  0  0  0  0
   56.6130   28.9490   44.4150 N   0  0  0  0  0  0  0  0  0  0  0  0
   56.9400   28.3720   45.5970 C   0  0  0  0  0  0  0  0  0  0  0  0
   56.5010   27.0300   45.9900 C   0  0  0  0  0  0  0  0  0  0  0  0
   57.3440   26.1530   46.3190 O   0  0  0  0  0  0  0  0  0  0  0  0
   55.1470   26.7170   46.0010 O   0  0  0  0  0  0  0  0  0  0  0  0
   57.7340   29.2260   46.3620 C   0  0  0  0  0  0  0  0  0  0  0  0
   57.8530   30.3340   45.5570 C   0  0  0  0  0  0  0  0  0  0  0  0
   58.5220   31.4880   45.8060 N   0  0  0  0  0  0  0  0  0  0  0  0
   60.1935   33.8804   50.8234 H   0  0  0  0  0  0  0  0  0  0  0  0
   59.2157   34.8825   49.6981 H   0  0  0  0  0  0  0  0  0  0  0  0
   59.0342   33.0954   49.6981 H   0  0  0  0  0  0  0  0  0  0  0  0
   62.3875   33.4469   50.2484 H   0  0  0  0  0  0  0  0  0  0  0  0
   64.2007   33.2439   48.5489 H   0  0  0  0  0  0  0  0  0  0  0  0
   63.6764   33.4937   46.1232 H   0  0  0  0  0  0  0  0  0  0  0  0
   61.3389   33.9499   45.3909 H   0  0  0  0  0  0  0  0  0  0  0  0
   58.8560   34.5372   44.4169 H   0  0  0  0  0  0  0  0  0  0  0  0
   60.3011   33.6407   44.9914 H   0  0  0  0  0  0  0  0  0  0  0  0
   57.7748   33.0864   42.8885 H   0  0  0  0  0  0  0  0  0  0  0  0
   58.1596   29.0553   47.3619 H   0  0  0  0  0  0  0  0  0  0  0  0
   59.0300   31.6150   46.7110 H   0  0  0  0  0  0  0  0  0  0  0  0
  1  2  1  0
  2  3  2  0
  3  4  1  0
  4  5  2  0
  5  6  1  0
  6  7  2  0
  7  8  1  0
  8  9  1  0
  9 10  1  0
 10 11  2  0
 11 12  1  0
 12 13  2  0
 12 14  1  0
 14 15  1  0
 15 16  2  0
 16 17  1  0
 17 18  2  0
 17 19  1  0
 16 20  1  0
 20 21  2  0
 21 22  1  0
  7  2  1  0
 22 10  1  0
 21 14  1  0
  1 23  1  0
  1 24  1  0
  1 25  1  0
  3 26  1  0
  4 27  1  0
  5 28  1  0
  6 29  1  0
  9 30  1  0
  9 31  1  0
 11 32  1  0
 20 33  1  0
 22 34  1  0
M  CHG  1  19  -1
M  END
>  <UniqueID>  (21) 
17

>  <SMILES>  (21) 
Cc1ccccc1SCc1cc(=O)n2nc(C(=O)[O-])cc2[nH]1

>  <Energy>  (21) 
67.51005610268754

>  <Genealogy>  (21) 
Cc1ccccc1SCc1cc(=O)n2nc(C(=O)[O-])cc2[nH]1 (protonated)
Cc1ccccc1SCc1cc(=O)n2nc(C(=O)[O-])cc2[nH]1 (3D coordinates assigned)
Cc1ccccc1SCc1cc(=O)n2nc(C(=O)[O-])cc2[nH]1 (optimized conformer: 67.51005610268754 kcal/mol)

>  <smiles>  (21) 
Cc1ccccc1SCc1cc(=O)n2nc(C(=O)O)cc2[nH]1

>  <score_type>  (21) 
oracle

>  <origin>  (21) 
adg

>  <m_score__min__energy>  (21) 
-10.16

>  <m_primary>  (21) 
energy

$$$$
21:0
     RDKit          3D

 32 33  0  0  0  0  0  0  0  0999 V2000
   55.9130   29.8140   44.0950 C   0  0  0  0  0  0  0  0  0  0  0  0
   56.7050   30.4720   45.1230 N   0  0  0  0  0  0  0  0  0  0  0  0
   57.9680   31.0880   44.8570 C   0  0  0  0  0  0  0  0  0  0  0  0
   58.7270   30.6070   43.9730 O   0  0  0  0  0  0  0  0  0  0  0  0
   58.3910   32.2890   45.6100 C   0  0  0  0  0  0  0  0  0  0  0  0
   57.5880   33.4390   45.7230 C   0  0  0  0  0  0  0  0  0  0  0  0
   58.1620   34.4570   46.4720 C   0  0  0  0  0  0  0  0  0  0  0  0
   59.6720   33.9440   47.0010 S   0  0  0  0  0  0  0  0  0  0  0  0
   59.6070   32.4210   46.2820 C   0  0  0  0  0  0  0  0  0  0  0  0
   60.6250   31.4130   46.3420 N   0  0  0  0  0  0  0  0  0  0  0  0
   60.6100   30.2240   47.1420 C   0  0  0  0  0  0  0  0  0  0  0  0
   61.4020   30.1010   48.1160 O   0  0  0  0  0  0  0  0  0  0  0  0
   59.6610   29.1320   46.8230 C   0  0  0  0  0  0  0  0  0  0  0  0
   58.6500   28.7730   47.7350 C   0  0  0  0  0  0  0  0  0  0  0  0
   57.7550   27.7420   47.4330 C   0  0  0  0  0  0  0  0  0  0  0  0
   57.8560   27.0510   46.2200 C   0  0  0  0  0  0  0  0  0  0  0  0
   56.7210   25.7630   45.8330 S   0  0  0  0  0  0  0  0  0  0  0  0
   55.0980   26.3410   45.9860 N   0  0  0  0  0  0  0  0  0  0  0  0
   56.9320   24.6110   46.7720 O   0  0  0  0  0  0  0  0  0  0  0  0
   56.9350   25.3000   44.4180 O   0  0  0  0  0  0  0  0  0  0  0  0
   58.8540   27.4060   45.3040 C   0  0  0  0  0  0  0  0  0  0  0  0
   59.7510   28.4370   45.6030 C   0  0  0  0  0  0  0  0  0  0  0  0
   55.1498   29.1799   44.5699 H   0  0  0  0  0  0  0  0  0  0  0  0
   55.4213   30.5731   43.4690 H   0  0  0  0  0  0  0  0  0  0  0  0
   56.5692   29.1915   43.4690 H   0  0  0  0  0  0  0  0  0  0  0  0
   56.5942   33.5237   45.2592 H   0  0  0  0  0  0  0  0  0  0  0  0
   57.7052   35.4350   46.6836 H   0  0  0  0  0  0  0  0  0  0  0  0
   58.5636   29.3077   48.6924 H   0  0  0  0  0  0  0  0  0  0  0  0
   56.9676   27.4726   48.1523 H   0  0  0  0  0  0  0  0  0  0  0  0
   55.1470   27.3840   46.0060 H   0  0  0  0  0  0  0  0  0  0  0  0
   58.9329   26.8720   44.3455 H   0  0  0  0  0  0  0  0  0  0  0  0
   60.5333   28.7066   44.8782 H   0  0  0  0  0  0  0  0  0  0  0  0
  1  2  1  0
  2  3  1  0
  3  4  2  0
  3  5  1  0
  5  6  1  0
  6  7  2  0
  7  8  1  0
  8  9  1  0
  9 10  1  0
 10 11  1  0
 11 12  2  0
 11 13  1  0
 13 14  2  0
 14 15  1  0
 15 16  2  0
 16 17  1  0
 17 18  1  0
 17 19  2  0
 17 20  2  0
 16 21  1  0
 21 22  2  0
  9  5  2  0
 22 13  1  0
  1 23  1  0
  1 24  1  0
  1 25  1  0
  6 26  1  0
  7 27  1  0
 14 28  1  0
 15 29  1  0
 18 30  1  0
 21 31  1  0
 22 32  1  0
M  CHG  3   2  -1  10  -1  18  -1
M  END
>  <UniqueID>  (22) 
18

>  <SMILES>  (22) 
C[N-]C(=O)c1ccsc1[N-]C(=O)c1ccc(S([NH-])(=O)=O)cc1

>  <Energy>  (22) 
58.12459035732635

>  <Genealogy>  (22) 
C[N-]C(=O)c1ccsc1[N-]C(=O)c1ccc(S([NH-])(=O)=O)cc1 (protonated)
C[N-]C(=O)c1ccsc1[N-]C(=O)c1ccc(S([NH-])(=O)=O)cc1 (3D coordinates assigned)
C[N-]C(=O)c1ccsc1[N-]C(=O)c1ccc(S([NH-])(=O)=O)cc1 (optimized conformer: 58.12459035732635 kcal/mol)

>  <smiles>  (22) 
CNC(=O)c1ccsc1NC(=O)c1ccc(S(N)(=O)=O)cc1

>  <score_type>  (22) 
oracle

>  <origin>  (22) 
adg

>  <m_score__min__energy>  (22) 
-12.029999999999999

>  <m_primary>  (22) 
energy

$$$$
22:0
     RDKit          3D

 36 38  0  0  0  0  0  0  0  0999 V2000
   63.5310   33.2310   47.0890 C   0  0  0  0  0  0  0  0  0  0  0  0
   62.7220   32.1490   47.5360 O   0  0  0  0  0  0  0  0  0  0  0  0
   61.4270   31.8770   47.0690 C   0  0  0  0  0  0  0  0  0  0  0  0
   60.3920   32.8200   47.1300 C   0  0  0  0  0  0  0  0  0  0  0  0
   59.1270   32.5040   46.6380 C   0  0  0  0  0  0  0  0  0  0  0  0
   58.8530   31.2450   46.0700 C   0  0  0  0  0  0  0  0  0  0  0  0
   59.8920   30.2670   46.0450 C   0  0  0  0  0  0  0  0  0  0  0  0
   61.1690   30.6170   46.5270 C   0  0  0  0  0  0  0  0  0  0  0  0
   59.7260   28.8850   45.5260 C   0  0  0  0  0  0  0  0  0  0  0  0
   60.6790   28.3430   44.9010 O   0  0  0  0  0  0  0  0  0  0  0  0
   58.4830   28.1100   45.7220 C   0  0  0  0  0  0  0  0  0  0  0  0
   57.2890   28.5940   45.1630 C   0  0  0  0  0  0  0  0  0  0  0  0
   56.1360   27.8740   45.2790 N   0  0  0  0  0  0  0  0  0  0  0  0
   56.0960   26.6790   45.9230 C   0  0  0  0  0  0  0  0  0  0  0  0
   55.0050   26.0500   45.9940 O   0  0  0  0  0  0  0  0  0  0  0  0
   57.2550   26.1560   46.5130 C   0  0  0  0  0  0  0  0  0  0  0  0
   57.1870   24.8930   47.2210 C   0  0  0  0  0  0  0  0  0  0  0  0
   57.1340   23.8850   47.7860 N   0  0  0  0  0  0  0  0  0  0  0  0
   58.4700   26.8710   46.4150 C   0  0  0  0  0  0  0  0  0  0  0  0
   59.6980   26.3360   47.1250 C   0  0  0  0  0  0  0  0  0  0  0  0
   57.2620   29.9450   44.5060 C   0  0  0  0  0  0  0  0  0  0  0  0
   57.4350   31.0340   45.5650 C   0  0  0  0  0  0  0  0  0  0  0  0
   63.9345   33.7707   47.9584 H   0  0  0  0  0  0  0  0  0  0  0  0
   64.3612   32.8415   46.4815 H   0  0  0  0  0  0  0  0  0  0  0  0
   62.9226   33.9172   46.4815 H   0  0  0  0  0  0  0  0  0  0  0  0
   60.5786   33.8120   47.5673 H   0  0  0  0  0  0  0  0  0  0  0  0
   58.3249   33.2546   46.6946 H   0  0  0  0  0  0  0  0  0  0  0  0
   61.9828   29.8788   46.4748 H   0  0  0  0  0  0  0  0  0  0  0  0
   55.2500   28.2470   44.8670 H   0  0  0  0  0  0  0  0  0  0  0  0
   59.5497   26.4006   48.2130 H   0  0  0  0  0  0  0  0  0  0  0  0
   59.8589   25.2862   46.8386 H   0  0  0  0  0  0  0  0  0  0  0  0
   60.5764   26.9330   46.8386 H   0  0  0  0  0  0  0  0  0  0  0  0
   58.0805   30.0126   43.7743 H   0  0  0  0  0  0  0  0  0  0  0  0
   56.2981   30.0831   43.9942 H   0  0  0  0  0  0  0  0  0  0  0  0
   57.0855   31.9834   45.1332 H   0  0  0  0  0  0  0  0  0  0  0  0
   56.8538   30.6987   46.4366 H   0  0  0  0  0  0  0  0  0  0  0  0
  1  2  1  0
  2  3  1  0
  3  4  2  0
  4  5  1  0
  5  6  2  0
  6  7  1  0
  7  8  2  0
  7  9  1  0
  9 10  2  0
  9 11  1  0
 11 12  2  0
 12 13  1  0
 13 14  1  0
 14 15  2  0
 14 16  1  0
 16 17  1  0
 17 18  3  0
 16 19  2  0
 19 20  1  0
 12 21  1  0
 21 22  1  0
  8  3  1  0
 19 11  1  0
 22  6  1  0
  1 23  1  0
  1 24  1  0
  1 25  1  0
  4 26  1  0
  5 27  1  0
  8 28  1  0
 13 29  1  0
 20 30  1  0
 20 31  1  0
 20 32  1  0
 21 33  1  0
 21 34  1  0
 22 35  1  0
 22 36  1  0
M  END
>  <UniqueID>  (23) 
19

>  <SMILES>  (23) 
COc1ccc2c(c1)C(=O)c1c([nH]c(=O)c(C#N)c1C)CC2

>  <Energy>  (23) 
59.474503941944185

>  <Genealogy>  (23) 
COc1ccc2c(c1)C(=O)c1c([nH]c(=O)c(C#N)c1C)CC2 (3D coordinates assigned)
COc1ccc2c(c1)C(=O)c1c([nH]c(=O)c(C#N)c1C)CC2 (nonaromatic ring conformer: 59.474503941944185 kcal/mol)

>  <smiles>  (23) 
COc1ccc2c(c1)C(=O)c1c([nH]c(=O)c(C#N)c1C)CC2

>  <score_type>  (23) 
oracle

>  <origin>  (23) 
adg

>  <m_score__min__energy>  (23) 
-5.8899999999999997

>  <m_primary>  (23) 
energy

$$$$
23:0
     RDKit          3D

 49 51  0  0  0  0  0  0  0  0999 V2000
   57.1530   25.1380   44.9860 C   0  0  0  0  0  0  0  0  0  0  0  0
   56.8700   26.2730   45.9740 C   0  0  0  0  0  0  0  0  0  0  0  0
   57.9540   27.2710   46.0050 N   0  0  0  0  0  0  0  0  0  0  0  0
   58.8700   27.3460   47.1580 C   0  0  0  0  0  0  0  0  0  0  0  0
   59.7370   28.5750   47.1180 C   0  0  0  0  0  0  0  0  0  0  0  0
   60.4760   28.9190   46.0440 N   0  0  0  0  0  0  0  0  0  0  0  0
   61.1420   30.0320   46.4030 C   0  0  0  0  0  0  0  0  0  0  0  0
   60.7980   30.3530   47.6990 C   0  0  0  0  0  0  0  0  0  0  0  0
   59.9070   29.4450   48.1400 N   0  0  0  0  0  0  0  0  0  0  0  0
   59.3530   29.3740   49.4880 C   0  0  0  0  0  0  0  0  0  0  0  0
   58.1780   28.1080   44.8500 C   0  0  0  0  0  0  0  0  0  0  0  0
   58.8680   27.6790   43.8870 O   0  0  0  0  0  0  0  0  0  0  0  0
   57.5780   29.4470   44.7420 C   0  0  0  0  0  0  0  0  0  0  0  0
   58.2420   30.6270   44.4830 C   0  0  0  0  0  0  0  0  0  0  0  0
   57.2390   31.5710   44.5030 C   0  0  0  0  0  0  0  0  0  0  0  0
   57.4010   33.0480   44.3290 C   0  0  0  0  0  0  0  0  0  0  0  0
   57.2750   33.7070   45.5890 O   0  0  0  0  0  0  0  0  0  0  0  0
   58.2320   33.6910   46.6200 C   0  0  0  0  0  0  0  0  0  0  0  0
   58.0840   32.8870   47.7690 C   0  0  0  0  0  0  0  0  0  0  0  0
   59.0460   32.9140   48.7810 C   0  0  0  0  0  0  0  0  0  0  0  0
   60.1670   33.7360   48.6610 C   0  0  0  0  0  0  0  0  0  0  0  0
   61.3680   33.7710   49.9390 Cl  0  0  0  0  0  0  0  0  0  0  0  0
   60.3340   34.5280   47.5220 C   0  0  0  0  0  0  0  0  0  0  0  0
   59.3770   34.5030   46.4930 C   0  0  0  0  0  0  0  0  0  0  0  0
   59.5540   35.3760   45.2820 C   0  0  0  0  0  0  0  0  0  0  0  0
   56.0940   30.9720   44.7360 O   0  0  0  0  0  0  0  0  0  0  0  0
   56.2590   29.6890   44.8790 N   0  0  0  0  0  0  0  0  0  0  0  0
   57.3827   24.2169   45.5417 H   0  0  0  0  0  0  0  0  0  0  0  0
   56.2684   24.9736   44.3533 H   0  0  0  0  0  0  0  0  0  0  0  0
   58.0113   25.4081   44.3533 H   0  0  0  0  0  0  0  0  0  0  0  0
   55.9362   26.7741   45.6791 H   0  0  0  0  0  0  0  0  0  0  0  0
   56.7895   25.8323   46.9786 H   0  0  0  0  0  0  0  0  0  0  0  0
   58.2745   27.3629   48.0827 H   0  0  0  0  0  0  0  0  0  0  0  0
   59.5299   26.4667   47.1219 H   0  0  0  0  0  0  0  0  0  0  0  0
   60.5400   28.4190   45.1300 H   0  0  0  0  0  0  0  0  0  0  0  0
   61.8440   30.5924   45.7681 H   0  0  0  0  0  0  0  0  0  0  0  0
   61.1857   31.2062   48.2750 H   0  0  0  0  0  0  0  0  0  0  0  0
   60.1641   29.4780   50.2237 H   0  0  0  0  0  0  0  0  0  0  0  0
   58.6244   30.1861   49.6283 H   0  0  0  0  0  0  0  0  0  0  0  0
   58.8528   28.4044   49.6283 H   0  0  0  0  0  0  0  0  0  0  0  0
   59.3166   30.7786   44.3032 H   0  0  0  0  0  0  0  0  0  0  0  0
   58.3947   33.2578   43.9065 H   0  0  0  0  0  0  0  0  0  0  0  0
   56.6195   33.4183   43.6492 H   0  0  0  0  0  0  0  0  0  0  0  0
   57.2045   32.2339   47.8689 H   0  0  0  0  0  0  0  0  0  0  0  0
   58.9196   32.2856   49.6750 H   0  0  0  0  0  0  0  0  0  0  0  0
   61.2192   35.1745   47.4302 H   0  0  0  0  0  0  0  0  0  0  0  0
   59.7632   36.4077   45.6011 H   0  0  0  0  0  0  0  0  0  0  0  0
   60.3944   35.0011   44.6794 H   0  0  0  0  0  0  0  0  0  0  0  0
   58.6339   35.3580   44.6794 H   0  0  0  0  0  0  0  0  0  0  0  0
  1  2  1  0
  2  3  1  0
  3  4  1  0
  4  5  1  0
  5  6  2  0
  6  7  1  0
  7  8  2  0
  8  9  1  0
  9 10  1  0
  3 11  1  0
 11 12  2  0
 11 13  1  0
 13 14  1  0
 14 15  2  0
 15 16  1  0
 16 17  1  0
 17 18  1  0
 18 19  2  0
 19 20  1  0
 20 21  2  0
 21 22  1  0
 21 23  1  0
 23 24  2  0
 24 25  1  0
 15 26  1  0
 26 27  1  0
  9  5  1  0
 27 13  2  0
 24 18  1  0
  1 28  1  0
  1 29  1  0
  1 30  1  0
  2 31  1  0
  2 32  1  0
  4 33  1  0
  4 34  1  0
  6 35  1  0
  7 36  1  0
  8 37  1  0
 10 38  1  0
 10 39  1  0
 10 40  1  0
 14 41  1  0
 16 42  1  0
 16 43  1  0
 19 44  1  0
 20 45  1  0
 23 46  1  0
 25 47  1  0
 25 48  1  0
 25 49  1  0
M  CHG  1   6   1
M  END
>  <UniqueID>  (24) 
20

>  <SMILES>  (24) 
CCN(Cc1[nH+]ccn1C)C(=O)c1cc(COc2ccc(Cl)cc2C)on1

>  <Energy>  (24) 
110.15119648934832

>  <Genealogy>  (24) 
CCN(Cc1[nH+]ccn1C)C(=O)c1cc(COc2ccc(Cl)cc2C)on1 (protonated)
CCN(Cc1[nH+]ccn1C)C(=O)c1cc(COc2ccc(Cl)cc2C)on1 (3D coordinates assigned)
CCN(Cc1[nH+]ccn1C)C(=O)c1cc(COc2ccc(Cl)cc2C)on1 (optimized conformer: 110.15119648934832 kcal/mol)

>  <smiles>  (24) 
CCN(Cc1nccn1C)C(=O)c1cc(COc2ccc(Cl)cc2C)on1

>  <score_type>  (24) 
oracle

>  <origin>  (24) 
adg

>  <m_score__min__energy>  (24) 
-6.6500000000000004

>  <m_primary>  (24) 
energy

$$$$
24:0
     RDKit          3D

 51 54  0  0  0  0  0  0  0  0999 V2000
   56.2250   28.8900   45.6000 O   0  0  0  0  0  0  0  0  0  0  0  0
   56.5680   27.6780   45.6260 C   0  0  0  0  0  0  0  0  0  0  0  0
   55.5750   26.6950   45.9010 N   0  0  0  0  0  0  0  0  0  0  0  0
   55.9160   25.3290   46.1300 C   0  0  0  0  0  0  0  0  0  0  0  0
   54.9940   24.4970   46.3360 O   0  0  0  0  0  0  0  0  0  0  0  0
   57.2950   24.9140   46.1400 N   0  0  0  0  0  0  0  0  0  0  0  0
   57.6470   23.5460   46.5530 C   0  0  0  0  0  0  0  0  0  0  0  0
   57.2700   22.5630   45.4770 C   0  0  0  0  0  0  0  0  0  0  0  0
   56.9420   21.2360   45.8070 C   0  0  0  0  0  0  0  0  0  0  0  0
   56.6250   20.3180   44.8020 C   0  0  0  0  0  0  0  0  0  0  0  0
   56.6380   20.7130   43.4620 C   0  0  0  0  0  0  0  0  0  0  0  0
   56.9680   22.0290   43.1230 C   0  0  0  0  0  0  0  0  0  0  0  0
   57.2850   22.9510   44.1250 C   0  0  0  0  0  0  0  0  0  0  0  0
   58.3310   25.8670   45.8120 C   0  0  0  0  0  0  0  0  0  0  0  0
   59.5390   25.5050   45.8200 O   0  0  0  0  0  0  0  0  0  0  0  0
   57.9840   27.2670   45.4450 C   0  0  0  0  0  0  0  0  0  0  0  0
   58.9530   28.1020   45.0000 C   0  0  0  0  0  0  0  0  0  0  0  0
   58.9340   29.5740   45.1140 C   0  0  0  0  0  0  0  0  0  0  0  0
   59.6080   30.1920   46.1750 C   0  0  0  0  0  0  0  0  0  0  0  0
   59.6390   31.5860   46.2770 C   0  0  0  0  0  0  0  0  0  0  0  0
   59.0090   32.3860   45.3040 C   0  0  0  0  0  0  0  0  0  0  0  0
   59.0110   33.8220   45.3840 N   0  0  0  0  0  0  0  0  0  0  0  0
   59.5570   34.7110   46.7720 S   0  0  0  0  0  0  0  0  0  0  0  0
   59.6590   36.1670   46.4130 O   0  0  0  0  0  0  0  0  0  0  0  0
   58.5610   34.5500   47.8850 O   0  0  0  0  0  0  0  0  0  0  0  0
   61.1140   34.0900   47.3110 C   0  0  0  0  0  0  0  0  0  0  0  0
   61.3550   33.8660   48.6750 C   0  0  0  0  0  0  0  0  0  0  0  0
   62.5970   33.3810   49.0970 C   0  0  0  0  0  0  0  0  0  0  0  0
   63.6010   33.1150   48.1600 C   0  0  0  0  0  0  0  0  0  0  0  0
   63.3630   33.3330   46.8010 C   0  0  0  0  0  0  0  0  0  0  0  0
   62.1210   33.8170   46.3750 C   0  0  0  0  0  0  0  0  0  0  0  0
   58.3730   31.7620   44.2200 C   0  0  0  0  0  0  0  0  0  0  0  0
   58.3410   30.3680   44.1190 C   0  0  0  0  0  0  0  0  0  0  0  0
   58.7306   23.4888   46.7335 H   0  0  0  0  0  0  0  0  0  0  0  0
   57.0984   23.2974   47.4735 H   0  0  0  0  0  0  0  0  0  0  0  0
   56.9349   20.9192   46.8604 H   0  0  0  0  0  0  0  0  0  0  0  0
   56.3648   19.2825   45.0666 H   0  0  0  0  0  0  0  0  0  0  0  0
   56.3885   19.9883   42.6730 H   0  0  0  0  0  0  0  0  0  0  0  0
   56.9782   22.3388   42.0676 H   0  0  0  0  0  0  0  0  0  0  0  0
   57.5473   23.9845   43.8549 H   0  0  0  0  0  0  0  0  0  0  0  0
   59.8272   27.6454   44.5129 H   0  0  0  0  0  0  0  0  0  0  0  0
   60.1159   29.5769   46.9324 H   0  0  0  0  0  0  0  0  0  0  0  0
   60.1586   32.0609   47.1223 H   0  0  0  0  0  0  0  0  0  0  0  0
   58.5740   34.3730   44.6120 H   0  0  0  0  0  0  0  0  0  0  0  0
   60.5661   34.0721   49.4133 H   0  0  0  0  0  0  0  0  0  0  0  0
   62.7846   33.2085   50.1671 H   0  0  0  0  0  0  0  0  0  0  0  0
   64.5777   32.7343   48.4933 H   0  0  0  0  0  0  0  0  0  0  0  0
   64.1529   33.1239   46.0646 H   0  0  0  0  0  0  0  0  0  0  0  0
   61.9347   33.9835   45.3038 H   0  0  0  0  0  0  0  0  0  0  0  0
   57.8950   32.3756   43.4422 H   0  0  0  0  0  0  0  0  0  0  0  0
   57.8499   29.8917   43.2576 H   0  0  0  0  0  0  0  0  0  0  0  0
  1  2  2  0
  2  3  1  0
  3  4  1  0
  4  5  2  0
  4  6  1  0
  6  7  1  0
  7  8  1  0
  8  9  2  0
  9 10  1  0
 10 11  2  0
 11 12  1  0
 12 13  2  0
  6 14  1  0
 14 15  2  0
 14 16  1  0
 16 17  2  3
 17 18  1  0
 18 19  2  0
 19 20  1  0
 20 21  2  0
 21 22  1  0
 22 23  1  0
 23 24  2  0
 23 25  2  0
 23 26  1  0
 26 27  2  0
 27 28  1  0
 28 29  2  0
 29 30  1  0
 30 31  2  0
 21 32  1  0
 32 33  2  0
 16  2  1  0
 33 18  1  0
 13  8  1  0
 31 26  1  0
  7 34  1  0
  7 35  1  0
  9 36  1  0
 10 37  1  0
 11 38  1  0
 12 39  1  0
 13 40  1  0
 17 41  1  0
 19 42  1  0
 20 43  1  0
 22 44  1  0
 27 45  1  0
 28 46  1  0
 29 47  1  0
 30 48  1  0
 31 49  1  0
 32 50  1  0
 33 51  1  0
M  CHG  1   3  -1
M  END
>  <UniqueID>  (25) 
21

>  <SMILES>  (25) 
O=C1[N-]C(=O)N(Cc2ccccc2)C(=O)C1=Cc1ccc(NS(=O)(=O)c2ccccc2)cc1

>  <Energy>  (25) 
67.38854662165437

>  <Genealogy>  (25) 
O=C1[N-]C(=O)N(Cc2ccccc2)C(=O)C1=Cc1ccc(NS(=O)(=O)c2ccccc2)cc1 (protonated)
O=C1[N-]C(=O)N(Cc2ccccc2)C(=O)C1=Cc1ccc(NS(=O)(=O)c2ccccc2)cc1 (3D coordinates assigned)
O=C1[N-]C(=O)N(Cc2ccccc2)C(=O)C1=Cc1ccc(NS(=O)(=O)c2ccccc2)cc1 (nonaromatic ring conformer: 67.38854662165437 kcal/mol)

>  <smiles>  (25) 
O=C1NC(=O)N(Cc2ccccc2)C(=O)C1=Cc1ccc(NS(=O)(=O)c2ccccc2)cc1

>  <score_type>  (25) 
oracle

>  <origin>  (25) 
adg

>  <m_score__min__energy>  (25) 
-11.42

>  <m_primary>  (25) 
energy

$$$$
25:0
     RDKit          3D

 61 64  0  0  1  0  0  0  0  0999 V2000
   58.1620   33.1770   53.1760 C   0  0  0  0  0  0  0  0  0  0  0  0
   57.6790   31.9430   52.6090 N   0  0  0  0  0  0  0  0  0  0  0  0
   56.6470   31.2120   53.2910 C   0  0  0  0  0  0  0  0  0  0  0  0
   58.2230   31.4700   51.3980 C   0  0  0  0  0  0  0  0  0  0  0  0
   58.4770   30.1330   51.2220 C   0  0  0  0  0  0  0  0  0  0  0  0
   59.0090   29.6980   50.0200 C   0  0  0  0  0  0  0  0  0  0  0  0
   59.3040   30.5290   48.9710 C   0  0  0  0  0  0  0  0  0  0  0  0
   59.8130   30.1470   47.7230 N   0  0  0  0  0  0  0  0  0  0  0  0
   61.1730   30.2300   47.2590 C   0  0  0  0  0  0  0  0  0  0  0  0
   61.8740   31.4870   47.5590 C   0  0  0  0  0  0  0  0  0  0  0  0
   62.6810   31.4900   48.7070 C   0  0  0  0  0  0  0  0  0  0  0  0
   63.3840   32.6180   49.0330 C   0  0  0  0  0  0  0  0  0  0  0  0
   63.3650   33.7880   48.3040 C   0  0  0  0  0  0  0  0  0  0  0  0
   62.5660   33.7840   47.1670 C   0  0  0  0  0  0  0  0  0  0  0  0
   61.8490   32.6380   46.8330 C   0  0  0  0  0  0  0  0  0  0  0  0
   58.8700   29.6170   46.7520 C   0  0  0  0  0  0  0  0  0  0  0  0
   58.4910   30.3370   45.6450 C   0  0  0  0  0  0  0  0  0  0  0  0
   57.5680   29.7250   44.7850 C   0  0  0  0  0  0  0  0  0  0  0  0
   57.2330   30.3990   43.7560 N   0  0  0  0  0  0  0  0  0  0  0  0
   58.1300   31.2590   43.0320 C   0  0  0  0  0  0  0  0  0  0  0  0
   57.7060   32.7140   43.0910 C   0  0  0  0  0  0  0  0  0  0  0  0
   58.0130   33.2890   44.4470 C   0  0  0  0  0  0  0  0  0  0  0  0
   57.1540   33.0910   45.5200 C   0  0  0  0  0  0  0  0  0  0  0  0
   57.4230   33.6160   46.7700 C   0  0  0  0  0  0  0  0  0  0  0  0
   58.5860   34.3550   46.9290 C   0  0  0  0  0  0  0  0  0  0  0  0
   59.4590   34.5650   45.8720 C   0  0  0  0  0  0  0  0  0  0  0  0
   59.1700   34.0300   44.6290 C   0  0  0  0  0  0  0  0  0  0  0  0
   57.0690   28.5180   45.0040 N   0  0  0  0  0  0  0  0  0  0  0  0
   57.4640   27.8420   46.1000 C   0  0  0  0  0  0  0  0  0  0  0  0
   58.3460   28.3730   46.9620 N   0  0  0  0  0  0  0  0  0  0  0  0
   59.0300   31.8880   49.1930 C   0  0  0  0  0  0  0  0  0  0  0  0
   58.5040   32.3470   50.3730 C   0  0  0  0  0  0  0  0  0  0  0  0
   58.1362   33.1110   54.2737 H   0  0  0  0  0  0  0  0  0  0  0  0
   59.1956   33.3535   52.8435 H   0  0  0  0  0  0  0  0  0  0  0  0
   57.5229   34.0082   52.8435 H   0  0  0  0  0  0  0  0  0  0  0  0
   56.7853   31.3100   54.3779 H   0  0  0  0  0  0  0  0  0  0  0  0
   55.6637   31.6161   53.0086 H   0  0  0  0  0  0  0  0  0  0  0  0
   56.7019   30.1503   53.0086 H   0  0  0  0  0  0  0  0  0  0  0  0
   58.2604   29.4150   52.0267 H   0  0  0  0  0  0  0  0  0  0  0  0
   59.2064   28.6225   49.9001 H   0  0  0  0  0  0  0  0  0  0  0  0
   61.7389   29.4086   47.7227 H   0  0  0  0  0  0  0  0  0  0  0  0
   61.1193   30.1714   46.1619 H   0  0  0  0  0  0  0  0  0  0  0  0
   62.7480   30.5928   49.3399 H   0  0  0  0  0  0  0  0  0  0  0  0
   64.0071   32.5892   49.9390 H   0  0  0  0  0  0  0  0  0  0  0  0
   63.9473   34.6716   48.6043 H   0  0  0  0  0  0  0  0  0  0  0  0
   62.5003   34.6814   46.5342 H   0  0  0  0  0  0  0  0  0  0  0  0
   61.2247   32.6645   45.9277 H   0  0  0  0  0  0  0  0  0  0  0  0
   58.8910   31.3417   45.4437 H   0  0  0  0  0  0  0  0  0  0  0  0
   59.1365   31.1660   43.4660 H   0  0  0  0  0  0  0  0  0  0  0  0
   58.1168   30.9473   41.9772 H   0  0  0  0  0  0  0  0  0  0  0  0
   58.2508   33.2828   42.3231 H   0  0  0  0  0  0  0  0  0  0  0  0
   56.6232   32.7804   42.9093 H   0  0  0  0  0  0  0  0  0  0  0  0
   56.2370   32.5019   45.3715 H   0  0  0  0  0  0  0  0  0  0  0  0
   56.7356   33.4527   47.6131 H   0  0  0  0  0  0  0  0  0  0  0  0
   58.8209   34.7836   47.9144 H   0  0  0  0  0  0  0  0  0  0  0  0
   60.3762   35.1537   46.0210 H   0  0  0  0  0  0  0  0  0  0  0  0
   59.8579   34.1927   43.7862 H   0  0  0  0  0  0  0  0  0  0  0  0
   56.3890   28.0570   44.3880 H   0  0  0  0  0  0  0  0  0  0  0  0
   57.0572   26.8382   46.2921 H   0  0  0  0  0  0  0  0  0  0  0  0
   59.2450   32.6102   48.3916 H   0  0  0  0  0  0  0  0  0  0  0  0
   58.3052   33.4212   50.5022 H   0  0  0  0  0  0  0  0  0  0  0  0
  1  2  1  0
  2  3  1  0
  2  4  1  0
  4  5  2  0
  5  6  1  0
  6  7  2  0
  7  8  1  0
  8  9  1  0
  9 10  1  0
 10 11  2  0
 11 12  1  0
 12 13  2  0
 13 14  1  0
 14 15  2  0
  8 16  1  0
 16 17  2  0
 17 18  1  0
 18 19  2  0
 19 20  1  0
 20 21  1  0
 21 22  1  0
 22 23  2  0
 23 24  1  0
 24 25  2  0
 25 26  1  0
 26 27  2  0
 18 28  1  0
 28 29  1  0
 29 30  2  0
  7 31  1  0
 31 32  2  0
 32  4  1  0
 15 10  1  0
 30 16  1  0
 27 22  1  0
  1 33  1  0
  1 34  1  0
  1 35  1  0
  3 36  1  0
  3 37  1  0
  3 38  1  0
  5 39  1  0
  6 40  1  0
  9 41  1  0
  9 42  1  0
 11 43  1  0
 12 44  1  0
 13 45  1  0
 14 46  1  0
 15 47  1  0
 17 48  1  0
 20 49  1  0
 20 50  1  0
 21 51  1  0
 21 52  1  0
 23 53  1  0
 24 54  1  0
 25 55  1  0
 26 56  1  0
 27 57  1  0
 28 58  1  0
 29 59  1  0
 31 60  1  0
 32 61  1  0
M  END
>  <smiles>  (26) 
CN(C)c1ccc(N(Cc2ccccc2)c2cc(=NCCc3ccccc3)[nH]cn2)cc1

>  <score_type>  (26) 
oracle

>  <origin>  (26) 
adg

>  <m_score__min__energy>  (26) 
-8.6600000000000001

>  <m_primary>  (26) 
energy

$$$$
26:0
     RDKit          3D

 54 57  0  0  0  0  0  0  0  0999 V2000
   58.6990   30.3900   52.9710 C   0  0  0  0  0  0  0  0  0  0  0  0
   59.0070   30.5920   51.5120 C   0  0  0  0  0  0  0  0  0  0  0  0
   59.5390   29.5400   50.7520 C   0  0  0  0  0  0  0  0  0  0  0  0
   59.8600   28.3610   51.3440 F   0  0  0  0  0  0  0  0  0  0  0  0
   59.7670   29.7270   49.3800 C   0  0  0  0  0  0  0  0  0  0  0  0
   60.3010   28.7130   48.5750 O   0  0  0  0  0  0  0  0  0  0  0  0
   59.7850   28.3110   47.3330 C   0  0  0  0  0  0  0  0  0  0  0  0
   59.7740   26.9490   47.0200 C   0  0  0  0  0  0  0  0  0  0  0  0
   59.2780   26.5130   45.7910 C   0  0  0  0  0  0  0  0  0  0  0  0
   58.7990   27.4340   44.8570 C   0  0  0  0  0  0  0  0  0  0  0  0
   58.8230   28.8130   45.1420 C   0  0  0  0  0  0  0  0  0  0  0  0
   58.3480   29.7970   44.2040 N   0  0  0  0  0  0  0  0  0  0  0  0
   57.3860   31.1790   44.6270 S   0  0  0  0  0  0  0  0  0  0  0  0
   57.7850   32.5520   43.5670 C   0  0  0  0  0  0  0  0  0  0  0  0
   57.6900   31.5670   46.0450 O   0  0  0  0  0  0  0  0  0  0  0  0
   55.9250   30.8410   44.5230 O   0  0  0  0  0  0  0  0  0  0  0  0
   59.3210   29.2410   46.3830 C   0  0  0  0  0  0  0  0  0  0  0  0
   59.5050   30.9340   48.8180 N   0  0  0  0  0  0  0  0  0  0  0  0
   58.9880   31.9830   49.5120 C   0  0  0  0  0  0  0  0  0  0  0  0
   58.7830   33.0930   48.8580 N   0  0  0  0  0  0  0  0  0  0  0  0
   59.6330   34.2780   48.6830 C   0  0  2  0  0  0  0  0  0  0  0  0
   59.2840   34.9360   47.3390 C   0  0  0  0  0  0  0  0  0  0  0  0
   59.6150   34.0510   46.1080 C   0  0  0  0  0  0  0  0  0  0  0  0
   60.6120   32.8990   46.3720 C   0  0  0  0  0  0  0  0  0  0  0  0
   61.5690   33.2130   47.4930 C   0  0  0  0  0  0  0  0  0  0  0  0
   62.9140   32.8180   47.4250 C   0  0  0  0  0  0  0  0  0  0  0  0
   63.7890   33.1270   48.4700 C   0  0  0  0  0  0  0  0  0  0  0  0
   63.3270   33.8330   49.5840 C   0  0  0  0  0  0  0  0  0  0  0  0
   61.9850   34.2150   49.6660 C   0  0  0  0  0  0  0  0  0  0  0  0
   61.0910   33.8780   48.6370 C   0  0  0  0  0  0  0  0  0  0  0  0
   58.7000   31.8130   50.8870 C   0  0  0  0  0  0  0  0  0  0  0  0
   58.0970   32.7790   51.6170 F   0  0  0  0  0  0  0  0  0  0  0  0
   59.4648   30.8922   53.5804 H   0  0  0  0  0  0  0  0  0  0  0  0
   57.7110   30.8161   53.1996 H   0  0  0  0  0  0  0  0  0  0  0  0
   58.6961   29.3140   53.1996 H   0  0  0  0  0  0  0  0  0  0  0  0
   60.1582   26.2173   47.7460 H   0  0  0  0  0  0  0  0  0  0  0  0
   59.2642   25.4384   45.5566 H   0  0  0  0  0  0  0  0  0  0  0  0
   58.4011   27.0808   43.8942 H   0  0  0  0  0  0  0  0  0  0  0  0
   58.5380   29.6550   43.1870 H   0  0  0  0  0  0  0  0  0  0  0  0
   58.0396   33.4279   44.1818 H   0  0  0  0  0  0  0  0  0  0  0  0
   58.6435   32.2877   42.9321 H   0  0  0  0  0  0  0  0  0  0  0  0
   56.9186   32.7889   42.9321 H   0  0  0  0  0  0  0  0  0  0  0  0
   59.3490   30.3157   46.6159 H   0  0  0  0  0  0  0  0  0  0  0  0
   59.4638   34.9663   49.5242 H   0  0  0  0  0  0  0  0  0  0  0  0
   58.2062   35.1559   47.3292 H   0  0  0  0  0  0  0  0  0  0  0  0
   59.8979   35.8450   47.2565 H   0  0  0  0  0  0  0  0  0  0  0  0
   58.6753   33.6105   45.7435 H   0  0  0  0  0  0  0  0  0  0  0  0
   60.1026   34.7144   45.3784 H   0  0  0  0  0  0  0  0  0  0  0  0
   60.0446   31.9941   46.6350 H   0  0  0  0  0  0  0  0  0  0  0  0
   61.2042   32.7517   45.4568 H   0  0  0  0  0  0  0  0  0  0  0  0
   63.2801   32.2643   46.5478 H   0  0  0  0  0  0  0  0  0  0  0  0
   64.8422   32.8142   48.4156 H   0  0  0  0  0  0  0  0  0  0  0  0
   64.0211   34.0887   50.3982 H   0  0  0  0  0  0  0  0  0  0  0  0
   61.6282   34.7812   50.5390 H   0  0  0  0  0  0  0  0  0  0  0  0
  1  2  1  0
  2  3  1  0
  3  4  1  0
  3  5  2  0
  5  6  1  0
  6  7  1  0
  7  8  2  0
  8  9  1  0
  9 10  2  0
 10 11  1  0
 11 12  1  0
 12 13  1  0
 13 14  1  0
 13 15  2  0
 13 16  2  0
 11 17  2  0
  5 18  1  0
 18 19  1  0
 19 20  2  3
 20 21  1  0
 21 22  1  0
 22 23  1  0
 23 24  1  0
 24 25  1  0
 25 26  2  0
 26 27  1  0
 27 28  2  0
 28 29  1  0
 29 30  2  0
 19 31  1  0
 31 32  1  0
 31  2  2  0
 17  7  1  0
 30 21  1  0
 30 25  1  0
  1 33  1  0
  1 34  1  0
  1 35  1  0
  8 36  1  0
  9 37  1  0
 10 38  1  0
 12 39  1  0
 14 40  1  0
 14 41  1  0
 14 42  1  0
 17 43  1  0
 21 44  1  1
 22 45  1  0
 22 46  1  0
 23 47  1  0
 23 48  1  0
 24 49  1  0
 24 50  1  0
 26 51  1  0
 27 52  1  0
 28 53  1  0
 29 54  1  0
M  CHG  1  18  -1
M  END
>  <UniqueID>  (27) 
22

>  <SMILES>  (27) 
Cc1c(F)c(Oc2cccc(NS(C)(=O)=O)c2)[n-]c(=N[C@@H]2CCCc3ccccc32)c1F

>  <Energy>  (27) 
76.28582765753934

>  <Genealogy>  (27) 
Cc1c(F)c(Oc2cccc(NS(C)(=O)=O)c2)[n-]c(=NC2CCCc3ccccc32)c1F (protonated)
Cc1c(F)c(Oc2cccc(NS(C)(=O)=O)c2)[n-]c(=N[C@@H]2CCCc3ccccc32)c1F (chirality)
Cc1c(F)c(Oc2cccc(NS(C)(=O)=O)c2)[n-]c(=N[C@@H]2CCCc3ccccc32)c1F (3D coordinates assigned)
Cc1c(F)c(Oc2cccc(NS(C)(=O)=O)c2)[n-]c(=N[C@@H]2CCCc3ccccc32)c1F (nonaromatic ring conformer: 76.28582765753934 kcal/mol)

>  <smiles>  (27) 
Cc1c(F)c(Oc2cccc(NS(C)(=O)=O)c2)[nH]c(=NC2CCCc3ccccc32)c1F

>  <score_type>  (27) 
oracle

>  <origin>  (27) 
adg

>  <m_score__min__energy>  (27) 
-12.08

>  <m_primary>  (27) 
energy

$$$$
27:0
     RDKit          3D

 47 48  0  0  0  0  0  0  0  0999 V2000
   59.6420   35.6580   45.2780 C   0  0  0  0  0  0  0  0  0  0  0  0
   58.6480   34.8630   45.9160 O   0  0  0  0  0  0  0  0  0  0  0  0
   58.2390   33.5930   45.4740 C   0  0  0  0  0  0  0  0  0  0  0  0
   57.8500   33.3610   44.1410 C   0  0  0  0  0  0  0  0  0  0  0  0
   57.4500   32.0880   43.7320 C   0  0  0  0  0  0  0  0  0  0  0  0
   57.4180   31.0310   44.6470 C   0  0  0  0  0  0  0  0  0  0  0  0
   56.9100   29.4210   44.1320 S   0  0  0  0  0  0  0  0  0  0  0  0
   56.6030   29.4460   42.6590 O   0  0  0  0  0  0  0  0  0  0  0  0
   55.6510   29.0420   44.8610 O   0  0  0  0  0  0  0  0  0  0  0  0
   58.1460   28.2270   44.4460 N   0  0  0  0  0  0  0  0  0  0  0  0
   59.4580   28.8800   44.5420 C   0  0  0  0  0  0  0  0  0  0  0  0
   58.1550   27.2270   43.3710 C   0  0  0  0  0  0  0  0  0  0  0  0
   57.8010   31.2550   45.9760 C   0  0  0  0  0  0  0  0  0  0  0  0
   58.2310   32.5260   46.3930 C   0  0  0  0  0  0  0  0  0  0  0  0
   58.6230   32.7570   47.7570 N   0  0  0  0  0  0  0  0  0  0  0  0
   59.2260   31.7550   48.5930 C   0  0  0  0  0  0  0  0  0  0  0  0
   59.4990   30.6130   48.1350 O   0  0  0  0  0  0  0  0  0  0  0  0
   59.6280   32.0970   49.9980 C   0  0  0  0  0  0  0  0  0  0  0  0
   60.5410   33.3300   50.0380 C   0  0  0  0  0  0  0  0  0  0  0  0
   61.6260   33.2570   48.9930 C   0  0  0  0  0  0  0  0  0  0  0  0
   62.7820   32.4910   49.2200 C   0  0  0  0  0  0  0  0  0  0  0  0
   63.7680   32.3940   48.2340 C   0  0  0  0  0  0  0  0  0  0  0  0
   63.6060   33.0550   47.0140 C   0  0  0  0  0  0  0  0  0  0  0  0
   62.4530   33.8100   46.7760 C   0  0  0  0  0  0  0  0  0  0  0  0
   61.4640   33.9100   47.7600 C   0  0  0  0  0  0  0  0  0  0  0  0
   60.2609   36.1530   46.0408 H   0  0  0  0  0  0  0  0  0  0  0  0
   60.2775   35.0162   44.6501 H   0  0  0  0  0  0  0  0  0  0  0  0
   59.1555   36.4190   44.6501 H   0  0  0  0  0  0  0  0  0  0  0  0
   57.8614   34.1889   43.4168 H   0  0  0  0  0  0  0  0  0  0  0  0
   57.1587   31.9154   42.6854 H   0  0  0  0  0  0  0  0  0  0  0  0
   59.7249   29.0128   45.6008 H   0  0  0  0  0  0  0  0  0  0  0  0
   60.2161   28.2541   44.0485 H   0  0  0  0  0  0  0  0  0  0  0  0
   59.4157   29.8622   44.0485 H   0  0  0  0  0  0  0  0  0  0  0  0
   58.1641   26.2180   43.8089 H   0  0  0  0  0  0  0  0  0  0  0  0
   57.2557   27.3488   42.7493 H   0  0  0  0  0  0  0  0  0  0  0  0
   59.0519   27.3650   42.7493 H   0  0  0  0  0  0  0  0  0  0  0  0
   57.7647   30.4277   46.7000 H   0  0  0  0  0  0  0  0  0  0  0  0
   58.5850   33.7360   48.1210 H   0  0  0  0  0  0  0  0  0  0  0  0
   58.7231   32.3031   50.5885 H   0  0  0  0  0  0  0  0  0  0  0  0
   60.1824   31.2436   50.4156 H   0  0  0  0  0  0  0  0  0  0  0  0
   59.9333   34.2291   49.8582 H   0  0  0  0  0  0  0  0  0  0  0  0
   61.0207   33.3686   51.0271 H   0  0  0  0  0  0  0  0  0  0  0  0
   62.9115   31.9655   50.1776 H   0  0  0  0  0  0  0  0  0  0  0  0
   64.6728   31.7964   48.4190 H   0  0  0  0  0  0  0  0  0  0  0  0
   64.3850   32.9817   46.2408 H   0  0  0  0  0  0  0  0  0  0  0  0
   62.3237   34.3261   45.8132 H   0  0  0  0  0  0  0  0  0  0  0  0
   60.5568   34.5017   47.5677 H   0  0  0  0  0  0  0  0  0  0  0  0
  1  2  1  0
  2  3  1  0
  3  4  2  0
  4  5  1  0
  5  6  2  0
  6  7  1  0
  7  8  2  0
  7  9  2  0
  7 10  1  0
 10 11  1  0
 10 12  1  0
  6 13  1  0
 13 14  2  0
 14 15  1  0
 15 16  1  0
 16 17  2  0
 16 18  1  0
 18 19  1  0
 19 20  1  0
 20 21  2  0
 21 22  1  0
 22 23  2  0
 23 24  1  0
 24 25  2  0
 14  3  1  0
 25 20  1  0
  1 26  1  0
  1 27  1  0
  1 28  1  0
  4 29  1  0
  5 30  1  0
 11 31  1  0
 11 32  1  0
 11 33  1  0
 12 34  1  0
 12 35  1  0
 12 36  1  0
 13 37  1  0
 15 38  1  0
 18 39  1  0
 18 40  1  0
 19 41  1  0
 19 42  1  0
 21 43  1  0
 22 44  1  0
 23 45  1  0
 24 46  1  0
 25 47  1  0
M  END
>  <UniqueID>  (28) 
23

>  <SMILES>  (28) 
COc1ccc(S(=O)(=O)N(C)C)cc1NC(=O)CCc1ccccc1

>  <Energy>  (28) 
40.97308820614458

>  <Genealogy>  (28) 
COc1ccc(S(=O)(=O)N(C)C)cc1NC(=O)CCc1ccccc1 (3D coordinates assigned)
COc1ccc(S(=O)(=O)N(C)C)cc1NC(=O)CCc1ccccc1 (optimized conformer: 40.97308820614458 kcal/mol)

>  <smiles>  (28) 
COc1ccc(S(=O)(=O)N(C)C)cc1NC(=O)CCc1ccccc1

>  <score_type>  (28) 
oracle

>  <origin>  (28) 
adg

>  <m_score__min__energy>  (28) 
-8.7899999999999991

>  <m_primary>  (28) 
energy

$$$$
28:0
     RDKit          3D

 33 34  0  0  0  0  0  0  0  0999 V2000
   58.0880   28.1150   44.0570 C   0  0  0  0  0  0  0  0  0  0  0  0
   57.1510   29.1090   43.3790 C   0  0  0  0  0  0  0  0  0  0  0  0
   56.2230   29.7220   44.3790 C   0  0  0  0  0  0  0  0  0  0  0  0
   55.5170   28.9790   45.1130 O   0  0  0  0  0  0  0  0  0  0  0  0
   56.1560   31.1490   44.4960 N   0  0  0  0  0  0  0  0  0  0  0  0
   57.1550   32.0060   45.0680 C   0  0  0  0  0  0  0  0  0  0  0  0
   58.3050   31.4260   45.6160 C   0  0  0  0  0  0  0  0  0  0  0  0
   59.3120   32.2270   46.1630 C   0  0  0  0  0  0  0  0  0  0  0  0
   59.1830   33.6260   46.1690 C   0  0  0  0  0  0  0  0  0  0  0  0
   60.2160   34.4710   46.7050 N   0  0  0  0  0  0  0  0  0  0  0  0
   61.4270   33.9810   47.3080 C   0  0  0  0  0  0  0  0  0  0  0  0
   62.5860   33.7970   46.5300 C   0  0  0  0  0  0  0  0  0  0  0  0
   63.7530   33.2910   47.1090 C   0  0  0  0  0  0  0  0  0  0  0  0
   63.7730   32.9520   48.4630 C   0  0  0  0  0  0  0  0  0  0  0  0
   62.6240   33.1140   49.2410 C   0  0  0  0  0  0  0  0  0  0  0  0
   61.4500   33.6200   48.6700 C   0  0  0  0  0  0  0  0  0  0  0  0
   60.0330   33.8250   49.6920 Cl  0  0  0  0  0  0  0  0  0  0  0  0
   58.0520   34.2080   45.5790 C   0  0  0  0  0  0  0  0  0  0  0  0
   57.0450   33.4080   45.0320 C   0  0  0  0  0  0  0  0  0  0  0  0
   57.9970   28.2115   45.1490 H   0  0  0  0  0  0  0  0  0  0  0  0
   57.8179   27.0922   43.7555 H   0  0  0  0  0  0  0  0  0  0  0  0
   59.1250   28.3243   43.7555 H   0  0  0  0  0  0  0  0  0  0  0  0
   57.7472   29.9025   42.9048 H   0  0  0  0  0  0  0  0  0  0  0  0
   56.5562   28.5769   42.6220 H   0  0  0  0  0  0  0  0  0  0  0  0
   58.4173   30.3318   45.6163 H   0  0  0  0  0  0  0  0  0  0  0  0
   60.2107   31.7590   46.5912 H   0  0  0  0  0  0  0  0  0  0  0  0
   60.0660   35.5040   46.6770 H   0  0  0  0  0  0  0  0  0  0  0  0
   62.5729   34.0530   45.4603 H   0  0  0  0  0  0  0  0  0  0  0  0
   64.6573   33.1596   46.4967 H   0  0  0  0  0  0  0  0  0  0  0  0
   64.6937   32.5572   48.9175 H   0  0  0  0  0  0  0  0  0  0  0  0
   62.6417   32.8428   50.3069 H   0  0  0  0  0  0  0  0  0  0  0  0
   57.9565   35.3034   45.5464 H   0  0  0  0  0  0  0  0  0  0  0  0
   56.1628   33.8765   44.5714 H   0  0  0  0  0  0  0  0  0  0  0  0
  1  2  1  0
  2  3  1  0
  3  4  2  0
  3  5  1  0
  5  6  1  0
  6  7  2  0
  7  8  1  0
  8  9  2  0
  9 10  1  0
 10 11  1  0
 11 12  2  0
 12 13  1  0
 13 14  2  0
 14 15  1  0
 15 16  2  0
 16 17  1  0
  9 18  1  0
 18 19  2  0
 19  6  1  0
 16 11  1  0
  1 20  1  0
  1 21  1  0
  1 22  1  0
  2 23  1  0
  2 24  1  0
  7 25  1  0
  8 26  1  0
 10 27  1  0
 12 28  1  0
 13 29  1  0
 14 30  1  0
 15 31  1  0
 18 32  1  0
 19 33  1  0
M  CHG  1   5  -1
M  END
>  <UniqueID>  (29) 
24

>  <SMILES>  (29) 
CCC(=O)[N-]c1ccc(Nc2ccccc2Cl)cc1

>  <Energy>  (29) 
38.9012474254407

>  <Genealogy>  (29) 
CCC(=O)[N-]c1ccc(Nc2ccccc2Cl)cc1 (protonated)
CCC(=O)[N-]c1ccc(Nc2ccccc2Cl)cc1 (3D coordinates assigned)
CCC(=O)[N-]c1ccc(Nc2ccccc2Cl)cc1 (optimized conformer: 38.9012474254407 kcal/mol)

>  <smiles>  (29) 
CCC(=O)Nc1ccc(Nc2ccccc2Cl)cc1

>  <score_type>  (29) 
oracle

>  <origin>  (29) 
adg

>  <m_score__min__energy>  (29) 
-9.1500000000000004

>  <m_primary>  (29) 
energy

$$$$
29:0
     RDKit          3D

 46 47  0  0  0  0  0  0  0  0999 V2000
   54.6680   23.8070   44.5600 C   0  0  0  0  0  0  0  0  0  0  0  0
   53.8740   24.5470   45.6240 C   0  0  0  0  0  0  0  0  0  0  0  0
   54.5330   25.7690   45.9450 O   0  0  0  0  0  0  0  0  0  0  0  0
   55.8960   25.8750   46.2600 C   0  0  0  0  0  0  0  0  0  0  0  0
   56.4860   24.8520   47.0110 C   0  0  0  0  0  0  0  0  0  0  0  0
   57.8390   24.9140   47.3530 C   0  0  0  0  0  0  0  0  0  0  0  0
   58.6170   26.0000   46.9450 C   0  0  0  0  0  0  0  0  0  0  0  0
   58.0450   27.0360   46.1920 C   0  0  0  0  0  0  0  0  0  0  0  0
   58.8460   28.1580   45.7740 N   0  0  0  0  0  0  0  0  0  0  0  0
   60.3000   28.0040   45.6810 C   0  0  0  0  0  0  0  0  0  0  0  0
   58.2330   29.3710   45.2810 C   0  0  0  0  0  0  0  0  0  0  0  0
   57.5080   29.3860   44.0810 C   0  0  0  0  0  0  0  0  0  0  0  0
   56.9290   30.5850   43.6640 C   0  0  0  0  0  0  0  0  0  0  0  0
   56.2750   30.6320   42.5890 O   0  0  0  0  0  0  0  0  0  0  0  0
   57.0670   31.7030   44.4210 N   0  0  0  0  0  0  0  0  0  0  0  0
   57.7640   31.6830   45.5900 C   0  0  0  0  0  0  0  0  0  0  0  0
   57.8940   32.8810   46.3840 N   0  0  0  0  0  0  0  0  0  0  0  0
   57.7040   34.2040   45.7700 C   0  0  0  0  0  0  0  0  0  0  0  0
   58.8960   34.5620   44.8890 C   0  0  0  0  0  0  0  0  0  0  0  0
   58.2090   32.7930   47.8180 C   0  0  0  0  0  0  0  0  0  0  0  0
   59.3160   33.7750   48.1840 C   0  0  0  0  0  0  0  0  0  0  0  0
   58.3350   30.5200   46.0050 N   0  0  0  0  0  0  0  0  0  0  0  0
   56.6840   26.9680   45.8480 C   0  0  0  0  0  0  0  0  0  0  0  0
   55.3906   23.1335   45.0439 H   0  0  0  0  0  0  0  0  0  0  0  0
   53.9816   23.2189   43.9330 H   0  0  0  0  0  0  0  0  0  0  0  0
   55.2063   24.5330   43.9330 H   0  0  0  0  0  0  0  0  0  0  0  0
   52.8648   24.7636   45.2439 H   0  0  0  0  0  0  0  0  0  0  0  0
   53.7999   23.9225   46.5265 H   0  0  0  0  0  0  0  0  0  0  0  0
   55.8799   23.9929   47.3343 H   0  0  0  0  0  0  0  0  0  0  0  0
   58.2929   24.1056   47.9451 H   0  0  0  0  0  0  0  0  0  0  0  0
   59.6824   26.0429   47.2153 H   0  0  0  0  0  0  0  0  0  0  0  0
   60.7294   27.9585   46.6927 H   0  0  0  0  0  0  0  0  0  0  0  0
   60.5366   27.0758   45.1402 H   0  0  0  0  0  0  0  0  0  0  0  0
   60.7258   28.8621   45.1402 H   0  0  0  0  0  0  0  0  0  0  0  0
   57.3979   28.4710   43.4805 H   0  0  0  0  0  0  0  0  0  0  0  0
   56.7916   34.1900   45.1558 H   0  0  0  0  0  0  0  0  0  0  0  0
   57.6136   34.9559   46.5678 H   0  0  0  0  0  0  0  0  0  0  0  0
   59.7565   34.8204   45.5236 H   0  0  0  0  0  0  0  0  0  0  0  0
   59.1540   33.7017   44.2539 H   0  0  0  0  0  0  0  0  0  0  0  0
   58.6374   35.4221   44.2539 H   0  0  0  0  0  0  0  0  0  0  0  0
   57.3073   33.0303   48.4017 H   0  0  0  0  0  0  0  0  0  0  0  0
   58.5504   31.7722   48.0447 H   0  0  0  0  0  0  0  0  0  0  0  0
   59.3960   33.8460   49.2788 H   0  0  0  0  0  0  0  0  0  0  0  0
   60.2714   33.4219   47.7687 H   0  0  0  0  0  0  0  0  0  0  0  0
   59.0794   34.7657   47.7687 H   0  0  0  0  0  0  0  0  0  0  0  0
   56.2305   27.7742   45.2526 H   0  0  0  0  0  0  0  0  0  0  0  0
  1  2  1  0
  2  3  1  0
  3  4  1  0
  4  5  2  0
  5  6  1  0
  6  7  2  0
  7  8  1  0
  8  9  1  0
  9 10  1  0
  9 11  1  0
 11 12  2  0
 12 13  1  0
 13 14  2  0
 13 15  1  0
 15 16  1  0
 16 17  1  0
 17 18  1  0
 18 19  1  0
 17 20  1  0
 20 21  1  0
 16 22  2  0
  8 23  2  0
 23  4  1  0
 22 11  1  0
  1 24  1  0
  1 25  1  0
  1 26  1  0
  2 27  1  0
  2 28  1  0
  5 29  1  0
  6 30  1  0
  7 31  1  0
 10 32  1  0
 10 33  1  0
 10 34  1  0
 12 35  1  0
 18 36  1  0
 18 37  1  0
 19 38  1  0
 19 39  1  0
 19 40  1  0
 20 41  1  0
 20 42  1  0
 21 43  1  0
 21 44  1  0
 21 45  1  0
 23 46  1  0
M  CHG  1  15  -1
M  END
>  <UniqueID>  (30) 
25

>  <SMILES>  (30) 
CCOc1cccc(N(C)c2cc(=O)[n-]c(N(CC)CC)n2)c1

>  <Energy>  (30) 
42.36196926302943

>  <Genealogy>  (30) 
CCOc1cccc(N(C)c2cc(=O)[n-]c(N(CC)CC)n2)c1 (protonated)
CCOc1cccc(N(C)c2cc(=O)[n-]c(N(CC)CC)n2)c1 (3D coordinates assigned)
CCOc1cccc(N(C)c2cc(=O)[n-]c(N(CC)CC)n2)c1 (optimized conformer: 42.36196926302943 kcal/mol)

>  <smiles>  (30) 
CCOc1cccc(N(C)c2cc(=O)[nH]c(N(CC)CC)n2)c1

>  <score_type>  (30) 
oracle

>  <origin>  (30) 
adg

>  <m_score__min__energy>  (30) 
-7.9000000000000004

>  <m_primary>  (30) 
energy

$$$$
30:0
     RDKit          3D

 66 68  0  0  0  0  0  0  0  0999 V2000
   60.7740   26.7210   47.3960 C   0  0  0  0  0  0  0  0  0  0  0  0
   60.2190   27.7570   46.4200 C   0  0  0  0  0  0  0  0  0  0  0  0
   59.4770   27.1150   45.2390 C   0  0  0  0  0  0  0  0  0  0  0  0
   58.2590   26.3410   45.6950 C   0  0  0  0  0  0  0  0  0  0  0  0
   58.4320   25.0640   46.2550 C   0  0  0  0  0  0  0  0  0  0  0  0
   57.3220   24.2710   46.6050 C   0  0  0  0  0  0  0  0  0  0  0  0
   57.4670   22.9910   47.1610 O   0  0  0  0  0  0  0  0  0  0  0  0
   57.2770   21.7730   46.4490 C   0  0  0  0  0  0  0  0  0  0  0  0
   56.0260   24.7590   46.3870 C   0  0  0  0  0  0  0  0  0  0  0  0
   54.9400   23.9430   46.7390 O   0  0  0  0  0  0  0  0  0  0  0  0
   54.8060   23.2730   47.9900 C   0  0  0  0  0  0  0  0  0  0  0  0
   55.8500   26.0370   45.8270 C   0  0  0  0  0  0  0  0  0  0  0  0
   56.9520   26.8320   45.4930 C   0  0  0  0  0  0  0  0  0  0  0  0
   56.7210   28.1320   44.9340 N   0  0  0  0  0  0  0  0  0  0  0  0
   57.2010   29.3230   45.5770 C   0  0  0  0  0  0  0  0  0  0  0  0
   57.7940   29.2460   46.6860 O   0  0  0  0  0  0  0  0  0  0  0  0
   56.9560   30.6160   45.0120 N   0  0  0  0  0  0  0  0  0  0  0  0
   57.4720   31.8610   45.5000 C   0  0  0  0  0  0  0  0  0  0  0  0
   57.0760   33.0870   44.9450 C   0  0  0  0  0  0  0  0  0  0  0  0
   57.6260   34.2810   45.4140 C   0  0  0  0  0  0  0  0  0  0  0  0
   58.5890   34.2600   46.4270 C   0  0  0  0  0  0  0  0  0  0  0  0
   59.0190   33.0400   46.9780 C   0  0  0  0  0  0  0  0  0  0  0  0
   60.0350   33.0300   48.0060 N   0  0  0  0  0  0  0  0  0  0  0  0
   59.8230   32.3180   49.2800 C   0  0  0  0  0  0  0  0  0  0  0  0
   60.1400   30.8230   49.1540 C   0  0  0  0  0  0  0  0  0  0  0  0
   58.9200   30.0500   48.9430 N   0  0  0  0  0  0  0  0  0  0  0  0
   61.2850   33.7050   47.7590 C   0  0  0  0  0  0  0  0  0  0  0  0
   61.3620   34.5240   46.8040 O   0  0  0  0  0  0  0  0  0  0  0  0
   62.4780   33.4580   48.5990 C   0  0  0  0  0  0  0  0  0  0  0  0
   63.4120   32.4770   48.2270 C   0  0  0  0  0  0  0  0  0  0  0  0
   64.5450   32.2460   49.0130 C   0  0  0  0  0  0  0  0  0  0  0  0
   64.7600   32.9990   50.1710 C   0  0  0  0  0  0  0  0  0  0  0  0
   63.8460   33.9890   50.5400 C   0  0  0  0  0  0  0  0  0  0  0  0
   64.1240   34.9430   51.9870 Cl  0  0  0  0  0  0  0  0  0  0  0  0
   62.7130   34.2260   49.7540 C   0  0  0  0  0  0  0  0  0  0  0  0
   58.4560   31.8420   46.4970 C   0  0  0  0  0  0  0  0  0  0  0  0
   60.5943   27.0564   48.4281 H   0  0  0  0  0  0  0  0  0  0  0  0
   60.2719   25.7562   47.2313 H   0  0  0  0  0  0  0  0  0  0  0  0
   61.8553   26.6045   47.2313 H   0  0  0  0  0  0  0  0  0  0  0  0
   59.5206   28.4125   46.9609 H   0  0  0  0  0  0  0  0  0  0  0  0
   61.0705   28.3215   46.0123 H   0  0  0  0  0  0  0  0  0  0  0  0
   59.1568   27.9073   44.5464 H   0  0  0  0  0  0  0  0  0  0  0  0
   60.1638   26.4121   44.7448 H   0  0  0  0  0  0  0  0  0  0  0  0
   59.4485   24.6783   46.4224 H   0  0  0  0  0  0  0  0  0  0  0  0
   57.1481   20.9468   47.1637 H   0  0  0  0  0  0  0  0  0  0  0  0
   56.3806   21.8540   45.8166 H   0  0  0  0  0  0  0  0  0  0  0  0
   58.1554   21.5771   45.8166 H   0  0  0  0  0  0  0  0  0  0  0  0
   54.9500   23.9932   48.8089 H   0  0  0  0  0  0  0  0  0  0  0  0
   53.8016   22.8305   48.0632 H   0  0  0  0  0  0  0  0  0  0  0  0
   55.5630   22.4783   48.0632 H   0  0  0  0  0  0  0  0  0  0  0  0
   54.8330   26.4165   45.6493 H   0  0  0  0  0  0  0  0  0  0  0  0
   55.9870   28.2200   44.1970 H   0  0  0  0  0  0  0  0  0  0  0  0
   56.3294   33.1074   44.1374 H   0  0  0  0  0  0  0  0  0  0  0  0
   57.3010   35.2406   44.9856 H   0  0  0  0  0  0  0  0  0  0  0  0
   59.0137   35.2053   46.7959 H   0  0  0  0  0  0  0  0  0  0  0  0
   60.4773   32.7577   50.0472 H   0  0  0  0  0  0  0  0  0  0  0  0
   58.7639   32.4216   49.5585 H   0  0  0  0  0  0  0  0  0  0  0  0
   60.8168   30.6686   48.3007 H   0  0  0  0  0  0  0  0  0  0  0  0
   60.6153   30.4838   50.0862 H   0  0  0  0  0  0  0  0  0  0  0  0
   59.1670   29.2060   48.3770 H   0  0  0  0  0  0  0  0  0  0  0  0
   58.2780   30.6240   48.3490 H   0  0  0  0  0  0  0  0  0  0  0  0
   63.2512   31.8874   47.3124 H   0  0  0  0  0  0  0  0  0  0  0  0
   65.2682   31.4707   48.7198 H   0  0  0  0  0  0  0  0  0  0  0  0
   65.6488   32.8120   50.7916 H   0  0  0  0  0  0  0  0  0  0  0  0
   62.0032   35.0160   50.0403 H   0  0  0  0  0  0  0  0  0  0  0  0
   58.7931   30.8795   46.9093 H   0  0  0  0  0  0  0  0  0  0  0  0
  1  2  1  0
  2  3  1  0
  3  4  1  0
  4  5  2  0
  5  6  1  0
  6  7  1  0
  7  8  1  0
  6  9  2  0
  9 10  1  0
 10 11  1  0
  9 12  1  0
 12 13  2  0
 13 14  1  0
 14 15  1  0
 15 16  2  0
 15 17  1  0
 17 18  1  0
 18 19  2  0
 19 20  1  0
 20 21  2  0
 21 22  1  0
 22 23  1  0
 23 24  1  0
 24 25  1  0
 25 26  1  0
 23 27  1  0
 27 28  2  0
 27 29  1  0
 29 30  2  0
 30 31  1  0
 31 32  2  0
 32 33  1  0
 33 34  1  0
 33 35  2  0
 22 36  2  0
 13  4  1  0
 36 18  1  0
 35 29  1  0
  1 37  1  0
  1 38  1  0
  1 39  1  0
  2 40  1  0
  2 41  1  0
  3 42  1  0
  3 43  1  0
  5 44  1  0
  8 45  1  0
  8 46  1  0
  8 47  1  0
 11 48  1  0
 11 49  1  0
 11 50  1  0
 12 51  1  0
 14 52  1  0
 19 53  1  0
 20 54  1  0
 21 55  1  0
 24 56  1  0
 24 57  1  0
 25 58  1  0
 25 59  1  0
 26 60  1  0
 26 61  1  0
 30 62  1  0
 31 63  1  0
 32 64  1  0
 35 65  1  0
 36 66  1  0
M  CHG  1  17  -1
M  END
>  <UniqueID>  (31) 
26

>  <SMILES>  (31) 
CCCc1cc(OC)c(OC)cc1NC(=O)[N-]c1cccc(N(CCN)C(=O)c2cccc(Cl)c2)c1

>  <Energy>  (31) 
79.202232843576

>  <Genealogy>  (31) 
CCCc1cc(OC)c(OC)cc1NC(=O)[N-]c1cccc(N(CCN)C(=O)c2cccc(Cl)c2)c1 (protonated)
CCCc1cc(OC)c(OC)cc1NC(=O)[N-]c1cccc(N(CCN)C(=O)c2cccc(Cl)c2)c1 (3D coordinates assigned)
CCCc1cc(OC)c(OC)cc1NC(=O)[N-]c1cccc(N(CCN)C(=O)c2cccc(Cl)c2)c1 (optimized conformer: 79.202232843576 kcal/mol)

>  <smiles>  (31) 
CCCc1cc(OC)c(OC)cc1NC(=O)Nc1cccc(N(CCN)C(=O)c2cccc(Cl)c2)c1

>  <score_type>  (31) 
oracle

>  <origin>  (31) 
adg

>  <m_score__min__energy>  (31) 
-11.140000000000001

>  <m_primary>  (31) 
energy

$$$$
31:0
     RDKit          3D

 49 51  0  0  0  0  0  0  0  0999 V2000
   54.6836   30.3442   44.1712 H   0  0  0  0  0  0  0  0  0  0  0  0
   55.6920   29.9950   44.4380 C   0  0  0  0  0  0  0  0  0  0  0  0
   55.8510   28.8170   45.0950 N   0  0  0  0  0  0  0  0  0  0  0  0
   57.0790   28.3400   45.4500 C   0  0  0  0  0  0  0  0  0  0  0  0
   57.1830   27.2150   46.0980 N   0  0  0  0  0  0  0  0  0  0  0  0
   57.1450   25.8850   45.4910 C   0  0  0  0  0  0  0  0  0  0  0  0
   57.8618   25.2309   46.0090 H   0  0  0  0  0  0  0  0  0  0  0  0
   57.4098   25.9737   44.4270 H   0  0  0  0  0  0  0  0  0  0  0  0
   55.7430   25.2810   45.6010 C   0  0  0  0  0  0  0  0  0  0  0  0
   55.7552   24.4663   46.3400 H   0  0  0  0  0  0  0  0  0  0  0  0
   55.4416   24.8911   44.6176 H   0  0  0  0  0  0  0  0  0  0  0  0
   54.7870   26.3010   46.0230 N   0  0  0  0  0  0  0  0  0  0  0  0
   55.1530   26.7520   46.8920 H   0  0  0  0  0  0  0  0  0  0  0  0
   54.7710   27.0450   45.2870 H   0  0  0  0  0  0  0  0  0  0  0  0
   58.2350   29.0900   45.1330 C   0  0  0  0  0  0  0  0  0  0  0  0
   59.5980   28.6160   45.4870 C   0  0  0  0  0  0  0  0  0  0  0  0
   60.3720   28.2140   44.5780 O   0  0  0  0  0  0  0  0  0  0  0  0
   60.0900   28.6670   46.8330 N   0  0  0  0  0  0  0  0  0  0  0  0
   59.9700   29.7760   47.7360 C   0  0  0  0  0  0  0  0  0  0  0  0
   59.4870   29.6110   49.0460 C   0  0  0  0  0  0  0  0  0  0  0  0
   59.1775   28.6148   49.3950 H   0  0  0  0  0  0  0  0  0  0  0  0
   59.3990   30.7090   49.9060 C   0  0  0  0  0  0  0  0  0  0  0  0
   59.0089   30.5769   50.9260 H   0  0  0  0  0  0  0  0  0  0  0  0
   59.8050   31.9740   49.4740 C   0  0  0  0  0  0  0  0  0  0  0  0
   59.7322   32.8363   50.1530 H   0  0  0  0  0  0  0  0  0  0  0  0
   60.3050   32.1450   48.1760 C   0  0  0  0  0  0  0  0  0  0  0  0
   60.8490   33.7280   47.6250 S   0  0  0  0  0  0  0  0  0  0  0  0
   61.7700   33.5660   46.4500 O   0  0  0  0  0  0  0  0  0  0  0  0
   61.6170   34.3760   48.7430 O   0  0  0  0  0  0  0  0  0  0  0  0
   59.4650   34.7170   47.2100 N   0  0  0  0  0  0  0  0  0  0  0  0
   58.1900   33.9840   47.3160 C   0  0  0  0  0  0  0  0  0  0  0  0
   58.2359   33.3193   48.1913 H   0  0  0  0  0  0  0  0  0  0  0  0
   57.3833   34.7251   47.4160 H   0  0  0  0  0  0  0  0  0  0  0  0
   57.8980   33.1370   46.0670 C   0  0  0  0  0  0  0  0  0  0  0  0
   58.6505   32.3385   45.9888 H   0  0  0  0  0  0  0  0  0  0  0  0
   56.8904   32.7058   46.1612 H   0  0  0  0  0  0  0  0  0  0  0  0
   57.9430   33.9310   44.9010 O   0  0  0  0  0  0  0  0  0  0  0  0
   59.2450   34.4480   44.7340 C   0  0  0  0  0  0  0  0  0  0  0  0
   59.9609   33.6139   44.6927 H   0  0  0  0  0  0  0  0  0  0  0  0
   59.2753   35.0277   43.7996 H   0  0  0  0  0  0  0  0  0  0  0  0
   59.6210   35.3760   45.8990 C   0  0  0  0  0  0  0  0  0  0  0  0
   60.6699   35.6856   45.7808 H   0  0  0  0  0  0  0  0  0  0  0  0
   58.9425   36.2415   45.8735 H   0  0  0  0  0  0  0  0  0  0  0  0
   60.3990   31.0410   47.3160 C   0  0  0  0  0  0  0  0  0  0  0  0
   60.8125   31.1698   46.3048 H   0  0  0  0  0  0  0  0  0  0  0  0
   58.0780   30.3060   44.4480 C   0  0  0  0  0  0  0  0  0  0  0  0
   58.9632   30.9028   44.1830 H   0  0  0  0  0  0  0  0  0  0  0  0
   56.8060   30.7610   44.1020 C   0  0  0  0  0  0  0  0  0  0  0  0
   56.6835   31.7154   43.5690 H   0  0  0  0  0  0  0  0  0  0  0  0
  1  2  1  0
  2  3  1  0
  3  4  1  0
  4  5  2  0
  5  6  1  0
  6  7  1  0
  6  8  1  0
  6  9  1  0
  9 10  1  0
  9 11  1  0
  9 12  1  0
 12 13  1  0
 12 14  1  0
  4 15  1  0
 15 16  1  0
 16 17  2  0
 16 18  1  0
 18 19  1  0
 19 20  2  0
 20 21  1  0
 20 22  1  0
 22 23  1  0
 22 24  2  0
 24 25  1  0
 24 26  1  0
 26 27  1  0
 27 28  2  0
 27 29  2  0
 27 30  1  0
 30 31  1  0
 31 32  1  0
 31 33  1  0
 31 34  1  0
 34 35  1  0
 34 36  1  0
 34 37  1  0
 37 38  1  0
 38 39  1  0
 38 40  1  0
 38 41  1  0
 41 42  1  0
 41 43  1  0
 26 44  2  0
 44 45  1  0
 15 46  2  0
 46 47  1  0
 46 48  1  0
 48 49  1  0
 48  2  2  0
 44 19  1  0
 41 30  1  0
M  CHG  2   3  -1  18  -1
M  END
>  <UniqueID>  (32) 
27

>  <SMILES>  (32) 
NCC/N=c1\[n-]cccc1C(=O)[N-]c1cccc(S(=O)(=O)N2CCOCC2)c1

>  <Energy>  (32) 
60.335897136144396

>  <Genealogy>  (32) 
NCCN=c1[n-]cccc1C(=O)[N-]c1cccc(S(=O)(=O)N2CCOCC2)c1 (protonated)
NCC/N=c1\[n-]cccc1C(=O)[N-]c1cccc(S(=O)(=O)N2CCOCC2)c1 (cis-trans isomerization)
NCC/N=c1\[n-]cccc1C(=O)[N-]c1cccc(S(=O)(=O)N2CCOCC2)c1 (3D coordinates assigned)
NCC/N=c1\[n-]cccc1C(=O)[N-]c1cccc(S(=O)(=O)N2CCOCC2)c1 (nonaromatic ring conformer: 60.335897136144396 kcal/mol)

>  <smiles>  (32) 
NCCN=c1[nH]cccc1C(=O)Nc1cccc(S(=O)(=O)N2CCOCC2)c1

>  <score_type>  (32) 
oracle

>  <origin>  (32) 
adg

>  <m_score__min__energy>  (32) 
-11.98

>  <m_primary>  (32) 
energy

$$$$
32:0
     RDKit          3D

 81 86  0  0  0  0  0  0  0  0999 V2000
   56.9970   34.5210   44.8950 C   0  0  0  0  0  0  0  0  0  0  0  0
   57.2670   33.6860   46.0160 O   0  0  0  0  0  0  0  0  0  0  0  0
   58.4820   33.6700   46.7180 C   0  0  0  0  0  0  0  0  0  0  0  0
   58.5100   33.0720   47.9820 C   0  0  0  0  0  0  0  0  0  0  0  0
   59.6990   33.0200   48.7160 C   0  0  0  0  0  0  0  0  0  0  0  0
   60.8810   33.5720   48.1980 C   0  0  0  0  0  0  0  0  0  0  0  0
   62.1080   33.5060   48.9520 N   0  0  0  0  0  0  0  0  0  0  0  0
   62.5020   34.6130   49.8300 C   0  0  0  0  0  0  0  0  0  0  0  0
   63.2020   34.0890   51.1000 C   0  0  0  0  0  0  0  0  0  0  0  0
   64.0630   32.8930   50.8810 N   0  0  0  0  0  0  0  0  0  0  0  0
   63.5410   31.6850   51.5620 C   0  0  0  0  0  0  0  0  0  0  0  0
   62.0260   31.5630   51.3660 C   0  0  0  0  0  0  0  0  0  0  0  0
   61.6290   30.1390   51.1050 C   0  0  0  0  0  0  0  0  0  0  0  0
   61.7010   29.0830   52.0080 C   0  0  0  0  0  0  0  0  0  0  0  0
   61.3750   27.9200   51.4000 N   0  0  0  0  0  0  0  0  0  0  0  0
   61.1140   28.2310   50.1180 C   0  0  0  0  0  0  0  0  0  0  0  0
   60.7720   27.3550   49.0900 C   0  0  0  0  0  0  0  0  0  0  0  0
   60.5820   27.8910   47.8000 C   0  0  0  0  0  0  0  0  0  0  0  0
   60.1420   26.8320   46.4650 S   0  0  0  0  0  0  0  0  0  0  0  0
   61.3350   26.0260   46.0310 O   0  0  0  0  0  0  0  0  0  0  0  0
   59.6850   27.6690   45.3050 O   0  0  0  0  0  0  0  0  0  0  0  0
   58.8640   25.7580   46.9260 N   0  0  0  0  0  0  0  0  0  0  0  0
   58.2590   24.8570   45.9950 C   0  0  0  0  0  0  0  0  0  0  0  0
   58.8670   23.6200   45.7390 C   0  0  0  0  0  0  0  0  0  0  0  0
   58.2970   22.7270   44.8310 C   0  0  0  0  0  0  0  0  0  0  0  0
   57.1070   23.0560   44.1830 C   0  0  0  0  0  0  0  0  0  0  0  0
   56.4840   24.2810   44.4380 C   0  0  0  0  0  0  0  0  0  0  0  0
   57.0510   25.1990   45.3430 C   0  0  0  0  0  0  0  0  0  0  0  0
   56.3820   26.5010   45.5870 C   0  0  0  0  0  0  0  0  0  0  0  0
   55.2780   26.5330   46.1970 O   0  0  0  0  0  0  0  0  0  0  0  0
   56.9850   27.7290   45.1470 N   0  0  0  0  0  0  0  0  0  0  0  0
   56.3250   29.0240   45.3030 C   0  0  0  0  0  0  0  0  0  0  0  0
   56.9370   30.0390   44.3770 C   0  0  0  0  0  0  0  0  0  0  0  0
   56.4610   30.1670   43.0620 C   0  0  0  0  0  0  0  0  0  0  0  0
   57.0140   31.1220   42.2030 C   0  0  0  0  0  0  0  0  0  0  0  0
   58.0420   31.9560   42.6520 C   0  0  0  0  0  0  0  0  0  0  0  0
   58.5170   31.8390   43.9620 C   0  0  0  0  0  0  0  0  0  0  0  0
   57.9660   30.8850   44.8240 C   0  0  0  0  0  0  0  0  0  0  0  0
   60.7240   29.2820   47.5800 C   0  0  0  0  0  0  0  0  0  0  0  0
   61.0720   30.1400   48.6400 C   0  0  0  0  0  0  0  0  0  0  0  0
   61.2590   29.5760   49.9000 C   0  0  0  0  0  0  0  0  0  0  0  0
   64.3670   32.6400   49.4580 C   0  0  0  0  0  0  0  0  0  0  0  0
   63.0810   32.4500   48.6460 C   0  0  0  0  0  0  0  0  0  0  0  0
   60.8510   34.1820   46.9320 C   0  0  0  0  0  0  0  0  0  0  0  0
   59.6630   34.2300   46.1960 C   0  0  0  0  0  0  0  0  0  0  0  0
   56.6762   35.5131   45.2456 H   0  0  0  0  0  0  0  0  0  0  0  0
   57.9077   34.6239   44.2866 H   0  0  0  0  0  0  0  0  0  0  0  0
   56.1985   34.0712   44.2866 H   0  0  0  0  0  0  0  0  0  0  0  0
   57.5899   32.6394   48.4018 H   0  0  0  0  0  0  0  0  0  0  0  0
   59.7081   32.5428   49.7071 H   0  0  0  0  0  0  0  0  0  0  0  0
   63.1918   35.2753   49.2864 H   0  0  0  0  0  0  0  0  0  0  0  0
   61.5969   35.1616   50.1298 H   0  0  0  0  0  0  0  0  0  0  0  0
   63.8310   34.8961   51.5037 H   0  0  0  0  0  0  0  0  0  0  0  0
   62.4049   33.7787   51.7916 H   0  0  0  0  0  0  0  0  0  0  0  0
   64.0319   30.7942   51.1432 H   0  0  0  0  0  0  0  0  0  0  0  0
   63.7522   31.7675   52.6384 H   0  0  0  0  0  0  0  0  0  0  0  0
   61.5163   31.9176   52.2740 H   0  0  0  0  0  0  0  0  0  0  0  0
   61.7354   32.1721   50.4974 H   0  0  0  0  0  0  0  0  0  0  0  0
   61.9832   29.1804   53.0667 H   0  0  0  0  0  0  0  0  0  0  0  0
   61.3590   26.9710   51.8350 H   0  0  0  0  0  0  0  0  0  0  0  0
   60.6538   26.2779   49.2792 H   0  0  0  0  0  0  0  0  0  0  0  0
   59.7994   23.3517   46.2573 H   0  0  0  0  0  0  0  0  0  0  0  0
   58.7864   21.7634   44.6264 H   0  0  0  0  0  0  0  0  0  0  0  0
   56.6574   22.3498   43.4694 H   0  0  0  0  0  0  0  0  0  0  0  0
   55.5423   24.5303   43.9271 H   0  0  0  0  0  0  0  0  0  0  0  0
   57.9570   27.7210   44.7660 H   0  0  0  0  0  0  0  0  0  0  0  0
   55.2559   28.9167   45.0676 H   0  0  0  0  0  0  0  0  0  0  0  0
   56.4509   29.3660   46.3409 H   0  0  0  0  0  0  0  0  0  0  0  0
   55.6504   29.5139   42.7064 H   0  0  0  0  0  0  0  0  0  0  0  0
   56.6397   31.2170   41.1730 H   0  0  0  0  0  0  0  0  0  0  0  0
   58.4777   32.7049   41.9743 H   0  0  0  0  0  0  0  0  0  0  0  0
   59.3244   32.4975   44.3148 H   0  0  0  0  0  0  0  0  0  0  0  0
   58.3394   30.7968   45.8549 H   0  0  0  0  0  0  0  0  0  0  0  0
   60.5613   29.6953   46.5737 H   0  0  0  0  0  0  0  0  0  0  0  0
   61.1925   31.2214   48.4787 H   0  0  0  0  0  0  0  0  0  0  0  0
   64.9254   33.4963   49.0519 H   0  0  0  0  0  0  0  0  0  0  0  0
   64.9655   31.7199   49.3861 H   0  0  0  0  0  0  0  0  0  0  0  0
   63.3238   32.4836   47.5737 H   0  0  0  0  0  0  0  0  0  0  0  0
   62.6392   31.4777   48.9094 H   0  0  0  0  0  0  0  0  0  0  0  0
   61.7686   34.6248   46.5173 H   0  0  0  0  0  0  0  0  0  0  0  0
   59.6514   34.7074   45.2050 H   0  0  0  0  0  0  0  0  0  0  0  0
  1  2  1  0
  2  3  1  0
  3  4  2  0
  4  5  1  0
  5  6  2  0
  6  7  1  0
  7  8  1  0
  8  9  1  0
  9 10  1  0
 10 11  1  0
 11 12  1  0
 12 13  1  0
 13 14  2  0
 14 15  1  0
 15 16  1  0
 16 17  2  0
 17 18  1  0
 18 19  1  0
 19 20  2  0
 19 21  2  0
 19 22  1  0
 22 23  1  0
 23 24  2  0
 24 25  1  0
 25 26  2  0
 26 27  1  0
 27 28  2  0
 28 29  1  0
 29 30  2  0
 29 31  1  0
 31 32  1  0
 32 33  1  0
 33 34  2  0
 34 35  1  0
 35 36  2  0
 36 37  1  0
 37 38  2  0
 18 39  2  0
 39 40  1  0
 40 41  2  0
 10 42  1  0
 42 43  1  0
  6 44  1  0
 44 45  2  0
 45  3  1  0
 43  7  1  0
 41 13  1  0
 41 16  1  0
 28 23  1  0
 38 33  1  0
  1 46  1  0
  1 47  1  0
  1 48  1  0
  4 49  1  0
  5 50  1  0
  8 51  1  0
  8 52  1  0
  9 53  1  0
  9 54  1  0
 11 55  1  0
 11 56  1  0
 12 57  1  0
 12 58  1  0
 14 59  1  0
 15 60  1  0
 17 61  1  0
 24 62  1  0
 25 63  1  0
 26 64  1  0
 27 65  1  0
 31 66  1  0
 32 67  1  0
 32 68  1  0
 34 69  1  0
 35 70  1  0
 36 71  1  0
 37 72  1  0
 38 73  1  0
 39 74  1  0
 40 75  1  0
 42 76  1  0
 42 77  1  0
 43 78  1  0
 43 79  1  0
 44 80  1  0
 45 81  1  0
M  CHG  1  22  -1
M  END
>  <UniqueID>  (33) 
28

>  <SMILES>  (33) 
COc1ccc(N2CCN(CCc3c[nH]c4cc(S(=O)(=O)[N-]c5ccccc5C(=O)NCc5ccccc5)ccc34)CC2)cc1

>  <Energy>  (33) 
139.40204259419517

>  <Genealogy>  (33) 
COc1ccc(N2CCN(CCc3c[nH]c4cc(S(=O)(=O)[N-]c5ccccc5C(=O)NCc5ccccc5)ccc34)CC2)cc1 (protonated)
COc1ccc(N2CCN(CCc3c[nH]c4cc(S(=O)(=O)[N-]c5ccccc5C(=O)NCc5ccccc5)ccc34)CC2)cc1 (3D coordinates assigned)
COc1ccc(N2CCN(CCc3c[nH]c4cc(S(=O)(=O)[N-]c5ccccc5C(=O)NCc5ccccc5)ccc34)CC2)cc1 (nonaromatic ring conformer: 139.40204259419517 kcal/mol)

>  <smiles>  (33) 
COc1ccc(N2CCN(CCc3c[nH]c4cc(S(=O)(=O)Nc5ccccc5C(=O)NCc5ccccc5)ccc34)CC2)cc1

>  <score_type>  (33) 
oracle

>  <origin>  (33) 
adg

>  <m_score__min__energy>  (33) 
-12.119999999999999

>  <m_primary>  (33) 
energy

$$$$
33:0
     RDKit          3D

 47 49  0  0  0  0  0  0  0  0999 V2000
   56.6340   21.8130   42.3290 N   0  0  0  0  0  0  0  0  0  0  0  0
   57.2270   21.8210   43.6190 C   0  0  0  0  0  0  0  0  0  0  0  0
   57.6890   20.7720   44.1940 N   0  0  0  0  0  0  0  0  0  0  0  0
   57.3000   23.1060   44.3050 C   0  0  0  0  0  0  0  0  0  0  0  0
   57.3950   24.2860   43.5560 C   0  0  0  0  0  0  0  0  0  0  0  0
   57.4400   25.4510   44.2820 C   0  0  0  0  0  0  0  0  0  0  0  0
   57.3960   25.5090   45.6580 C   0  0  0  0  0  0  0  0  0  0  0  0
   57.4090   26.7160   46.3480 N   0  0  0  0  0  0  0  0  0  0  0  0
   58.5320   27.3090   46.9830 C   0  0  0  0  0  0  0  0  0  0  0  0
   59.1320   26.5400   47.9470 C   0  0  0  0  0  0  0  0  0  0  0  0
   60.2170   26.9950   48.6120 C   0  0  0  0  0  0  0  0  0  0  0  0
   60.7290   28.2170   48.3360 C   0  0  0  0  0  0  0  0  0  0  0  0
   60.1320   28.9850   47.3760 C   0  0  0  0  0  0  0  0  0  0  0  0
   59.0040   28.6020   46.6350 C   0  0  0  0  0  0  0  0  0  0  0  0
   58.3010   29.2920   45.7330 N   0  0  0  0  0  0  0  0  0  0  0  0
   57.5550   30.0240   44.7750 C   0  0  1  0  0  0  0  0  0  0  0  0
   56.1180   29.5530   44.8660 C   0  0  0  0  0  0  0  0  0  0  0  0
   55.1780   30.3450   44.6000 O   0  0  0  0  0  0  0  0  0  0  0  0
   55.7780   28.2680   45.2440 O   0  0  0  0  0  0  0  0  0  0  0  0
   57.7480   31.4620   44.8860 C   0  0  0  0  0  0  0  0  0  0  0  0
   57.9060   31.9670   46.1940 C   0  0  0  0  0  0  0  0  0  0  0  0
   58.2210   33.2700   46.4520 C   0  0  0  0  0  0  0  0  0  0  0  0
   58.4070   34.1830   45.4440 C   0  0  0  0  0  0  0  0  0  0  0  0
   58.2600   33.7250   44.1540 C   0  0  0  0  0  0  0  0  0  0  0  0
   57.9330   32.3780   43.8940 C   0  0  0  0  0  0  0  0  0  0  0  0
   57.7200   31.9820   42.2100 Cl  0  0  0  0  0  0  0  0  0  0  0  0
   57.3030   24.3340   46.3820 C   0  0  0  0  0  0  0  0  0  0  0  0
   57.2560   23.1450   45.6850 C   0  0  0  0  0  0  0  0  0  0  0  0
   56.2520   22.6660   41.8830 H   0  0  0  0  0  0  0  0  0  0  0  0
   56.5700   20.9200   41.7860 H   0  0  0  0  0  0  0  0  0  0  0  0
   57.1700   19.8670   44.1080 H   0  0  0  0  0  0  0  0  0  0  0  0
   58.5600   20.7900   44.7360 H   0  0  0  0  0  0  0  0  0  0  0  0
   57.4312   24.2799   42.4566 H   0  0  0  0  0  0  0  0  0  0  0  0
   57.5161   26.3990   43.7293 H   0  0  0  0  0  0  0  0  0  0  0  0
   56.5020   27.2640   46.4150 H   0  0  0  0  0  0  0  0  0  0  0  0
   58.7268   25.5445   48.1809 H   0  0  0  0  0  0  0  0  0  0  0  0
   60.6874   26.3675   49.3833 H   0  0  0  0  0  0  0  0  0  0  0  0
   61.6128   28.5867   48.8765 H   0  0  0  0  0  0  0  0  0  0  0  0
   60.5670   29.9740   47.1696 H   0  0  0  0  0  0  0  0  0  0  0  0
   57.9700   28.1850   45.0680 H   0  0  0  0  0  0  0  0  0  0  0  0
   57.9184   29.8221   43.7566 H   0  0  0  0  0  0  0  0  0  0  0  0
   57.7694   31.2808   47.0428 H   0  0  0  0  0  0  0  0  0  0  0  0
   58.3288   33.5974   47.4966 H   0  0  0  0  0  0  0  0  0  0  0  0
   58.6616   35.2317   45.6570 H   0  0  0  0  0  0  0  0  0  0  0  0
   58.3997   34.4204   43.3132 H   0  0  0  0  0  0  0  0  0  0  0  0
   57.2676   24.3476   47.4813 H   0  0  0  0  0  0  0  0  0  0  0  0
   57.1813   22.2006   46.2440 H   0  0  0  0  0  0  0  0  0  0  0  0
  1  2  1  0
  2  3  2  0
  2  4  1  0
  4  5  2  0
  5  6  1  0
  6  7  2  0
  7  8  1  0
  8  9  1  0
  9 10  2  0
 10 11  1  0
 11 12  2  0
 12 13  1  0
 13 14  2  0
 14 15  1  0
 15 16  1  0
 16 17  1  0
 17 18  2  0
 17 19  1  0
 16 20  1  0
 20 21  2  0
 21 22  1  0
 22 23  2  0
 23 24  1  0
 24 25  2  0
 25 26  1  0
  7 27  1  0
 27 28  2  0
 28  4  1  0
 14  9  1  0
 25 20  1  0
  1 29  1  0
  1 30  1  0
  3 31  1  0
  3 32  1  0
  5 33  1  0
  6 34  1  0
  8 35  1  0
 10 36  1  0
 11 37  1  0
 12 38  1  0
 13 39  1  0
 15 40  1  0
 16 41  1  6
 21 42  1  0
 22 43  1  0
 23 44  1  0
 24 45  1  0
 27 46  1  0
 28 47  1  0
M  CHG  2   3   1  19  -1
M  END
>  <UniqueID>  (34) 
29

>  <SMILES>  (34) 
NC(=[NH2+])c1ccc(Nc2ccccc2N[C@@H](C(=O)[O-])c2ccccc2Cl)cc1

>  <Energy>  (34) 
233.32430681556977

>  <Genealogy>  (34) 
NC(=[NH2+])c1ccc(Nc2ccccc2NC(C(=O)[O-])c2ccccc2Cl)cc1 (protonated)
NC(=[NH2+])c1ccc(Nc2ccccc2N[C@@H](C(=O)[O-])c2ccccc2Cl)cc1 (chirality)
NC(=[NH2+])c1ccc(Nc2ccccc2N[C@@H](C(=O)[O-])c2ccccc2Cl)cc1 (3D coordinates assigned)
NC(=[NH2+])c1ccc(Nc2ccccc2N[C@@H](C(=O)[O-])c2ccccc2Cl)cc1 (optimized conformer: 233.32430681556977 kcal/mol)

>  <smiles>  (34) 
N=C(N)c1ccc(Nc2ccccc2NC(C(=O)O)c2ccccc2Cl)cc1

>  <score_type>  (34) 
oracle

>  <origin>  (34) 
adg

>  <m_score__min__energy>  (34) 
-10.640000000000001

>  <m_primary>  (34) 
energy

$$$$
34:0
     RDKit          3D

 41 42  0  0  0  0  0  0  0  0999 V2000
   58.0530   22.8560   45.8150 C   0  0  0  0  0  0  0  0  0  0  0  0
   57.8300   24.3350   45.8210 C   0  0  0  0  0  0  0  0  0  0  0  0
   58.9110   25.2130   45.7060 C   0  0  0  0  0  0  0  0  0  0  0  0
   58.6930   26.5990   45.7350 C   0  0  0  0  0  0  0  0  0  0  0  0
   59.8740   27.5260   45.6120 C   0  0  0  0  0  0  0  0  0  0  0  0
   57.3690   27.0910   45.8510 C   0  0  0  0  0  0  0  0  0  0  0  0
   57.0800   28.5750   45.8940 C   0  0  0  0  0  0  0  0  0  0  0  0
   55.8040   28.8370   45.2410 N   0  0  0  0  0  0  0  0  0  0  0  0
   55.6240   29.7190   44.1260 C   0  0  0  0  0  0  0  0  0  0  0  0
   54.6530   29.5220   43.3470 O   0  0  0  0  0  0  0  0  0  0  0  0
   56.5550   30.8290   43.8450 C   0  0  0  0  0  0  0  0  0  0  0  0
   57.0250   31.0530   42.5450 C   0  0  0  0  0  0  0  0  0  0  0  0
   57.9180   32.0930   42.2920 C   0  0  0  0  0  0  0  0  0  0  0  0
   58.3620   32.9100   43.3350 C   0  0  0  0  0  0  0  0  0  0  0  0
   57.9230   32.6930   44.6570 C   0  0  0  0  0  0  0  0  0  0  0  0
   58.3880   33.5350   45.7430 N   0  0  0  0  0  0  0  0  0  0  0  0
   58.0010   33.2470   47.1300 C   0  0  0  0  0  0  0  0  0  0  0  0
   59.2540   34.6900   45.4740 C   0  0  0  0  0  0  0  0  0  0  0  0
   57.0180   31.6340   44.8960 C   0  0  0  0  0  0  0  0  0  0  0  0
   56.3160   26.1620   45.9930 C   0  0  0  0  0  0  0  0  0  0  0  0
   55.1280   26.5520   46.1440 O   0  0  0  0  0  0  0  0  0  0  0  0
   56.5730   24.8280   45.9720 N   0  0  0  0  0  0  0  0  0  0  0  0
   58.1083   22.4893   46.8506 H   0  0  0  0  0  0  0  0  0  0  0  0
   57.2193   22.3616   45.2950 H   0  0  0  0  0  0  0  0  0  0  0  0
   58.9955   22.6294   45.2950 H   0  0  0  0  0  0  0  0  0  0  0  0
   59.9315   24.8183   45.5929 H   0  0  0  0  0  0  0  0  0  0  0  0
   60.2281   27.8039   46.6157 H   0  0  0  0  0  0  0  0  0  0  0  0
   60.6827   27.0190   45.0652 H   0  0  0  0  0  0  0  0  0  0  0  0
   59.5736   28.4320   45.0652 H   0  0  0  0  0  0  0  0  0  0  0  0
   57.0325   28.9098   46.9407 H   0  0  0  0  0  0  0  0  0  0  0  0
   57.8796   29.1211   45.3721 H   0  0  0  0  0  0  0  0  0  0  0  0
   56.6885   30.4064   41.7212 H   0  0  0  0  0  0  0  0  0  0  0  0
   58.2747   32.2713   41.2668 H   0  0  0  0  0  0  0  0  0  0  0  0
   59.0618   33.7316   43.1222 H   0  0  0  0  0  0  0  0  0  0  0  0
   58.6902   33.7599   47.8170 H   0  0  0  0  0  0  0  0  0  0  0  0
   56.9753   33.6032   47.3060 H   0  0  0  0  0  0  0  0  0  0  0  0
   58.0477   32.1622   47.3060 H   0  0  0  0  0  0  0  0  0  0  0  0
   59.5842   35.1304   46.4264 H   0  0  0  0  0  0  0  0  0  0  0  0
   60.1318   34.3636   44.8971 H   0  0  0  0  0  0  0  0  0  0  0  0
   58.6947   35.4412   44.8971 H   0  0  0  0  0  0  0  0  0  0  0  0
   56.6717   31.4383   45.9215 H   0  0  0  0  0  0  0  0  0  0  0  0
  1  2  1  0
  2  3  2  0
  3  4  1  0
  4  5  1  0
  4  6  2  0
  6  7  1  0
  7  8  1  0
  8  9  1  0
  9 10  2  0
  9 11  1  0
 11 12  2  0
 12 13  1  0
 13 14  2  0
 14 15  1  0
 15 16  1  0
 16 17  1  0
 16 18  1  0
 15 19  2  0
  6 20  1  0
 20 21  2  0
 20 22  1  0
 22  2  1  0
 19 11  1  0
  1 23  1  0
  1 24  1  0
  1 25  1  0
  3 26  1  0
  5 27  1  0
  5 28  1  0
  5 29  1  0
  7 30  1  0
  7 31  1  0
 12 32  1  0
 13 33  1  0
 14 34  1  0
 17 35  1  0
 17 36  1  0
 17 37  1  0
 18 38  1  0
 18 39  1  0
 18 40  1  0
 19 41  1  0
M  CHG  2   8  -1  22  -1
M  END
>  <UniqueID>  (35) 
30

>  <SMILES>  (35) 
Cc1cc(C)c(C[N-]C(=O)c2cccc(N(C)C)c2)c(=O)[n-]1

>  <Energy>  (35) 
47.27407244447618

>  <Genealogy>  (35) 
Cc1cc(C)c(C[N-]C(=O)c2cccc(N(C)C)c2)c(=O)[n-]1 (protonated)
Cc1cc(C)c(C[N-]C(=O)c2cccc(N(C)C)c2)c(=O)[n-]1 (3D coordinates assigned)
Cc1cc(C)c(C[N-]C(=O)c2cccc(N(C)C)c2)c(=O)[n-]1 (optimized conformer: 47.27407244447618 kcal/mol)

>  <smiles>  (35) 
Cc1cc(C)c(CNC(=O)c2cccc(N(C)C)c2)c(=O)[nH]1

>  <score_type>  (35) 
oracle

>  <origin>  (35) 
adg

>  <m_score__min__energy>  (35) 
-11.51

>  <m_primary>  (35) 
energy

$$$$
35:0
     RDKit          3D

 46 49  0  0  1  0  0  0  0  0999 V2000
   55.2440   29.6550   44.1500 O   0  0  0  0  0  0  0  0  0  0  0  0
   56.5060   29.5940   44.3290 C   0  0  0  0  0  0  0  0  0  0  0  0
   57.3720   28.6720   43.5550 C   0  0  0  0  0  0  0  0  0  0  0  0
   58.3940   27.9500   44.3440 C   0  0  2  0  0  0  0  0  0  0  0  0
   57.9480   26.7360   45.0220 C   0  0  0  0  0  0  0  0  0  0  0  0
   57.6770   26.6450   46.3800 C   0  0  0  0  0  0  0  0  0  0  0  0
   57.2550   25.4740   46.9680 C   0  0  0  0  0  0  0  0  0  0  0  0
   57.0860   24.3370   46.2080 C   0  0  0  0  0  0  0  0  0  0  0  0
   56.6360   23.0960   46.8410 C   0  0  0  0  0  0  0  0  0  0  0  0
   55.5430   22.5400   46.4850 O   0  0  0  0  0  0  0  0  0  0  0  0
   57.3650   22.4850   47.8340 O   0  0  0  0  0  0  0  0  0  0  0  0
   57.3430   24.3880   44.8670 C   0  0  0  0  0  0  0  0  0  0  0  0
   57.7670   25.5740   44.2920 C   0  0  0  0  0  0  0  0  0  0  0  0
   59.0230   28.8490   45.3440 C   0  0  0  0  0  0  0  0  0  0  0  0
   58.3950   30.0210   45.7850 C   0  0  0  0  0  0  0  0  0  0  0  0
   58.9720   30.8280   46.6950 N   0  0  0  0  0  0  0  0  0  0  0  0
   60.1740   30.5470   47.2220 C   0  0  0  0  0  0  0  0  0  0  0  0
   60.8680   31.6710   48.4230 S   0  0  0  0  0  0  0  0  0  0  0  0
   59.8650   33.1710   48.5640 C   0  0  0  0  0  0  0  0  0  0  0  0
   59.3650   33.6660   47.2780 C   0  0  0  0  0  0  0  0  0  0  0  0
   60.1950   34.0500   46.2390 C   0  0  0  0  0  0  0  0  0  0  0  0
   59.6350   34.5060   45.0580 C   0  0  0  0  0  0  0  0  0  0  0  0
   58.2620   34.5900   44.8840 C   0  0  0  0  0  0  0  0  0  0  0  0
   57.4320   34.2100   45.9100 C   0  0  0  0  0  0  0  0  0  0  0  0
   57.9860   33.7540   47.0900 C   0  0  0  0  0  0  0  0  0  0  0  0
   60.7870   29.4330   46.8130 N   0  0  0  0  0  0  0  0  0  0  0  0
   60.2580   28.5980   45.9110 C   0  0  0  0  0  0  0  0  0  0  0  0
   60.9110   27.5780   45.5920 O   0  0  0  0  0  0  0  0  0  0  0  0
   57.1250   30.4230   45.2910 N   0  0  0  0  0  0  0  0  0  0  0  0
   56.7256   27.9245   43.0718 H   0  0  0  0  0  0  0  0  0  0  0  0
   57.9268   29.3020   42.8441 H   0  0  0  0  0  0  0  0  0  0  0  0
   59.1155   27.6195   43.5823 H   0  0  0  0  0  0  0  0  0  0  0  0
   57.8037   27.5392   47.0080 H   0  0  0  0  0  0  0  0  0  0  0  0
   57.0519   25.4458   48.0487 H   0  0  0  0  0  0  0  0  0  0  0  0
   57.7690   21.5470   47.7690 H   0  0  0  0  0  0  0  0  0  0  0  0
   57.2134   23.4894   44.2460 H   0  0  0  0  0  0  0  0  0  0  0  0
   57.9683   25.5936   43.2107 H   0  0  0  0  0  0  0  0  0  0  0  0
   58.4810   31.7040   47.0110 H   0  0  0  0  0  0  0  0  0  0  0  0
   59.0030   32.9533   49.2117 H   0  0  0  0  0  0  0  0  0  0  0  0
   60.5143   33.9550   48.9809 H   0  0  0  0  0  0  0  0  0  0  0  0
   61.2879   33.9934   46.3505 H   0  0  0  0  0  0  0  0  0  0  0  0
   60.2978   34.8102   44.2345 H   0  0  0  0  0  0  0  0  0  0  0  0
   57.8426   34.9566   43.9355 H   0  0  0  0  0  0  0  0  0  0  0  0
   56.3397   34.2681   45.7934 H   0  0  0  0  0  0  0  0  0  0  0  0
   57.3173   33.4501   47.9088 H   0  0  0  0  0  0  0  0  0  0  0  0
   56.6480   31.2930   45.6120 H   0  0  0  0  0  0  0  0  0  0  0  0
  1  2  2  0
  2  3  1  0
  3  4  1  0
  4  5  1  0
  5  6  2  0
  6  7  1  0
  7  8  2  0
  8  9  1  0
  9 10  2  0
  9 11  1  0
  8 12  1  0
 12 13  2  0
  4 14  1  0
 14 15  2  0
 15 16  1  0
 16 17  1  0
 17 18  1  0
 18 19  1  0
 19 20  1  0
 20 21  2  0
 21 22  1  0
 22 23  2  0
 23 24  1  0
 24 25  2  0
 17 26  2  0
 26 27  1  0
 27 28  2  0
 15 29  1  0
 29  2  1  0
 13  5  1  0
 27 14  1  0
 25 20  1  0
  3 30  1  0
  3 31  1  0
  4 32  1  6
  6 33  1  0
  7 34  1  0
 11 35  1  0
 12 36  1  0
 13 37  1  0
 16 38  1  0
 19 39  1  0
 19 40  1  0
 21 41  1  0
 22 42  1  0
 23 43  1  0
 24 44  1  0
 25 45  1  0
 29 46  1  0
M  END
>  <smiles>  (36) 
O=C1CC(c2ccc(C(=O)O)cc2)c2c([nH]c(SCc3ccccc3)nc2=O)N1

>  <score_type>  (36) 
oracle

>  <origin>  (36) 
adg

>  <m_score__min__energy>  (36) 
-9.6899999999999995

>  <m_primary>  (36) 
energy

$$$$
36:0
     RDKit          3D

 55 57  0  0  0  0  0  0  0  0999 V2000
   62.6630   34.5870   49.7260 C   0  0  0  0  0  0  0  0  0  0  0  0
   62.7180   33.1400   50.0000 N   0  0  0  0  0  0  0  0  0  0  0  0
   63.2730   32.8810   51.3410 C   0  0  0  0  0  0  0  0  0  0  0  0
   63.4200   32.3800   48.9370 C   0  0  0  0  0  0  0  0  0  0  0  0
   62.4940   31.5090   48.0550 C   0  0  0  0  0  0  0  0  0  0  0  0
   61.3160   30.9190   48.8530 C   0  0  1  0  0  0  0  0  0  0  0  0
   60.3200   31.9330   49.0120 O   0  0  0  0  0  0  0  0  0  0  0  0
   59.7160   32.6540   47.9680 C   0  0  0  0  0  0  0  0  0  0  0  0
   59.7020   34.0510   48.0550 C   0  0  0  0  0  0  0  0  0  0  0  0
   59.1230   34.8170   47.0420 C   0  0  0  0  0  0  0  0  0  0  0  0
   58.5530   34.1950   45.9300 C   0  0  0  0  0  0  0  0  0  0  0  0
   58.5520   32.7930   45.8180 C   0  0  0  0  0  0  0  0  0  0  0  0
   57.9670   32.1490   44.6650 N   0  0  0  0  0  0  0  0  0  0  0  0
   57.7550   32.8960   43.4170 C   0  0  0  0  0  0  0  0  0  0  0  0
   57.7930   31.9420   42.2170 C   0  0  0  0  0  0  0  0  0  0  0  0
   56.8170   30.8400   42.3270 N   0  0  0  0  0  0  0  0  0  0  0  0
   56.4580   30.4560   43.7050 C   0  0  0  0  0  0  0  0  0  0  0  0
   57.5790   30.7330   44.7140 C   0  0  0  0  0  0  0  0  0  0  0  0
   59.1320   32.0300   46.8490 C   0  0  0  0  0  0  0  0  0  0  0  0
   60.7280   29.7140   48.1460 C   0  0  0  0  0  0  0  0  0  0  0  0
   60.1130   28.6890   48.8870 C   0  0  0  0  0  0  0  0  0  0  0  0
   59.5770   27.5740   48.2380 C   0  0  0  0  0  0  0  0  0  0  0  0
   59.6550   27.4670   46.8470 C   0  0  0  0  0  0  0  0  0  0  0  0
   58.9860   26.0630   46.0340 Cl  0  0  0  0  0  0  0  0  0  0  0  0
   60.2700   28.4790   46.1020 C   0  0  0  0  0  0  0  0  0  0  0  0
   60.8070   29.5960   46.7480 C   0  0  0  0  0  0  0  0  0  0  0  0
   62.6420   35.1397   50.6768 H   0  0  0  0  0  0  0  0  0  0  0  0
   63.5505   34.8848   49.1483 H   0  0  0  0  0  0  0  0  0  0  0  0
   61.7555   34.8166   49.1483 H   0  0  0  0  0  0  0  0  0  0  0  0
   61.7280   32.7960   50.0100 H   0  0  0  0  0  0  0  0  0  0  0  0
   62.5562   33.2155   52.1054 H   0  0  0  0  0  0  0  0  0  0  0  0
   63.4587   31.8032   51.4591 H   0  0  0  0  0  0  0  0  0  0  0  0
   64.2183   33.4310   51.4591 H   0  0  0  0  0  0  0  0  0  0  0  0
   63.9387   33.0989   48.2857 H   0  0  0  0  0  0  0  0  0  0  0  0
   64.1075   31.6893   49.4473 H   0  0  0  0  0  0  0  0  0  0  0  0
   62.0939   32.1303   47.2402 H   0  0  0  0  0  0  0  0  0  0  0  0
   63.0902   30.6712   47.6642 H   0  0  0  0  0  0  0  0  0  0  0  0
   61.6761   30.5843   49.8370 H   0  0  0  0  0  0  0  0  0  0  0  0
   60.1503   34.5485   48.9276 H   0  0  0  0  0  0  0  0  0  0  0  0
   59.1159   35.9142   47.1202 H   0  0  0  0  0  0  0  0  0  0  0  0
   58.1010   34.8062   45.1349 H   0  0  0  0  0  0  0  0  0  0  0  0
   56.7754   33.3949   43.4539 H   0  0  0  0  0  0  0  0  0  0  0  0
   58.5533   33.6447   43.3063 H   0  0  0  0  0  0  0  0  0  0  0  0
   57.5724   32.5163   41.3051 H   0  0  0  0  0  0  0  0  0  0  0  0
   58.7962   31.4920   42.1852 H   0  0  0  0  0  0  0  0  0  0  0  0
   57.2180   30.0020   41.8450 H   0  0  0  0  0  0  0  0  0  0  0  0
   55.5661   31.0248   44.0066 H   0  0  0  0  0  0  0  0  0  0  0  0
   56.2728   29.3717   43.7074 H   0  0  0  0  0  0  0  0  0  0  0  0
   57.2254   30.4879   45.7264 H   0  0  0  0  0  0  0  0  0  0  0  0
   58.4514   30.1128   44.4606 H   0  0  0  0  0  0  0  0  0  0  0  0
   59.1290   30.9322   46.7796 H   0  0  0  0  0  0  0  0  0  0  0  0
   60.0537   28.7656   49.9827 H   0  0  0  0  0  0  0  0  0  0  0  0
   59.0925   26.7786   48.8233 H   0  0  0  0  0  0  0  0  0  0  0  0
   60.3309   28.3955   45.0069 H   0  0  0  0  0  0  0  0  0  0  0  0
   61.2941   30.3870   46.1589 H   0  0  0  0  0  0  0  0  0  0  0  0
  1  2  1  0
  2  3  1  0
  2  4  1  0
  4  5  1  0
  5  6  1  0
  6  7  1  0
  7  8  1  0
  8  9  2  0
  9 10  1  0
 10 11  2  0
 11 12  1  0
 12 13  1  0
 13 14  1  0
 14 15  1  0
 15 16  1  0
 16 17  1  0
 17 18  1  0
 12 19  2  0
  6 20  1  0
 20 21  2  0
 21 22  1  0
 22 23  2  0
 23 24  1  0
 23 25  1  0
 25 26  2  0
 19  8  1  0
 26 20  1  0
 18 13  1  0
  1 27  1  0
  1 28  1  0
  1 29  1  0
  2 30  1  0
  3 31  1  0
  3 32  1  0
  3 33  1  0
  4 34  1  0
  4 35  1  0
  5 36  1  0
  5 37  1  0
  6 38  1  1
  9 39  1  0
 10 40  1  0
 11 41  1  0
 14 42  1  0
 14 43  1  0
 15 44  1  0
 15 45  1  0
 16 46  1  0
 17 47  1  0
 17 48  1  0
 18 49  1  0
 18 50  1  0
 19 51  1  0
 21 52  1  0
 22 53  1  0
 25 54  1  0
 26 55  1  0
M  CHG  1   2   1
M  END
>  <UniqueID>  (37) 
31

>  <SMILES>  (37) 
C[NH+](C)CC[C@@H](Oc1cccc(N2CCNCC2)c1)c1ccc(Cl)cc1

>  <Energy>  (37) 
62.21785235511221

>  <Genealogy>  (37) 
C[NH+](C)CCC(Oc1cccc(N2CCNCC2)c1)c1ccc(Cl)cc1 (protonated)
C[NH+](C)CC[C@@H](Oc1cccc(N2CCNCC2)c1)c1ccc(Cl)cc1 (chirality)
C[NH+](C)CC[C@@H](Oc1cccc(N2CCNCC2)c1)c1ccc(Cl)cc1 (3D coordinates assigned)
C[NH+](C)CC[C@@H](Oc1cccc(N2CCNCC2)c1)c1ccc(Cl)cc1 (nonaromatic ring conformer: 62.21785235511221 kcal/mol)

>  <smiles>  (37) 
CN(C)CCC(Oc1cccc(N2CCNCC2)c1)c1ccc(Cl)cc1

>  <score_type>  (37) 
oracle

>  <origin>  (37) 
adg

>  <m_score__min__energy>  (37) 
-6.7300000000000004

>  <m_primary>  (37) 
energy

$$$$
37:0
     RDKit          3D

 54 58  0  0  0  0  0  0  0  0999 V2000
   60.5495   33.3717   52.0924 H   0  0  0  0  0  0  0  0  0  0  0  0
   60.1540   33.3730   51.0660 C   0  0  0  0  0  0  0  0  0  0  0  0
   60.6810   34.2100   50.1360 N   0  0  0  0  0  0  0  0  0  0  0  0
   60.2240   34.2400   48.8560 C   0  0  0  0  0  0  0  0  0  0  0  0
   60.6715   34.9370   48.1322 H   0  0  0  0  0  0  0  0  0  0  0  0
   59.1820   33.3850   48.4510 C   0  0  0  0  0  0  0  0  0  0  0  0
   58.6830   33.4310   47.0510 C   0  0  0  0  0  0  0  0  0  0  0  0
   57.8900   32.4230   46.5940 N   0  0  0  0  0  0  0  0  0  0  0  0
   57.3990   32.4140   45.3240 C   0  0  0  0  0  0  0  0  0  0  0  0
   56.6510   31.4380   44.9040 N   0  0  0  0  0  0  0  0  0  0  0  0
   57.1190   30.0970   44.6940 C   0  0  0  0  0  0  0  0  0  0  0  0
   57.7300   29.4250   45.7590 C   0  0  0  0  0  0  0  0  0  0  0  0
   57.8454   29.9336   46.7275 H   0  0  0  0  0  0  0  0  0  0  0  0
   58.1960   28.1140   45.6070 C   0  0  0  0  0  0  0  0  0  0  0  0
   58.7770   27.4500   46.7380 N   0  0  0  0  0  0  0  0  0  0  0  0
   59.7850   27.9870   47.6000 C   0  0  0  0  0  0  0  0  0  0  0  0
   60.7370   27.2430   47.9580 O   0  0  0  0  0  0  0  0  0  0  0  0
   59.6660   29.3150   48.1330 N   0  0  0  0  0  0  0  0  0  0  0  0
   58.7090   29.7310   48.1870 H   0  0  0  0  0  0  0  0  0  0  0  0
   60.7610   30.0540   48.7030 C   0  0  0  0  0  0  0  0  0  0  0  0
   61.2370   29.7750   49.9970 C   0  0  0  0  0  0  0  0  0  0  0  0
   60.7552   28.9902   50.5986 H   0  0  0  0  0  0  0  0  0  0  0  0
   62.3180   30.4880   50.5240 C   0  0  0  0  0  0  0  0  0  0  0  0
   62.6751   30.2690   51.5411 H   0  0  0  0  0  0  0  0  0  0  0  0
   62.9480   31.4800   49.7620 C   0  0  0  0  0  0  0  0  0  0  0  0
   64.0350   32.2010   50.2830 C   0  0  0  0  0  0  0  0  0  0  0  0
   64.3952   31.9918   51.3011 H   0  0  0  0  0  0  0  0  0  0  0  0
   64.6600   33.1840   49.5100 C   0  0  0  0  0  0  0  0  0  0  0  0
   65.5107   33.7468   49.9218 H   0  0  0  0  0  0  0  0  0  0  0  0
   64.2070   33.4540   48.2150 C   0  0  0  0  0  0  0  0  0  0  0  0
   64.7027   34.2281   47.6108 H   0  0  0  0  0  0  0  0  0  0  0  0
   63.1260   32.7430   47.6860 C   0  0  0  0  0  0  0  0  0  0  0  0
   62.7735   32.9591   46.6667 H   0  0  0  0  0  0  0  0  0  0  0  0
   62.4890   31.7540   48.4520 C   0  0  0  0  0  0  0  0  0  0  0  0
   61.4040   31.0330   47.9310 C   0  0  0  0  0  0  0  0  0  0  0  0
   61.0545   31.2372   46.9082 H   0  0  0  0  0  0  0  0  0  0  0  0
   58.0180   27.4600   44.3780 C   0  0  0  0  0  0  0  0  0  0  0  0
   58.3395   26.4144   44.2621 H   0  0  0  0  0  0  0  0  0  0  0  0
   57.4340   28.1320   43.3010 C   0  0  0  0  0  0  0  0  0  0  0  0
   57.3073   27.6135   42.3392 H   0  0  0  0  0  0  0  0  0  0  0  0
   57.0080   29.4610   43.4350 C   0  0  0  0  0  0  0  0  0  0  0  0
   56.4110   30.1640   42.2460 C   0  0  0  0  0  0  0  0  0  0  0  0
   55.7351   30.9599   42.5919 H   0  0  0  0  0  0  0  0  0  0  0  0
   57.2153   30.6044   41.6385 H   0  0  0  0  0  0  0  0  0  0  0  0
   55.8462   29.4416   41.6385 H   0  0  0  0  0  0  0  0  0  0  0  0
   57.7070   33.4300   44.4790 N   0  0  0  0  0  0  0  0  0  0  0  0
   58.4870   34.4650   44.8840 C   0  0  0  0  0  0  0  0  0  0  0  0
   58.7231   35.2816   44.1859 H   0  0  0  0  0  0  0  0  0  0  0  0
   58.9890   34.4930   46.1850 C   0  0  0  0  0  0  0  0  0  0  0  0
   59.6133   35.3319   46.5264 H   0  0  0  0  0  0  0  0  0  0  0  0
   58.6220   32.5230   49.4120 C   0  0  0  0  0  0  0  0  0  0  0  0
   57.7958   31.8530   49.1319 H   0  0  0  0  0  0  0  0  0  0  0  0
   59.1110   32.5150   50.7190 C   0  0  0  0  0  0  0  0  0  0  0  0
   58.6773   31.8375   51.4693 H   0  0  0  0  0  0  0  0  0  0  0  0
  1  2  1  0
  2  3  2  0
  3  4  1  0
  4  5  1  0
  4  6  2  0
  6  7  1  0
  7  8  2  0
  8  9  1  0
  9 10  2  0
 10 11  1  0
 11 12  2  0
 12 13  1  0
 12 14  1  0
 14 15  1  0
 15 16  1  0
 16 17  2  0
 16 18  1  0
 18 19  1  0
 18 20  1  0
 20 21  2  0
 21 22  1  0
 21 23  1  0
 23 24  1  0
 23 25  2  0
 25 26  1  0
 26 27  1  0
 26 28  2  0
 28 29  1  0
 28 30  1  0
 30 31  1  0
 30 32  2  0
 32 33  1  0
 32 34  1  0
 34 35  2  0
 35 36  1  0
 14 37  2  0
 37 38  1  0
 37 39  1  0
 39 40  1  0
 39 41  2  0
 41 42  1  0
 42 43  1  0
 42 44  1  0
 42 45  1  0
  9 46  1  0
 46 47  1  0
 47 48  1  0
 47 49  2  0
 49 50  1  0
  6 51  1  0
 51 52  1  0
 51 53  2  0
 53 54  1  0
 53  2  1  0
 49  7  1  0
 41 11  1  0
 35 20  1  0
 34 25  1  0
M  CHG  2  15  -1  46  -1
M  END
>  <UniqueID>  (38) 
32

>  <SMILES>  (38) 
Cc1ccc([N-]C(=O)Nc2ccc3ccccc3c2)cc1/N=c1\nc(-c2cccnc2)cc[n-]1

>  <Energy>  (38) 
84.13873686714784

>  <Genealogy>  (38) 
Cc1ccc([N-]C(=O)Nc2ccc3ccccc3c2)cc1N=c1nc(-c2cccnc2)cc[n-]1 (protonated)
Cc1ccc([N-]C(=O)Nc2ccc3ccccc3c2)cc1/N=c1\nc(-c2cccnc2)cc[n-]1 (cis-trans isomerization)
Cc1ccc([N-]C(=O)Nc2ccc3ccccc3c2)cc1/N=c1\nc(-c2cccnc2)cc[n-]1 (3D coordinates assigned)
Cc1ccc([N-]C(=O)Nc2ccc3ccccc3c2)cc1/N=c1\nc(-c2cccnc2)cc[n-]1 (optimized conformer: 84.13873686714784 kcal/mol)

>  <smiles>  (38) 
Cc1ccc(NC(=O)Nc2ccc3ccccc3c2)cc1N=c1nc(-c2cccnc2)cc[nH]1

>  <score_type>  (38) 
oracle

>  <origin>  (38) 
adg

>  <m_score__min__energy>  (38) 
-12.32

>  <m_primary>  (38) 
energy

$$$$
38:0
     RDKit          3D

 56 59  0  0  0  0  0  0  0  0999 V2000
   57.3960   25.2080   43.6400 C   0  0  0  0  0  0  0  0  0  0  0  0
   56.8090   24.9760   44.9150 O   0  0  0  0  0  0  0  0  0  0  0  0
   56.4880   26.0140   45.7980 C   0  0  0  0  0  0  0  0  0  0  0  0
   55.2850   26.3670   45.9470 O   0  0  0  0  0  0  0  0  0  0  0  0
   57.5610   26.6950   46.5570 C   0  0  0  0  0  0  0  0  0  0  0  0
   58.4380   25.9530   47.3670 C   0  0  0  0  0  0  0  0  0  0  0  0
   59.4520   26.5910   48.0850 C   0  0  0  0  0  0  0  0  0  0  0  0
   59.6010   27.9870   48.0190 C   0  0  0  0  0  0  0  0  0  0  0  0
   60.6500   28.6650   48.7300 N   0  0  0  0  0  0  0  0  0  0  0  0
   60.5370   29.1040   50.0940 C   0  0  0  0  0  0  0  0  0  0  0  0
   59.4160   29.1110   50.6700 O   0  0  0  0  0  0  0  0  0  0  0  0
   61.7390   29.6260   50.8280 C   0  0  0  0  0  0  0  0  0  0  0  0
   62.0920   30.9810   50.3530 N   0  0  0  0  0  0  0  0  0  0  0  0
   61.0630   31.7220   49.8400 C   0  0  0  0  0  0  0  0  0  0  0  0
   61.2580   33.0170   49.3470 C   0  0  0  0  0  0  0  0  0  0  0  0
   60.1080   33.7770   48.7950 C   0  0  0  0  0  0  0  0  0  0  0  0
   59.6200   34.7240   49.4720 O   0  0  0  0  0  0  0  0  0  0  0  0
   59.5100   33.4510   47.4750 C   0  0  0  0  0  0  0  0  0  0  0  0
   58.9580   32.1810   47.2230 C   0  0  0  0  0  0  0  0  0  0  0  0
   58.4040   31.8840   45.9740 C   0  0  0  0  0  0  0  0  0  0  0  0
   58.3900   32.8490   44.9580 C   0  0  0  0  0  0  0  0  0  0  0  0
   57.8310   32.5160   43.6060 C   0  0  0  0  0  0  0  0  0  0  0  0
   58.9700   34.1040   45.1930 C   0  0  0  0  0  0  0  0  0  0  0  0
   59.5240   34.4040   46.4400 C   0  0  0  0  0  0  0  0  0  0  0  0
   62.5390   33.5780   49.4090 C   0  0  0  0  0  0  0  0  0  0  0  0
   62.7320   34.7510   48.9830 O   0  0  0  0  0  0  0  0  0  0  0  0
   63.6080   32.8270   49.9260 C   0  0  0  0  0  0  0  0  0  0  0  0
   64.9070   33.3730   49.9760 C   0  0  0  0  0  0  0  0  0  0  0  0
   65.9750   32.6200   50.4610 C   0  0  0  0  0  0  0  0  0  0  0  0
   67.5860   33.3130   50.5120 Cl  0  0  0  0  0  0  0  0  0  0  0  0
   65.7650   31.3150   50.8920 C   0  0  0  0  0  0  0  0  0  0  0  0
   64.4880   30.7550   50.8550 C   0  0  0  0  0  0  0  0  0  0  0  0
   63.3760   31.4980   50.3850 C   0  0  0  0  0  0  0  0  0  0  0  0
   58.7410   28.7250   47.1930 C   0  0  0  0  0  0  0  0  0  0  0  0
   57.7250   28.0890   46.4760 C   0  0  0  0  0  0  0  0  0  0  0  0
   58.4117   25.6094   43.7715 H   0  0  0  0  0  0  0  0  0  0  0  0
   57.4452   24.2617   43.0813 H   0  0  0  0  0  0  0  0  0  0  0  0
   56.7850   25.9323   43.0813 H   0  0  0  0  0  0  0  0  0  0  0  0
   58.3248   24.8610   47.4360 H   0  0  0  0  0  0  0  0  0  0  0  0
   60.1385   25.9970   48.7062 H   0  0  0  0  0  0  0  0  0  0  0  0
   61.4950   28.9510   48.1900 H   0  0  0  0  0  0  0  0  0  0  0  0
   61.5154   29.6672   51.9042 H   0  0  0  0  0  0  0  0  0  0  0  0
   62.5884   28.9526   50.6409 H   0  0  0  0  0  0  0  0  0  0  0  0
   60.0529   31.2873   49.8143 H   0  0  0  0  0  0  0  0  0  0  0  0
   58.9625   31.4168   48.0142 H   0  0  0  0  0  0  0  0  0  0  0  0
   57.9769   30.8875   45.7880 H   0  0  0  0  0  0  0  0  0  0  0  0
   56.8916   31.9564   43.7253 H   0  0  0  0  0  0  0  0  0  0  0  0
   57.6362   33.4454   43.0507 H   0  0  0  0  0  0  0  0  0  0  0  0
   58.5555   31.9021   43.0507 H   0  0  0  0  0  0  0  0  0  0  0  0
   58.9889   34.8565   44.3909 H   0  0  0  0  0  0  0  0  0  0  0  0
   59.9744   35.3924   46.6139 H   0  0  0  0  0  0  0  0  0  0  0  0
   65.0792   34.4026   49.6291 H   0  0  0  0  0  0  0  0  0  0  0  0
   66.6117   30.7200   51.2648 H   0  0  0  0  0  0  0  0  0  0  0  0
   64.3414   29.7196   51.1962 H   0  0  0  0  0  0  0  0  0  0  0  0
   58.8677   29.8144   47.1090 H   0  0  0  0  0  0  0  0  0  0  0  0
   57.0486   28.6828   45.8437 H   0  0  0  0  0  0  0  0  0  0  0  0
  1  2  1  0
  2  3  1  0
  3  4  2  0
  3  5  1  0
  5  6  2  0
  6  7  1  0
  7  8  2  0
  8  9  1  0
  9 10  1  0
 10 11  2  0
 10 12  1  0
 12 13  1  0
 13 14  1  0
 14 15  2  0
 15 16  1  0
 16 17  2  0
 16 18  1  0
 18 19  2  0
 19 20  1  0
 20 21  2  0
 21 22  1  0
 21 23  1  0
 23 24  2  0
 15 25  1  0
 25 26  2  0
 25 27  1  0
 27 28  2  0
 28 29  1  0
 29 30  1  0
 29 31  2  0
 31 32  1  0
 32 33  2  0
  8 34  1  0
 34 35  2  0
 35  5  1  0
 33 13  1  0
 24 18  1  0
 33 27  1  0
  1 36  1  0
  1 37  1  0
  1 38  1  0
  6 39  1  0
  7 40  1  0
  9 41  1  0
 12 42  1  0
 12 43  1  0
 14 44  1  0
 19 45  1  0
 20 46  1  0
 22 47  1  0
 22 48  1  0
 22 49  1  0
 23 50  1  0
 24 51  1  0
 28 52  1  0
 31 53  1  0
 32 54  1  0
 34 55  1  0
 35 56  1  0
M  END
>  <UniqueID>  (39) 
33

>  <SMILES>  (39) 
COC(=O)c1ccc(NC(=O)Cn2cc(C(=O)c3ccc(C)cc3)c(=O)c3cc(Cl)ccc32)cc1

>  <Energy>  (39) 
78.63701856304802

>  <Genealogy>  (39) 
COC(=O)c1ccc(NC(=O)Cn2cc(C(=O)c3ccc(C)cc3)c(=O)c3cc(Cl)ccc32)cc1 (3D coordinates assigned)
COC(=O)c1ccc(NC(=O)Cn2cc(C(=O)c3ccc(C)cc3)c(=O)c3cc(Cl)ccc32)cc1 (optimized conformer: 78.63701856304802 kcal/mol)

>  <smiles>  (39) 
COC(=O)c1ccc(NC(=O)Cn2cc(C(=O)c3ccc(C)cc3)c(=O)c3cc(Cl)ccc32)cc1

>  <score_type>  (39) 
oracle

>  <origin>  (39) 
adg

>  <m_score__min__energy>  (39) 
-9.0800000000000001

>  <m_primary>  (39) 
energy

$$$$
39:0
     RDKit          3D

 46 47  0  0  0  0  0  0  0  0999 V2000
   63.3600   33.8390   46.5670 C   0  0  0  0  0  0  0  0  0  0  0  0
   62.3210   32.9580   47.1230 N   0  0  0  0  0  0  0  0  0  0  0  0
   62.9400   31.6970   47.5720 C   0  0  0  0  0  0  0  0  0  0  0  0
   61.6210   33.6330   48.2370 C   0  0  0  0  0  0  0  0  0  0  0  0
   60.5310   34.5710   47.7010 C   0  0  0  0  0  0  0  0  0  0  0  0
   59.4850   33.7920   46.9470 C   0  0  0  0  0  0  0  0  0  0  0  0
   58.9040   34.3280   45.7870 C   0  0  0  0  0  0  0  0  0  0  0  0
   57.9580   33.5930   45.0670 C   0  0  0  0  0  0  0  0  0  0  0  0
   57.5890   32.3020   45.4900 C   0  0  0  0  0  0  0  0  0  0  0  0
   56.6460   31.5170   44.8070 O   0  0  0  0  0  0  0  0  0  0  0  0
   56.8720   30.8320   43.5730 C   0  0  0  0  0  0  0  0  0  0  0  0
   56.5180   29.3410   43.6830 C   0  0  0  0  0  0  0  0  0  0  0  0
   57.7530   28.4270   43.7300 C   0  0  0  0  0  0  0  0  0  0  0  0
   58.5910   28.6670   44.9590 C   0  0  0  0  0  0  0  0  0  0  0  0
   58.1310   28.2620   46.2240 C   0  0  0  0  0  0  0  0  0  0  0  0
   58.9220   28.4650   47.3590 C   0  0  0  0  0  0  0  0  0  0  0  0
   60.1770   29.0680   47.2390 C   0  0  0  0  0  0  0  0  0  0  0  0
   60.6450   29.4670   45.9840 C   0  0  0  0  0  0  0  0  0  0  0  0
   59.8560   29.2660   44.8460 C   0  0  0  0  0  0  0  0  0  0  0  0
   58.1760   31.7700   46.6440 C   0  0  0  0  0  0  0  0  0  0  0  0
   59.1220   32.5040   47.3650 C   0  0  0  0  0  0  0  0  0  0  0  0
   63.9178   34.3120   47.3886 H   0  0  0  0  0  0  0  0  0  0  0  0
   64.0503   33.2468   45.9483 H   0  0  0  0  0  0  0  0  0  0  0  0
   62.8886   34.6169   45.9483 H   0  0  0  0  0  0  0  0  0  0  0  0
   62.9548   31.6669   48.6715 H   0  0  0  0  0  0  0  0  0  0  0  0
   62.3572   30.8460   47.1897 H   0  0  0  0  0  0  0  0  0  0  0  0
   63.9697   31.6375   47.1897 H   0  0  0  0  0  0  0  0  0  0  0  0
   61.1583   32.8746   48.8856 H   0  0  0  0  0  0  0  0  0  0  0  0
   62.3511   34.2268   48.8066 H   0  0  0  0  0  0  0  0  0  0  0  0
   60.0553   35.0920   48.5450 H   0  0  0  0  0  0  0  0  0  0  0  0
   60.9935   35.2979   47.0171 H   0  0  0  0  0  0  0  0  0  0  0  0
   59.1947   35.3315   45.4429 H   0  0  0  0  0  0  0  0  0  0  0  0
   57.4996   34.0254   44.1654 H   0  0  0  0  0  0  0  0  0  0  0  0
   56.2493   31.2903   42.7906 H   0  0  0  0  0  0  0  0  0  0  0  0
   57.9399   30.9154   43.3228 H   0  0  0  0  0  0  0  0  0  0  0  0
   55.9342   29.1873   44.6025 H   0  0  0  0  0  0  0  0  0  0  0  0
   55.9474   29.0732   42.7815 H   0  0  0  0  0  0  0  0  0  0  0  0
   57.4186   27.3790   43.7281 H   0  0  0  0  0  0  0  0  0  0  0  0
   58.3728   28.6505   42.8492 H   0  0  0  0  0  0  0  0  0  0  0  0
   57.1452   27.7837   46.3214 H   0  0  0  0  0  0  0  0  0  0  0  0
   58.5561   28.1498   48.3473 H   0  0  0  0  0  0  0  0  0  0  0  0
   60.7971   29.2288   48.1332 H   0  0  0  0  0  0  0  0  0  0  0  0
   61.6341   29.9393   45.8908 H   0  0  0  0  0  0  0  0  0  0  0  0
   60.2281   29.5784   43.8591 H   0  0  0  0  0  0  0  0  0  0  0  0
   57.8900   30.7646   46.9867 H   0  0  0  0  0  0  0  0  0  0  0  0
   59.5835   32.0694   48.2639 H   0  0  0  0  0  0  0  0  0  0  0  0
  1  2  1  0
  2  3  1  0
  2  4  1  0
  4  5  1  0
  5  6  1  0
  6  7  2  0
  7  8  1  0
  8  9  2  0
  9 10  1  0
 10 11  1  0
 11 12  1  0
 12 13  1  0
 13 14  1  0
 14 15  2  0
 15 16  1  0
 16 17  2  0
 17 18  1  0
 18 19  2  0
  9 20  1  0
 20 21  2  0
 21  6  1  0
 19 14  1  0
  1 22  1  0
  1 23  1  0
  1 24  1  0
  3 25  1  0
  3 26  1  0
  3 27  1  0
  4 28  1  0
  4 29  1  0
  5 30  1  0
  5 31  1  0
  7 32  1  0
  8 33  1  0
 11 34  1  0
 11 35  1  0
 12 36  1  0
 12 37  1  0
 13 38  1  0
 13 39  1  0
 15 40  1  0
 16 41  1  0
 17 42  1  0
 18 43  1  0
 19 44  1  0
 20 45  1  0
 21 46  1  0
M  END
>  <UniqueID>  (40) 
34

>  <SMILES>  (40) 
CN(C)CCc1ccc(OCCCc2ccccc2)cc1

>  <Energy>  (40) 
40.19361829947325

>  <Genealogy>  (40) 
CN(C)CCc1ccc(OCCCc2ccccc2)cc1 (3D coordinates assigned)
CN(C)CCc1ccc(OCCCc2ccccc2)cc1 (optimized conformer: 40.19361829947325 kcal/mol)

>  <smiles>  (40) 
CN(C)CCc1ccc(OCCCc2ccccc2)cc1

>  <score_type>  (40) 
oracle

>  <origin>  (40) 
adg

>  <m_score__min__energy>  (40) 
-6.5700000000000003

>  <m_primary>  (40) 
energy

$$$$
40:0
     RDKit          3D

 35 36  0  0  0  0  0  0  0  0999 V2000
   55.5320   25.9950   45.9770 C   0  0  0  0  0  0  0  0  0  0  0  0
   56.0460   27.2980   45.7200 O   0  0  0  0  0  0  0  0  0  0  0  0
   57.4010   27.5890   45.4950 C   0  0  0  0  0  0  0  0  0  0  0  0
   58.4230   26.6830   45.8470 C   0  0  0  0  0  0  0  0  0  0  0  0
   59.7620   26.9970   45.6060 C   0  0  0  0  0  0  0  0  0  0  0  0
   60.0980   28.2110   45.0080 C   0  0  0  0  0  0  0  0  0  0  0  0
   59.0980   29.1160   44.6510 C   0  0  0  0  0  0  0  0  0  0  0  0
   57.7490   28.8190   44.9000 C   0  0  0  0  0  0  0  0  0  0  0  0
   56.5030   29.9900   44.4520 S   0  0  0  0  0  0  0  0  0  0  0  0
   55.1430   29.5030   44.8690 O   0  0  0  0  0  0  0  0  0  0  0  0
   56.5240   30.1720   42.9610 O   0  0  0  0  0  0  0  0  0  0  0  0
   56.8020   31.5220   45.2090 N   0  0  0  0  0  0  0  0  0  0  0  0
   58.0770   31.9740   45.6840 C   0  0  0  0  0  0  0  0  0  0  0  0
   58.6880   31.2740   46.7320 C   0  0  0  0  0  0  0  0  0  0  0  0
   59.9260   31.6870   47.2340 C   0  0  0  0  0  0  0  0  0  0  0  0
   60.5650   32.8100   46.6940 C   0  0  0  0  0  0  0  0  0  0  0  0
   62.1310   33.3180   47.3200 S   0  0  0  0  0  0  0  0  0  0  0  0
   63.1170   31.9300   47.6180 N   0  0  0  0  0  0  0  0  0  0  0  0
   61.9400   34.0820   48.6000 O   0  0  0  0  0  0  0  0  0  0  0  0
   62.8160   34.2120   46.3250 O   0  0  0  0  0  0  0  0  0  0  0  0
   59.9640   33.5060   45.6380 C   0  0  0  0  0  0  0  0  0  0  0  0
   58.7280   33.0930   45.1350 C   0  0  0  0  0  0  0  0  0  0  0  0
   55.4683   25.8336   47.0632 H   0  0  0  0  0  0  0  0  0  0  0  0
   54.5298   25.9020   45.5331 H   0  0  0  0  0  0  0  0  0  0  0  0
   56.2008   25.2429   45.5331 H   0  0  0  0  0  0  0  0  0  0  0  0
   58.1633   25.7219   46.3148 H   0  0  0  0  0  0  0  0  0  0  0  0
   60.5525   26.2860   45.8881 H   0  0  0  0  0  0  0  0  0  0  0  0
   61.1534   28.4556   44.8174 H   0  0  0  0  0  0  0  0  0  0  0  0
   59.3685   30.0683   44.1714 H   0  0  0  0  0  0  0  0  0  0  0  0
   58.1903   30.3929   47.1633 H   0  0  0  0  0  0  0  0  0  0  0  0
   60.3991   31.1284   48.0551 H   0  0  0  0  0  0  0  0  0  0  0  0
   62.7260   31.1500   47.0440 H   0  0  0  0  0  0  0  0  0  0  0  0
   64.0660   32.1410   47.2310 H   0  0  0  0  0  0  0  0  0  0  0  0
   60.4674   34.3818   45.2026 H   0  0  0  0  0  0  0  0  0  0  0  0
   58.2619   33.6455   44.3058 H   0  0  0  0  0  0  0  0  0  0  0  0
  1  2  1  0
  2  3  1  0
  3  4  2  0
  4  5  1  0
  5  6  2  0
  6  7  1  0
  7  8  2  0
  8  9  1  0
  9 10  2  0
  9 11  2  0
  9 12  1  0
 12 13  1  0
 13 14  2  0
 14 15  1  0
 15 16  2  0
 16 17  1  0
 17 18  1  0
 17 19  2  0
 17 20  2  0
 16 21  1  0
 21 22  2  0
  8  3  1  0
 22 13  1  0
  1 23  1  0
  1 24  1  0
  1 25  1  0
  4 26  1  0
  5 27  1  0
  6 28  1  0
  7 29  1  0
 14 30  1  0
 15 31  1  0
 18 32  1  0
 18 33  1  0
 21 34  1  0
 22 35  1  0
M  CHG  1  12  -1
M  END
>  <UniqueID>  (41) 
35

>  <SMILES>  (41) 
COc1ccccc1S(=O)(=O)[N-]c1ccc(S(N)(=O)=O)cc1

>  <Energy>  (41) 
37.302280382527776

>  <Genealogy>  (41) 
COc1ccccc1S(=O)(=O)[N-]c1ccc(S(N)(=O)=O)cc1 (protonated)
COc1ccccc1S(=O)(=O)[N-]c1ccc(S(N)(=O)=O)cc1 (3D coordinates assigned)
COc1ccccc1S(=O)(=O)[N-]c1ccc(S(N)(=O)=O)cc1 (optimized conformer: 37.302280382527776 kcal/mol)

>  <smiles>  (41) 
COc1ccccc1S(=O)(=O)Nc1ccc(S(N)(=O)=O)cc1

>  <score_type>  (41) 
oracle

>  <origin>  (41) 
adg

>  <m_score__min__energy>  (41) 
-9.3200000000000003

>  <m_primary>  (41) 
energy

$$$$
41:0
     RDKit          3D

 50 53  0  0  0  0  0  0  0  0999 V2000
   63.2760   31.1800   50.7130 C   0  0  0  0  0  0  0  0  0  0  0  0
   64.1560   31.6230   49.6400 N   0  0  0  0  0  0  0  0  0  0  0  0
   63.6970   32.2030   48.4150 C   0  0  0  0  0  0  0  0  0  0  0  0
   64.3860   33.1030   47.8670 O   0  0  0  0  0  0  0  0  0  0  0  0
   62.4230   31.8090   47.8000 C   0  0  0  0  0  0  0  0  0  0  0  0
   61.9750   30.5380   47.7610 N   0  0  0  0  0  0  0  0  0  0  0  0
   60.7640   30.5470   47.2170 N   0  0  0  0  0  0  0  0  0  0  0  0
   59.9670   29.3640   47.1110 C   0  0  0  0  0  0  0  0  0  0  0  0
   60.2640   28.4080   46.1290 C   0  0  0  0  0  0  0  0  0  0  0  0
   59.5000   27.2420   46.0300 C   0  0  0  0  0  0  0  0  0  0  0  0
   58.4500   27.0090   46.9290 C   0  0  0  0  0  0  0  0  0  0  0  0
   57.4920   25.5400   46.7780 S   0  0  0  0  0  0  0  0  0  0  0  0
   55.8560   25.9540   46.4040 N   0  0  0  0  0  0  0  0  0  0  0  0
   57.5210   24.7580   48.0630 O   0  0  0  0  0  0  0  0  0  0  0  0
   58.0580   24.6880   45.6770 O   0  0  0  0  0  0  0  0  0  0  0  0
   58.1720   27.9500   47.9320 C   0  0  0  0  0  0  0  0  0  0  0  0
   58.9240   29.1260   48.0200 C   0  0  0  0  0  0  0  0  0  0  0  0
   60.4230   31.8240   46.9130 C   0  0  0  0  0  0  0  0  0  0  0  0
   61.4490   32.6490   47.2950 C   0  0  0  0  0  0  0  0  0  0  0  0
   61.4040   34.1410   47.1520 C   0  0  0  0  0  0  0  0  0  0  0  0
   59.9410   34.6320   47.2100 C   0  0  0  0  0  0  0  0  0  0  0  0
   59.0030   33.7740   46.3730 C   0  0  0  0  0  0  0  0  0  0  0  0
   57.9030   34.3630   45.7330 C   0  0  0  0  0  0  0  0  0  0  0  0
   57.0210   33.5820   44.9840 C   0  0  0  0  0  0  0  0  0  0  0  0
   57.2060   32.1990   44.8810 C   0  0  0  0  0  0  0  0  0  0  0  0
   56.2780   31.4450   44.0880 N   0  0  0  0  0  0  0  0  0  0  0  0
   56.0540   29.7280   44.1600 S   0  0  0  0  0  0  0  0  0  0  0  0
   57.2650   28.9390   43.1240 C   0  0  0  0  0  0  0  0  0  0  0  0
   56.2590   29.2740   45.5770 O   0  0  0  0  0  0  0  0  0  0  0  0
   54.6620   29.3600   43.7300 O   0  0  0  0  0  0  0  0  0  0  0  0
   58.3020   31.5970   45.5290 C   0  0  0  0  0  0  0  0  0  0  0  0
   59.1930   32.3720   46.2910 C   0  0  0  0  0  0  0  0  0  0  0  0
   63.7368   31.4120   51.6845 H   0  0  0  0  0  0  0  0  0  0  0  0
   62.3095   31.6990   50.6324 H   0  0  0  0  0  0  0  0  0  0  0  0
   63.1172   30.0945   50.6324 H   0  0  0  0  0  0  0  0  0  0  0  0
   61.1005   28.5763   45.4348 H   0  0  0  0  0  0  0  0  0  0  0  0
   59.7232   26.5050   45.2445 H   0  0  0  0  0  0  0  0  0  0  0  0
   55.8050   26.9960   46.3490 H   0  0  0  0  0  0  0  0  0  0  0  0
   57.3607   27.7624   48.6508 H   0  0  0  0  0  0  0  0  0  0  0  0
   58.6979   29.8653   48.8025 H   0  0  0  0  0  0  0  0  0  0  0  0
   61.9762   34.6030   47.9700 H   0  0  0  0  0  0  0  0  0  0  0  0
   61.8426   34.4249   46.1840 H   0  0  0  0  0  0  0  0  0  0  0  0
   59.6021   34.6072   48.2562 H   0  0  0  0  0  0  0  0  0  0  0  0
   59.9151   35.6523   46.7997 H   0  0  0  0  0  0  0  0  0  0  0  0
   57.7342   35.4463   45.8216 H   0  0  0  0  0  0  0  0  0  0  0  0
   56.1729   34.0582   44.4702 H   0  0  0  0  0  0  0  0  0  0  0  0
   58.0209   28.4465   43.7533 H   0  0  0  0  0  0  0  0  0  0  0  0
   56.7713   28.1887   42.4889 H   0  0  0  0  0  0  0  0  0  0  0  0
   57.7519   29.6937   42.4889 H   0  0  0  0  0  0  0  0  0  0  0  0
   58.4618   30.5125   45.4381 H   0  0  0  0  0  0  0  0  0  0  0  0
  1  2  1  0
  2  3  1  0
  3  4  2  0
  3  5  1  0
  5  6  2  0
  6  7  1  0
  7  8  1  0
  8  9  2  0
  9 10  1  0
 10 11  2  0
 11 12  1  0
 12 13  1  0
 12 14  2  0
 12 15  2  0
 11 16  1  0
 16 17  2  0
  7 18  1  0
 18 19  2  0
 19 20  1  0
 20 21  1  0
 21 22  1  0
 22 23  2  0
 23 24  1  0
 24 25  2  0
 25 26  1  0
 26 27  1  0
 27 28  1  0
 27 29  2  0
 27 30  2  0
 25 31  1  0
 31 32  2  0
 19  5  1  0
 32 22  1  0
 17  8  1  0
 32 18  1  0
  1 33  1  0
  1 34  1  0
  1 35  1  0
  9 36  1  0
 10 37  1  0
 13 38  1  0
 16 39  1  0
 17 40  1  0
 20 41  1  0
 20 42  1  0
 21 43  1  0
 21 44  1  0
 23 45  1  0
 24 46  1  0
 28 47  1  0
 28 48  1  0
 28 49  1  0
 31 50  1  0
M  CHG  3   2  -1  13  -1  26  -1
M  END
>  <UniqueID>  (42) 
36

>  <SMILES>  (42) 
C[N-]C(=O)c1nn(-c2ccc(S([NH-])(=O)=O)cc2)c2c1CCc1ccc([N-]S(C)(=O)=O)cc1-2

>  <Energy>  (42) 
99.89055812542175

>  <Genealogy>  (42) 
C[N-]C(=O)c1nn(-c2ccc(S([NH-])(=O)=O)cc2)c2c1CCc1ccc([N-]S(C)(=O)=O)cc1-2 (protonated)
C[N-]C(=O)c1nn(-c2ccc(S([NH-])(=O)=O)cc2)c2c1CCc1ccc([N-]S(C)(=O)=O)cc1-2 (3D coordinates assigned)
C[N-]C(=O)c1nn(-c2ccc(S([NH-])(=O)=O)cc2)c2c1CCc1ccc([N-]S(C)(=O)=O)cc1-2 (nonaromatic ring conformer: 99.89055812542175 kcal/mol)

>  <smiles>  (42) 
CNC(=O)c1nn(-c2ccc(S(N)(=O)=O)cc2)c2c1CCc1ccc(NS(C)(=O)=O)cc1-2

>  <score_type>  (42) 
oracle

>  <origin>  (42) 
adg

>  <m_score__min__energy>  (42) 
-14

>  <m_primary>  (42) 
energy

$$$$
42:0
     RDKit          3D

 54 57  0  0  0  0  0  0  0  0999 V2000
   62.9660   25.5230   51.9770 C   0  0  0  0  0  0  0  0  0  0  0  0
   61.6950   26.1580   52.0530 O   0  0  0  0  0  0  0  0  0  0  0  0
   61.1190   26.9040   51.0140 C   0  0  0  0  0  0  0  0  0  0  0  0
   60.8530   26.3530   49.7480 C   0  0  0  0  0  0  0  0  0  0  0  0
   60.2670   27.1340   48.7470 C   0  0  0  0  0  0  0  0  0  0  0  0
   59.9350   28.4800   48.9870 C   0  0  0  0  0  0  0  0  0  0  0  0
   59.2850   29.2920   47.9250 C   0  0  0  0  0  0  0  0  0  0  0  0
   58.1600   28.9420   47.1700 C   0  0  0  0  0  0  0  0  0  0  0  0
   57.8220   29.8800   46.1750 C   0  0  0  0  0  0  0  0  0  0  0  0
   56.6830   29.6890   45.2520 C   0  0  0  0  0  0  0  0  0  0  0  0
   56.0210   28.4280   45.1610 N   0  0  0  0  0  0  0  0  0  0  0  0
   56.2930   30.6430   44.5270 O   0  0  0  0  0  0  0  0  0  0  0  0
   58.6910   30.9690   46.1490 C   0  0  0  0  0  0  0  0  0  0  0  0
   58.6730   32.0170   45.1730 N   0  0  0  0  0  0  0  0  0  0  0  0
   58.9190   33.6980   45.5380 S   0  0  0  0  0  0  0  0  0  0  0  0
   59.7910   34.3170   44.4800 O   0  0  0  0  0  0  0  0  0  0  0  0
   57.5800   34.3870   45.5310 O   0  0  0  0  0  0  0  0  0  0  0  0
   59.7120   33.8910   47.1150 C   0  0  0  0  0  0  0  0  0  0  0  0
   58.8970   33.9960   48.2540 C   0  0  0  0  0  0  0  0  0  0  0  0
   59.4500   33.9730   49.5310 C   0  0  0  0  0  0  0  0  0  0  0  0
   60.8240   33.8170   49.6990 C   0  0  0  0  0  0  0  0  0  0  0  0
   61.6750   33.7200   48.5830 C   0  0  0  0  0  0  0  0  0  0  0  0
   63.0680   33.5340   48.7470 C   0  0  0  0  0  0  0  0  0  0  0  0
   63.6350   33.3060   50.0480 N   0  0  0  0  0  0  0  0  0  0  0  0
   63.6830   34.4210   50.9930 C   0  0  0  0  0  0  0  0  0  0  0  0
   63.7160   31.9420   50.5680 C   0  0  0  0  0  0  0  0  0  0  0  0
   63.9030   33.5130   47.6230 C   0  0  0  0  0  0  0  0  0  0  0  0
   63.3690   33.6570   46.3460 C   0  0  0  0  0  0  0  0  0  0  0  0
   61.9940   33.7970   46.1660 C   0  0  0  0  0  0  0  0  0  0  0  0
   61.1220   33.8100   47.2730 C   0  0  0  0  0  0  0  0  0  0  0  0
   59.8440   30.7750   47.3570 S   0  0  0  0  0  0  0  0  0  0  0  0
   60.2140   29.0270   50.2550 C   0  0  0  0  0  0  0  0  0  0  0  0
   60.7990   28.2430   51.2540 C   0  0  0  0  0  0  0  0  0  0  0  0
   63.3431   25.3346   52.9930 H   0  0  0  0  0  0  0  0  0  0  0  0
   62.8674   24.5683   51.4396 H   0  0  0  0  0  0  0  0  0  0  0  0
   63.6702   26.1752   51.4396 H   0  0  0  0  0  0  0  0  0  0  0  0
   61.1071   25.3024   49.5440 H   0  0  0  0  0  0  0  0  0  0  0  0
   60.0633   26.6911   47.7609 H   0  0  0  0  0  0  0  0  0  0  0  0
   57.5901   28.0164   47.3386 H   0  0  0  0  0  0  0  0  0  0  0  0
   55.4980   28.0350   45.9760 H   0  0  0  0  0  0  0  0  0  0  0  0
   57.8082   34.0977   48.1353 H   0  0  0  0  0  0  0  0  0  0  0  0
   58.7992   34.0785   50.4115 H   0  0  0  0  0  0  0  0  0  0  0  0
   61.2473   33.7692   50.7132 H   0  0  0  0  0  0  0  0  0  0  0  0
   63.6662   34.0310   52.0214 H   0  0  0  0  0  0  0  0  0  0  0  0
   64.6068   34.9967   50.8342 H   0  0  0  0  0  0  0  0  0  0  0  0
   62.8121   35.0740   50.8342 H   0  0  0  0  0  0  0  0  0  0  0  0
   63.7144   31.9681   51.6677 H   0  0  0  0  0  0  0  0  0  0  0  0
   62.8507   31.3626   50.2138 H   0  0  0  0  0  0  0  0  0  0  0  0
   64.6438   31.4690   50.2138 H   0  0  0  0  0  0  0  0  0  0  0  0
   64.9877   33.3819   47.7503 H   0  0  0  0  0  0  0  0  0  0  0  0
   64.0371   33.6604   45.4721 H   0  0  0  0  0  0  0  0  0  0  0  0
   61.5854   33.8984   45.1497 H   0  0  0  0  0  0  0  0  0  0  0  0
   59.9696   30.0796   50.4608 H   0  0  0  0  0  0  0  0  0  0  0  0
   61.0096   28.6848   52.2391 H   0  0  0  0  0  0  0  0  0  0  0  0
  1  2  1  0
  2  3  1  0
  3  4  2  0
  4  5  1  0
  5  6  2  0
  6  7  1  0
  7  8  2  0
  8  9  1  0
  9 10  1  0
 10 11  1  0
 10 12  2  0
  9 13  2  0
 13 14  1  0
 14 15  1  0
 15 16  2  0
 15 17  2  0
 15 18  1  0
 18 19  2  0
 19 20  1  0
 20 21  2  0
 21 22  1  0
 22 23  2  0
 23 24  1  0
 24 25  1  0
 24 26  1  0
 23 27  1  0
 27 28  2  0
 28 29  1  0
 29 30  2  0
 13 31  1  0
  6 32  1  0
 32 33  2  0
 33  3  1  0
 31  7  1  0
 30 18  1  0
 30 22  1  0
  1 34  1  0
  1 35  1  0
  1 36  1  0
  4 37  1  0
  5 38  1  0
  8 39  1  0
 11 40  1  0
 19 41  1  0
 20 42  1  0
 21 43  1  0
 25 44  1  0
 25 45  1  0
 25 46  1  0
 26 47  1  0
 26 48  1  0
 26 49  1  0
 27 50  1  0
 28 51  1  0
 29 52  1  0
 32 53  1  0
 33 54  1  0
M  CHG  2  11  -1  14  -1
M  END
>  <UniqueID>  (43) 
37

>  <SMILES>  (43) 
COc1ccc(-c2cc(C([NH-])=O)c([N-]S(=O)(=O)c3cccc4c(N(C)C)cccc34)s2)cc1

>  <Energy>  (43) 
99.17477130837143

>  <Genealogy>  (43) 
COc1ccc(-c2cc(C([NH-])=O)c([N-]S(=O)(=O)c3cccc4c(N(C)C)cccc34)s2)cc1 (protonated)
COc1ccc(-c2cc(C([NH-])=O)c([N-]S(=O)(=O)c3cccc4c(N(C)C)cccc34)s2)cc1 (3D coordinates assigned)
COc1ccc(-c2cc(C([NH-])=O)c([N-]S(=O)(=O)c3cccc4c(N(C)C)cccc34)s2)cc1 (optimized conformer: 99.17477130837143 kcal/mol)

>  <smiles>  (43) 
COc1ccc(-c2cc(C(N)=O)c(NS(=O)(=O)c3cccc4c(N(C)C)cccc34)s2)cc1

>  <score_type>  (43) 
oracle

>  <origin>  (43) 
adg

>  <m_score__min__energy>  (43) 
-12.34

>  <m_primary>  (43) 
energy

$$$$
43:0
     RDKit          3D

 43 46  0  0  0  0  0  0  0  0999 V2000
   55.5360   26.2980   46.2080 O   0  0  0  0  0  0  0  0  0  0  0  0
   56.5500   25.8440   45.6110 C   0  0  0  0  0  0  0  0  0  0  0  0
   57.7030   26.6730   45.4330 N   0  0  0  0  0  0  0  0  0  0  0  0
   58.0420   27.7940   46.2590 C   0  0  0  0  0  0  0  0  0  0  0  0
   57.6250   29.1240   46.1500 C   0  0  0  0  0  0  0  0  0  0  0  0
   56.6430   29.6810   45.2000 C   0  0  0  0  0  0  0  0  0  0  0  0
   55.5310   29.1080   45.0600 O   0  0  0  0  0  0  0  0  0  0  0  0
   56.8980   30.8730   44.4450 N   0  0  0  0  0  0  0  0  0  0  0  0
   56.6330   32.2410   44.8880 C   0  0  0  0  0  0  0  0  0  0  0  0
   57.7920   32.8020   45.6730 C   0  0  0  0  0  0  0  0  0  0  0  0
   59.0010   32.0890   45.7520 C   0  0  0  0  0  0  0  0  0  0  0  0
   60.0870   32.6160   46.4570 C   0  0  0  0  0  0  0  0  0  0  0  0
   59.9840   33.8700   47.0660 C   0  0  0  0  0  0  0  0  0  0  0  0
   58.7940   34.5980   46.9710 C   0  0  0  0  0  0  0  0  0  0  0  0
   57.7030   34.0720   46.2710 C   0  0  0  0  0  0  0  0  0  0  0  0
   58.1920   29.8380   47.1090 O   0  0  0  0  0  0  0  0  0  0  0  0
   58.9340   29.0340   47.8320 C   0  0  0  0  0  0  0  0  0  0  0  0
   59.7060   29.3620   48.9450 C   0  0  0  0  0  0  0  0  0  0  0  0
   60.4250   28.3270   49.5730 C   0  0  0  0  0  0  0  0  0  0  0  0
   60.3580   27.0040   49.0760 C   0  0  0  0  0  0  0  0  0  0  0  0
   59.5690   26.7040   47.9490 C   0  0  0  0  0  0  0  0  0  0  0  0
   58.8670   27.7510   47.3570 C   0  0  0  0  0  0  0  0  0  0  0  0
   56.5080   24.4870   45.0200 C   0  0  0  0  0  0  0  0  0  0  0  0
   57.7050   23.8910   44.5850 C   0  0  0  0  0  0  0  0  0  0  0  0
   57.6990   22.6050   44.0470 C   0  0  0  0  0  0  0  0  0  0  0  0
   56.4930   21.9160   43.9360 C   0  0  0  0  0  0  0  0  0  0  0  0
   55.3370   22.5040   44.3370 N   0  0  0  0  0  0  0  0  0  0  0  0
   55.3060   23.7560   44.8710 C   0  0  0  0  0  0  0  0  0  0  0  0
   53.7330   24.4260   45.2780 Cl  0  0  0  0  0  0  0  0  0  0  0  0
   56.4585   32.8748   44.0061 H   0  0  0  0  0  0  0  0  0  0  0  0
   55.7482   32.2269   45.5414 H   0  0  0  0  0  0  0  0  0  0  0  0
   59.0929   31.1113   45.2564 H   0  0  0  0  0  0  0  0  0  0  0  0
   61.0232   32.0435   46.5326 H   0  0  0  0  0  0  0  0  0  0  0  0
   60.8393   34.2842   47.6201 H   0  0  0  0  0  0  0  0  0  0  0  0
   58.7156   35.5863   47.4476 H   0  0  0  0  0  0  0  0  0  0  0  0
   56.7728   34.6533   46.1880 H   0  0  0  0  0  0  0  0  0  0  0  0
   59.7521   30.3950   49.3203 H   0  0  0  0  0  0  0  0  0  0  0  0
   61.0428   28.5485   50.4558 H   0  0  0  0  0  0  0  0  0  0  0  0
   60.9262   26.2042   49.5735 H   0  0  0  0  0  0  0  0  0  0  0  0
   59.5093   25.6803   47.5508 H   0  0  0  0  0  0  0  0  0  0  0  0
   58.6525   24.4433   44.6698 H   0  0  0  0  0  0  0  0  0  0  0  0
   58.6376   22.1385   43.7132 H   0  0  0  0  0  0  0  0  0  0  0  0
   56.4776   20.8963   43.5237 H   0  0  0  0  0  0  0  0  0  0  0  0
  1  2  2  0
  2  3  1  0
  3  4  1  0
  4  5  2  0
  5  6  1  0
  6  7  2  0
  6  8  1  0
  8  9  1  0
  9 10  1  0
 10 11  2  0
 11 12  1  0
 12 13  2  0
 13 14  1  0
 14 15  2  0
  5 16  1  0
 16 17  1  0
 17 18  2  0
 18 19  1  0
 19 20  2  0
 20 21  1  0
 21 22  2  0
  2 23  1  0
 23 24  2  0
 24 25  1  0
 25 26  2  0
 26 27  1  0
 27 28  2  0
 28 29  1  0
 22  4  1  0
 28 23  1  0
 15 10  1  0
 22 17  1  0
  9 30  1  0
  9 31  1  0
 11 32  1  0
 12 33  1  0
 13 34  1  0
 14 35  1  0
 15 36  1  0
 18 37  1  0
 19 38  1  0
 20 39  1  0
 21 40  1  0
 24 41  1  0
 25 42  1  0
 26 43  1  0
M  CHG  2   3  -1   8  -1
M  END
>  <UniqueID>  (44) 
38

>  <SMILES>  (44) 
O=C([N-]c1c(C(=O)[N-]Cc2ccccc2)oc2ccccc12)c1cccnc1Cl

>  <Energy>  (44) 
93.94208947583083

>  <Genealogy>  (44) 
O=C([N-]c1c(C(=O)[N-]Cc2ccccc2)oc2ccccc12)c1cccnc1Cl (protonated)
O=C([N-]c1c(C(=O)[N-]Cc2ccccc2)oc2ccccc12)c1cccnc1Cl (3D coordinates assigned)
O=C([N-]c1c(C(=O)[N-]Cc2ccccc2)oc2ccccc12)c1cccnc1Cl (optimized conformer: 93.94208947583083 kcal/mol)

>  <smiles>  (44) 
O=C(Nc1c(C(=O)NCc2ccccc2)oc2ccccc12)c1cccnc1Cl

>  <score_type>  (44) 
oracle

>  <origin>  (44) 
adg

>  <m_score__min__energy>  (44) 
-12.529999999999999

>  <m_primary>  (44) 
energy

$$$$
44:0
     RDKit          3D

 66 69  0  0  0  0  0  0  0  0999 V2000
   59.8130   29.1200   48.0820 C   0  0  0  0  0  0  0  0  0  0  0  0
   58.7980   28.3460   47.2930 C   0  0  0  0  0  0  0  0  0  0  0  0
   58.6930   26.9560   47.4570 C   0  0  0  0  0  0  0  0  0  0  0  0
   57.7680   26.2190   46.6990 C   0  0  0  0  0  0  0  0  0  0  0  0
   57.6870   24.7300   46.8550 C   0  0  0  0  0  0  0  0  0  0  0  0
   56.9710   26.8770   45.7510 C   0  0  0  0  0  0  0  0  0  0  0  0
   57.0750   28.2650   45.5720 C   0  0  0  0  0  0  0  0  0  0  0  0
   56.2190   28.9680   44.5520 C   0  0  0  0  0  0  0  0  0  0  0  0
   56.1480   30.3970   44.8340 N   0  0  0  0  0  0  0  0  0  0  0  0
   57.0240   31.3730   44.2570 C   0  0  0  0  0  0  0  0  0  0  0  0
   57.0680   31.5170   43.0050 O   0  0  0  0  0  0  0  0  0  0  0  0
   57.8730   32.2160   45.1290 C   0  0  0  0  0  0  0  0  0  0  0  0
   59.0920   31.7250   45.6280 C   0  0  0  0  0  0  0  0  0  0  0  0
   59.8780   32.5130   46.4760 C   0  0  0  0  0  0  0  0  0  0  0  0
   59.4860   33.8150   46.8030 C   0  0  0  0  0  0  0  0  0  0  0  0
   60.2980   34.5720   47.7140 N   0  0  0  0  0  0  0  0  0  0  0  0
   61.2210   34.1130   48.5140 C   0  0  0  0  0  0  0  0  0  0  0  0
   62.4380   33.7780   48.0250 N   0  0  0  0  0  0  0  0  0  0  0  0
   63.4020   33.2670   48.8200 C   0  0  0  0  0  0  0  0  0  0  0  0
   64.5110   32.9700   48.3010 O   0  0  0  0  0  0  0  0  0  0  0  0
   63.1670   33.0730   50.1590 N   0  0  0  0  0  0  0  0  0  0  0  0
   64.2110   32.4980   51.0540 C   0  0  0  0  0  0  0  0  0  0  0  0
   65.5550   33.2280   50.9080 C   0  0  0  0  0  0  0  0  0  0  0  0
   64.3550   30.9830   50.8490 C   0  0  0  0  0  0  0  0  0  0  0  0
   61.9260   33.3990   50.6590 C   0  0  0  0  0  0  0  0  0  0  0  0
   61.6740   33.2170   51.8840 O   0  0  0  0  0  0  0  0  0  0  0  0
   60.9500   33.9170   49.8430 N   0  0  0  0  0  0  0  0  0  0  0  0
   59.6130   34.2220   50.4000 C   0  0  0  0  0  0  0  0  0  0  0  0
   58.9920   32.9820   50.9930 C   0  0  0  0  0  0  0  0  0  0  0  0
   58.9280   31.7920   50.2480 C   0  0  0  0  0  0  0  0  0  0  0  0
   58.3260   30.6510   50.7890 C   0  0  0  0  0  0  0  0  0  0  0  0
   57.7810   30.6890   52.0760 C   0  0  0  0  0  0  0  0  0  0  0  0
   57.0240   29.2590   52.7530 Cl  0  0  0  0  0  0  0  0  0  0  0  0
   57.8340   31.8710   52.8210 C   0  0  0  0  0  0  0  0  0  0  0  0
   58.4360   33.0130   52.2830 C   0  0  0  0  0  0  0  0  0  0  0  0
   58.2640   34.3070   46.3120 C   0  0  0  0  0  0  0  0  0  0  0  0
   57.4660   33.5140   45.4810 C   0  0  0  0  0  0  0  0  0  0  0  0
   57.9990   28.9940   46.3370 C   0  0  0  0  0  0  0  0  0  0  0  0
   59.6274   28.9785   49.1570 H   0  0  0  0  0  0  0  0  0  0  0  0
   60.8224   28.7603   47.8337 H   0  0  0  0  0  0  0  0  0  0  0  0
   59.7332   30.1886   47.8337 H   0  0  0  0  0  0  0  0  0  0  0  0
   59.3388   26.4408   48.1833 H   0  0  0  0  0  0  0  0  0  0  0  0
   57.6731   24.4736   47.9246 H   0  0  0  0  0  0  0  0  0  0  0  0
   56.7674   24.3608   46.3774 H   0  0  0  0  0  0  0  0  0  0  0  0
   58.5611   24.2632   46.3774 H   0  0  0  0  0  0  0  0  0  0  0  0
   56.2585   26.3004   45.1428 H   0  0  0  0  0  0  0  0  0  0  0  0
   56.6528   28.8186   43.5522 H   0  0  0  0  0  0  0  0  0  0  0  0
   55.2029   28.5487   44.5944 H   0  0  0  0  0  0  0  0  0  0  0  0
   59.4299   30.7157   45.3503 H   0  0  0  0  0  0  0  0  0  0  0  0
   60.8123   32.1049   46.8890 H   0  0  0  0  0  0  0  0  0  0  0  0
   63.8760   32.6551   52.0899 H   0  0  0  0  0  0  0  0  0  0  0  0
   65.9623   33.4493   51.9056 H   0  0  0  0  0  0  0  0  0  0  0  0
   66.2611   32.5895   50.3570 H   0  0  0  0  0  0  0  0  0  0  0  0
   65.4038   34.1679   50.3570 H   0  0  0  0  0  0  0  0  0  0  0  0
   64.4025   30.4834   51.8279 H   0  0  0  0  0  0  0  0  0  0  0  0
   63.4887   30.6052   50.2861 H   0  0  0  0  0  0  0  0  0  0  0  0
   65.2770   30.7751   50.2861 H   0  0  0  0  0  0  0  0  0  0  0  0
   59.7135   34.9869   51.1841 H   0  0  0  0  0  0  0  0  0  0  0  0
   58.9663   34.5913   49.5904 H   0  0  0  0  0  0  0  0  0  0  0  0
   59.3535   31.7576   49.2342 H   0  0  0  0  0  0  0  0  0  0  0  0
   58.2813   29.7225   50.2009 H   0  0  0  0  0  0  0  0  0  0  0  0
   57.4015   31.9028   53.8319 H   0  0  0  0  0  0  0  0  0  0  0  0
   58.4744   33.9406   52.8730 H   0  0  0  0  0  0  0  0  0  0  0  0
   57.9338   35.3207   46.5827 H   0  0  0  0  0  0  0  0  0  0  0  0
   56.5128   33.9094   45.1002 H   0  0  0  0  0  0  0  0  0  0  0  0
   58.0978   30.0792   46.1868 H   0  0  0  0  0  0  0  0  0  0  0  0
  1  2  1  0
  2  3  2  0
  3  4  1  0
  4  5  1  0
  4  6  2  0
  6  7  1  0
  7  8  1  0
  8  9  1  0
  9 10  1  0
 10 11  2  0
 10 12  1  0
 12 13  2  0
 13 14  1  0
 14 15  2  0
 15 16  1  0
 16 17  2  3
 17 18  1  0
 18 19  1  0
 19 20  2  0
 19 21  1  0
 21 22  1  0
 22 23  1  0
 22 24  1  0
 21 25  1  0
 25 26  2  0
 25 27  1  0
 27 28  1  0
 28 29  1  0
 29 30  2  0
 30 31  1  0
 31 32  2  0
 32 33  1  0
 32 34  1  0
 34 35  2  0
 15 36  1  0
 36 37  2  0
  7 38  2  0
 38  2  1  0
 37 12  1  0
 27 17  1  0
 35 29  1  0
  1 39  1  0
  1 40  1  0
  1 41  1  0
  3 42  1  0
  5 43  1  0
  5 44  1  0
  5 45  1  0
  6 46  1  0
  8 47  1  0
  8 48  1  0
 13 49  1  0
 14 50  1  0
 22 51  1  0
 23 52  1  0
 23 53  1  0
 23 54  1  0
 24 55  1  0
 24 56  1  0
 24 57  1  0
 28 58  1  0
 28 59  1  0
 30 60  1  0
 31 61  1  0
 34 62  1  0
 35 63  1  0
 36 64  1  0
 37 65  1  0
 38 66  1  0
M  CHG  2   9  -1  18  -1
M  END
>  <UniqueID>  (45) 
39

>  <SMILES>  (45) 
Cc1cc(C)cc(C[N-]C(=O)c2ccc(N=c3[n-]c(=O)n(C(C)C)c(=O)n3Cc3ccc(Cl)cc3)cc2)c1

>  <Energy>  (45) 
80.4054545012426

>  <Genealogy>  (45) 
Cc1cc(C)cc(C[N-]C(=O)c2ccc(N=c3[n-]c(=O)n(C(C)C)c(=O)n3Cc3ccc(Cl)cc3)cc2)c1 (protonated)
Cc1cc(C)cc(C[N-]C(=O)c2ccc(N=c3[n-]c(=O)n(C(C)C)c(=O)n3Cc3ccc(Cl)cc3)cc2)c1 (3D coordinates assigned)
Cc1cc(C)cc(C[N-]C(=O)c2ccc(N=c3[n-]c(=O)n(C(C)C)c(=O)n3Cc3ccc(Cl)cc3)cc2)c1 (optimized conformer: 80.4054545012426 kcal/mol)

>  <smiles>  (45) 
Cc1cc(C)cc(CNC(=O)c2ccc(N=c3[nH]c(=O)n(C(C)C)c(=O)n3Cc3ccc(Cl)cc3)cc2)c1

>  <score_type>  (45) 
oracle

>  <origin>  (45) 
adg

>  <m_score__min__energy>  (45) 
-11.800000000000001

>  <m_primary>  (45) 
energy

$$$$
45:0
     RDKit          3D

 32 33  0  0  0  0  0  0  0  0999 V2000
   55.5060   26.6350   46.0080 N   0  0  0  0  0  0  0  0  0  0  0  0
   56.7350   26.9820   45.7880 C   0  0  0  0  0  0  0  0  0  0  0  0
   57.1470   28.3750   45.4910 C   0  0  0  0  0  0  0  0  0  0  0  0
   56.3480   29.2560   44.7380 C   0  0  0  0  0  0  0  0  0  0  0  0
   56.7780   30.5650   44.4930 C   0  0  0  0  0  0  0  0  0  0  0  0
   58.0000   31.0220   44.9950 C   0  0  0  0  0  0  0  0  0  0  0  0
   58.3790   32.3420   44.7140 O   0  0  0  0  0  0  0  0  0  0  0  0
   57.8620   33.7130   45.5980 S   0  0  0  0  0  0  0  0  0  0  0  0
   56.7110   34.3700   44.8870 O   0  0  0  0  0  0  0  0  0  0  0  0
   57.4340   33.2950   46.9770 O   0  0  0  0  0  0  0  0  0  0  0  0
   59.2210   34.8610   45.7180 C   0  0  0  0  0  0  0  0  0  0  0  0
   60.1910   34.4190   46.7780 C   0  0  0  0  0  0  0  0  0  0  0  0
   59.8610   34.5420   48.1380 C   0  0  0  0  0  0  0  0  0  0  0  0
   60.7520   34.1000   49.1210 C   0  0  0  0  0  0  0  0  0  0  0  0
   61.9720   33.5260   48.7550 C   0  0  0  0  0  0  0  0  0  0  0  0
   62.3020   33.3890   47.4040 C   0  0  0  0  0  0  0  0  0  0  0  0
   61.4150   33.8300   46.4170 C   0  0  0  0  0  0  0  0  0  0  0  0
   58.7960   30.1470   45.7580 C   0  0  0  0  0  0  0  0  0  0  0  0
   58.3680   28.8400   46.0060 C   0  0  0  0  0  0  0  0  0  0  0  0
   55.1390   26.3510   46.9410 H   0  0  0  0  0  0  0  0  0  0  0  0
   57.5117   26.2039   45.8234 H   0  0  0  0  0  0  0  0  0  0  0  0
   55.3811   28.9139   44.3403 H   0  0  0  0  0  0  0  0  0  0  0  0
   56.1471   31.2422   43.8985 H   0  0  0  0  0  0  0  0  0  0  0  0
   59.7404   34.9097   44.7496 H   0  0  0  0  0  0  0  0  0  0  0  0
   58.8270   35.8521   45.9871 H   0  0  0  0  0  0  0  0  0  0  0  0
   58.8987   34.9874   48.4306 H   0  0  0  0  0  0  0  0  0  0  0  0
   60.4917   34.2045   50.1846 H   0  0  0  0  0  0  0  0  0  0  0  0
   62.6726   33.1820   49.5301 H   0  0  0  0  0  0  0  0  0  0  0  0
   63.2611   32.9335   47.1165 H   0  0  0  0  0  0  0  0  0  0  0  0
   61.6761   33.7156   45.3546 H   0  0  0  0  0  0  0  0  0  0  0  0
   59.7592   30.4935   46.1608 H   0  0  0  0  0  0  0  0  0  0  0  0
   58.9943   28.1681   46.6112 H   0  0  0  0  0  0  0  0  0  0  0  0
  1  2  2  3
  2  3  1  0
  3  4  2  0
  4  5  1  0
  5  6  2  0
  6  7  1  0
  7  8  1  0
  8  9  2  0
  8 10  2  0
  8 11  1  0
 11 12  1  0
 12 13  2  0
 13 14  1  0
 14 15  2  0
 15 16  1  0
 16 17  2  0
  6 18  1  0
 18 19  2  0
 19  3  1  0
 17 12  1  0
  1 20  1  0
  2 21  1  0
  4 22  1  0
  5 23  1  0
 11 24  1  0
 11 25  1  0
 13 26  1  0
 14 27  1  0
 15 28  1  0
 16 29  1  0
 17 30  1  0
 18 31  1  0
 19 32  1  0
M  END
>  <UniqueID>  (46) 
40

>  <SMILES>  (46) 
N=Cc1ccc(OS(=O)(=O)Cc2ccccc2)cc1

>  <Energy>  (46) 
29.967175869969534

>  <Genealogy>  (46) 
N=Cc1ccc(OS(=O)(=O)Cc2ccccc2)cc1 (3D coordinates assigned)
N=Cc1ccc(OS(=O)(=O)Cc2ccccc2)cc1 (optimized conformer: 29.967175869969534 kcal/mol)

>  <smiles>  (46) 
N=Cc1ccc(OS(=O)(=O)Cc2ccccc2)cc1

>  <score_type>  (46) 
oracle

>  <origin>  (46) 
adg

>  <m_score__min__energy>  (46) 
-7.3899999999999997

>  <m_primary>  (46) 
energy

$$$$
46:0
     RDKit          3D

 53 56  0  0  0  0  0  0  0  0999 V2000
   59.2880   24.8440   45.9650 C   0  0  0  0  0  0  0  0  0  0  0  0
   60.1520   25.9770   45.9950 O   0  0  0  0  0  0  0  0  0  0  0  0
   59.7130   27.3090   46.0220 C   0  0  0  0  0  0  0  0  0  0  0  0
   59.6710   28.1070   44.8620 C   0  0  0  0  0  0  0  0  0  0  0  0
   59.2300   29.4300   44.9300 C   0  0  0  0  0  0  0  0  0  0  0  0
   58.8430   29.9820   46.1550 C   0  0  0  0  0  0  0  0  0  0  0  0
   58.3390   31.3700   46.2080 C   0  0  0  0  0  0  0  0  0  0  0  0
   57.4620   31.8620   45.2870 C   0  0  0  0  0  0  0  0  0  0  0  0
   56.8950   31.0440   44.1920 C   0  0  0  0  0  0  0  0  0  0  0  0
   57.3280   31.2100   42.7660 C   0  0  0  0  0  0  0  0  0  0  0  0
   56.0560   30.1470   44.4700 O   0  0  0  0  0  0  0  0  0  0  0  0
   56.8180   33.5550   45.4110 S   0  0  0  0  0  0  0  0  0  0  0  0
   58.3770   34.2370   45.9230 C   0  0  0  0  0  0  0  0  0  0  0  0
   58.9670   35.3380   45.4220 N   0  0  0  0  0  0  0  0  0  0  0  0
   60.1520   35.4050   46.0140 N   0  0  0  0  0  0  0  0  0  0  0  0
   60.2800   34.3440   46.8400 C   0  0  0  0  0  0  0  0  0  0  0  0
   61.5790   33.9630   47.5100 C   0  0  0  0  0  0  0  0  0  0  0  0
   62.6070   33.4570   46.4770 C   0  0  0  0  0  0  0  0  0  0  0  0
   63.9700   33.1630   47.1300 C   0  0  0  0  0  0  0  0  0  0  0  0
   63.8630   32.6100   48.5680 C   0  0  0  0  0  0  0  0  0  0  0  0
   62.5050   31.9530   48.8340 C   0  0  0  0  0  0  0  0  0  0  0  0
   61.3580   32.9660   48.6790 C   0  0  0  0  0  0  0  0  0  0  0  0
   59.1520   33.6060   46.8070 N   0  0  0  0  0  0  0  0  0  0  0  0
   58.9790   32.2540   47.1470 N   0  0  0  0  0  0  0  0  0  0  0  0
   58.8600   29.1870   47.3100 C   0  0  0  0  0  0  0  0  0  0  0  0
   59.3030   27.8510   47.2520 C   0  0  0  0  0  0  0  0  0  0  0  0
   59.3480   27.0330   48.3910 O   0  0  0  0  0  0  0  0  0  0  0  0
   60.4630   26.9370   49.2720 C   0  0  0  0  0  0  0  0  0  0  0  0
   59.0525   24.5351   46.9941 H   0  0  0  0  0  0  0  0  0  0  0  0
   58.3581   25.1058   45.4389 H   0  0  0  0  0  0  0  0  0  0  0  0
   59.7865   24.0166   45.4389 H   0  0  0  0  0  0  0  0  0  0  0  0
   59.9876   27.6853   43.8966 H   0  0  0  0  0  0  0  0  0  0  0  0
   59.1868   30.0406   44.0161 H   0  0  0  0  0  0  0  0  0  0  0  0
   58.3548   31.6036   42.7380 H   0  0  0  0  0  0  0  0  0  0  0  0
   57.2949   30.2354   42.2569 H   0  0  0  0  0  0  0  0  0  0  0  0
   56.6519   31.9127   42.2569 H   0  0  0  0  0  0  0  0  0  0  0  0
   60.8760   36.1270   45.8060 H   0  0  0  0  0  0  0  0  0  0  0  0
   62.0035   34.8701   47.9649 H   0  0  0  0  0  0  0  0  0  0  0  0
   62.2254   32.5338   46.0165 H   0  0  0  0  0  0  0  0  0  0  0  0
   62.7504   34.2432   45.7212 H   0  0  0  0  0  0  0  0  0  0  0  0
   64.4989   32.4227   46.5117 H   0  0  0  0  0  0  0  0  0  0  0  0
   64.5095   34.1196   47.1927 H   0  0  0  0  0  0  0  0  0  0  0  0
   64.6548   31.8616   48.7199 H   0  0  0  0  0  0  0  0  0  0  0  0
   63.9726   33.4545   49.2643 H   0  0  0  0  0  0  0  0  0  0  0  0
   62.3574   31.1313   48.1178 H   0  0  0  0  0  0  0  0  0  0  0  0
   62.4976   31.5732   49.8663 H   0  0  0  0  0  0  0  0  0  0  0  0
   60.4250   32.4129   48.4956 H   0  0  0  0  0  0  0  0  0  0  0  0
   61.3127   33.5543   49.6073 H   0  0  0  0  0  0  0  0  0  0  0  0
   59.5320   31.8400   47.9280 H   0  0  0  0  0  0  0  0  0  0  0  0
   58.5249   29.6098   48.2686 H   0  0  0  0  0  0  0  0  0  0  0  0
   60.1109   26.9673   50.3137 H   0  0  0  0  0  0  0  0  0  0  0  0
   60.9926   25.9899   49.0914 H   0  0  0  0  0  0  0  0  0  0  0  0
   61.1467   27.7796   49.0914 H   0  0  0  0  0  0  0  0  0  0  0  0
  1  2  1  0
  2  3  1  0
  3  4  2  0
  4  5  1  0
  5  6  2  0
  6  7  1  0
  7  8  2  0
  8  9  1  0
  9 10  1  0
  9 11  2  0
  8 12  1  0
 12 13  1  0
 13 14  2  0
 14 15  1  0
 15 16  2  0
 16 17  1  0
 17 18  1  0
 18 19  1  0
 19 20  1  0
 20 21  1  0
 21 22  1  0
 16 23  1  0
 23 24  1  0
  6 25  1  0
 25 26  2  0
 26 27  1  0
 27 28  1  0
 26  3  1  0
 24  7  1  0
 23 13  1  0
 22 17  1  0
  1 29  1  0
  1 30  1  0
  1 31  1  0
  4 32  1  0
  5 33  1  0
 10 34  1  0
 10 35  1  0
 10 36  1  0
 15 37  1  0
 17 38  1  0
 18 39  1  0
 18 40  1  0
 19 41  1  0
 19 42  1  0
 20 43  1  0
 20 44  1  0
 21 45  1  0
 21 46  1  0
 22 47  1  0
 22 48  1  0
 24 49  1  0
 25 50  1  0
 28 51  1  0
 28 52  1  0
 28 53  1  0
M  CHG  1  15   1
M  END
>  <UniqueID>  (47) 
41

>  <SMILES>  (47) 
COc1ccc(C2=C(C(C)=O)Sc3n[nH+]c(C4CCCCC4)n3N2)cc1OC

>  <Energy>  (47) 
119.01501346315254

>  <Genealogy>  (47) 
COc1ccc(C2=C(C(C)=O)Sc3n[nH+]c(C4CCCCC4)n3N2)cc1OC (protonated)
COc1ccc(C2=C(C(C)=O)Sc3n[nH+]c(C4CCCCC4)n3N2)cc1OC (3D coordinates assigned)
COc1ccc(C2=C(C(C)=O)Sc3n[nH+]c(C4CCCCC4)n3N2)cc1OC (nonaromatic ring conformer: 119.01501346315254 kcal/mol)

>  <smiles>  (47) 
COc1ccc(C2=C(C(C)=O)Sc3nnc(C4CCCCC4)n3N2)cc1OC

>  <score_type>  (47) 
oracle

>  <origin>  (47) 
adg

>  <m_score__min__energy>  (47) 
-7.5999999999999996

>  <m_primary>  (47) 
energy

$$$$
47:0
     RDKit          3D

 50 54  0  0  0  0  0  0  0  0999 V2000
   60.7320   34.5900   48.6980 O   0  0  0  0  0  0  0  0  0  0  0  0
   59.7190   33.9140   48.3780 C   0  0  0  0  0  0  0  0  0  0  0  0
   58.9570   33.2480   49.3960 N   0  0  0  0  0  0  0  0  0  0  0  0
   59.3390   33.2810   50.8070 C   0  0  0  0  0  0  0  0  0  0  0  0
   58.4910   32.3240   51.5990 C   0  0  0  0  0  0  0  0  0  0  0  0
   58.3660   32.4690   52.9880 C   0  0  0  0  0  0  0  0  0  0  0  0
   57.5610   31.5890   53.7130 C   0  0  0  0  0  0  0  0  0  0  0  0
   56.8840   30.5700   53.0400 C   0  0  0  0  0  0  0  0  0  0  0  0
   57.0100   30.4430   51.6930 N   0  0  0  0  0  0  0  0  0  0  0  0
   57.7880   31.2890   50.9640 C   0  0  0  0  0  0  0  0  0  0  0  0
   59.3390   33.7780   46.9560 C   0  0  0  0  0  0  0  0  0  0  0  0
   59.4970   34.7540   45.9750 C   0  0  0  0  0  0  0  0  0  0  0  0
   59.0020   34.3120   44.8000 N   0  0  0  0  0  0  0  0  0  0  0  0
   58.5410   33.0900   45.0070 N   0  0  0  0  0  0  0  0  0  0  0  0
   58.7240   32.7260   46.2890 C   0  0  0  0  0  0  0  0  0  0  0  0
   58.3470   31.4430   46.7160 C   0  0  0  0  0  0  0  0  0  0  0  0
   58.5740   31.0160   48.0260 O   0  0  0  0  0  0  0  0  0  0  0  0
   59.5760   30.0640   48.3820 C   0  0  0  0  0  0  0  0  0  0  0  0
   60.9230   30.7370   48.4980 C   0  0  0  0  0  0  0  0  0  0  0  0
   61.4820   31.3130   47.3440 C   0  0  0  0  0  0  0  0  0  0  0  0
   62.7340   31.9300   47.3930 C   0  0  0  0  0  0  0  0  0  0  0  0
   63.4430   31.9800   48.5940 C   0  0  0  0  0  0  0  0  0  0  0  0
   62.9000   31.4140   49.7490 C   0  0  0  0  0  0  0  0  0  0  0  0
   61.6440   30.7930   49.7130 C   0  0  0  0  0  0  0  0  0  0  0  0
   61.0240   30.1060   51.2120 Cl  0  0  0  0  0  0  0  0  0  0  0  0
   57.7670   30.6090   45.8030 N   0  0  0  0  0  0  0  0  0  0  0  0
   57.5640   30.9840   44.5060 C   0  0  0  0  0  0  0  0  0  0  0  0
   56.9720   30.1040   43.5950 C   0  0  0  0  0  0  0  0  0  0  0  0
   56.7820   30.4990   42.2670 C   0  0  0  0  0  0  0  0  0  0  0  0
   57.1850   31.7720   41.8440 C   0  0  0  0  0  0  0  0  0  0  0  0
   57.7780   32.6600   42.7480 C   0  0  0  0  0  0  0  0  0  0  0  0
   57.9690   32.2710   44.0820 C   0  0  0  0  0  0  0  0  0  0  0  0
   58.0730   32.7540   49.1380 H   0  0  0  0  0  0  0  0  0  0  0  0
   60.3966   32.9943   50.9036 H   0  0  0  0  0  0  0  0  0  0  0  0
   59.1880   34.2991   51.1952 H   0  0  0  0  0  0  0  0  0  0  0  0
   58.9028   33.2769   53.5067 H   0  0  0  0  0  0  0  0  0  0  0  0
   57.4610   31.6971   54.8031 H   0  0  0  0  0  0  0  0  0  0  0  0
   56.2480   29.8693   53.6008 H   0  0  0  0  0  0  0  0  0  0  0  0
   57.8658   31.1610   49.8743 H   0  0  0  0  0  0  0  0  0  0  0  0
   59.9576   35.7401   46.1346 H   0  0  0  0  0  0  0  0  0  0  0  0
   59.3148   29.6066   49.3477 H   0  0  0  0  0  0  0  0  0  0  0  0
   59.6287   29.2918   47.6004 H   0  0  0  0  0  0  0  0  0  0  0  0
   60.9285   31.2775   46.3941 H   0  0  0  0  0  0  0  0  0  0  0  0
   63.1619   32.3772   46.4836 H   0  0  0  0  0  0  0  0  0  0  0  0
   64.4295   32.4653   48.6306 H   0  0  0  0  0  0  0  0  0  0  0  0
   63.4618   31.4557   50.6938 H   0  0  0  0  0  0  0  0  0  0  0  0
   56.6562   29.1025   43.9223 H   0  0  0  0  0  0  0  0  0  0  0  0
   56.3140   29.8069   41.5515 H   0  0  0  0  0  0  0  0  0  0  0  0
   57.0347   32.0747   40.7972 H   0  0  0  0  0  0  0  0  0  0  0  0
   58.0933   33.6595   42.4138 H   0  0  0  0  0  0  0  0  0  0  0  0
  1  2  2  0
  2  3  1  0
  3  4  1  0
  4  5  1  0
  5  6  2  0
  6  7  1  0
  7  8  2  0
  8  9  1  0
  9 10  2  0
  2 11  1  0
 11 12  1  0
 12 13  2  0
 13 14  1  0
 14 15  1  0
 15 16  1  0
 16 17  1  0
 17 18  1  0
 18 19  1  0
 19 20  2  0
 20 21  1  0
 21 22  2  0
 22 23  1  0
 23 24  2  0
 24 25  1  0
 16 26  2  0
 26 27  1  0
 27 28  2  0
 28 29  1  0
 29 30  2  0
 30 31  1  0
 31 32  2  0
 10  5  1  0
 15 11  2  0
 24 19  1  0
 32 27  1  0
 32 14  1  0
  3 33  1  0
  4 34  1  0
  4 35  1  0
  6 36  1  0
  7 37  1  0
  8 38  1  0
 10 39  1  0
 12 40  1  0
 18 41  1  0
 18 42  1  0
 20 43  1  0
 21 44  1  0
 22 45  1  0
 23 46  1  0
 28 47  1  0
 29 48  1  0
 30 49  1  0
 31 50  1  0
M  END
>  <UniqueID>  (48) 
42

>  <SMILES>  (48) 
O=C(NCc1cccnc1)c1cnn2c1c(OCc1ccccc1Cl)nc1ccccc12

>  <Energy>  (48) 
97.45385012337975

>  <Genealogy>  (48) 
O=C(NCc1cccnc1)c1cnn2c1c(OCc1ccccc1Cl)nc1ccccc12 (3D coordinates assigned)
O=C(NCc1cccnc1)c1cnn2c1c(OCc1ccccc1Cl)nc1ccccc12 (optimized conformer: 97.45385012337975 kcal/mol)

>  <smiles>  (48) 
O=C(NCc1cccnc1)c1cnn2c1c(OCc1ccccc1Cl)nc1ccccc12

>  <score_type>  (48) 
oracle

>  <origin>  (48) 
adg

>  <m_score__min__energy>  (48) 
-8.4600000000000009

>  <m_primary>  (48) 
energy

$$$$
48:0
     RDKit          3D

 69 70  0  0  0  0  0  0  0  0999 V2000
   58.9150   33.7930   51.9080 C   0  0  0  0  0  0  0  0  0  0  0  0
   59.3390   32.9690   50.6930 C   0  0  0  0  0  0  0  0  0  0  0  0
   59.2880   31.4420   50.9560 C   0  0  1  0  0  0  0  0  0  0  0  0
   57.8460   30.8880   50.8940 C   0  0  0  0  0  0  0  0  0  0  0  0
   57.7830   29.5830   51.4050 O   0  0  0  0  0  0  0  0  0  0  0  0
   60.1930   30.7230   50.0200 N   0  0  0  0  0  0  0  0  0  0  0  0
   61.6620   30.7990   50.1780 C   0  0  0  0  0  0  0  0  0  0  0  0
   62.2550   31.8520   49.2790 C   0  0  0  0  0  0  0  0  0  0  0  0
   62.4410   33.1640   49.7470 C   0  0  0  0  0  0  0  0  0  0  0  0
   62.9960   34.1380   48.9100 C   0  0  0  0  0  0  0  0  0  0  0  0
   63.3660   33.8120   47.6020 C   0  0  0  0  0  0  0  0  0  0  0  0
   63.1780   32.5110   47.1280 C   0  0  0  0  0  0  0  0  0  0  0  0
   62.6220   31.5340   47.9600 C   0  0  0  0  0  0  0  0  0  0  0  0
   59.6430   29.8220   49.0220 C   0  0  0  0  0  0  0  0  0  0  0  0
   59.6650   28.5740   49.2040 O   0  0  0  0  0  0  0  0  0  0  0  0
   59.0470   30.3190   47.7720 C   0  0  0  0  0  0  0  0  0  0  0  0
   58.1690   29.5070   47.0510 C   0  0  0  0  0  0  0  0  0  0  0  0
   57.6040   29.9690   45.8590 C   0  0  0  0  0  0  0  0  0  0  0  0
   56.6820   29.1130   45.0880 C   0  0  0  0  0  0  0  0  0  0  0  0
   56.3160   29.4880   43.9430 O   0  0  0  0  0  0  0  0  0  0  0  0
   56.1580   27.8860   45.6150 N   0  0  0  0  0  0  0  0  0  0  0  0
   56.9390   26.6950   45.9520 C   0  0  0  0  0  0  0  0  0  0  0  0
   56.0320   25.5100   46.2830 C   0  0  0  0  0  0  0  0  0  0  0  0
   54.6900   25.8430   45.9910 O   0  0  0  0  0  0  0  0  0  0  0  0
   53.9870   24.6800   45.6200 C   0  0  0  0  0  0  0  0  0  0  0  0
   57.9350   31.2460   45.3830 C   0  0  0  0  0  0  0  0  0  0  0  0
   58.8040   32.0950   46.1040 C   0  0  0  0  0  0  0  0  0  0  0  0
   59.1130   33.4400   45.6280 N   0  0  0  0  0  0  0  0  0  0  0  0
   58.3960   34.0350   44.4860 C   0  0  0  0  0  0  0  0  0  0  0  0
   57.0090   34.5150   44.9080 C   0  0  0  0  0  0  0  0  0  0  0  0
   60.1570   34.2640   46.2630 C   0  0  0  0  0  0  0  0  0  0  0  0
   59.6210   34.9570   47.5140 C   0  0  0  0  0  0  0  0  0  0  0  0
   59.3540   31.6040   47.3080 C   0  0  0  0  0  0  0  0  0  0  0  0
   59.1906   33.2575   52.8285 H   0  0  0  0  0  0  0  0  0  0  0  0
   59.4232   34.7683   51.8851 H   0  0  0  0  0  0  0  0  0  0  0  0
   57.8260   33.9464   51.8851 H   0  0  0  0  0  0  0  0  0  0  0  0
   58.6651   33.2043   49.8561 H   0  0  0  0  0  0  0  0  0  0  0  0
   60.3822   33.2310   50.4625 H   0  0  0  0  0  0  0  0  0  0  0  0
   59.6442   31.2669   51.9819 H   0  0  0  0  0  0  0  0  0  0  0  0
   57.1858   31.5381   51.4869 H   0  0  0  0  0  0  0  0  0  0  0  0
   57.5253   30.8667   49.8420 H   0  0  0  0  0  0  0  0  0  0  0  0
   58.5150   29.0690   50.9730 H   0  0  0  0  0  0  0  0  0  0  0  0
   61.8977   31.0463   51.2236 H   0  0  0  0  0  0  0  0  0  0  0  0
   62.0919   29.8247   49.9023 H   0  0  0  0  0  0  0  0  0  0  0  0
   62.1493   33.4260   50.7747 H   0  0  0  0  0  0  0  0  0  0  0  0
   63.1416   35.1629   49.2821 H   0  0  0  0  0  0  0  0  0  0  0  0
   63.8047   34.5788   46.9466 H   0  0  0  0  0  0  0  0  0  0  0  0
   63.4679   32.2548   46.0983 H   0  0  0  0  0  0  0  0  0  0  0  0
   62.4713   30.5126   47.5806 H   0  0  0  0  0  0  0  0  0  0  0  0
   57.9215   28.5015   47.4220 H   0  0  0  0  0  0  0  0  0  0  0  0
   57.5759   26.4301   45.0951 H   0  0  0  0  0  0  0  0  0  0  0  0
   57.5512   26.9210   46.8375 H   0  0  0  0  0  0  0  0  0  0  0  0
   56.3324   24.6399   45.6808 H   0  0  0  0  0  0  0  0  0  0  0  0
   56.1236   25.2678   47.3521 H   0  0  0  0  0  0  0  0  0  0  0  0
   53.6627   24.1435   46.5239 H   0  0  0  0  0  0  0  0  0  0  0  0
   53.1060   24.9588   45.0232 H   0  0  0  0  0  0  0  0  0  0  0  0
   54.6433   24.0295   45.0232 H   0  0  0  0  0  0  0  0  0  0  0  0
   57.5098   31.5933   44.4298 H   0  0  0  0  0  0  0  0  0  0  0  0
   58.9728   34.8901   44.1037 H   0  0  0  0  0  0  0  0  0  0  0  0
   58.2819   33.2702   43.7037 H   0  0  0  0  0  0  0  0  0  0  0  0
   56.9468   34.5365   46.0060 H   0  0  0  0  0  0  0  0  0  0  0  0
   56.8343   35.5259   44.5110 H   0  0  0  0  0  0  0  0  0  0  0  0
   56.2468   33.8284   44.5110 H   0  0  0  0  0  0  0  0  0  0  0  0
   61.0032   33.6195   46.5433 H   0  0  0  0  0  0  0  0  0  0  0  0
   60.4801   35.0339   45.5468 H   0  0  0  0  0  0  0  0  0  0  0  0
   60.0120   34.4514   48.4093 H   0  0  0  0  0  0  0  0  0  0  0  0
   59.9429   36.0088   47.5169 H   0  0  0  0  0  0  0  0  0  0  0  0
   58.5220   34.9099   47.5169 H   0  0  0  0  0  0  0  0  0  0  0  0
   60.0349   32.2414   47.8912 H   0  0  0  0  0  0  0  0  0  0  0  0
  1  2  1  0
  2  3  1  0
  3  4  1  0
  4  5  1  0
  3  6  1  0
  6  7  1  0
  7  8  1  0
  8  9  2  0
  9 10  1  0
 10 11  2  0
 11 12  1  0
 12 13  2  0
  6 14  1  0
 14 15  2  0
 14 16  1  0
 16 17  2  0
 17 18  1  0
 18 19  1  0
 19 20  2  0
 19 21  1  0
 21 22  1  0
 22 23  1  0
 23 24  1  0
 24 25  1  0
 18 26  2  0
 26 27  1  0
 27 28  1  0
 28 29  1  0
 29 30  1  0
 28 31  1  0
 31 32  1  0
 27 33  2  0
 13  8  1  0
 33 16  1  0
  1 34  1  0
  1 35  1  0
  1 36  1  0
  2 37  1  0
  2 38  1  0
  3 39  1  1
  4 40  1  0
  4 41  1  0
  5 42  1  0
  7 43  1  0
  7 44  1  0
  9 45  1  0
 10 46  1  0
 11 47  1  0
 12 48  1  0
 13 49  1  0
 17 50  1  0
 22 51  1  0
 22 52  1  0
 23 53  1  0
 23 54  1  0
 25 55  1  0
 25 56  1  0
 25 57  1  0
 26 58  1  0
 29 59  1  0
 29 60  1  0
 30 61  1  0
 30 62  1  0
 30 63  1  0
 31 64  1  0
 31 65  1  0
 32 66  1  0
 32 67  1  0
 32 68  1  0
 33 69  1  0
M  CHG  1  21  -1
M  END
>  <UniqueID>  (49) 
43

>  <SMILES>  (49) 
CC[C@@H](CO)N(Cc1ccccc1)C(=O)c1cc(C(=O)[N-]CCOC)cc(N(CC)CC)c1

>  <Energy>  (49) 
72.25854837461357

>  <Genealogy>  (49) 
CCC(CO)N(Cc1ccccc1)C(=O)c1cc(C(=O)[N-]CCOC)cc(N(CC)CC)c1 (protonated)
CC[C@@H](CO)N(Cc1ccccc1)C(=O)c1cc(C(=O)[N-]CCOC)cc(N(CC)CC)c1 (chirality)
CC[C@@H](CO)N(Cc1ccccc1)C(=O)c1cc(C(=O)[N-]CCOC)cc(N(CC)CC)c1 (3D coordinates assigned)
CC[C@@H](CO)N(Cc1ccccc1)C(=O)c1cc(C(=O)[N-]CCOC)cc(N(CC)CC)c1 (optimized conformer: 72.25854837461357 kcal/mol)

>  <smiles>  (49) 
CCC(CO)N(Cc1ccccc1)C(=O)c1cc(C(=O)NCCOC)cc(N(CC)CC)c1

>  <score_type>  (49) 
oracle

>  <origin>  (49) 
adg

>  <m_score__min__energy>  (49) 
-9.3900000000000006

>  <m_primary>  (49) 
energy

$$$$
49:0
     RDKit          3D

 38 40  0  0  0  0  0  0  0  0999 V2000
   58.4580   27.4570   44.0320 C   0  0  0  0  0  0  0  0  0  0  0  0
   58.9940   27.6310   45.4290 C   0  0  0  0  0  0  0  0  0  0  0  0
   59.6860   26.5570   46.0200 C   0  0  0  0  0  0  0  0  0  0  0  0
   60.1950   26.6610   47.3130 C   0  0  0  0  0  0  0  0  0  0  0  0
   60.0240   27.8370   48.0380 C   0  0  0  0  0  0  0  0  0  0  0  0
   59.3440   28.9160   47.4710 C   0  0  0  0  0  0  0  0  0  0  0  0
   58.8210   28.8370   46.1650 C   0  0  0  0  0  0  0  0  0  0  0  0
   58.1120   30.0230   45.6160 C   0  0  0  0  0  0  0  0  0  0  0  0
   56.8170   30.0200   45.2350 N   0  0  0  0  0  0  0  0  0  0  0  0
   56.5430   31.2410   44.8050 N   0  0  0  0  0  0  0  0  0  0  0  0
   57.6800   31.9450   44.9410 C   0  0  0  0  0  0  0  0  0  0  0  0
   57.8540   33.6690   44.4980 S   0  0  0  0  0  0  0  0  0  0  0  0
   57.7350   34.2380   46.2230 C   0  0  0  0  0  0  0  0  0  0  0  0
   59.0780   34.1400   46.8720 C   0  0  0  0  0  0  0  0  0  0  0  0
   59.3350   34.8660   47.8700 O   0  0  0  0  0  0  0  0  0  0  0  0
   60.0880   33.2940   46.3010 N   0  0  0  0  0  0  0  0  0  0  0  0
   61.3430   32.9940   46.9360 C   0  0  0  0  0  0  0  0  0  0  0  0
   62.4880   33.7810   46.7110 C   0  0  0  0  0  0  0  0  0  0  0  0
   63.6890   33.4790   47.3600 C   0  0  0  0  0  0  0  0  0  0  0  0
   63.7560   32.4020   48.2480 C   0  0  0  0  0  0  0  0  0  0  0  0
   62.6180   31.6300   48.4950 C   0  0  0  0  0  0  0  0  0  0  0  0
   61.4150   31.9280   47.8480 C   0  0  0  0  0  0  0  0  0  0  0  0
   58.6430   31.2100   45.4370 O   0  0  0  0  0  0  0  0  0  0  0  0
   57.4127   27.1177   44.0799 H   0  0  0  0  0  0  0  0  0  0  0  0
   58.5076   28.4174   43.4980 H   0  0  0  0  0  0  0  0  0  0  0  0
   59.0622   26.7089   43.4980 H   0  0  0  0  0  0  0  0  0  0  0  0
   59.8267   25.6242   45.4542 H   0  0  0  0  0  0  0  0  0  0  0  0
   60.7327   25.8126   47.7614 H   0  0  0  0  0  0  0  0  0  0  0  0
   60.4253   27.9160   49.0591 H   0  0  0  0  0  0  0  0  0  0  0  0
   59.2146   29.8411   48.0519 H   0  0  0  0  0  0  0  0  0  0  0  0
   57.3937   35.2836   46.2418 H   0  0  0  0  0  0  0  0  0  0  0  0
   57.0165   33.6088   46.7687 H   0  0  0  0  0  0  0  0  0  0  0  0
   59.9340   32.9450   45.3280 H   0  0  0  0  0  0  0  0  0  0  0  0
   62.4378   34.6369   46.0219 H   0  0  0  0  0  0  0  0  0  0  0  0
   64.5835   34.0907   47.1711 H   0  0  0  0  0  0  0  0  0  0  0  0
   64.7039   32.1623   48.7521 H   0  0  0  0  0  0  0  0  0  0  0  0
   62.6686   30.7867   49.1994 H   0  0  0  0  0  0  0  0  0  0  0  0
   60.5192   31.3239   48.0544 H   0  0  0  0  0  0  0  0  0  0  0  0
  1  2  1  0
  2  3  2  0
  3  4  1  0
  4  5  2  0
  5  6  1  0
  6  7  2  0
  7  8  1  0
  8  9  2  0
  9 10  1  0
 10 11  2  0
 11 12  1  0
 12 13  1  0
 13 14  1  0
 14 15  2  0
 14 16  1  0
 16 17  1  0
 17 18  2  0
 18 19  1  0
 19 20  2  0
 20 21  1  0
 21 22  2  0
 11 23  1  0
  7  2  1  0
 23  8  1  0
 22 17  1  0
  1 24  1  0
  1 25  1  0
  1 26  1  0
  3 27  1  0
  4 28  1  0
  5 29  1  0
  6 30  1  0
 13 31  1  0
 13 32  1  0
 16 33  1  0
 18 34  1  0
 19 35  1  0
 20 36  1  0
 21 37  1  0
 22 38  1  0
M  END
>  <UniqueID>  (50) 
44

>  <SMILES>  (50) 
Cc1ccccc1-c1nnc(SCC(=O)Nc2ccccc2)o1

>  <Energy>  (50) 
76.01127966003331

>  <Genealogy>  (50) 
Cc1ccccc1-c1nnc(SCC(=O)Nc2ccccc2)o1 (3D coordinates assigned)
Cc1ccccc1-c1nnc(SCC(=O)Nc2ccccc2)o1 (optimized conformer: 76.01127966003331 kcal/mol)

>  <smiles>  (50) 
Cc1ccccc1-c1nnc(SCC(=O)Nc2ccccc2)o1

>  <score_type>  (50) 
oracle

>  <origin>  (50) 
adg

>  <m_score__min__energy>  (50) 
-8.1899999999999995

>  <m_primary>  (50) 
energy

$$$$
50:0
     RDKit          3D

 55 58  0  0  0  0  0  0  0  0999 V2000
   63.9190   30.2250   51.2300 C   0  0  0  0  0  0  0  0  0  0  0  0
   63.1620   31.0030   50.1830 C   0  0  0  0  0  0  0  0  0  0  0  0
   63.8590   31.8240   49.3430 N   0  0  0  0  0  0  0  0  0  0  0  0
   63.2480   32.5600   48.3730 C   0  0  0  0  0  0  0  0  0  0  0  0
   64.0060   33.3980   47.5370 C   0  0  0  0  0  0  0  0  0  0  0  0
   63.3800   34.1560   46.5450 C   0  0  0  0  0  0  0  0  0  0  0  0
   61.9960   34.0870   46.3790 C   0  0  0  0  0  0  0  0  0  0  0  0
   61.2300   33.2600   47.2040 C   0  0  0  0  0  0  0  0  0  0  0  0
   61.8480   32.4860   48.2070 C   0  0  0  0  0  0  0  0  0  0  0  0
   61.1060   31.6410   49.0480 C   0  0  0  0  0  0  0  0  0  0  0  0
   59.8520   31.5660   48.9200 O   0  0  0  0  0  0  0  0  0  0  0  0
   61.7560   30.8790   50.0410 C   0  0  0  0  0  0  0  0  0  0  0  0
   60.9330   29.9940   50.9590 C   0  0  0  0  0  0  0  0  0  0  0  0
   60.5830   28.7140   50.2650 C   0  0  0  0  0  0  0  0  0  0  0  0
   60.0570   27.7750   50.9210 O   0  0  0  0  0  0  0  0  0  0  0  0
   60.8410   28.5730   48.8630 N   0  0  0  0  0  0  0  0  0  0  0  0
   59.9430   28.9270   47.8020 C   0  0  0  0  0  0  0  0  0  0  0  0
   58.6080   28.4820   47.7800 C   0  0  0  0  0  0  0  0  0  0  0  0
   57.7690   28.8300   46.7190 C   0  0  0  0  0  0  0  0  0  0  0  0
   58.2510   29.6120   45.6630 C   0  0  0  0  0  0  0  0  0  0  0  0
   57.1660   30.0670   44.3550 S   0  0  0  0  0  0  0  0  0  0  0  0
   57.3270   29.1390   43.1830 O   0  0  0  0  0  0  0  0  0  0  0  0
   55.7470   29.9760   44.8440 O   0  0  0  0  0  0  0  0  0  0  0  0
   57.5410   31.6880   43.8540 N   0  0  0  0  0  0  0  0  0  0  0  0
   57.8860   31.9090   42.4510 C   0  0  0  0  0  0  0  0  0  0  0  0
   57.8680   32.6780   44.8420 C   0  0  0  0  0  0  0  0  0  0  0  0
   57.4270   32.5250   46.1670 C   0  0  0  0  0  0  0  0  0  0  0  0
   57.7480   33.4860   47.1320 C   0  0  0  0  0  0  0  0  0  0  0  0
   58.5090   34.6040   46.7820 C   0  0  0  0  0  0  0  0  0  0  0  0
   58.9480   34.7660   45.4650 C   0  0  0  0  0  0  0  0  0  0  0  0
   58.6290   33.8080   44.4960 C   0  0  0  0  0  0  0  0  0  0  0  0
   59.5870   30.0350   45.6700 C   0  0  0  0  0  0  0  0  0  0  0  0
   60.4290   29.6850   46.7300 C   0  0  0  0  0  0  0  0  0  0  0  0
   63.6010   30.5519   52.2310 H   0  0  0  0  0  0  0  0  0  0  0  0
   63.7104   29.1515   51.1113 H   0  0  0  0  0  0  0  0  0  0  0  0
   64.9978   30.4042   51.1113 H   0  0  0  0  0  0  0  0  0  0  0  0
   64.8980   31.8930   49.4460 H   0  0  0  0  0  0  0  0  0  0  0  0
   65.0970   33.4570   47.6646 H   0  0  0  0  0  0  0  0  0  0  0  0
   63.9791   34.8088   45.8931 H   0  0  0  0  0  0  0  0  0  0  0  0
   61.5070   34.6855   45.5963 H   0  0  0  0  0  0  0  0  0  0  0  0
   60.1392   33.2125   47.0703 H   0  0  0  0  0  0  0  0  0  0  0  0
   61.5151   29.7690   51.8648 H   0  0  0  0  0  0  0  0  0  0  0  0
   60.0061   30.5209   51.2299 H   0  0  0  0  0  0  0  0  0  0  0  0
   58.2242   27.8583   48.6008 H   0  0  0  0  0  0  0  0  0  0  0  0
   56.7237   28.4876   46.7133 H   0  0  0  0  0  0  0  0  0  0  0  0
   58.8108   32.5014   42.3898 H   0  0  0  0  0  0  0  0  0  0  0  0
   58.0379   30.9397   41.9537 H   0  0  0  0  0  0  0  0  0  0  0  0
   57.0690   32.4522   41.9537 H   0  0  0  0  0  0  0  0  0  0  0  0
   56.8271   31.6465   46.4469 H   0  0  0  0  0  0  0  0  0  0  0  0
   57.4005   33.3609   48.1681 H   0  0  0  0  0  0  0  0  0  0  0  0
   58.7627   35.3568   47.5429 H   0  0  0  0  0  0  0  0  0  0  0  0
   59.5452   35.6478   45.1897 H   0  0  0  0  0  0  0  0  0  0  0  0
   58.9749   33.9397   43.4602 H   0  0  0  0  0  0  0  0  0  0  0  0
   59.9742   30.6438   44.8397 H   0  0  0  0  0  0  0  0  0  0  0  0
   61.4806   30.0075   46.7216 H   0  0  0  0  0  0  0  0  0  0  0  0
  1  2  1  0
  2  3  1  0
  3  4  1  0
  4  5  2  0
  5  6  1  0
  6  7  2  0
  7  8  1  0
  8  9  2  0
  9 10  1  0
 10 11  2  0
 10 12  1  0
 12 13  1  0
 13 14  1  0
 14 15  2  0
 14 16  1  0
 16 17  1  0
 17 18  2  0
 18 19  1  0
 19 20  2  0
 20 21  1  0
 21 22  2  0
 21 23  2  0
 21 24  1  0
 24 25  1  0
 24 26  1  0
 26 27  2  0
 27 28  1  0
 28 29  2  0
 29 30  1  0
 30 31  2  0
 20 32  1  0
 32 33  2  0
 12  2  2  0
 33 17  1  0
  9  4  1  0
 31 26  1  0
  1 34  1  0
  1 35  1  0
  1 36  1  0
  3 37  1  0
  5 38  1  0
  6 39  1  0
  7 40  1  0
  8 41  1  0
 13 42  1  0
 13 43  1  0
 18 44  1  0
 19 45  1  0
 25 46  1  0
 25 47  1  0
 25 48  1  0
 27 49  1  0
 28 50  1  0
 29 51  1  0
 30 52  1  0
 31 53  1  0
 32 54  1  0
 33 55  1  0
M  CHG  1  16  -1
M  END
>  <UniqueID>  (51) 
45

>  <SMILES>  (51) 
Cc1[nH]c2ccccc2c(=O)c1CC(=O)[N-]c1ccc(S(=O)(=O)N(C)c2ccccc2)cc1

>  <Energy>  (51) 
73.51592282502338

>  <Genealogy>  (51) 
Cc1[nH]c2ccccc2c(=O)c1CC(=O)[N-]c1ccc(S(=O)(=O)N(C)c2ccccc2)cc1 (protonated)
Cc1[nH]c2ccccc2c(=O)c1CC(=O)[N-]c1ccc(S(=O)(=O)N(C)c2ccccc2)cc1 (3D coordinates assigned)
Cc1[nH]c2ccccc2c(=O)c1CC(=O)[N-]c1ccc(S(=O)(=O)N(C)c2ccccc2)cc1 (optimized conformer: 73.51592282502338 kcal/mol)

>  <smiles>  (51) 
Cc1[nH]c2ccccc2c(=O)c1CC(=O)Nc1ccc(S(=O)(=O)N(C)c2ccccc2)cc1

>  <score_type>  (51) 
oracle

>  <origin>  (51) 
adg

>  <m_score__min__energy>  (51) 
-10.949999999999999

>  <m_primary>  (51) 
energy

$$$$
51:0
     RDKit          3D

 40 43  0  0  0  0  0  0  0  0999 V2000
   59.4073   35.2828   47.3470 H   0  0  0  0  0  0  0  0  0  0  0  0
   59.8220   34.3070   47.0540 C   0  0  0  0  0  0  0  0  0  0  0  0
   59.0650   33.5270   46.2560 C   0  0  0  0  0  0  0  0  0  0  0  0
   58.8860   32.0670   46.4590 C   0  0  0  0  0  0  0  0  0  0  0  0
   59.0300   31.5610   47.6050 O   0  0  0  0  0  0  0  0  0  0  0  0
   58.3560   31.2480   45.3430 C   0  0  0  0  0  0  0  0  0  0  0  0
   57.5470   31.9200   44.4110 C   0  0  0  0  0  0  0  0  0  0  0  0
   56.8500   31.2090   43.4340 C   0  0  0  0  0  0  0  0  0  0  0  0
   56.1923   31.7439   42.7331 H   0  0  0  0  0  0  0  0  0  0  0  0
   56.9820   29.8270   43.3410 C   0  0  0  0  0  0  0  0  0  0  0  0
   56.4134   29.2732   42.5794 H   0  0  0  0  0  0  0  0  0  0  0  0
   57.8350   29.1370   44.2120 C   0  0  0  0  0  0  0  0  0  0  0  0
   57.9910   27.7480   44.0820 C   0  0  0  0  0  0  0  0  0  0  0  0
   57.4202   27.2023   43.3162 H   0  0  0  0  0  0  0  0  0  0  0  0
   58.8660   27.0570   44.9190 C   0  0  0  0  0  0  0  0  0  0  0  0
   58.9743   25.9668   44.8201 H   0  0  0  0  0  0  0  0  0  0  0  0
   59.6040   27.7450   45.8810 C   0  0  0  0  0  0  0  0  0  0  0  0
   60.3058   27.1972   46.5271 H   0  0  0  0  0  0  0  0  0  0  0  0
   59.4570   29.1270   46.0290 C   0  0  0  0  0  0  0  0  0  0  0  0
   60.0534   29.6611   46.7834 H   0  0  0  0  0  0  0  0  0  0  0  0
   58.5490   29.8440   45.2180 C   0  0  0  0  0  0  0  0  0  0  0  0
   57.4070   33.3110   44.4760 O   0  0  0  0  0  0  0  0  0  0  0  0
   58.3960   34.1620   45.0590 C   0  0  0  0  0  0  0  0  0  0  0  0
   57.9139   35.0978   45.3782 H   0  0  0  0  0  0  0  0  0  0  0  0
   59.1701   34.3478   44.2999 H   0  0  0  0  0  0  0  0  0  0  0  0
   61.1630   33.9580   47.5670 C   0  0  0  0  0  0  0  0  0  0  0  0
   62.1630   33.4630   46.7120 C   0  0  0  0  0  0  0  0  0  0  0  0
   61.9404   33.2975   45.6475 H   0  0  0  0  0  0  0  0  0  0  0  0
   63.4390   33.1800   47.2080 C   0  0  0  0  0  0  0  0  0  0  0  0
   64.2100   32.7748   46.5361 H   0  0  0  0  0  0  0  0  0  0  0  0
   63.7420   33.4110   48.5630 C   0  0  0  0  0  0  0  0  0  0  0  0
   65.0060   33.1410   49.1090 O   0  0  0  0  0  0  0  0  0  0  0  0
   65.2880   33.1050   50.5040 C   0  0  0  0  0  0  0  0  0  0  0  0
   64.3526   33.2244   51.0704 H   0  0  0  0  0  0  0  0  0  0  0  0
   65.7509   32.1405   50.7597 H   0  0  0  0  0  0  0  0  0  0  0  0
   65.9784   33.9223   50.7597 H   0  0  0  0  0  0  0  0  0  0  0  0
   62.7520   33.9330   49.4030 C   0  0  0  0  0  0  0  0  0  0  0  0
   62.9805   34.1223   50.4622 H   0  0  0  0  0  0  0  0  0  0  0  0
   61.4760   34.2160   48.9090 C   0  0  0  0  0  0  0  0  0  0  0  0
   60.7132   34.6434   49.5764 H   0  0  0  0  0  0  0  0  0  0  0  0
  1  2  1  0
  2  3  2  0
  3  4  1  0
  4  5  2  0
  4  6  1  0
  6  7  2  0
  7  8  1  0
  8  9  1  0
  8 10  2  0
 10 11  1  0
 10 12  1  0
 12 13  2  0
 13 14  1  0
 13 15  1  0
 15 16  1  0
 15 17  2  0
 17 18  1  0
 17 19  1  0
 19 20  1  0
 19 21  2  0
  7 22  1  0
 22 23  1  0
 23 24  1  0
 23 25  1  0
  2 26  1  0
 26 27  2  0
 27 28  1  0
 27 29  1  0
 29 30  1  0
 29 31  2  0
 31 32  1  0
 32 33  1  0
 33 34  1  0
 33 35  1  0
 33 36  1  0
 31 37  1  0
 37 38  1  0
 37 39  2  0
 39 40  1  0
 23  3  1  0
 39 26  1  0
 21  6  1  0
 21 12  1  0
M  END
>  <UniqueID>  (52) 
46

>  <SMILES>  (52) 
COc1ccc(/C=C2/COc3ccc4ccccc4c3C2=O)cc1

>  <Energy>  (52) 
65.87203017711877

>  <Genealogy>  (52) 
COc1ccc(/C=C2/COc3ccc4ccccc4c3C2=O)cc1 (cis-trans isomerization)
COc1ccc(/C=C2/COc3ccc4ccccc4c3C2=O)cc1 (3D coordinates assigned)
COc1ccc(/C=C2/COc3ccc4ccccc4c3C2=O)cc1 (nonaromatic ring conformer: 65.87203017711877 kcal/mol)

>  <smiles>  (52) 
COc1ccc(C=C2COc3ccc4ccccc4c3C2=O)cc1

>  <score_type>  (52) 
oracle

>  <origin>  (52) 
adg

>  <m_score__min__energy>  (52) 
-8.2899999999999991

>  <m_primary>  (52) 
energy

$$$$
52:0
     RDKit          3D

 54 56  0  0  0  0  0  0  0  0999 V2000
   59.4870   35.0190   47.0320 C   0  0  0  0  0  0  0  0  0  0  0  0
   58.9180   33.6630   47.0290 N   0  0  0  0  0  0  0  0  0  0  0  0
   58.7470   32.9610   48.3120 C   0  0  0  0  0  0  0  0  0  0  0  0
   58.5260   33.0280   45.7810 C   0  0  0  0  0  0  0  0  0  0  0  0
   58.6400   33.7120   44.5550 C   0  0  0  0  0  0  0  0  0  0  0  0
   58.2650   33.0990   43.3570 C   0  0  0  0  0  0  0  0  0  0  0  0
   57.7660   31.7970   43.3570 C   0  0  0  0  0  0  0  0  0  0  0  0
   57.6270   31.0890   44.5630 C   0  0  0  0  0  0  0  0  0  0  0  0
   57.0950   29.7000   44.5780 C   0  0  0  0  0  0  0  0  0  0  0  0
   55.8960   29.5030   44.9230 O   0  0  0  0  0  0  0  0  0  0  0  0
   57.9010   28.5880   44.1470 N   0  0  0  0  0  0  0  0  0  0  0  0
   57.5780   27.2130   44.4210 C   0  0  0  0  0  0  0  0  0  0  0  0
   57.7730   26.2090   43.4570 C   0  0  0  0  0  0  0  0  0  0  0  0
   57.4370   24.8810   43.7410 C   0  0  0  0  0  0  0  0  0  0  0  0
   56.8950   24.5340   44.9850 C   0  0  0  0  0  0  0  0  0  0  0  0
   56.5530   23.1680   45.2910 N   0  0  0  0  0  0  0  0  0  0  0  0
   56.1690   22.8210   46.6350 C   0  0  0  0  0  0  0  0  0  0  0  0
   57.0630   22.6270   47.5060 O   0  0  0  0  0  0  0  0  0  0  0  0
   54.7540   22.6310   47.0090 C   0  0  0  0  0  0  0  0  0  0  0  0
   54.4190   22.2460   48.3180 C   0  0  0  0  0  0  0  0  0  0  0  0
   53.0790   22.0670   48.6780 C   0  0  0  0  0  0  0  0  0  0  0  0
   52.0680   22.2510   47.7280 C   0  0  0  0  0  0  0  0  0  0  0  0
   52.3950   22.6050   46.4130 C   0  0  0  0  0  0  0  0  0  0  0  0
   53.7340   22.7880   46.0520 C   0  0  0  0  0  0  0  0  0  0  0  0
   56.6270   21.9550   44.0340 S   0  0  0  0  0  0  0  0  0  0  0  0
   58.3280   21.5310   43.7190 C   0  0  0  0  0  0  0  0  0  0  0  0
   56.0020   22.4800   42.7690 O   0  0  0  0  0  0  0  0  0  0  0  0
   55.8840   20.7160   44.4500 O   0  0  0  0  0  0  0  0  0  0  0  0
   56.6920   25.5370   45.9460 C   0  0  0  0  0  0  0  0  0  0  0  0
   57.0190   26.8670   45.6610 C   0  0  0  0  0  0  0  0  0  0  0  0
   58.0190   31.7100   45.7670 C   0  0  0  0  0  0  0  0  0  0  0  0
   59.6281   35.3552   48.0698 H   0  0  0  0  0  0  0  0  0  0  0  0
   60.4575   35.0106   46.5142 H   0  0  0  0  0  0  0  0  0  0  0  0
   58.8011   35.7056   46.5142 H   0  0  0  0  0  0  0  0  0  0  0  0
   58.9183   33.6642   49.1404 H   0  0  0  0  0  0  0  0  0  0  0  0
   57.7249   32.5598   48.3770 H   0  0  0  0  0  0  0  0  0  0  0  0
   59.4701   32.1346   48.3770 H   0  0  0  0  0  0  0  0  0  0  0  0
   59.0288   34.7409   44.5407 H   0  0  0  0  0  0  0  0  0  0  0  0
   58.3640   33.6467   42.4082 H   0  0  0  0  0  0  0  0  0  0  0  0
   57.4795   31.3212   42.4075 H   0  0  0  0  0  0  0  0  0  0  0  0
   58.6920   28.7740   43.4890 H   0  0  0  0  0  0  0  0  0  0  0  0
   58.1921   26.4688   42.4737 H   0  0  0  0  0  0  0  0  0  0  0  0
   57.5999   24.1027   42.9809 H   0  0  0  0  0  0  0  0  0  0  0  0
   55.2129   22.0848   49.0622 H   0  0  0  0  0  0  0  0  0  0  0  0
   52.8199   21.7815   49.7082 H   0  0  0  0  0  0  0  0  0  0  0  0
   51.0145   22.1173   48.0147 H   0  0  0  0  0  0  0  0  0  0  0  0
   51.5998   22.7390   45.6649 H   0  0  0  0  0  0  0  0  0  0  0  0
   53.9907   23.0556   45.0164 H   0  0  0  0  0  0  0  0  0  0  0  0
   58.8561   21.3994   44.6749 H   0  0  0  0  0  0  0  0  0  0  0  0
   58.3720   20.5944   43.1438 H   0  0  0  0  0  0  0  0  0  0  0  0
   58.8064   22.3374   43.1438 H   0  0  0  0  0  0  0  0  0  0  0  0
   56.2733   25.2756   46.9290 H   0  0  0  0  0  0  0  0  0  0  0  0
   56.8366   27.6475   46.4144 H   0  0  0  0  0  0  0  0  0  0  0  0
   57.9281   31.1570   46.7135 H   0  0  0  0  0  0  0  0  0  0  0  0
  1  2  1  0
  2  3  1  0
  2  4  1  0
  4  5  2  0
  5  6  1  0
  6  7  2  0
  7  8  1  0
  8  9  1  0
  9 10  2  0
  9 11  1  0
 11 12  1  0
 12 13  2  0
 13 14  1  0
 14 15  2  0
 15 16  1  0
 16 17  1  0
 17 18  2  0
 17 19  1  0
 19 20  2  0
 20 21  1  0
 21 22  2  0
 22 23  1  0
 23 24  2  0
 16 25  1  0
 25 26  1  0
 25 27  2  0
 25 28  2  0
 15 29  1  0
 29 30  2  0
  8 31  2  0
 31  4  1  0
 30 12  1  0
 24 19  1  0
  1 32  1  0
  1 33  1  0
  1 34  1  0
  3 35  1  0
  3 36  1  0
  3 37  1  0
  5 38  1  0
  6 39  1  0
  7 40  1  0
 11 41  1  0
 13 42  1  0
 14 43  1  0
 20 44  1  0
 21 45  1  0
 22 46  1  0
 23 47  1  0
 24 48  1  0
 26 49  1  0
 26 50  1  0
 26 51  1  0
 29 52  1  0
 30 53  1  0
 31 54  1  0
M  END
>  <UniqueID>  (53) 
47

>  <SMILES>  (53) 
CN(C)c1cccc(C(=O)Nc2ccc(N(C(=O)c3ccccc3)S(C)(=O)=O)cc2)c1

>  <Energy>  (53) 
72.70809114410596

>  <Genealogy>  (53) 
CN(C)c1cccc(C(=O)Nc2ccc(N(C(=O)c3ccccc3)S(C)(=O)=O)cc2)c1 (3D coordinates assigned)
CN(C)c1cccc(C(=O)Nc2ccc(N(C(=O)c3ccccc3)S(C)(=O)=O)cc2)c1 (optimized conformer: 72.70809114410596 kcal/mol)

>  <smiles>  (53) 
CN(C)c1cccc(C(=O)Nc2ccc(N(C(=O)c3ccccc3)S(C)(=O)=O)cc2)c1

>  <score_type>  (53) 
oracle

>  <origin>  (53) 
adg

>  <m_score__min__energy>  (53) 
-9.1199999999999992

>  <m_primary>  (53) 
energy

$$$$
53:0
     RDKit          3D

 52 54  0  0  0  0  0  0  0  0999 V2000
   59.6180   26.6910   47.6480 C   0  0  0  0  0  0  0  0  0  0  0  0
   59.0690   27.8130   46.8240 C   0  0  0  0  0  0  0  0  0  0  0  0
   59.8680   29.2650   46.5650 S   0  0  0  0  0  0  0  0  0  0  0  0
   58.6680   29.9470   45.6130 C   0  0  0  0  0  0  0  0  0  0  0  0
   58.7380   31.2880   45.1150 N   0  0  0  0  0  0  0  0  0  0  0  0
   58.2770   32.4140   45.8780 C   0  0  0  0  0  0  0  0  0  0  0  0
   57.6840   32.2410   46.9770 O   0  0  0  0  0  0  0  0  0  0  0  0
   58.5200   33.8130   45.3810 C   0  0  0  0  0  0  0  0  0  0  0  0
   59.6040   34.5120   46.1030 N   0  0  0  0  0  0  0  0  0  0  0  0
   60.9350   33.8810   45.9930 C   0  0  0  0  0  0  0  0  0  0  0  0
   61.1930   32.7970   47.0660 C   0  0  0  0  0  0  0  0  0  0  0  0
   60.2290   32.8620   48.1850 N   0  0  0  0  0  0  0  0  0  0  0  0
   60.7070   32.0510   49.3230 C   0  0  0  0  0  0  0  0  0  0  0  0
   59.5470   31.6070   50.1760 C   0  0  0  0  0  0  0  0  0  0  0  0
   58.7510   32.5490   50.8520 C   0  0  0  0  0  0  0  0  0  0  0  0
   57.6640   32.1270   51.6230 C   0  0  0  0  0  0  0  0  0  0  0  0
   57.3630   30.7650   51.7250 C   0  0  0  0  0  0  0  0  0  0  0  0
   55.9980   30.2370   52.6950 Cl  0  0  0  0  0  0  0  0  0  0  0  0
   58.1490   29.8230   51.0540 C   0  0  0  0  0  0  0  0  0  0  0  0
   59.2350   30.2430   50.2820 C   0  0  0  0  0  0  0  0  0  0  0  0
   60.0080   34.2630   48.5770 C   0  0  0  0  0  0  0  0  0  0  0  0
   59.2500   34.9950   47.4590 C   0  0  0  0  0  0  0  0  0  0  0  0
   57.6140   29.0370   45.4370 C   0  0  0  0  0  0  0  0  0  0  0  0
   56.5060   29.2600   44.4710 C   0  0  0  0  0  0  0  0  0  0  0  0
   55.1500   29.3230   44.8990 N   0  0  0  0  0  0  0  0  0  0  0  0
   56.7550   29.3670   43.2400 O   0  0  0  0  0  0  0  0  0  0  0  0
   57.8410   27.8320   46.1550 C   0  0  0  0  0  0  0  0  0  0  0  0
   56.9130   26.6890   46.2190 C   0  0  0  0  0  0  0  0  0  0  0  0
   55.5210   26.8830   45.9850 N   0  0  0  0  0  0  0  0  0  0  0  0
   57.3380   25.5510   46.5500 O   0  0  0  0  0  0  0  0  0  0  0  0
   59.5015   26.9290   48.7156 H   0  0  0  0  0  0  0  0  0  0  0  0
   59.0713   25.7649   47.4171 H   0  0  0  0  0  0  0  0  0  0  0  0
   60.6848   26.5543   47.4171 H   0  0  0  0  0  0  0  0  0  0  0  0
   59.3780   31.4680   44.3090 H   0  0  0  0  0  0  0  0  0  0  0  0
   58.7867   33.7630   44.3150 H   0  0  0  0  0  0  0  0  0  0  0  0
   57.5952   34.3837   45.5517 H   0  0  0  0  0  0  0  0  0  0  0  0
   61.0188   33.4153   45.0000 H   0  0  0  0  0  0  0  0  0  0  0  0
   61.6829   34.6730   46.1460 H   0  0  0  0  0  0  0  0  0  0  0  0
   61.1161   31.8073   46.5921 H   0  0  0  0  0  0  0  0  0  0  0  0
   62.1966   32.9721   47.4810 H   0  0  0  0  0  0  0  0  0  0  0  0
   61.2352   31.1653   48.9402 H   0  0  0  0  0  0  0  0  0  0  0  0
   61.3869   32.6615   49.9354 H   0  0  0  0  0  0  0  0  0  0  0  0
   58.9845   33.6211   50.7738 H   0  0  0  0  0  0  0  0  0  0  0  0
   57.0444   32.8673   52.1503 H   0  0  0  0  0  0  0  0  0  0  0  0
   57.9123   28.7517   51.1340 H   0  0  0  0  0  0  0  0  0  0  0  0
   59.8497   29.4994   49.7536 H   0  0  0  0  0  0  0  0  0  0  0  0
   59.4157   34.2953   49.5034 H   0  0  0  0  0  0  0  0  0  0  0  0
   60.9780   34.7540   48.7442 H   0  0  0  0  0  0  0  0  0  0  0  0
   58.1709   34.8468   47.6127 H   0  0  0  0  0  0  0  0  0  0  0  0
   59.5320   36.0569   47.5127 H   0  0  0  0  0  0  0  0  0  0  0  0
   54.8770   29.0490   45.8680 H   0  0  0  0  0  0  0  0  0  0  0  0
   55.1650   27.1420   45.0370 H   0  0  0  0  0  0  0  0  0  0  0  0
  1  2  1  0
  2  3  1  0
  3  4  1  0
  4  5  1  0
  5  6  1  0
  6  7  2  0
  6  8  1  0
  8  9  1  0
  9 10  1  0
 10 11  1  0
 11 12  1  0
 12 13  1  0
 13 14  1  0
 14 15  2  0
 15 16  1  0
 16 17  2  0
 17 18  1  0
 17 19  1  0
 19 20  2  0
 12 21  1  0
 21 22  1  0
  4 23  2  0
 23 24  1  0
 24 25  1  0
 24 26  2  0
 23 27  1  0
 27 28  1  0
 28 29  1  0
 28 30  2  0
 27  2  2  0
 22  9  1  0
 20 14  1  0
  1 31  1  0
  1 32  1  0
  1 33  1  0
  5 34  1  0
  8 35  1  0
  8 36  1  0
 10 37  1  0
 10 38  1  0
 11 39  1  0
 11 40  1  0
 13 41  1  0
 13 42  1  0
 15 43  1  0
 16 44  1  0
 19 45  1  0
 20 46  1  0
 21 47  1  0
 21 48  1  0
 22 49  1  0
 22 50  1  0
 25 51  1  0
 29 52  1  0
M  CHG  2  25  -1  29  -1
M  END
>  <UniqueID>  (54) 
48

>  <SMILES>  (54) 
Cc1sc(NC(=O)CN2CCN(Cc3ccc(Cl)cc3)CC2)c(C([NH-])=O)c1C([NH-])=O

>  <Energy>  (54) 
101.01282384371582

>  <Genealogy>  (54) 
Cc1sc(NC(=O)CN2CCN(Cc3ccc(Cl)cc3)CC2)c(C([NH-])=O)c1C([NH-])=O (protonated)
Cc1sc(NC(=O)CN2CCN(Cc3ccc(Cl)cc3)CC2)c(C([NH-])=O)c1C([NH-])=O (3D coordinates assigned)
Cc1sc(NC(=O)CN2CCN(Cc3ccc(Cl)cc3)CC2)c(C([NH-])=O)c1C([NH-])=O (nonaromatic ring conformer: 101.01282384371582 kcal/mol)

>  <smiles>  (54) 
Cc1sc(NC(=O)CN2CCN(Cc3ccc(Cl)cc3)CC2)c(C(N)=O)c1C(N)=O

>  <score_type>  (54) 
oracle

>  <origin>  (54) 
adg

>  <m_score__min__energy>  (54) 
-14.6

>  <m_primary>  (54) 
energy

$$$$
54:0
     RDKit          3D

 49 53  0  0  0  0  0  0  0  0999 V2000
   57.4494   29.1126   42.6724 H   0  0  0  0  0  0  0  0  0  0  0  0
   57.4210   29.7920   43.5370 C   0  0  0  0  0  0  0  0  0  0  0  0
   57.3400   31.4700   43.4700 S   0  0  0  0  0  0  0  0  0  0  0  0
   57.3400   31.6450   45.1460 C   0  0  0  0  0  0  0  0  0  0  0  0
   57.2840   32.7620   45.8100 N   0  0  0  0  0  0  0  0  0  0  0  0
   57.7090   34.0630   45.3700 C   0  0  0  0  0  0  0  0  0  0  0  0
   56.9720   34.7870   44.6490 O   0  0  0  0  0  0  0  0  0  0  0  0
   59.0570   34.5670   45.7730 C   0  0  0  0  0  0  0  0  0  0  0  0
   59.1640   35.6167   45.4619 H   0  0  0  0  0  0  0  0  0  0  0  0
   59.8354   33.9595   45.2882 H   0  0  0  0  0  0  0  0  0  0  0  0
   59.2340   34.4490   47.5810 S   0  0  0  0  0  0  0  0  0  0  0  0
   60.3860   33.0670   47.5040 C   0  0  0  0  0  0  0  0  0  0  0  0
   61.6440   33.1060   48.1410 C   0  0  0  0  0  0  0  0  0  0  0  0
   62.1100   34.2330   48.8490 C   0  0  0  0  0  0  0  0  0  0  0  0
   61.4784   35.1300   48.9298 H   0  0  0  0  0  0  0  0  0  0  0  0
   63.3740   34.2130   49.4490 C   0  0  0  0  0  0  0  0  0  0  0  0
   63.7355   35.0965   49.9956 H   0  0  0  0  0  0  0  0  0  0  0  0
   64.1780   33.0750   49.3560 C   0  0  0  0  0  0  0  0  0  0  0  0
   65.1691   33.0631   49.8330 H   0  0  0  0  0  0  0  0  0  0  0  0
   63.7270   31.9520   48.6590 C   0  0  0  0  0  0  0  0  0  0  0  0
   64.3624   31.0567   48.5898 H   0  0  0  0  0  0  0  0  0  0  0  0
   62.4670   31.9640   48.0480 C   0  0  0  0  0  0  0  0  0  0  0  0
   62.0390   30.8730   47.3630 N   0  0  0  0  0  0  0  0  0  0  0  0
   60.8280   30.8580   46.7480 C   0  0  0  0  0  0  0  0  0  0  0  0
   60.3810   29.6330   46.0170 C   0  0  0  0  0  0  0  0  0  0  0  0
   60.0975   28.8561   46.7423 H   0  0  0  0  0  0  0  0  0  0  0  0
   59.5146   29.8786   45.3854 H   0  0  0  0  0  0  0  0  0  0  0  0
   61.2020   29.2629   45.3854 H   0  0  0  0  0  0  0  0  0  0  0  0
   60.0120   31.9470   46.8250 N   0  0  0  0  0  0  0  0  0  0  0  0
   59.0790   31.9230   46.3550 H   0  0  0  0  0  0  0  0  0  0  0  0
   57.4010   30.4480   45.7650 N   0  0  0  0  0  0  0  0  0  0  0  0
   57.4460   29.4090   44.8830 C   0  0  0  0  0  0  0  0  0  0  0  0
   57.5420   28.0020   45.3480 C   0  0  0  0  0  0  0  0  0  0  0  0
   57.7480   27.6950   46.7080 C   0  0  0  0  0  0  0  0  0  0  0  0
   57.8516   28.5090   47.4405 H   0  0  0  0  0  0  0  0  0  0  0  0
   57.8220   26.3660   47.1350 C   0  0  0  0  0  0  0  0  0  0  0  0
   57.9792   26.1413   48.2003 H   0  0  0  0  0  0  0  0  0  0  0  0
   57.6970   25.3190   46.2130 C   0  0  0  0  0  0  0  0  0  0  0  0
   57.7650   23.9820   46.6350 C   0  0  0  0  0  0  0  0  0  0  0  0
   57.9115   23.7491   47.7000 H   0  0  0  0  0  0  0  0  0  0  0  0
   57.6470   22.9470   45.7050 C   0  0  0  0  0  0  0  0  0  0  0  0
   57.6973   21.9005   46.0400 H   0  0  0  0  0  0  0  0  0  0  0  0
   57.4650   23.2370   44.3490 C   0  0  0  0  0  0  0  0  0  0  0  0
   57.3767   22.4179   43.6201 H   0  0  0  0  0  0  0  0  0  0  0  0
   57.3950   24.5650   43.9170 C   0  0  0  0  0  0  0  0  0  0  0  0
   57.2518   24.7879   42.8494 H   0  0  0  0  0  0  0  0  0  0  0  0
   57.5070   25.6140   44.8420 C   0  0  0  0  0  0  0  0  0  0  0  0
   57.4310   26.9500   44.4210 C   0  0  0  0  0  0  0  0  0  0  0  0
   57.2831   27.1772   43.3549 H   0  0  0  0  0  0  0  0  0  0  0  0
  1  2  1  0
  2  3  1  0
  3  4  1  0
  4  5  2  0
  5  6  1  0
  6  7  2  0
  6  8  1  0
  8  9  1  0
  8 10  1  0
  8 11  1  0
 11 12  1  0
 12 13  1  0
 13 14  2  0
 14 15  1  0
 14 16  1  0
 16 17  1  0
 16 18  2  0
 18 19  1  0
 18 20  1  0
 20 21  1  0
 20 22  2  0
 22 23  1  0
 23 24  2  0
 24 25  1  0
 25 26  1  0
 25 27  1  0
 25 28  1  0
 24 29  1  0
 29 30  1  0
  4 31  1  0
 31 32  1  0
 32 33  1  0
 33 34  2  0
 34 35  1  0
 34 36  1  0
 36 37  1  0
 36 38  2  0
 38 39  1  0
 39 40  1  0
 39 41  2  0
 41 42  1  0
 41 43  1  0
 43 44  1  0
 43 45  2  0
 45 46  1  0
 45 47  1  0
 47 48  2  0
 48 49  1  0
 32  2  2  0
 48 33  1  0
 29 12  2  0
 47 38  1  0
 22 13  1  0
M  CHG  2  29   1  31  -1
M  END
>  <UniqueID>  (55) 
49

>  <SMILES>  (55) 
Cc1nc2ccccc2c(SCC(=O)/N=c2/[n-]c(-c3ccc4ccccc4c3)cs2)[nH+]1

>  <Energy>  (55) 
92.57243589411735

>  <Genealogy>  (55) 
Cc1nc2ccccc2c(SCC(=O)N=c2[n-]c(-c3ccc4ccccc4c3)cs2)[nH+]1 (protonated)
Cc1nc2ccccc2c(SCC(=O)/N=c2/[n-]c(-c3ccc4ccccc4c3)cs2)[nH+]1 (cis-trans isomerization)
Cc1nc2ccccc2c(SCC(=O)/N=c2/[n-]c(-c3ccc4ccccc4c3)cs2)[nH+]1 (3D coordinates assigned)
Cc1nc2ccccc2c(SCC(=O)/N=c2/[n-]c(-c3ccc4ccccc4c3)cs2)[nH+]1 (optimized conformer: 92.57243589411735 kcal/mol)

>  <smiles>  (55) 
Cc1nc(SCC(=O)N=c2[nH]c(-c3ccc4ccccc4c3)cs2)c2ccccc2n1

>  <score_type>  (55) 
oracle

>  <origin>  (55) 
adg

>  <m_score__min__energy>  (55) 
-9.7200000000000006

>  <m_primary>  (55) 
energy

$$$$
55:0
     RDKit          3D

 44 46  0  0  0  0  0  0  0  0999 V2000
   58.2330   21.1160   43.5530 N   0  0  0  0  0  0  0  0  0  0  0  0
   56.6290   21.7390   43.7170 S   0  0  0  0  0  0  0  0  0  0  0  0
   55.8010   20.7920   44.5420 O   0  0  0  0  0  0  0  0  0  0  0  0
   56.0000   21.8690   42.3580 O   0  0  0  0  0  0  0  0  0  0  0  0
   56.6890   23.3140   44.5000 C   0  0  0  0  0  0  0  0  0  0  0  0
   57.9220   23.9140   44.7870 C   0  0  0  0  0  0  0  0  0  0  0  0
   57.9700   25.1600   45.4190 C   0  0  0  0  0  0  0  0  0  0  0  0
   56.7810   25.8120   45.7910 C   0  0  0  0  0  0  0  0  0  0  0  0
   56.7870   27.1030   46.4200 N   0  0  0  0  0  0  0  0  0  0  0  0
   57.7650   28.1380   46.2430 C   0  0  0  0  0  0  0  0  0  0  0  0
   58.7980   28.1610   46.9660 O   0  0  0  0  0  0  0  0  0  0  0  0
   57.5360   29.2110   45.2470 C   0  0  0  0  0  0  0  0  0  0  0  0
   56.7800   28.9620   44.0870 C   0  0  0  0  0  0  0  0  0  0  0  0
   56.5680   29.9760   43.1510 C   0  0  0  0  0  0  0  0  0  0  0  0
   57.1020   31.2490   43.3580 C   0  0  0  0  0  0  0  0  0  0  0  0
   57.8600   31.5180   44.5110 C   0  0  0  0  0  0  0  0  0  0  0  0
   58.4290   32.8090   44.7640 N   0  0  0  0  0  0  0  0  0  0  0  0
   58.8250   33.4380   46.3320 S   0  0  0  0  0  0  0  0  0  0  0  0
   57.8620   32.9060   47.3560 O   0  0  0  0  0  0  0  0  0  0  0  0
   58.7540   34.9400   46.2900 O   0  0  0  0  0  0  0  0  0  0  0  0
   60.4560   32.9380   46.7640 C   0  0  0  0  0  0  0  0  0  0  0  0
   61.5180   33.8510   46.6950 C   0  0  0  0  0  0  0  0  0  0  0  0
   62.8120   33.4510   47.0480 C   0  0  0  0  0  0  0  0  0  0  0  0
   63.0480   32.1410   47.4750 C   0  0  0  0  0  0  0  0  0  0  0  0
   61.9910   31.2300   47.5530 C   0  0  0  0  0  0  0  0  0  0  0  0
   60.6970   31.6270   47.2000 C   0  0  0  0  0  0  0  0  0  0  0  0
   58.0720   30.4980   45.4470 C   0  0  0  0  0  0  0  0  0  0  0  0
   55.5480   25.2160   45.4870 C   0  0  0  0  0  0  0  0  0  0  0  0
   54.3900   25.8400   45.8170 F   0  0  0  0  0  0  0  0  0  0  0  0
   55.5030   23.9690   44.8550 C   0  0  0  0  0  0  0  0  0  0  0  0
   58.1830   20.3100   42.8910 H   0  0  0  0  0  0  0  0  0  0  0  0
   58.5050   20.7260   44.4830 H   0  0  0  0  0  0  0  0  0  0  0  0
   58.8566   23.4023   44.5138 H   0  0  0  0  0  0  0  0  0  0  0  0
   58.9417   25.6322   45.6261 H   0  0  0  0  0  0  0  0  0  0  0  0
   56.3534   27.9625   43.9164 H   0  0  0  0  0  0  0  0  0  0  0  0
   55.9773   29.7708   42.2460 H   0  0  0  0  0  0  0  0  0  0  0  0
   56.9293   32.0436   42.6172 H   0  0  0  0  0  0  0  0  0  0  0  0
   61.3338   34.8834   46.3629 H   0  0  0  0  0  0  0  0  0  0  0  0
   63.6440   34.1681   46.9894 H   0  0  0  0  0  0  0  0  0  0  0  0
   64.0659   31.8271   47.7497 H   0  0  0  0  0  0  0  0  0  0  0  0
   62.1768   30.2002   47.8922 H   0  0  0  0  0  0  0  0  0  0  0  0
   59.8662   30.9090   47.2646 H   0  0  0  0  0  0  0  0  0  0  0  0
   58.6649   30.7047   46.3502 H   0  0  0  0  0  0  0  0  0  0  0  0
   54.5320   23.5008   44.6359 H   0  0  0  0  0  0  0  0  0  0  0  0
  1  2  1  0
  2  3  2  0
  2  4  2  0
  2  5  1  0
  5  6  2  0
  6  7  1  0
  7  8  2  0
  8  9  1  0
  9 10  1  0
 10 11  2  0
 10 12  1  0
 12 13  2  0
 13 14  1  0
 14 15  2  0
 15 16  1  0
 16 17  1  0
 17 18  1  0
 18 19  2  0
 18 20  2  0
 18 21  1  0
 21 22  2  0
 22 23  1  0
 23 24  2  0
 24 25  1  0
 25 26  2  0
 16 27  2  0
  8 28  1  0
 28 29  1  0
 28 30  2  0
 30  5  1  0
 27 12  1  0
 26 21  1  0
  1 31  1  0
  1 32  1  0
  6 33  1  0
  7 34  1  0
 13 35  1  0
 14 36  1  0
 15 37  1  0
 22 38  1  0
 23 39  1  0
 24 40  1  0
 25 41  1  0
 26 42  1  0
 27 43  1  0
 30 44  1  0
M  CHG  2   9  -1  17  -1
M  END
>  <UniqueID>  (56) 
50

>  <SMILES>  (56) 
NS(=O)(=O)c1ccc([N-]C(=O)c2cccc([N-]S(=O)(=O)c3ccccc3)c2)c(F)c1

>  <Energy>  (56) 
54.28969318060119

>  <Genealogy>  (56) 
NS(=O)(=O)c1ccc([N-]C(=O)c2cccc([N-]S(=O)(=O)c3ccccc3)c2)c(F)c1 (protonated)
NS(=O)(=O)c1ccc([N-]C(=O)c2cccc([N-]S(=O)(=O)c3ccccc3)c2)c(F)c1 (3D coordinates assigned)
NS(=O)(=O)c1ccc([N-]C(=O)c2cccc([N-]S(=O)(=O)c3ccccc3)c2)c(F)c1 (optimized conformer: 54.28969318060119 kcal/mol)

>  <smiles>  (56) 
NS(=O)(=O)c1ccc(NC(=O)c2cccc(NS(=O)(=O)c3ccccc3)c2)c(F)c1

>  <score_type>  (56) 
oracle

>  <origin>  (56) 
adg

>  <m_score__min__energy>  (56) 
-12.75

>  <m_primary>  (56) 
energy

$$$$
56:0
     RDKit          3D

 49 51  0  0  0  0  0  0  0  0999 V2000
   58.2610   32.3460   43.3440 O   0  0  0  0  0  0  0  0  0  0  0  0
   57.3940   32.5810   44.2310 C   0  0  0  0  0  0  0  0  0  0  0  0
   57.3210   33.9360   44.8650 C   0  0  0  0  0  0  0  0  0  0  0  0
   58.3730   34.0460   45.8920 N   0  0  0  0  0  0  0  0  0  0  0  0
   59.5880   34.5550   45.5180 C   0  0  0  0  0  0  0  0  0  0  0  0
   60.6560   34.5820   46.4120 C   0  0  0  0  0  0  0  0  0  0  0  0
   60.4850   34.0820   47.6980 C   0  0  0  0  0  0  0  0  0  0  0  0
   59.2440   33.5680   48.0960 C   0  0  0  0  0  0  0  0  0  0  0  0
   59.0500   33.0730   49.4310 N   0  0  0  0  0  0  0  0  0  0  0  0
   59.1090   31.3790   49.8030 S   0  0  0  0  0  0  0  0  0  0  0  0
   58.6900   30.5960   48.5910 O   0  0  0  0  0  0  0  0  0  0  0  0
   58.1360   31.0940   50.9130 O   0  0  0  0  0  0  0  0  0  0  0  0
   60.7510   30.8970   50.3380 C   0  0  0  0  0  0  0  0  0  0  0  0
   61.7950   31.4660   49.4120 C   0  0  0  0  0  0  0  0  0  0  0  0
   62.6740   32.4730   49.8580 C   0  0  0  0  0  0  0  0  0  0  0  0
   63.5810   33.0580   48.9700 C   0  0  0  0  0  0  0  0  0  0  0  0
   63.6230   32.6420   47.6300 C   0  0  0  0  0  0  0  0  0  0  0  0
   62.7570   31.6380   47.1810 C   0  0  0  0  0  0  0  0  0  0  0  0
   61.8440   31.0540   48.0660 C   0  0  0  0  0  0  0  0  0  0  0  0
   58.1860   33.5590   47.1660 C   0  0  0  0  0  0  0  0  0  0  0  0
   57.0690   33.0750   47.5080 O   0  0  0  0  0  0  0  0  0  0  0  0
   56.5360   31.5370   44.7030 N   0  0  0  0  0  0  0  0  0  0  0  0
   56.6360   30.1630   44.2220 C   0  0  0  0  0  0  0  0  0  0  0  0
   57.5570   29.3880   45.1270 C   0  0  0  0  0  0  0  0  0  0  0  0
   58.8390   29.8800   45.4150 C   0  0  0  0  0  0  0  0  0  0  0  0
   59.7290   29.1240   46.1820 C   0  0  0  0  0  0  0  0  0  0  0  0
   59.3580   27.8570   46.6490 C   0  0  0  0  0  0  0  0  0  0  0  0
   60.5250   26.9170   47.5710 Cl  0  0  0  0  0  0  0  0  0  0  0  0
   58.0780   27.3530   46.3600 C   0  0  0  0  0  0  0  0  0  0  0  0
   57.5810   25.7570   46.9120 Cl  0  0  0  0  0  0  0  0  0  0  0  0
   57.1840   28.1200   45.6020 C   0  0  0  0  0  0  0  0  0  0  0  0
   57.4726   34.7100   44.0982 H   0  0  0  0  0  0  0  0  0  0  0  0
   56.3337   34.0747   45.3298 H   0  0  0  0  0  0  0  0  0  0  0  0
   59.7223   34.9474   44.4992 H   0  0  0  0  0  0  0  0  0  0  0  0
   61.6272   34.9957   46.1028 H   0  0  0  0  0  0  0  0  0  0  0  0
   61.3272   34.0900   48.4055 H   0  0  0  0  0  0  0  0  0  0  0  0
   58.6410   33.7030   50.1580 H   0  0  0  0  0  0  0  0  0  0  0  0
   60.9256   31.2747   51.3563 H   0  0  0  0  0  0  0  0  0  0  0  0
   60.8224   29.7994   50.3237 H   0  0  0  0  0  0  0  0  0  0  0  0
   62.6463   32.7996   50.9080 H   0  0  0  0  0  0  0  0  0  0  0  0
   64.2632   33.8459   49.3218 H   0  0  0  0  0  0  0  0  0  0  0  0
   64.3366   33.1051   46.9326 H   0  0  0  0  0  0  0  0  0  0  0  0
   62.7943   31.3081   46.1323 H   0  0  0  0  0  0  0  0  0  0  0  0
   61.1611   30.2692   47.7087 H   0  0  0  0  0  0  0  0  0  0  0  0
   55.6391   29.6982   44.2261 H   0  0  0  0  0  0  0  0  0  0  0  0
   57.0346   30.1582   43.1968 H   0  0  0  0  0  0  0  0  0  0  0  0
   59.1449   30.8659   45.0350 H   0  0  0  0  0  0  0  0  0  0  0  0
   60.7250   29.5256   46.4200 H   0  0  0  0  0  0  0  0  0  0  0  0
   56.1819   27.7261   45.3770 H   0  0  0  0  0  0  0  0  0  0  0  0
  1  2  2  0
  2  3  1  0
  3  4  1  0
  4  5  1  0
  5  6  2  0
  6  7  1  0
  7  8  2  0
  8  9  1  0
  9 10  1  0
 10 11  2  0
 10 12  2  0
 10 13  1  0
 13 14  1  0
 14 15  2  0
 15 16  1  0
 16 17  2  0
 17 18  1  0
 18 19  2  0
  8 20  1  0
 20 21  2  0
  2 22  1  0
 22 23  1  0
 23 24  1  0
 24 25  2  0
 25 26  1  0
 26 27  2  0
 27 28  1  0
 27 29  1  0
 29 30  1  0
 29 31  2  0
 20  4  1  0
 31 24  1  0
 19 14  1  0
  3 32  1  0
  3 33  1  0
  5 34  1  0
  6 35  1  0
  7 36  1  0
  9 37  1  0
 13 38  1  0
 13 39  1  0
 15 40  1  0
 16 41  1  0
 17 42  1  0
 18 43  1  0
 19 44  1  0
 23 45  1  0
 23 46  1  0
 25 47  1  0
 26 48  1  0
 31 49  1  0
M  CHG  1  22  -1
M  END
>  <UniqueID>  (57) 
51

>  <SMILES>  (57) 
O=C(Cn1cccc(NS(=O)(=O)Cc2ccccc2)c1=O)[N-]Cc1ccc(Cl)c(Cl)c1

>  <Energy>  (57) 
49.148515581813086

>  <Genealogy>  (57) 
O=C(Cn1cccc(NS(=O)(=O)Cc2ccccc2)c1=O)[N-]Cc1ccc(Cl)c(Cl)c1 (protonated)
O=C(Cn1cccc(NS(=O)(=O)Cc2ccccc2)c1=O)[N-]Cc1ccc(Cl)c(Cl)c1 (3D coordinates assigned)
O=C(Cn1cccc(NS(=O)(=O)Cc2ccccc2)c1=O)[N-]Cc1ccc(Cl)c(Cl)c1 (optimized conformer: 49.148515581813086 kcal/mol)

>  <smiles>  (57) 
O=C(Cn1cccc(NS(=O)(=O)Cc2ccccc2)c1=O)NCc1ccc(Cl)c(Cl)c1

>  <score_type>  (57) 
oracle

>  <origin>  (57) 
adg

>  <m_score__min__energy>  (57) 
-11.66

>  <m_primary>  (57) 
energy

$$$$
57:0
     RDKit          3D

 37 40  0  0  0  0  0  0  0  0999 V2000
   56.6650   31.0600   42.7510 O   0  0  0  0  0  0  0  0  0  0  0  0
   57.0060   30.9120   43.9550 C   0  0  0  0  0  0  0  0  0  0  0  0
   56.8560   32.0210   44.8520 N   0  0  0  0  0  0  0  0  0  0  0  0
   57.7310   32.4060   45.7350 C   0  0  0  0  0  0  0  0  0  0  0  0
   58.1300   31.6050   46.7500 N   0  0  0  0  0  0  0  0  0  0  0  0
   59.0200   32.2330   47.5650 C   0  0  0  0  0  0  0  0  0  0  0  0
   59.6220   31.6680   48.6970 C   0  0  0  0  0  0  0  0  0  0  0  0
   59.2750   30.0200   49.1970 Cl  0  0  0  0  0  0  0  0  0  0  0  0
   60.5240   32.4470   49.4440 C   0  0  0  0  0  0  0  0  0  0  0  0
   60.8210   33.7820   49.0610 C   0  0  0  0  0  0  0  0  0  0  0  0
   61.7140   34.5940   49.7780 O   0  0  0  0  0  0  0  0  0  0  0  0
   62.9870   34.1820   50.2720 C   0  0  0  0  0  0  0  0  0  0  0  0
   62.8160   33.0840   51.0920 F   0  0  0  0  0  0  0  0  0  0  0  0
   63.8150   33.8290   49.2210 F   0  0  0  0  0  0  0  0  0  0  0  0
   63.5650   35.2010   51.0080 F   0  0  0  0  0  0  0  0  0  0  0  0
   60.2040   34.3280   47.9230 C   0  0  0  0  0  0  0  0  0  0  0  0
   59.3170   33.5370   47.2000 C   0  0  0  0  0  0  0  0  0  0  0  0
   58.4510   33.9440   45.8180 S   0  0  0  0  0  0  0  0  0  0  0  0
   57.4840   29.5860   44.4190 C   0  0  0  0  0  0  0  0  0  0  0  0
   58.8510   29.2620   44.3700 C   0  0  0  0  0  0  0  0  0  0  0  0
   59.3010   28.0160   44.8130 C   0  0  0  0  0  0  0  0  0  0  0  0
   58.3960   27.0810   45.3200 C   0  0  0  0  0  0  0  0  0  0  0  0
   58.8400   25.8690   45.7490 N   0  0  0  0  0  0  0  0  0  0  0  0
   57.9930   24.9320   46.2520 C   0  0  0  0  0  0  0  0  0  0  0  0
   58.4460   23.8230   46.6370 O   0  0  0  0  0  0  0  0  0  0  0  0
   56.6230   25.2000   46.3400 C   0  0  0  0  0  0  0  0  0  0  0  0
   56.1330   26.4350   45.9080 C   0  0  0  0  0  0  0  0  0  0  0  0
   54.7690   26.6940   45.9990 O   0  0  0  0  0  0  0  0  0  0  0  0
   57.0190   27.3950   45.3900 C   0  0  0  0  0  0  0  0  0  0  0  0
   56.5730   28.6510   44.9430 C   0  0  0  0  0  0  0  0  0  0  0  0
   57.7920   30.6250   46.8820 H   0  0  0  0  0  0  0  0  0  0  0  0
   61.0049   32.0173   50.3351 H   0  0  0  0  0  0  0  0  0  0  0  0
   60.4181   35.3605   47.6099 H   0  0  0  0  0  0  0  0  0  0  0  0
   59.5720   29.9954   43.9797 H   0  0  0  0  0  0  0  0  0  0  0  0
   60.3720   27.7704   44.7623 H   0  0  0  0  0  0  0  0  0  0  0  0
   55.9359   24.4434   46.7467 H   0  0  0  0  0  0  0  0  0  0  0  0
   55.5043   28.9044   45.0034 H   0  0  0  0  0  0  0  0  0  0  0  0
  1  2  2  0
  2  3  1  0
  3  4  2  3
  4  5  1  0
  5  6  1  0
  6  7  2  0
  7  8  1  0
  7  9  1  0
  9 10  2  0
 10 11  1  0
 11 12  1  0
 12 13  1  0
 12 14  1  0
 12 15  1  0
 10 16  1  0
 16 17  2  0
 17 18  1  0
  2 19  1  0
 19 20  2  0
 20 21  1  0
 21 22  2  0
 22 23  1  0
 23 24  1  0
 24 25  2  0
 24 26  1  0
 26 27  2  0
 27 28  1  0
 27 29  1  0
 29 30  2  0
 18  4  1  0
 30 19  1  0
 17  6  1  0
 29 22  1  0
  5 31  1  0
  9 32  1  0
 16 33  1  0
 20 34  1  0
 21 35  1  0
 26 36  1  0
 30 37  1  0
M  CHG  2  23  -1  28  -1
M  END
>  <UniqueID>  (58) 
52

>  <SMILES>  (58) 
O=C(N=c1[nH]c2c(Cl)cc(OC(F)(F)F)cc2s1)c1ccc2[n-]c(=O)cc([O-])c2c1

>  <Energy>  (58) 
90.20489160866049

>  <Genealogy>  (58) 
O=C(N=c1[nH]c2c(Cl)cc(OC(F)(F)F)cc2s1)c1ccc2[n-]c(=O)cc([O-])c2c1 (protonated)
O=C(N=c1[nH]c2c(Cl)cc(OC(F)(F)F)cc2s1)c1ccc2[n-]c(=O)cc([O-])c2c1 (3D coordinates assigned)
O=C(N=c1[nH]c2c(Cl)cc(OC(F)(F)F)cc2s1)c1ccc2[n-]c(=O)cc([O-])c2c1 (optimized conformer: 90.20489160866049 kcal/mol)

>  <smiles>  (58) 
O=C(N=c1[nH]c2c(Cl)cc(OC(F)(F)F)cc2s1)c1ccc2[nH]c(=O)cc(O)c2c1

>  <score_type>  (58) 
oracle

>  <origin>  (58) 
adg

>  <m_score__min__energy>  (58) 
-13.16

>  <m_primary>  (58) 
energy

$$$$
58:0
     RDKit          3D

 44 47  0  0  0  0  0  0  0  0999 V2000
   59.4260   33.5640   50.7510 C   0  0  0  0  0  0  0  0  0  0  0  0
   60.0200   34.2380   49.6460 O   0  0  0  0  0  0  0  0  0  0  0  0
   61.2690   33.9160   49.0900 C   0  0  0  0  0  0  0  0  0  0  0  0
   62.4660   34.0830   49.8160 C   0  0  0  0  0  0  0  0  0  0  0  0
   63.6980   33.7870   49.2290 C   0  0  0  0  0  0  0  0  0  0  0  0
   63.7540   33.3220   47.9160 C   0  0  0  0  0  0  0  0  0  0  0  0
   62.5780   33.1460   47.1850 C   0  0  0  0  0  0  0  0  0  0  0  0
   61.3270   33.4310   47.7640 C   0  0  0  0  0  0  0  0  0  0  0  0
   60.0940   33.2200   46.9700 C   0  0  0  0  0  0  0  0  0  0  0  0
   59.1950   34.2800   46.7630 C   0  0  0  0  0  0  0  0  0  0  0  0
   58.0350   34.0840   46.0110 C   0  0  0  0  0  0  0  0  0  0  0  0
   57.7620   32.8340   45.4510 C   0  0  0  0  0  0  0  0  0  0  0  0
   58.6580   31.7640   45.6350 C   0  0  0  0  0  0  0  0  0  0  0  0
   58.4410   30.4850   45.0940 O   0  0  0  0  0  0  0  0  0  0  0  0
   57.7530   29.4120   45.7380 C   0  0  1  0  0  0  0  0  0  0  0  0
   56.5230   28.9770   44.9010 C   0  0  0  0  0  0  0  0  0  0  0  0
   55.8980   27.8200   45.4670 O   0  0  0  0  0  0  0  0  0  0  0  0
   56.6800   26.8380   46.0670 C   0  0  0  0  0  0  0  0  0  0  0  0
   56.2250   25.6360   46.4770 N   0  0  0  0  0  0  0  0  0  0  0  0
   57.3400   25.0560   46.9790 C   0  0  0  0  0  0  0  0  0  0  0  0
   57.3660   23.7400   47.5370 N   0  0  0  0  0  0  0  0  0  0  0  0
   57.3720   22.7420   46.7880 O   0  0  0  0  0  0  0  0  0  0  0  0
   57.3840   23.5620   48.9010 O   0  0  0  0  0  0  0  0  0  0  0  0
   58.4310   25.9000   46.8680 C   0  0  0  0  0  0  0  0  0  0  0  0
   57.9860   27.0300   46.3010 N   0  0  0  0  0  0  0  0  0  0  0  0
   58.7260   28.2260   45.9080 C   0  0  0  0  0  0  0  0  0  0  0  0
   59.8170   31.9670   46.3950 C   0  0  0  0  0  0  0  0  0  0  0  0
   59.8051   33.9942   51.6897 H   0  0  0  0  0  0  0  0  0  0  0  0
   58.3332   33.6825   50.7084 H   0  0  0  0  0  0  0  0  0  0  0  0
   59.6808   32.4948   50.7084 H   0  0  0  0  0  0  0  0  0  0  0  0
   62.4292   34.4492   50.8526 H   0  0  0  0  0  0  0  0  0  0  0  0
   64.6262   33.9210   49.8039 H   0  0  0  0  0  0  0  0  0  0  0  0
   64.7264   33.0934   47.4553 H   0  0  0  0  0  0  0  0  0  0  0  0
   62.6292   32.7817   46.1483 H   0  0  0  0  0  0  0  0  0  0  0  0
   59.4062   35.2691   47.1956 H   0  0  0  0  0  0  0  0  0  0  0  0
   57.3333   34.9174   45.8590 H   0  0  0  0  0  0  0  0  0  0  0  0
   56.8436   32.6851   44.8641 H   0  0  0  0  0  0  0  0  0  0  0  0
   57.3963   29.7452   46.7238 H   0  0  0  0  0  0  0  0  0  0  0  0
   55.7958   29.8019   44.8754 H   0  0  0  0  0  0  0  0  0  0  0  0
   56.8620   28.7291   43.8843 H   0  0  0  0  0  0  0  0  0  0  0  0
   59.4626   25.6853   47.1837 H   0  0  0  0  0  0  0  0  0  0  0  0
   59.4657   28.4693   46.6850 H   0  0  0  0  0  0  0  0  0  0  0  0
   59.2388   28.0378   44.9532 H   0  0  0  0  0  0  0  0  0  0  0  0
   60.5204   31.1345   46.5441 H   0  0  0  0  0  0  0  0  0  0  0  0
  1  2  1  0
  2  3  1  0
  3  4  2  0
  4  5  1  0
  5  6  2  0
  6  7  1  0
  7  8  2  0
  8  9  1  0
  9 10  2  0
 10 11  1  0
 11 12  2  0
 12 13  1  0
 13 14  1  0
 14 15  1  0
 15 16  1  0
 16 17  1  0
 17 18  1  0
 18 19  2  0
 19 20  1  0
 20 21  1  0
 21 22  2  0
 21 23  1  0
 20 24  2  0
 24 25  1  0
 25 26  1  0
 13 27  2  0
  8  3  1  0
 27  9  1  0
 26 15  1  0
 25 18  1  0
  1 28  1  0
  1 29  1  0
  1 30  1  0
  4 31  1  0
  5 32  1  0
  6 33  1  0
  7 34  1  0
 10 35  1  0
 11 36  1  0
 12 37  1  0
 15 38  1  1
 16 39  1  0
 16 40  1  0
 24 41  1  0
 26 42  1  0
 26 43  1  0
 27 44  1  0
M  CHG  2  21   1  23  -1
M  END
>  <UniqueID>  (59) 
53

>  <SMILES>  (59) 
COc1ccccc1-c1cccc(O[C@H]2COc3nc([N+](=O)[O-])cn3C2)c1

>  <Energy>  (59) 
85.23497123162711

>  <Genealogy>  (59) 
COc1ccccc1-c1cccc(O[C@H]2COc3nc([N+](=O)[O-])cn3C2)c1 (chirality)
COc1ccccc1-c1cccc(O[C@H]2COc3nc([N+](=O)[O-])cn3C2)c1 (3D coordinates assigned)
COc1ccccc1-c1cccc(O[C@H]2COc3nc([N+](=O)[O-])cn3C2)c1 (nonaromatic ring conformer: 85.23497123162711 kcal/mol)

>  <smiles>  (59) 
COc1ccccc1-c1cccc(OC2COc3nc([N+](=O)[O-])cn3C2)c1

>  <score_type>  (59) 
oracle

>  <origin>  (59) 
adg

>  <m_score__min__energy>  (59) 
-8.2100000000000009

>  <m_primary>  (59) 
energy

$$$$
59:0
     RDKit          3D

 72 76  0  0  0  0  0  0  0  0999 V2000
   60.6440   34.0701   46.6659 H   0  0  0  0  0  0  0  0  0  0  0  0
   61.5310   33.8580   47.2810 C   0  0  0  0  0  0  0  0  0  0  0  0
   61.5410   34.2090   48.6350 C   0  0  0  0  0  0  0  0  0  0  0  0
   60.6612   34.6921   49.0851 H   0  0  0  0  0  0  0  0  0  0  0  0
   62.6710   33.9450   49.4160 C   0  0  0  0  0  0  0  0  0  0  0  0
   62.6797   34.2263   50.4794 H   0  0  0  0  0  0  0  0  0  0  0  0
   63.7970   33.3210   48.8470 C   0  0  0  0  0  0  0  0  0  0  0  0
   65.0360   33.0770   49.6670 C   0  0  0  0  0  0  0  0  0  0  0  0
   65.7824   33.8501   49.4320 H   0  0  0  0  0  0  0  0  0  0  0  0
   65.4298   32.0791   49.4237 H   0  0  0  0  0  0  0  0  0  0  0  0
   64.6530   33.1370   51.4500 S   0  0  0  0  0  0  0  0  0  0  0  0
   64.0000   31.4600   51.5310 C   0  0  0  0  0  0  0  0  0  0  0  0
   64.8730   30.3900   51.5810 C   0  0  0  0  0  0  0  0  0  0  0  0
   65.9595   30.5612   51.5693 H   0  0  0  0  0  0  0  0  0  0  0  0
   64.3710   29.1000   51.6460 C   0  0  0  0  0  0  0  0  0  0  0  0
   65.1880   28.1410   51.7210 O   0  0  0  0  0  0  0  0  0  0  0  0
   63.0120   28.8760   51.6260 N   0  0  0  0  0  0  0  0  0  0  0  0
   62.5640   27.4610   51.6740 C   0  0  0  0  0  0  0  0  0  0  0  0
   63.2607   26.8436   51.0879 H   0  0  0  0  0  0  0  0  0  0  0  0
   61.5485   27.4018   51.2553 H   0  0  0  0  0  0  0  0  0  0  0  0
   62.5270   26.9440   53.1110 C   0  0  0  0  0  0  0  0  0  0  0  0
   62.5878   27.7930   53.8078 H   0  0  0  0  0  0  0  0  0  0  0  0
   61.5874   26.3975   53.2800 H   0  0  0  0  0  0  0  0  0  0  0  0
   63.3792   26.2693   53.2800 H   0  0  0  0  0  0  0  0  0  0  0  0
   62.1460   29.9220   51.5490 N   0  0  0  0  0  0  0  0  0  0  0  0
   60.6750   29.7260   51.4210 C   0  0  0  0  0  0  0  0  0  0  0  0
   60.4148   28.7131   51.7622 H   0  0  0  0  0  0  0  0  0  0  0  0
   60.1633   30.4800   52.0371 H   0  0  0  0  0  0  0  0  0  0  0  0
   60.2370   29.8930   49.9890 C   0  0  0  0  0  0  0  0  0  0  0  0
   59.0210   29.3370   49.5600 C   0  0  0  0  0  0  0  0  0  0  0  0
   58.4356   28.7085   50.2472 H   0  0  0  0  0  0  0  0  0  0  0  0
   58.5490   29.5760   48.2670 C   0  0  0  0  0  0  0  0  0  0  0  0
   57.6056   29.1178   47.9354 H   0  0  0  0  0  0  0  0  0  0  0  0
   59.2710   30.3960   47.3910 C   0  0  0  0  0  0  0  0  0  0  0  0
   58.7010   30.7700   46.0800 C   0  0  0  0  0  0  0  0  0  0  0  0
   58.4480   32.1270   45.8190 C   0  0  0  0  0  0  0  0  0  0  0  0
   58.6481   32.8784   46.5970 H   0  0  0  0  0  0  0  0  0  0  0  0
   57.9450   32.5300   44.5810 C   0  0  0  0  0  0  0  0  0  0  0  0
   57.7517   33.5955   44.3876 H   0  0  0  0  0  0  0  0  0  0  0  0
   57.6870   31.5850   43.5890 C   0  0  0  0  0  0  0  0  0  0  0  0
   57.3032   31.9077   42.6099 H   0  0  0  0  0  0  0  0  0  0  0  0
   57.9150   30.2290   43.8360 C   0  0  0  0  0  0  0  0  0  0  0  0
   57.7059   29.4887   43.0497 H   0  0  0  0  0  0  0  0  0  0  0  0
   58.4090   29.8030   45.0800 C   0  0  0  0  0  0  0  0  0  0  0  0
   58.6300   28.0650   45.3510 S   0  0  0  0  0  0  0  0  0  0  0  0
   58.7160   27.3780   44.0160 O   0  0  0  0  0  0  0  0  0  0  0  0
   59.8910   27.8560   46.1430 O   0  0  0  0  0  0  0  0  0  0  0  0
   57.2900   27.4300   46.2540 N   0  0  0  0  0  0  0  0  0  0  0  0
   56.4380   26.5040   45.9100 C   0  0  0  0  0  0  0  0  0  0  0  0
   55.1430   26.7030   45.9940 O   0  0  0  0  0  0  0  0  0  0  0  0
   54.4900   25.6410   45.6330 N   0  0  0  0  0  0  0  0  0  0  0  0
   53.4500   25.5560   45.6270 H   0  0  0  0  0  0  0  0  0  0  0  0
   55.3810   24.6920   45.2940 C   0  0  0  0  0  0  0  0  0  0  0  0
   55.0070   23.3080   44.8600 C   0  0  0  0  0  0  0  0  0  0  0  0
   54.8371   22.6791   45.7464 H   0  0  0  0  0  0  0  0  0  0  0  0
   54.0876   23.3486   44.2575 H   0  0  0  0  0  0  0  0  0  0  0  0
   55.8217   22.8799   44.2575 H   0  0  0  0  0  0  0  0  0  0  0  0
   56.6640   25.2020   45.4340 C   0  0  0  0  0  0  0  0  0  0  0  0
   57.9300   24.4130   45.2380 C   0  0  0  0  0  0  0  0  0  0  0  0
   58.3532   24.1493   46.2185 H   0  0  0  0  0  0  0  0  0  0  0  0
   57.7062   23.4942   44.6761 H   0  0  0  0  0  0  0  0  0  0  0  0
   58.6562   25.0187   44.6761 H   0  0  0  0  0  0  0  0  0  0  0  0
   60.5280   30.8820   47.7870 C   0  0  0  0  0  0  0  0  0  0  0  0
   61.1338   31.4707   47.0824 H   0  0  0  0  0  0  0  0  0  0  0  0
   61.0140   30.6210   49.0740 C   0  0  0  0  0  0  0  0  0  0  0  0
   62.0082   30.9877   49.3692 H   0  0  0  0  0  0  0  0  0  0  0  0
   62.6280   31.2160   51.5130 C   0  0  0  0  0  0  0  0  0  0  0  0
   61.8410   32.2040   51.4560 O   0  0  0  0  0  0  0  0  0  0  0  0
   63.7790   32.9750   47.4840 C   0  0  0  0  0  0  0  0  0  0  0  0
   64.6581   32.4964   47.0278 H   0  0  0  0  0  0  0  0  0  0  0  0
   62.6460   33.2380   46.7070 C   0  0  0  0  0  0  0  0  0  0  0  0
   62.6317   32.9570   45.6436 H   0  0  0  0  0  0  0  0  0  0  0  0
  1  2  1  0
  2  3  2  0
  3  4  1  0
  3  5  1  0
  5  6  1  0
  5  7  2  0
  7  8  1  0
  8  9  1  0
  8 10  1  0
  8 11  1  0
 11 12  1  0
 12 13  2  0
 13 14  1  0
 13 15  1  0
 15 16  2  0
 15 17  1  0
 17 18  1  0
 18 19  1  0
 18 20  1  0
 18 21  1  0
 21 22  1  0
 21 23  1  0
 21 24  1  0
 17 25  1  0
 25 26  1  0
 26 27  1  0
 26 28  1  0
 26 29  1  0
 29 30  2  0
 30 31  1  0
 30 32  1  0
 32 33  1  0
 32 34  2  0
 34 35  1  0
 35 36  2  0
 36 37  1  0
 36 38  1  0
 38 39  1  0
 38 40  2  0
 40 41  1  0
 40 42  1  0
 42 43  1  0
 42 44  2  0
 44 45  1  0
 45 46  2  0
 45 47  2  0
 45 48  1  0
 48 49  2  0
 49 50  1  0
 50 51  1  0
 51 52  1  0
 51 53  1  0
 53 54  1  0
 54 55  1  0
 54 56  1  0
 54 57  1  0
 53 58  2  0
 58 59  1  0
 59 60  1  0
 59 61  1  0
 59 62  1  0
 34 63  1  0
 63 64  1  0
 63 65  2  0
 65 66  1  0
 25 67  1  0
 67 68  2  0
  7 69  1  0
 69 70  1  0
 69 71  2  0
 71 72  1  0
 71  2  1  0
 67 12  1  0
 65 29  1  0
 44 35  1  0
 58 49  1  0
M  END
>  <UniqueID>  (60) 
54

>  <SMILES>  (60) 
CCn1c(=O)cc(SCc2ccccc2)c(=O)n1Cc1ccc(-c2ccccc2S(=O)(=O)/N=c2/o[nH]c(C)c2C)cc1

>  <Energy>  (60) 
130.9715782424434

>  <Genealogy>  (60) 
CCn1c(=O)cc(SCc2ccccc2)c(=O)n1Cc1ccc(-c2ccccc2S(=O)(=O)/N=c2/o[nH]c(C)c2C)cc1 (cis-trans isomerization)
CCn1c(=O)cc(SCc2ccccc2)c(=O)n1Cc1ccc(-c2ccccc2S(=O)(=O)/N=c2/o[nH]c(C)c2C)cc1 (3D coordinates assigned)
CCn1c(=O)cc(SCc2ccccc2)c(=O)n1Cc1ccc(-c2ccccc2S(=O)(=O)/N=c2/o[nH]c(C)c2C)cc1 (optimized conformer: 130.9715782424434 kcal/mol)

>  <smiles>  (60) 
CCn1c(=O)cc(SCc2ccccc2)c(=O)n1Cc1ccc(-c2ccccc2S(=O)(=O)N=c2o[nH]c(C)c2C)cc1

>  <score_type>  (60) 
oracle

>  <origin>  (60) 
adg

>  <m_score__min__energy>  (60) 
-10.300000000000001

>  <m_primary>  (60) 
energy

$$$$
60:0
     RDKit          3D

 40 42  0  0  0  0  0  0  0  0999 V2000
   59.6290   35.2830   46.0760 C   0  0  0  0  0  0  0  0  0  0  0  0
   59.0750   34.5320   44.8590 C   0  0  0  0  0  0  0  0  0  0  0  0
   57.5730   34.5190   44.9190 C   0  0  0  0  0  0  0  0  0  0  0  0
   57.0260   33.2620   45.6020 C   0  0  0  0  0  0  0  0  0  0  0  0
   57.1390   32.0780   44.6910 C   0  0  0  0  0  0  0  0  0  0  0  0
   57.6780   30.9070   45.3990 N   0  0  0  0  0  0  0  0  0  0  0  0
   57.0440   29.7250   45.2580 C   0  0  0  0  0  0  0  0  0  0  0  0
   56.0050   29.6360   44.5280 O   0  0  0  0  0  0  0  0  0  0  0  0
   57.5390   28.6660   45.9060 N   0  0  0  0  0  0  0  0  0  0  0  0
   58.6340   28.7100   46.6890 C   0  0  0  0  0  0  0  0  0  0  0  0
   59.0640   27.6850   47.2790 O   0  0  0  0  0  0  0  0  0  0  0  0
   59.2620   29.9420   46.8100 C   0  0  0  0  0  0  0  0  0  0  0  0
   60.3590   30.3480   47.4980 N   0  0  0  0  0  0  0  0  0  0  0  0
   60.5750   31.6540   47.3010 C   0  0  0  0  0  0  0  0  0  0  0  0
   61.6740   32.4040   47.8960 C   0  0  0  0  0  0  0  0  0  0  0  0
   62.9530   32.0530   47.5280 C   0  0  0  0  0  0  0  0  0  0  0  0
   64.0420   32.7430   48.0710 C   0  0  0  0  0  0  0  0  0  0  0  0
   63.7980   33.7730   48.9760 C   0  0  0  0  0  0  0  0  0  0  0  0
   62.5000   34.1020   49.3250 C   0  0  0  0  0  0  0  0  0  0  0  0
   61.4190   33.4270   48.7950 C   0  0  0  0  0  0  0  0  0  0  0  0
   59.7870   33.8590   49.2510 Cl  0  0  0  0  0  0  0  0  0  0  0  0
   59.5980   32.0870   46.4740 N   0  0  0  0  0  0  0  0  0  0  0  0
   58.7810   31.0630   46.1580 C   0  0  0  0  0  0  0  0  0  0  0  0
   59.2729   34.8003   46.9980 H   0  0  0  0  0  0  0  0  0  0  0  0
   60.7285   35.2605   46.0514 H   0  0  0  0  0  0  0  0  0  0  0  0
   59.2830   36.3269   46.0514 H   0  0  0  0  0  0  0  0  0  0  0  0
   59.4007   35.0365   43.9374 H   0  0  0  0  0  0  0  0  0  0  0  0
   59.4510   33.4983   44.8638 H   0  0  0  0  0  0  0  0  0  0  0  0
   57.2344   35.4019   45.4810 H   0  0  0  0  0  0  0  0  0  0  0  0
   57.1963   34.5296   43.8856 H   0  0  0  0  0  0  0  0  0  0  0  0
   57.6015   33.0690   46.5194 H   0  0  0  0  0  0  0  0  0  0  0  0
   55.9656   33.4229   45.8462 H   0  0  0  0  0  0  0  0  0  0  0  0
   56.1413   31.8314   44.2988 H   0  0  0  0  0  0  0  0  0  0  0  0
   57.8271   32.3350   43.8722 H   0  0  0  0  0  0  0  0  0  0  0  0
   57.0780   27.7190   45.8270 H   0  0  0  0  0  0  0  0  0  0  0  0
   60.9070   29.6740   48.0790 H   0  0  0  0  0  0  0  0  0  0  0  0
   63.1178   31.2349   46.8113 H   0  0  0  0  0  0  0  0  0  0  0  0
   65.0713   32.4771   47.7886 H   0  0  0  0  0  0  0  0  0  0  0  0
   64.6405   34.3273   49.4152 H   0  0  0  0  0  0  0  0  0  0  0  0
   62.3259   34.9193   50.0404 H   0  0  0  0  0  0  0  0  0  0  0  0
  1  2  1  0
  2  3  1  0
  3  4  1  0
  4  5  1  0
  5  6  1  0
  6  7  1  0
  7  8  2  0
  7  9  1  0
  9 10  1  0
 10 11  2  0
 10 12  1  0
 12 13  1  0
 13 14  1  0
 14 15  1  0
 15 16  2  0
 16 17  1  0
 17 18  2  0
 18 19  1  0
 19 20  2  0
 20 21  1  0
 14 22  2  0
 22 23  1  0
 23  6  1  0
 23 12  2  0
 20 15  1  0
  1 24  1  0
  1 25  1  0
  1 26  1  0
  2 27  1  0
  2 28  1  0
  3 29  1  0
  3 30  1  0
  4 31  1  0
  4 32  1  0
  5 33  1  0
  5 34  1  0
  9 35  1  0
 13 36  1  0
 16 37  1  0
 17 38  1  0
 18 39  1  0
 19 40  1  0
M  END
>  <smiles>  (61) 
CCCCCn1c(=O)[nH]c(=O)c2[nH]c(-c3ccccc3Cl)nc21

>  <score_type>  (61) 
oracle

>  <origin>  (61) 
adg

>  <m_score__min__energy>  (61) 
-7.1299999999999999

>  <m_primary>  (61) 
energy

$$$$
61:0
     RDKit          3D

 26 27  0  0  0  0  0  0  0  0999 V2000
   54.8350   28.3420   53.4960 C   0  0  0  0  0  0  0  0  0  0  0  0
   53.9190   29.3520   52.8660 C   0  0  0  0  0  0  0  0  0  0  0  0
   52.5790   29.1200   52.9330 N   0  0  0  0  0  0  0  0  0  0  0  0
   51.6620   29.9810   52.4240 C   0  0  0  0  0  0  0  0  0  0  0  0
   52.0740   31.1670   51.8030 C   0  0  0  0  0  0  0  0  0  0  0  0
   51.0850   32.1180   51.2510 C   0  0  0  0  0  0  0  0  0  0  0  0
   50.2920   32.7340   52.0130 O   0  0  0  0  0  0  0  0  0  0  0  0
   51.0160   32.3470   49.8810 O   0  0  0  0  0  0  0  0  0  0  0  0
   53.4480   31.4300   51.7130 C   0  0  0  0  0  0  0  0  0  0  0  0
   54.3940   30.5250   52.2290 C   0  0  0  0  0  0  0  0  0  0  0  0
   55.8380   30.8420   52.0850 C   0  0  0  0  0  0  0  0  0  0  0  0
   56.2820   32.1050   52.3230 N   0  0  0  0  0  0  0  0  0  0  0  0
   57.5900   32.4410   52.1810 C   0  0  0  0  0  0  0  0  0  0  0  0
   57.9460   33.6250   52.4200 O   0  0  0  0  0  0  0  0  0  0  0  0
   58.5240   31.4680   51.7710 C   0  0  0  0  0  0  0  0  0  0  0  0
   59.9690   31.7650   51.5970 C   0  0  0  0  0  0  0  0  0  0  0  0
   60.8380   31.1920   52.3070 O   0  0  0  0  0  0  0  0  0  0  0  0
   60.3840   32.6850   50.6410 O   0  0  0  0  0  0  0  0  0  0  0  0
   58.0400   30.1760   51.5210 C   0  0  0  0  0  0  0  0  0  0  0  0
   56.7220   29.8940   51.6780 N   0  0  0  0  0  0  0  0  0  0  0  0
   54.7664   28.4177   54.5912 H   0  0  0  0  0  0  0  0  0  0  0  0
   54.5394   27.3310   53.1791 H   0  0  0  0  0  0  0  0  0  0  0  0
   55.8700   28.5377   53.1791 H   0  0  0  0  0  0  0  0  0  0  0  0
   50.5899   29.7465   52.4994 H   0  0  0  0  0  0  0  0  0  0  0  0
   53.7918   32.3576   51.2319 H   0  0  0  0  0  0  0  0  0  0  0  0
   58.7330   29.3861   51.1956 H   0  0  0  0  0  0  0  0  0  0  0  0
  1  2  1  0
  2  3  2  0
  3  4  1  0
  4  5  2  0
  5  6  1  0
  6  7  2  0
  6  8  1  0
  5  9  1  0
  9 10  2  0
 10 11  1  0
 11 12  2  0
 12 13  1  0
 13 14  2  0
 13 15  1  0
 15 16  1  0
 16 17  2  0
 16 18  1  0
 15 19  2  0
 19 20  1  0
 10  2  1  0
 20 11  1  0
  1 21  1  0
  1 22  1  0
  1 23  1  0
  4 24  1  0
  9 25  1  0
 19 26  1  0
M  CHG  3   8  -1  18  -1  20  -1
M  END
>  <UniqueID>  (62) 
55

>  <SMILES>  (62) 
Cc1ncc(C(=O)[O-])cc1-c1nc(=O)c(C(=O)[O-])c[n-]1

>  <Energy>  (62) 
36.04014961903565

>  <Genealogy>  (62) 
Cc1ncc(C(=O)[O-])cc1-c1nc(=O)c(C(=O)[O-])c[n-]1 (protonated)
Cc1ncc(C(=O)[O-])cc1-c1nc(=O)c(C(=O)[O-])c[n-]1 (3D coordinates assigned)
Cc1ncc(C(=O)[O-])cc1-c1nc(=O)c(C(=O)[O-])c[n-]1 (optimized conformer: 36.04014961903565 kcal/mol)

>  <smiles>  (62) 
Cc1ncc(C(=O)O)cc1-c1nc(=O)c(C(=O)O)c[nH]1

>  <score_type>  (62) 
oracle

>  <origin>  (62) 
adg

>  <m_score__min__energy>  (62) 
-11.66

>  <m_primary>  (62) 
energy

$$$$
62:0
     RDKit          3D

 51 54  0  0  0  0  0  0  0  0999 V2000
   60.3698   26.7943   45.6520 H   0  0  0  0  0  0  0  0  0  0  0  0
   59.3470   27.1910   45.5720 C   0  0  0  0  0  0  0  0  0  0  0  0
   58.2670   26.4300   46.0260 C   0  0  0  0  0  0  0  0  0  0  0  0
   58.4427   25.4379   46.4675 H   0  0  0  0  0  0  0  0  0  0  0  0
   56.9610   26.9260   45.9210 C   0  0  0  0  0  0  0  0  0  0  0  0
   55.9020   26.1200   46.3640 O   0  0  0  0  0  0  0  0  0  0  0  0
   55.2290   25.1790   45.5770 C   0  0  0  0  0  0  0  0  0  0  0  0
   55.8980   24.3980   44.6880 N   0  0  0  0  0  0  0  0  0  0  0  0
   55.2360   23.4710   43.9510 C   0  0  0  0  0  0  0  0  0  0  0  0
   55.8940   22.7440   43.1000 N   0  0  0  0  0  0  0  0  0  0  0  0
   56.8290   21.6910   43.4900 C   0  0  0  0  0  0  0  0  0  0  0  0
   56.6278   21.0001   42.6580 H   0  0  0  0  0  0  0  0  0  0  0  0
   56.9760   21.5630   44.9960 C   0  0  0  0  0  0  0  0  0  0  0  0
   56.3582   22.1814   45.6637 H   0  0  0  0  0  0  0  0  0  0  0  0
   56.9220   20.7328   45.7156 H   0  0  0  0  0  0  0  0  0  0  0  0
   58.0850   22.2050   44.1720 C   0  0  0  0  0  0  0  0  0  0  0  0
   58.2683   23.2872   44.2444 H   0  0  0  0  0  0  0  0  0  0  0  0
   59.1642   22.0309   44.0495 H   0  0  0  0  0  0  0  0  0  0  0  0
   53.8960   23.3130   44.1170 N   0  0  0  0  0  0  0  0  0  0  0  0
   53.2170   24.0820   45.0100 C   0  0  0  0  0  0  0  0  0  0  0  0
   51.8000   23.9030   45.1940 N   0  0  0  0  0  0  0  0  0  0  0  0
   50.8600   24.7540   44.4590 C   0  0  0  0  0  0  0  0  0  0  0  0
   50.2393   25.3160   45.1724 H   0  0  0  0  0  0  0  0  0  0  0  0
   51.4204   25.4582   43.8265 H   0  0  0  0  0  0  0  0  0  0  0  0
   50.2148   24.1266   43.8265 H   0  0  0  0  0  0  0  0  0  0  0  0
   51.3110   22.9680   46.2170 C   0  0  0  0  0  0  0  0  0  0  0  0
   51.5236   23.3744   47.2168 H   0  0  0  0  0  0  0  0  0  0  0  0
   50.2258   22.8311   46.0999 H   0  0  0  0  0  0  0  0  0  0  0  0
   51.8176   21.9986   46.0999 H   0  0  0  0  0  0  0  0  0  0  0  0
   53.8920   25.0140   45.7370 N   0  0  0  0  0  0  0  0  0  0  0  0
   56.7490   28.2200   45.4060 C   0  0  0  0  0  0  0  0  0  0  0  0
   55.7294   28.6301   45.3580 H   0  0  0  0  0  0  0  0  0  0  0  0
   57.8330   28.9880   44.9540 C   0  0  0  0  0  0  0  0  0  0  0  0
   57.6060   30.3380   44.3980 C   0  0  0  0  0  0  0  0  0  0  0  0
   57.1750   30.4460   43.2200 O   0  0  0  0  0  0  0  0  0  0  0  0
   57.8940   31.5240   45.1660 N   0  0  0  0  0  0  0  0  0  0  0  0
   57.0880   32.7330   44.9100 C   0  0  0  0  0  0  0  0  0  0  0  0
   57.2194   33.0311   43.8593 H   0  0  0  0  0  0  0  0  0  0  0  0
   56.0370   32.4922   45.1278 H   0  0  0  0  0  0  0  0  0  0  0  0
   57.4980   33.8930   45.8040 C   0  0  0  0  0  0  0  0  0  0  0  0
   57.0911   34.8299   45.3958 H   0  0  0  0  0  0  0  0  0  0  0  0
   57.1032   33.7272   46.8172 H   0  0  0  0  0  0  0  0  0  0  0  0
   58.8990   33.9790   45.8610 O   0  0  0  0  0  0  0  0  0  0  0  0
   59.3810   32.9190   46.6550 C   0  0  0  0  0  0  0  0  0  0  0  0
   60.4657   33.0414   46.7912 H   0  0  0  0  0  0  0  0  0  0  0  0
   58.8542   32.9492   47.6202 H   0  0  0  0  0  0  0  0  0  0  0  0
   59.1120   31.5470   46.0070 C   0  0  0  0  0  0  0  0  0  0  0  0
   59.9751   31.2828   45.3783 H   0  0  0  0  0  0  0  0  0  0  0  0
   58.9571   30.8264   46.8235 H   0  0  0  0  0  0  0  0  0  0  0  0
   59.1310   28.4560   45.0160 C   0  0  0  0  0  0  0  0  0  0  0  0
   59.9805   29.0359   44.6261 H   0  0  0  0  0  0  0  0  0  0  0  0
  1  2  1  0
  2  3  2  0
  3  4  1  0
  3  5  1  0
  5  6  1  0
  6  7  1  0
  7  8  2  0
  8  9  1  0
  9 10  2  0
 10 11  1  0
 11 12  1  0
 11 13  1  0
 13 14  1  0
 13 15  1  0
 13 16  1  0
 16 17  1  0
 16 18  1  0
  9 19  1  0
 19 20  2  0
 20 21  1  0
 21 22  1  0
 22 23  1  0
 22 24  1  0
 22 25  1  0
 21 26  1  0
 26 27  1  0
 26 28  1  0
 26 29  1  0
 20 30  1  0
  5 31  2  0
 31 32  1  0
 31 33  1  0
 33 34  1  0
 34 35  2  0
 34 36  1  0
 36 37  1  0
 37 38  1  0
 37 39  1  0
 37 40  1  0
 40 41  1  0
 40 42  1  0
 40 43  1  0
 43 44  1  0
 44 45  1  0
 44 46  1  0
 44 47  1  0
 47 48  1  0
 47 49  1  0
 33 50  2  0
 50 51  1  0
 50  2  1  0
 30  7  1  0
 47 36  1  0
 16 11  1  0
M  CHG  1  30  -1
M  END
>  <UniqueID>  (63) 
56

>  <SMILES>  (63) 
CN(C)c1n/c(=N\C2CC2)nc(Oc2cccc(C(=O)N3CCOCC3)c2)[n-]1

>  <Energy>  (63) 
328.9246472697324

>  <Genealogy>  (63) 
CN(C)c1nc(=NC2CC2)nc(Oc2cccc(C(=O)N3CCOCC3)c2)[n-]1 (protonated)
CN(C)c1n/c(=N\C2CC2)nc(Oc2cccc(C(=O)N3CCOCC3)c2)[n-]1 (cis-trans isomerization)
CN(C)c1n/c(=N\C2CC2)nc(Oc2cccc(C(=O)N3CCOCC3)c2)[n-]1 (3D coordinates assigned)
CN(C)c1n/c(=N\C2CC2)nc(Oc2cccc(C(=O)N3CCOCC3)c2)[n-]1 (nonaromatic ring conformer: 328.9246472697324 kcal/mol)

>  <smiles>  (63) 
CN(C)c1nc(=NC2CC2)nc(Oc2cccc(C(=O)N3CCOCC3)c2)[nH]1

>  <score_type>  (63) 
oracle

>  <origin>  (63) 
adg

>  <m_score__min__energy>  (63) 
-9.8100000000000005

>  <m_primary>  (63) 
energy

$$$$
63:0
     RDKit          3D

 61 65  0  0  0  0  0  0  0  0999 V2000
   53.6060   31.1710   51.8290 N   0  0  0  0  0  0  0  0  0  0  0  0
   54.7250   30.8910   51.9110 C   0  0  0  0  0  0  0  0  0  0  0  0
   56.1170   30.5430   52.0130 C   0  0  0  0  0  0  0  0  0  0  0  0
   57.0860   31.3250   51.3750 C   0  0  0  0  0  0  0  0  0  0  0  0
   58.4380   30.9840   51.4720 C   0  0  0  0  0  0  0  0  0  0  0  0
   58.8290   29.8480   52.1990 C   0  0  0  0  0  0  0  0  0  0  0  0
   60.2760   29.4370   52.2320 C   0  0  0  0  0  0  0  0  0  0  0  0
   60.7350   29.0060   50.9120 N   0  0  0  0  0  0  0  0  0  0  0  0
   61.0300   29.9220   49.8800 N   0  0  0  0  0  0  0  0  0  0  0  0
   60.3210   29.8920   48.7040 C   0  0  0  0  0  0  0  0  0  0  0  0
   59.2020   28.8930   48.4800 C   0  0  0  0  0  0  0  0  0  0  0  0
   58.7220   28.9110   47.0540 C   0  0  0  0  0  0  0  0  0  0  0  0
   58.0890   30.0220   46.5940 N   0  0  0  0  0  0  0  0  0  0  0  0
   57.6120   30.0990   45.3210 C   0  0  0  0  0  0  0  0  0  0  0  0
   57.0200   31.1720   44.8860 N   0  0  0  0  0  0  0  0  0  0  0  0
   57.6490   32.3300   44.3130 C   0  0  0  0  0  0  0  0  0  0  0  0
   58.3920   32.2390   43.3010 O   0  0  0  0  0  0  0  0  0  0  0  0
   57.3930   33.6750   44.9150 C   0  0  0  0  0  0  0  0  0  0  0  0
   58.1620   33.8260   46.1990 C   0  0  0  0  0  0  0  0  0  0  0  0
   57.9100   32.9610   47.2780 C   0  0  0  0  0  0  0  0  0  0  0  0
   58.6460   33.0820   48.4620 C   0  0  0  0  0  0  0  0  0  0  0  0
   59.6350   34.0650   48.5770 C   0  0  0  0  0  0  0  0  0  0  0  0
   59.8940   34.9240   47.5050 C   0  0  0  0  0  0  0  0  0  0  0  0
   59.1650   34.8020   46.3180 C   0  0  0  0  0  0  0  0  0  0  0  0
   57.7650   29.0400   44.4860 N   0  0  0  0  0  0  0  0  0  0  0  0
   58.3880   27.9070   44.8950 C   0  0  0  0  0  0  0  0  0  0  0  0
   58.8900   27.8130   46.1940 C   0  0  0  0  0  0  0  0  0  0  0  0
   59.7010   26.3370   46.6920 Cl  0  0  0  0  0  0  0  0  0  0  0  0
   60.6640   30.7320   47.6850 N   0  0  0  0  0  0  0  0  0  0  0  0
   61.6650   31.6410   47.8200 C   0  0  0  0  0  0  0  0  0  0  0  0
   61.9880   32.5090   46.7630 C   0  0  0  0  0  0  0  0  0  0  0  0
   63.0120   33.4490   46.9130 C   0  0  0  0  0  0  0  0  0  0  0  0
   63.7200   33.5290   48.1140 C   0  0  0  0  0  0  0  0  0  0  0  0
   63.4070   32.6700   49.1710 C   0  0  0  0  0  0  0  0  0  0  0  0
   62.3780   31.7200   49.0310 C   0  0  0  0  0  0  0  0  0  0  0  0
   62.0320   30.8370   50.0630 C   0  0  0  0  0  0  0  0  0  0  0  0
   62.6400   30.8910   51.1690 O   0  0  0  0  0  0  0  0  0  0  0  0
   57.8530   29.0700   52.8410 C   0  0  0  0  0  0  0  0  0  0  0  0
   56.5040   29.4170   52.7500 C   0  0  0  0  0  0  0  0  0  0  0  0
   56.7832   32.2099   50.7959 H   0  0  0  0  0  0  0  0  0  0  0  0
   59.1977   31.6071   50.9775 H   0  0  0  0  0  0  0  0  0  0  0  0
   60.8842   30.2923   52.5615 H   0  0  0  0  0  0  0  0  0  0  0  0
   60.3820   28.5931   52.9296 H   0  0  0  0  0  0  0  0  0  0  0  0
   60.7690   27.9870   50.7080 H   0  0  0  0  0  0  0  0  0  0  0  0
   59.5700   27.8846   48.7203 H   0  0  0  0  0  0  0  0  0  0  0  0
   58.3590   29.1683   49.1308 H   0  0  0  0  0  0  0  0  0  0  0  0
   57.7102   34.4556   44.2079 H   0  0  0  0  0  0  0  0  0  0  0  0
   56.3182   33.7738   45.1273 H   0  0  0  0  0  0  0  0  0  0  0  0
   57.1327   32.1875   47.1915 H   0  0  0  0  0  0  0  0  0  0  0  0
   58.4466   32.4029   49.3040 H   0  0  0  0  0  0  0  0  0  0  0  0
   60.2085   34.1618   49.5106 H   0  0  0  0  0  0  0  0  0  0  0  0
   60.6719   35.6965   47.5953 H   0  0  0  0  0  0  0  0  0  0  0  0
   59.3781   35.4737   45.4733 H   0  0  0  0  0  0  0  0  0  0  0  0
   58.4980   27.0602   44.2015 H   0  0  0  0  0  0  0  0  0  0  0  0
   60.1470   30.6740   46.7760 H   0  0  0  0  0  0  0  0  0  0  0  0
   61.4335   32.4487   45.8149 H   0  0  0  0  0  0  0  0  0  0  0  0
   63.2605   34.1270   46.0832 H   0  0  0  0  0  0  0  0  0  0  0  0
   64.5254   34.2694   48.2283 H   0  0  0  0  0  0  0  0  0  0  0  0
   63.9668   32.7366   50.1156 H   0  0  0  0  0  0  0  0  0  0  0  0
   58.1525   28.1829   53.4184 H   0  0  0  0  0  0  0  0  0  0  0  0
   55.7440   28.8051   53.2579 H   0  0  0  0  0  0  0  0  0  0  0  0
  1  2  3  0
  2  3  1  0
  3  4  2  0
  4  5  1  0
  5  6  2  0
  6  7  1  0
  7  8  1  0
  8  9  1  0
  9 10  1  0
 10 11  1  0
 11 12  1  0
 12 13  2  0
 13 14  1  0
 14 15  2  3
 15 16  1  0
 16 17  2  0
 16 18  1  0
 18 19  1  0
 19 20  2  0
 20 21  1  0
 21 22  2  0
 22 23  1  0
 23 24  2  0
 14 25  1  0
 25 26  1  0
 26 27  2  0
 27 28  1  0
 10 29  2  0
 29 30  1  0
 30 31  2  0
 31 32  1  0
 32 33  2  0
 33 34  1  0
 34 35  2  0
 35 36  1  0
 36 37  2  0
  6 38  1  0
 38 39  2  0
 39  3  1  0
 36  9  1  0
 27 12  1  0
 35 30  1  0
 24 19  1  0
  4 40  1  0
  5 41  1  0
  7 42  1  0
  7 43  1  0
  8 44  1  0
 11 45  1  0
 11 46  1  0
 18 47  1  0
 18 48  1  0
 20 49  1  0
 21 50  1  0
 22 51  1  0
 23 52  1  0
 24 53  1  0
 26 54  1  0
 29 55  1  0
 31 56  1  0
 32 57  1  0
 33 58  1  0
 34 59  1  0
 38 60  1  0
 39 61  1  0
M  CHG  2  25  -1  29   1
M  END
>  <UniqueID>  (64) 
57

>  <SMILES>  (64) 
N#Cc1ccc(CNn2c(Cc3nc(=NC(=O)Cc4ccccc4)[n-]cc3Cl)[nH+]c3ccccc3c2=O)cc1

>  <Energy>  (64) 
78.7757635873812

>  <Genealogy>  (64) 
N#Cc1ccc(CNn2c(Cc3nc(=NC(=O)Cc4ccccc4)[n-]cc3Cl)[nH+]c3ccccc3c2=O)cc1 (protonated)
N#Cc1ccc(CNn2c(Cc3nc(=NC(=O)Cc4ccccc4)[n-]cc3Cl)[nH+]c3ccccc3c2=O)cc1 (3D coordinates assigned)
N#Cc1ccc(CNn2c(Cc3nc(=NC(=O)Cc4ccccc4)[n-]cc3Cl)[nH+]c3ccccc3c2=O)cc1 (optimized conformer: 78.7757635873812 kcal/mol)

>  <smiles>  (64) 
N#Cc1ccc(CNn2c(Cc3nc(=NC(=O)Cc4ccccc4)[nH]cc3Cl)nc3ccccc3c2=O)cc1

>  <score_type>  (64) 
oracle

>  <origin>  (64) 
adg

>  <m_score__min__energy>  (64) 
-9.8399999999999999

>  <m_primary>  (64) 
energy

$$$$
64:0
     RDKit          3D

 30 31  0  0  0  0  0  0  0  0999 V2000
   54.7540   24.4290   47.6120 H   0  0  0  0  0  0  0  0  0  0  0  0
   55.1420   24.5350   46.6470 N   0  0  0  0  0  0  0  0  0  0  0  0
   55.9490   25.4980   46.3460 C   0  0  0  0  0  0  0  0  0  0  0  0
   57.2920   25.3190   46.4320 N   0  0  0  0  0  0  0  0  0  0  0  0
   58.1330   26.3310   46.1080 C   0  0  0  0  0  0  0  0  0  0  0  0
   59.9050   26.0870   46.1950 S   0  0  0  0  0  0  0  0  0  0  0  0
   60.1190   27.0830   47.7130 C   0  0  0  0  0  0  0  0  0  0  0  0
   59.4430   26.7008   48.4921 H   0  0  0  0  0  0  0  0  0  0  0  0
   61.1667   27.0041   48.0386 H   0  0  0  0  0  0  0  0  0  0  0  0
   59.8050   28.5320   47.4570 C   0  0  0  0  0  0  0  0  0  0  0  0
   59.1850   29.3060   48.4510 C   0  0  0  0  0  0  0  0  0  0  0  0
   58.9036   28.8446   49.4091 H   0  0  0  0  0  0  0  0  0  0  0  0
   58.9240   30.6620   48.2270 C   0  0  0  0  0  0  0  0  0  0  0  0
   58.4352   31.2638   49.0073 H   0  0  0  0  0  0  0  0  0  0  0  0
   59.2840   31.2530   47.0120 C   0  0  0  0  0  0  0  0  0  0  0  0
   59.0788   32.3195   46.8374 H   0  0  0  0  0  0  0  0  0  0  0  0
   59.9040   30.4900   46.0200 C   0  0  0  0  0  0  0  0  0  0  0  0
   60.1874   30.9566   45.0650 H   0  0  0  0  0  0  0  0  0  0  0  0
   60.1650   29.1340   46.2390 C   0  0  0  0  0  0  0  0  0  0  0  0
   60.6537   28.5363   45.4555 H   0  0  0  0  0  0  0  0  0  0  0  0
   57.6320   27.5250   45.7030 N   0  0  0  0  0  0  0  0  0  0  0  0
   56.2890   27.7130   45.6140 C   0  0  0  0  0  0  0  0  0  0  0  0
   55.7810   28.8480   45.2280 N   0  0  0  0  0  0  0  0  0  0  0  0
   56.2970   29.7930   44.2730 C   0  0  0  0  0  0  0  0  0  0  0  0
   56.4630   30.9860   44.6420 O   0  0  0  0  0  0  0  0  0  0  0  0
   56.6350   29.4300   42.8570 C   0  0  0  0  0  0  0  0  0  0  0  0
   57.3846   28.6250   42.8538 H   0  0  0  0  0  0  0  0  0  0  0  0
   55.7268   29.0874   42.3395 H   0  0  0  0  0  0  0  0  0  0  0  0
   57.0414   30.3115   42.3395 H   0  0  0  0  0  0  0  0  0  0  0  0
   55.4520   26.6940   45.9400 N   0  0  0  0  0  0  0  0  0  0  0  0
  1  2  1  0
  2  3  2  0
  3  4  1  0
  4  5  2  0
  5  6  1  0
  6  7  1  0
  7  8  1  0
  7  9  1  0
  7 10  1  0
 10 11  2  0
 11 12  1  0
 11 13  1  0
 13 14  1  0
 13 15  2  0
 15 16  1  0
 15 17  1  0
 17 18  1  0
 17 19  2  0
 19 20  1  0
  5 21  1  0
 21 22  1  0
 22 23  2  3
 23 24  1  0
 24 25  2  0
 24 26  1  0
 26 27  1  0
 26 28  1  0
 26 29  1  0
 22 30  1  0
 30  3  1  0
 19 10  1  0
M  CHG  2  21  -1  30  -1
M  END
>  <UniqueID>  (65) 
58

>  <SMILES>  (65) 
[H]/N=c1\nc(SCc2ccccc2)[n-]c(=NC(C)=O)[n-]1

>  <Energy>  (65) 
28.19592394611329

>  <Genealogy>  (65) 
CC(=O)N=c1[n-]c(SCc2ccccc2)nc(=N)[n-]1 (protonated)
[H]/N=c1\nc(SCc2ccccc2)[n-]c(=NC(C)=O)[n-]1 (cis-trans isomerization)
[H]/N=c1\nc(SCc2ccccc2)[n-]c(=NC(C)=O)[n-]1 (3D coordinates assigned)
[H]/N=c1\nc(SCc2ccccc2)[n-]c(=NC(C)=O)[n-]1 (optimized conformer: 28.19592394611329 kcal/mol)

>  <smiles>  (65) 
CC(=O)N=c1[nH]c(SCc2ccccc2)nc(=N)[nH]1

>  <score_type>  (65) 
oracle

>  <origin>  (65) 
adg

>  <m_score__min__energy>  (65) 
-10.26

>  <m_primary>  (65) 
energy

$$$$
65:0
     RDKit          3D

 53 55  0  0  0  0  0  0  0  0999 V2000
   59.8350   33.1850   52.0640 N   0  0  0  0  0  0  0  0  0  0  0  0
   58.9030   33.0170   50.9910 C   0  0  0  0  0  0  0  0  0  0  0  0
   57.6880   32.6320   51.2460 N   0  0  0  0  0  0  0  0  0  0  0  0
   59.3120   33.3430   49.6520 N   0  0  0  0  0  0  0  0  0  0  0  0
   58.7710   32.7160   48.4760 C   0  0  0  0  0  0  0  0  0  0  0  0
   58.2260   31.5820   48.5680 O   0  0  0  0  0  0  0  0  0  0  0  0
   58.8900   33.3630   47.1470 C   0  0  0  0  0  0  0  0  0  0  0  0
   59.5160   34.6160   47.0220 C   0  0  0  0  0  0  0  0  0  0  0  0
   59.6280   35.2330   45.7730 C   0  0  0  0  0  0  0  0  0  0  0  0
   59.1240   34.6050   44.6330 C   0  0  0  0  0  0  0  0  0  0  0  0
   58.5120   33.3470   44.7320 C   0  0  0  0  0  0  0  0  0  0  0  0
   57.9470   32.6710   43.5110 C   0  0  0  0  0  0  0  0  0  0  0  0
   58.1390   31.2260   43.6020 N   0  0  0  0  0  0  0  0  0  0  0  0
   57.2920   30.3920   44.4070 C   0  0  0  0  0  0  0  0  0  0  0  0
   56.1960   30.8490   44.8350 O   0  0  0  0  0  0  0  0  0  0  0  0
   57.6790   29.0000   44.7400 C   0  0  0  0  0  0  0  0  0  0  0  0
   57.7880   28.0360   43.7210 C   0  0  0  0  0  0  0  0  0  0  0  0
   58.1370   26.7180   44.0240 C   0  0  0  0  0  0  0  0  0  0  0  0
   58.3670   26.3340   45.3530 C   0  0  0  0  0  0  0  0  0  0  0  0
   58.7740   24.9240   45.6680 C   0  0  0  0  0  0  0  0  0  0  0  0
   58.2440   24.5550   46.9790 N   0  0  0  0  0  0  0  0  0  0  0  0
   56.8780   23.4990   46.7850 S   0  0  0  0  0  0  0  0  0  0  0  0
   56.9780   22.3710   47.7740 O   0  0  0  0  0  0  0  0  0  0  0  0
   55.6070   24.2630   47.0360 O   0  0  0  0  0  0  0  0  0  0  0  0
   56.8640   22.8370   45.1600 C   0  0  0  0  0  0  0  0  0  0  0  0
   57.6100   21.7530   44.7270 C   0  0  0  0  0  0  0  0  0  0  0  0
   57.4180   21.4640   43.3710 C   0  0  0  0  0  0  0  0  0  0  0  0
   56.5220   22.3210   42.7420 C   0  0  0  0  0  0  0  0  0  0  0  0
   55.9720   23.4420   43.8730 S   0  0  0  0  0  0  0  0  0  0  0  0
   58.2650   27.2900   46.3740 C   0  0  0  0  0  0  0  0  0  0  0  0
   57.9150   28.6110   46.0710 C   0  0  0  0  0  0  0  0  0  0  0  0
   58.3980   32.7300   45.9890 C   0  0  0  0  0  0  0  0  0  0  0  0
   60.8080   33.5160   51.8730 H   0  0  0  0  0  0  0  0  0  0  0  0
   59.5610   32.9790   53.0510 H   0  0  0  0  0  0  0  0  0  0  0  0
   57.3120   32.6650   52.2210 H   0  0  0  0  0  0  0  0  0  0  0  0
   57.0420   32.3150   50.4910 H   0  0  0  0  0  0  0  0  0  0  0  0
   60.1300   33.9830   49.5390 H   0  0  0  0  0  0  0  0  0  0  0  0
   59.9210   35.1148   47.9149 H   0  0  0  0  0  0  0  0  0  0  0  0
   60.1145   36.2159   45.6882 H   0  0  0  0  0  0  0  0  0  0  0  0
   59.2071   35.0985   43.6534 H   0  0  0  0  0  0  0  0  0  0  0  0
   56.8717   32.8911   43.4383 H   0  0  0  0  0  0  0  0  0  0  0  0
   58.4678   33.0474   42.6182 H   0  0  0  0  0  0  0  0  0  0  0  0
   58.9030   30.7970   43.0330 H   0  0  0  0  0  0  0  0  0  0  0  0
   57.5967   28.3229   42.6764 H   0  0  0  0  0  0  0  0  0  0  0  0
   58.2319   25.9775   43.2161 H   0  0  0  0  0  0  0  0  0  0  0  0
   58.3704   24.2444   44.9029 H   0  0  0  0  0  0  0  0  0  0  0  0
   59.8713   24.8482   45.6771 H   0  0  0  0  0  0  0  0  0  0  0  0
   58.2832   21.1791   45.3808 H   0  0  0  0  0  0  0  0  0  0  0  0
   57.9272   20.6381   42.8527 H   0  0  0  0  0  0  0  0  0  0  0  0
   56.2227   22.2749   41.6845 H   0  0  0  0  0  0  0  0  0  0  0  0
   58.4608   27.0006   47.4170 H   0  0  0  0  0  0  0  0  0  0  0  0
   57.8238   29.3507   46.8801 H   0  0  0  0  0  0  0  0  0  0  0  0
   57.9197   31.7427   46.0696 H   0  0  0  0  0  0  0  0  0  0  0  0
  1  2  1  0
  2  3  2  0
  2  4  1  0
  4  5  1  0
  5  6  2  0
  5  7  1  0
  7  8  2  0
  8  9  1  0
  9 10  2  0
 10 11  1  0
 11 12  1  0
 12 13  1  0
 13 14  1  0
 14 15  2  0
 14 16  1  0
 16 17  2  0
 17 18  1  0
 18 19  2  0
 19 20  1  0
 20 21  1  0
 21 22  1  0
 22 23  2  0
 22 24  2  0
 22 25  1  0
 25 26  2  0
 26 27  1  0
 27 28  2  0
 28 29  1  0
 19 30  1  0
 30 31  2  0
 11 32  2  0
 32  7  1  0
 31 16  1  0
 29 25  1  0
  1 33  1  0
  1 34  1  0
  3 35  1  0
  3 36  1  0
  4 37  1  0
  8 38  1  0
  9 39  1  0
 10 40  1  0
 12 41  1  0
 12 42  1  0
 13 43  1  0
 17 44  1  0
 18 45  1  0
 20 46  1  0
 20 47  1  0
 26 48  1  0
 27 49  1  0
 28 50  1  0
 30 51  1  0
 31 52  1  0
 32 53  1  0
M  CHG  2   3   1  21  -1
M  END
>  <UniqueID>  (66) 
59

>  <SMILES>  (66) 
NC(=[NH2+])NC(=O)c1cccc(CNC(=O)c2ccc(C[N-]S(=O)(=O)c3cccs3)cc2)c1

>  <Energy>  (66) 
81.03024815508448

>  <Genealogy>  (66) 
NC(=[NH2+])NC(=O)c1cccc(CNC(=O)c2ccc(C[N-]S(=O)(=O)c3cccs3)cc2)c1 (protonated)
NC(=[NH2+])NC(=O)c1cccc(CNC(=O)c2ccc(C[N-]S(=O)(=O)c3cccs3)cc2)c1 (3D coordinates assigned)
NC(=[NH2+])NC(=O)c1cccc(CNC(=O)c2ccc(C[N-]S(=O)(=O)c3cccs3)cc2)c1 (optimized conformer: 81.03024815508448 kcal/mol)

>  <smiles>  (66) 
N=C(N)NC(=O)c1cccc(CNC(=O)c2ccc(CNS(=O)(=O)c3cccs3)cc2)c1

>  <score_type>  (66) 
oracle

>  <origin>  (66) 
adg

>  <m_score__min__energy>  (66) 
-10.109999999999999

>  <m_primary>  (66) 
energy

$$$$
66:0
     RDKit          3D

 49 52  0  0  0  0  0  0  0  0999 V2000
   60.4204   24.9234   45.4727 H   0  0  0  0  0  0  0  0  0  0  0  0
   59.7810   25.6400   46.0090 C   0  0  0  0  0  0  0  0  0  0  0  0
   60.2690   26.3150   47.0810 N   0  0  0  0  0  0  0  0  0  0  0  0
   59.4940   27.2040   47.7610 C   0  0  0  0  0  0  0  0  0  0  0  0
   59.9600   27.8460   48.7890 N   0  0  0  0  0  0  0  0  0  0  0  0
   59.8090   29.2840   48.9920 C   0  0  0  0  0  0  0  0  0  0  0  0
   59.7637   29.4987   50.0699 H   0  0  0  0  0  0  0  0  0  0  0  0
   58.8816   29.6255   48.5091 H   0  0  0  0  0  0  0  0  0  0  0  0
   61.0010   30.0170   48.3770 C   0  0  0  0  0  0  0  0  0  0  0  0
   60.8311   30.1233   47.2954 H   0  0  0  0  0  0  0  0  0  0  0  0
   61.9041   29.4247   48.5858 H   0  0  0  0  0  0  0  0  0  0  0  0
   61.2040   31.4120   48.9840 C   0  0  0  0  0  0  0  0  0  0  0  0
   62.1915   31.4517   49.4670 H   0  0  0  0  0  0  0  0  0  0  0  0
   60.4032   31.5902   49.7167 H   0  0  0  0  0  0  0  0  0  0  0  0
   61.1320   32.4590   47.9580 N   0  0  0  0  0  0  0  0  0  0  0  0
   62.1560   33.0730   47.3050 C   0  0  0  0  0  0  0  0  0  0  0  0
   63.6050   32.8120   47.5710 C   0  0  0  0  0  0  0  0  0  0  0  0
   63.7786   32.7807   48.6568 H   0  0  0  0  0  0  0  0  0  0  0  0
   63.8916   31.8478   47.1259 H   0  0  0  0  0  0  0  0  0  0  0  0
   64.2101   33.6156   47.1259 H   0  0  0  0  0  0  0  0  0  0  0  0
   61.7400   33.9870   46.3880 N   0  0  0  0  0  0  0  0  0  0  0  0
   60.4000   33.9250   46.4840 C   0  0  0  0  0  0  0  0  0  0  0  0
   59.4640   34.6620   45.7630 C   0  0  0  0  0  0  0  0  0  0  0  0
   59.7786   35.3944   45.0050 H   0  0  0  0  0  0  0  0  0  0  0  0
   58.1020   34.4380   46.0370 C   0  0  0  0  0  0  0  0  0  0  0  0
   57.3341   35.0005   45.4857 H   0  0  0  0  0  0  0  0  0  0  0  0
   57.7140   33.4950   47.0160 C   0  0  0  0  0  0  0  0  0  0  0  0
   56.6464   33.3296   47.2229 H   0  0  0  0  0  0  0  0  0  0  0  0
   58.6860   32.7660   47.7280 C   0  0  0  0  0  0  0  0  0  0  0  0
   58.3989   32.0302   48.4936 H   0  0  0  0  0  0  0  0  0  0  0  0
   60.0280   33.0110   47.4270 C   0  0  0  0  0  0  0  0  0  0  0  0
   58.2140   27.4260   47.3610 N   0  0  0  0  0  0  0  0  0  0  0  0
   57.6850   26.7840   46.2840 C   0  0  0  0  0  0  0  0  0  0  0  0
   56.2840   27.0560   45.8990 C   0  0  0  0  0  0  0  0  0  0  0  0
   55.4030   26.1920   46.1510 O   0  0  0  0  0  0  0  0  0  0  0  0
   55.8960   28.2530   45.2120 N   0  0  0  0  0  0  0  0  0  0  0  0
   56.7600   29.3430   44.8560 C   0  0  0  0  0  0  0  0  0  0  0  0
   57.7720   29.7230   45.7460 C   0  0  0  0  0  0  0  0  0  0  0  0
   57.8864   29.1927   46.7029 H   0  0  0  0  0  0  0  0  0  0  0  0
   58.6380   30.7730   45.4250 C   0  0  0  0  0  0  0  0  0  0  0  0
   59.4243   31.0732   46.1333 H   0  0  0  0  0  0  0  0  0  0  0  0
   58.5050   31.4410   44.2050 C   0  0  0  0  0  0  0  0  0  0  0  0
   59.1822   32.2716   43.9568 H   0  0  0  0  0  0  0  0  0  0  0  0
   57.5120   31.0550   43.2990 C   0  0  0  0  0  0  0  0  0  0  0  0
   57.3560   31.8830   41.7610 Cl  0  0  0  0  0  0  0  0  0  0  0  0
   56.6460   30.0030   43.6180 C   0  0  0  0  0  0  0  0  0  0  0  0
   55.8740   29.6910   42.8992 H   0  0  0  0  0  0  0  0  0  0  0  0
   58.4700   25.8550   45.5880 C   0  0  0  0  0  0  0  0  0  0  0  0
   58.0599   25.3067   44.7271 H   0  0  0  0  0  0  0  0  0  0  0  0
  1  2  1  0
  2  3  1  0
  3  4  1  0
  4  5  2  0
  5  6  1  0
  6  7  1  0
  6  8  1  0
  6  9  1  0
  9 10  1  0
  9 11  1  0
  9 12  1  0
 12 13  1  0
 12 14  1  0
 12 15  1  0
 15 16  1  0
 16 17  1  0
 17 18  1  0
 17 19  1  0
 17 20  1  0
 16 21  2  0
 21 22  1  0
 22 23  2  0
 23 24  1  0
 23 25  1  0
 25 26  1  0
 25 27  2  0
 27 28  1  0
 27 29  1  0
 29 30  1  0
 29 31  2  0
  4 32  1  0
 32 33  2  0
 33 34  1  0
 34 35  2  0
 34 36  1  0
 36 37  1  0
 37 38  2  0
 38 39  1  0
 38 40  1  0
 40 41  1  0
 40 42  2  0
 42 43  1  0
 42 44  1  0
 44 45  1  0
 44 46  2  0
 46 47  1  0
 33 48  1  0
 48 49  1  0
 48  2  2  0
 31 15  1  0
 46 37  1  0
 31 22  1  0
M  CHG  2   3  -1  36  -1
M  END
>  <UniqueID>  (67) 
60

>  <SMILES>  (67) 
Cc1nc2ccccc2n1CCC/N=c1/nc(C(=O)[N-]c2cccc(Cl)c2)cc[n-]1

>  <Energy>  (67) 
90.79821471506365

>  <Genealogy>  (67) 
Cc1nc2ccccc2n1CCCN=c1nc(C(=O)[N-]c2cccc(Cl)c2)cc[n-]1 (protonated)
Cc1nc2ccccc2n1CCC/N=c1/nc(C(=O)[N-]c2cccc(Cl)c2)cc[n-]1 (cis-trans isomerization)
Cc1nc2ccccc2n1CCC/N=c1/nc(C(=O)[N-]c2cccc(Cl)c2)cc[n-]1 (3D coordinates assigned)
Cc1nc2ccccc2n1CCC/N=c1/nc(C(=O)[N-]c2cccc(Cl)c2)cc[n-]1 (optimized conformer: 90.79821471506365 kcal/mol)

>  <smiles>  (67) 
Cc1nc2ccccc2n1CCCN=c1nc(C(=O)Nc2cccc(Cl)c2)cc[nH]1

>  <score_type>  (67) 
oracle

>  <origin>  (67) 
adg

>  <m_score__min__energy>  (67) 
-12.52

>  <m_primary>  (67) 
energy

$$$$
67:0
     RDKit          3D

 48 50  0  0  0  0  0  0  0  0999 V2000
   60.6530   26.7080   48.4740 C   0  0  0  0  0  0  0  0  0  0  0  0
   59.6990   27.2220   47.4360 C   0  0  0  0  0  0  0  0  0  0  0  0
   59.9940   28.3910   46.7290 C   0  0  0  0  0  0  0  0  0  0  0  0
   59.1260   28.8530   45.7400 C   0  0  0  0  0  0  0  0  0  0  0  0
   57.9590   28.1390   45.4180 C   0  0  0  0  0  0  0  0  0  0  0  0
   57.0560   28.6430   44.4200 N   0  0  0  0  0  0  0  0  0  0  0  0
   56.4520   29.9440   44.4020 C   0  0  0  0  0  0  0  0  0  0  0  0
   55.2310   30.0370   44.1110 O   0  0  0  0  0  0  0  0  0  0  0  0
   57.2330   31.1760   44.6660 C   0  0  0  0  0  0  0  0  0  0  0  0
   57.7480   31.9440   43.6060 C   0  0  0  0  0  0  0  0  0  0  0  0
   58.4810   33.1050   43.8640 C   0  0  0  0  0  0  0  0  0  0  0  0
   58.7140   33.5170   45.1840 C   0  0  0  0  0  0  0  0  0  0  0  0
   59.4740   34.7840   45.4630 C   0  0  0  0  0  0  0  0  0  0  0  0
   59.6290   34.9530   46.9090 N   0  0  0  0  0  0  0  0  0  0  0  0
   60.8050   33.8240   47.5090 S   0  0  0  0  0  0  0  0  0  0  0  0
   61.8890   34.5720   48.2330 O   0  0  0  0  0  0  0  0  0  0  0  0
   61.4230   33.0740   46.3610 O   0  0  0  0  0  0  0  0  0  0  0  0
   60.0390   32.7040   48.6320 C   0  0  0  0  0  0  0  0  0  0  0  0
   59.2710   33.1770   49.7060 C   0  0  0  0  0  0  0  0  0  0  0  0
   58.6830   32.2770   50.6000 C   0  0  0  0  0  0  0  0  0  0  0  0
   58.8630   30.8990   50.4280 C   0  0  0  0  0  0  0  0  0  0  0  0
   58.1260   29.7700   51.5490 Cl  0  0  0  0  0  0  0  0  0  0  0  0
   59.6340   30.4250   49.3610 C   0  0  0  0  0  0  0  0  0  0  0  0
   60.2210   31.3250   48.4660 C   0  0  0  0  0  0  0  0  0  0  0  0
   58.1740   32.7710   46.2430 C   0  0  0  0  0  0  0  0  0  0  0  0
   57.4400   31.6110   45.9860 C   0  0  0  0  0  0  0  0  0  0  0  0
   57.6490   26.9510   46.1290 C   0  0  0  0  0  0  0  0  0  0  0  0
   56.4290   26.1490   45.8450 C   0  0  0  0  0  0  0  0  0  0  0  0
   56.5080   24.9540   45.4560 O   0  0  0  0  0  0  0  0  0  0  0  0
   55.1680   26.7100   46.0170 O   0  0  0  0  0  0  0  0  0  0  0  0
   58.5360   26.5040   47.1280 C   0  0  0  0  0  0  0  0  0  0  0  0
   60.2546   26.9227   49.4766 H   0  0  0  0  0  0  0  0  0  0  0  0
   60.7759   25.6216   48.3532 H   0  0  0  0  0  0  0  0  0  0  0  0
   61.6279   27.2030   48.3532 H   0  0  0  0  0  0  0  0  0  0  0  0
   60.9149   28.9491   46.9536 H   0  0  0  0  0  0  0  0  0  0  0  0
   59.3573   29.7865   45.2061 H   0  0  0  0  0  0  0  0  0  0  0  0
   57.5724   31.6283   42.5670 H   0  0  0  0  0  0  0  0  0  0  0  0
   58.8774   33.6990   43.0274 H   0  0  0  0  0  0  0  0  0  0  0  0
   60.4665   34.7272   44.9922 H   0  0  0  0  0  0  0  0  0  0  0  0
   58.9208   35.6411   45.0514 H   0  0  0  0  0  0  0  0  0  0  0  0
   60.0120   35.9110   47.0870 H   0  0  0  0  0  0  0  0  0  0  0  0
   59.1308   34.2591   49.8454 H   0  0  0  0  0  0  0  0  0  0  0  0
   58.0785   32.6517   51.4391 H   0  0  0  0  0  0  0  0  0  0  0  0
   59.7786   29.3429   49.2260 H   0  0  0  0  0  0  0  0  0  0  0  0
   60.8276   30.9489   47.6290 H   0  0  0  0  0  0  0  0  0  0  0  0
   58.3296   33.1016   47.2805 H   0  0  0  0  0  0  0  0  0  0  0  0
   57.0208   31.0336   46.8232 H   0  0  0  0  0  0  0  0  0  0  0  0
   58.3119   25.5763   47.6750 H   0  0  0  0  0  0  0  0  0  0  0  0
  1  2  1  0
  2  3  2  0
  3  4  1  0
  4  5  2  0
  5  6  1  0
  6  7  1  0
  7  8  2  0
  7  9  1  0
  9 10  2  0
 10 11  1  0
 11 12  2  0
 12 13  1  0
 13 14  1  0
 14 15  1  0
 15 16  2  0
 15 17  2  0
 15 18  1  0
 18 19  2  0
 19 20  1  0
 20 21  2  0
 21 22  1  0
 21 23  1  0
 23 24  2  0
 12 25  1  0
 25 26  2  0
  5 27  1  0
 27 28  1  0
 28 29  2  0
 28 30  1  0
 27 31  2  0
 31  2  1  0
 26  9  1  0
 24 18  1  0
  1 32  1  0
  1 33  1  0
  1 34  1  0
  3 35  1  0
  4 36  1  0
 10 37  1  0
 11 38  1  0
 13 39  1  0
 13 40  1  0
 14 41  1  0
 19 42  1  0
 20 43  1  0
 23 44  1  0
 24 45  1  0
 25 46  1  0
 26 47  1  0
 31 48  1  0
M  CHG  2   6  -1  30  -1
M  END
>  <UniqueID>  (68) 
61

>  <SMILES>  (68) 
Cc1ccc([N-]C(=O)c2ccc(CNS(=O)(=O)c3ccc(Cl)cc3)cc2)c(C(=O)[O-])c1

>  <Energy>  (68) 
56.66141982088051

>  <Genealogy>  (68) 
Cc1ccc([N-]C(=O)c2ccc(CNS(=O)(=O)c3ccc(Cl)cc3)cc2)c(C(=O)[O-])c1 (protonated)
Cc1ccc([N-]C(=O)c2ccc(CNS(=O)(=O)c3ccc(Cl)cc3)cc2)c(C(=O)[O-])c1 (3D coordinates assigned)
Cc1ccc([N-]C(=O)c2ccc(CNS(=O)(=O)c3ccc(Cl)cc3)cc2)c(C(=O)[O-])c1 (optimized conformer: 56.66141982088051 kcal/mol)

>  <smiles>  (68) 
Cc1ccc(NC(=O)c2ccc(CNS(=O)(=O)c3ccc(Cl)cc3)cc2)c(C(=O)O)c1

>  <score_type>  (68) 
oracle

>  <origin>  (68) 
adg

>  <m_score__min__energy>  (68) 
-13.869999999999999

>  <m_primary>  (68) 
energy

$$$$
68:0
     RDKit          3D

 73 77  0  0  1  0  0  0  0  0999 V2000
   57.6830   31.8600   44.4100 C   0  0  0  0  0  0  0  0  0  0  0  0
   56.6070   31.0260   44.8660 O   0  0  0  0  0  0  0  0  0  0  0  0
   56.2660   29.8630   44.2060 C   0  0  0  0  0  0  0  0  0  0  0  0
   55.1560   29.3340   44.5870 O   0  0  0  0  0  0  0  0  0  0  0  0
   56.9960   29.1750   43.1590 C   0  0  0  0  0  0  0  0  0  0  0  0
   57.5640   27.9000   43.4190 N   0  0  0  0  0  0  0  0  0  0  0  0
   57.7990   27.6350   44.7730 C   0  0  1  0  0  0  0  0  0  0  0  0
   58.4010   26.3330   45.1930 C   0  0  0  0  0  0  0  0  0  0  0  0
   58.6350   26.6360   46.6990 C   0  0  0  0  0  0  0  0  0  0  0  0
   58.9330   28.0480   46.7250 N   0  0  0  0  0  0  0  0  0  0  0  0
   59.2910   28.7840   47.8870 C   0  0  0  0  0  0  0  0  0  0  0  0
   60.0220   28.2660   48.9230 C   0  0  0  0  0  0  0  0  0  0  0  0
   60.3450   29.0290   50.0410 C   0  0  0  0  0  0  0  0  0  0  0  0
   61.1080   28.5200   51.1240 N   0  0  0  0  0  0  0  0  0  0  0  0
   62.2470   29.0340   51.3940 C   0  0  0  0  0  0  0  0  0  0  0  0
   62.7410   30.3050   51.1870 C   0  0  0  0  0  0  0  0  0  0  0  0
   64.0300   30.3040   51.6760 C   0  0  0  0  0  0  0  0  0  0  0  0
   64.9830   31.4430   51.6840 C   0  0  0  0  0  0  0  0  0  0  0  0
   66.2120   31.1960   50.8300 C   0  0  0  0  0  0  0  0  0  0  0  0
   65.7150   32.0500   49.7680 N   0  0  0  0  0  0  0  0  0  0  0  0
   64.6990   32.5260   50.6550 C   0  0  0  0  0  0  0  0  0  0  0  0
   64.2980   29.0720   52.1600 N   0  0  0  0  0  0  0  0  0  0  0  0
   63.2320   28.3000   51.9960 N   0  0  0  0  0  0  0  0  0  0  0  0
   59.9240   30.3190   50.1100 N   0  0  0  0  0  0  0  0  0  0  0  0
   59.2050   30.8310   49.0930 C   0  0  0  0  0  0  0  0  0  0  0  0
   58.7680   32.0510   49.0850 N   0  0  0  0  0  0  0  0  0  0  0  0
   59.1700   32.9240   48.0400 C   0  0  0  0  0  0  0  0  0  0  0  0
   58.2360   33.7310   47.4040 C   0  0  0  0  0  0  0  0  0  0  0  0
   58.6760   34.5660   46.3910 C   0  0  0  0  0  0  0  0  0  0  0  0
   60.0070   34.5820   46.0360 C   0  0  0  0  0  0  0  0  0  0  0  0
   60.9540   33.7790   46.6650 C   0  0  0  0  0  0  0  0  0  0  0  0
   62.2500   33.8800   46.2280 O   0  0  0  0  0  0  0  0  0  0  0  0
   63.3860   33.5810   46.9620 C   0  0  0  0  0  0  0  0  0  0  0  0
   63.4280   32.0580   47.1280 C   0  0  0  0  0  0  0  0  0  0  0  0
   63.3620   34.1720   48.3580 C   0  0  0  0  0  0  0  0  0  0  0  0
   60.5020   32.9620   47.6620 C   0  0  0  0  0  0  0  0  0  0  0  0
   58.9000   30.0820   48.0180 N   0  0  0  0  0  0  0  0  0  0  0  0
   58.8170   28.6020   45.3920 C   0  0  0  0  0  0  0  0  0  0  0  0
   58.2181   32.2748   45.2769 H   0  0  0  0  0  0  0  0  0  0  0  0
   58.3778   31.2622   43.8018 H   0  0  0  0  0  0  0  0  0  0  0  0
   57.2774   32.6820   43.8018 H   0  0  0  0  0  0  0  0  0  0  0  0
   56.3011   29.0487   42.3157 H   0  0  0  0  0  0  0  0  0  0  0  0
   57.8734   29.8175   42.9937 H   0  0  0  0  0  0  0  0  0  0  0  0
   57.0490   27.1620   42.9010 H   0  0  0  0  0  0  0  0  0  0  0  0
   56.7514   27.6951   45.1031 H   0  0  0  0  0  0  0  0  0  0  0  0
   57.7064   25.4928   45.0461 H   0  0  0  0  0  0  0  0  0  0  0  0
   59.2959   26.0269   44.6313 H   0  0  0  0  0  0  0  0  0  0  0  0
   57.7324   26.4153   47.2878 H   0  0  0  0  0  0  0  0  0  0  0  0
   59.4380   26.0241   47.1358 H   0  0  0  0  0  0  0  0  0  0  0  0
   60.3621   27.2212   48.8700 H   0  0  0  0  0  0  0  0  0  0  0  0
   62.2119   31.1510   50.7240 H   0  0  0  0  0  0  0  0  0  0  0  0
   64.9989   31.6323   52.7675 H   0  0  0  0  0  0  0  0  0  0  0  0
   67.1451   31.5583   51.2861 H   0  0  0  0  0  0  0  0  0  0  0  0
   66.5034   30.1616   50.5951 H   0  0  0  0  0  0  0  0  0  0  0  0
   66.3530   32.8210   49.4920 H   0  0  0  0  0  0  0  0  0  0  0  0
   64.8854   33.5439   51.0280 H   0  0  0  0  0  0  0  0  0  0  0  0
   63.6733   32.6411   50.2745 H   0  0  0  0  0  0  0  0  0  0  0  0
   65.2060   28.7510   52.6050 H   0  0  0  0  0  0  0  0  0  0  0  0
   63.1780   27.2980   52.2870 H   0  0  0  0  0  0  0  0  0  0  0  0
   60.1260   30.9370   50.9050 H   0  0  0  0  0  0  0  0  0  0  0  0
   57.1760   33.7076   47.6968 H   0  0  0  0  0  0  0  0  0  0  0  0
   57.9609   35.2183   45.8683 H   0  0  0  0  0  0  0  0  0  0  0  0
   60.3327   35.2527   45.2273 H   0  0  0  0  0  0  0  0  0  0  0  0
   64.2525   33.9969   46.4270 H   0  0  0  0  0  0  0  0  0  0  0  0
   63.4350   31.8059   48.1987 H   0  0  0  0  0  0  0  0  0  0  0  0
   62.5418   31.6127   46.6522 H   0  0  0  0  0  0  0  0  0  0  0  0
   64.3374   31.6622   46.6522 H   0  0  0  0  0  0  0  0  0  0  0  0
   63.3949   33.3608   49.1002 H   0  0  0  0  0  0  0  0  0  0  0  0
   64.2342   34.8284   48.4933 H   0  0  0  0  0  0  0  0  0  0  0  0
   62.4394   34.7555   48.4933 H   0  0  0  0  0  0  0  0  0  0  0  0
   61.2205   32.3119   48.1826 H   0  0  0  0  0  0  0  0  0  0  0  0
   58.4359   29.6337   45.4130 H   0  0  0  0  0  0  0  0  0  0  0  0
   59.7676   28.6785   44.8438 H   0  0  0  0  0  0  0  0  0  0  0  0
  1  2  1  0
  2  3  1  0
  3  4  2  0
  3  5  1  0
  5  6  1  0
  6  7  1  0
  7  8  1  0
  8  9  1  0
  9 10  1  0
 10 11  1  0
 11 12  1  0
 12 13  2  0
 13 14  1  0
 14 15  2  0
 15 16  1  0
 16 17  2  0
 17 18  1  0
 18 19  1  0
 19 20  1  0
 20 21  1  0
 17 22  1  0
 22 23  1  0
 13 24  1  0
 24 25  1  0
 25 26  2  0
 26 27  1  0
 27 28  2  0
 28 29  1  0
 29 30  2  0
 30 31  1  0
 31 32  1  0
 32 33  1  0
 33 34  1  0
 33 35  1  0
 31 36  2  0
 25 37  1  0
 10 38  1  0
 38  7  1  0
 37 11  2  0
 23 15  1  0
 36 27  1  0
 21 18  1  0
  1 39  1  0
  1 40  1  0
  1 41  1  0
  5 42  1  0
  5 43  1  0
  6 44  1  0
  7 45  1  1
  8 46  1  0
  8 47  1  0
  9 48  1  0
  9 49  1  0
 12 50  1  0
 16 51  1  0
 18 52  1  0
 19 53  1  0
 19 54  1  0
 20 55  1  0
 21 56  1  0
 21 57  1  0
 22 58  1  0
 23 59  1  0
 24 60  1  0
 28 61  1  0
 29 62  1  0
 30 63  1  0
 33 64  1  0
 34 65  1  0
 34 66  1  0
 34 67  1  0
 35 68  1  0
 35 69  1  0
 35 70  1  0
 36 71  1  0
 38 72  1  0
 38 73  1  0
M  END
>  <smiles>  (69) 
COC(=O)CNC1CCN(c2cc(N=c3cc(C4CNC4)[nH][nH]3)[nH]c(=Nc3cccc(OC(C)C)c3)n2)C1

>  <score_type>  (69) 
oracle

>  <origin>  (69) 
adg

>  <m_score__min__energy>  (69) 
-10.699999999999999

>  <m_primary>  (69) 
energy

$$$$
69:0
     RDKit          3D

 46 49  0  0  0  0  0  0  0  0999 V2000
   55.1480   28.9570   44.5890 O   0  0  0  0  0  0  0  0  0  0  0  0
   56.2380   29.7600   44.9020 C   0  0  0  0  0  0  0  0  0  0  0  0
   56.3090   31.0660   44.4070 C   0  0  0  0  0  0  0  0  0  0  0  0
   57.4050   31.8760   44.7200 C   0  0  0  0  0  0  0  0  0  0  0  0
   58.4390   31.3850   45.5350 C   0  0  0  0  0  0  0  0  0  0  0  0
   59.6310   32.2500   45.8510 C   0  0  0  0  0  0  0  0  0  0  0  0
   59.2330   33.7110   46.1260 C   0  0  0  0  0  0  0  0  0  0  0  0
   60.2830   34.5000   46.9230 C   0  0  0  0  0  0  0  0  0  0  0  0
   60.2990   34.1070   48.3670 C   0  0  0  0  0  0  0  0  0  0  0  0
   61.4210   33.8710   49.0750 N   0  0  0  0  0  0  0  0  0  0  0  0
   61.0270   33.5460   50.2970 N   0  0  0  0  0  0  0  0  0  0  0  0
   59.6820   33.5970   50.2820 C   0  0  0  0  0  0  0  0  0  0  0  0
   58.6500   33.2270   51.6940 S   0  0  0  0  0  0  0  0  0  0  0  0
   58.6860   31.4330   51.3860 C   0  0  0  0  0  0  0  0  0  0  0  0
   57.3860   30.8310   51.8050 C   0  0  0  0  0  0  0  0  0  0  0  0
   56.1920   31.4920   51.9810 C   0  0  0  0  0  0  0  0  0  0  0  0
   55.2800   30.5480   52.2870 N   0  0  0  0  0  0  0  0  0  0  0  0
   53.8740   30.7240   52.5620 C   0  0  0  0  0  0  0  0  0  0  0  0
   53.2330   30.0120   53.5960 C   0  0  0  0  0  0  0  0  0  0  0  0
   51.8700   30.1970   53.8460 C   0  0  0  0  0  0  0  0  0  0  0  0
   51.1280   31.0910   53.0710 C   0  0  0  0  0  0  0  0  0  0  0  0
   51.7480   31.8000   52.0410 C   0  0  0  0  0  0  0  0  0  0  0  0
   51.0110   32.6890   51.2680 O   0  0  0  0  0  0  0  0  0  0  0  0
   53.1130   31.6200   51.7860 C   0  0  0  0  0  0  0  0  0  0  0  0
   55.8940   29.3730   52.2840 N   0  0  0  0  0  0  0  0  0  0  0  0
   57.1780   29.5140   51.9870 N   0  0  0  0  0  0  0  0  0  0  0  0
   59.2260   33.9440   49.1030 O   0  0  0  0  0  0  0  0  0  0  0  0
   58.3620   30.0710   46.0260 C   0  0  0  0  0  0  0  0  0  0  0  0
   57.2650   29.2640   45.7100 C   0  0  0  0  0  0  0  0  0  0  0  0
   55.5014   31.4567   43.7704 H   0  0  0  0  0  0  0  0  0  0  0  0
   57.4580   32.9019   44.3266 H   0  0  0  0  0  0  0  0  0  0  0  0
   60.1352   31.8466   46.7416 H   0  0  0  0  0  0  0  0  0  0  0  0
   60.2965   32.2406   44.9752 H   0  0  0  0  0  0  0  0  0  0  0  0
   59.0786   34.2159   45.1610 H   0  0  0  0  0  0  0  0  0  0  0  0
   58.3194   33.6845   46.7381 H   0  0  0  0  0  0  0  0  0  0  0  0
   61.2761   34.3072   46.4910 H   0  0  0  0  0  0  0  0  0  0  0  0
   60.0249   35.5676   46.8632 H   0  0  0  0  0  0  0  0  0  0  0  0
   58.8472   31.2481   50.3137 H   0  0  0  0  0  0  0  0  0  0  0  0
   59.5043   30.9778   51.9632 H   0  0  0  0  0  0  0  0  0  0  0  0
   56.0169   32.5742   51.8901 H   0  0  0  0  0  0  0  0  0  0  0  0
   53.8097   29.3054   54.2109 H   0  0  0  0  0  0  0  0  0  0  0  0
   51.3803   29.6365   54.6559 H   0  0  0  0  0  0  0  0  0  0  0  0
   50.0563   31.2362   53.2721 H   0  0  0  0  0  0  0  0  0  0  0  0
   53.5950   32.1829   50.9731 H   0  0  0  0  0  0  0  0  0  0  0  0
   59.1680   29.6755   46.6616 H   0  0  0  0  0  0  0  0  0  0  0  0
   57.2100   28.2362   46.0982 H   0  0  0  0  0  0  0  0  0  0  0  0
  1  2  1  0
  2  3  2  0
  3  4  1  0
  4  5  2  0
  5  6  1  0
  6  7  1  0
  7  8  1  0
  8  9  1  0
  9 10  2  0
 10 11  1  0
 11 12  2  0
 12 13  1  0
 13 14  1  0
 14 15  1  0
 15 16  2  0
 16 17  1  0
 17 18  1  0
 18 19  2  0
 19 20  1  0
 20 21  2  0
 21 22  1  0
 22 23  1  0
 22 24  2  0
 17 25  1  0
 25 26  2  0
 12 27  1  0
  5 28  1  0
 28 29  2  0
 29  2  1  0
 27  9  1  0
 26 15  1  0
 24 18  1  0
  3 30  1  0
  4 31  1  0
  6 32  1  0
  6 33  1  0
  7 34  1  0
  7 35  1  0
  8 36  1  0
  8 37  1  0
 14 38  1  0
 14 39  1  0
 16 40  1  0
 19 41  1  0
 20 42  1  0
 21 43  1  0
 24 44  1  0
 28 45  1  0
 29 46  1  0
M  CHG  2   1  -1  23  -1
M  END
>  <UniqueID>  (70) 
62

>  <SMILES>  (70) 
[O-]c1ccc(CCCc2nnc(SCc3cn(-c4cccc([O-])c4)nn3)o2)cc1

>  <Energy>  (70) 
112.19377807477761

>  <Genealogy>  (70) 
[O-]c1ccc(CCCc2nnc(SCc3cn(-c4cccc([O-])c4)nn3)o2)cc1 (protonated)
[O-]c1ccc(CCCc2nnc(SCc3cn(-c4cccc([O-])c4)nn3)o2)cc1 (3D coordinates assigned)
[O-]c1ccc(CCCc2nnc(SCc3cn(-c4cccc([O-])c4)nn3)o2)cc1 (optimized conformer: 112.19377807477761 kcal/mol)

>  <smiles>  (70) 
Oc1ccc(CCCc2nnc(SCc3cn(-c4cccc(O)c4)nn3)o2)cc1

>  <score_type>  (70) 
oracle

>  <origin>  (70) 
adg

>  <m_score__min__energy>  (70) 
-16.68

>  <m_primary>  (70) 
energy

$$$$
70:0
     RDKit          3D

 42 43  0  0  0  0  0  0  0  0999 V2000
   57.8000   32.2490   44.6340 C   0  0  0  0  0  0  0  0  0  0  0  0
   58.8700   31.9150   45.6640 C   0  0  0  0  0  0  0  0  0  0  0  0
   59.0540   33.2410   46.8480 S   0  0  0  0  0  0  0  0  0  0  0  0
   57.7340   33.9110   47.1080 O   0  0  0  0  0  0  0  0  0  0  0  0
   60.0120   34.2570   46.2970 O   0  0  0  0  0  0  0  0  0  0  0  0
   59.7000   32.6150   48.3300 N   0  0  0  0  0  0  0  0  0  0  0  0
   59.1330   32.7990   49.6350 C   0  0  0  0  0  0  0  0  0  0  0  0
   59.6560   33.8050   50.4550 C   0  0  0  0  0  0  0  0  0  0  0  0
   59.1350   34.0200   51.7320 C   0  0  0  0  0  0  0  0  0  0  0  0
   58.0860   33.2280   52.2050 C   0  0  0  0  0  0  0  0  0  0  0  0
   57.5550   32.2050   51.4000 C   0  0  0  0  0  0  0  0  0  0  0  0
   56.4570   31.3960   51.8510 N   0  0  0  0  0  0  0  0  0  0  0  0
   56.5880   30.3250   52.7980 C   0  0  0  0  0  0  0  0  0  0  0  0
   57.7250   29.9670   53.2100 O   0  0  0  0  0  0  0  0  0  0  0  0
   55.3750   29.5580   53.2360 C   0  0  0  0  0  0  0  0  0  0  0  0
   54.4010   29.3310   52.0710 C   0  0  0  0  0  0  0  0  0  0  0  0
   53.2890   30.3500   52.0640 C   0  0  0  0  0  0  0  0  0  0  0  0
   52.9540   31.0200   50.8760 C   0  0  0  0  0  0  0  0  0  0  0  0
   51.8980   31.9380   50.8590 C   0  0  0  0  0  0  0  0  0  0  0  0
   51.1700   32.1920   52.0240 C   0  0  0  0  0  0  0  0  0  0  0  0
   50.1260   33.1080   52.0060 O   0  0  0  0  0  0  0  0  0  0  0  0
   51.4930   31.5240   53.2090 C   0  0  0  0  0  0  0  0  0  0  0  0
   52.5450   30.6020   53.2300 C   0  0  0  0  0  0  0  0  0  0  0  0
   58.0700   32.0070   50.1100 C   0  0  0  0  0  0  0  0  0  0  0  0
   56.8724   32.5385   45.1496 H   0  0  0  0  0  0  0  0  0  0  0  0
   58.1448   33.0823   44.0041 H   0  0  0  0  0  0  0  0  0  0  0  0
   57.6096   31.3676   44.0041 H   0  0  0  0  0  0  0  0  0  0  0  0
   58.5835   30.9954   46.1952 H   0  0  0  0  0  0  0  0  0  0  0  0
   59.8281   31.7754   45.1419 H   0  0  0  0  0  0  0  0  0  0  0  0
   60.4838   34.4310   50.0906 H   0  0  0  0  0  0  0  0  0  0  0  0
   59.5516   34.8153   52.3676 H   0  0  0  0  0  0  0  0  0  0  0  0
   57.6745   33.4052   53.2096 H   0  0  0  0  0  0  0  0  0  0  0  0
   55.5360   31.5130   51.3710 H   0  0  0  0  0  0  0  0  0  0  0  0
   55.6929   28.5820   53.6313 H   0  0  0  0  0  0  0  0  0  0  0  0
   54.8570   30.1442   54.0093 H   0  0  0  0  0  0  0  0  0  0  0  0
   54.9558   29.4029   51.1239 H   0  0  0  0  0  0  0  0  0  0  0  0
   53.9509   28.3345   52.1908 H   0  0  0  0  0  0  0  0  0  0  0  0
   53.5236   30.8225   49.9559 H   0  0  0  0  0  0  0  0  0  0  0  0
   51.6405   32.4609   49.9261 H   0  0  0  0  0  0  0  0  0  0  0  0
   50.9192   31.7236   54.1260 H   0  0  0  0  0  0  0  0  0  0  0  0
   52.7909   30.0723   54.1622 H   0  0  0  0  0  0  0  0  0  0  0  0
   57.6400   31.2269   49.4646 H   0  0  0  0  0  0  0  0  0  0  0  0
  1  2  1  0
  2  3  1  0
  3  4  2  0
  3  5  2  0
  3  6  1  0
  6  7  1  0
  7  8  2  0
  8  9  1  0
  9 10  2  0
 10 11  1  0
 11 12  1  0
 12 13  1  0
 13 14  2  0
 13 15  1  0
 15 16  1  0
 16 17  1  0
 17 18  2  0
 18 19  1  0
 19 20  2  0
 20 21  1  0
 20 22  1  0
 22 23  2  0
 11 24  2  0
 24  7  1  0
 23 17  1  0
  1 25  1  0
  1 26  1  0
  1 27  1  0
  2 28  1  0
  2 29  1  0
  8 30  1  0
  9 31  1  0
 10 32  1  0
 12 33  1  0
 15 34  1  0
 15 35  1  0
 16 36  1  0
 16 37  1  0
 18 38  1  0
 19 39  1  0
 22 40  1  0
 23 41  1  0
 24 42  1  0
M  CHG  2   6  -1  21  -1
M  END
>  <UniqueID>  (71) 
63

>  <SMILES>  (71) 
CCS(=O)(=O)[N-]c1cccc(NC(=O)CCc2ccc([O-])cc2)c1

>  <Energy>  (71) 
35.07136728303205

>  <Genealogy>  (71) 
CCS(=O)(=O)[N-]c1cccc(NC(=O)CCc2ccc([O-])cc2)c1 (protonated)
CCS(=O)(=O)[N-]c1cccc(NC(=O)CCc2ccc([O-])cc2)c1 (3D coordinates assigned)
CCS(=O)(=O)[N-]c1cccc(NC(=O)CCc2ccc([O-])cc2)c1 (optimized conformer: 35.07136728303205 kcal/mol)

>  <smiles>  (71) 
CCS(=O)(=O)Nc1cccc(NC(=O)CCc2ccc(O)cc2)c1

>  <score_type>  (71) 
oracle

>  <origin>  (71) 
adg

>  <m_score__min__energy>  (71) 
-13.119999999999999

>  <m_primary>  (71) 
energy

$$$$
71:0
     RDKit          3D

 46 49  0  0  1  0  0  0  0  0999 V2000
   57.8400   34.9460   44.4870 F   0  0  0  0  0  0  0  0  0  0  0  0
   58.4210   34.0040   45.2800 C   0  0  0  0  0  0  0  0  0  0  0  0
   57.8450   32.8210   45.4650 N   0  0  0  0  0  0  0  0  0  0  0  0
   58.3850   31.8720   46.2360 C   0  0  0  0  0  0  0  0  0  0  0  0
   57.7600   30.7500   46.3630 N   0  0  0  0  0  0  0  0  0  0  0  0
   58.1820   29.6370   45.5960 C   0  0  0  0  0  0  0  0  0  0  0  0
   59.2160   28.8040   45.9790 C   0  0  0  0  0  0  0  0  0  0  0  0
   60.0620   29.1160   47.4800 Cl  0  0  0  0  0  0  0  0  0  0  0  0
   59.5360   27.7490   45.1470 C   0  0  0  0  0  0  0  0  0  0  0  0
   58.8620   27.5160   43.9720 C   0  0  0  0  0  0  0  0  0  0  0  0
   57.8180   28.3520   43.5780 C   0  0  0  0  0  0  0  0  0  0  0  0
   57.5060   29.3980   44.4100 C   0  0  0  0  0  0  0  0  0  0  0  0
   56.1800   30.4560   43.9070 Cl  0  0  0  0  0  0  0  0  0  0  0  0
   59.5920   32.1380   46.8630 C   0  0  0  0  0  0  0  0  0  0  0  0
   60.2180   33.3700   46.6870 C   0  0  0  0  0  0  0  0  0  0  0  0
   61.4410   33.5940   47.3420 N   0  0  0  0  0  0  0  0  0  0  0  0
   61.4000   33.8810   48.7680 C   0  0  0  0  0  0  0  0  0  0  0  0
   62.7780   34.0680   49.3410 C   0  0  0  0  0  0  0  0  0  0  0  0
   63.7220   33.0810   48.8990 N   0  0  0  0  0  0  0  0  0  0  0  0
   64.7480   32.5260   49.7120 C   0  0  0  0  0  0  0  0  0  0  0  0
   66.0240   33.0870   49.7480 C   0  0  0  0  0  0  0  0  0  0  0  0
   67.0340   32.5600   50.5340 C   0  0  0  0  0  0  0  0  0  0  0  0
   66.8170   31.4500   51.3230 C   0  0  0  0  0  0  0  0  0  0  0  0
   65.5690   30.8840   51.3020 C   0  0  0  0  0  0  0  0  0  0  0  0
   64.5550   31.4190   50.5060 C   0  0  0  0  0  0  0  0  0  0  0  0
   63.6150   32.6230   47.5190 C   0  0  0  0  0  0  0  0  0  0  0  0
   62.7400   33.5660   46.7160 C   0  0  0  0  0  0  0  0  0  0  0  0
   59.5910   34.2450   45.8950 N   0  0  0  0  0  0  0  0  0  0  0  0
   60.3559   27.0741   45.4337 H   0  0  0  0  0  0  0  0  0  0  0  0
   59.1483   26.6639   43.3380 H   0  0  0  0  0  0  0  0  0  0  0  0
   57.2682   28.1806   42.6408 H   0  0  0  0  0  0  0  0  0  0  0  0
   60.0575   31.3733   47.5021 H   0  0  0  0  0  0  0  0  0  0  0  0
   60.8196   34.8014   48.9292 H   0  0  0  0  0  0  0  0  0  0  0  0
   60.9326   33.0243   49.2754 H   0  0  0  0  0  0  0  0  0  0  0  0
   63.1470   35.0605   49.0429 H   0  0  0  0  0  0  0  0  0  0  0  0
   62.6905   33.9652   50.4327 H   0  0  0  0  0  0  0  0  0  0  0  0
   66.2342   33.9748   49.1335 H   0  0  0  0  0  0  0  0  0  0  0  0
   68.0264   33.0345   50.5292 H   0  0  0  0  0  0  0  0  0  0  0  0
   67.6195   31.0325   51.9489 H   0  0  0  0  0  0  0  0  0  0  0  0
   65.3640   29.9974   51.9199 H   0  0  0  0  0  0  0  0  0  0  0  0
   63.5657   30.9382   50.5137 H   0  0  0  0  0  0  0  0  0  0  0  0
   64.6184   32.5884   47.0696 H   0  0  0  0  0  0  0  0  0  0  0  0
   63.1622   31.6206   47.5096 H   0  0  0  0  0  0  0  0  0  0  0  0
   63.1779   34.5751   46.7152 H   0  0  0  0  0  0  0  0  0  0  0  0
   62.6594   33.2250   45.6733 H   0  0  0  0  0  0  0  0  0  0  0  0
   60.0160   35.1820   45.7300 H   0  0  0  0  0  0  0  0  0  0  0  0
  1  2  1  0
  2  3  2  0
  3  4  1  0
  4  5  2  0
  5  6  1  0
  6  7  2  0
  7  8  1  0
  7  9  1  0
  9 10  2  0
 10 11  1  0
 11 12  2  0
 12 13  1  0
  4 14  1  0
 14 15  2  0
 15 16  1  0
 16 17  1  0
 17 18  1  0
 18 19  1  0
 19 20  1  0
 20 21  2  0
 21 22  1  0
 22 23  2  0
 23 24  1  0
 24 25  2  0
 19 26  1  0
 26 27  1  0
 15 28  1  0
 28  2  1  0
 12  6  1  0
 27 16  1  0
 25 20  1  0
  9 29  1  0
 10 30  1  0
 11 31  1  0
 14 32  1  0
 17 33  1  0
 17 34  1  0
 18 35  1  0
 18 36  1  0
 21 37  1  0
 22 38  1  0
 23 39  1  0
 24 40  1  0
 25 41  1  0
 26 42  1  0
 26 43  1  0
 27 44  1  0
 27 45  1  0
 28 46  1  0
M  END
>  <smiles>  (72) 
Fc1nc(=Nc2c(Cl)cccc2Cl)cc(N2CCN(c3ccccc3)CC2)[nH]1

>  <score_type>  (72) 
oracle

>  <origin>  (72) 
adg

>  <m_score__min__energy>  (72) 
-8.2899999999999991

>  <m_primary>  (72) 
energy

$$$$
72:0
     RDKit          3D

 45 48  0  0  0  0  0  0  0  0999 V2000
   60.2700   22.5770   45.2370 C   0  0  0  0  0  0  0  0  0  0  0  0
   59.0150   21.9060   45.2940 O   0  0  0  0  0  0  0  0  0  0  0  0
   57.8930   22.2470   44.5190 C   0  0  0  0  0  0  0  0  0  0  0  0
   57.5260   21.5030   43.3790 C   0  0  0  0  0  0  0  0  0  0  0  0
   56.4080   21.8700   42.6250 C   0  0  0  0  0  0  0  0  0  0  0  0
   55.6410   22.9710   43.0020 C   0  0  0  0  0  0  0  0  0  0  0  0
   55.9910   23.7140   44.1300 C   0  0  0  0  0  0  0  0  0  0  0  0
   57.1230   23.3680   44.8870 C   0  0  0  0  0  0  0  0  0  0  0  0
   57.4650   24.1510   46.0900 C   0  0  0  0  0  0  0  0  0  0  0  0
   57.4540   23.6410   47.3530 N   0  0  0  0  0  0  0  0  0  0  0  0
   57.7580   24.6050   48.2220 N   0  0  0  0  0  0  0  0  0  0  0  0
   57.9470   25.7060   47.4840 C   0  0  0  0  0  0  0  0  0  0  0  0
   58.4180   27.2680   47.8280 S   0  0  0  0  0  0  0  0  0  0  0  0
   58.4170   27.7070   46.1680 C   0  0  0  0  0  0  0  0  0  0  0  0
   58.7620   29.0670   45.7080 C   0  0  0  0  0  0  0  0  0  0  0  0
   59.7670   29.2220   44.9620 O   0  0  0  0  0  0  0  0  0  0  0  0
   58.0200   30.2110   46.1540 N   0  0  0  0  0  0  0  0  0  0  0  0
   58.2100   31.5190   45.5910 C   0  0  0  0  0  0  0  0  0  0  0  0
   58.7500   32.5280   46.4030 C   0  0  0  0  0  0  0  0  0  0  0  0
   58.9690   33.8090   45.8910 C   0  0  0  0  0  0  0  0  0  0  0  0
   59.6650   35.0550   46.9120 Cl  0  0  0  0  0  0  0  0  0  0  0  0
   58.6390   34.0970   44.5660 C   0  0  0  0  0  0  0  0  0  0  0  0
   58.0750   33.1100   43.7550 C   0  0  0  0  0  0  0  0  0  0  0  0
   57.8310   31.8220   44.2600 C   0  0  0  0  0  0  0  0  0  0  0  0
   57.1790   30.8030   43.3660 C   0  0  0  0  0  0  0  0  0  0  0  0
   58.0830   26.5870   45.3630 C   0  0  0  0  0  0  0  0  0  0  0  0
   58.1370   26.5400   43.8650 C   0  0  0  0  0  0  0  0  0  0  0  0
   57.7940   25.4890   46.1760 C   0  0  0  0  0  0  0  0  0  0  0  0
   60.6297   22.7693   46.2586 H   0  0  0  0  0  0  0  0  0  0  0  0
   60.9983   21.9479   44.7042 H   0  0  0  0  0  0  0  0  0  0  0  0
   60.1513   23.5320   44.7042 H   0  0  0  0  0  0  0  0  0  0  0  0
   58.1232   20.6285   43.0813 H   0  0  0  0  0  0  0  0  0  0  0  0
   56.1329   21.2889   41.7324 H   0  0  0  0  0  0  0  0  0  0  0  0
   54.7586   23.2546   42.4095 H   0  0  0  0  0  0  0  0  0  0  0  0
   55.3767   24.5763   44.4286 H   0  0  0  0  0  0  0  0  0  0  0  0
   57.5240   30.1450   47.0710 H   0  0  0  0  0  0  0  0  0  0  0  0
   59.0028   32.3085   47.4508 H   0  0  0  0  0  0  0  0  0  0  0  0
   58.8234   35.1026   44.1600 H   0  0  0  0  0  0  0  0  0  0  0  0
   57.8194   33.3433   42.7109 H   0  0  0  0  0  0  0  0  0  0  0  0
   56.6879   30.0354   43.9821 H   0  0  0  0  0  0  0  0  0  0  0  0
   56.4296   31.2983   42.7311 H   0  0  0  0  0  0  0  0  0  0  0  0
   57.9427   30.3301   42.7311 H   0  0  0  0  0  0  0  0  0  0  0  0
   58.9316   25.8484   43.5483 H   0  0  0  0  0  0  0  0  0  0  0  0
   57.1699   26.1911   43.4740 H   0  0  0  0  0  0  0  0  0  0  0  0
   58.3491   27.5460   43.4740 H   0  0  0  0  0  0  0  0  0  0  0  0
  1  2  1  0
  2  3  1  0
  3  4  2  0
  4  5  1  0
  5  6  2  0
  6  7  1  0
  7  8  2  0
  8  9  1  0
  9 10  2  0
 10 11  1  0
 11 12  1  0
 12 13  1  0
 13 14  1  0
 14 15  1  0
 15 16  2  0
 15 17  1  0
 17 18  1  0
 18 19  2  0
 19 20  1  0
 20 21  1  0
 20 22  2  0
 22 23  1  0
 23 24  2  0
 24 25  1  0
 14 26  2  0
 26 27  1  0
 26 28  1  0
  8  3  1  0
 28  9  1  0
 28 12  2  0
 24 18  1  0
  1 29  1  0
  1 30  1  0
  1 31  1  0
  4 32  1  0
  5 33  1  0
  6 34  1  0
  7 35  1  0
 17 36  1  0
 19 37  1  0
 22 38  1  0
 23 39  1  0
 25 40  1  0
 25 41  1  0
 25 42  1  0
 27 43  1  0
 27 44  1  0
 27 45  1  0
M  CHG  1  11  -1
M  END
>  <UniqueID>  (73) 
64

>  <SMILES>  (73) 
COc1ccccc1-c1n[n-]c2sc(C(=O)Nc3cc(Cl)ccc3C)c(C)c12

>  <Energy>  (73) 
141.52855176086095

>  <Genealogy>  (73) 
COc1ccccc1-c1n[n-]c2sc(C(=O)Nc3cc(Cl)ccc3C)c(C)c12 (protonated)
COc1ccccc1-c1n[n-]c2sc(C(=O)Nc3cc(Cl)ccc3C)c(C)c12 (3D coordinates assigned)
COc1ccccc1-c1n[n-]c2sc(C(=O)Nc3cc(Cl)ccc3C)c(C)c12 (optimized conformer: 141.52855176086095 kcal/mol)

>  <smiles>  (73) 
COc1ccccc1-c1n[nH]c2sc(C(=O)Nc3cc(Cl)ccc3C)c(C)c12

>  <score_type>  (73) 
oracle

>  <origin>  (73) 
adg

>  <m_score__min__energy>  (73) 
-9.9900000000000002

>  <m_primary>  (73) 
energy

$$$$
73:0
     RDKit          3D

 40 42  0  0  0  0  0  0  0  0999 V2000
   57.7605   32.9378   43.1658 H   0  0  0  0  0  0  0  0  0  0  0  0
   57.6250   31.9770   43.6840 C   0  0  0  0  0  0  0  0  0  0  0  0
   58.1010   31.8130   44.9870 C   0  0  0  0  0  0  0  0  0  0  0  0
   58.6111   32.6452   45.4943 H   0  0  0  0  0  0  0  0  0  0  0  0
   57.9300   30.5930   45.6470 C   0  0  0  0  0  0  0  0  0  0  0  0
   58.3053   30.4690   46.6735 H   0  0  0  0  0  0  0  0  0  0  0  0
   57.2800   29.5220   45.0050 C   0  0  0  0  0  0  0  0  0  0  0  0
   57.1090   28.2190   45.6840 C   0  0  0  0  0  0  0  0  0  0  0  0
   55.9390   27.5360   45.5480 N   0  0  0  0  0  0  0  0  0  0  0  0
   55.7420   26.3340   46.1590 C   0  0  0  0  0  0  0  0  0  0  0  0
   54.6360   25.6720   45.9970 N   0  0  0  0  0  0  0  0  0  0  0  0
   54.4660   24.5070   45.1280 C   0  0  0  0  0  0  0  0  0  0  0  0
   54.4810   24.8367   44.0787 H   0  0  0  0  0  0  0  0  0  0  0  0
   53.5055   24.0286   45.3702 H   0  0  0  0  0  0  0  0  0  0  0  0
   55.5810   23.4900   45.3460 C   0  0  0  0  0  0  0  0  0  0  0  0
   55.5870   22.6710   46.5140 C   0  0  0  0  0  0  0  0  0  0  0  0
   54.5030   22.7520   47.5600 C   0  0  0  0  0  0  0  0  0  0  0  0
   54.9566   22.7181   48.5615 H   0  0  0  0  0  0  0  0  0  0  0  0
   53.9479   23.6941   47.4406 H   0  0  0  0  0  0  0  0  0  0  0  0
   53.8140   21.9028   47.4406 H   0  0  0  0  0  0  0  0  0  0  0  0
   56.6540   21.7870   46.7370 C   0  0  0  0  0  0  0  0  0  0  0  0
   56.6772   21.1838   47.6565 H   0  0  0  0  0  0  0  0  0  0  0  0
   57.6820   21.6650   45.8090 C   0  0  0  0  0  0  0  0  0  0  0  0
   58.5143   20.9720   46.0012 H   0  0  0  0  0  0  0  0  0  0  0  0
   57.6620   22.4150   44.6400 C   0  0  0  0  0  0  0  0  0  0  0  0
   58.4717   22.2977   43.9047 H   0  0  0  0  0  0  0  0  0  0  0  0
   56.6190   23.3220   44.3860 C   0  0  0  0  0  0  0  0  0  0  0  0
   56.6340   24.0730   43.0800 C   0  0  0  0  0  0  0  0  0  0  0  0
   56.6556   25.1546   43.2792 H   0  0  0  0  0  0  0  0  0  0  0  0
   57.5266   23.7884   42.5036 H   0  0  0  0  0  0  0  0  0  0  0  0
   55.7307   23.8243   42.5036 H   0  0  0  0  0  0  0  0  0  0  0  0
   56.7230   25.8070   46.9360 N   0  0  0  0  0  0  0  0  0  0  0  0
   57.9060   26.4510   47.1080 C   0  0  0  0  0  0  0  0  0  0  0  0
   58.7960   25.9410   47.8360 O   0  0  0  0  0  0  0  0  0  0  0  0
   58.1300   27.6750   46.4770 C   0  0  0  0  0  0  0  0  0  0  0  0
   59.0875   28.2025   46.5989 H   0  0  0  0  0  0  0  0  0  0  0  0
   56.8040   29.6990   43.6960 C   0  0  0  0  0  0  0  0  0  0  0  0
   56.2917   28.8710   43.1841 H   0  0  0  0  0  0  0  0  0  0  0  0
   56.9770   30.9210   43.0390 C   0  0  0  0  0  0  0  0  0  0  0  0
   56.6024   31.0509   42.0130 H   0  0  0  0  0  0  0  0  0  0  0  0
  1  2  1  0
  2  3  2  0
  3  4  1  0
  3  5  1  0
  5  6  1  0
  5  7  2  0
  7  8  1  0
  8  9  1  0
  9 10  1  0
 10 11  2  0
 11 12  1  0
 12 13  1  0
 12 14  1  0
 12 15  1  0
 15 16  2  0
 16 17  1  0
 17 18  1  0
 17 19  1  0
 17 20  1  0
 16 21  1  0
 21 22  1  0
 21 23  2  0
 23 24  1  0
 23 25  1  0
 25 26  1  0
 25 27  2  0
 27 28  1  0
 28 29  1  0
 28 30  1  0
 28 31  1  0
 10 32  1  0
 32 33  1  0
 33 34  2  0
 33 35  1  0
 35 36  1  0
  7 37  1  0
 37 38  1  0
 37 39  2  0
 39 40  1  0
 39  2  1  0
 35  8  2  0
 27 15  1  0
M  CHG  2   9  -1  32  -1
M  END
>  <UniqueID>  (74) 
65

>  <SMILES>  (74) 
Cc1cccc(C)c1C/N=c1\[n-]c(-c2ccccc2)cc(=O)[n-]1

>  <Energy>  (74) 
49.96266163416226

>  <Genealogy>  (74) 
Cc1cccc(C)c1CN=c1[n-]c(-c2ccccc2)cc(=O)[n-]1 (protonated)
Cc1cccc(C)c1C/N=c1\[n-]c(-c2ccccc2)cc(=O)[n-]1 (cis-trans isomerization)
Cc1cccc(C)c1C/N=c1\[n-]c(-c2ccccc2)cc(=O)[n-]1 (3D coordinates assigned)
Cc1cccc(C)c1C/N=c1\[n-]c(-c2ccccc2)cc(=O)[n-]1 (optimized conformer: 49.96266163416226 kcal/mol)

>  <smiles>  (74) 
Cc1cccc(C)c1CN=c1[nH]c(-c2ccccc2)cc(=O)[nH]1

>  <score_type>  (74) 
oracle

>  <origin>  (74) 
adg

>  <m_score__min__energy>  (74) 
-11.1

>  <m_primary>  (74) 
energy

$$$$
74:0
     RDKit          3D

 11 11  0  0  0  0  0  0  0  0999 V2000
   53.1790   22.4440   45.2550 O   0  0  0  0  0  0  0  0  0  0  0  0
   54.1450   23.2500   45.1980 C   0  0  0  0  0  0  0  0  0  0  0  0
   53.9900   24.5210   45.6580 N   0  0  0  0  0  0  0  0  0  0  0  0
   55.0040   25.4260   45.6160 C   0  0  0  0  0  0  0  0  0  0  0  0
   54.8040   26.7130   46.0960 O   0  0  0  0  0  0  0  0  0  0  0  0
   56.2480   25.0590   45.0910 C   0  0  0  0  0  0  0  0  0  0  0  0
   56.4310   23.7600   44.6140 C   0  0  0  0  0  0  0  0  0  0  0  0
   55.3740   22.8450   44.6650 C   0  0  0  0  0  0  0  0  0  0  0  0
   55.5510   21.5500   44.1900 O   0  0  0  0  0  0  0  0  0  0  0  0
   57.0726   25.7861   45.0546 H   0  0  0  0  0  0  0  0  0  0  0  0
   57.4036   23.4567   44.1992 H   0  0  0  0  0  0  0  0  0  0  0  0
  1  2  2  0
  2  3  1  0
  3  4  1  0
  4  5  1  0
  4  6  2  0
  6  7  1  0
  7  8  2  0
  8  9  1  0
  8  2  1  0
  6 10  1  0
  7 11  1  0
M  CHG  3   3  -1   5  -1   9  -1
M  END
>  <UniqueID>  (75) 
66

>  <SMILES>  (75) 
O=c1[n-]c([O-])ccc1[O-]

>  <Energy>  (75) 
11.06252843212998

>  <Genealogy>  (75) 
O=c1[n-]c([O-])ccc1[O-] (protonated)
O=c1[n-]c([O-])ccc1[O-] (3D coordinates assigned)
O=c1[n-]c([O-])ccc1[O-] (optimized conformer: 11.06252843212998 kcal/mol)

>  <smiles>  (75) 
O=c1[nH]c(O)ccc1O

>  <score_type>  (75) 
oracle

>  <origin>  (75) 
adg

>  <m_score__min__energy>  (75) 
-13.539999999999999

>  <m_primary>  (75) 
energy

$$$$
75:0
     RDKit          3D

 59 61  0  0  0  0  0  0  0  0999 V2000
   57.3710   31.9640   42.4900 C   0  0  0  0  0  0  0  0  0  0  0  0
   58.2670   31.0300   43.1620 N   0  0  0  0  0  0  0  0  0  0  0  0
   57.8630   30.3360   44.3530 C   0  0  0  0  0  0  0  0  0  0  0  0
   56.6990   30.5140   44.8080 O   0  0  0  0  0  0  0  0  0  0  0  0
   58.7830   29.3870   45.0980 C   0  0  2  0  0  0  0  0  0  0  0  0
   58.1470   28.0310   45.3480 C   0  0  0  0  0  0  0  0  0  0  0  0
   58.8670   26.8290   45.1910 C   0  0  0  0  0  0  0  0  0  0  0  0
   58.2290   25.5950   45.3450 C   0  0  0  0  0  0  0  0  0  0  0  0
   56.8660   25.5430   45.6490 C   0  0  0  0  0  0  0  0  0  0  0  0
   56.1370   26.7260   45.8010 C   0  0  0  0  0  0  0  0  0  0  0  0
   54.7780   26.6740   46.0930 O   0  0  0  0  0  0  0  0  0  0  0  0
   56.7710   27.9630   45.6500 C   0  0  0  0  0  0  0  0  0  0  0  0
   59.3410   29.9610   46.3410 N   0  0  0  0  0  0  0  0  0  0  0  0
   59.4840   31.4180   46.5280 C   0  0  0  0  0  0  0  0  0  0  0  0
   58.1450   32.0880   46.8680 C   0  0  0  0  0  0  0  0  0  0  0  0
   58.1590   33.5210   46.5140 N   0  0  0  0  0  0  0  0  0  0  0  0
   58.8480   34.3500   47.5380 C   0  0  0  0  0  0  0  0  0  0  0  0
   60.0440   35.1300   46.9660 C   0  0  0  0  0  0  0  0  0  0  0  0
   59.6640   35.9290   45.8580 O   0  0  0  0  0  0  0  0  0  0  0  0
   58.9290   35.2090   44.8680 C   0  0  0  0  0  0  0  0  0  0  0  0
   58.7060   33.7110   45.1560 C   0  0  0  0  0  0  0  0  0  0  0  0
   60.0520   29.0890   47.2350 C   0  0  0  0  0  0  0  0  0  0  0  0
   60.7320   28.1360   46.7660 O   0  0  0  0  0  0  0  0  0  0  0  0
   60.0730   29.3500   48.6820 C   0  0  0  0  0  0  0  0  0  0  0  0
   61.0610   29.9950   49.3160 C   0  0  0  0  0  0  0  0  0  0  0  0
   61.6810   31.2540   48.8520 C   0  0  0  0  0  0  0  0  0  0  0  0
   61.4840   32.4660   49.5420 C   0  0  0  0  0  0  0  0  0  0  0  0
   62.0970   33.6400   49.0950 C   0  0  0  0  0  0  0  0  0  0  0  0
   62.9450   33.6090   47.9840 C   0  0  0  0  0  0  0  0  0  0  0  0
   63.1770   32.4030   47.3140 C   0  0  0  0  0  0  0  0  0  0  0  0
   62.5610   31.2260   47.7570 C   0  0  0  0  0  0  0  0  0  0  0  0
   56.8149   32.5437   43.2415 H   0  0  0  0  0  0  0  0  0  0  0  0
   57.9593   32.6482   41.8608 H   0  0  0  0  0  0  0  0  0  0  0  0
   56.6630   31.4046   41.8608 H   0  0  0  0  0  0  0  0  0  0  0  0
   59.2100   30.8820   42.7460 H   0  0  0  0  0  0  0  0  0  0  0  0
   59.6354   29.2282   44.4212 H   0  0  0  0  0  0  0  0  0  0  0  0
   59.9387   26.8626   44.9455 H   0  0  0  0  0  0  0  0  0  0  0  0
   58.8009   24.6629   45.2267 H   0  0  0  0  0  0  0  0  0  0  0  0
   56.3664   24.5704   45.7688 H   0  0  0  0  0  0  0  0  0  0  0  0
   56.1919   28.8908   45.7677 H   0  0  0  0  0  0  0  0  0  0  0  0
   60.1923   31.6029   47.3490 H   0  0  0  0  0  0  0  0  0  0  0  0
   59.8490   31.8477   45.5835 H   0  0  0  0  0  0  0  0  0  0  0  0
   57.3413   31.5880   46.3076 H   0  0  0  0  0  0  0  0  0  0  0  0
   57.9766   31.9989   47.9514 H   0  0  0  0  0  0  0  0  0  0  0  0
   58.1257   35.0684   47.9529 H   0  0  0  0  0  0  0  0  0  0  0  0
   59.2351   33.6690   48.3103 H   0  0  0  0  0  0  0  0  0  0  0  0
   60.4542   35.7813   47.7518 H   0  0  0  0  0  0  0  0  0  0  0  0
   60.7968   34.4042   46.6248 H   0  0  0  0  0  0  0  0  0  0  0  0
   57.9420   35.6842   44.7683 H   0  0  0  0  0  0  0  0  0  0  0  0
   59.5394   35.2500   43.9538 H   0  0  0  0  0  0  0  0  0  0  0  0
   57.9978   33.3025   44.4201 H   0  0  0  0  0  0  0  0  0  0  0  0
   59.6710   33.1877   45.0849 H   0  0  0  0  0  0  0  0  0  0  0  0
   59.2231   28.9927   49.2820 H   0  0  0  0  0  0  0  0  0  0  0  0
   61.4388   29.5554   50.2509 H   0  0  0  0  0  0  0  0  0  0  0  0
   60.8447   32.4888   50.4369 H   0  0  0  0  0  0  0  0  0  0  0  0
   61.9119   34.5897   49.6182 H   0  0  0  0  0  0  0  0  0  0  0  0
   63.4300   34.5332   47.6365 H   0  0  0  0  0  0  0  0  0  0  0  0
   63.8434   32.3793   46.4391 H   0  0  0  0  0  0  0  0  0  0  0  0
   62.7672   30.2745   47.2450 H   0  0  0  0  0  0  0  0  0  0  0  0
  1  2  1  0
  2  3  1  0
  3  4  2  0
  3  5  1  0
  5  6  1  0
  6  7  2  0
  7  8  1  0
  8  9  2  0
  9 10  1  0
 10 11  1  0
 10 12  2  0
  5 13  1  0
 13 14  1  0
 14 15  1  0
 15 16  1  0
 16 17  1  0
 17 18  1  0
 18 19  1  0
 19 20  1  0
 20 21  1  0
 13 22  1  0
 22 23  2  0
 22 24  1  0
 24 25  2  3
 25 26  1  0
 26 27  2  0
 27 28  1  0
 28 29  2  0
 29 30  1  0
 30 31  2  0
 12  6  1  0
 21 16  1  0
 31 26  1  0
  1 32  1  0
  1 33  1  0
  1 34  1  0
  2 35  1  0
  5 36  1  6
  7 37  1  0
  8 38  1  0
  9 39  1  0
 12 40  1  0
 14 41  1  0
 14 42  1  0
 15 43  1  0
 15 44  1  0
 17 45  1  0
 17 46  1  0
 18 47  1  0
 18 48  1  0
 20 49  1  0
 20 50  1  0
 21 51  1  0
 21 52  1  0
 24 53  1  0
 25 54  1  0
 27 55  1  0
 28 56  1  0
 29 57  1  0
 30 58  1  0
 31 59  1  0
M  CHG  1  11  -1
M  END
>  <UniqueID>  (76) 
67

>  <SMILES>  (76) 
CNC(=O)[C@H](c1cccc([O-])c1)N(CCN1CCOCC1)C(=O)C=Cc1ccccc1

>  <Energy>  (76) 
87.74426386012502

>  <Genealogy>  (76) 
CNC(=O)C(c1cccc([O-])c1)N(CCN1CCOCC1)C(=O)C=Cc1ccccc1 (protonated)
CNC(=O)[C@H](c1cccc([O-])c1)N(CCN1CCOCC1)C(=O)C=Cc1ccccc1 (chirality)
CNC(=O)[C@H](c1cccc([O-])c1)N(CCN1CCOCC1)C(=O)C=Cc1ccccc1 (3D coordinates assigned)
CNC(=O)[C@H](c1cccc([O-])c1)N(CCN1CCOCC1)C(=O)C=Cc1ccccc1 (nonaromatic ring conformer: 87.74426386012502 kcal/mol)

>  <smiles>  (76) 
CNC(=O)C(c1cccc(O)c1)N(CCN1CCOCC1)C(=O)C=Cc1ccccc1

>  <score_type>  (76) 
oracle

>  <origin>  (76) 
adg

>  <m_score__min__energy>  (76) 
-12.91

>  <m_primary>  (76) 
energy

$$$$
76:0
     RDKit          3D

 41 43  0  0  0  0  0  0  0  0999 V2000
   63.8840   34.7100   52.3230 C   0  0  0  0  0  0  0  0  0  0  0  0
   63.1690   33.6110   51.7660 O   0  0  0  0  0  0  0  0  0  0  0  0
   62.3980   33.6750   50.5960 C   0  0  0  0  0  0  0  0  0  0  0  0
   60.9960   33.7950   50.6310 C   0  0  0  0  0  0  0  0  0  0  0  0
   60.2610   33.8560   49.4470 C   0  0  0  0  0  0  0  0  0  0  0  0
   60.9070   33.8010   48.2010 C   0  0  0  0  0  0  0  0  0  0  0  0
   60.1460   33.8670   46.9780 N   0  0  0  0  0  0  0  0  0  0  0  0
   59.8910   34.9740   46.2480 C   0  0  0  0  0  0  0  0  0  0  0  0
   59.1400   34.6500   45.1370 C   0  0  0  0  0  0  0  0  0  0  0  0
   58.9210   33.2850   45.2010 C   0  0  0  0  0  0  0  0  0  0  0  0
   58.2160   32.4440   44.2120 C   0  0  0  0  0  0  0  0  0  0  0  0
   58.1920   32.8160   43.0060 O   0  0  0  0  0  0  0  0  0  0  0  0
   57.5240   31.1890   44.5870 C   0  0  0  0  0  0  0  0  0  0  0  0
   58.1120   30.2800   45.4850 C   0  0  0  0  0  0  0  0  0  0  0  0
   57.4570   29.0920   45.8170 C   0  0  0  0  0  0  0  0  0  0  0  0
   56.2160   28.7900   45.2490 C   0  0  0  0  0  0  0  0  0  0  0  0
   55.5710   27.6060   45.5860 O   0  0  0  0  0  0  0  0  0  0  0  0
   55.6280   29.6780   44.3410 C   0  0  0  0  0  0  0  0  0  0  0  0
   54.3930   29.3690   43.7740 O   0  0  0  0  0  0  0  0  0  0  0  0
   56.2850   30.8720   44.0070 C   0  0  0  0  0  0  0  0  0  0  0  0
   59.5610   32.8310   46.3380 C   0  0  0  0  0  0  0  0  0  0  0  0
   62.3070   33.6800   48.1660 C   0  0  0  0  0  0  0  0  0  0  0  0
   63.0560   33.6170   49.3590 C   0  0  0  0  0  0  0  0  0  0  0  0
   64.4540   33.4960   49.3540 O   0  0  0  0  0  0  0  0  0  0  0  0
   65.1670   32.3410   49.7840 C   0  0  0  0  0  0  0  0  0  0  0  0
   63.8469   34.6530   53.4209 H   0  0  0  0  0  0  0  0  0  0  0  0
   64.9314   34.6730   51.9891 H   0  0  0  0  0  0  0  0  0  0  0  0
   63.4258   35.6526   51.9891 H   0  0  0  0  0  0  0  0  0  0  0  0
   60.4761   33.8410   51.5993 H   0  0  0  0  0  0  0  0  0  0  0  0
   59.1657   33.9480   49.4895 H   0  0  0  0  0  0  0  0  0  0  0  0
   60.2328   35.9881   46.5025 H   0  0  0  0  0  0  0  0  0  0  0  0
   58.7859   35.3391   44.3561 H   0  0  0  0  0  0  0  0  0  0  0  0
   59.0931   30.5060   45.9282 H   0  0  0  0  0  0  0  0  0  0  0  0
   57.9194   28.3915   46.5280 H   0  0  0  0  0  0  0  0  0  0  0  0
   53.8290   28.6000   44.1190 H   0  0  0  0  0  0  0  0  0  0  0  0
   55.8264   31.5645   43.2858 H   0  0  0  0  0  0  0  0  0  0  0  0
   59.5899   31.7833   46.6720 H   0  0  0  0  0  0  0  0  0  0  0  0
   62.8244   33.6339   47.1964 H   0  0  0  0  0  0  0  0  0  0  0  0
   65.1861   32.3101   50.8834 H   0  0  0  0  0  0  0  0  0  0  0  0
   64.6686   31.4385   49.4004 H   0  0  0  0  0  0  0  0  0  0  0  0
   66.1971   32.3821   49.4004 H   0  0  0  0  0  0  0  0  0  0  0  0
  1  2  1  0
  2  3  1  0
  3  4  2  0
  4  5  1  0
  5  6  2  0
  6  7  1  0
  7  8  1  0
  8  9  2  0
  9 10  1  0
 10 11  1  0
 11 12  2  0
 11 13  1  0
 13 14  2  0
 14 15  1  0
 15 16  2  0
 16 17  1  0
 16 18  1  0
 18 19  1  0
 18 20  2  0
 10 21  2  0
  6 22  1  0
 22 23  2  0
 23 24  1  0
 24 25  1  0
 23  3  1  0
 21  7  1  0
 20 13  1  0
  1 26  1  0
  1 27  1  0
  1 28  1  0
  4 29  1  0
  5 30  1  0
  8 31  1  0
  9 32  1  0
 14 33  1  0
 15 34  1  0
 19 35  1  0
 20 36  1  0
 21 37  1  0
 22 38  1  0
 25 39  1  0
 25 40  1  0
 25 41  1  0
M  CHG  1  17  -1
M  END
>  <UniqueID>  (77) 
68

>  <SMILES>  (77) 
COc1ccc(-n2ccc(C(=O)c3ccc([O-])c(O)c3)c2)cc1OC

>  <Energy>  (77) 
76.37589052911363

>  <Genealogy>  (77) 
COc1ccc(-n2ccc(C(=O)c3ccc([O-])c(O)c3)c2)cc1OC (protonated)
COc1ccc(-n2ccc(C(=O)c3ccc([O-])c(O)c3)c2)cc1OC (3D coordinates assigned)
COc1ccc(-n2ccc(C(=O)c3ccc([O-])c(O)c3)c2)cc1OC (optimized conformer: 76.37589052911363 kcal/mol)

>  <smiles>  (77) 
COc1ccc(-n2ccc(C(=O)c3ccc(O)c(O)c3)c2)cc1OC

>  <score_type>  (77) 
oracle

>  <origin>  (77) 
adg

>  <m_score__min__energy>  (77) 
-10.77

>  <m_primary>  (77) 
energy

$$$$
77:0
     RDKit          3D

 93100  0  0  0  0  0  0  0  0999 V2000
   55.4400   26.7140   46.7480 O   0  0  0  0  0  0  0  0  0  0  0  0
   55.8430   26.0780   45.7350 C   0  0  0  0  0  0  0  0  0  0  0  0
   55.0070   25.0680   45.1610 N   0  0  0  0  0  0  0  0  0  0  0  0
   54.1560   24.1840   45.9460 C   0  0  0  0  0  0  0  0  0  0  0  0
   55.0070   23.1730   46.6630 C   0  0  0  0  0  0  0  0  0  0  0  0
   55.7530   23.5400   47.7940 C   0  0  0  0  0  0  0  0  0  0  0  0
   56.5790   22.6050   48.4270 C   0  0  0  0  0  0  0  0  0  0  0  0
   56.6710   21.3020   47.9300 C   0  0  0  0  0  0  0  0  0  0  0  0
   55.9400   20.9320   46.7980 C   0  0  0  0  0  0  0  0  0  0  0  0
   55.1120   21.8630   46.1630 C   0  0  0  0  0  0  0  0  0  0  0  0
   57.2370   26.3100   45.1910 C   0  0  2  0  0  0  0  0  0  0  0  0
   58.1600   25.1560   45.5790 C   0  0  0  0  0  0  0  0  0  0  0  0
   58.1740   23.8650   44.8200 C   0  0  0  0  0  0  0  0  0  0  0  0
   57.1060   23.4770   43.9800 C   0  0  0  0  0  0  0  0  0  0  0  0
   57.1580   22.2760   43.2660 C   0  0  0  0  0  0  0  0  0  0  0  0
   58.2700   21.4400   43.3760 C   0  0  0  0  0  0  0  0  0  0  0  0
   59.3320   21.8030   44.2030 C   0  0  0  0  0  0  0  0  0  0  0  0
   59.2890   23.0030   44.9200 C   0  0  0  0  0  0  0  0  0  0  0  0
   58.9230   25.2670   46.6290 N   0  0  0  0  0  0  0  0  0  0  0  0
   59.0780   26.4760   47.3750 C   0  0  0  0  0  0  0  0  0  0  0  0
   59.8660   26.4790   48.5290 C   0  0  0  0  0  0  0  0  0  0  0  0
   60.1580   27.6810   49.1780 C   0  0  0  0  0  0  0  0  0  0  0  0
   59.6840   28.8960   48.6640 C   0  0  0  0  0  0  0  0  0  0  0  0
   60.0920   30.1300   49.2780 N   0  0  0  0  0  0  0  0  0  0  0  0
   59.5460   30.6150   50.5120 C   0  0  0  0  0  0  0  0  0  0  0  0
   59.3260   29.8130   51.4620 O   0  0  0  0  0  0  0  0  0  0  0  0
   59.2510   32.0830   50.6720 C   0  0  1  0  0  0  0  0  0  0  0  0
   57.7870   32.3080   51.0980 C   0  0  0  0  0  0  0  0  0  0  0  0
   57.8610   33.2810   52.2510 C   0  0  0  0  0  0  0  0  0  0  0  0
   59.2230   32.9700   52.8510 C   0  0  2  0  0  0  0  0  0  0  0  0
   59.7590   33.9600   53.8810 C   0  0  0  0  0  0  0  0  0  0  0  0
   61.0250   33.7180   54.4500 C   0  0  0  0  0  0  0  0  0  0  0  0
   61.5820   34.6190   55.3630 C   0  0  0  0  0  0  0  0  0  0  0  0
   60.8840   35.7720   55.7240 C   0  0  0  0  0  0  0  0  0  0  0  0
   59.6270   36.0270   55.1710 C   0  0  0  0  0  0  0  0  0  0  0  0
   59.0670   35.1330   54.2520 C   0  0  0  0  0  0  0  0  0  0  0  0
   60.1290   32.6690   51.7180 N   0  0  0  0  0  0  0  0  0  0  0  0
   60.8780   33.8380   51.1890 C   0  0  0  0  0  0  0  0  0  0  0  0
   61.0760   33.7340   49.6980 C   0  0  0  0  0  0  0  0  0  0  0  0
   60.1680   34.3440   48.8140 C   0  0  0  0  0  0  0  0  0  0  0  0
   60.3470   34.2320   47.4320 C   0  0  0  0  0  0  0  0  0  0  0  0
   61.4410   33.5260   46.9230 C   0  0  0  0  0  0  0  0  0  0  0  0
   62.3620   32.9410   47.7950 C   0  0  0  0  0  0  0  0  0  0  0  0
   62.1880   33.0520   49.1770 C   0  0  0  0  0  0  0  0  0  0  0  0
   58.8950   28.8860   47.4970 C   0  0  0  0  0  0  0  0  0  0  0  0
   58.5580   27.6720   46.8650 C   0  0  0  0  0  0  0  0  0  0  0  0
   57.7630   27.6120   45.6580 N   0  0  0  0  0  0  0  0  0  0  0  0
   57.3950   28.8030   44.9310 C   0  0  0  0  0  0  0  0  0  0  0  0
   56.0470   29.0740   44.6360 C   0  0  0  0  0  0  0  0  0  0  0  0
   55.7000   30.2090   43.8960 C   0  0  0  0  0  0  0  0  0  0  0  0
   56.6960   31.0780   43.4410 C   0  0  0  0  0  0  0  0  0  0  0  0
   58.0390   30.8110   43.7220 C   0  0  0  0  0  0  0  0  0  0  0  0
   58.3890   29.6770   44.4640 C   0  0  0  0  0  0  0  0  0  0  0  0
   53.5924   24.7763   46.6819 H   0  0  0  0  0  0  0  0  0  0  0  0
   53.4540   23.6635   45.2780 H   0  0  0  0  0  0  0  0  0  0  0  0
   55.6879   24.5665   48.1840 H   0  0  0  0  0  0  0  0  0  0  0  0
   57.1567   22.8957   49.3168 H   0  0  0  0  0  0  0  0  0  0  0  0
   57.3192   20.5674   48.4302 H   0  0  0  0  0  0  0  0  0  0  0  0
   56.0160   19.9071   46.4059 H   0  0  0  0  0  0  0  0  0  0  0  0
   54.5411   21.5696   45.2697 H   0  0  0  0  0  0  0  0  0  0  0  0
   57.1909   26.3440   44.0925 H   0  0  0  0  0  0  0  0  0  0  0  0
   56.2237   24.1272   43.8868 H   0  0  0  0  0  0  0  0  0  0  0  0
   56.3191   21.9889   42.6150 H   0  0  0  0  0  0  0  0  0  0  0  0
   58.3085   20.4967   42.8114 H   0  0  0  0  0  0  0  0  0  0  0  0
   60.2074   21.1429   44.2920 H   0  0  0  0  0  0  0  0  0  0  0  0
   60.1330   23.2789   45.5693 H   0  0  0  0  0  0  0  0  0  0  0  0
   60.2577   25.5316   48.9277 H   0  0  0  0  0  0  0  0  0  0  0  0
   60.7628   27.6741   50.0968 H   0  0  0  0  0  0  0  0  0  0  0  0
   60.7390   30.7600   48.7520 H   0  0  0  0  0  0  0  0  0  0  0  0
   59.4324   32.5660   49.7005 H   0  0  0  0  0  0  0  0  0  0  0  0
   57.2041   32.7349   50.2685 H   0  0  0  0  0  0  0  0  0  0  0  0
   57.2898   31.3685   51.3812 H   0  0  0  0  0  0  0  0  0  0  0  0
   57.8095   34.3215   51.8980 H   0  0  0  0  0  0  0  0  0  0  0  0
   57.0314   33.1801   52.9662 H   0  0  0  0  0  0  0  0  0  0  0  0
   59.1324   32.0908   53.5059 H   0  0  0  0  0  0  0  0  0  0  0  0
   61.5814   32.8104   54.1730 H   0  0  0  0  0  0  0  0  0  0  0  0
   62.5724   34.4183   55.7975 H   0  0  0  0  0  0  0  0  0  0  0  0
   61.3231   36.4792   56.4431 H   0  0  0  0  0  0  0  0  0  0  0  0
   59.0753   36.9340   55.4591 H   0  0  0  0  0  0  0  0  0  0  0  0
   58.0801   35.3458   53.8153 H   0  0  0  0  0  0  0  0  0  0  0  0
   60.3139   34.7556   51.4122 H   0  0  0  0  0  0  0  0  0  0  0  0
   61.8673   33.8622   51.6693 H   0  0  0  0  0  0  0  0  0  0  0  0
   59.3136   34.9115   49.2115 H   0  0  0  0  0  0  0  0  0  0  0  0
   59.6266   34.6997   46.7447 H   0  0  0  0  0  0  0  0  0  0  0  0
   61.5765   33.4312   45.8355 H   0  0  0  0  0  0  0  0  0  0  0  0
   63.2261   32.3918   47.3930 H   0  0  0  0  0  0  0  0  0  0  0  0
   62.9248   32.6035   49.8597 H   0  0  0  0  0  0  0  0  0  0  0  0
   58.5378   29.8366   47.0741 H   0  0  0  0  0  0  0  0  0  0  0  0
   55.2614   28.3898   44.9891 H   0  0  0  0  0  0  0  0  0  0  0  0
   54.6435   30.4178   43.6721 H   0  0  0  0  0  0  0  0  0  0  0  0
   56.4228   31.9722   42.8616 H   0  0  0  0  0  0  0  0  0  0  0  0
   58.8220   31.4932   43.3594 H   0  0  0  0  0  0  0  0  0  0  0  0
   59.4471   29.4700   44.6820 H   0  0  0  0  0  0  0  0  0  0  0  0
  1  2  2  0
  2  3  1  0
  3  4  1  0
  4  5  1  0
  5  6  2  0
  6  7  1  0
  7  8  2  0
  8  9  1  0
  9 10  2  0
  2 11  1  0
 11 12  1  0
 12 13  1  0
 13 14  2  0
 14 15  1  0
 15 16  2  0
 16 17  1  0
 17 18  2  0
 12 19  2  0
 19 20  1  0
 20 21  2  0
 21 22  1  0
 22 23  2  0
 23 24  1  0
 24 25  1  0
 25 26  2  0
 25 27  1  0
 27 28  1  0
 28 29  1  0
 29 30  1  0
 30 31  1  0
 31 32  2  0
 32 33  1  0
 33 34  2  0
 34 35  1  0
 35 36  2  0
 30 37  1  0
 37 38  1  0
 38 39  1  0
 39 40  2  0
 40 41  1  0
 41 42  2  0
 42 43  1  0
 43 44  2  0
 23 45  1  0
 45 46  2  0
 46 47  1  0
 47 48  1  0
 48 49  2  0
 49 50  1  0
 50 51  2  0
 51 52  1  0
 52 53  2  0
 10  5  1  0
 47 11  1  0
 53 48  1  0
 18 13  1  0
 46 20  1  0
 37 27  1  0
 44 39  1  0
 36 31  1  0
  4 54  1  0
  4 55  1  0
  6 56  1  0
  7 57  1  0
  8 58  1  0
  9 59  1  0
 10 60  1  0
 11 61  1  6
 14 62  1  0
 15 63  1  0
 16 64  1  0
 17 65  1  0
 18 66  1  0
 21 67  1  0
 22 68  1  0
 24 69  1  0
 27 70  1  6
 28 71  1  0
 28 72  1  0
 29 73  1  0
 29 74  1  0
 30 75  1  1
 32 76  1  0
 33 77  1  0
 34 78  1  0
 35 79  1  0
 36 80  1  0
 38 81  1  0
 38 82  1  0
 40 83  1  0
 41 84  1  0
 42 85  1  0
 43 86  1  0
 44 87  1  0
 45 88  1  0
 49 89  1  0
 50 90  1  0
 51 91  1  0
 52 92  1  0
 53 93  1  0
M  CHG  1   3  -1
M  END
>  <UniqueID>  (78) 
69

>  <SMILES>  (78) 
O=C([N-]Cc1ccccc1)[C@@H]1C(c2ccccc2)=Nc2ccc(NC(=O)[C@H]3CCC(c4ccccc4)N3Cc3ccccc3)cc2N1c1ccccc1

>  <Energy>  (78) 
131.39219402780782

>  <Genealogy>  (78) 
O=C([N-]Cc1ccccc1)C1C(c2ccccc2)=Nc2ccc(NC(=O)C3CCC(c4ccccc4)N3Cc3ccccc3)cc2N1c1ccccc1 (protonated)
O=C([N-]Cc1ccccc1)[C@@H]1C(c2ccccc2)=Nc2ccc(NC(=O)[C@H]3CCC(c4ccccc4)N3Cc3ccccc3)cc2N1c1ccccc1 (chirality)
O=C([N-]Cc1ccccc1)[C@@H]1C(c2ccccc2)=Nc2ccc(NC(=O)[C@H]3CCC(c4ccccc4)N3Cc3ccccc3)cc2N1c1ccccc1 (3D coordinates assigned)
O=C([N-]Cc1ccccc1)[C@@H]1C(c2ccccc2)=Nc2ccc(NC(=O)[C@H]3CCC(c4ccccc4)N3Cc3ccccc3)cc2N1c1ccccc1 (nonaromatic ring conformer: 131.39219402780782 kcal/mol)

>  <smiles>  (78) 
O=C(NCc1ccccc1)C1C(c2ccccc2)=Nc2ccc(NC(=O)C3CCC(c4ccccc4)N3Cc3ccccc3)cc2N1c1ccccc1

>  <score_type>  (78) 
oracle

>  <origin>  (78) 
adg

>  <m_score__min__energy>  (78) 
-13.76

>  <m_primary>  (78) 
energy

$$$$
78:0
     RDKit          3D

 54 56  0  0  0  0  0  0  0  0999 V2000
   60.0140   28.2990   48.5110 C   0  0  0  0  0  0  0  0  0  0  0  0
   59.5720   29.2170   47.4030 C   0  0  0  0  0  0  0  0  0  0  0  0
   58.4270   28.8910   46.6600 C   0  0  0  0  0  0  0  0  0  0  0  0
   58.0000   29.7120   45.6110 C   0  0  0  0  0  0  0  0  0  0  0  0
   56.5970   29.2680   44.6440 S   0  0  0  0  0  0  0  0  0  0  0  0
   57.1100   28.8600   43.0430 N   0  0  0  0  0  0  0  0  0  0  0  0
   55.8970   28.0890   45.2600 O   0  0  0  0  0  0  0  0  0  0  0  0
   55.6370   30.4240   44.5850 O   0  0  0  0  0  0  0  0  0  0  0  0
   58.7240   30.8650   45.2980 C   0  0  0  0  0  0  0  0  0  0  0  0
   59.8760   31.1910   46.0150 C   0  0  0  0  0  0  0  0  0  0  0  0
   60.3200   30.3660   47.0640 C   0  0  0  0  0  0  0  0  0  0  0  0
   61.5710   30.6150   47.7280 N   0  0  0  0  0  0  0  0  0  0  0  0
   62.3300   31.8290   47.7280 C   0  0  0  0  0  0  0  0  0  0  0  0
   62.5830   32.4350   46.6550 O   0  0  0  0  0  0  0  0  0  0  0  0
   62.6940   32.4410   49.0150 C   0  0  0  0  0  0  0  0  0  0  0  0
   64.0030   32.2800   49.4960 C   0  0  0  0  0  0  0  0  0  0  0  0
   64.4100   32.9220   50.6680 C   0  0  0  0  0  0  0  0  0  0  0  0
   63.5120   33.7260   51.3720 C   0  0  0  0  0  0  0  0  0  0  0  0
   62.2000   33.8770   50.9140 C   0  0  0  0  0  0  0  0  0  0  0  0
   61.7780   33.2360   49.7390 C   0  0  0  0  0  0  0  0  0  0  0  0
   60.3910   33.2940   49.3660 N   0  0  0  0  0  0  0  0  0  0  0  0
   59.8250   34.5690   48.9000 C   0  0  0  0  0  0  0  0  0  0  0  0
   59.2470   34.4260   47.5170 C   0  0  0  0  0  0  0  0  0  0  0  0
   57.9880   33.8300   47.3210 C   0  0  0  0  0  0  0  0  0  0  0  0
   57.4990   33.6310   46.0260 C   0  0  0  0  0  0  0  0  0  0  0  0
   58.2580   34.0260   44.9200 C   0  0  0  0  0  0  0  0  0  0  0  0
   59.5030   34.6330   45.1080 C   0  0  0  0  0  0  0  0  0  0  0  0
   59.9920   34.8390   46.4010 C   0  0  0  0  0  0  0  0  0  0  0  0
   59.3320   32.0990   50.0650 S   0  0  0  0  0  0  0  0  0  0  0  0
   60.2660   30.7940   50.8340 C   0  0  0  0  0  0  0  0  0  0  0  0
   58.4490   31.5230   48.9940 O   0  0  0  0  0  0  0  0  0  0  0  0
   58.4540   32.7430   51.1040 O   0  0  0  0  0  0  0  0  0  0  0  0
   59.7905   28.7632   49.4829 H   0  0  0  0  0  0  0  0  0  0  0  0
   59.4780   27.3418   48.4299 H   0  0  0  0  0  0  0  0  0  0  0  0
   61.0965   28.1211   48.4299 H   0  0  0  0  0  0  0  0  0  0  0  0
   57.8597   27.9809   46.9049 H   0  0  0  0  0  0  0  0  0  0  0  0
   56.9880   27.8280   42.9370 H   0  0  0  0  0  0  0  0  0  0  0  0
   58.1370   29.0410   42.9980 H   0  0  0  0  0  0  0  0  0  0  0  0
   58.3842   31.5195   44.4819 H   0  0  0  0  0  0  0  0  0  0  0  0
   60.4406   32.0994   45.7580 H   0  0  0  0  0  0  0  0  0  0  0  0
   64.7128   31.6442   48.9465 H   0  0  0  0  0  0  0  0  0  0  0  0
   65.4386   32.7939   51.0363 H   0  0  0  0  0  0  0  0  0  0  0  0
   63.8371   34.2412   52.2879 H   0  0  0  0  0  0  0  0  0  0  0  0
   61.4932   34.5028   51.4786 H   0  0  0  0  0  0  0  0  0  0  0  0
   59.0301   34.8846   49.5918 H   0  0  0  0  0  0  0  0  0  0  0  0
   60.6280   35.3201   48.8697 H   0  0  0  0  0  0  0  0  0  0  0  0
   57.3867   33.5198   48.1883 H   0  0  0  0  0  0  0  0  0  0  0  0
   56.5149   33.1626   45.8771 H   0  0  0  0  0  0  0  0  0  0  0  0
   57.8754   33.8591   43.9023 H   0  0  0  0  0  0  0  0  0  0  0  0
   60.0979   34.9486   44.2383 H   0  0  0  0  0  0  0  0  0  0  0  0
   60.9668   35.3278   46.5452 H   0  0  0  0  0  0  0  0  0  0  0  0
   60.1976   30.8896   51.9277 H   0  0  0  0  0  0  0  0  0  0  0  0
   59.8585   29.8202   50.5248 H   0  0  0  0  0  0  0  0  0  0  0  0
   61.3192   30.8656   50.5248 H   0  0  0  0  0  0  0  0  0  0  0  0
  1  2  1  0
  2  3  2  0
  3  4  1  0
  4  5  1  0
  5  6  1  0
  5  7  2  0
  5  8  2  0
  4  9  2  0
  9 10  1  0
 10 11  2  0
 11 12  1  0
 12 13  1  0
 13 14  2  0
 13 15  1  0
 15 16  2  0
 16 17  1  0
 17 18  2  0
 18 19  1  0
 19 20  2  0
 20 21  1  0
 21 22  1  0
 22 23  1  0
 23 24  2  0
 24 25  1  0
 25 26  2  0
 26 27  1  0
 27 28  2  0
 21 29  1  0
 29 30  1  0
 29 31  2  0
 29 32  2  0
 11  2  1  0
 20 15  1  0
 28 23  1  0
  1 33  1  0
  1 34  1  0
  1 35  1  0
  3 36  1  0
  6 37  1  0
  6 38  1  0
  9 39  1  0
 10 40  1  0
 16 41  1  0
 17 42  1  0
 18 43  1  0
 19 44  1  0
 22 45  1  0
 22 46  1  0
 24 47  1  0
 25 48  1  0
 26 49  1  0
 27 50  1  0
 28 51  1  0
 30 52  1  0
 30 53  1  0
 30 54  1  0
M  CHG  1  12  -1
M  END
>  <UniqueID>  (79) 
70

>  <SMILES>  (79) 
Cc1cc(S(N)(=O)=O)ccc1[N-]C(=O)c1ccccc1N(Cc1ccccc1)S(C)(=O)=O

>  <Energy>  (79) 
62.672472307728505

>  <Genealogy>  (79) 
Cc1cc(S(N)(=O)=O)ccc1[N-]C(=O)c1ccccc1N(Cc1ccccc1)S(C)(=O)=O (protonated)
Cc1cc(S(N)(=O)=O)ccc1[N-]C(=O)c1ccccc1N(Cc1ccccc1)S(C)(=O)=O (3D coordinates assigned)
Cc1cc(S(N)(=O)=O)ccc1[N-]C(=O)c1ccccc1N(Cc1ccccc1)S(C)(=O)=O (optimized conformer: 62.672472307728505 kcal/mol)

>  <smiles>  (79) 
Cc1cc(S(N)(=O)=O)ccc1NC(=O)c1ccccc1N(Cc1ccccc1)S(C)(=O)=O

>  <score_type>  (79) 
oracle

>  <origin>  (79) 
adg

>  <m_score__min__energy>  (79) 
-10.66

>  <m_primary>  (79) 
energy

$$$$
79:0
     RDKit          3D

 29 31  0  0  0  0  0  0  0  0999 V2000
   54.6980   27.1030   46.0000 H   0  0  0  0  0  0  0  0  0  0  0  0
   54.4040   26.1670   45.7620 O   0  0  0  0  0  0  0  0  0  0  0  0
   55.2930   25.1060   45.5980 C   0  0  0  0  0  0  0  0  0  0  0  0
   54.8680   23.8780   45.2170 N   0  0  0  0  0  0  0  0  0  0  0  0
   55.9850   23.1310   45.1730 C   0  0  0  0  0  0  0  0  0  0  0  0
   56.0670   21.7830   44.8310 C   0  0  0  0  0  0  0  0  0  0  0  0
   55.1664   21.2125   44.5600 H   0  0  0  0  0  0  0  0  0  0  0  0
   57.3340   21.1720   44.8420 C   0  0  0  0  0  0  0  0  0  0  0  0
   57.4313   20.1094   44.5748 H   0  0  0  0  0  0  0  0  0  0  0  0
   58.4810   21.9150   45.1940 C   0  0  0  0  0  0  0  0  0  0  0  0
   59.4672   21.4278   45.2002 H   0  0  0  0  0  0  0  0  0  0  0  0
   58.3710   23.2750   45.5370 C   0  0  0  0  0  0  0  0  0  0  0  0
   59.2583   23.8636   45.8132 H   0  0  0  0  0  0  0  0  0  0  0  0
   57.1000   23.8550   45.5160 C   0  0  0  0  0  0  0  0  0  0  0  0
   56.6820   25.1390   45.7950 C   0  0  0  0  0  0  0  0  0  0  0  0
   57.5510   26.2610   46.2040 C   0  0  0  0  0  0  0  0  0  0  0  0
   58.6063   26.0665   46.4460 H   0  0  0  0  0  0  0  0  0  0  0  0
   57.0920   27.4720   46.2830 N   0  0  0  0  0  0  0  0  0  0  0  0
   57.4870   28.5950   45.4730 C   0  0  0  0  0  0  0  0  0  0  0  0
   58.8330   28.9960   45.3360 C   0  0  0  0  0  0  0  0  0  0  0  0
   59.6265   28.4366   45.8531 H   0  0  0  0  0  0  0  0  0  0  0  0
   59.1620   30.1010   44.5460 C   0  0  0  0  0  0  0  0  0  0  0  0
   60.2139   30.4039   44.4372 H   0  0  0  0  0  0  0  0  0  0  0  0
   58.1580   30.8220   43.8940 C   0  0  0  0  0  0  0  0  0  0  0  0
   58.4200   31.6886   43.2692 H   0  0  0  0  0  0  0  0  0  0  0  0
   56.8230   30.4420   44.0360 C   0  0  0  0  0  0  0  0  0  0  0  0
   56.0330   31.0132   43.5264 H   0  0  0  0  0  0  0  0  0  0  0  0
   56.4860   29.3360   44.8250 C   0  0  0  0  0  0  0  0  0  0  0  0
   55.1500   28.9730   44.9590 O   0  0  0  0  0  0  0  0  0  0  0  0
  1  2  1  0
  2  3  1  0
  3  4  1  0
  4  5  1  0
  5  6  2  0
  6  7  1  0
  6  8  1  0
  8  9  1  0
  8 10  2  0
 10 11  1  0
 10 12  1  0
 12 13  1  0
 12 14  2  0
 14 15  1  0
 15 16  1  0
 16 17  1  0
 16 18  2  0
 18 19  1  0
 19 20  2  0
 20 21  1  0
 20 22  1  0
 22 23  1  0
 22 24  2  0
 24 25  1  0
 24 26  1  0
 26 27  1  0
 26 28  2  0
 28 29  1  0
 15  3  2  0
 28 19  1  0
 14  5  1  0
M  CHG  2   4  -1  29  -1
M  END
>  <UniqueID>  (80) 
71

>  <SMILES>  (80) 
[O-]c1ccccc1/N=C/c1c(O)[n-]c2ccccc12

>  <Energy>  (80) 
68.60876316819193

>  <Genealogy>  (80) 
[O-]c1ccccc1N=Cc1c(O)[n-]c2ccccc12 (protonated)
[O-]c1ccccc1/N=C/c1c(O)[n-]c2ccccc12 (cis-trans isomerization)
[O-]c1ccccc1/N=C/c1c(O)[n-]c2ccccc12 (3D coordinates assigned)
[O-]c1ccccc1/N=C/c1c(O)[n-]c2ccccc12 (optimized conformer: 68.60876316819193 kcal/mol)

>  <smiles>  (80) 
Oc1ccccc1N=Cc1c(O)[nH]c2ccccc12

>  <score_type>  (80) 
oracle

>  <origin>  (80) 
adg

>  <m_score__min__energy>  (80) 
-13.539999999999999

>  <m_primary>  (80) 
energy

$$$$
80:0
     RDKit          3D

 53 56  0  0  0  0  0  0  0  0999 V2000
   57.2860   20.6890   45.4800 C   0  0  0  0  0  0  0  0  0  0  0  0
   57.9520   21.9940   45.4320 N   0  0  0  0  0  0  0  0  0  0  0  0
   59.1170   22.1950   44.5630 C   0  0  0  0  0  0  0  0  0  0  0  0
   57.5480   23.0210   46.3600 C   0  0  0  0  0  0  0  0  0  0  0  0
   57.0280   22.6930   47.4620 O   0  0  0  0  0  0  0  0  0  0  0  0
   57.7360   24.4570   46.0620 C   0  0  0  0  0  0  0  0  0  0  0  0
   58.1400   25.3490   47.0680 C   0  0  0  0  0  0  0  0  0  0  0  0
   58.3310   26.7030   46.7750 C   0  0  0  0  0  0  0  0  0  0  0  0
   58.1210   27.1870   45.4760 C   0  0  0  0  0  0  0  0  0  0  0  0
   58.3450   28.5800   45.2000 N   0  0  0  0  0  0  0  0  0  0  0  0
   57.2890   29.5470   45.0410 C   0  0  0  0  0  0  0  0  0  0  0  0
   56.0870   29.2010   45.2030 O   0  0  0  0  0  0  0  0  0  0  0  0
   57.5870   30.9600   44.7070 C   0  0  0  0  0  0  0  0  0  0  0  0
   57.7700   31.3730   43.3760 C   0  0  0  0  0  0  0  0  0  0  0  0
   58.0610   32.7080   43.0850 C   0  0  0  0  0  0  0  0  0  0  0  0
   58.1930   33.6390   44.1170 C   0  0  0  0  0  0  0  0  0  0  0  0
   58.0510   33.2420   45.4500 C   0  0  0  0  0  0  0  0  0  0  0  0
   58.2210   34.2210   46.4860 N   0  0  0  0  0  0  0  0  0  0  0  0
   59.4500   34.8510   46.8790 C   0  0  0  0  0  0  0  0  0  0  0  0
   59.8830   35.8150   46.1940 O   0  0  0  0  0  0  0  0  0  0  0  0
   60.2200   34.4160   48.0640 C   0  0  0  0  0  0  0  0  0  0  0  0
   59.6120   34.5020   49.2780 N   0  0  0  0  0  0  0  0  0  0  0  0
   60.1910   34.0650   50.3960 N   0  0  0  0  0  0  0  0  0  0  0  0
   61.4240   33.5040   50.3840 C   0  0  0  0  0  0  0  0  0  0  0  0
   62.1260   33.4040   49.1800 C   0  0  0  0  0  0  0  0  0  0  0  0
   63.4130   32.8450   49.1490 C   0  0  0  0  0  0  0  0  0  0  0  0
   64.1200   32.7830   47.9460 C   0  0  0  0  0  0  0  0  0  0  0  0
   63.5560   33.2910   46.7750 C   0  0  0  0  0  0  0  0  0  0  0  0
   62.2740   33.8490   46.7940 C   0  0  0  0  0  0  0  0  0  0  0  0
   61.5300   33.8860   47.9920 C   0  0  0  0  0  0  0  0  0  0  0  0
   57.7230   31.9050   45.7390 C   0  0  0  0  0  0  0  0  0  0  0  0
   57.7630   26.2840   44.4590 C   0  0  0  0  0  0  0  0  0  0  0  0
   57.5730   24.9300   44.7520 C   0  0  0  0  0  0  0  0  0  0  0  0
   57.1349   20.3928   46.5285 H   0  0  0  0  0  0  0  0  0  0  0  0
   56.3117   20.7557   44.9737 H   0  0  0  0  0  0  0  0  0  0  0  0
   57.9117   19.9392   44.9737 H   0  0  0  0  0  0  0  0  0  0  0  0
   60.0134   22.3497   45.1815 H   0  0  0  0  0  0  0  0  0  0  0  0
   59.2582   21.3079   43.9280 H   0  0  0  0  0  0  0  0  0  0  0  0
   58.9528   23.0781   43.9280 H   0  0  0  0  0  0  0  0  0  0  0  0
   58.3070   24.9813   48.0912 H   0  0  0  0  0  0  0  0  0  0  0  0
   58.6485   27.3938   47.5700 H   0  0  0  0  0  0  0  0  0  0  0  0
   59.3380   28.9030   45.1680 H   0  0  0  0  0  0  0  0  0  0  0  0
   57.6836   30.6412   42.5593 H   0  0  0  0  0  0  0  0  0  0  0  0
   58.1865   33.0266   42.0397 H   0  0  0  0  0  0  0  0  0  0  0  0
   58.4100   34.6910   43.8799 H   0  0  0  0  0  0  0  0  0  0  0  0
   61.8701   33.1292   51.3170 H   0  0  0  0  0  0  0  0  0  0  0  0
   63.8653   32.4554   50.0729 H   0  0  0  0  0  0  0  0  0  0  0  0
   65.1234   32.3328   47.9216 H   0  0  0  0  0  0  0  0  0  0  0  0
   64.1224   33.2523   45.8328 H   0  0  0  0  0  0  0  0  0  0  0  0
   61.8432   34.2614   45.8697 H   0  0  0  0  0  0  0  0  0  0  0  0
   57.5713   31.5955   46.7836 H   0  0  0  0  0  0  0  0  0  0  0  0
   57.6318   26.6446   43.4281 H   0  0  0  0  0  0  0  0  0  0  0  0
   57.2938   24.2313   43.9496 H   0  0  0  0  0  0  0  0  0  0  0  0
  1  2  1  0
  2  3  1  0
  2  4  1  0
  4  5  2  0
  4  6  1  0
  6  7  2  0
  7  8  1  0
  8  9  2  0
  9 10  1  0
 10 11  1  0
 11 12  2  0
 11 13  1  0
 13 14  2  0
 14 15  1  0
 15 16  2  0
 16 17  1  0
 17 18  1  0
 18 19  1  0
 19 20  2  0
 19 21  1  0
 21 22  2  0
 22 23  1  0
 23 24  2  0
 24 25  1  0
 25 26  2  0
 26 27  1  0
 27 28  2  0
 28 29  1  0
 29 30  2  0
 17 31  2  0
  9 32  1  0
 32 33  2  0
 33  6  1  0
 31 13  1  0
 30 21  1  0
 30 25  1  0
  1 34  1  0
  1 35  1  0
  1 36  1  0
  3 37  1  0
  3 38  1  0
  3 39  1  0
  7 40  1  0
  8 41  1  0
 10 42  1  0
 14 43  1  0
 15 44  1  0
 16 45  1  0
 24 46  1  0
 26 47  1  0
 27 48  1  0
 28 49  1  0
 29 50  1  0
 31 51  1  0
 32 52  1  0
 33 53  1  0
M  CHG  1  18  -1
M  END
>  <UniqueID>  (81) 
72

>  <SMILES>  (81) 
CN(C)C(=O)c1ccc(NC(=O)c2cccc([N-]C(=O)c3nncc4ccccc34)c2)cc1

>  <Energy>  (81) 
81.57052621980566

>  <Genealogy>  (81) 
CN(C)C(=O)c1ccc(NC(=O)c2cccc([N-]C(=O)c3nncc4ccccc34)c2)cc1 (protonated)
CN(C)C(=O)c1ccc(NC(=O)c2cccc([N-]C(=O)c3nncc4ccccc34)c2)cc1 (3D coordinates assigned)
CN(C)C(=O)c1ccc(NC(=O)c2cccc([N-]C(=O)c3nncc4ccccc34)c2)cc1 (optimized conformer: 81.57052621980566 kcal/mol)

>  <smiles>  (81) 
CN(C)C(=O)c1ccc(NC(=O)c2cccc(NC(=O)c3nncc4ccccc34)c2)cc1

>  <score_type>  (81) 
oracle

>  <origin>  (81) 
adg

>  <m_score__min__energy>  (81) 
-11.050000000000001

>  <m_primary>  (81) 
energy

$$$$
81:0
     RDKit          3D

 35 37  0  0  0  0  0  0  0  0999 V2000
   56.4100   24.6960   46.3690 H   0  0  0  0  0  0  0  0  0  0  0  0
   57.3020   25.1070   46.1200 O   0  0  0  0  0  0  0  0  0  0  0  0
   57.4030   26.4370   45.7160 C   0  0  0  0  0  0  0  0  0  0  0  0
   58.6460   26.9840   45.3740 C   0  0  0  0  0  0  0  0  0  0  0  0
   59.5509   26.3607   45.4242 H   0  0  0  0  0  0  0  0  0  0  0  0
   58.7420   28.3190   44.9690 C   0  0  0  0  0  0  0  0  0  0  0  0
   59.7235   28.7410   44.7071 H   0  0  0  0  0  0  0  0  0  0  0  0
   57.5910   29.1270   44.8940 C   0  0  0  0  0  0  0  0  0  0  0  0
   57.6700   30.5530   44.4860 C   0  0  0  0  0  0  0  0  0  0  0  0
   57.6840   31.5170   45.4470 N   0  0  0  0  0  0  0  0  0  0  0  0
   57.7670   32.8400   45.1350 C   0  0  0  0  0  0  0  0  0  0  0  0
   57.7940   33.7450   46.0680 N   0  0  0  0  0  0  0  0  0  0  0  0
   58.8110   34.7910   46.1870 C   0  0  0  0  0  0  0  0  0  0  0  0
   59.1601   35.0703   45.1819 H   0  0  0  0  0  0  0  0  0  0  0  0
   58.3649   35.6597   46.6932 H   0  0  0  0  0  0  0  0  0  0  0  0
   59.9830   34.3090   47.0000 C   0  0  0  0  0  0  0  0  0  0  0  0
   61.1560   33.8620   46.3690 C   0  0  0  0  0  0  0  0  0  0  0  0
   61.2149   33.8423   45.2708 H   0  0  0  0  0  0  0  0  0  0  0  0
   62.2490   33.4420   47.1340 C   0  0  0  0  0  0  0  0  0  0  0  0
   63.1654   33.0926   46.6358 H   0  0  0  0  0  0  0  0  0  0  0  0
   62.1800   33.4650   48.5290 C   0  0  0  0  0  0  0  0  0  0  0  0
   63.0410   33.1339   49.1282 H   0  0  0  0  0  0  0  0  0  0  0  0
   61.0160   33.9090   49.1630 C   0  0  0  0  0  0  0  0  0  0  0  0
   60.9615   33.9264   50.2615 H   0  0  0  0  0  0  0  0  0  0  0  0
   59.9210   34.3310   48.4030 C   0  0  0  0  0  0  0  0  0  0  0  0
   59.0075   34.6816   48.9057 H   0  0  0  0  0  0  0  0  0  0  0  0
   57.8280   33.2200   43.8330 N   0  0  0  0  0  0  0  0  0  0  0  0
   57.8050   32.3010   42.8340 C   0  0  0  0  0  0  0  0  0  0  0  0
   57.8550   32.6800   41.6350 O   0  0  0  0  0  0  0  0  0  0  0  0
   57.7230   30.9400   43.1380 C   0  0  0  0  0  0  0  0  0  0  0  0
   57.7004   30.1866   42.3368 H   0  0  0  0  0  0  0  0  0  0  0  0
   56.3480   28.5690   45.2500 C   0  0  0  0  0  0  0  0  0  0  0  0
   55.4411   29.1902   45.2090 H   0  0  0  0  0  0  0  0  0  0  0  0
   56.2540   27.2340   45.6550 C   0  0  0  0  0  0  0  0  0  0  0  0
   55.0170   26.7020   45.9960 O   0  0  0  0  0  0  0  0  0  0  0  0
  1  2  1  0
  2  3  1  0
  3  4  2  0
  4  5  1  0
  4  6  1  0
  6  7  1  0
  6  8  2  0
  8  9  1  0
  9 10  1  0
 10 11  1  0
 11 12  2  0
 12 13  1  0
 13 14  1  0
 13 15  1  0
 13 16  1  0
 16 17  2  0
 17 18  1  0
 17 19  1  0
 19 20  1  0
 19 21  2  0
 21 22  1  0
 21 23  1  0
 23 24  1  0
 23 25  2  0
 25 26  1  0
 11 27  1  0
 27 28  1  0
 28 29  2  0
 28 30  1  0
 30 31  1  0
  8 32  1  0
 32 33  1  0
 32 34  2  0
 34 35  1  0
 34  3  1  0
 30  9  2  0
 25 16  1  0
M  CHG  3  10  -1  27  -1  35  -1
M  END
>  <UniqueID>  (82) 
73

>  <SMILES>  (82) 
O=c1cc(-c2ccc(O)c([O-])c2)[n-]/c(=N\Cc2ccccc2)[n-]1

>  <Energy>  (82) 
40.83979269761913

>  <Genealogy>  (82) 
O=c1cc(-c2ccc(O)c([O-])c2)[n-]c(=NCc2ccccc2)[n-]1 (protonated)
O=c1cc(-c2ccc(O)c([O-])c2)[n-]/c(=N\Cc2ccccc2)[n-]1 (cis-trans isomerization)
O=c1cc(-c2ccc(O)c([O-])c2)[n-]/c(=N\Cc2ccccc2)[n-]1 (3D coordinates assigned)
O=c1cc(-c2ccc(O)c([O-])c2)[n-]/c(=N\Cc2ccccc2)[n-]1 (optimized conformer: 40.83979269761913 kcal/mol)

>  <smiles>  (82) 
O=c1cc(-c2ccc(O)c(O)c2)[nH]c(=NCc2ccccc2)[nH]1

>  <score_type>  (82) 
oracle

>  <origin>  (82) 
adg

>  <m_score__min__energy>  (82) 
-12.550000000000001

>  <m_primary>  (82) 
energy

$$$$
82:0
     RDKit          3D

 58 62  0  0  1  0  0  0  0  0999 V2000
   63.3380   34.9470   50.7270 O   0  0  0  0  0  0  0  0  0  0  0  0
   63.8120   33.7990   50.4740 C   0  0  0  0  0  0  0  0  0  0  0  0
   62.9880   32.8600   49.7510 C   0  0  0  0  0  0  0  0  0  0  0  0
   62.0290   32.1090   50.4110 C   0  0  0  0  0  0  0  0  0  0  0  0
   61.2240   31.2000   49.7410 C   0  0  0  0  0  0  0  0  0  0  0  0
   61.4030   31.0590   48.3800 C   0  0  0  0  0  0  0  0  0  0  0  0
   60.6110   30.1310   47.5690 C   0  0  0  0  0  0  0  0  0  0  0  0
   60.4470   28.8230   47.9760 C   0  0  0  0  0  0  0  0  0  0  0  0
   59.7000   27.9120   47.2310 C   0  0  0  0  0  0  0  0  0  0  0  0
   59.0970   28.3030   46.0510 C   0  0  0  0  0  0  0  0  0  0  0  0
   58.3770   27.4330   45.3290 N   0  0  0  0  0  0  0  0  0  0  0  0
   57.7850   27.8230   44.1690 C   0  0  0  0  0  0  0  0  0  0  0  0
   57.9420   29.1000   43.7670 N   0  0  0  0  0  0  0  0  0  0  0  0
   58.6520   30.0020   44.4560 C   0  0  0  0  0  0  0  0  0  0  0  0
   58.8150   31.2280   44.0920 N   0  0  0  0  0  0  0  0  0  0  0  0
   57.7260   31.9130   43.4770 C   0  0  0  0  0  0  0  0  0  0  0  0
   57.3950   33.2300   44.1250 C   0  0  0  0  0  0  0  0  0  0  0  0
   58.1600   33.4740   45.3600 C   0  0  0  0  0  0  0  0  0  0  0  0
   57.7520   33.0020   46.5960 C   0  0  0  0  0  0  0  0  0  0  0  0
   58.4970   33.2490   47.7540 C   0  0  0  0  0  0  0  0  0  0  0  0
   59.6640   33.9810   47.6520 C   0  0  0  0  0  0  0  0  0  0  0  0
   60.3900   34.2200   48.7840 F   0  0  0  0  0  0  0  0  0  0  0  0
   60.0690   34.4530   46.4100 C   0  0  0  0  0  0  0  0  0  0  0  0
   59.3380   34.2140   45.2550 C   0  0  0  0  0  0  0  0  0  0  0  0
   59.2610   29.6150   45.6440 C   0  0  0  0  0  0  0  0  0  0  0  0
   60.0100   30.5160   46.3980 C   0  0  0  0  0  0  0  0  0  0  0  0
   62.3590   31.8100   47.7260 C   0  0  0  0  0  0  0  0  0  0  0  0
   63.1660   32.7180   48.3870 C   0  0  0  0  0  0  0  0  0  0  0  0
   65.1200   33.4490   50.8920 N   0  0  0  0  0  0  0  0  0  0  0  0
   65.8550   32.2090   50.7140 C   0  0  0  0  0  0  0  0  0  0  0  0
   67.2110   32.7200   50.2780 C   0  0  0  0  0  0  0  0  0  0  0  0
   67.3930   34.0260   50.9930 C   0  0  0  0  0  0  0  0  0  0  0  0
   66.0490   34.3150   51.6300 C   0  0  0  0  0  0  0  0  0  0  0  0
   61.9026   32.2372   51.4962 H   0  0  0  0  0  0  0  0  0  0  0  0
   60.4665   30.6099   50.2776 H   0  0  0  0  0  0  0  0  0  0  0  0
   60.9180   28.4904   48.9128 H   0  0  0  0  0  0  0  0  0  0  0  0
   59.5900   26.8762   47.5845 H   0  0  0  0  0  0  0  0  0  0  0  0
   57.1922   27.1136   43.5729 H   0  0  0  0  0  0  0  0  0  0  0  0
   57.4890   29.3780   42.8890 H   0  0  0  0  0  0  0  0  0  0  0  0
   57.9835   32.0993   42.4239 H   0  0  0  0  0  0  0  0  0  0  0  0
   56.8400   31.2702   43.5857 H   0  0  0  0  0  0  0  0  0  0  0  0
   57.6160   34.0370   43.4109 H   0  0  0  0  0  0  0  0  0  0  0  0
   56.3299   33.2028   44.3985 H   0  0  0  0  0  0  0  0  0  0  0  0
   56.8215   32.4199   46.6690 H   0  0  0  0  0  0  0  0  0  0  0  0
   58.1594   32.8670   48.7287 H   0  0  0  0  0  0  0  0  0  0  0  0
   60.9996   35.0353   46.3397 H   0  0  0  0  0  0  0  0  0  0  0  0
   59.6784   34.5980   44.2820 H   0  0  0  0  0  0  0  0  0  0  0  0
   60.1211   31.5530   46.0483 H   0  0  0  0  0  0  0  0  0  0  0  0
   62.4833   31.6817   46.6406 H   0  0  0  0  0  0  0  0  0  0  0  0
   63.9225   33.3063   47.8470 H   0  0  0  0  0  0  0  0  0  0  0  0
   65.9226   31.6436   51.6552 H   0  0  0  0  0  0  0  0  0  0  0  0
   65.3897   31.5107   50.0028 H   0  0  0  0  0  0  0  0  0  0  0  0
   68.0006   32.0103   50.5659 H   0  0  0  0  0  0  0  0  0  0  0  0
   67.2716   32.8394   49.1862 H   0  0  0  0  0  0  0  0  0  0  0  0
   68.1748   33.9401   51.7620 H   0  0  0  0  0  0  0  0  0  0  0  0
   67.7085   34.8297   50.3114 H   0  0  0  0  0  0  0  0  0  0  0  0
   66.0586   34.0584   52.6996 H   0  0  0  0  0  0  0  0  0  0  0  0
   65.7727   35.3785   51.5781 H   0  0  0  0  0  0  0  0  0  0  0  0
  1  2  2  0
  2  3  1  0
  3  4  2  0
  4  5  1  0
  5  6  2  0
  6  7  1  0
  7  8  2  0
  8  9  1  0
  9 10  2  0
 10 11  1  0
 11 12  2  0
 12 13  1  0
 13 14  1  0
 14 15  2  0
 15 16  1  0
 16 17  1  0
 17 18  1  0
 18 19  2  0
 19 20  1  0
 20 21  2  0
 21 22  1  0
 21 23  1  0
 23 24  2  0
 14 25  1  0
 25 26  2  0
  6 27  1  0
 27 28  2  0
  2 29  1  0
 29 30  1  0
 30 31  1  0
 31 32  1  0
 32 33  1  0
 28  3  1  0
 33 29  1  0
 26  7  1  0
 25 10  1  0
 24 18  1  0
  4 34  1  0
  5 35  1  0
  8 36  1  0
  9 37  1  0
 12 38  1  0
 13 39  1  0
 16 40  1  0
 16 41  1  0
 17 42  1  0
 17 43  1  0
 19 44  1  0
 20 45  1  0
 23 46  1  0
 24 47  1  0
 26 48  1  0
 27 49  1  0
 28 50  1  0
 30 51  1  0
 30 52  1  0
 31 53  1  0
 31 54  1  0
 32 55  1  0
 32 56  1  0
 33 57  1  0
 33 58  1  0
M  END
>  <smiles>  (83) 
O=C(c1ccc(-c2ccc3nc[nH]c(=NCCc4ccc(F)cc4)c3c2)cc1)N1CCCC1

>  <score_type>  (83) 
oracle

>  <origin>  (83) 
adg

>  <m_score__min__energy>  (83) 
-9.5500000000000007

>  <m_primary>  (83) 
energy

$$$$
83:0
     RDKit          3D

 41 43  0  0  0  0  0  0  0  0999 V2000
   60.3710   28.0430   49.1690 C   0  0  0  0  0  0  0  0  0  0  0  0
   60.1980   29.4410   49.3740 O   0  0  0  0  0  0  0  0  0  0  0  0
   60.9640   30.4410   48.7540 C   0  0  0  0  0  0  0  0  0  0  0  0
   61.9480   31.1590   49.4680 C   0  0  0  0  0  0  0  0  0  0  0  0
   62.6640   32.1860   48.8530 C   0  0  0  0  0  0  0  0  0  0  0  0
   62.4110   32.5170   47.5220 C   0  0  0  0  0  0  0  0  0  0  0  0
   63.3000   33.8210   46.7560 Cl  0  0  0  0  0  0  0  0  0  0  0  0
   61.4470   31.8110   46.7980 C   0  0  0  0  0  0  0  0  0  0  0  0
   60.7290   30.7600   47.3950 C   0  0  0  0  0  0  0  0  0  0  0  0
   59.6910   30.1210   46.6280 N   0  0  0  0  0  0  0  0  0  0  0  0
   59.8870   28.9740   45.7890 C   0  0  0  0  0  0  0  0  0  0  0  0
   60.8180   28.9700   44.9390 O   0  0  0  0  0  0  0  0  0  0  0  0
   58.9870   27.8060   45.9130 C   0  0  0  0  0  0  0  0  0  0  0  0
   59.5230   26.5110   45.9990 C   0  0  0  0  0  0  0  0  0  0  0  0
   58.6760   25.4010   46.0700 C   0  0  0  0  0  0  0  0  0  0  0  0
   57.2900   25.5750   46.0680 C   0  0  0  0  0  0  0  0  0  0  0  0
   56.7440   26.8600   46.0040 C   0  0  0  0  0  0  0  0  0  0  0  0
   57.5860   27.9830   45.9310 C   0  0  0  0  0  0  0  0  0  0  0  0
   57.0580   29.3140   45.9390 N   0  0  0  0  0  0  0  0  0  0  0  0
   56.6490   30.2780   44.5620 S   0  0  0  0  0  0  0  0  0  0  0  0
   57.1670   29.6370   43.3040 O   0  0  0  0  0  0  0  0  0  0  0  0
   55.1580   30.4590   44.4700 O   0  0  0  0  0  0  0  0  0  0  0  0
   57.4320   31.8290   44.7910 C   0  0  0  0  0  0  0  0  0  0  0  0
   58.0840   32.5500   43.8000 C   0  0  0  0  0  0  0  0  0  0  0  0
   58.7950   33.6480   44.2970 C   0  0  0  0  0  0  0  0  0  0  0  0
   58.7110   33.7690   45.6780 C   0  0  0  0  0  0  0  0  0  0  0  0
   59.5170   34.9880   46.6430 Cl  0  0  0  0  0  0  0  0  0  0  0  0
   57.7690   32.5170   46.2900 S   0  0  0  0  0  0  0  0  0  0  0  0
   60.4339   27.5347   50.1425 H   0  0  0  0  0  0  0  0  0  0  0  0
   59.5150   27.6467   48.6031 H   0  0  0  0  0  0  0  0  0  0  0  0
   61.2977   27.8673   48.6031 H   0  0  0  0  0  0  0  0  0  0  0  0
   62.1518   30.9061   50.5190 H   0  0  0  0  0  0  0  0  0  0  0  0
   63.4300   32.7362   49.4191 H   0  0  0  0  0  0  0  0  0  0  0  0
   61.2478   32.0802   45.7502 H   0  0  0  0  0  0  0  0  0  0  0  0
   58.7090   30.4650   46.7410 H   0  0  0  0  0  0  0  0  0  0  0  0
   60.6138   26.3693   46.0106 H   0  0  0  0  0  0  0  0  0  0  0  0
   59.1019   24.3884   46.1276 H   0  0  0  0  0  0  0  0  0  0  0  0
   56.6268   24.6988   46.1169 H   0  0  0  0  0  0  0  0  0  0  0  0
   55.6521   26.9928   46.0108 H   0  0  0  0  0  0  0  0  0  0  0  0
   58.0457   32.2852   42.7330 H   0  0  0  0  0  0  0  0  0  0  0  0
   59.3616   34.3431   43.6600 H   0  0  0  0  0  0  0  0  0  0  0  0
  1  2  1  0
  2  3  1  0
  3  4  2  0
  4  5  1  0
  5  6  2  0
  6  7  1  0
  6  8  1  0
  8  9  2  0
  9 10  1  0
 10 11  1  0
 11 12  2  0
 11 13  1  0
 13 14  2  0
 14 15  1  0
 15 16  2  0
 16 17  1  0
 17 18  2  0
 18 19  1  0
 19 20  1  0
 20 21  2  0
 20 22  2  0
 20 23  1  0
 23 24  2  0
 24 25  1  0
 25 26  2  0
 26 27  1  0
 26 28  1  0
  9  3  1  0
 18 13  1  0
 28 23  1  0
  1 29  1  0
  1 30  1  0
  1 31  1  0
  4 32  1  0
  5 33  1  0
  8 34  1  0
 10 35  1  0
 14 36  1  0
 15 37  1  0
 16 38  1  0
 17 39  1  0
 24 40  1  0
 25 41  1  0
M  CHG  1  19  -1
M  END
>  <UniqueID>  (84) 
74

>  <SMILES>  (84) 
COc1ccc(Cl)cc1NC(=O)c1ccccc1[N-]S(=O)(=O)c1ccc(Cl)s1

>  <Energy>  (84) 
80.40650115385306

>  <Genealogy>  (84) 
COc1ccc(Cl)cc1NC(=O)c1ccccc1[N-]S(=O)(=O)c1ccc(Cl)s1 (protonated)
COc1ccc(Cl)cc1NC(=O)c1ccccc1[N-]S(=O)(=O)c1ccc(Cl)s1 (3D coordinates assigned)
COc1ccc(Cl)cc1NC(=O)c1ccccc1[N-]S(=O)(=O)c1ccc(Cl)s1 (optimized conformer: 80.40650115385306 kcal/mol)

>  <smiles>  (84) 
COc1ccc(Cl)cc1NC(=O)c1ccccc1NS(=O)(=O)c1ccc(Cl)s1

>  <score_type>  (84) 
oracle

>  <origin>  (84) 
adg

>  <m_score__min__energy>  (84) 
-10

>  <m_primary>  (84) 
energy

$$$$
84:0
     RDKit          3D

 45 49  0  0  0  0  0  0  0  0999 V2000
   57.6510   30.7840   43.4610 N   0  0  0  0  0  0  0  0  0  0  0  0
   57.8540   31.8010   44.2220 C   0  0  0  0  0  0  0  0  0  0  0  0
   57.7300   33.0560   43.7550 N   0  0  0  0  0  0  0  0  0  0  0  0
   57.9160   34.1530   44.5100 C   0  0  0  0  0  0  0  0  0  0  0  0
   58.2440   33.9660   45.8050 N   0  0  0  0  0  0  0  0  0  0  0  0
   58.3820   32.7480   46.3250 C   0  0  0  0  0  0  0  0  0  0  0  0
   58.1900   31.6280   45.5450 C   0  0  0  0  0  0  0  0  0  0  0  0
   58.3820   30.5020   46.3060 C   0  0  0  0  0  0  0  0  0  0  0  0
   58.2910   29.0940   45.9820 C   0  0  0  0  0  0  0  0  0  0  0  0
   59.2930   28.2970   45.5490 C   0  0  0  0  0  0  0  0  0  0  0  0
   59.1230   26.9480   45.2370 C   0  0  0  0  0  0  0  0  0  0  0  0
   57.8640   26.3660   45.3720 C   0  0  0  0  0  0  0  0  0  0  0  0
   56.8200   27.1710   45.8170 C   0  0  0  0  0  0  0  0  0  0  0  0
   55.5590   26.5740   45.9500 O   0  0  0  0  0  0  0  0  0  0  0  0
   57.0250   28.5110   46.1180 C   0  0  0  0  0  0  0  0  0  0  0  0
   58.6870   30.9560   47.5400 N   0  0  0  0  0  0  0  0  0  0  0  0
   58.6900   32.2840   47.5630 N   0  0  0  0  0  0  0  0  0  0  0  0
   58.9670   33.1590   48.6910 C   0  0  0  0  0  0  0  0  0  0  0  0
   60.4180   33.1110   49.0320 C   0  0  0  0  0  0  0  0  0  0  0  0
   61.0710   33.8370   49.9650 N   0  0  0  0  0  0  0  0  0  0  0  0
   62.3870   33.4990   49.9670 C   0  0  0  0  0  0  0  0  0  0  0  0
   63.4890   33.9090   50.6910 C   0  0  0  0  0  0  0  0  0  0  0  0
   64.7030   33.3190   50.4040 C   0  0  0  0  0  0  0  0  0  0  0  0
   65.9370   33.7270   51.1620 C   0  0  0  0  0  0  0  0  0  0  0  0
   65.7740   35.0030   51.6620 F   0  0  0  0  0  0  0  0  0  0  0  0
   66.2440   32.8160   52.1450 F   0  0  0  0  0  0  0  0  0  0  0  0
   67.0000   33.7730   50.2760 F   0  0  0  0  0  0  0  0  0  0  0  0
   64.8540   32.3480   49.4340 C   0  0  0  0  0  0  0  0  0  0  0  0
   63.7380   31.9350   48.7020 C   0  0  0  0  0  0  0  0  0  0  0  0
   62.5090   32.5300   48.9900 C   0  0  0  0  0  0  0  0  0  0  0  0
   61.3010   32.2920   48.4160 N   0  0  0  0  0  0  0  0  0  0  0  0
   58.4000   30.2710   42.9660 H   0  0  0  0  0  0  0  0  0  0  0  0
   57.4750   33.2310   42.7510 H   0  0  0  0  0  0  0  0  0  0  0  0
   57.8051   35.1629   44.0883 H   0  0  0  0  0  0  0  0  0  0  0  0
   60.2956   28.7353   45.4367 H   0  0  0  0  0  0  0  0  0  0  0  0
   59.9762   26.3483   44.8871 H   0  0  0  0  0  0  0  0  0  0  0  0
   57.7008   25.3044   45.1344 H   0  0  0  0  0  0  0  0  0  0  0  0
   55.1450   26.3280   46.8290 H   0  0  0  0  0  0  0  0  0  0  0  0
   56.1809   29.1233   46.4683 H   0  0  0  0  0  0  0  0  0  0  0  0
   58.6888   34.1903   48.4284 H   0  0  0  0  0  0  0  0  0  0  0  0
   58.3815   32.8233   49.5596 H   0  0  0  0  0  0  0  0  0  0  0  0
   63.4021   34.6802   51.4705 H   0  0  0  0  0  0  0  0  0  0  0  0
   65.8418   31.9046   49.2398 H   0  0  0  0  0  0  0  0  0  0  0  0
   63.8254   31.1641   47.9222 H   0  0  0  0  0  0  0  0  0  0  0  0
   61.0740   31.6180   47.6530 H   0  0  0  0  0  0  0  0  0  0  0  0
  1  2  2  3
  2  3  1  0
  3  4  1  0
  4  5  2  0
  5  6  1  0
  6  7  2  0
  7  8  1  0
  8  9  1  0
  9 10  2  0
 10 11  1  0
 11 12  2  0
 12 13  1  0
 13 14  1  0
 13 15  2  0
  8 16  2  0
 16 17  1  0
 17 18  1  0
 18 19  1  0
 19 20  2  0
 20 21  1  0
 21 22  2  0
 22 23  1  0
 23 24  1  0
 24 25  1  0
 24 26  1  0
 24 27  1  0
 23 28  2  0
 28 29  1  0
 29 30  2  0
 30 31  1  0
  7  2  1  0
 15  9  1  0
 31 19  1  0
 17  6  1  0
 30 21  1  0
  1 32  1  0
  3 33  1  0
  4 34  1  0
 10 35  1  0
 11 36  1  0
 12 37  1  0
 14 38  1  0
 15 39  1  0
 18 40  1  0
 18 41  1  0
 22 42  1  0
 28 43  1  0
 29 44  1  0
 31 45  1  0
M  END
>  <smiles>  (85) 
N=c1[nH]cnc2c1c(-c1cccc(O)c1)nn2Cc1nc2cc(C(F)(F)F)ccc2[nH]1

>  <score_type>  (85) 
oracle

>  <origin>  (85) 
adg

>  <m_score__min__energy>  (85) 
-8.2100000000000009

>  <m_primary>  (85) 
energy

$$$$
85:0
     RDKit          3D

 21 22  0  0  0  0  0  0  0  0999 V2000
   56.7190   31.2210   52.6490 C   0  0  0  0  0  0  0  0  0  0  0  0
   56.0660   30.4090   51.6990 O   0  0  0  0  0  0  0  0  0  0  0  0
   55.1940   29.5030   52.3460 C   0  0  0  0  0  0  0  0  0  0  0  0
   53.8830   30.1690   52.6650 C   0  0  0  0  0  0  0  0  0  0  0  0
   53.3060   30.0380   53.9570 C   0  0  0  0  0  0  0  0  0  0  0  0
   52.0900   30.6750   54.2670 C   0  0  0  0  0  0  0  0  0  0  0  0
   51.4880   31.4320   53.2680 C   0  0  0  0  0  0  0  0  0  0  0  0
   50.3300   32.1680   53.2360 C   0  0  0  0  0  0  0  0  0  0  0  0
   50.2160   32.7160   52.0030 N   0  0  0  0  0  0  0  0  0  0  0  0
   51.2580   32.3510   51.2600 N   0  0  0  0  0  0  0  0  0  0  0  0
   52.0360   31.5690   52.0270 C   0  0  0  0  0  0  0  0  0  0  0  0
   53.2370   30.9540   51.6830 C   0  0  0  0  0  0  0  0  0  0  0  0
   56.4509   30.8877   53.6624 H   0  0  0  0  0  0  0  0  0  0  0  0
   57.8076   31.1415   52.5128 H   0  0  0  0  0  0  0  0  0  0  0  0
   56.4078   32.2673   52.5128 H   0  0  0  0  0  0  0  0  0  0  0  0
   55.0114   28.6424   51.6857 H   0  0  0  0  0  0  0  0  0  0  0  0
   55.6607   29.1691   53.2845 H   0  0  0  0  0  0  0  0  0  0  0  0
   53.8146   29.4330   54.7220 H   0  0  0  0  0  0  0  0  0  0  0  0
   51.6327   30.5777   55.2627 H   0  0  0  0  0  0  0  0  0  0  0  0
   49.6191   32.2911   54.0664 H   0  0  0  0  0  0  0  0  0  0  0  0
   53.6693   31.0752   50.6788 H   0  0  0  0  0  0  0  0  0  0  0  0
  1  2  1  0
  2  3  1  0
  3  4  1  0
  4  5  1  0
  5  6  2  0
  6  7  1  0
  7  8  2  0
  8  9  1  0
  9 10  1  0
 10 11  2  0
 11 12  1  0
 12  4  2  0
 11  7  1  0
  1 13  1  0
  1 14  1  0
  1 15  1  0
  3 16  1  0
  3 17  1  0
  5 18  1  0
  6 19  1  0
  8 20  1  0
 12 21  1  0
M  CHG  1   9  -1
M  END
>  <UniqueID>  (86) 
75

>  <SMILES>  (86) 
COCc1ccc2c[n-]nc2c1

>  <Energy>  (86) 
60.475294400907714

>  <Genealogy>  (86) 
COCc1ccc2c[n-]nc2c1 (protonated)
COCc1ccc2c[n-]nc2c1 (3D coordinates assigned)
COCc1ccc2c[n-]nc2c1 (optimized conformer: 60.475294400907714 kcal/mol)

>  <smiles>  (86) 
COCc1ccc2c[nH]nc2c1

>  <score_type>  (86) 
oracle

>  <origin>  (86) 
adg

>  <m_score__min__energy>  (86) 
-7.9900000000000002

>  <m_primary>  (86) 
energy

$$$$
86:0
     RDKit          3D

 38 39  0  0  0  0  0  0  0  0999 V2000
   57.0130   21.8350   43.3290 C   0  0  0  0  0  0  0  0  0  0  0  0
   55.7700   22.4960   43.3980 O   0  0  0  0  0  0  0  0  0  0  0  0
   55.8940   23.6410   44.2150 C   0  0  0  0  0  0  0  0  0  0  0  0
   55.5150   23.2740   45.6490 C   0  0  0  0  0  0  0  0  0  0  0  0
   55.5190   24.4600   46.5070 N   0  0  0  0  0  0  0  0  0  0  0  0
   56.1910   25.5490   46.2680 C   0  0  0  0  0  0  0  0  0  0  0  0
   57.5720   25.5600   46.4300 C   0  0  0  0  0  0  0  0  0  0  0  0
   58.2520   26.7060   46.1780 N   0  0  0  0  0  0  0  0  0  0  0  0
   57.6360   27.8250   45.7830 N   0  0  0  0  0  0  0  0  0  0  0  0
   58.4520   28.9900   45.5400 C   0  0  0  0  0  0  0  0  0  0  0  0
   59.2100   29.0490   44.5330 O   0  0  0  0  0  0  0  0  0  0  0  0
   58.3540   30.1150   46.4260 N   0  0  0  0  0  0  0  0  0  0  0  0
   58.4570   31.5010   46.0670 C   0  0  0  0  0  0  0  0  0  0  0  0
   59.3970   32.3530   46.6780 C   0  0  0  0  0  0  0  0  0  0  0  0
   59.4590   33.7020   46.3280 C   0  0  0  0  0  0  0  0  0  0  0  0
   58.5790   34.2190   45.3770 C   0  0  0  0  0  0  0  0  0  0  0  0
   57.6260   33.3910   44.7810 C   0  0  0  0  0  0  0  0  0  0  0  0
   57.5530   32.0260   45.1280 C   0  0  0  0  0  0  0  0  0  0  0  0
   56.6040   31.1630   44.5560 O   0  0  0  0  0  0  0  0  0  0  0  0
   56.6720   30.6550   43.2280 C   0  0  0  0  0  0  0  0  0  0  0  0
   56.2720   27.8220   45.6210 C   0  0  0  0  0  0  0  0  0  0  0  0
   55.6540   28.8540   45.2450 O   0  0  0  0  0  0  0  0  0  0  0  0
   55.5690   26.6870   45.8670 N   0  0  0  0  0  0  0  0  0  0  0  0
   57.3812   21.6392   44.3469 H   0  0  0  0  0  0  0  0  0  0  0  0
   56.8922   20.8820   42.7931 H   0  0  0  0  0  0  0  0  0  0  0  0
   57.7356   22.4680   42.7931 H   0  0  0  0  0  0  0  0  0  0  0  0
   56.9329   24.0015   44.1891 H   0  0  0  0  0  0  0  0  0  0  0  0
   55.2268   24.4340   43.8462 H   0  0  0  0  0  0  0  0  0  0  0  0
   54.5091   22.8289   45.6536 H   0  0  0  0  0  0  0  0  0  0  0  0
   56.2530   22.5560   46.0362 H   0  0  0  0  0  0  0  0  0  0  0  0
   58.1040   24.6544   46.7570 H   0  0  0  0  0  0  0  0  0  0  0  0
   60.0865   31.9525   47.4358 H   0  0  0  0  0  0  0  0  0  0  0  0
   60.2028   34.3589   46.8026 H   0  0  0  0  0  0  0  0  0  0  0  0
   58.6361   35.2810   45.0962 H   0  0  0  0  0  0  0  0  0  0  0  0
   56.9290   33.8051   44.0375 H   0  0  0  0  0  0  0  0  0  0  0  0
   56.8179   29.5652   43.2593 H   0  0  0  0  0  0  0  0  0  0  0  0
   55.7351   30.8845   42.6992 H   0  0  0  0  0  0  0  0  0  0  0  0
   57.5155   31.1228   42.6992 H   0  0  0  0  0  0  0  0  0  0  0  0
  1  2  1  0
  2  3  1  0
  3  4  1  0
  4  5  1  0
  5  6  2  3
  6  7  1  0
  7  8  2  0
  8  9  1  0
  9 10  1  0
 10 11  2  0
 10 12  1  0
 12 13  1  0
 13 14  2  0
 14 15  1  0
 15 16  2  0
 16 17  1  0
 17 18  2  0
 18 19  1  0
 19 20  1  0
  9 21  1  0
 21 22  2  0
 21 23  1  0
 23  6  1  0
 18 13  1  0
  1 24  1  0
  1 25  1  0
  1 26  1  0
  3 27  1  0
  3 28  1  0
  4 29  1  0
  4 30  1  0
  7 31  1  0
 14 32  1  0
 15 33  1  0
 16 34  1  0
 17 35  1  0
 20 36  1  0
 20 37  1  0
 20 38  1  0
M  CHG  2  12  -1  23  -1
M  END
>  <UniqueID>  (87) 
76

>  <SMILES>  (87) 
COCCN=c1cnn(C(=O)[N-]c2ccccc2OC)c(=O)[n-]1

>  <Energy>  (87) 
44.22142930279436

>  <Genealogy>  (87) 
COCCN=c1cnn(C(=O)[N-]c2ccccc2OC)c(=O)[n-]1 (protonated)
COCCN=c1cnn(C(=O)[N-]c2ccccc2OC)c(=O)[n-]1 (3D coordinates assigned)
COCCN=c1cnn(C(=O)[N-]c2ccccc2OC)c(=O)[n-]1 (optimized conformer: 44.22142930279436 kcal/mol)

>  <smiles>  (87) 
COCCN=c1cnn(C(=O)Nc2ccccc2OC)c(=O)[nH]1

>  <score_type>  (87) 
oracle

>  <origin>  (87) 
adg

>  <m_score__min__energy>  (87) 
-9.4000000000000004

>  <m_primary>  (87) 
energy

$$$$
87:0
     RDKit          3D

 33 34  0  0  0  0  0  0  0  0999 V2000
   58.1532   31.3396   43.4827 H   0  0  0  0  0  0  0  0  0  0  0  0
   57.6990   31.6770   44.4260 C   0  0  0  0  0  0  0  0  0  0  0  0
   56.6230   31.0950   44.8620 N   0  0  0  0  0  0  0  0  0  0  0  0
   56.2490   29.8020   44.5330 O   0  0  0  0  0  0  0  0  0  0  0  0
   56.7750   28.6530   45.1400 C   0  0  0  0  0  0  0  0  0  0  0  0
   58.0190   28.5080   45.2690 O   0  0  0  0  0  0  0  0  0  0  0  0
   55.9060   27.6240   45.6240 N   0  0  0  0  0  0  0  0  0  0  0  0
   56.3060   26.3240   46.0800 C   0  0  0  0  0  0  0  0  0  0  0  0
   57.4830   26.1260   46.8240 C   0  0  0  0  0  0  0  0  0  0  0  0
   58.1164   26.9861   47.0867 H   0  0  0  0  0  0  0  0  0  0  0  0
   57.8510   24.8400   47.2310 C   0  0  0  0  0  0  0  0  0  0  0  0
   58.7660   24.6946   47.8240 H   0  0  0  0  0  0  0  0  0  0  0  0
   57.0570   23.7310   46.8860 C   0  0  0  0  0  0  0  0  0  0  0  0
   57.3830   22.4210   47.2730 O   0  0  0  0  0  0  0  0  0  0  0  0
   57.3250   21.2900   46.4100 C   0  0  0  0  0  0  0  0  0  0  0  0
   57.2779   20.3710   47.0126 H   0  0  0  0  0  0  0  0  0  0  0  0
   56.4292   21.3586   45.7753 H   0  0  0  0  0  0  0  0  0  0  0  0
   58.2231   21.2666   45.7753 H   0  0  0  0  0  0  0  0  0  0  0  0
   55.9010   23.9300   46.1230 C   0  0  0  0  0  0  0  0  0  0  0  0
   55.2773   23.0689   45.8410 H   0  0  0  0  0  0  0  0  0  0  0  0
   55.5340   25.2160   45.7170 C   0  0  0  0  0  0  0  0  0  0  0  0
   54.6300   25.3578   45.1066 H   0  0  0  0  0  0  0  0  0  0  0  0
   58.3230   32.7870   45.1790 C   0  0  0  0  0  0  0  0  0  0  0  0
   58.7000   33.9810   44.5340 C   0  0  0  0  0  0  0  0  0  0  0  0
   58.5308   34.0953   43.4531 H   0  0  0  0  0  0  0  0  0  0  0  0
   59.2880   35.0220   45.2590 C   0  0  0  0  0  0  0  0  0  0  0  0
   59.5791   35.9515   44.7478 H   0  0  0  0  0  0  0  0  0  0  0  0
   59.5060   34.8830   46.6310 C   0  0  0  0  0  0  0  0  0  0  0  0
   59.9695   35.7026   47.1997 H   0  0  0  0  0  0  0  0  0  0  0  0
   59.1360   33.7040   47.2820 C   0  0  0  0  0  0  0  0  0  0  0  0
   59.3081   33.5974   48.3632 H   0  0  0  0  0  0  0  0  0  0  0  0
   58.5470   32.6580   46.5630 C   0  0  0  0  0  0  0  0  0  0  0  0
   58.1960   31.5230   47.2200 F   0  0  0  0  0  0  0  0  0  0  0  0
  1  2  1  0
  2  3  2  0
  3  4  1  0
  4  5  1  0
  5  6  2  0
  5  7  1  0
  7  8  1  0
  8  9  2  0
  9 10  1  0
  9 11  1  0
 11 12  1  0
 11 13  2  0
 13 14  1  0
 14 15  1  0
 15 16  1  0
 15 17  1  0
 15 18  1  0
 13 19  1  0
 19 20  1  0
 19 21  2  0
 21 22  1  0
  2 23  1  0
 23 24  2  0
 24 25  1  0
 24 26  1  0
 26 27  1  0
 26 28  2  0
 28 29  1  0
 28 30  1  0
 30 31  1  0
 30 32  2  0
 32 33  1  0
 21  8  1  0
 32 23  1  0
M  CHG  1   7  -1
M  END
>  <UniqueID>  (88) 
77

>  <SMILES>  (88) 
COc1ccc([N-]C(=O)O/N=C/c2ccccc2F)cc1

>  <Energy>  (88) 
41.83889664954558

>  <Genealogy>  (88) 
COc1ccc([N-]C(=O)ON=Cc2ccccc2F)cc1 (protonated)
COc1ccc([N-]C(=O)O/N=C/c2ccccc2F)cc1 (cis-trans isomerization)
COc1ccc([N-]C(=O)O/N=C/c2ccccc2F)cc1 (3D coordinates assigned)
COc1ccc([N-]C(=O)O/N=C/c2ccccc2F)cc1 (optimized conformer: 41.83889664954558 kcal/mol)

>  <smiles>  (88) 
COc1ccc(NC(=O)ON=Cc2ccccc2F)cc1

>  <score_type>  (88) 
oracle

>  <origin>  (88) 
adg

>  <m_score__min__energy>  (88) 
-8.9399999999999995

>  <m_primary>  (88) 
energy

$$$$
88:0
     RDKit          3D

 50 52  0  0  0  0  0  0  0  0999 V2000
   64.3080   31.3880   50.5070 C   0  0  0  0  0  0  0  0  0  0  0  0
   64.3810   32.4750   49.4760 C   0  0  0  0  0  0  0  0  0  0  0  0
   65.4990   33.0160   49.2530 O   0  0  0  0  0  0  0  0  0  0  0  0
   63.1800   32.9240   48.7200 C   0  0  0  0  0  0  0  0  0  0  0  0
   63.2020   33.0480   47.3170 C   0  0  0  0  0  0  0  0  0  0  0  0
   62.0640   33.4690   46.6220 C   0  0  0  0  0  0  0  0  0  0  0  0
   60.8850   33.7680   47.3150 C   0  0  0  0  0  0  0  0  0  0  0  0
   59.4560   34.3260   46.4510 S   0  0  0  0  0  0  0  0  0  0  0  0
   58.5580   35.1050   47.3720 O   0  0  0  0  0  0  0  0  0  0  0  0
   59.8910   35.2340   45.3350 O   0  0  0  0  0  0  0  0  0  0  0  0
   58.5750   32.9230   45.8390 C   0  0  0  0  0  0  0  0  0  0  0  0
   57.9380   33.0080   44.5970 C   0  0  0  0  0  0  0  0  0  0  0  0
   57.2540   31.9450   44.1060 N   0  0  0  0  0  0  0  0  0  0  0  0
   57.1780   30.7820   44.8030 C   0  0  0  0  0  0  0  0  0  0  0  0
   56.2870   29.3880   44.1150 S   0  0  0  0  0  0  0  0  0  0  0  0
   57.4910   28.1350   44.6830 C   0  0  0  0  0  0  0  0  0  0  0  0
   57.0410   27.4800   45.9520 C   0  0  0  0  0  0  0  0  0  0  0  0
   57.5430   27.8400   47.0500 O   0  0  0  0  0  0  0  0  0  0  0  0
   56.0030   26.4930   45.9130 N   0  0  0  0  0  0  0  0  0  0  0  0
   56.1730   25.0830   46.1180 C   0  0  0  0  0  0  0  0  0  0  0  0
   56.2640   24.5230   47.4060 C   0  0  0  0  0  0  0  0  0  0  0  0
   56.4600   23.1480   47.5620 C   0  0  0  0  0  0  0  0  0  0  0  0
   56.5780   22.3240   46.4410 C   0  0  0  0  0  0  0  0  0  0  0  0
   56.5140   22.8730   45.1540 C   0  0  0  0  0  0  0  0  0  0  0  0
   56.6710   21.8470   43.7320 S   0  0  0  0  0  0  0  0  0  0  0  0
   56.0430   20.2760   44.0870 N   0  0  0  0  0  0  0  0  0  0  0  0
   58.1170   21.7260   43.3380 O   0  0  0  0  0  0  0  0  0  0  0  0
   55.9070   22.4540   42.5890 O   0  0  0  0  0  0  0  0  0  0  0  0
   56.3160   24.2520   44.9990 C   0  0  0  0  0  0  0  0  0  0  0  0
   57.7850   30.6730   46.0120 N   0  0  0  0  0  0  0  0  0  0  0  0
   58.4800   31.7110   46.5450 C   0  0  0  0  0  0  0  0  0  0  0  0
   59.0380   31.5670   47.6640 O   0  0  0  0  0  0  0  0  0  0  0  0
   60.8550   33.6550   48.7080 C   0  0  0  0  0  0  0  0  0  0  0  0
   61.9910   33.2360   49.4070 C   0  0  0  0  0  0  0  0  0  0  0  0
   64.3379   31.8335   51.5123 H   0  0  0  0  0  0  0  0  0  0  0  0
   63.3701   30.8268   50.3824 H   0  0  0  0  0  0  0  0  0  0  0  0
   65.1624   30.7065   50.3824 H   0  0  0  0  0  0  0  0  0  0  0  0
   64.1226   32.8116   46.7632 H   0  0  0  0  0  0  0  0  0  0  0  0
   62.0953   33.5656   45.5267 H   0  0  0  0  0  0  0  0  0  0  0  0
   57.9920   33.9406   44.0162 H   0  0  0  0  0  0  0  0  0  0  0  0
   57.6023   27.3667   43.9037 H   0  0  0  0  0  0  0  0  0  0  0  0
   58.4500   28.6386   44.8748 H   0  0  0  0  0  0  0  0  0  0  0  0
   56.1806   25.1692   48.2922 H   0  0  0  0  0  0  0  0  0  0  0  0
   56.5215   22.7137   48.5708 H   0  0  0  0  0  0  0  0  0  0  0  0
   56.7216   21.2409   46.5689 H   0  0  0  0  0  0  0  0  0  0  0  0
   56.7270   19.5810   43.7140 H   0  0  0  0  0  0  0  0  0  0  0  0
   56.0400   20.1720   45.1260 H   0  0  0  0  0  0  0  0  0  0  0  0
   56.2725   24.6859   43.9891 H   0  0  0  0  0  0  0  0  0  0  0  0
   59.9330   33.8970   49.2569 H   0  0  0  0  0  0  0  0  0  0  0  0
   61.9557   33.1493   50.5030 H   0  0  0  0  0  0  0  0  0  0  0  0
  1  2  1  0
  2  3  2  0
  2  4  1  0
  4  5  2  0
  5  6  1  0
  6  7  2  0
  7  8  1  0
  8  9  2  0
  8 10  2  0
  8 11  1  0
 11 12  2  0
 12 13  1  0
 13 14  1  0
 14 15  1  0
 15 16  1  0
 16 17  1  0
 17 18  2  0
 17 19  1  0
 19 20  1  0
 20 21  2  0
 21 22  1  0
 22 23  2  0
 23 24  1  0
 24 25  1  0
 25 26  1  0
 25 27  2  0
 25 28  2  0
 24 29  2  0
 14 30  2  0
 30 31  1  0
 31 32  2  0
  7 33  1  0
 33 34  2  0
 34  4  1  0
 31 11  1  0
 29 20  1  0
  1 35  1  0
  1 36  1  0
  1 37  1  0
  5 38  1  0
  6 39  1  0
 12 40  1  0
 16 41  1  0
 16 42  1  0
 21 43  1  0
 22 44  1  0
 23 45  1  0
 26 46  1  0
 26 47  1  0
 29 48  1  0
 33 49  1  0
 34 50  1  0
M  CHG  2  13  -1  19  -1
M  END
>  <UniqueID>  (89) 
78

>  <SMILES>  (89) 
CC(=O)c1ccc(S(=O)(=O)c2c[n-]c(SCC(=O)[N-]c3cccc(S(N)(=O)=O)c3)nc2=O)cc1

>  <Energy>  (89) 
54.154196751585694

>  <Genealogy>  (89) 
CC(=O)c1ccc(S(=O)(=O)c2c[n-]c(SCC(=O)[N-]c3cccc(S(N)(=O)=O)c3)nc2=O)cc1 (protonated)
CC(=O)c1ccc(S(=O)(=O)c2c[n-]c(SCC(=O)[N-]c3cccc(S(N)(=O)=O)c3)nc2=O)cc1 (3D coordinates assigned)
CC(=O)c1ccc(S(=O)(=O)c2c[n-]c(SCC(=O)[N-]c3cccc(S(N)(=O)=O)c3)nc2=O)cc1 (optimized conformer: 54.154196751585694 kcal/mol)

>  <smiles>  (89) 
CC(=O)c1ccc(S(=O)(=O)c2c[nH]c(SCC(=O)Nc3cccc(S(N)(=O)=O)c3)nc2=O)cc1

>  <score_type>  (89) 
oracle

>  <origin>  (89) 
adg

>  <m_score__min__energy>  (89) 
-13.18

>  <m_primary>  (89) 
energy

$$$$
89:0
     RDKit          3D

 65 68  0  0  0  0  0  0  0  0999 V2000
   57.2780   31.5086   54.4449 H   0  0  0  0  0  0  0  0  0  0  0  0
   57.4200   30.8640   53.5650 C   0  0  0  0  0  0  0  0  0  0  0  0
   56.2380   30.2440   52.9350 C   0  0  0  0  0  0  0  0  0  0  0  0
   56.2860   29.8450   51.7380 O   0  0  0  0  0  0  0  0  0  0  0  0
   55.0290   30.0980   53.6940 N   0  0  0  0  0  0  0  0  0  0  0  0
   55.0890   30.1330   54.7350 H   0  0  0  0  0  0  0  0  0  0  0  0
   53.8030   29.6440   53.1030 C   0  0  0  0  0  0  0  0  0  0  0  0
   53.0680   28.6420   53.7530 C   0  0  0  0  0  0  0  0  0  0  0  0
   53.4238   28.2391   54.7127 H   0  0  0  0  0  0  0  0  0  0  0  0
   51.8870   28.1520   53.1900 C   0  0  0  0  0  0  0  0  0  0  0  0
   51.3208   27.3599   53.7018 H   0  0  0  0  0  0  0  0  0  0  0  0
   51.4260   28.6680   51.9780 C   0  0  0  0  0  0  0  0  0  0  0  0
   50.5035   28.2718   51.5285 H   0  0  0  0  0  0  0  0  0  0  0  0
   52.1320   29.6850   51.3350 C   0  0  0  0  0  0  0  0  0  0  0  0
   51.7584   30.0926   50.3841 H   0  0  0  0  0  0  0  0  0  0  0  0
   53.3170   30.1920   51.8940 C   0  0  0  0  0  0  0  0  0  0  0  0
   53.9770   31.2910   51.2520 N   0  0  0  0  0  0  0  0  0  0  0  0
   53.5370   32.2370   51.2360 H   0  0  0  0  0  0  0  0  0  0  0  0
   54.9440   31.2010   50.8660 H   0  0  0  0  0  0  0  0  0  0  0  0
   60.4430   34.6650   48.0770 C   0  0  0  0  0  0  0  0  0  0  0  0
   59.9824   35.6089   48.4040 H   0  0  0  0  0  0  0  0  0  0  0  0
   59.2990   31.4600   52.0110 C   0  0  0  0  0  0  0  0  0  0  0  0
   60.4630   31.0510   51.3300 C   0  0  0  0  0  0  0  0  0  0  0  0
   60.9308   30.0871   51.5791 H   0  0  0  0  0  0  0  0  0  0  0  0
   61.0280   31.8610   50.3400 C   0  0  0  0  0  0  0  0  0  0  0  0
   61.9317   31.5228   49.8119 H   0  0  0  0  0  0  0  0  0  0  0  0
   60.4570   33.0990   50.0120 C   0  0  0  0  0  0  0  0  0  0  0  0
   61.1140   33.9320   48.9750 C   0  0  0  0  0  0  0  0  0  0  0  0
   62.2134   33.9486   48.9418 H   0  0  0  0  0  0  0  0  0  0  0  0
   58.6630   30.6660   53.0980 C   0  0  0  0  0  0  0  0  0  0  0  0
   59.2551   29.8577   53.5519 H   0  0  0  0  0  0  0  0  0  0  0  0
   60.2970   34.2570   46.6670 C   0  0  0  0  0  0  0  0  0  0  0  0
   61.3220   33.8480   46.0580 O   0  0  0  0  0  0  0  0  0  0  0  0
   59.0230   34.2620   45.9910 N   0  0  0  0  0  0  0  0  0  0  0  0
   57.8070   33.8050   46.6820 C   0  0  0  0  0  0  0  0  0  0  0  0
   58.0923   33.1763   47.5383 H   0  0  0  0  0  0  0  0  0  0  0  0
   57.2432   34.6843   47.0270 H   0  0  0  0  0  0  0  0  0  0  0  0
   56.9190   32.9890   45.7300 C   0  0  0  0  0  0  0  0  0  0  0  0
   56.2789   32.3117   46.3145 H   0  0  0  0  0  0  0  0  0  0  0  0
   56.2870   33.6699   45.1410 H   0  0  0  0  0  0  0  0  0  0  0  0
   57.7740   32.1990   44.8230 N   0  0  0  0  0  0  0  0  0  0  0  0
   56.9770   31.1910   44.0950 C   0  0  0  0  0  0  0  0  0  0  0  0
   55.9158   31.3088   44.3595 H   0  0  0  0  0  0  0  0  0  0  0  0
   57.1174   31.3396   43.0142 H   0  0  0  0  0  0  0  0  0  0  0  0
   57.4270   29.7990   44.4580 C   0  0  0  0  0  0  0  0  0  0  0  0
   58.7430   29.3930   44.1840 C   0  0  0  0  0  0  0  0  0  0  0  0
   59.4519   30.1023   43.7320 H   0  0  0  0  0  0  0  0  0  0  0  0
   59.1560   28.0920   44.4830 C   0  0  0  0  0  0  0  0  0  0  0  0
   60.1897   27.7815   44.2706 H   0  0  0  0  0  0  0  0  0  0  0  0
   58.2570   27.1840   45.0520 C   0  0  0  0  0  0  0  0  0  0  0  0
   58.5833   26.1602   45.2874 H   0  0  0  0  0  0  0  0  0  0  0  0
   56.9440   27.5790   45.3210 C   0  0  0  0  0  0  0  0  0  0  0  0
   56.2366   26.8646   45.7673 H   0  0  0  0  0  0  0  0  0  0  0  0
   56.5270   28.8810   45.0240 C   0  0  0  0  0  0  0  0  0  0  0  0
   55.4915   29.1867   45.2343 H   0  0  0  0  0  0  0  0  0  0  0  0
   58.5270   33.0750   43.8860 C   0  0  0  0  0  0  0  0  0  0  0  0
   59.4245   32.5374   43.5463 H   0  0  0  0  0  0  0  0  0  0  0  0
   57.8569   33.3187   43.0484 H   0  0  0  0  0  0  0  0  0  0  0  0
   58.9640   34.4040   44.5340 C   0  0  0  0  0  0  0  0  0  0  0  0
   59.9586   34.6828   44.1557 H   0  0  0  0  0  0  0  0  0  0  0  0
   58.2324   35.1849   44.2791 H   0  0  0  0  0  0  0  0  0  0  0  0
   59.2770   33.4960   50.6680 C   0  0  0  0  0  0  0  0  0  0  0  0
   58.7979   34.4497   50.4016 H   0  0  0  0  0  0  0  0  0  0  0  0
   58.7100   32.6860   51.6560 C   0  0  0  0  0  0  0  0  0  0  0  0
   57.7900   33.0125   52.1629 H   0  0  0  0  0  0  0  0  0  0  0  0
  1  2  1  0
  2  3  1  0
  3  4  2  0
  3  5  1  0
  5  6  1  0
  5  7  1  0
  7  8  2  0
  8  9  1  0
  8 10  1  0
 10 11  1  0
 10 12  2  0
 12 13  1  0
 12 14  1  0
 14 15  1  0
 14 16  2  0
 16 17  1  0
 17 18  1  0
 17 19  1  0
  2 20  2  0
 20 21  1  0
 20 22  1  0
 22 23  2  0
 23 24  1  0
 23 25  1  0
 25 26  1  0
 25 27  2  0
 27 28  1  0
 28 29  1  0
 28 30  2  0
 30 31  1  0
 30 32  1  0
 32 33  2  0
 32 34  1  0
 34 35  1  0
 35 36  1  0
 35 37  1  0
 35 38  1  0
 38 39  1  0
 38 40  1  0
 38 41  1  0
 41 42  1  0
 42 43  1  0
 42 44  1  0
 42 45  1  0
 45 46  2  0
 46 47  1  0
 46 48  1  0
 48 49  1  0
 48 50  2  0
 50 51  1  0
 50 52  1  0
 52 53  1  0
 52 54  2  0
 54 55  1  0
 41 56  1  0
 56 57  1  0
 56 58  1  0
 56 59  1  0
 59 60  1  0
 59 61  1  0
 27 62  1  0
 62 63  1  0
 62 64  2  0
 64 65  1  0
 16  7  1  0
 64 22  1  0
 59 34  1  0
 54 45  1  0
M  END
>  <UniqueID>  (90) 
79

>  <SMILES>  (90) 
Nc1ccccc1NC(=O)/C=C/c1ccc(/C=C/C(=O)N2CCN(Cc3ccccc3)CC2)cc1

>  <Energy>  (90) 
88.22802812852312

>  <Genealogy>  (90) 
Nc1ccccc1NC(=O)/C=C/c1ccc(/C=C/C(=O)N2CCN(Cc3ccccc3)CC2)cc1 (cis-trans isomerization)
Nc1ccccc1NC(=O)/C=C/c1ccc(/C=C/C(=O)N2CCN(Cc3ccccc3)CC2)cc1 (3D coordinates assigned)
Nc1ccccc1NC(=O)/C=C/c1ccc(/C=C/C(=O)N2CCN(Cc3ccccc3)CC2)cc1 (nonaromatic ring conformer: 88.22802812852312 kcal/mol)

>  <smiles>  (90) 
Nc1ccccc1NC(=O)C=Cc1ccc(C=CC(=O)N2CCN(Cc3ccccc3)CC2)cc1

>  <score_type>  (90) 
oracle

>  <origin>  (90) 
adg

>  <m_score__min__energy>  (90) 
-10.380000000000001

>  <m_primary>  (90) 
energy

$$$$
90:0
     RDKit          3D

 38 40  0  0  0  0  0  0  0  0999 V2000
   60.7850   29.8000   46.5350 C   0  0  0  0  0  0  0  0  0  0  0  0
   59.5360   29.0310   46.2030 C   0  0  0  0  0  0  0  0  0  0  0  0
   59.5030   27.6780   46.4880 C   0  0  0  0  0  0  0  0  0  0  0  0
   58.3720   26.9700   46.1950 C   0  0  0  0  0  0  0  0  0  0  0  0
   57.2780   27.5800   45.6270 C   0  0  0  0  0  0  0  0  0  0  0  0
   57.3430   28.9320   45.3540 C   0  0  0  0  0  0  0  0  0  0  0  0
   56.2640   29.6060   44.7780 C   0  0  0  0  0  0  0  0  0  0  0  0
   55.1990   28.9690   44.4970 O   0  0  0  0  0  0  0  0  0  0  0  0
   56.3650   30.9320   44.5250 N   0  0  0  0  0  0  0  0  0  0  0  0
   57.4430   31.6510   44.7920 C   0  0  0  0  0  0  0  0  0  0  0  0
   57.6570   33.3880   44.4840 S   0  0  0  0  0  0  0  0  0  0  0  0
   57.9480   34.2480   46.0300 C   0  0  0  0  0  0  0  0  0  0  0  0
   59.1040   33.7000   46.7810 C   0  0  0  0  0  0  0  0  0  0  0  0
   58.9050   32.6160   47.4100 O   0  0  0  0  0  0  0  0  0  0  0  0
   60.3590   34.3530   46.7970 N   0  0  0  0  0  0  0  0  0  0  0  0
   61.5020   33.8750   47.4910 C   0  0  0  0  0  0  0  0  0  0  0  0
   61.5510   33.7810   48.8670 C   0  0  0  0  0  0  0  0  0  0  0  0
   62.7230   33.2820   49.4500 C   0  0  0  0  0  0  0  0  0  0  0  0
   63.8010   32.8940   48.6540 C   0  0  0  0  0  0  0  0  0  0  0  0
   64.9470   32.4050   49.2130 F   0  0  0  0  0  0  0  0  0  0  0  0
   63.7470   32.9900   47.2770 C   0  0  0  0  0  0  0  0  0  0  0  0
   62.5790   33.4880   46.6960 C   0  0  0  0  0  0  0  0  0  0  0  0
   58.4970   30.9980   45.3550 N   0  0  0  0  0  0  0  0  0  0  0  0
   58.4650   29.6840   45.6330 C   0  0  0  0  0  0  0  0  0  0  0  0
   60.8946   29.8675   47.6274 H   0  0  0  0  0  0  0  0  0  0  0  0
   61.6579   29.2827   46.1102 H   0  0  0  0  0  0  0  0  0  0  0  0
   60.7161   30.8123   46.1102 H   0  0  0  0  0  0  0  0  0  0  0  0
   60.3724   27.1806   46.9427 H   0  0  0  0  0  0  0  0  0  0  0  0
   58.3357   25.8933   46.4172 H   0  0  0  0  0  0  0  0  0  0  0  0
   56.3706   27.0031   45.3951 H   0  0  0  0  0  0  0  0  0  0  0  0
   58.1410   35.3087   45.8118 H   0  0  0  0  0  0  0  0  0  0  0  0
   57.0531   34.1179   46.6562 H   0  0  0  0  0  0  0  0  0  0  0  0
   60.4720   35.2520   46.2860 H   0  0  0  0  0  0  0  0  0  0  0  0
   60.6960   34.0885   49.4870 H   0  0  0  0  0  0  0  0  0  0  0  0
   62.7939   33.1954   50.5443 H   0  0  0  0  0  0  0  0  0  0  0  0
   64.6007   32.6826   46.6552 H   0  0  0  0  0  0  0  0  0  0  0  0
   62.5085   33.5755   45.6018 H   0  0  0  0  0  0  0  0  0  0  0  0
   59.3910   31.5180   45.5960 H   0  0  0  0  0  0  0  0  0  0  0  0
  1  2  1  0
  2  3  2  0
  3  4  1  0
  4  5  2  0
  5  6  1  0
  6  7  1  0
  7  8  2  0
  7  9  1  0
  9 10  2  0
 10 11  1  0
 11 12  1  0
 12 13  1  0
 13 14  2  0
 13 15  1  0
 15 16  1  0
 16 17  2  0
 17 18  1  0
 18 19  2  0
 19 20  1  0
 19 21  1  0
 21 22  2  0
 10 23  1  0
 23 24  1  0
 24  2  1  0
 24  6  2  0
 22 16  1  0
  1 25  1  0
  1 26  1  0
  1 27  1  0
  3 28  1  0
  4 29  1  0
  5 30  1  0
 12 31  1  0
 12 32  1  0
 15 33  1  0
 17 34  1  0
 18 35  1  0
 21 36  1  0
 22 37  1  0
 23 38  1  0
M  END
>  <smiles>  (91) 
Cc1cccc2c(=O)nc(SCC(=O)Nc3ccc(F)cc3)[nH]c12

>  <score_type>  (91) 
oracle

>  <origin>  (91) 
adg

>  <m_score__min__energy>  (91) 
-8.3000000000000007

>  <m_primary>  (91) 
energy

$$$$
91:0
     RDKit          3D

 62 65  0  0  0  0  0  0  0  0999 V2000
   58.4220   27.7580   44.0680 C   0  0  0  0  0  0  0  0  0  0  0  0
   57.5060   28.6720   44.8840 C   0  0  0  0  0  0  0  0  0  0  0  0
   58.0420   30.1070   44.9690 C   0  0  0  0  0  0  0  0  0  0  0  0
   59.1010   30.2350   46.0190 C   0  0  0  0  0  0  0  0  0  0  0  0
   60.0380   31.2070   46.0170 N   0  0  0  0  0  0  0  0  0  0  0  0
   60.7460   30.9650   47.1370 C   0  0  0  0  0  0  0  0  0  0  0  0
   61.9160   31.7750   47.5400 C   0  0  0  0  0  0  0  0  0  0  0  0
   62.2640   32.9090   46.7870 C   0  0  0  0  0  0  0  0  0  0  0  0
   63.3670   33.6880   47.1510 C   0  0  0  0  0  0  0  0  0  0  0  0
   64.1220   33.3520   48.2760 C   0  0  0  0  0  0  0  0  0  0  0  0
   63.7700   32.2390   49.0450 C   0  0  0  0  0  0  0  0  0  0  0  0
   62.6690   31.4570   48.6850 C   0  0  0  0  0  0  0  0  0  0  0  0
   60.2210   29.8410   47.7620 C   0  0  0  0  0  0  0  0  0  0  0  0
   60.6930   29.1510   49.0060 C   0  0  0  0  0  0  0  0  0  0  0  0
   59.5790   29.0010   49.9510 N   0  0  0  0  0  0  0  0  0  0  0  0
   59.8460   29.6510   51.2440 C   0  0  0  0  0  0  0  0  0  0  0  0
   60.5660   31.0060   51.1130 C   0  0  0  0  0  0  0  0  0  0  0  0
   59.7770   32.1050   51.7170 N   0  0  0  0  0  0  0  0  0  0  0  0
   58.3660   32.0810   51.3210 C   0  0  0  0  0  0  0  0  0  0  0  0
   58.1790   32.3060   49.8170 C   0  0  0  0  0  0  0  0  0  0  0  0
   59.0760   33.3290   49.2390 N   0  0  0  0  0  0  0  0  0  0  0  0
   58.9010   33.7060   47.8360 C   0  0  0  0  0  0  0  0  0  0  0  0
   59.7380   34.6700   47.2230 C   0  0  0  0  0  0  0  0  0  0  0  0
   59.5670   35.0280   45.8820 C   0  0  0  0  0  0  0  0  0  0  0  0
   58.5600   34.4390   45.1210 C   0  0  0  0  0  0  0  0  0  0  0  0
   57.7170   33.4930   45.6990 C   0  0  0  0  0  0  0  0  0  0  0  0
   56.7330   32.9250   44.9580 F   0  0  0  0  0  0  0  0  0  0  0  0
   57.8800   33.1280   47.0390 C   0  0  0  0  0  0  0  0  0  0  0  0
   60.2300   33.8760   49.9860 C   0  0  0  0  0  0  0  0  0  0  0  0
   60.3280   33.4430   51.4600 C   0  0  0  0  0  0  0  0  0  0  0  0
   59.2040   29.4270   47.0500 O   0  0  0  0  0  0  0  0  0  0  0  0
   59.0331   27.1482   44.7497 H   0  0  0  0  0  0  0  0  0  0  0  0
   57.8114   27.0985   43.4338 H   0  0  0  0  0  0  0  0  0  0  0  0
   59.0801   28.3701   43.4338 H   0  0  0  0  0  0  0  0  0  0  0  0
   56.5135   28.6925   44.4102 H   0  0  0  0  0  0  0  0  0  0  0  0
   57.4544   28.2707   45.9069 H   0  0  0  0  0  0  0  0  0  0  0  0
   58.4687   30.3876   43.9947 H   0  0  0  0  0  0  0  0  0  0  0  0
   57.2078   30.7720   45.2369 H   0  0  0  0  0  0  0  0  0  0  0  0
   61.6657   33.1856   45.9064 H   0  0  0  0  0  0  0  0  0  0  0  0
   63.6402   34.5675   46.5494 H   0  0  0  0  0  0  0  0  0  0  0  0
   64.9929   33.9623   48.5571 H   0  0  0  0  0  0  0  0  0  0  0  0
   64.3608   31.9781   49.9354 H   0  0  0  0  0  0  0  0  0  0  0  0
   62.3899   30.5887   49.2999 H   0  0  0  0  0  0  0  0  0  0  0  0
   61.0853   28.1571   48.7447 H   0  0  0  0  0  0  0  0  0  0  0  0
   61.4851   29.7535   49.4745 H   0  0  0  0  0  0  0  0  0  0  0  0
   58.7090   29.3960   49.5250 H   0  0  0  0  0  0  0  0  0  0  0  0
   58.8864   29.8147   51.7562 H   0  0  0  0  0  0  0  0  0  0  0  0
   60.5125   28.9837   51.8102 H   0  0  0  0  0  0  0  0  0  0  0  0
   61.5390   30.9437   51.6224 H   0  0  0  0  0  0  0  0  0  0  0  0
   60.6954   31.2241   50.0426 H   0  0  0  0  0  0  0  0  0  0  0  0
   57.9406   31.1023   51.5876 H   0  0  0  0  0  0  0  0  0  0  0  0
   57.8548   32.8993   51.8493 H   0  0  0  0  0  0  0  0  0  0  0  0
   58.3652   31.3529   49.3003 H   0  0  0  0  0  0  0  0  0  0  0  0
   57.1515   32.6735   49.6787 H   0  0  0  0  0  0  0  0  0  0  0  0
   60.5364   35.1453   47.8118 H   0  0  0  0  0  0  0  0  0  0  0  0
   60.2305   35.7778   45.4263 H   0  0  0  0  0  0  0  0  0  0  0  0
   58.4308   34.7205   44.0655 H   0  0  0  0  0  0  0  0  0  0  0  0
   57.2055   32.3805   47.4821 H   0  0  0  0  0  0  0  0  0  0  0  0
   61.1490   33.5523   49.4754 H   0  0  0  0  0  0  0  0  0  0  0  0
   60.0925   34.9673   49.9993 H   0  0  0  0  0  0  0  0  0  0  0  0
   61.3881   33.4450   51.7535 H   0  0  0  0  0  0  0  0  0  0  0  0
   59.7307   34.1565   52.0467 H   0  0  0  0  0  0  0  0  0  0  0  0
  1  2  1  0
  2  3  1  0
  3  4  1  0
  4  5  2  0
  5  6  1  0
  6  7  1  0
  7  8  2  0
  8  9  1  0
  9 10  2  0
 10 11  1  0
 11 12  2  0
  6 13  2  0
 13 14  1  0
 14 15  1  0
 15 16  1  0
 16 17  1  0
 17 18  1  0
 18 19  1  0
 19 20  1  0
 20 21  1  0
 21 22  1  0
 22 23  2  0
 23 24  1  0
 24 25  2  0
 25 26  1  0
 26 27  1  0
 26 28  2  0
 21 29  1  0
 29 30  1  0
 13 31  1  0
 31  4  1  0
 12  7  1  0
 30 18  1  0
 28 22  1  0
  1 32  1  0
  1 33  1  0
  1 34  1  0
  2 35  1  0
  2 36  1  0
  3 37  1  0
  3 38  1  0
  8 39  1  0
  9 40  1  0
 10 41  1  0
 11 42  1  0
 12 43  1  0
 14 44  1  0
 14 45  1  0
 15 46  1  0
 16 47  1  0
 16 48  1  0
 17 49  1  0
 17 50  1  0
 19 51  1  0
 19 52  1  0
 20 53  1  0
 20 54  1  0
 23 55  1  0
 24 56  1  0
 25 57  1  0
 28 58  1  0
 29 59  1  0
 29 60  1  0
 30 61  1  0
 30 62  1  0
M  END
>  <UniqueID>  (92) 
80

>  <SMILES>  (92) 
CCCc1nc(-c2ccccc2)c(CNCCN2CCN(c3cccc(F)c3)CC2)o1

>  <Energy>  (92) 
102.99790214513821

>  <Genealogy>  (92) 
CCCc1nc(-c2ccccc2)c(CNCCN2CCN(c3cccc(F)c3)CC2)o1 (3D coordinates assigned)
CCCc1nc(-c2ccccc2)c(CNCCN2CCN(c3cccc(F)c3)CC2)o1 (nonaromatic ring conformer: 102.99790214513821 kcal/mol)

>  <smiles>  (92) 
CCCc1nc(-c2ccccc2)c(CNCCN2CCN(c3cccc(F)c3)CC2)o1

>  <score_type>  (92) 
oracle

>  <origin>  (92) 
adg

>  <m_score__min__energy>  (92) 
-8.3800000000000008

>  <m_primary>  (92) 
energy

$$$$
92:0
     RDKit          3D

 48 50  0  0  0  0  0  0  0  0999 V2000
   62.1950   33.7170   47.8160 C   0  0  0  0  0  0  0  0  0  0  0  0
   61.3240   34.2200   48.9630 C   0  0  0  0  0  0  0  0  0  0  0  0
   60.1990   34.9410   48.4640 O   0  0  0  0  0  0  0  0  0  0  0  0
   59.7050   34.7990   47.1600 C   0  0  0  0  0  0  0  0  0  0  0  0
   59.9160   35.7020   46.3030 O   0  0  0  0  0  0  0  0  0  0  0  0
   58.9460   33.6290   46.8000 N   0  0  0  0  0  0  0  0  0  0  0  0
   58.2830   33.5760   45.4870 C   0  0  0  0  0  0  0  0  0  0  0  0
   57.3700   32.3530   45.3640 C   0  0  0  0  0  0  0  0  0  0  0  0
   58.0780   31.1540   45.8220 N   0  0  0  0  0  0  0  0  0  0  0  0
   58.1530   29.9950   44.9730 C   0  0  0  0  0  0  0  0  0  0  0  0
   58.4400   30.1410   43.7530 O   0  0  0  0  0  0  0  0  0  0  0  0
   57.9080   28.6360   45.5040 C   0  0  0  0  0  0  0  0  0  0  0  0
   58.9430   27.9160   46.1230 C   0  0  0  0  0  0  0  0  0  0  0  0
   58.7060   26.6390   46.6330 C   0  0  0  0  0  0  0  0  0  0  0  0
   57.4330   26.0710   46.5430 C   0  0  0  0  0  0  0  0  0  0  0  0
   56.3830   26.7800   45.9480 C   0  0  0  0  0  0  0  0  0  0  0  0
   55.0910   26.1620   45.8840 N   0  0  0  0  0  0  0  0  0  0  0  0
   54.7850   24.4620   46.0350 S   0  0  0  0  0  0  0  0  0  0  0  0
   53.3250   24.1800   45.8190 O   0  0  0  0  0  0  0  0  0  0  0  0
   55.2040   24.0010   47.4030 O   0  0  0  0  0  0  0  0  0  0  0  0
   55.7210   23.6060   44.8250 C   0  0  0  0  0  0  0  0  0  0  0  0
   56.9790   23.0540   45.0180 C   0  0  0  0  0  0  0  0  0  0  0  0
   57.4880   22.4440   43.8650 C   0  0  0  0  0  0  0  0  0  0  0  0
   56.6330   22.5200   42.7720 C   0  0  0  0  0  0  0  0  0  0  0  0
   55.2440   23.3460   43.2360 S   0  0  0  0  0  0  0  0  0  0  0  0
   56.6240   28.0680   45.4330 C   0  0  0  0  0  0  0  0  0  0  0  0
   58.8390   31.1800   47.0820 C   0  0  0  0  0  0  0  0  0  0  0  0
   58.7440   32.5450   47.7730 C   0  0  0  0  0  0  0  0  0  0  0  0
   63.0796   33.2061   48.2241 H   0  0  0  0  0  0  0  0  0  0  0  0
   61.6176   33.0133   47.1984 H   0  0  0  0  0  0  0  0  0  0  0  0
   62.5159   34.5688   47.1984 H   0  0  0  0  0  0  0  0  0  0  0  0
   60.9699   33.3605   49.5511 H   0  0  0  0  0  0  0  0  0  0  0  0
   61.9238   34.8931   49.5932 H   0  0  0  0  0  0  0  0  0  0  0  0
   57.6797   34.4863   45.3550 H   0  0  0  0  0  0  0  0  0  0  0  0
   59.0605   33.5035   44.7123 H   0  0  0  0  0  0  0  0  0  0  0  0
   56.4722   32.5045   45.9812 H   0  0  0  0  0  0  0  0  0  0  0  0
   57.0796   32.2222   44.3111 H   0  0  0  0  0  0  0  0  0  0  0  0
   59.9455   28.3611   46.2062 H   0  0  0  0  0  0  0  0  0  0  0  0
   59.5244   26.0777   47.1075 H   0  0  0  0  0  0  0  0  0  0  0  0
   57.2548   25.0614   46.9417 H   0  0  0  0  0  0  0  0  0  0  0  0
   57.5194   23.0915   45.9754 H   0  0  0  0  0  0  0  0  0  0  0  0
   58.4709   21.9516   43.8279 H   0  0  0  0  0  0  0  0  0  0  0  0
   56.8317   22.1088   41.7713 H   0  0  0  0  0  0  0  0  0  0  0  0
   55.8014   28.6341   44.9716 H   0  0  0  0  0  0  0  0  0  0  0  0
   58.4375   30.4099   47.7570 H   0  0  0  0  0  0  0  0  0  0  0  0
   59.8963   30.9865   46.8483 H   0  0  0  0  0  0  0  0  0  0  0  0
   57.7496   32.6504   48.2314 H   0  0  0  0  0  0  0  0  0  0  0  0
   59.5254   32.6088   48.5445 H   0  0  0  0  0  0  0  0  0  0  0  0
  1  2  1  0
  2  3  1  0
  3  4  1  0
  4  5  2  0
  4  6  1  0
  6  7  1  0
  7  8  1  0
  8  9  1  0
  9 10  1  0
 10 11  2  0
 10 12  1  0
 12 13  2  0
 13 14  1  0
 14 15  2  0
 15 16  1  0
 16 17  1  0
 17 18  1  0
 18 19  2  0
 18 20  2  0
 18 21  1  0
 21 22  2  0
 22 23  1  0
 23 24  2  0
 24 25  1  0
 16 26  2  0
  9 27  1  0
 27 28  1  0
 28  6  1  0
 26 12  1  0
 25 21  1  0
  1 29  1  0
  1 30  1  0
  1 31  1  0
  2 32  1  0
  2 33  1  0
  7 34  1  0
  7 35  1  0
  8 36  1  0
  8 37  1  0
 13 38  1  0
 14 39  1  0
 15 40  1  0
 22 41  1  0
 23 42  1  0
 24 43  1  0
 26 44  1  0
 27 45  1  0
 27 46  1  0
 28 47  1  0
 28 48  1  0
M  CHG  1  17  -1
M  END
>  <UniqueID>  (93) 
81

>  <SMILES>  (93) 
CCOC(=O)N1CCN(C(=O)c2cccc([N-]S(=O)(=O)c3cccs3)c2)CC1

>  <Energy>  (93) 
80.21469840912721

>  <Genealogy>  (93) 
CCOC(=O)N1CCN(C(=O)c2cccc([N-]S(=O)(=O)c3cccs3)c2)CC1 (protonated)
CCOC(=O)N1CCN(C(=O)c2cccc([N-]S(=O)(=O)c3cccs3)c2)CC1 (3D coordinates assigned)
CCOC(=O)N1CCN(C(=O)c2cccc([N-]S(=O)(=O)c3cccs3)c2)CC1 (nonaromatic ring conformer: 80.21469840912721 kcal/mol)

>  <smiles>  (93) 
CCOC(=O)N1CCN(C(=O)c2cccc(NS(=O)(=O)c3cccs3)c2)CC1

>  <score_type>  (93) 
oracle

>  <origin>  (93) 
adg

>  <m_score__min__energy>  (93) 
-10.18

>  <m_primary>  (93) 
energy

$$$$
93:0
     RDKit          3D

 36 38  0  0  0  0  0  0  0  0999 V2000
   56.0920   21.8580   45.8980 C   0  0  0  0  0  0  0  0  0  0  0  0
   55.1410   22.9940   44.9140 S   0  0  0  0  0  0  0  0  0  0  0  0
   53.6770   22.7090   45.1060 O   0  0  0  0  0  0  0  0  0  0  0  0
   55.4860   22.8280   43.4610 O   0  0  0  0  0  0  0  0  0  0  0  0
   55.4820   24.6390   45.4150 C   0  0  0  0  0  0  0  0  0  0  0  0
   54.5380   25.5860   45.6270 N   0  0  0  0  0  0  0  0  0  0  0  0
   55.1580   26.6780   45.9940 O   0  0  0  0  0  0  0  0  0  0  0  0
   56.4520   26.4740   46.0280 C   0  0  0  0  0  0  0  0  0  0  0  0
   57.4630   27.3690   46.3640 C   0  0  0  0  0  0  0  0  0  0  0  0
   58.8000   26.9010   46.3310 C   0  0  0  0  0  0  0  0  0  0  0  0
   59.8870   27.7960   46.6380 N   0  0  0  0  0  0  0  0  0  0  0  0
   60.2420   28.5840   45.4510 C   0  0  0  0  0  0  0  0  0  0  0  0
   59.4760   29.8820   45.4310 C   0  0  0  0  0  0  0  0  0  0  0  0
   58.4970   30.1120   44.4510 C   0  0  0  0  0  0  0  0  0  0  0  0
   57.8120   31.3300   44.4130 C   0  0  0  0  0  0  0  0  0  0  0  0
   58.1090   32.3310   45.3430 C   0  0  0  0  0  0  0  0  0  0  0  0
   57.2500   33.8600   45.2910 Cl  0  0  0  0  0  0  0  0  0  0  0  0
   59.0940   32.1150   46.3120 C   0  0  0  0  0  0  0  0  0  0  0  0
   59.7800   30.8960   46.3540 C   0  0  0  0  0  0  0  0  0  0  0  0
   59.0650   25.5590   45.9410 C   0  0  0  0  0  0  0  0  0  0  0  0
   58.0140   24.6840   45.6080 C   0  0  0  0  0  0  0  0  0  0  0  0
   56.7180   25.1870   45.6670 C   0  0  0  0  0  0  0  0  0  0  0  0
   55.9197   22.0638   46.9648 H   0  0  0  0  0  0  0  0  0  0  0  0
   55.7835   20.8273   45.6689 H   0  0  0  0  0  0  0  0  0  0  0  0
   57.1609   21.9803   45.6689 H   0  0  0  0  0  0  0  0  0  0  0  0
   57.2317   28.4067   46.6462 H   0  0  0  0  0  0  0  0  0  0  0  0
   60.7180   27.2420   46.9570 H   0  0  0  0  0  0  0  0  0  0  0  0
   59.6060   28.4370   47.4180 H   0  0  0  0  0  0  0  0  0  0  0  0
   61.3204   28.8002   45.4692 H   0  0  0  0  0  0  0  0  0  0  0  0
   59.9865   28.0060   44.5506 H   0  0  0  0  0  0  0  0  0  0  0  0
   58.2683   29.3312   43.7107 H   0  0  0  0  0  0  0  0  0  0  0  0
   57.0381   31.5012   43.6503 H   0  0  0  0  0  0  0  0  0  0  0  0
   59.3297   32.9038   47.0416 H   0  0  0  0  0  0  0  0  0  0  0  0
   60.5597   30.7315   47.1123 H   0  0  0  0  0  0  0  0  0  0  0  0
   60.1041   25.2006   45.8991 H   0  0  0  0  0  0  0  0  0  0  0  0
   58.2096   23.6427   45.3125 H   0  0  0  0  0  0  0  0  0  0  0  0
  1  2  1  0
  2  3  2  0
  2  4  2  0
  2  5  1  0
  5  6  2  0
  6  7  1  0
  7  8  1  0
  8  9  2  0
  9 10  1  0
 10 11  1  0
 11 12  1  0
 12 13  1  0
 13 14  2  0
 14 15  1  0
 15 16  2  0
 16 17  1  0
 16 18  1  0
 18 19  2  0
 10 20  2  0
 20 21  1  0
 21 22  2  0
 22  5  1  0
 22  8  1  0
 19 13  1  0
  1 23  1  0
  1 24  1  0
  1 25  1  0
  9 26  1  0
 11 27  1  0
 11 28  1  0
 12 29  1  0
 12 30  1  0
 14 31  1  0
 15 32  1  0
 18 33  1  0
 19 34  1  0
 20 35  1  0
 21 36  1  0
M  CHG  1  11   1
M  END
>  <UniqueID>  (94) 
82

>  <SMILES>  (94) 
CS(=O)(=O)c1noc2cc([NH2+]Cc3ccc(Cl)cc3)ccc12

>  <Energy>  (94) 
74.79297040862997

>  <Genealogy>  (94) 
CS(=O)(=O)c1noc2cc([NH2+]Cc3ccc(Cl)cc3)ccc12 (protonated)
CS(=O)(=O)c1noc2cc([NH2+]Cc3ccc(Cl)cc3)ccc12 (3D coordinates assigned)
CS(=O)(=O)c1noc2cc([NH2+]Cc3ccc(Cl)cc3)ccc12 (optimized conformer: 74.79297040862997 kcal/mol)

>  <smiles>  (94) 
CS(=O)(=O)c1noc2cc(NCc3ccc(Cl)cc3)ccc12

>  <score_type>  (94) 
oracle

>  <origin>  (94) 
adg

>  <m_score__min__energy>  (94) 
-7.2999999999999998

>  <m_primary>  (94) 
energy

$$$$
94:0
     RDKit          3D

 29 29  0  0  0  0  0  0  0  0999 V2000
   57.3950   33.6060   45.1700 C   0  0  0  0  0  0  0  0  0  0  0  0
   57.8430   32.2930   44.5390 C   0  0  0  0  0  0  0  0  0  0  0  0
   57.3250   31.1810   45.2680 O   0  0  0  0  0  0  0  0  0  0  0  0
   57.5590   29.8480   44.9110 C   0  0  0  0  0  0  0  0  0  0  0  0
   58.6140   29.5210   44.3010 O   0  0  0  0  0  0  0  0  0  0  0  0
   56.5640   28.8250   45.2440 C   0  0  0  0  0  0  0  0  0  0  0  0
   55.3720   28.9720   44.8640 O   0  0  0  0  0  0  0  0  0  0  0  0
   56.9680   27.6450   45.9510 N   0  0  0  0  0  0  0  0  0  0  0  0
   56.9110   26.2950   45.4670 C   0  0  0  0  0  0  0  0  0  0  0  0
   55.9410   25.4340   45.9930 C   0  0  0  0  0  0  0  0  0  0  0  0
   55.8370   24.1170   45.5350 C   0  0  0  0  0  0  0  0  0  0  0  0
   56.6930   23.6510   44.5290 C   0  0  0  0  0  0  0  0  0  0  0  0
   56.5650   21.9900   43.9610 S   0  0  0  0  0  0  0  0  0  0  0  0
   58.1380   21.2750   43.8850 N   0  0  0  0  0  0  0  0  0  0  0  0
   55.7130   21.1900   44.9070 O   0  0  0  0  0  0  0  0  0  0  0  0
   55.9410   21.9760   42.5950 O   0  0  0  0  0  0  0  0  0  0  0  0
   57.6550   24.5130   43.9870 C   0  0  0  0  0  0  0  0  0  0  0  0
   57.7600   25.8310   44.4440 C   0  0  0  0  0  0  0  0  0  0  0  0
   57.4259   33.5155   46.2658 H   0  0  0  0  0  0  0  0  0  0  0  0
   58.0679   34.4151   44.8498 H   0  0  0  0  0  0  0  0  0  0  0  0
   56.3679   33.8350   44.8498 H   0  0  0  0  0  0  0  0  0  0  0  0
   57.4776   32.2472   43.5025 H   0  0  0  0  0  0  0  0  0  0  0  0
   58.9419   32.2479   44.5583 H   0  0  0  0  0  0  0  0  0  0  0  0
   55.2550   25.7963   46.7729 H   0  0  0  0  0  0  0  0  0  0  0  0
   55.0805   23.4447   45.9661 H   0  0  0  0  0  0  0  0  0  0  0  0
   58.1080   20.5490   43.1350 H   0  0  0  0  0  0  0  0  0  0  0  0
   58.2880   20.7700   44.7870 H   0  0  0  0  0  0  0  0  0  0  0  0
   58.3312   24.1518   43.1982 H   0  0  0  0  0  0  0  0  0  0  0  0
   58.5077   26.5066   44.0030 H   0  0  0  0  0  0  0  0  0  0  0  0
  1  2  1  0
  2  3  1  0
  3  4  1  0
  4  5  2  0
  4  6  1  0
  6  7  2  0
  6  8  1  0
  8  9  1  0
  9 10  2  0
 10 11  1  0
 11 12  2  0
 12 13  1  0
 13 14  1  0
 13 15  2  0
 13 16  2  0
 12 17  1  0
 17 18  2  0
 18  9  1  0
  1 19  1  0
  1 20  1  0
  1 21  1  0
  2 22  1  0
  2 23  1  0
 10 24  1  0
 11 25  1  0
 14 26  1  0
 14 27  1  0
 17 28  1  0
 18 29  1  0
M  CHG  1   8  -1
M  END
>  <UniqueID>  (95) 
83

>  <SMILES>  (95) 
CCOC(=O)C(=O)[N-]c1ccc(S(N)(=O)=O)cc1

>  <Energy>  (95) 
23.829260999837825

>  <Genealogy>  (95) 
CCOC(=O)C(=O)[N-]c1ccc(S(N)(=O)=O)cc1 (protonated)
CCOC(=O)C(=O)[N-]c1ccc(S(N)(=O)=O)cc1 (3D coordinates assigned)
CCOC(=O)C(=O)[N-]c1ccc(S(N)(=O)=O)cc1 (optimized conformer: 23.829260999837825 kcal/mol)

>  <smiles>  (95) 
CCOC(=O)C(=O)Nc1ccc(S(N)(=O)=O)cc1

>  <score_type>  (95) 
oracle

>  <origin>  (95) 
adg

>  <m_score__min__energy>  (95) 
-7.7699999999999996

>  <m_primary>  (95) 
energy

$$$$
