0:0
     RDKit          3D

 41 43  0  0  0  0  0  0  0  0999 V2000
   60.2810   25.7220   46.0570 O   0  0  0  0  0  0  0  0  0  0  0  0
   59.1940   26.1570   46.5250 C   0  0  0  0  0  0  0  0  0  0  0  0
   57.9390   26.0130   45.7060 C   0  0  0  0  0  0  0  0  0  0  0  0
   57.3880   27.3750   45.3520 C   0  0  0  0  0  0  0  0  0  0  0  0
   56.0220   27.6650   45.5240 C   0  0  0  0  0  0  0  0  0  0  0  0
   55.1560   26.7150   46.0550 O   0  0  0  0  0  0  0  0  0  0  0  0
   55.5350   28.8840   45.1720 N   0  0  0  0  0  0  0  0  0  0  0  0
   56.3450   29.8380   44.6450 C   0  0  0  0  0  0  0  0  0  0  0  0
   55.8700   30.9600   44.3260 O   0  0  0  0  0  0  0  0  0  0  0  0
   57.6670   29.5830   44.4630 N   0  0  0  0  0  0  0  0  0  0  0  0
   58.2060   28.3820   44.7990 C   0  0  0  0  0  0  0  0  0  0  0  0
   59.4380   28.1870   44.6160 O   0  0  0  0  0  0  0  0  0  0  0  0
   59.2210   26.9080   47.7480 N   0  0  0  0  0  0  0  0  0  0  0  0
   59.4170   28.3220   47.8610 C   0  0  0  0  0  0  0  0  0  0  0  0
   60.4010   28.9410   47.0800 C   0  0  0  0  0  0  0  0  0  0  0  0
   60.6070   30.3210   47.1660 C   0  0  0  0  0  0  0  0  0  0  0  0
   59.8390   31.0950   48.0490 C   0  0  0  0  0  0  0  0  0  0  0  0
   60.0700   32.8460   48.1300 S   0  0  0  0  0  0  0  0  0  0  0  0
   61.4740   33.1750   47.7010 O   0  0  0  0  0  0  0  0  0  0  0  0
   59.9010   33.2970   49.5550 O   0  0  0  0  0  0  0  0  0  0  0  0
   58.9470   33.7210   47.1160 N   0  0  0  0  0  0  0  0  0  0  0  0
   59.6150   34.3740   45.9910 C   0  0  0  0  0  0  0  0  0  0  0  0
   58.5760   34.5110   44.8870 C   0  0  0  0  0  0  0  0  0  0  0  0
   57.4730   33.5250   45.2480 C   0  0  0  0  0  0  0  0  0  0  0  0
   57.9470   32.8410   46.5190 C   0  0  0  0  0  0  0  0  0  0  0  0
   58.8940   30.4670   48.8730 C   0  0  0  0  0  0  0  0  0  0  0  0
   58.6880   29.0870   48.7850 C   0  0  0  0  0  0  0  0  0  0  0  0
   58.1693   25.4627   44.7818 H   0  0  0  0  0  0  0  0  0  0  0  0
   57.1883   25.4635   46.2929 H   0  0  0  0  0  0  0  0  0  0  0  0
   61.0152   28.3379   46.3951 H   0  0  0  0  0  0  0  0  0  0  0  0
   61.3732   30.8013   46.5398 H   0  0  0  0  0  0  0  0  0  0  0  0
   59.9820   35.3664   46.2918 H   0  0  0  0  0  0  0  0  0  0  0  0
   60.4809   33.7877   45.6497 H   0  0  0  0  0  0  0  0  0  0  0  0
   58.1804   35.5369   44.8555 H   0  0  0  0  0  0  0  0  0  0  0  0
   59.0026   34.3035   43.8946 H   0  0  0  0  0  0  0  0  0  0  0  0
   56.5256   34.0549   45.4259 H   0  0  0  0  0  0  0  0  0  0  0  0
   57.2870   32.8034   44.4388 H   0  0  0  0  0  0  0  0  0  0  0  0
   57.1039   32.6993   47.2112 H   0  0  0  0  0  0  0  0  0  0  0  0
   58.3693   31.8486   46.3025 H   0  0  0  0  0  0  0  0  0  0  0  0
   58.3122   31.0628   49.5918 H   0  0  0  0  0  0  0  0  0  0  0  0
   57.9526   28.5993   49.4417 H   0  0  0  0  0  0  0  0  0  0  0  0
  1  2  2  0
  2  3  1  0
  3  4  1  0
  4  5  2  0
  5  6  1  0
  5  7  1  0
  7  8  1  0
  8  9  2  0
  8 10  1  0
 10 11  1  0
 11 12  2  0
  2 13  1  0
 13 14  1  0
 14 15  2  0
 15 16  1  0
 16 17  2  0
 17 18  1  0
 18 19  2  0
 18 20  2  0
 18 21  1  0
 21 22  1  0
 22 23  1  0
 23 24  1  0
 24 25  1  0
 17 26  1  0
 26 27  2  0
 11  4  1  0
 27 14  1  0
 25 21  1  0
  3 28  1  0
  3 29  1  0
 15 30  1  0
 16 31  1  0
 22 32  1  0
 22 33  1  0
 23 34  1  0
 23 35  1  0
 24 36  1  0
 24 37  1  0
 25 38  1  0
 25 39  1  0
 26 40  1  0
 27 41  1  0
M  CHG  4   6  -1   7  -1  10  -1  13  -1
M  END
>  <UniqueID>  (1) 
1

>  <SMILES>  (1) 
O=C(Cc1c([O-])[n-]c(=O)[n-]c1=O)[N-]c1ccc(S(=O)(=O)N2CCCC2)cc1

>  <Energy>  (1) 
49.77075948148802

>  <Genealogy>  (1) 
O=C(Cc1c([O-])[n-]c(=O)[n-]c1=O)[N-]c1ccc(S(=O)(=O)N2CCCC2)cc1 (protonated)
O=C(Cc1c([O-])[n-]c(=O)[n-]c1=O)[N-]c1ccc(S(=O)(=O)N2CCCC2)cc1 (3D coordinates assigned)
O=C(Cc1c([O-])[n-]c(=O)[n-]c1=O)[N-]c1ccc(S(=O)(=O)N2CCCC2)cc1 (nonaromatic ring conformer: 49.77075948148802 kcal/mol)

>  <smiles>  (1) 
O=C(Cc1c(O)[nH]c(=O)[nH]c1=O)Nc1ccc(S(=O)(=O)N2CCCC2)cc1

>  <score_type>  (1) 
oracle

>  <origin>  (1) 
adg

>  <m_score__min__energy>  (1) 
-17.149999999999999

>  <m_primary>  (1) 
energy

$$$$
1:0
     RDKit          3D

 41 43  0  0  0  0  0  0  0  0999 V2000
   61.3080   32.7950   48.3420 C   0  0  0  0  0  0  0  0  0  0  0  0
   60.8790   31.4030   47.9840 C   0  0  0  0  0  0  0  0  0  0  0  0
   60.1050   30.6580   48.8850 C   0  0  0  0  0  0  0  0  0  0  0  0
   59.6920   29.3620   48.5590 C   0  0  0  0  0  0  0  0  0  0  0  0
   60.0420   28.8030   47.3230 C   0  0  0  0  0  0  0  0  0  0  0  0
   59.5930   27.1430   46.9330 S   0  0  0  0  0  0  0  0  0  0  0  0
   60.8100   26.3390   46.5700 O   0  0  0  0  0  0  0  0  0  0  0  0
   58.9350   26.5230   48.1320 O   0  0  0  0  0  0  0  0  0  0  0  0
   58.4850   27.1180   45.5960 N   0  0  0  0  0  0  0  0  0  0  0  0
   57.6760   28.2260   45.1710 C   0  0  0  0  0  0  0  0  0  0  0  0
   58.2400   29.4170   44.6890 C   0  0  0  0  0  0  0  0  0  0  0  0
   57.4250   30.4970   44.3100 C   0  0  0  0  0  0  0  0  0  0  0  0
   58.0120   31.7880   43.8570 C   0  0  0  0  0  0  0  0  0  0  0  0
   58.1250   32.0260   42.6250 O   0  0  0  0  0  0  0  0  0  0  0  0
   58.4120   32.8410   44.8130 C   0  0  0  0  0  0  0  0  0  0  0  0
   58.9390   34.0420   44.3100 C   0  0  0  0  0  0  0  0  0  0  0  0
   59.2810   35.0820   45.1780 C   0  0  0  0  0  0  0  0  0  0  0  0
   59.1070   34.9310   46.5550 C   0  0  0  0  0  0  0  0  0  0  0  0
   58.5990   33.7340   47.0680 C   0  0  0  0  0  0  0  0  0  0  0  0
   58.2590   32.6810   46.2100 C   0  0  0  0  0  0  0  0  0  0  0  0
   57.7790   31.4950   46.7670 O   0  0  0  0  0  0  0  0  0  0  0  0
   56.0320   30.3410   44.4100 C   0  0  0  0  0  0  0  0  0  0  0  0
   55.5020   29.1760   44.8670 N   0  0  0  0  0  0  0  0  0  0  0  0
   56.2800   28.1290   45.2460 C   0  0  0  0  0  0  0  0  0  0  0  0
   55.7360   27.0720   45.6630 O   0  0  0  0  0  0  0  0  0  0  0  0
   60.7960   29.5530   46.4130 C   0  0  0  0  0  0  0  0  0  0  0  0
   61.2110   30.8480   46.7390 C   0  0  0  0  0  0  0  0  0  0  0  0
   61.3400   32.8987   49.4366 H   0  0  0  0  0  0  0  0  0  0  0  0
   62.3076   32.9890   47.9260 H   0  0  0  0  0  0  0  0  0  0  0  0
   60.5910   33.5181   47.9260 H   0  0  0  0  0  0  0  0  0  0  0  0
   59.8210   31.0952   49.8536 H   0  0  0  0  0  0  0  0  0  0  0  0
   59.0915   28.7808   49.2742 H   0  0  0  0  0  0  0  0  0  0  0  0
   59.3333   29.5062   44.6069 H   0  0  0  0  0  0  0  0  0  0  0  0
   59.0833   34.1644   43.2264 H   0  0  0  0  0  0  0  0  0  0  0  0
   59.6881   36.0214   44.7758 H   0  0  0  0  0  0  0  0  0  0  0  0
   59.3696   35.7538   47.2361 H   0  0  0  0  0  0  0  0  0  0  0  0
   58.4654   33.6185   48.1537 H   0  0  0  0  0  0  0  0  0  0  0  0
   57.0190   30.9660   46.3580 H   0  0  0  0  0  0  0  0  0  0  0  0
   55.3668   31.1665   44.1167 H   0  0  0  0  0  0  0  0  0  0  0  0
   61.0633   29.1218   45.4370 H   0  0  0  0  0  0  0  0  0  0  0  0
   61.7995   31.4333   46.0171 H   0  0  0  0  0  0  0  0  0  0  0  0
  1  2  1  0
  2  3  2  0
  3  4  1  0
  4  5  2  0
  5  6  1  0
  6  7  2  0
  6  8  2  0
  6  9  1  0
  9 10  1  0
 10 11  2  0
 11 12  1  0
 12 13  1  0
 13 14  2  0
 13 15  1  0
 15 16  2  0
 16 17  1  0
 17 18  2  0
 18 19  1  0
 19 20  2  0
 20 21  1  0
 12 22  2  0
 22 23  1  0
 23 24  1  0
 24 25  2  0
  5 26  1  0
 26 27  2  0
 27  2  1  0
 24 10  1  0
 20 15  1  0
  1 28  1  0
  1 29  1  0
  1 30  1  0
  3 31  1  0
  4 32  1  0
 11 33  1  0
 16 34  1  0
 17 35  1  0
 18 36  1  0
 19 37  1  0
 21 38  1  0
 22 39  1  0
 26 40  1  0
 27 41  1  0
M  CHG  2   9  -1  23  -1
M  END
>  <UniqueID>  (2) 
2

>  <SMILES>  (2) 
Cc1ccc(S(=O)(=O)[N-]c2cc(C(=O)c3ccccc3O)c[n-]c2=O)cc1

>  <Energy>  (2) 
52.6278196700255

>  <Genealogy>  (2) 
Cc1ccc(S(=O)(=O)[N-]c2cc(C(=O)c3ccccc3O)c[n-]c2=O)cc1 (protonated)
Cc1ccc(S(=O)(=O)[N-]c2cc(C(=O)c3ccccc3O)c[n-]c2=O)cc1 (3D coordinates assigned)
Cc1ccc(S(=O)(=O)[N-]c2cc(C(=O)c3ccccc3O)c[n-]c2=O)cc1 (optimized conformer: 52.6278196700255 kcal/mol)

>  <smiles>  (2) 
Cc1ccc(S(=O)(=O)Nc2cc(C(=O)c3ccccc3O)c[nH]c2=O)cc1

>  <score_type>  (2) 
oracle

>  <origin>  (2) 
adg

>  <m_score__min__energy>  (2) 
-11.66

>  <m_primary>  (2) 
energy

$$$$
2:0
     RDKit          3D

 48 50  0  0  0  0  0  0  0  0999 V2000
   63.6490   31.2260   50.5070 C   0  0  0  0  0  0  0  0  0  0  0  0
   62.4120   31.8470   50.8370 O   0  0  0  0  0  0  0  0  0  0  0  0
   61.6480   32.6160   49.9460 C   0  0  0  0  0  0  0  0  0  0  0  0
   60.3510   33.0590   50.2550 C   0  0  0  0  0  0  0  0  0  0  0  0
   59.6300   33.8200   49.3340 C   0  0  0  0  0  0  0  0  0  0  0  0
   60.1800   34.1380   48.0830 C   0  0  0  0  0  0  0  0  0  0  0  0
   59.3990   34.9940   47.1210 C   0  0  0  0  0  0  0  0  0  0  0  0
   59.3520   34.3420   45.8150 N   0  0  0  0  0  0  0  0  0  0  0  0
   58.1570   33.7620   45.2750 C   0  0  0  0  0  0  0  0  0  0  0  0
   57.0280   34.0730   45.7410 O   0  0  0  0  0  0  0  0  0  0  0  0
   58.2540   32.7240   44.2030 C   0  0  0  0  0  0  0  0  0  0  0  0
   57.9550   31.3760   44.7910 C   0  0  0  0  0  0  0  0  0  0  0  0
   56.6980   30.3940   44.2420 S   0  0  0  0  0  0  0  0  0  0  0  0
   57.1490   29.1160   45.2200 C   0  0  0  0  0  0  0  0  0  0  0  0
   56.5200   27.9170   45.2740 N   0  0  0  0  0  0  0  0  0  0  0  0
   56.9990   26.9400   46.0900 C   0  0  0  0  0  0  0  0  0  0  0  0
   56.2890   25.6260   46.1700 C   0  0  0  0  0  0  0  0  0  0  0  0
   58.1300   27.1850   46.8850 C   0  0  0  0  0  0  0  0  0  0  0  0
   58.7580   28.4340   46.8050 C   0  0  0  0  0  0  0  0  0  0  0  0
   59.7760   28.6550   47.5150 O   0  0  0  0  0  0  0  0  0  0  0  0
   58.2500   29.3880   45.9630 N   0  0  0  0  0  0  0  0  0  0  0  0
   58.7260   30.6550   45.7260 C   0  0  0  0  0  0  0  0  0  0  0  0
   59.9700   31.2060   46.3760 C   0  0  0  0  0  0  0  0  0  0  0  0
   61.4870   33.7100   47.7690 C   0  0  0  0  0  0  0  0  0  0  0  0
   62.0360   34.0570   46.5220 O   0  0  0  0  0  0  0  0  0  0  0  0
   63.3920   33.8390   46.1490 C   0  0  0  0  0  0  0  0  0  0  0  0
   62.2080   32.9490   48.7090 C   0  0  0  0  0  0  0  0  0  0  0  0
   64.1827   30.9581   51.4308 H   0  0  0  0  0  0  0  0  0  0  0  0
   63.4573   30.3173   49.9176 H   0  0  0  0  0  0  0  0  0  0  0  0
   64.2632   31.9226   49.9176 H   0  0  0  0  0  0  0  0  0  0  0  0
   59.9022   32.8050   51.2266 H   0  0  0  0  0  0  0  0  0  0  0  0
   58.6208   34.1740   49.5912 H   0  0  0  0  0  0  0  0  0  0  0  0
   58.3752   35.1302   47.4996 H   0  0  0  0  0  0  0  0  0  0  0  0
   59.8879   35.9745   47.0233 H   0  0  0  0  0  0  0  0  0  0  0  0
   60.2550   34.1930   45.3110 H   0  0  0  0  0  0  0  0  0  0  0  0
   57.5275   32.9476   43.4079 H   0  0  0  0  0  0  0  0  0  0  0  0
   59.2691   32.7248   43.7793 H   0  0  0  0  0  0  0  0  0  0  0  0
   56.1413   25.3527   47.2252 H   0  0  0  0  0  0  0  0  0  0  0  0
   55.3116   25.7064   45.6718 H   0  0  0  0  0  0  0  0  0  0  0  0
   56.8919   24.8525   45.6718 H   0  0  0  0  0  0  0  0  0  0  0  0
   58.5169   26.4077   47.5604 H   0  0  0  0  0  0  0  0  0  0  0  0
   59.8637   31.1589   47.4698 H   0  0  0  0  0  0  0  0  0  0  0  0
   60.8406   30.6093   46.0662 H   0  0  0  0  0  0  0  0  0  0  0  0
   60.1132   32.2517   46.0662 H   0  0  0  0  0  0  0  0  0  0  0  0
   64.0097   33.7397   47.0537 H   0  0  0  0  0  0  0  0  0  0  0  0
   63.4646   32.9176   45.5525 H   0  0  0  0  0  0  0  0  0  0  0  0
   63.7497   34.6912   45.5525 H   0  0  0  0  0  0  0  0  0  0  0  0
   63.2265   32.6116   48.4666 H   0  0  0  0  0  0  0  0  0  0  0  0
  1  2  1  0
  2  3  1  0
  3  4  2  0
  4  5  1  0
  5  6  2  0
  6  7  1  0
  7  8  1  0
  8  9  1  0
  9 10  2  0
  9 11  1  0
 11 12  1  0
 12 13  1  0
 13 14  1  0
 14 15  2  0
 15 16  1  0
 16 17  1  0
 16 18  2  0
 18 19  1  0
 19 20  2  0
 19 21  1  0
 21 22  1  0
 22 23  1  0
  6 24  1  0
 24 25  1  0
 25 26  1  0
 24 27  2  0
 27  3  1  0
 22 12  2  0
 21 14  1  0
  1 28  1  0
  1 29  1  0
  1 30  1  0
  4 31  1  0
  5 32  1  0
  7 33  1  0
  7 34  1  0
  8 35  1  0
 11 36  1  0
 11 37  1  0
 17 38  1  0
 17 39  1  0
 17 40  1  0
 18 41  1  0
 23 42  1  0
 23 43  1  0
 23 44  1  0
 26 45  1  0
 26 46  1  0
 26 47  1  0
 27 48  1  0
M  END
>  <UniqueID>  (3) 
3

>  <SMILES>  (3) 
COc1ccc(CNC(=O)Cc2sc3nc(C)cc(=O)n3c2C)c(OC)c1

>  <Energy>  (3) 
77.53999175595932

>  <Genealogy>  (3) 
COc1ccc(CNC(=O)Cc2sc3nc(C)cc(=O)n3c2C)c(OC)c1 (3D coordinates assigned)
COc1ccc(CNC(=O)Cc2sc3nc(C)cc(=O)n3c2C)c(OC)c1 (optimized conformer: 77.53999175595932 kcal/mol)

>  <smiles>  (3) 
COc1ccc(CNC(=O)Cc2sc3nc(C)cc(=O)n3c2C)c(OC)c1

>  <score_type>  (3) 
oracle

>  <origin>  (3) 
adg

>  <m_score__min__energy>  (3) 
-7.0800000000000001

>  <m_primary>  (3) 
energy

$$$$
3:0
     RDKit          3D

 53 55  0  0  0  0  0  0  0  0999 V2000
   61.4460   28.9410   44.7080 C   0  0  0  0  0  0  0  0  0  0  0  0
   60.1420   28.7160   45.3960 C   0  0  0  0  0  0  0  0  0  0  0  0
   59.8540   29.0510   46.7040 C   0  0  0  0  0  0  0  0  0  0  0  0
   58.5410   28.6800   46.9030 C   0  0  0  0  0  0  0  0  0  0  0  0
   58.1170   28.1410   45.7020 C   0  0  0  0  0  0  0  0  0  0  0  0
   56.7370   27.6590   45.4050 C   0  0  0  0  0  0  0  0  0  0  0  0
   55.8740   28.8160   45.2250 N   0  0  0  0  0  0  0  0  0  0  0  0
   55.5950   29.4240   43.9600 C   0  0  0  0  0  0  0  0  0  0  0  0
   54.4210   29.4280   43.5010 O   0  0  0  0  0  0  0  0  0  0  0  0
   56.7050   30.0580   43.1720 C   0  0  0  0  0  0  0  0  0  0  0  0
   57.6620   30.7160   44.0620 N   0  0  0  0  0  0  0  0  0  0  0  0
   58.0430   32.0890   43.8720 C   0  0  0  0  0  0  0  0  0  0  0  0
   57.8880   32.6240   42.7390 O   0  0  0  0  0  0  0  0  0  0  0  0
   58.5310   32.9130   45.0010 C   0  0  0  0  0  0  0  0  0  0  0  0
   58.8210   34.2800   44.8400 C   0  0  0  0  0  0  0  0  0  0  0  0
   59.3260   35.0240   45.9100 C   0  0  0  0  0  0  0  0  0  0  0  0
   59.5350   34.4200   47.1500 C   0  0  0  0  0  0  0  0  0  0  0  0
   59.2180   33.0690   47.3380 C   0  0  0  0  0  0  0  0  0  0  0  0
   59.4890   32.2990   48.9020 S   0  0  0  0  0  0  0  0  0  0  0  0
   58.8470   33.1370   49.9730 O   0  0  0  0  0  0  0  0  0  0  0  0
   58.8060   30.9590   48.9060 O   0  0  0  0  0  0  0  0  0  0  0  0
   61.1820   32.0850   49.2950 N   0  0  0  0  0  0  0  0  0  0  0  0
   61.9310   33.3460   49.4660 C   0  0  0  0  0  0  0  0  0  0  0  0
   62.5330   33.8810   48.1580 C   0  0  0  0  0  0  0  0  0  0  0  0
   63.3460   32.8000   47.4530 C   0  0  0  0  0  0  0  0  0  0  0  0
   62.4730   31.5790   47.1910 C   0  0  0  0  0  0  0  0  0  0  0  0
   61.8690   31.0460   48.4990 C   0  0  0  0  0  0  0  0  0  0  0  0
   58.7320   32.3170   46.2590 C   0  0  0  0  0  0  0  0  0  0  0  0
   59.0890   28.1800   44.8200 O   0  0  0  0  0  0  0  0  0  0  0  0
   62.2380   29.0777   45.4590 H   0  0  0  0  0  0  0  0  0  0  0  0
   61.6836   28.0706   44.0788 H   0  0  0  0  0  0  0  0  0  0  0  0
   61.3782   29.8407   44.0788 H   0  0  0  0  0  0  0  0  0  0  0  0
   60.5310   29.5169   47.4352 H   0  0  0  0  0  0  0  0  0  0  0  0
   57.9526   28.7900   47.8259 H   0  0  0  0  0  0  0  0  0  0  0  0
   56.7445   27.0549   44.4858 H   0  0  0  0  0  0  0  0  0  0  0  0
   56.3675   27.0380   46.2343 H   0  0  0  0  0  0  0  0  0  0  0  0
   57.2258   29.2812   42.5929 H   0  0  0  0  0  0  0  0  0  0  0  0
   56.2733   30.8124   42.4978 H   0  0  0  0  0  0  0  0  0  0  0  0
   57.8990   30.2240   44.9510 H   0  0  0  0  0  0  0  0  0  0  0  0
   58.6496   34.7655   43.8679 H   0  0  0  0  0  0  0  0  0  0  0  0
   59.5596   36.0902   45.7738 H   0  0  0  0  0  0  0  0  0  0  0  0
   59.9501   35.0068   47.9827 H   0  0  0  0  0  0  0  0  0  0  0  0
   61.2464   34.1058   49.8710 H   0  0  0  0  0  0  0  0  0  0  0  0
   62.7691   33.1357   50.1467 H   0  0  0  0  0  0  0  0  0  0  0  0
   61.7194   34.2102   47.4949 H   0  0  0  0  0  0  0  0  0  0  0  0
   63.1988   34.7238   48.3955 H   0  0  0  0  0  0  0  0  0  0  0  0
   63.7207   33.1920   46.4960 H   0  0  0  0  0  0  0  0  0  0  0  0
   64.1915   32.5086   48.0935 H   0  0  0  0  0  0  0  0  0  0  0  0
   61.6589   31.8586   46.5061 H   0  0  0  0  0  0  0  0  0  0  0  0
   63.0967   30.7903   46.7449 H   0  0  0  0  0  0  0  0  0  0  0  0
   61.1418   30.2586   48.2517 H   0  0  0  0  0  0  0  0  0  0  0  0
   62.7013   30.6665   49.1099 H   0  0  0  0  0  0  0  0  0  0  0  0
   58.5055   31.2496   46.3978 H   0  0  0  0  0  0  0  0  0  0  0  0
  1  2  1  0
  2  3  2  0
  3  4  1  0
  4  5  2  0
  5  6  1  0
  6  7  1  0
  7  8  1  0
  8  9  2  0
  8 10  1  0
 10 11  1  0
 11 12  1  0
 12 13  2  0
 12 14  1  0
 14 15  2  0
 15 16  1  0
 16 17  2  0
 17 18  1  0
 18 19  1  0
 19 20  2  0
 19 21  2  0
 19 22  1  0
 22 23  1  0
 23 24  1  0
 24 25  1  0
 25 26  1  0
 26 27  1  0
 18 28  2  0
  5 29  1  0
 29  2  1  0
 28 14  1  0
 27 22  1  0
  1 30  1  0
  1 31  1  0
  1 32  1  0
  3 33  1  0
  4 34  1  0
  6 35  1  0
  6 36  1  0
 10 37  1  0
 10 38  1  0
 11 39  1  0
 15 40  1  0
 16 41  1  0
 17 42  1  0
 23 43  1  0
 23 44  1  0
 24 45  1  0
 24 46  1  0
 25 47  1  0
 25 48  1  0
 26 49  1  0
 26 50  1  0
 27 51  1  0
 27 52  1  0
 28 53  1  0
M  CHG  1   7  -1
M  END
>  <UniqueID>  (4) 
4

>  <SMILES>  (4) 
Cc1ccc(C[N-]C(=O)CNC(=O)c2cccc(S(=O)(=O)N3CCCCC3)c2)o1

>  <Energy>  (4) 
74.476284812175

>  <Genealogy>  (4) 
Cc1ccc(C[N-]C(=O)CNC(=O)c2cccc(S(=O)(=O)N3CCCCC3)c2)o1 (protonated)
Cc1ccc(C[N-]C(=O)CNC(=O)c2cccc(S(=O)(=O)N3CCCCC3)c2)o1 (3D coordinates assigned)
Cc1ccc(C[N-]C(=O)CNC(=O)c2cccc(S(=O)(=O)N3CCCCC3)c2)o1 (nonaromatic ring conformer: 74.476284812175 kcal/mol)

>  <smiles>  (4) 
Cc1ccc(CNC(=O)CNC(=O)c2cccc(S(=O)(=O)N3CCCCC3)c2)o1

>  <score_type>  (4) 
oracle

>  <origin>  (4) 
adg

>  <m_score__min__energy>  (4) 
-11.960000000000001

>  <m_primary>  (4) 
energy

$$$$
4:0
     RDKit          3D

 41 44  0  0  0  0  0  0  0  0999 V2000
   53.1341   23.2387   46.1532 H   0  0  0  0  0  0  0  0  0  0  0  0
   54.1930   23.4290   45.9240 C   0  0  0  0  0  0  0  0  0  0  0  0
   54.6450   24.8320   45.9320 C   0  0  0  0  0  0  0  0  0  0  0  0
   53.8190   25.7320   45.6220 O   0  0  0  0  0  0  0  0  0  0  0  0
   55.9450   25.1700   46.4370 N   0  0  0  0  0  0  0  0  0  0  0  0
   56.6090   26.2760   46.2590 C   0  0  0  0  0  0  0  0  0  0  0  0
   58.2390   26.4350   46.6420 S   0  0  0  0  0  0  0  0  0  0  0  0
   58.2400   28.0190   46.0680 C   0  0  0  0  0  0  0  0  0  0  0  0
   59.6390   29.0720   46.0540 S   0  0  0  0  0  0  0  0  0  0  0  0
   60.1460   29.2350   44.6490 O   0  0  0  0  0  0  0  0  0  0  0  0
   60.7200   28.4690   46.9050 O   0  0  0  0  0  0  0  0  0  0  0  0
   59.2020   30.6260   46.6850 N   0  0  0  0  0  0  0  0  0  0  0  0
   58.6140   31.6830   45.9500 C   0  0  0  0  0  0  0  0  0  0  0  0
   58.3980   31.7390   44.5690 C   0  0  0  0  0  0  0  0  0  0  0  0
   58.7048   30.9091   43.9155 H   0  0  0  0  0  0  0  0  0  0  0  0
   57.7790   32.8830   44.0390 C   0  0  0  0  0  0  0  0  0  0  0  0
   57.5972   32.9556   42.9566 H   0  0  0  0  0  0  0  0  0  0  0  0
   57.3900   33.9380   44.8880 C   0  0  0  0  0  0  0  0  0  0  0  0
   56.9080   34.8323   44.4661 H   0  0  0  0  0  0  0  0  0  0  0  0
   57.6160   33.8510   46.2720 C   0  0  0  0  0  0  0  0  0  0  0  0
   57.3137   34.6679   46.9438 H   0  0  0  0  0  0  0  0  0  0  0  0
   58.2330   32.7040   46.7750 C   0  0  0  0  0  0  0  0  0  0  0  0
   58.5580   32.3810   48.1940 C   0  0  0  0  0  0  0  0  0  0  0  0
   57.6504   32.3798   48.8155 H   0  0  0  0  0  0  0  0  0  0  0  0
   59.2345   33.1140   48.6578 H   0  0  0  0  0  0  0  0  0  0  0  0
   59.1720   30.9610   48.1060 C   0  0  0  0  0  0  0  0  0  0  0  0
   58.5494   30.2401   48.6561 H   0  0  0  0  0  0  0  0  0  0  0  0
   60.1776   30.9273   48.5505 H   0  0  0  0  0  0  0  0  0  0  0  0
   57.0280   28.3790   45.5930 N   0  0  0  0  0  0  0  0  0  0  0  0
   56.1210   27.4090   45.6970 N   0  0  0  0  0  0  0  0  0  0  0  0
   55.1520   27.5420   45.3380 H   0  0  0  0  0  0  0  0  0  0  0  0
   54.9670   22.3640   45.6600 C   0  0  0  0  0  0  0  0  0  0  0  0
   54.4900   21.3732   45.6859 H   0  0  0  0  0  0  0  0  0  0  0  0
   56.4060   22.4160   45.3380 C   0  0  0  0  0  0  0  0  0  0  0  0
   57.3770   22.4950   46.2190 O   0  0  0  0  0  0  0  0  0  0  0  0
   58.5220   22.5520   45.5780 C   0  0  0  0  0  0  0  0  0  0  0  0
   59.5119   22.6163   46.0534 H   0  0  0  0  0  0  0  0  0  0  0  0
   58.2940   22.5190   44.2170 C   0  0  0  0  0  0  0  0  0  0  0  0
   59.0502   22.5503   43.4187 H   0  0  0  0  0  0  0  0  0  0  0  0
   56.9280   22.4390   44.0610 C   0  0  0  0  0  0  0  0  0  0  0  0
   56.3689   22.4013   43.1144 H   0  0  0  0  0  0  0  0  0  0  0  0
  1  2  1  0
  2  3  1  0
  3  4  2  0
  3  5  1  0
  5  6  2  0
  6  7  1  0
  7  8  1  0
  8  9  1  0
  9 10  2  0
  9 11  2  0
  9 12  1  0
 12 13  1  0
 13 14  2  0
 14 15  1  0
 14 16  1  0
 16 17  1  0
 16 18  2  0
 18 19  1  0
 18 20  1  0
 20 21  1  0
 20 22  2  0
 22 23  1  0
 23 24  1  0
 23 25  1  0
 23 26  1  0
 26 27  1  0
 26 28  1  0
  8 29  2  0
 29 30  1  0
 30 31  1  0
  2 32  2  3
 32 33  1  0
 32 34  1  0
 34 35  1  0
 35 36  1  0
 36 37  1  0
 36 38  2  0
 38 39  1  0
 38 40  1  0
 40 41  1  0
 30  6  1  0
 40 34  2  0
 26 12  1  0
 22 13  1  0
M  END
>  <UniqueID>  (5) 
5

>  <SMILES>  (5) 
O=C(C=Cc1ccco1)/N=c1\[nH]nc(S(=O)(=O)N2CCc3ccccc32)s1

>  <Energy>  (5) 
128.74436015585601

>  <Genealogy>  (5) 
O=C(C=Cc1ccco1)/N=c1\[nH]nc(S(=O)(=O)N2CCc3ccccc32)s1 (cis-trans isomerization)
O=C(C=Cc1ccco1)/N=c1\[nH]nc(S(=O)(=O)N2CCc3ccccc32)s1 (3D coordinates assigned)
O=C(C=Cc1ccco1)/N=c1\[nH]nc(S(=O)(=O)N2CCc3ccccc32)s1 (nonaromatic ring conformer: 128.74436015585601 kcal/mol)

>  <smiles>  (5) 
O=C(C=Cc1ccco1)N=c1[nH]nc(S(=O)(=O)N2CCc3ccccc32)s1

>  <score_type>  (5) 
oracle

>  <origin>  (5) 
adg

>  <m_score__min__energy>  (5) 
-9.0500000000000007

>  <m_primary>  (5) 
energy

$$$$
5:0
     RDKit          3D

 56 58  0  0  0  0  0  0  0  0999 V2000
   58.5430   30.7290   54.5920 C   0  0  0  0  0  0  0  0  0  0  0  0
   59.1230   29.5530   53.8110 C   0  0  0  0  0  0  0  0  0  0  0  0
   59.2100   29.8770   52.3700 N   0  0  0  0  0  0  0  0  0  0  0  0
   60.4240   30.1660   51.7820 C   0  0  0  0  0  0  0  0  0  0  0  0
   61.6250   30.1120   52.5020 O   0  0  0  0  0  0  0  0  0  0  0  0
   60.4910   30.5070   50.4180 C   0  0  0  0  0  0  0  0  0  0  0  0
   61.8170   30.7890   49.7510 C   0  0  0  0  0  0  0  0  0  0  0  0
   62.4720   31.9630   50.4080 C   0  0  0  0  0  0  0  0  0  0  0  0
   63.1440   31.7940   51.4610 O   0  0  0  0  0  0  0  0  0  0  0  0
   62.3230   33.2660   49.8310 N   0  0  0  0  0  0  0  0  0  0  0  0
   61.4460   33.6250   48.7540 C   0  0  0  0  0  0  0  0  0  0  0  0
   60.1070   33.9890   48.9740 C   0  0  0  0  0  0  0  0  0  0  0  0
   59.2700   34.2930   47.8960 C   0  0  0  0  0  0  0  0  0  0  0  0
   59.7520   34.2310   46.5740 C   0  0  0  0  0  0  0  0  0  0  0  0
   58.8790   34.5560   45.4150 C   0  0  0  0  0  0  0  0  0  0  0  0
   57.5320   33.9190   45.2340 C   0  0  0  0  0  0  0  0  0  0  0  0
   59.2650   35.3960   44.5560 O   0  0  0  0  0  0  0  0  0  0  0  0
   61.0900   33.8460   46.3630 C   0  0  0  0  0  0  0  0  0  0  0  0
   61.9220   33.5370   47.4430 C   0  0  0  0  0  0  0  0  0  0  0  0
   59.3070   30.4830   49.6730 C   0  0  0  0  0  0  0  0  0  0  0  0
   59.3110   30.7470   48.4410 O   0  0  0  0  0  0  0  0  0  0  0  0
   58.1440   30.1510   50.2730 N   0  0  0  0  0  0  0  0  0  0  0  0
   58.0730   29.8390   51.5930 C   0  0  0  0  0  0  0  0  0  0  0  0
   56.9300   29.4820   52.1110 N   0  0  0  0  0  0  0  0  0  0  0  0
   55.7620   30.3480   52.2810 C   0  0  0  0  0  0  0  0  0  0  0  0
   54.4580   29.5490   52.1510 C   0  0  0  0  0  0  0  0  0  0  0  0
   53.2470   30.4440   52.1020 C   0  0  0  0  0  0  0  0  0  0  0  0
   52.5170   30.7110   53.2730 C   0  0  0  0  0  0  0  0  0  0  0  0
   51.4310   31.5900   53.2400 C   0  0  0  0  0  0  0  0  0  0  0  0
   51.0640   32.2090   52.0420 C   0  0  0  0  0  0  0  0  0  0  0  0
   49.9860   33.0840   52.0130 O   0  0  0  0  0  0  0  0  0  0  0  0
   51.7850   31.9470   50.8710 C   0  0  0  0  0  0  0  0  0  0  0  0
   52.8730   31.0690   50.9000 C   0  0  0  0  0  0  0  0  0  0  0  0
   58.6384   30.5356   55.6706 H   0  0  0  0  0  0  0  0  0  0  0  0
   59.0918   31.6468   54.3341 H   0  0  0  0  0  0  0  0  0  0  0  0
   57.4808   30.8522   54.3341 H   0  0  0  0  0  0  0  0  0  0  0  0
   60.1298   29.3273   54.1922 H   0  0  0  0  0  0  0  0  0  0  0  0
   58.4634   28.6822   53.9395 H   0  0  0  0  0  0  0  0  0  0  0  0
   62.3280   30.8380   52.5080 H   0  0  0  0  0  0  0  0  0  0  0  0
   62.4681   29.9074   49.8443 H   0  0  0  0  0  0  0  0  0  0  0  0
   61.6495   31.0133   48.6872 H   0  0  0  0  0  0  0  0  0  0  0  0
   59.7147   34.0351   50.0006 H   0  0  0  0  0  0  0  0  0  0  0  0
   58.2254   34.5833   48.0821 H   0  0  0  0  0  0  0  0  0  0  0  0
   57.0899   33.7099   46.2193 H   0  0  0  0  0  0  0  0  0  0  0  0
   56.8755   34.6021   44.6750 H   0  0  0  0  0  0  0  0  0  0  0  0
   57.6434   32.9782   44.6750 H   0  0  0  0  0  0  0  0  0  0  0  0
   61.4845   33.7878   45.3378 H   0  0  0  0  0  0  0  0  0  0  0  0
   62.9598   33.2220   47.2594 H   0  0  0  0  0  0  0  0  0  0  0  0
   55.8010   30.8123   53.2775 H   0  0  0  0  0  0  0  0  0  0  0  0
   55.7802   31.1173   51.4950 H   0  0  0  0  0  0  0  0  0  0  0  0
   54.4971   28.9544   51.2264 H   0  0  0  0  0  0  0  0  0  0  0  0
   54.3665   28.9038   53.0372 H   0  0  0  0  0  0  0  0  0  0  0  0
   52.8014   30.2264   54.2187 H   0  0  0  0  0  0  0  0  0  0  0  0
   50.8634   31.7952   54.1597 H   0  0  0  0  0  0  0  0  0  0  0  0
   51.4954   32.4322   49.9272 H   0  0  0  0  0  0  0  0  0  0  0  0
   53.4384   30.8667   49.9784 H   0  0  0  0  0  0  0  0  0  0  0  0
  1  2  1  0
  2  3  1  0
  3  4  1  0
  4  5  1  0
  4  6  2  0
  6  7  1  0
  7  8  1  0
  8  9  2  0
  8 10  1  0
 10 11  1  0
 11 12  2  0
 12 13  1  0
 13 14  2  0
 14 15  1  0
 15 16  1  0
 15 17  2  0
 14 18  1  0
 18 19  2  0
  6 20  1  0
 20 21  2  0
 20 22  1  0
 22 23  1  0
 23 24  2  3
 24 25  1  0
 25 26  1  0
 26 27  1  0
 27 28  2  0
 28 29  1  0
 29 30  2  0
 30 31  1  0
 30 32  1  0
 32 33  2  0
 23  3  1  0
 33 27  1  0
 19 11  1  0
  1 34  1  0
  1 35  1  0
  1 36  1  0
  2 37  1  0
  2 38  1  0
  5 39  1  0
  7 40  1  0
  7 41  1  0
 12 42  1  0
 13 43  1  0
 16 44  1  0
 16 45  1  0
 16 46  1  0
 18 47  1  0
 19 48  1  0
 25 49  1  0
 25 50  1  0
 26 51  1  0
 26 52  1  0
 28 53  1  0
 29 54  1  0
 32 55  1  0
 33 56  1  0
M  CHG  3  10  -1  22  -1  31  -1
M  END
>  <UniqueID>  (6) 
6

>  <SMILES>  (6) 
CCn1c(O)c(CC(=O)[N-]c2ccc(C(C)=O)cc2)c(=O)[n-]c1=NCCc1ccc([O-])cc1

>  <Energy>  (6) 
58.99547236252908

>  <Genealogy>  (6) 
CCn1c(O)c(CC(=O)[N-]c2ccc(C(C)=O)cc2)c(=O)[n-]c1=NCCc1ccc([O-])cc1 (protonated)
CCn1c(O)c(CC(=O)[N-]c2ccc(C(C)=O)cc2)c(=O)[n-]c1=NCCc1ccc([O-])cc1 (3D coordinates assigned)
CCn1c(O)c(CC(=O)[N-]c2ccc(C(C)=O)cc2)c(=O)[n-]c1=NCCc1ccc([O-])cc1 (optimized conformer: 58.99547236252908 kcal/mol)

>  <smiles>  (6) 
CCn1c(O)c(CC(=O)Nc2ccc(C(C)=O)cc2)c(=O)[nH]c1=NCCc1ccc(O)cc1

>  <score_type>  (6) 
oracle

>  <origin>  (6) 
adg

>  <m_score__min__energy>  (6) 
-15.09

>  <m_primary>  (6) 
energy

$$$$
6:0
     RDKit          3D

 50 52  0  0  0  0  0  0  0  0999 V2000
   57.4000   25.7870   47.8800 O   0  0  0  0  0  0  0  0  0  0  0  0
   58.4700   26.1970   47.3560 C   0  0  0  0  0  0  0  0  0  0  0  0
   58.5860   26.3040   45.8550 C   0  0  0  0  0  0  0  0  0  0  0  0
   58.0420   27.6090   45.3210 C   0  0  0  0  0  0  0  0  0  0  0  0
   58.9270   28.5830   44.8300 C   0  0  0  0  0  0  0  0  0  0  0  0
   58.4420   29.8020   44.3500 C   0  0  0  0  0  0  0  0  0  0  0  0
   57.0710   30.0630   44.3630 C   0  0  0  0  0  0  0  0  0  0  0  0
   56.1780   29.1100   44.8630 C   0  0  0  0  0  0  0  0  0  0  0  0
   54.8170   29.3910   44.8760 O   0  0  0  0  0  0  0  0  0  0  0  0
   56.6590   27.8820   45.3510 C   0  0  0  0  0  0  0  0  0  0  0  0
   55.7770   26.9330   45.8700 O   0  0  0  0  0  0  0  0  0  0  0  0
   59.5550   26.5630   48.2200 N   0  0  0  0  0  0  0  0  0  0  0  0
   60.4530   27.7010   48.0470 C   0  0  0  0  0  0  0  0  0  0  0  0
   59.7760   28.9480   48.5370 C   0  0  0  0  0  0  0  0  0  0  0  0
   58.5180   28.9920   48.5560 O   0  0  0  0  0  0  0  0  0  0  0  0
   60.5130   30.0310   49.1200 N   0  0  0  0  0  0  0  0  0  0  0  0
   60.9920   31.1880   48.4230 C   0  0  0  0  0  0  0  0  0  0  0  0
   62.2630   31.1820   47.8260 C   0  0  0  0  0  0  0  0  0  0  0  0
   62.7190   32.2980   47.1240 C   0  0  0  0  0  0  0  0  0  0  0  0
   61.9070   33.4240   46.9960 C   0  0  0  0  0  0  0  0  0  0  0  0
   60.6250   33.4370   47.5560 C   0  0  0  0  0  0  0  0  0  0  0  0
   59.6670   34.9090   47.4100 Cl  0  0  0  0  0  0  0  0  0  0  0  0
   60.1490   32.3080   48.2560 C   0  0  0  0  0  0  0  0  0  0  0  0
   58.7970   32.3060   48.8540 C   0  0  0  0  0  0  0  0  0  0  0  0
   57.7960   32.3180   48.0870 O   0  0  0  0  0  0  0  0  0  0  0  0
   58.6070   32.3170   50.2830 N   0  0  0  0  0  0  0  0  0  0  0  0
   59.6750   32.7740   51.1800 C   0  0  0  0  0  0  0  0  0  0  0  0
   59.0660   33.3920   52.4420 C   0  0  0  0  0  0  0  0  0  0  0  0
   58.1320   32.5080   53.0320 O   0  0  0  0  0  0  0  0  0  0  0  0
   57.0280   32.3320   52.1640 C   0  0  0  0  0  0  0  0  0  0  0  0
   57.4550   31.6270   50.8740 C   0  0  0  0  0  0  0  0  0  0  0  0
   59.6474   26.2249   45.5773 H   0  0  0  0  0  0  0  0  0  0  0  0
   57.9898   25.4904   45.4162 H   0  0  0  0  0  0  0  0  0  0  0  0
   60.0089   28.3846   44.8234 H   0  0  0  0  0  0  0  0  0  0  0  0
   59.1414   30.5569   43.9614 H   0  0  0  0  0  0  0  0  0  0  0  0
   56.6917   31.0214   43.9787 H   0  0  0  0  0  0  0  0  0  0  0  0
   54.7790   27.0980   45.9280 H   0  0  0  0  0  0  0  0  0  0  0  0
   61.3744   27.5326   48.6237 H   0  0  0  0  0  0  0  0  0  0  0  0
   60.7040   27.8129   46.9819 H   0  0  0  0  0  0  0  0  0  0  0  0
   62.9032   30.2916   47.9124 H   0  0  0  0  0  0  0  0  0  0  0  0
   63.7212   32.2895   46.6706 H   0  0  0  0  0  0  0  0  0  0  0  0
   62.2760   34.3062   46.4523 H   0  0  0  0  0  0  0  0  0  0  0  0
   60.3065   31.9183   51.4610 H   0  0  0  0  0  0  0  0  0  0  0  0
   60.2833   33.5308   50.6631 H   0  0  0  0  0  0  0  0  0  0  0  0
   59.8687   33.6034   53.1638 H   0  0  0  0  0  0  0  0  0  0  0  0
   58.5467   34.3213   52.1651 H   0  0  0  0  0  0  0  0  0  0  0  0
   56.2644   31.7239   52.6711 H   0  0  0  0  0  0  0  0  0  0  0  0
   56.6220   33.3213   51.9063 H   0  0  0  0  0  0  0  0  0  0  0  0
   57.7308   30.5867   51.1015 H   0  0  0  0  0  0  0  0  0  0  0  0
   56.6187   31.6434   50.1596 H   0  0  0  0  0  0  0  0  0  0  0  0
  1  2  2  0
  2  3  1  0
  3  4  1  0
  4  5  2  0
  5  6  1  0
  6  7  2  0
  7  8  1  0
  8  9  1  0
  8 10  2  0
 10 11  1  0
  2 12  1  0
 12 13  1  0
 13 14  1  0
 14 15  2  0
 14 16  1  0
 16 17  1  0
 17 18  2  0
 18 19  1  0
 19 20  2  0
 20 21  1  0
 21 22  1  0
 21 23  2  0
 23 24  1  0
 24 25  2  0
 24 26  1  0
 26 27  1  0
 27 28  1  0
 28 29  1  0
 29 30  1  0
 30 31  1  0
 10  4  1  0
 23 17  1  0
 31 26  1  0
  3 32  1  0
  3 33  1  0
  5 34  1  0
  6 35  1  0
  7 36  1  0
 11 37  1  0
 13 38  1  0
 13 39  1  0
 18 40  1  0
 19 41  1  0
 20 42  1  0
 27 43  1  0
 27 44  1  0
 28 45  1  0
 28 46  1  0
 30 47  1  0
 30 48  1  0
 31 49  1  0
 31 50  1  0
M  CHG  3   9  -1  12  -1  16  -1
M  END
>  <UniqueID>  (7) 
7

>  <SMILES>  (7) 
O=C(Cc1cccc([O-])c1O)[N-]CC(=O)[N-]c1cccc(Cl)c1C(=O)N1CCOCC1

>  <Energy>  (7) 
64.02317680127918

>  <Genealogy>  (7) 
O=C(Cc1cccc([O-])c1O)[N-]CC(=O)[N-]c1cccc(Cl)c1C(=O)N1CCOCC1 (protonated)
O=C(Cc1cccc([O-])c1O)[N-]CC(=O)[N-]c1cccc(Cl)c1C(=O)N1CCOCC1 (3D coordinates assigned)
O=C(Cc1cccc([O-])c1O)[N-]CC(=O)[N-]c1cccc(Cl)c1C(=O)N1CCOCC1 (nonaromatic ring conformer: 64.02317680127918 kcal/mol)

>  <smiles>  (7) 
O=C(Cc1cccc(O)c1O)NCC(=O)Nc1cccc(Cl)c1C(=O)N1CCOCC1

>  <score_type>  (7) 
oracle

>  <origin>  (7) 
adg

>  <m_score__min__energy>  (7) 
-15.32

>  <m_primary>  (7) 
energy

$$$$
7:0
     RDKit          3D

 37 39  0  0  0  0  0  0  0  0999 V2000
   60.4620   28.1670   45.6180 C   0  0  0  0  0  0  0  0  0  0  0  0
   59.3150   28.8170   45.4060 C   0  0  0  0  0  0  0  0  0  0  0  0
   59.2110   30.1500   45.6000 N   0  0  0  0  0  0  0  0  0  0  0  0
   57.9590   30.5080   45.3680 N   0  0  0  0  0  0  0  0  0  0  0  0
   57.4810   31.8520   45.5190 C   0  0  0  0  0  0  0  0  0  0  0  0
   56.4010   32.1900   44.9610 O   0  0  0  0  0  0  0  0  0  0  0  0
   58.2120   32.8160   46.2940 N   0  0  0  0  0  0  0  0  0  0  0  0
   58.6020   32.5000   47.6730 C   0  0  0  0  0  0  0  0  0  0  0  0
   59.8780   33.2730   48.0900 C   0  0  0  0  0  0  0  0  0  0  0  0
   60.2980   34.2380   47.1390 O   0  0  0  0  0  0  0  0  0  0  0  0
   59.2010   35.0250   46.7280 C   0  0  0  0  0  0  0  0  0  0  0  0
   58.2990   34.1980   45.8120 C   0  0  0  0  0  0  0  0  0  0  0  0
   57.2430   29.4130   45.0480 C   0  0  0  0  0  0  0  0  0  0  0  0
   56.0020   29.4160   44.8200 O   0  0  0  0  0  0  0  0  0  0  0  0
   58.0630   28.2990   45.0340 C   0  0  0  0  0  0  0  0  0  0  0  0
   57.6610   27.0510   44.7220 C   0  0  0  0  0  0  0  0  0  0  0  0
   57.3760   25.9850   45.6980 C   0  0  0  0  0  0  0  0  0  0  0  0
   56.1060   25.8500   46.2970 C   0  0  0  0  0  0  0  0  0  0  0  0
   55.0480   26.7030   45.9830 O   0  0  0  0  0  0  0  0  0  0  0  0
   55.8990   24.8640   47.2080 N   0  0  0  0  0  0  0  0  0  0  0  0
   56.8920   24.0140   47.5690 C   0  0  0  0  0  0  0  0  0  0  0  0
   56.6700   23.1090   48.4140 O   0  0  0  0  0  0  0  0  0  0  0  0
   58.1280   24.1410   47.0210 N   0  0  0  0  0  0  0  0  0  0  0  0
   58.3920   25.1060   46.1030 C   0  0  0  0  0  0  0  0  0  0  0  0
   59.5520   25.1970   45.6190 O   0  0  0  0  0  0  0  0  0  0  0  0
   60.5176   27.0810   45.4518 H   0  0  0  0  0  0  0  0  0  0  0  0
   61.3513   28.7175   45.9588 H   0  0  0  0  0  0  0  0  0  0  0  0
   57.7795   32.7752   48.3497 H   0  0  0  0  0  0  0  0  0  0  0  0
   58.8140   31.4224   47.7348 H   0  0  0  0  0  0  0  0  0  0  0  0
   59.6766   33.7878   49.0410 H   0  0  0  0  0  0  0  0  0  0  0  0
   60.6876   32.5333   48.1755 H   0  0  0  0  0  0  0  0  0  0  0  0
   58.6301   35.3486   47.6108 H   0  0  0  0  0  0  0  0  0  0  0  0
   59.5657   35.9091   46.1845 H   0  0  0  0  0  0  0  0  0  0  0  0
   57.2923   34.6412   45.7980 H   0  0  0  0  0  0  0  0  0  0  0  0
   58.7249   34.1965   44.7978 H   0  0  0  0  0  0  0  0  0  0  0  0
   57.5360   26.8097   43.6561 H   0  0  0  0  0  0  0  0  0  0  0  0
   55.1460   27.4880   45.3510 H   0  0  0  0  0  0  0  0  0  0  0  0
  1  2  2  0
  2  3  1  0
  3  4  1  0
  4  5  1  0
  5  6  2  0
  5  7  1  0
  7  8  1  0
  8  9  1  0
  9 10  1  0
 10 11  1  0
 11 12  1  0
  4 13  1  0
 13 14  2  0
 13 15  1  0
 15 16  2  3
 16 17  1  0
 17 18  2  0
 18 19  1  0
 18 20  1  0
 20 21  1  0
 21 22  2  0
 21 23  1  0
 23 24  1  0
 24 25  2  0
 15  2  1  0
 24 17  1  0
 12  7  1  0
  1 26  1  0
  1 27  1  0
  8 28  1  0
  8 29  1  0
  9 30  1  0
  9 31  1  0
 11 32  1  0
 11 33  1  0
 12 34  1  0
 12 35  1  0
 16 36  1  0
 19 37  1  0
M  CHG  3   3  -1  20  -1  23  -1
M  END
>  <UniqueID>  (8) 
8

>  <SMILES>  (8) 
C=c1[n-]n(C(=O)N2CCOCC2)c(=O)c1=Cc1c(O)[n-]c(=O)[n-]c1=O

>  <Energy>  (8) 
97.09486264090336

>  <Genealogy>  (8) 
C=c1[n-]n(C(=O)N2CCOCC2)c(=O)c1=Cc1c(O)[n-]c(=O)[n-]c1=O (protonated)
C=c1[n-]n(C(=O)N2CCOCC2)c(=O)c1=Cc1c(O)[n-]c(=O)[n-]c1=O (3D coordinates assigned)
C=c1[n-]n(C(=O)N2CCOCC2)c(=O)c1=Cc1c(O)[n-]c(=O)[n-]c1=O (nonaromatic ring conformer: 97.09486264090336 kcal/mol)

>  <smiles>  (8) 
C=c1[nH]n(C(=O)N2CCOCC2)c(=O)c1=Cc1c(O)[nH]c(=O)[nH]c1=O

>  <score_type>  (8) 
oracle

>  <origin>  (8) 
adg

>  <m_score__min__energy>  (8) 
-13.68

>  <m_primary>  (8) 
energy

$$$$
8:0
     RDKit          3D

 25 26  0  0  0  0  0  0  0  0999 V2000
   54.6410   28.9680   45.3200 H   0  0  0  0  0  0  0  0  0  0  0  0
   55.6190   29.1970   45.1900 O   0  0  0  0  0  0  0  0  0  0  0  0
   56.6210   28.2290   45.2500 C   0  0  0  0  0  0  0  0  0  0  0  0
   57.9280   28.5800   44.8920 C   0  0  0  0  0  0  0  0  0  0  0  0
   58.1518   29.6101   44.5778 H   0  0  0  0  0  0  0  0  0  0  0  0
   58.9490   27.6280   44.9320 C   0  0  0  0  0  0  0  0  0  0  0  0
   59.9725   27.9082   44.6424 H   0  0  0  0  0  0  0  0  0  0  0  0
   58.6730   26.3210   45.3390 C   0  0  0  0  0  0  0  0  0  0  0  0
   59.4774   25.5709   45.3554 H   0  0  0  0  0  0  0  0  0  0  0  0
   57.3740   25.9610   45.7270 C   0  0  0  0  0  0  0  0  0  0  0  0
   57.1000   24.5620   46.1170 C   0  0  0  0  0  0  0  0  0  0  0  0
   57.0300   24.3468   47.1935 H   0  0  0  0  0  0  0  0  0  0  0  0
   56.9260   23.5130   45.2610 C   0  0  0  0  0  0  0  0  0  0  0  0
   58.0070   22.6610   44.8820 C   0  0  0  0  0  0  0  0  0  0  0  0
   59.1790   22.8490   45.3040 O   0  0  0  0  0  0  0  0  0  0  0  0
   57.8050   21.6370   44.0170 N   0  0  0  0  0  0  0  0  0  0  0  0
   56.5920   21.3960   43.4770 C   0  0  0  0  0  0  0  0  0  0  0  0
   56.4380   20.4390   42.6760 O   0  0  0  0  0  0  0  0  0  0  0  0
   55.5420   22.1850   43.7950 N   0  0  0  0  0  0  0  0  0  0  0  0
   55.6520   23.2290   44.6610 C   0  0  0  0  0  0  0  0  0  0  0  0
   54.5220   23.9090   44.9160 C   0  0  0  0  0  0  0  0  0  0  0  0
   54.5391   24.7647   45.6070 H   0  0  0  0  0  0  0  0  0  0  0  0
   53.5796   23.6102   44.4338 H   0  0  0  0  0  0  0  0  0  0  0  0
   56.3390   26.9140   45.6590 C   0  0  0  0  0  0  0  0  0  0  0  0
   55.0360   26.5530   45.9930 O   0  0  0  0  0  0  0  0  0  0  0  0
  1  2  1  0
  2  3  1  0
  3  4  2  0
  4  5  1  0
  4  6  1  0
  6  7  1  0
  6  8  2  0
  8  9  1  0
  8 10  1  0
 10 11  1  0
 11 12  1  0
 11 13  2  0
 13 14  1  0
 14 15  2  0
 14 16  1  0
 16 17  1  0
 17 18  2  0
 17 19  1  0
 19 20  1  0
 20 21  2  0
 21 22  1  0
 21 23  1  0
 10 24  2  0
 24 25  1  0
 24  3  1  0
 20 13  1  0
M  CHG  3  16  -1  19  -1  25  -1
M  END
>  <UniqueID>  (9) 
9

>  <SMILES>  (9) 
C=c1[n-]c(=O)[n-]c(=O)/c1=C\c1cccc(O)c1[O-]

>  <Energy>  (9) 
48.2451582779348

>  <Genealogy>  (9) 
C=c1[n-]c(=O)[n-]c(=O)c1=Cc1cccc(O)c1[O-] (protonated)
C=c1[n-]c(=O)[n-]c(=O)/c1=C\c1cccc(O)c1[O-] (cis-trans isomerization)
C=c1[n-]c(=O)[n-]c(=O)/c1=C\c1cccc(O)c1[O-] (3D coordinates assigned)
C=c1[n-]c(=O)[n-]c(=O)/c1=C\c1cccc(O)c1[O-] (optimized conformer: 48.2451582779348 kcal/mol)

>  <smiles>  (9) 
C=c1[nH]c(=O)[nH]c(=O)c1=Cc1cccc(O)c1O

>  <score_type>  (9) 
oracle

>  <origin>  (9) 
adg

>  <m_score__min__energy>  (9) 
-13.34

>  <m_primary>  (9) 
energy

$$$$
9:0
     RDKit          3D

 48 50  0  0  0  0  0  0  0  0999 V2000
   60.3240   33.2380   46.4420 N   0  0  0  0  0  0  0  0  0  0  0  0
   58.7740   33.7930   45.9160 S   0  0  0  0  0  0  0  0  0  0  0  0
   57.8370   33.8760   47.0900 O   0  0  0  0  0  0  0  0  0  0  0  0
   58.9160   35.1630   45.3130 O   0  0  0  0  0  0  0  0  0  0  0  0
   58.1240   32.6670   44.7280 C   0  0  0  0  0  0  0  0  0  0  0  0
   58.2490   32.9200   43.3550 C   0  0  0  0  0  0  0  0  0  0  0  0
   57.7500   32.0050   42.4240 C   0  0  0  0  0  0  0  0  0  0  0  0
   57.1190   30.8360   42.8580 C   0  0  0  0  0  0  0  0  0  0  0  0
   56.9710   30.5800   44.2290 C   0  0  0  0  0  0  0  0  0  0  0  0
   56.3120   29.3390   44.6800 C   0  0  0  0  0  0  0  0  0  0  0  0
   55.0690   29.3440   44.8810 O   0  0  0  0  0  0  0  0  0  0  0  0
   57.0460   28.1340   44.9260 N   0  0  0  0  0  0  0  0  0  0  0  0
   56.8120   27.2370   46.0520 C   0  0  0  0  0  0  0  0  0  0  0  0
   58.1300   26.8020   46.6260 C   0  0  0  0  0  0  0  0  0  0  0  0
   58.2890   25.5840   46.9100 O   0  0  0  0  0  0  0  0  0  0  0  0
   59.1940   27.7480   46.8790 N   0  0  0  0  0  0  0  0  0  0  0  0
   60.3570   27.3470   47.6880 C   0  0  0  0  0  0  0  0  0  0  0  0
   60.7680   28.4840   48.6320 C   0  0  0  0  0  0  0  0  0  0  0  0
   60.7890   29.7810   47.9410 N   0  0  0  0  0  0  0  0  0  0  0  0
   60.9230   30.9860   48.7110 C   0  0  0  0  0  0  0  0  0  0  0  0
   60.0250   31.8680   48.6460 O   0  0  0  0  0  0  0  0  0  0  0  0
   62.0920   31.2180   49.5740 C   0  0  0  0  0  0  0  0  0  0  0  0
   63.0880   32.1520   49.3710 C   0  0  0  0  0  0  0  0  0  0  0  0
   63.9410   32.0240   50.4460 C   0  0  0  0  0  0  0  0  0  0  0  0
   63.4160   31.0220   51.2360 C   0  0  0  0  0  0  0  0  0  0  0  0
   62.3130   30.5640   50.6920 O   0  0  0  0  0  0  0  0  0  0  0  0
   60.4600   29.8580   46.5150 C   0  0  0  0  0  0  0  0  0  0  0  0
   59.1740   29.0750   46.2370 C   0  0  0  0  0  0  0  0  0  0  0  0
   57.4920   31.4940   45.1610 C   0  0  0  0  0  0  0  0  0  0  0  0
   60.4650   33.6030   47.4110 H   0  0  0  0  0  0  0  0  0  0  0  0
   60.2660   32.1980   46.5180 H   0  0  0  0  0  0  0  0  0  0  0  0
   58.7411   33.8411   43.0095 H   0  0  0  0  0  0  0  0  0  0  0  0
   57.8541   32.2053   41.3474 H   0  0  0  0  0  0  0  0  0  0  0  0
   56.7369   30.1138   42.1215 H   0  0  0  0  0  0  0  0  0  0  0  0
   56.2306   27.7617   46.8245 H   0  0  0  0  0  0  0  0  0  0  0  0
   56.2519   26.3548   45.7085 H   0  0  0  0  0  0  0  0  0  0  0  0
   60.0965   26.4587   48.2821 H   0  0  0  0  0  0  0  0  0  0  0  0
   61.1977   27.1187   47.0164 H   0  0  0  0  0  0  0  0  0  0  0  0
   60.0499   28.5344   49.4638 H   0  0  0  0  0  0  0  0  0  0  0  0
   61.7829   28.2746   49.0009 H   0  0  0  0  0  0  0  0  0  0  0  0
   63.1814   32.8520   48.5276 H   0  0  0  0  0  0  0  0  0  0  0  0
   64.8562   32.6040   50.6359 H   0  0  0  0  0  0  0  0  0  0  0  0
   63.8550   30.6619   52.1781 H   0  0  0  0  0  0  0  0  0  0  0  0
   60.3157   30.9105   46.2297 H   0  0  0  0  0  0  0  0  0  0  0  0
   61.2833   29.4247   45.9282 H   0  0  0  0  0  0  0  0  0  0  0  0
   58.3179   29.6461   46.6255 H   0  0  0  0  0  0  0  0  0  0  0  0
   59.0897   28.9288   45.1500 H   0  0  0  0  0  0  0  0  0  0  0  0
   57.4029   31.2870   46.2377 H   0  0  0  0  0  0  0  0  0  0  0  0
  1  2  1  0
  2  3  2  0
  2  4  2  0
  2  5  1  0
  5  6  2  0
  6  7  1  0
  7  8  2  0
  8  9  1  0
  9 10  1  0
 10 11  2  0
 10 12  1  0
 12 13  1  0
 13 14  1  0
 14 15  2  0
 14 16  1  0
 16 17  1  0
 17 18  1  0
 18 19  1  0
 19 20  1  0
 20 21  2  0
 20 22  1  0
 22 23  2  0
 23 24  1  0
 24 25  2  0
 25 26  1  0
 19 27  1  0
 27 28  1  0
  9 29  2  0
 29  5  1  0
 28 16  1  0
 26 22  1  0
  1 30  1  0
  1 31  1  0
  6 32  1  0
  7 33  1  0
  8 34  1  0
 13 35  1  0
 13 36  1  0
 17 37  1  0
 17 38  1  0
 18 39  1  0
 18 40  1  0
 23 41  1  0
 24 42  1  0
 25 43  1  0
 27 44  1  0
 27 45  1  0
 28 46  1  0
 28 47  1  0
 29 48  1  0
M  CHG  1  12  -1
M  END
>  <UniqueID>  (10) 
10

>  <SMILES>  (10) 
NS(=O)(=O)c1cccc(C(=O)[N-]CC(=O)N2CCN(C(=O)c3ccco3)CC2)c1

>  <Energy>  (10) 
81.00956858466773

>  <Genealogy>  (10) 
NS(=O)(=O)c1cccc(C(=O)[N-]CC(=O)N2CCN(C(=O)c3ccco3)CC2)c1 (protonated)
NS(=O)(=O)c1cccc(C(=O)[N-]CC(=O)N2CCN(C(=O)c3ccco3)CC2)c1 (3D coordinates assigned)
NS(=O)(=O)c1cccc(C(=O)[N-]CC(=O)N2CCN(C(=O)c3ccco3)CC2)c1 (nonaromatic ring conformer: 81.00956858466773 kcal/mol)

>  <smiles>  (10) 
NS(=O)(=O)c1cccc(C(=O)NCC(=O)N2CCN(C(=O)c3ccco3)CC2)c1

>  <score_type>  (10) 
oracle

>  <origin>  (10) 
adg

>  <m_score__min__energy>  (10) 
-9.6999999999999993

>  <m_primary>  (10) 
energy

$$$$
10:0
     RDKit          3D

 21 22  0  0  0  0  0  0  0  0999 V2000
   60.0008   28.0329   45.5284 H   0  0  0  0  0  0  0  0  0  0  0  0
   59.7130   29.0860   45.6630 C   0  0  0  0  0  0  0  0  0  0  0  0
   60.4566   29.8197   46.0075 H   0  0  0  0  0  0  0  0  0  0  0  0
   58.4600   29.4740   45.4080 C   0  0  0  0  0  0  0  0  0  0  0  0
   57.3980   28.6890   44.9620 C   0  0  0  0  0  0  0  0  0  0  0  0
   57.3960   27.3640   44.7160 C   0  0  0  0  0  0  0  0  0  0  0  0
   57.4852   27.0308   43.6715 H   0  0  0  0  0  0  0  0  0  0  0  0
   57.2810   26.3330   45.7680 C   0  0  0  0  0  0  0  0  0  0  0  0
   56.0440   26.0330   46.3660 C   0  0  0  0  0  0  0  0  0  0  0  0
   54.8920   26.7160   45.9960 O   0  0  0  0  0  0  0  0  0  0  0  0
   55.9660   25.0570   47.3060 N   0  0  0  0  0  0  0  0  0  0  0  0
   57.0640   24.3470   47.6720 C   0  0  0  0  0  0  0  0  0  0  0  0
   56.9680   23.4490   48.5480 O   0  0  0  0  0  0  0  0  0  0  0  0
   58.2640   24.6000   47.0890 N   0  0  0  0  0  0  0  0  0  0  0  0
   58.3950   25.5670   46.1440 C   0  0  0  0  0  0  0  0  0  0  0  0
   59.5220   25.7720   45.6200 O   0  0  0  0  0  0  0  0  0  0  0  0
   56.3490   29.5970   44.8730 C   0  0  0  0  0  0  0  0  0  0  0  0
   55.1630   29.3350   44.5410 O   0  0  0  0  0  0  0  0  0  0  0  0
   56.7540   30.8290   45.2280 N   0  0  0  0  0  0  0  0  0  0  0  0
   58.0340   30.7470   45.5500 N   0  0  0  0  0  0  0  0  0  0  0  0
   58.6080   31.5600   45.8660 H   0  0  0  0  0  0  0  0  0  0  0  0
  1  2  1  0
  2  3  1  0
  2  4  2  0
  4  5  1  0
  5  6  2  0
  6  7  1  0
  6  8  1  0
  8  9  2  0
  9 10  1  0
  9 11  1  0
 11 12  1  0
 12 13  2  0
 12 14  1  0
 14 15  1  0
 15 16  2  0
  5 17  1  0
 17 18  2  0
 17 19  1  0
 19 20  1  0
 20 21  1  0
 20  4  1  0
 15  8  1  0
M  CHG  4  10  -1  11  -1  14  -1  19  -1
M  END
>  <UniqueID>  (11) 
11

>  <SMILES>  (11) 
C=c1[nH][n-]c(=O)/c1=C\c1c([O-])[n-]c(=O)[n-]c1=O

>  <Energy>  (11) 
66.70670728394953

>  <Genealogy>  (11) 
C=c1[nH][n-]c(=O)c1=Cc1c([O-])[n-]c(=O)[n-]c1=O (protonated)
C=c1[nH][n-]c(=O)/c1=C\c1c([O-])[n-]c(=O)[n-]c1=O (cis-trans isomerization)
C=c1[nH][n-]c(=O)/c1=C\c1c([O-])[n-]c(=O)[n-]c1=O (3D coordinates assigned)
C=c1[nH][n-]c(=O)/c1=C\c1c([O-])[n-]c(=O)[n-]c1=O (optimized conformer: 66.70670728394953 kcal/mol)

>  <smiles>  (11) 
C=c1[nH][nH]c(=O)c1=Cc1c(O)[nH]c(=O)[nH]c1=O

>  <score_type>  (11) 
oracle

>  <origin>  (11) 
adg

>  <m_score__min__energy>  (11) 
-14.98

>  <m_primary>  (11) 
energy

$$$$
11:0
     RDKit          3D

 84 88  0  0  0  0  0  0  0  0999 V2000
   57.7870   29.8440   53.8590 O   0  0  0  0  0  0  0  0  0  0  0  0
   56.9030   29.8530   52.9630 C   0  0  0  0  0  0  0  0  0  0  0  0
   55.4500   29.8780   53.3660 C   0  0  0  0  0  0  0  0  0  0  0  0
   54.5510   29.1280   52.3690 C   0  0  0  0  0  0  0  0  0  0  0  0
   53.1950   29.7180   52.2960 N   0  0  0  0  0  0  0  0  0  0  0  0
   52.9160   30.5100   53.5130 C   0  0  0  0  0  0  0  0  0  0  0  0
   51.5120   31.1200   53.4530 C   0  0  0  0  0  0  0  0  0  0  0  0
   51.2860   31.9600   52.1830 C   0  0  0  0  0  0  0  0  0  0  0  0
   52.4700   31.9010   51.2110 C   0  0  0  0  0  0  0  0  0  0  0  0
   52.9680   30.4590   51.0220 C   0  0  0  0  0  0  0  0  0  0  0  0
   57.3130   29.7440   51.5920 N   0  0  0  0  0  0  0  0  0  0  0  0
   57.9680   30.7800   50.8490 C   0  0  0  0  0  0  0  0  0  0  0  0
   58.7800   30.4600   49.7450 C   0  0  0  0  0  0  0  0  0  0  0  0
   58.8910   29.0930   49.2990 N   0  0  0  0  0  0  0  0  0  0  0  0
   59.9920   28.6100   48.4600 C   0  0  0  0  0  0  0  0  0  0  0  0
   59.4660   27.8480   47.2690 C   0  0  0  0  0  0  0  0  0  0  0  0
   58.7170   28.5030   46.2800 C   0  0  0  0  0  0  0  0  0  0  0  0
   58.1860   27.7850   45.2060 C   0  0  0  0  0  0  0  0  0  0  0  0
   58.3900   26.3990   45.1060 C   0  0  0  0  0  0  0  0  0  0  0  0
   57.7430   25.6360   44.0170 C   0  0  0  0  0  0  0  0  0  0  0  0
   57.8620   26.0380   42.8280 O   0  0  0  0  0  0  0  0  0  0  0  0
   56.9410   24.4760   44.2690 N   0  0  0  0  0  0  0  0  0  0  0  0
   55.5920   24.5050   44.8320 C   0  0  1  0  0  0  0  0  0  0  0  0
   55.1700   23.0700   45.1830 C   0  0  0  0  0  0  0  0  0  0  0  0
   53.7120   22.9900   45.5630 C   0  0  0  0  0  0  0  0  0  0  0  0
   52.7600   23.7510   44.8640 C   0  0  0  0  0  0  0  0  0  0  0  0
   51.4100   23.6950   45.2260 C   0  0  0  0  0  0  0  0  0  0  0  0
   51.0030   22.8840   46.2860 C   0  0  0  0  0  0  0  0  0  0  0  0
   51.9430   22.1270   46.9900 C   0  0  0  0  0  0  0  0  0  0  0  0
   53.2950   22.1810   46.6340 C   0  0  0  0  0  0  0  0  0  0  0  0
   55.5810   25.3800   46.0540 C   0  0  0  0  0  0  0  0  0  0  0  0
   56.0180   24.9400   47.1500 O   0  0  0  0  0  0  0  0  0  0  0  0
   55.1400   26.6960   45.9700 O   0  0  0  0  0  0  0  0  0  0  0  0
   59.1330   25.7430   46.1020 C   0  0  0  0  0  0  0  0  0  0  0  0
   59.6760   26.4650   47.1690 C   0  0  0  0  0  0  0  0  0  0  0  0
   59.4280   31.5010   49.0660 C   0  0  0  0  0  0  0  0  0  0  0  0
   59.2440   32.8210   49.4960 C   0  0  0  0  0  0  0  0  0  0  0  0
   59.8660   33.9610   48.7470 C   0  0  0  0  0  0  0  0  0  0  0  0
   59.2090   34.1240   47.4030 C   0  0  0  0  0  0  0  0  0  0  0  0
   57.9800   33.4970   47.1380 C   0  0  0  0  0  0  0  0  0  0  0  0
   57.3850   33.6180   45.8760 C   0  0  0  0  0  0  0  0  0  0  0  0
   58.0160   34.3540   44.8710 C   0  0  0  0  0  0  0  0  0  0  0  0
   59.2440   34.9760   45.1260 C   0  0  0  0  0  0  0  0  0  0  0  0
   59.8410   34.8580   46.3860 C   0  0  0  0  0  0  0  0  0  0  0  0
   58.4940   33.0750   50.5630 O   0  0  0  0  0  0  0  0  0  0  0  0
   57.8770   32.1220   51.2520 C   0  0  0  0  0  0  0  0  0  0  0  0
   57.2250   32.4340   52.2800 O   0  0  0  0  0  0  0  0  0  0  0  0
   55.3498   29.4072   54.3551 H   0  0  0  0  0  0  0  0  0  0  0  0
   55.1256   30.9289   53.3845 H   0  0  0  0  0  0  0  0  0  0  0  0
   55.0122   29.1723   51.3713 H   0  0  0  0  0  0  0  0  0  0  0  0
   54.4522   28.0884   52.7145 H   0  0  0  0  0  0  0  0  0  0  0  0
   52.9877   29.8553   54.3940 H   0  0  0  0  0  0  0  0  0  0  0  0
   53.6524   31.3243   53.5811 H   0  0  0  0  0  0  0  0  0  0  0  0
   50.7728   30.3056   53.4731 H   0  0  0  0  0  0  0  0  0  0  0  0
   51.4018   31.7890   54.3192 H   0  0  0  0  0  0  0  0  0  0  0  0
   50.3898   31.5836   51.6680 H   0  0  0  0  0  0  0  0  0  0  0  0
   51.1678   33.0077   52.4966 H   0  0  0  0  0  0  0  0  0  0  0  0
   52.1535   32.3011   50.2365 H   0  0  0  0  0  0  0  0  0  0  0  0
   53.2924   32.4996   51.6298 H   0  0  0  0  0  0  0  0  0  0  0  0
   52.2189   29.9100   50.4325 H   0  0  0  0  0  0  0  0  0  0  0  0
   53.9431   30.5253   50.5172 H   0  0  0  0  0  0  0  0  0  0  0  0
   58.1900   28.4030   49.6510 H   0  0  0  0  0  0  0  0  0  0  0  0
   60.5797   29.4700   48.1065 H   0  0  0  0  0  0  0  0  0  0  0  0
   60.6212   27.9354   49.0593 H   0  0  0  0  0  0  0  0  0  0  0  0
   58.5470   29.5875   46.3507 H   0  0  0  0  0  0  0  0  0  0  0  0
   57.6041   28.3086   44.4332 H   0  0  0  0  0  0  0  0  0  0  0  0
   54.8799   24.9181   44.1024 H   0  0  0  0  0  0  0  0  0  0  0  0
   55.3462   22.4239   44.3104 H   0  0  0  0  0  0  0  0  0  0  0  0
   55.7663   22.7406   46.0467 H   0  0  0  0  0  0  0  0  0  0  0  0
   53.0774   24.3931   44.0291 H   0  0  0  0  0  0  0  0  0  0  0  0
   50.6682   24.2911   44.6743 H   0  0  0  0  0  0  0  0  0  0  0  0
   49.9406   22.8406   46.5678 H   0  0  0  0  0  0  0  0  0  0  0  0
   51.6198   21.4880   47.8250 H   0  0  0  0  0  0  0  0  0  0  0  0
   54.0337   21.5886   47.1939 H   0  0  0  0  0  0  0  0  0  0  0  0
   59.2882   24.6557   46.0419 H   0  0  0  0  0  0  0  0  0  0  0  0
   60.2712   25.9454   47.9343 H   0  0  0  0  0  0  0  0  0  0  0  0
   60.0750   31.2832   48.2035 H   0  0  0  0  0  0  0  0  0  0  0  0
   59.7407   34.8874   49.3268 H   0  0  0  0  0  0  0  0  0  0  0  0
   60.9355   33.7505   48.5990 H   0  0  0  0  0  0  0  0  0  0  0  0
   57.4836   32.9092   47.9242 H   0  0  0  0  0  0  0  0  0  0  0  0
   56.4185   33.1322   45.6760 H   0  0  0  0  0  0  0  0  0  0  0  0
   57.5484   34.4450   43.8795 H   0  0  0  0  0  0  0  0  0  0  0  0
   59.7400   35.5580   44.3352 H   0  0  0  0  0  0  0  0  0  0  0  0
   60.8093   35.3421   46.5808 H   0  0  0  0  0  0  0  0  0  0  0  0
  1  2  2  0
  2  3  1  0
  3  4  1  0
  4  5  1  0
  5  6  1  0
  6  7  1  0
  7  8  1  0
  8  9  1  0
  9 10  1  0
  2 11  1  0
 11 12  1  0
 12 13  2  0
 13 14  1  0
 14 15  1  0
 15 16  1  0
 16 17  2  0
 17 18  1  0
 18 19  2  0
 19 20  1  0
 20 21  2  0
 20 22  1  0
 22 23  1  0
 23 24  1  0
 24 25  1  0
 25 26  2  0
 26 27  1  0
 27 28  2  0
 28 29  1  0
 29 30  2  0
 23 31  1  0
 31 32  2  0
 31 33  1  0
 19 34  1  0
 34 35  2  0
 13 36  1  0
 36 37  2  0
 37 38  1  0
 38 39  1  0
 39 40  2  0
 40 41  1  0
 41 42  2  0
 42 43  1  0
 43 44  2  0
 37 45  1  0
 45 46  1  0
 46 47  2  0
 10  5  1  0
 46 12  1  0
 35 16  1  0
 44 39  1  0
 30 25  1  0
  3 48  1  0
  3 49  1  0
  4 50  1  0
  4 51  1  0
  6 52  1  0
  6 53  1  0
  7 54  1  0
  7 55  1  0
  8 56  1  0
  8 57  1  0
  9 58  1  0
  9 59  1  0
 10 60  1  0
 10 61  1  0
 14 62  1  0
 15 63  1  0
 15 64  1  0
 17 65  1  0
 18 66  1  0
 23 67  1  6
 24 68  1  0
 24 69  1  0
 26 70  1  0
 27 71  1  0
 28 72  1  0
 29 73  1  0
 30 74  1  0
 34 75  1  0
 35 76  1  0
 36 77  1  0
 38 78  1  0
 38 79  1  0
 40 80  1  0
 41 81  1  0
 42 82  1  0
 43 83  1  0
 44 84  1  0
M  CHG  3  11  -1  22  -1  33  -1
M  END
>  <UniqueID>  (12) 
12

>  <SMILES>  (12) 
O=C(CCN1CCCCC1)[N-]c1c(NCc2ccc(C(=O)[N-][C@@H](Cc3ccccc3)C(=O)[O-])cc2)cc(Cc2ccccc2)oc1=O

>  <Energy>  (12) 
106.15936562626588

>  <Genealogy>  (12) 
O=C(CCN1CCCCC1)[N-]c1c(NCc2ccc(C(=O)[N-]C(Cc3ccccc3)C(=O)[O-])cc2)cc(Cc2ccccc2)oc1=O (protonated)
O=C(CCN1CCCCC1)[N-]c1c(NCc2ccc(C(=O)[N-][C@@H](Cc3ccccc3)C(=O)[O-])cc2)cc(Cc2ccccc2)oc1=O (chirality)
O=C(CCN1CCCCC1)[N-]c1c(NCc2ccc(C(=O)[N-][C@@H](Cc3ccccc3)C(=O)[O-])cc2)cc(Cc2ccccc2)oc1=O (3D coordinates assigned)
O=C(CCN1CCCCC1)[N-]c1c(NCc2ccc(C(=O)[N-][C@@H](Cc3ccccc3)C(=O)[O-])cc2)cc(Cc2ccccc2)oc1=O (nonaromatic ring conformer: 106.15936562626588 kcal/mol)

>  <smiles>  (12) 
O=C(CCN1CCCCC1)Nc1c(NCc2ccc(C(=O)NC(Cc3ccccc3)C(=O)O)cc2)cc(Cc2ccccc2)oc1=O

>  <score_type>  (12) 
oracle

>  <origin>  (12) 
adg

>  <m_score__min__energy>  (12) 
-15.470000000000001

>  <m_primary>  (12) 
energy

$$$$
12:0
     RDKit          3D

 55 60  0  0  0  0  0  0  0  0999 V2000
   59.2663   27.0780   46.5957 H   0  0  0  0  0  0  0  0  0  0  0  0
   58.3380   27.5150   46.1990 C   0  0  0  0  0  0  0  0  0  0  0  0
   57.1330   26.6600   46.1930 C   0  0  0  0  0  0  0  0  0  0  0  0
   57.0730   25.3800   46.6020 N   0  0  0  0  0  0  0  0  0  0  0  0
   55.7830   25.0410   46.3890 C   0  0  0  0  0  0  0  0  0  0  0  0
   55.3300   23.8970   46.6550 O   0  0  0  0  0  0  0  0  0  0  0  0
   55.0180   26.0230   45.8680 N   0  0  0  0  0  0  0  0  0  0  0  0
   55.8880   27.0390   45.7490 C   0  0  0  0  0  0  0  0  0  0  0  0
   55.5490   28.2890   45.2450 O   0  0  0  0  0  0  0  0  0  0  0  0
   58.3910   28.7830   45.7590 C   0  0  0  0  0  0  0  0  0  0  0  0
   58.3100   29.2940   44.4580 C   0  0  0  0  0  0  0  0  0  0  0  0
   58.1756   28.6896   43.5488 H   0  0  0  0  0  0  0  0  0  0  0  0
   58.4220   30.6450   44.4860 N   0  0  0  0  0  0  0  0  0  0  0  0
   58.5730   30.9900   45.7540 N   0  0  0  0  0  0  0  0  0  0  0  0
   58.7160   32.2350   46.2680 C   0  0  0  0  0  0  0  0  0  0  0  0
   58.7150   33.2730   45.4750 N   0  0  0  0  0  0  0  0  0  0  0  0
   59.4310   34.5640   45.5210 C   0  0  0  0  0  0  0  0  0  0  0  0
   59.1649   34.8237   44.4857 H   0  0  0  0  0  0  0  0  0  0  0  0
   60.7070   34.6220   46.3460 C   0  0  0  0  0  0  0  0  0  0  0  0
   61.0796   33.7171   46.8483 H   0  0  0  0  0  0  0  0  0  0  0  0
   61.7423   34.9431   46.1585 H   0  0  0  0  0  0  0  0  0  0  0  0
   59.4330   35.3070   46.8470 C   0  0  0  0  0  0  0  0  0  0  0  0
   58.8892   34.8949   47.7098 H   0  0  0  0  0  0  0  0  0  0  0  0
   59.1715   36.3256   47.1697 H   0  0  0  0  0  0  0  0  0  0  0  0
   58.8550   32.3480   47.6190 N   0  0  0  0  0  0  0  0  0  0  0  0
   58.8570   31.2420   48.4250 C   0  0  0  0  0  0  0  0  0  0  0  0
   58.9600   31.3990   49.8540 N   0  0  0  0  0  0  0  0  0  0  0  0
   57.7780   31.8990   50.5660 C   0  0  0  0  0  0  0  0  0  0  0  0
   57.5951   32.9439   50.2750 H   0  0  0  0  0  0  0  0  0  0  0  0
   56.9120   31.2748   50.3008 H   0  0  0  0  0  0  0  0  0  0  0  0
   57.9950   31.8280   52.0790 C   0  0  0  0  0  0  0  0  0  0  0  0
   58.6222   32.6726   52.4004 H   0  0  0  0  0  0  0  0  0  0  0  0
   57.0241   31.8787   52.5935 H   0  0  0  0  0  0  0  0  0  0  0  0
   58.6380   30.6140   52.4010 O   0  0  0  0  0  0  0  0  0  0  0  0
   59.9930   30.6230   51.9720 C   0  0  0  0  0  0  0  0  0  0  0  0
   60.5922   31.1388   52.7368 H   0  0  0  0  0  0  0  0  0  0  0  0
   60.2847   29.5714   51.8343 H   0  0  0  0  0  0  0  0  0  0  0  0
   60.2330   31.3320   50.6060 C   0  0  1  0  0  0  0  0  0  0  0  0
   60.5558   32.3698   50.7756 H   0  0  0  0  0  0  0  0  0  0  0  0
   61.4060   30.6890   49.8260 C   0  0  0  0  0  0  0  0  0  0  0  0
   62.0608   30.1634   50.5366 H   0  0  0  0  0  0  0  0  0  0  0  0
   60.9846   29.9912   49.0874 H   0  0  0  0  0  0  0  0  0  0  0  0
   62.2190   31.7240   49.0850 C   0  0  0  0  0  0  0  0  0  0  0  0
   62.6160   32.9130   49.7230 C   0  0  0  0  0  0  0  0  0  0  0  0
   62.3484   33.0850   50.7760 H   0  0  0  0  0  0  0  0  0  0  0  0
   63.3490   33.8770   49.0250 C   0  0  0  0  0  0  0  0  0  0  0  0
   63.6593   34.8035   49.5303 H   0  0  0  0  0  0  0  0  0  0  0  0
   63.6880   33.6650   47.6860 C   0  0  0  0  0  0  0  0  0  0  0  0
   64.2652   34.4245   47.1382 H   0  0  0  0  0  0  0  0  0  0  0  0
   63.2940   32.4880   47.0420 C   0  0  0  0  0  0  0  0  0  0  0  0
   63.5605   32.3226   45.9877 H   0  0  0  0  0  0  0  0  0  0  0  0
   62.5620   31.5220   47.7370 C   0  0  0  0  0  0  0  0  0  0  0  0
   62.2524   30.5982   47.2264 H   0  0  0  0  0  0  0  0  0  0  0  0
   58.6880   30.0030   47.8760 N   0  0  0  0  0  0  0  0  0  0  0  0
   58.5580   29.9090   46.5330 C   0  0  0  0  0  0  0  0  0  0  0  0
  1  2  1  0
  2  3  1  0
  3  4  1  0
  4  5  1  0
  5  6  2  0
  5  7  1  0
  7  8  1  0
  8  9  1  0
  2 10  2  0
 10 11  1  0
 11 12  1  0
 11 13  2  0
 13 14  1  0
 14 15  1  0
 15 16  2  0
 16 17  1  0
 17 18  1  0
 17 19  1  0
 19 20  1  0
 19 21  1  0
 19 22  1  0
 22 23  1  0
 22 24  1  0
 15 25  1  0
 25 26  2  0
 26 27  1  0
 27 28  1  0
 28 29  1  0
 28 30  1  0
 28 31  1  0
 31 32  1  0
 31 33  1  0
 31 34  1  0
 34 35  1  0
 35 36  1  0
 35 37  1  0
 35 38  1  0
 38 39  1  1
 38 40  1  0
 40 41  1  0
 40 42  1  0
 40 43  1  0
 43 44  2  0
 44 45  1  0
 44 46  1  0
 46 47  1  0
 46 48  2  0
 48 49  1  0
 48 50  1  0
 50 51  1  0
 50 52  2  0
 52 53  1  0
 26 54  1  0
 54 55  2  0
  8  3  2  0
 55 10  1  0
 55 14  1  0
 22 17  1  0
 38 27  1  0
 52 43  1  0
M  CHG  3   4  -1   7  -1   9  -1
M  END
>  <UniqueID>  (13) 
13

>  <SMILES>  (13) 
O=c1[n-]c([O-])c(/C=c2\cnn3/c(=N/C4CC4)nc(N4CCOC[C@H]4Cc4ccccc4)nc23)[n-]1

>  <Energy>  (13) 
418.52405987907923

>  <Genealogy>  (13) 
O=c1[n-]c([O-])c(C=c2cnn3c(=NC4CC4)nc(N4CCOCC4Cc4ccccc4)nc23)[n-]1 (protonated)
O=c1[n-]c([O-])c(C=c2cnn3c(=NC4CC4)nc(N4CCOC[C@H]4Cc4ccccc4)nc23)[n-]1 (chirality)
O=c1[n-]c([O-])c(/C=c2\cnn3/c(=N/C4CC4)nc(N4CCOC[C@H]4Cc4ccccc4)nc23)[n-]1 (cis-trans isomerization)
O=c1[n-]c([O-])c(/C=c2\cnn3/c(=N/C4CC4)nc(N4CCOC[C@H]4Cc4ccccc4)nc23)[n-]1 (3D coordinates assigned)
O=c1[n-]c([O-])c(/C=c2\cnn3/c(=N/C4CC4)nc(N4CCOC[C@H]4Cc4ccccc4)nc23)[n-]1 (nonaromatic ring conformer: 418.52405987907923 kcal/mol)

>  <smiles>  (13) 
O=c1[nH]c(O)c(C=c2cnn3c(=NC4CC4)nc(N4CCOCC4Cc4ccccc4)nc23)[nH]1

>  <score_type>  (13) 
oracle

>  <origin>  (13) 
adg

>  <m_score__min__energy>  (13) 
-17.239999999999998

>  <m_primary>  (13) 
energy

$$$$
13:0
     RDKit          3D

 49 51  0  0  0  0  0  0  0  0999 V2000
   60.2057   28.3000   47.7570 H   0  0  0  0  0  0  0  0  0  0  0  0
   59.5930   27.7520   47.0260 C   0  0  0  0  0  0  0  0  0  0  0  0
   59.5313   26.6547   47.0727 H   0  0  0  0  0  0  0  0  0  0  0  0
   58.9200   28.4230   46.0760 C   0  0  0  0  0  0  0  0  0  0  0  0
   58.1050   27.8550   45.0850 C   0  0  0  0  0  0  0  0  0  0  0  0
   57.8490   26.5410   44.9030 C   0  0  0  0  0  0  0  0  0  0  0  0
   58.1301   26.1069   43.9322 H   0  0  0  0  0  0  0  0  0  0  0  0
   57.2240   25.6310   45.8920 C   0  0  0  0  0  0  0  0  0  0  0  0
   57.7940   24.5410   46.4400 N   0  0  0  0  0  0  0  0  0  0  0  0
   56.8150   24.0230   47.2080 C   0  0  0  0  0  0  0  0  0  0  0  0
   56.9710   22.9740   47.8880 O   0  0  0  0  0  0  0  0  0  0  0  0
   55.6540   24.7120   47.1880 N   0  0  0  0  0  0  0  0  0  0  0  0
   55.9310   25.7240   46.3500 C   0  0  0  0  0  0  0  0  0  0  0  0
   55.0140   26.7070   45.9990 O   0  0  0  0  0  0  0  0  0  0  0  0
   57.5980   28.9190   44.3520 C   0  0  0  0  0  0  0  0  0  0  0  0
   56.9231   28.8545   43.4857 H   0  0  0  0  0  0  0  0  0  0  0  0
   58.1010   30.0720   44.9160 C   0  0  0  0  0  0  0  0  0  0  0  0
   57.7610   31.4280   44.4430 C   0  0  0  0  0  0  0  0  0  0  0  0
   58.3560   31.9140   43.4440 O   0  0  0  0  0  0  0  0  0  0  0  0
   56.7150   32.1840   45.0650 N   0  0  0  0  0  0  0  0  0  0  0  0
   56.8330   33.6080   45.3820 C   0  0  0  0  0  0  0  0  0  0  0  0
   56.8475   34.1823   44.4439 H   0  0  0  0  0  0  0  0  0  0  0  0
   55.9726   33.8938   46.0050 H   0  0  0  0  0  0  0  0  0  0  0  0
   58.0890   33.9020   46.1530 C   0  0  0  0  0  0  0  0  0  0  0  0
   58.1240   33.6720   47.4970 N   0  0  0  0  0  0  0  0  0  0  0  0
   59.2440   33.9030   48.2360 C   0  0  0  0  0  0  0  0  0  0  0  0
   59.2356   33.7158   49.3199 H   0  0  0  0  0  0  0  0  0  0  0  0
   60.4050   34.3780   47.6180 C   0  0  0  0  0  0  0  0  0  0  0  0
   61.3152   34.5577   48.2089 H   0  0  0  0  0  0  0  0  0  0  0  0
   60.3970   34.6220   46.2420 C   0  0  0  0  0  0  0  0  0  0  0  0
   61.3031   34.9966   45.7433 H   0  0  0  0  0  0  0  0  0  0  0  0
   59.2350   34.3890   45.5010 C   0  0  0  0  0  0  0  0  0  0  0  0
   59.2176   34.5847   44.4187 H   0  0  0  0  0  0  0  0  0  0  0  0
   58.9110   29.7800   45.9610 N   0  0  0  0  0  0  0  0  0  0  0  0
   59.6160   30.7620   46.8020 C   0  0  0  0  0  0  0  0  0  0  0  0
   59.3395   31.7763   46.4783 H   0  0  0  0  0  0  0  0  0  0  0  0
   59.3246   30.5972   47.8498 H   0  0  0  0  0  0  0  0  0  0  0  0
   61.1390   30.5970   46.6880 C   0  0  0  0  0  0  0  0  0  0  0  0
   61.3660   29.5721   46.3592 H   0  0  0  0  0  0  0  0  0  0  0  0
   61.5168   31.3287   45.9587 H   0  0  0  0  0  0  0  0  0  0  0  0
   61.7990   30.8450   47.9890 N   0  0  0  0  0  0  0  0  0  0  0  0
   60.8030   31.0990   49.0450 C   0  0  0  0  0  0  0  0  0  0  0  0
   61.2753   30.9786   50.0311 H   0  0  0  0  0  0  0  0  0  0  0  0
   60.4171   32.1243   48.9461 H   0  0  0  0  0  0  0  0  0  0  0  0
   59.9732   30.3837   48.9461 H   0  0  0  0  0  0  0  0  0  0  0  0
   62.7170   31.9930   47.8930 C   0  0  0  0  0  0  0  0  0  0  0  0
   62.9877   32.3315   48.9040 H   0  0  0  0  0  0  0  0  0  0  0  0
   63.6259   31.6915   47.3517 H   0  0  0  0  0  0  0  0  0  0  0  0
   62.2229   32.8133   47.3517 H   0  0  0  0  0  0  0  0  0  0  0  0
  1  2  1  0
  2  3  1  0
  2  4  2  0
  4  5  1  0
  5  6  2  0
  6  7  1  0
  6  8  1  0
  8  9  1  0
  9 10  1  0
 10 11  2  0
 10 12  1  0
 12 13  1  0
 13 14  1  0
  5 15  1  0
 15 16  1  0
 15 17  2  0
 17 18  1  0
 18 19  2  0
 18 20  1  0
 20 21  1  0
 21 22  1  0
 21 23  1  0
 21 24  1  0
 24 25  2  0
 25 26  1  0
 26 27  1  0
 26 28  2  0
 28 29  1  0
 28 30  1  0
 30 31  1  0
 30 32  2  0
 32 33  1  0
 17 34  1  0
 34 35  1  0
 35 36  1  0
 35 37  1  0
 35 38  1  0
 38 39  1  0
 38 40  1  0
 38 41  1  0
 41 42  1  0
 42 43  1  0
 42 44  1  0
 42 45  1  0
 41 46  1  0
 46 47  1  0
 46 48  1  0
 46 49  1  0
 34  4  1  0
 13  8  2  0
 32 24  1  0
M  CHG  4   9  -1  12  -1  14  -1  20  -1
M  END
>  <UniqueID>  (14) 
14

>  <SMILES>  (14) 
C=c1/c(=C/c2[n-]c(=O)[n-]c2[O-])cc(C(=O)[N-]Cc2ccccn2)n1CCN(C)C

>  <Energy>  (14) 
116.9670155118467

>  <Genealogy>  (14) 
C=c1c(=Cc2[n-]c(=O)[n-]c2[O-])cc(C(=O)[N-]Cc2ccccn2)n1CCN(C)C (protonated)
C=c1/c(=C/c2[n-]c(=O)[n-]c2[O-])cc(C(=O)[N-]Cc2ccccn2)n1CCN(C)C (cis-trans isomerization)
C=c1/c(=C/c2[n-]c(=O)[n-]c2[O-])cc(C(=O)[N-]Cc2ccccn2)n1CCN(C)C (3D coordinates assigned)
C=c1/c(=C/c2[n-]c(=O)[n-]c2[O-])cc(C(=O)[N-]Cc2ccccn2)n1CCN(C)C (optimized conformer: 116.9670155118467 kcal/mol)

>  <smiles>  (14) 
C=c1c(=Cc2[nH]c(=O)[nH]c2O)cc(C(=O)NCc2ccccn2)n1CCN(C)C

>  <score_type>  (14) 
oracle

>  <origin>  (14) 
adg

>  <m_score__min__energy>  (14) 
-16.629999999999999

>  <m_primary>  (14) 
energy

$$$$
14:0
     RDKit          3D

 69 73  0  0  0  0  0  0  0  0999 V2000
   60.9824   27.5256   46.5910 H   0  0  0  0  0  0  0  0  0  0  0  0
   60.1160   27.0850   46.0760 C   0  0  0  0  0  0  0  0  0  0  0  0
   59.9351   26.0015   46.1327 H   0  0  0  0  0  0  0  0  0  0  0  0
   59.2790   27.8700   45.3780 C   0  0  0  0  0  0  0  0  0  0  0  0
   58.1460   27.4360   44.6810 C   0  0  0  0  0  0  0  0  0  0  0  0
   57.7090   26.1720   44.5250 C   0  0  0  0  0  0  0  0  0  0  0  0
   57.8171   25.7004   43.5371 H   0  0  0  0  0  0  0  0  0  0  0  0
   57.0930   25.3880   45.6110 C   0  0  0  0  0  0  0  0  0  0  0  0
   57.6910   24.3430   46.2130 N   0  0  0  0  0  0  0  0  0  0  0  0
   56.8140   23.9950   47.1790 C   0  0  0  0  0  0  0  0  0  0  0  0
   57.0110   23.0250   47.9620 O   0  0  0  0  0  0  0  0  0  0  0  0
   55.7110   24.7730   47.2520 N   0  0  0  0  0  0  0  0  0  0  0  0
   55.9080   25.6570   46.2600 C   0  0  0  0  0  0  0  0  0  0  0  0
   55.0460   26.7140   45.9860 O   0  0  0  0  0  0  0  0  0  0  0  0
   57.5730   28.5670   44.1240 C   0  0  0  0  0  0  0  0  0  0  0  0
   56.6719   28.6049   43.4943 H   0  0  0  0  0  0  0  0  0  0  0  0
   58.3510   29.6350   44.5120 C   0  0  0  0  0  0  0  0  0  0  0  0
   58.0790   31.0250   44.1090 C   0  0  0  0  0  0  0  0  0  0  0  0
   57.7460   31.2520   42.9120 O   0  0  0  0  0  0  0  0  0  0  0  0
   58.1540   32.1120   45.0550 N   0  0  0  0  0  0  0  0  0  0  0  0
   58.1020   33.4920   44.5550 C   0  0  0  0  0  0  0  0  0  0  0  0
   58.7138   33.5687   43.6441 H   0  0  0  0  0  0  0  0  0  0  0  0
   57.0549   33.7482   44.3360 H   0  0  0  0  0  0  0  0  0  0  0  0
   58.6390   34.4740   45.6060 C   0  0  0  0  0  0  0  0  0  0  0  0
   59.7271   34.3415   45.6984 H   0  0  0  0  0  0  0  0  0  0  0  0
   58.3997   35.4975   45.2816 H   0  0  0  0  0  0  0  0  0  0  0  0
   58.0380   34.2510   46.8670 O   0  0  0  0  0  0  0  0  0  0  0  0
   58.3930   32.9700   47.3440 C   0  0  0  0  0  0  0  0  0  0  0  0
   59.4886   32.8720   47.3379 H   0  0  0  0  0  0  0  0  0  0  0  0
   58.0080   32.8516   48.3676 H   0  0  0  0  0  0  0  0  0  0  0  0
   57.7850   31.8820   46.4570 C   0  0  0  0  0  0  0  0  0  0  0  0
   58.1619   30.8991   46.7762 H   0  0  0  0  0  0  0  0  0  0  0  0
   56.6894   31.9103   46.5510 H   0  0  0  0  0  0  0  0  0  0  0  0
   59.3960   29.2230   45.2720 N   0  0  0  0  0  0  0  0  0  0  0  0
   60.5280   30.0630   45.6980 C   0  0  0  0  0  0  0  0  0  0  0  0
   61.4702   29.5343   45.4916 H   0  0  0  0  0  0  0  0  0  0  0  0
   60.4990   31.0117   45.1421 H   0  0  0  0  0  0  0  0  0  0  0  0
   60.4350   30.3560   47.1740 C   0  0  0  0  0  0  0  0  0  0  0  0
   59.5600   29.6210   47.9860 C   0  0  0  0  0  0  0  0  0  0  0  0
   58.9771   28.7939   47.5545 H   0  0  0  0  0  0  0  0  0  0  0  0
   59.4250   29.9340   49.3400 C   0  0  0  0  0  0  0  0  0  0  0  0
   58.7373   29.3522   49.9713 H   0  0  0  0  0  0  0  0  0  0  0  0
   60.1600   30.9830   49.8950 C   0  0  0  0  0  0  0  0  0  0  0  0
   60.0406   31.2306   50.9601 H   0  0  0  0  0  0  0  0  0  0  0  0
   61.0520   31.7250   49.1010 C   0  0  0  0  0  0  0  0  0  0  0  0
   61.8230   32.8570   49.6770 C   0  0  0  0  0  0  0  0  0  0  0  0
   61.4760   34.0410   49.4160 O   0  0  0  0  0  0  0  0  0  0  0  0
   62.9600   32.6300   50.5290 N   0  0  0  0  0  0  0  0  0  0  0  0
   63.1830   33.4690   51.7050 C   0  0  0  0  0  0  0  0  0  0  0  0
   62.2770   34.0573   51.9127 H   0  0  0  0  0  0  0  0  0  0  0  0
   63.4133   32.8317   52.5715 H   0  0  0  0  0  0  0  0  0  0  0  0
   64.3560   34.4150   51.4420 C   0  0  0  0  0  0  0  0  0  0  0  0
   64.0503   35.1740   50.7069 H   0  0  0  0  0  0  0  0  0  0  0  0
   64.6427   34.8955   52.3890 H   0  0  0  0  0  0  0  0  0  0  0  0
   65.5150   33.6720   50.9170 N   0  0  0  0  0  0  0  0  0  0  0  0
   66.8490   34.1320   51.2370 C   0  0  0  0  0  0  0  0  0  0  0  0
   67.0070   35.2010   51.8910 O   0  0  0  0  0  0  0  0  0  0  0  0
   68.0720   33.3760   50.8100 C   0  0  0  0  0  0  0  0  0  0  0  0
   68.6221   33.0359   51.6998 H   0  0  0  0  0  0  0  0  0  0  0  0
   67.7732   32.5048   50.2085 H   0  0  0  0  0  0  0  0  0  0  0  0
   68.7177   34.0328   50.2085 H   0  0  0  0  0  0  0  0  0  0  0  0
   65.2870   32.7540   49.7850 C   0  0  0  0  0  0  0  0  0  0  0  0
   65.0856   33.3433   48.8783 H   0  0  0  0  0  0  0  0  0  0  0  0
   66.1854   32.1342   49.6484 H   0  0  0  0  0  0  0  0  0  0  0  0
   64.0950   31.8340   50.0600 C   0  0  0  0  0  0  0  0  0  0  0  0
   63.8165   31.3087   49.1345 H   0  0  0  0  0  0  0  0  0  0  0  0
   64.3701   31.0994   50.8311 H   0  0  0  0  0  0  0  0  0  0  0  0
   61.1790   31.4040   47.7380 C   0  0  0  0  0  0  0  0  0  0  0  0
   61.8699   31.9813   47.1060 H   0  0  0  0  0  0  0  0  0  0  0  0
  1  2  1  0
  2  3  1  0
  2  4  2  0
  4  5  1  0
  5  6  2  0
  6  7  1  0
  6  8  1  0
  8  9  1  0
  9 10  1  0
 10 11  2  0
 10 12  1  0
 12 13  1  0
 13 14  1  0
  5 15  1  0
 15 16  1  0
 15 17  2  0
 17 18  1  0
 18 19  2  0
 18 20  1  0
 20 21  1  0
 21 22  1  0
 21 23  1  0
 21 24  1  0
 24 25  1  0
 24 26  1  0
 24 27  1  0
 27 28  1  0
 28 29  1  0
 28 30  1  0
 28 31  1  0
 31 32  1  0
 31 33  1  0
 17 34  1  0
 34 35  1  0
 35 36  1  0
 35 37  1  0
 35 38  1  0
 38 39  2  0
 39 40  1  0
 39 41  1  0
 41 42  1  0
 41 43  2  0
 43 44  1  0
 43 45  1  0
 45 46  1  0
 46 47  2  0
 46 48  1  0
 48 49  1  0
 49 50  1  0
 49 51  1  0
 49 52  1  0
 52 53  1  0
 52 54  1  0
 52 55  1  0
 55 56  1  0
 56 57  2  0
 56 58  1  0
 58 59  1  0
 58 60  1  0
 58 61  1  0
 55 62  1  0
 62 63  1  0
 62 64  1  0
 62 65  1  0
 65 66  1  0
 65 67  1  0
 45 68  2  0
 68 69  1  0
 34  4  1  0
 68 38  1  0
 13  8  2  0
 31 20  1  0
 65 48  1  0
M  CHG  3   9  -1  12  -1  14  -1
M  END
>  <UniqueID>  (15) 
15

>  <SMILES>  (15) 
C=c1/c(=C/c2[n-]c(=O)[n-]c2[O-])cc(C(=O)N2CCOCC2)n1Cc1cccc(C(=O)N2CCN(C(C)=O)CC2)c1

>  <Energy>  (15) 
148.83900142276156

>  <Genealogy>  (15) 
C=c1c(=Cc2[n-]c(=O)[n-]c2[O-])cc(C(=O)N2CCOCC2)n1Cc1cccc(C(=O)N2CCN(C(C)=O)CC2)c1 (protonated)
C=c1/c(=C/c2[n-]c(=O)[n-]c2[O-])cc(C(=O)N2CCOCC2)n1Cc1cccc(C(=O)N2CCN(C(C)=O)CC2)c1 (cis-trans isomerization)
C=c1/c(=C/c2[n-]c(=O)[n-]c2[O-])cc(C(=O)N2CCOCC2)n1Cc1cccc(C(=O)N2CCN(C(C)=O)CC2)c1 (3D coordinates assigned)
C=c1/c(=C/c2[n-]c(=O)[n-]c2[O-])cc(C(=O)N2CCOCC2)n1Cc1cccc(C(=O)N2CCN(C(C)=O)CC2)c1 (nonaromatic ring conformer: 148.83900142276156 kcal/mol)

>  <smiles>  (15) 
C=c1c(=Cc2[nH]c(=O)[nH]c2O)cc(C(=O)N2CCOCC2)n1Cc1cccc(C(=O)N2CCN(C(C)=O)CC2)c1

>  <score_type>  (15) 
oracle

>  <origin>  (15) 
adg

>  <m_score__min__energy>  (15) 
-17.449999999999999

>  <m_primary>  (15) 
energy

$$$$
15:0
     RDKit          3D

 52 55  0  0  0  0  0  0  0  0999 V2000
   57.3870   27.9370   46.6320 N   0  0  0  0  0  0  0  0  0  0  0  0
   58.6200   27.3630   47.0710 C   0  0  0  0  0  0  0  0  0  0  0  0
   59.2790   27.9190   47.9920 O   0  0  0  0  0  0  0  0  0  0  0  0
   59.1580   26.1290   46.4150 C   0  0  0  0  0  0  0  0  0  0  0  0
   58.3680   25.8070   45.2260 N   0  0  0  0  0  0  0  0  0  0  0  0
   58.1350   26.5940   44.1400 C   0  0  0  0  0  0  0  0  0  0  0  0
   58.6770   28.2990   43.9940 S   0  0  0  0  0  0  0  0  0  0  0  0
   57.0710   28.9140   43.3760 C   0  0  0  0  0  0  0  0  0  0  0  0
   56.3310   29.6680   44.4460 C   0  0  0  0  0  0  0  0  0  0  0  0
   55.5730   29.0310   45.2250 O   0  0  0  0  0  0  0  0  0  0  0  0
   56.5180   31.0730   44.6650 N   0  0  0  0  0  0  0  0  0  0  0  0
   57.6510   31.6860   45.2910 C   0  0  0  0  0  0  0  0  0  0  0  0
   57.8370   33.0760   45.2640 C   0  0  0  0  0  0  0  0  0  0  0  0
   58.9430   33.6510   45.8940 C   0  0  0  0  0  0  0  0  0  0  0  0
   59.8630   32.8500   46.5900 C   0  0  0  0  0  0  0  0  0  0  0  0
   61.0040   33.4470   47.2370 N   0  0  0  0  0  0  0  0  0  0  0  0
   60.9260   33.7790   48.6660 C   0  0  0  0  0  0  0  0  0  0  0  0
   62.2870   34.2310   49.1920 C   0  0  0  0  0  0  0  0  0  0  0  0
   63.2990   33.4380   48.6120 O   0  0  0  0  0  0  0  0  0  0  0  0
   63.4860   33.8210   47.2620 C   0  0  0  0  0  0  0  0  0  0  0  0
   62.1770   33.8350   46.4360 C   0  0  0  0  0  0  0  0  0  0  0  0
   59.6550   31.4600   46.6420 C   0  0  0  0  0  0  0  0  0  0  0  0
   58.5490   30.8870   46.0070 C   0  0  0  0  0  0  0  0  0  0  0  0
   57.4700   25.9590   43.1410 N   0  0  0  0  0  0  0  0  0  0  0  0
   57.2890   24.7220   43.6380 C   0  0  0  0  0  0  0  0  0  0  0  0
   56.6690   23.6420   43.0150 C   0  0  0  0  0  0  0  0  0  0  0  0
   56.6210   22.4210   43.7150 C   0  0  0  0  0  0  0  0  0  0  0  0
   57.1930   22.3110   45.0020 C   0  0  0  0  0  0  0  0  0  0  0  0
   57.8140   23.4220   45.6040 C   0  0  0  0  0  0  0  0  0  0  0  0
   57.8350   24.6210   44.8860 C   0  0  0  0  0  0  0  0  0  0  0  0
   56.8190   27.4840   45.8840 H   0  0  0  0  0  0  0  0  0  0  0  0
   57.0260   28.8090   47.0820 H   0  0  0  0  0  0  0  0  0  0  0  0
   60.2043   26.2996   46.1215 H   0  0  0  0  0  0  0  0  0  0  0  0
   59.1004   25.2899   47.1239 H   0  0  0  0  0  0  0  0  0  0  0  0
   57.2477   29.5839   42.5216 H   0  0  0  0  0  0  0  0  0  0  0  0
   56.4606   28.0510   43.0715 H   0  0  0  0  0  0  0  0  0  0  0  0
   57.1087   33.7160   44.7444 H   0  0  0  0  0  0  0  0  0  0  0  0
   59.0946   34.7394   45.8447 H   0  0  0  0  0  0  0  0  0  0  0  0
   60.1966   34.5899   48.8087 H   0  0  0  0  0  0  0  0  0  0  0  0
   60.6136   32.8817   49.2203 H   0  0  0  0  0  0  0  0  0  0  0  0
   62.4507   35.2862   48.9280 H   0  0  0  0  0  0  0  0  0  0  0  0
   62.3141   34.1198   50.2860 H   0  0  0  0  0  0  0  0  0  0  0  0
   63.9197   34.8317   47.2439 H   0  0  0  0  0  0  0  0  0  0  0  0
   64.1496   33.0734   46.8030 H   0  0  0  0  0  0  0  0  0  0  0  0
   62.0172   34.8504   46.0444 H   0  0  0  0  0  0  0  0  0  0  0  0
   62.2854   33.1020   45.6230 H   0  0  0  0  0  0  0  0  0  0  0  0
   60.3662   30.8203   47.1851 H   0  0  0  0  0  0  0  0  0  0  0  0
   58.3839   29.8013   46.0707 H   0  0  0  0  0  0  0  0  0  0  0  0
   56.2316   23.7393   42.0104 H   0  0  0  0  0  0  0  0  0  0  0  0
   56.1349   21.5472   43.2566 H   0  0  0  0  0  0  0  0  0  0  0  0
   57.1530   21.3509   45.5374 H   0  0  0  0  0  0  0  0  0  0  0  0
   58.2666   23.3490   46.6039 H   0  0  0  0  0  0  0  0  0  0  0  0
  1  2  1  0
  2  3  2  0
  2  4  1  0
  4  5  1  0
  5  6  1  0
  6  7  1  0
  7  8  1  0
  8  9  1  0
  9 10  2  0
  9 11  1  0
 11 12  1  0
 12 13  2  0
 13 14  1  0
 14 15  2  0
 15 16  1  0
 16 17  1  0
 17 18  1  0
 18 19  1  0
 19 20  1  0
 20 21  1  0
 15 22  1  0
 22 23  2  0
  6 24  2  0
 24 25  1  0
 25 26  2  0
 26 27  1  0
 27 28  2  0
 28 29  1  0
 29 30  2  0
 30  5  1  0
 23 12  1  0
 30 25  1  0
 21 16  1  0
  1 31  1  0
  1 32  1  0
  4 33  1  0
  4 34  1  0
  8 35  1  0
  8 36  1  0
 13 37  1  0
 14 38  1  0
 17 39  1  0
 17 40  1  0
 18 41  1  0
 18 42  1  0
 20 43  1  0
 20 44  1  0
 21 45  1  0
 21 46  1  0
 22 47  1  0
 23 48  1  0
 26 49  1  0
 27 50  1  0
 28 51  1  0
 29 52  1  0
M  CHG  1  11  -1
M  END
>  <UniqueID>  (16) 
16

>  <SMILES>  (16) 
NC(=O)Cn1c(SCC(=O)[N-]c2ccc(N3CCOCC3)cc2)nc2ccccc21

>  <Energy>  (16) 
100.1805538322729

>  <Genealogy>  (16) 
NC(=O)Cn1c(SCC(=O)[N-]c2ccc(N3CCOCC3)cc2)nc2ccccc21 (protonated)
NC(=O)Cn1c(SCC(=O)[N-]c2ccc(N3CCOCC3)cc2)nc2ccccc21 (3D coordinates assigned)
NC(=O)Cn1c(SCC(=O)[N-]c2ccc(N3CCOCC3)cc2)nc2ccccc21 (nonaromatic ring conformer: 100.1805538322729 kcal/mol)

>  <smiles>  (16) 
NC(=O)Cn1c(SCC(=O)Nc2ccc(N3CCOCC3)cc2)nc2ccccc21

>  <score_type>  (16) 
oracle

>  <origin>  (16) 
adg

>  <m_score__min__energy>  (16) 
-10.529999999999999

>  <m_primary>  (16) 
energy

$$$$
16:0
     RDKit          3D

 62 66  0  0  0  0  0  0  0  0999 V2000
   60.4460   33.4830   52.8920 C   0  0  0  0  0  0  0  0  0  0  0  0
   59.3880   32.8120   52.2180 O   0  0  0  0  0  0  0  0  0  0  0  0
   59.1670   32.9410   50.8450 C   0  0  0  0  0  0  0  0  0  0  0  0
   59.8400   33.9250   50.1240 C   0  0  0  0  0  0  0  0  0  0  0  0
   59.6230   34.0370   48.7520 C   0  0  0  0  0  0  0  0  0  0  0  0
   58.7350   33.1540   48.1210 C   0  0  0  0  0  0  0  0  0  0  0  0
   58.4940   33.1890   46.6570 C   0  0  0  0  0  0  0  0  0  0  0  0
   59.2680   34.0050   45.8070 C   0  0  0  0  0  0  0  0  0  0  0  0
   59.1010   33.9430   44.4220 C   0  0  0  0  0  0  0  0  0  0  0  0
   58.1820   33.0540   43.8640 C   0  0  0  0  0  0  0  0  0  0  0  0
   57.4030   32.2350   44.6940 C   0  0  0  0  0  0  0  0  0  0  0  0
   56.5420   31.2350   44.1380 N   0  0  0  0  0  0  0  0  0  0  0  0
   56.3330   29.9370   44.7170 C   0  0  0  0  0  0  0  0  0  0  0  0
   55.1500   29.5290   44.8680 O   0  0  0  0  0  0  0  0  0  0  0  0
   57.4630   29.0910   45.1850 C   0  0  0  0  0  0  0  0  0  0  0  0
   58.1430   28.2520   44.2860 C   0  0  0  0  0  0  0  0  0  0  0  0
   59.2120   27.4640   44.7230 C   0  0  0  0  0  0  0  0  0  0  0  0
   59.6200   27.5100   46.0600 C   0  0  0  0  0  0  0  0  0  0  0  0
   58.9460   28.3320   46.9750 C   0  0  0  0  0  0  0  0  0  0  0  0
   59.4180   28.4480   48.4030 C   0  0  0  0  0  0  0  0  0  0  0  0
   60.2530   29.6410   48.5910 N   0  0  0  0  0  0  0  0  0  0  0  0
   60.5230   30.5390   47.4500 C   0  0  0  0  0  0  0  0  0  0  0  0
   62.0020   30.9350   47.2980 C   0  0  0  0  0  0  0  0  0  0  0  0
   62.4260   31.9840   48.2940 C   0  0  0  0  0  0  0  0  0  0  0  0
   62.7840   33.2690   47.8520 C   0  0  0  0  0  0  0  0  0  0  0  0
   63.1980   34.2390   48.7670 C   0  0  0  0  0  0  0  0  0  0  0  0
   63.2680   33.9380   50.1290 C   0  0  0  0  0  0  0  0  0  0  0  0
   63.6860   34.9180   51.0270 O   0  0  0  0  0  0  0  0  0  0  0  0
   62.9230   32.6580   50.5800 C   0  0  0  0  0  0  0  0  0  0  0  0
   62.5000   31.6710   49.6720 C   0  0  0  0  0  0  0  0  0  0  0  0
   62.1800   30.2760   50.1610 C   0  0  0  0  0  0  0  0  0  0  0  0
   60.7430   29.9340   49.9130 C   0  0  0  0  0  0  0  0  0  0  0  0
   59.9560   29.8720   50.8960 O   0  0  0  0  0  0  0  0  0  0  0  0
   57.8550   29.0940   46.5350 C   0  0  0  0  0  0  0  0  0  0  0  0
   57.5400   32.3270   46.0840 C   0  0  0  0  0  0  0  0  0  0  0  0
   58.0940   32.2210   48.8810 N   0  0  0  0  0  0  0  0  0  0  0  0
   58.3030   32.1170   50.1940 N   0  0  0  0  0  0  0  0  0  0  0  0
   60.3038   33.3928   53.9790 H   0  0  0  0  0  0  0  0  0  0  0  0
   61.4072   33.0291   52.6091 H   0  0  0  0  0  0  0  0  0  0  0  0
   60.4451   34.5460   52.6091 H   0  0  0  0  0  0  0  0  0  0  0  0
   60.5364   34.6074   50.6332 H   0  0  0  0  0  0  0  0  0  0  0  0
   60.1436   34.8111   48.1692 H   0  0  0  0  0  0  0  0  0  0  0  0
   60.0084   34.6952   46.2377 H   0  0  0  0  0  0  0  0  0  0  0  0
   59.6963   34.5976   43.7685 H   0  0  0  0  0  0  0  0  0  0  0  0
   58.0683   32.9954   42.7715 H   0  0  0  0  0  0  0  0  0  0  0  0
   57.8322   28.2150   43.2315 H   0  0  0  0  0  0  0  0  0  0  0  0
   59.7339   26.8057   44.0129 H   0  0  0  0  0  0  0  0  0  0  0  0
   60.4718   26.8998   46.3948 H   0  0  0  0  0  0  0  0  0  0  0  0
   58.5427   28.5146   49.0659 H   0  0  0  0  0  0  0  0  0  0  0  0
   60.0204   27.5597   48.6440 H   0  0  0  0  0  0  0  0  0  0  0  0
   60.2050   30.0308   46.5277 H   0  0  0  0  0  0  0  0  0  0  0  0
   59.9639   31.4675   47.6381 H   0  0  0  0  0  0  0  0  0  0  0  0
   62.6234   30.0391   47.4437 H   0  0  0  0  0  0  0  0  0  0  0  0
   62.1318   31.3592   46.2914 H   0  0  0  0  0  0  0  0  0  0  0  0
   62.7379   33.5118   46.7801 H   0  0  0  0  0  0  0  0  0  0  0  0
   63.4702   35.2445   48.4136 H   0  0  0  0  0  0  0  0  0  0  0  0
   64.4680   34.7640   51.6540 H   0  0  0  0  0  0  0  0  0  0  0  0
   62.9833   32.4227   51.6529 H   0  0  0  0  0  0  0  0  0  0  0  0
   62.8179   29.5541   49.6301 H   0  0  0  0  0  0  0  0  0  0  0  0
   62.3672   30.2340   51.2441 H   0  0  0  0  0  0  0  0  0  0  0  0
   57.2957   29.7051   47.2587 H   0  0  0  0  0  0  0  0  0  0  0  0
   56.8952   31.7191   46.7356 H   0  0  0  0  0  0  0  0  0  0  0  0
  1  2  1  0
  2  3  1  0
  3  4  2  0
  4  5  1  0
  5  6  2  0
  6  7  1  0
  7  8  2  0
  8  9  1  0
  9 10  2  0
 10 11  1  0
 11 12  1  0
 12 13  1  0
 13 14  2  0
 13 15  1  0
 15 16  2  0
 16 17  1  0
 17 18  2  0
 18 19  1  0
 19 20  1  0
 20 21  1  0
 21 22  1  0
 22 23  1  0
 23 24  1  0
 24 25  2  0
 25 26  1  0
 26 27  2  0
 27 28  1  0
 27 29  1  0
 29 30  2  0
 30 31  1  0
 31 32  1  0
 32 33  2  0
 19 34  2  0
 11 35  2  0
  6 36  1  0
 36 37  2  0
 37  3  1  0
 35  7  1  0
 34 15  1  0
 32 21  1  0
 30 24  1  0
  1 38  1  0
  1 39  1  0
  1 40  1  0
  4 41  1  0
  5 42  1  0
  8 43  1  0
  9 44  1  0
 10 45  1  0
 16 46  1  0
 17 47  1  0
 18 48  1  0
 20 49  1  0
 20 50  1  0
 22 51  1  0
 22 52  1  0
 23 53  1  0
 23 54  1  0
 25 55  1  0
 26 56  1  0
 28 57  1  0
 29 58  1  0
 31 59  1  0
 31 60  1  0
 34 61  1  0
 35 62  1  0
M  CHG  1  12  -1
M  END
>  <UniqueID>  (17) 
17

>  <SMILES>  (17) 
COc1ccc(-c2cccc([N-]C(=O)c3cccc(CN4CCc5ccc(O)cc5CC4=O)c3)c2)nn1

>  <Energy>  (17) 
84.78533616458564

>  <Genealogy>  (17) 
COc1ccc(-c2cccc([N-]C(=O)c3cccc(CN4CCc5ccc(O)cc5CC4=O)c3)c2)nn1 (protonated)
COc1ccc(-c2cccc([N-]C(=O)c3cccc(CN4CCc5ccc(O)cc5CC4=O)c3)c2)nn1 (3D coordinates assigned)
COc1ccc(-c2cccc([N-]C(=O)c3cccc(CN4CCc5ccc(O)cc5CC4=O)c3)c2)nn1 (nonaromatic ring conformer: 84.78533616458564 kcal/mol)

>  <smiles>  (17) 
COc1ccc(-c2cccc(NC(=O)c3cccc(CN4CCc5ccc(O)cc5CC4=O)c3)c2)nn1

>  <score_type>  (17) 
oracle

>  <origin>  (17) 
adg

>  <m_score__min__energy>  (17) 
-9.2699999999999996

>  <m_primary>  (17) 
energy

$$$$
17:0
     RDKit          3D

 58 61  0  0  0  0  0  0  0  0999 V2000
   59.3760   35.4470   46.7300 C   0  0  0  0  0  0  0  0  0  0  0  0
   58.9450   34.2060   45.9950 C   0  0  0  0  0  0  0  0  0  0  0  0
   58.9140   34.1970   44.5910 C   0  0  0  0  0  0  0  0  0  0  0  0
   58.4960   33.0610   43.8970 C   0  0  0  0  0  0  0  0  0  0  0  0
   58.0900   31.9160   44.5900 C   0  0  0  0  0  0  0  0  0  0  0  0
   57.6860   30.7450   43.8590 N   0  0  0  0  0  0  0  0  0  0  0  0
   56.9450   29.6870   44.4730 C   0  0  0  0  0  0  0  0  0  0  0  0
   55.6940   29.7930   44.5820 O   0  0  0  0  0  0  0  0  0  0  0  0
   57.6460   28.5160   45.0380 C   0  0  0  0  0  0  0  0  0  0  0  0
   59.0430   28.5170   45.1730 C   0  0  0  0  0  0  0  0  0  0  0  0
   59.6980   27.4250   45.7450 C   0  0  0  0  0  0  0  0  0  0  0  0
   58.9660   26.3330   46.2170 C   0  0  0  0  0  0  0  0  0  0  0  0
   57.5620   26.3180   46.1100 C   0  0  0  0  0  0  0  0  0  0  0  0
   56.7770   25.1950   46.6720 C   0  0  0  0  0  0  0  0  0  0  0  0
   55.5190   25.2710   46.7330 O   0  0  0  0  0  0  0  0  0  0  0  0
   57.4430   24.0280   47.1710 N   0  0  0  0  0  0  0  0  0  0  0  0
   56.9930   22.6680   46.9030 C   0  0  0  0  0  0  0  0  0  0  0  0
   56.8510   22.4560   45.4200 C   0  0  0  0  0  0  0  0  0  0  0  0
   55.8490   23.1350   44.7050 C   0  0  0  0  0  0  0  0  0  0  0  0
   55.7380   22.9770   43.3200 C   0  0  0  0  0  0  0  0  0  0  0  0
   56.6250   22.1420   42.6380 C   0  0  0  0  0  0  0  0  0  0  0  0
   57.6310   21.4690   43.3390 C   0  0  0  0  0  0  0  0  0  0  0  0
   57.7470   21.6280   44.7250 C   0  0  0  0  0  0  0  0  0  0  0  0
   56.9140   27.4080   45.5000 C   0  0  0  0  0  0  0  0  0  0  0  0
   58.1240   31.9200   45.9970 C   0  0  0  0  0  0  0  0  0  0  0  0
   58.5320   33.0620   46.7060 C   0  0  0  0  0  0  0  0  0  0  0  0
   58.6210   33.0490   48.1410 N   0  0  0  0  0  0  0  0  0  0  0  0
   59.7930   33.3260   48.9210 C   0  0  0  0  0  0  0  0  0  0  0  0
   59.6770   33.8100   50.0820 O   0  0  0  0  0  0  0  0  0  0  0  0
   61.1400   33.0850   48.3560 C   0  0  0  0  0  0  0  0  0  0  0  0
   61.4540   31.8550   47.7460 C   0  0  0  0  0  0  0  0  0  0  0  0
   62.7320   31.6300   47.2260 C   0  0  0  0  0  0  0  0  0  0  0  0
   63.7060   32.6270   47.3040 C   0  0  0  0  0  0  0  0  0  0  0  0
   63.4050   33.8520   47.9020 C   0  0  0  0  0  0  0  0  0  0  0  0
   62.1330   34.0810   48.4290 C   0  0  0  0  0  0  0  0  0  0  0  0
   59.3149   35.2709   47.8141 H   0  0  0  0  0  0  0  0  0  0  0  0
   60.4125   35.6938   46.4565 H   0  0  0  0  0  0  0  0  0  0  0  0
   58.7156   36.2831   46.4565 H   0  0  0  0  0  0  0  0  0  0  0  0
   59.2221   35.0937   44.0333 H   0  0  0  0  0  0  0  0  0  0  0  0
   58.4857   33.0660   42.7971 H   0  0  0  0  0  0  0  0  0  0  0  0
   57.9070   30.6680   42.8390 H   0  0  0  0  0  0  0  0  0  0  0  0
   59.6252   29.3834   44.8260 H   0  0  0  0  0  0  0  0  0  0  0  0
   60.7951   27.4245   45.8244 H   0  0  0  0  0  0  0  0  0  0  0  0
   59.4890   25.4803   46.6747 H   0  0  0  0  0  0  0  0  0  0  0  0
   57.7285   21.9552   47.3041 H   0  0  0  0  0  0  0  0  0  0  0  0
   56.0175   22.5086   47.3857 H   0  0  0  0  0  0  0  0  0  0  0  0
   55.1482   23.7944   45.2381 H   0  0  0  0  0  0  0  0  0  0  0  0
   54.9511   23.5111   42.7674 H   0  0  0  0  0  0  0  0  0  0  0  0
   56.5327   22.0134   41.5494 H   0  0  0  0  0  0  0  0  0  0  0  0
   58.3318   20.8140   42.8006 H   0  0  0  0  0  0  0  0  0  0  0  0
   58.5434   21.1021   45.2719 H   0  0  0  0  0  0  0  0  0  0  0  0
   55.8203   27.3930   45.3831 H   0  0  0  0  0  0  0  0  0  0  0  0
   57.8269   31.0162   46.5492 H   0  0  0  0  0  0  0  0  0  0  0  0
   60.6894   31.0670   47.6784 H   0  0  0  0  0  0  0  0  0  0  0  0
   62.9706   30.6653   46.7544 H   0  0  0  0  0  0  0  0  0  0  0  0
   64.7109   32.4473   46.8942 H   0  0  0  0  0  0  0  0  0  0  0  0
   64.1720   34.6385   47.9580 H   0  0  0  0  0  0  0  0  0  0  0  0
   61.9045   35.0462   48.9047 H   0  0  0  0  0  0  0  0  0  0  0  0
  1  2  1  0
  2  3  2  0
  3  4  1  0
  4  5  2  0
  5  6  1  0
  6  7  1  0
  7  8  2  0
  7  9  1  0
  9 10  2  0
 10 11  1  0
 11 12  2  0
 12 13  1  0
 13 14  1  0
 14 15  2  0
 14 16  1  0
 16 17  1  0
 17 18  1  0
 18 19  2  0
 19 20  1  0
 20 21  2  0
 21 22  1  0
 22 23  2  0
 13 24  2  0
  5 25  1  0
 25 26  2  0
 26 27  1  0
 27 28  1  0
 28 29  2  0
 28 30  1  0
 30 31  2  0
 31 32  1  0
 32 33  2  0
 33 34  1  0
 34 35  2  0
 26  2  1  0
 35 30  1  0
 24  9  1  0
 23 18  1  0
  1 36  1  0
  1 37  1  0
  1 38  1  0
  3 39  1  0
  4 40  1  0
  6 41  1  0
 10 42  1  0
 11 43  1  0
 12 44  1  0
 17 45  1  0
 17 46  1  0
 19 47  1  0
 20 48  1  0
 21 49  1  0
 22 50  1  0
 23 51  1  0
 24 52  1  0
 25 53  1  0
 31 54  1  0
 32 55  1  0
 33 56  1  0
 34 57  1  0
 35 58  1  0
M  CHG  2  16  -1  27  -1
M  END
>  <UniqueID>  (18) 
18

>  <SMILES>  (18) 
Cc1ccc(NC(=O)c2cccc(C(=O)[N-]Cc3ccccc3)c2)cc1[N-]C(=O)c1ccccc1

>  <Energy>  (18) 
73.85715158711137

>  <Genealogy>  (18) 
Cc1ccc(NC(=O)c2cccc(C(=O)[N-]Cc3ccccc3)c2)cc1[N-]C(=O)c1ccccc1 (protonated)
Cc1ccc(NC(=O)c2cccc(C(=O)[N-]Cc3ccccc3)c2)cc1[N-]C(=O)c1ccccc1 (3D coordinates assigned)
Cc1ccc(NC(=O)c2cccc(C(=O)[N-]Cc3ccccc3)c2)cc1[N-]C(=O)c1ccccc1 (optimized conformer: 73.85715158711137 kcal/mol)

>  <smiles>  (18) 
Cc1ccc(NC(=O)c2cccc(C(=O)NCc3ccccc3)c2)cc1NC(=O)c1ccccc1

>  <score_type>  (18) 
oracle

>  <origin>  (18) 
adg

>  <m_score__min__energy>  (18) 
-13.800000000000001

>  <m_primary>  (18) 
energy

$$$$
18:0
     RDKit          3D

 33 34  0  0  0  0  0  0  0  0999 V2000
   57.2480   24.5670   43.5390 C   0  0  0  0  0  0  0  0  0  0  0  0
   57.2420   24.5500   44.8720 C   0  0  0  0  0  0  0  0  0  0  0  0
   55.5800   24.2490   45.7760 Br  0  0  0  0  0  0  0  0  0  0  0  0
   58.4720   24.7530   45.6620 C   0  0  0  0  0  0  0  0  0  0  0  0
   59.2700   23.7910   45.8180 O   0  0  0  0  0  0  0  0  0  0  0  0
   58.7300   26.0170   46.2910 N   0  0  0  0  0  0  0  0  0  0  0  0
   58.3130   27.3080   45.8220 C   0  0  0  0  0  0  0  0  0  0  0  0
   59.2320   28.3360   45.5490 C   0  0  0  0  0  0  0  0  0  0  0  0
   58.7860   29.5720   45.0710 C   0  0  0  0  0  0  0  0  0  0  0  0
   57.4170   29.7910   44.8340 C   0  0  0  0  0  0  0  0  0  0  0  0
   56.9270   31.0220   44.3690 O   0  0  0  0  0  0  0  0  0  0  0  0
   57.6860   32.1880   44.2010 C   0  0  0  0  0  0  0  0  0  0  0  0
   57.8550   32.6800   43.0520 O   0  0  0  0  0  0  0  0  0  0  0  0
   58.2420   32.8770   45.3880 C   0  0  0  0  0  0  0  0  0  0  0  0
   58.9780   34.0660   45.2360 C   0  0  0  0  0  0  0  0  0  0  0  0
   59.5030   34.7200   46.3540 C   0  0  0  0  0  0  0  0  0  0  0  0
   59.3010   34.1990   47.6350 C   0  0  0  0  0  0  0  0  0  0  0  0
   59.8280   34.8560   48.7390 O   0  0  0  0  0  0  0  0  0  0  0  0
   58.5710   33.0160   47.8010 C   0  0  0  0  0  0  0  0  0  0  0  0
   58.3740   32.5010   49.0810 O   0  0  0  0  0  0  0  0  0  0  0  0
   58.0430   32.3580   46.6800 C   0  0  0  0  0  0  0  0  0  0  0  0
   56.5040   28.7630   45.1030 C   0  0  0  0  0  0  0  0  0  0  0  0
   55.1450   28.9650   44.8880 O   0  0  0  0  0  0  0  0  0  0  0  0
   56.9520   27.5270   45.5800 C   0  0  0  0  0  0  0  0  0  0  0  0
   58.1889   24.7378   42.9954 H   0  0  0  0  0  0  0  0  0  0  0  0
   56.3121   24.4102   42.9827 H   0  0  0  0  0  0  0  0  0  0  0  0
   60.3067   28.1674   45.7121 H   0  0  0  0  0  0  0  0  0  0  0  0
   59.5099   30.3777   44.8792 H   0  0  0  0  0  0  0  0  0  0  0  0
   59.1413   34.4835   44.2315 H   0  0  0  0  0  0  0  0  0  0  0  0
   60.0778   35.6490   46.2251 H   0  0  0  0  0  0  0  0  0  0  0  0
   58.7670   32.9510   49.9000 H   0  0  0  0  0  0  0  0  0  0  0  0
   57.4690   31.4291   46.8126 H   0  0  0  0  0  0  0  0  0  0  0  0
   56.2283   26.7199   45.7666 H   0  0  0  0  0  0  0  0  0  0  0  0
  1  2  2  0
  2  3  1  0
  2  4  1  0
  4  5  2  0
  4  6  1  0
  6  7  1  0
  7  8  2  0
  8  9  1  0
  9 10  2  0
 10 11  1  0
 11 12  1  0
 12 13  2  0
 12 14  1  0
 14 15  2  0
 15 16  1  0
 16 17  2  0
 17 18  1  0
 17 19  1  0
 19 20  1  0
 19 21  2  0
 10 22  1  0
 22 23  1  0
 22 24  2  0
 24  7  1  0
 21 14  1  0
  1 25  1  0
  1 26  1  0
  8 27  1  0
  9 28  1  0
 15 29  1  0
 16 30  1  0
 20 31  1  0
 21 32  1  0
 24 33  1  0
M  CHG  3   6  -1  18  -1  23  -1
M  END
>  <UniqueID>  (19) 
19

>  <SMILES>  (19) 
C=C(Br)C(=O)[N-]c1ccc(OC(=O)c2ccc([O-])c(O)c2)c([O-])c1

>  <Energy>  (19) 
41.163611818326814

>  <Genealogy>  (19) 
C=C(Br)C(=O)[N-]c1ccc(OC(=O)c2ccc([O-])c(O)c2)c([O-])c1 (protonated)
C=C(Br)C(=O)[N-]c1ccc(OC(=O)c2ccc([O-])c(O)c2)c([O-])c1 (3D coordinates assigned)
C=C(Br)C(=O)[N-]c1ccc(OC(=O)c2ccc([O-])c(O)c2)c([O-])c1 (optimized conformer: 41.163611818326814 kcal/mol)

>  <smiles>  (19) 
C=C(Br)C(=O)Nc1ccc(OC(=O)c2ccc(O)c(O)c2)c(O)c1

>  <score_type>  (19) 
oracle

>  <origin>  (19) 
adg

>  <m_score__min__energy>  (19) 
-13.92

>  <m_primary>  (19) 
energy

$$$$
19:0
     RDKit          3D

 53 55  0  0  0  0  0  0  0  0999 V2000
   58.0840   32.4350   51.3500 C   0  0  0  0  0  0  0  0  0  0  0  0
   59.3850   31.9490   50.8730 N   0  0  0  0  0  0  0  0  0  0  0  0
   60.5470   32.8570   50.8210 C   0  0  0  0  0  0  0  0  0  0  0  0
   60.8790   33.2840   49.4120 C   0  0  0  0  0  0  0  0  0  0  0  0
   62.0690   32.8470   48.8030 C   0  0  0  0  0  0  0  0  0  0  0  0
   62.3720   33.2290   47.4940 C   0  0  0  0  0  0  0  0  0  0  0  0
   61.4960   34.0530   46.7820 C   0  0  0  0  0  0  0  0  0  0  0  0
   60.3150   34.5020   47.3790 C   0  0  0  0  0  0  0  0  0  0  0  0
   59.4540   35.3290   46.6630 O   0  0  0  0  0  0  0  0  0  0  0  0
   60.0090   34.1170   48.6930 C   0  0  0  0  0  0  0  0  0  0  0  0
   59.4080   30.7300   50.1020 C   0  0  0  0  0  0  0  0  0  0  0  0
   59.4100   29.6170   50.6940 O   0  0  0  0  0  0  0  0  0  0  0  0
   59.4310   30.7480   48.6250 C   0  0  0  0  0  0  0  0  0  0  0  0
   60.2650   29.8710   47.9190 C   0  0  0  0  0  0  0  0  0  0  0  0
   60.2870   29.8920   46.5230 C   0  0  0  0  0  0  0  0  0  0  0  0
   59.4670   30.7790   45.8220 C   0  0  0  0  0  0  0  0  0  0  0  0
   58.6140   31.6470   46.5150 C   0  0  0  0  0  0  0  0  0  0  0  0
   57.5760   32.7460   45.6150 S   0  0  0  0  0  0  0  0  0  0  0  0
   58.3710   33.4530   44.5520 O   0  0  0  0  0  0  0  0  0  0  0  0
   57.0030   33.7620   46.5620 O   0  0  0  0  0  0  0  0  0  0  0  0
   56.3000   31.8290   44.8650 N   0  0  0  0  0  0  0  0  0  0  0  0
   56.8520   30.7510   44.0440 C   0  0  0  0  0  0  0  0  0  0  0  0
   56.3090   29.4190   44.4860 C   0  0  0  0  0  0  0  0  0  0  0  0
   55.1570   29.3640   44.9920 O   0  0  0  0  0  0  0  0  0  0  0  0
   57.0380   28.2000   44.2930 N   0  0  0  0  0  0  0  0  0  0  0  0
   57.5330   27.3350   45.3230 C   0  0  0  0  0  0  0  0  0  0  0  0
   58.9070   27.2410   45.6040 C   0  0  0  0  0  0  0  0  0  0  0  0
   59.3600   26.4160   46.6380 C   0  0  0  0  0  0  0  0  0  0  0  0
   60.6890   26.3280   46.9030 F   0  0  0  0  0  0  0  0  0  0  0  0
   58.4450   25.6960   47.4100 C   0  0  0  0  0  0  0  0  0  0  0  0
   57.0760   25.8050   47.1530 C   0  0  0  0  0  0  0  0  0  0  0  0
   56.6190   26.6290   46.1190 C   0  0  0  0  0  0  0  0  0  0  0  0
   55.2870   26.7310   45.8830 F   0  0  0  0  0  0  0  0  0  0  0  0
   58.5910   31.6230   47.9170 C   0  0  0  0  0  0  0  0  0  0  0  0
   58.0747   32.4385   52.4500 H   0  0  0  0  0  0  0  0  0  0  0  0
   57.9156   33.4567   50.9787 H   0  0  0  0  0  0  0  0  0  0  0  0
   57.2871   31.7739   50.9787 H   0  0  0  0  0  0  0  0  0  0  0  0
   60.3225   33.7530   51.4183 H   0  0  0  0  0  0  0  0  0  0  0  0
   61.4159   32.3140   51.2211 H   0  0  0  0  0  0  0  0  0  0  0  0
   62.7642   32.2016   49.3599 H   0  0  0  0  0  0  0  0  0  0  0  0
   63.3026   32.8803   47.0223 H   0  0  0  0  0  0  0  0  0  0  0  0
   61.7365   34.3486   45.7501 H   0  0  0  0  0  0  0  0  0  0  0  0
   58.7240   34.9500   46.0730 H   0  0  0  0  0  0  0  0  0  0  0  0
   59.0797   34.4711   49.1630 H   0  0  0  0  0  0  0  0  0  0  0  0
   60.9048   29.1633   48.4665 H   0  0  0  0  0  0  0  0  0  0  0  0
   60.9516   29.2085   45.9742 H   0  0  0  0  0  0  0  0  0  0  0  0
   59.4912   30.7959   44.7224 H   0  0  0  0  0  0  0  0  0  0  0  0
   56.5795   30.9217   42.9920 H   0  0  0  0  0  0  0  0  0  0  0  0
   57.9462   30.7435   44.1566 H   0  0  0  0  0  0  0  0  0  0  0  0
   59.6288   27.8188   45.0080 H   0  0  0  0  0  0  0  0  0  0  0  0
   58.8023   25.0433   48.2201 H   0  0  0  0  0  0  0  0  0  0  0  0
   56.3561   25.2418   47.7649 H   0  0  0  0  0  0  0  0  0  0  0  0
   57.9118   32.2927   48.4648 H   0  0  0  0  0  0  0  0  0  0  0  0
  1  2  1  0
  2  3  1  0
  3  4  1  0
  4  5  2  0
  5  6  1  0
  6  7  2  0
  7  8  1  0
  8  9  1  0
  8 10  2  0
  2 11  1  0
 11 12  2  0
 11 13  1  0
 13 14  2  0
 14 15  1  0
 15 16  2  0
 16 17  1  0
 17 18  1  0
 18 19  2  0
 18 20  2  0
 18 21  1  0
 21 22  1  0
 22 23  1  0
 23 24  2  0
 23 25  1  0
 25 26  1  0
 26 27  2  0
 27 28  1  0
 28 29  1  0
 28 30  2  0
 30 31  1  0
 31 32  2  0
 32 33  1  0
 17 34  2  0
 10  4  1  0
 34 13  1  0
 32 26  1  0
  1 35  1  0
  1 36  1  0
  1 37  1  0
  3 38  1  0
  3 39  1  0
  5 40  1  0
  6 41  1  0
  7 42  1  0
  9 43  1  0
 10 44  1  0
 14 45  1  0
 15 46  1  0
 16 47  1  0
 22 48  1  0
 22 49  1  0
 27 50  1  0
 30 51  1  0
 31 52  1  0
 34 53  1  0
M  CHG  2  21  -1  25  -1
M  END
>  <UniqueID>  (20) 
20

>  <SMILES>  (20) 
CN(Cc1cccc(O)c1)C(=O)c1cccc(S(=O)(=O)[N-]CC(=O)[N-]c2cc(F)ccc2F)c1

>  <Energy>  (20) 
64.70720217962352

>  <Genealogy>  (20) 
CN(Cc1cccc(O)c1)C(=O)c1cccc(S(=O)(=O)[N-]CC(=O)[N-]c2cc(F)ccc2F)c1 (protonated)
CN(Cc1cccc(O)c1)C(=O)c1cccc(S(=O)(=O)[N-]CC(=O)[N-]c2cc(F)ccc2F)c1 (3D coordinates assigned)
CN(Cc1cccc(O)c1)C(=O)c1cccc(S(=O)(=O)[N-]CC(=O)[N-]c2cc(F)ccc2F)c1 (optimized conformer: 64.70720217962352 kcal/mol)

>  <smiles>  (20) 
CN(Cc1cccc(O)c1)C(=O)c1cccc(S(=O)(=O)NCC(=O)Nc2cc(F)ccc2F)c1

>  <score_type>  (20) 
oracle

>  <origin>  (20) 
adg

>  <m_score__min__energy>  (20) 
-13.029999999999999

>  <m_primary>  (20) 
energy

$$$$
20:0
     RDKit          3D

 55 59  0  0  0  0  0  0  0  0999 V2000
   60.1950   29.5530   45.8940 C   0  0  0  0  0  0  0  0  0  0  0  0
   58.9250   29.1280   45.7030 C   0  0  0  0  0  0  0  0  0  0  0  0
   58.6280   27.7460   45.8170 C   0  0  0  0  0  0  0  0  0  0  0  0
   59.5610   26.9230   46.0400 O   0  0  0  0  0  0  0  0  0  0  0  0
   57.2960   27.3050   45.6180 C   0  0  0  0  0  0  0  0  0  0  0  0
   56.8880   26.0140   45.7120 C   0  0  0  0  0  0  0  0  0  0  0  0
   55.5170   25.7640   46.0410 N   0  0  0  0  0  0  0  0  0  0  0  0
   54.8690   24.1700   46.0280 S   0  0  0  0  0  0  0  0  0  0  0  0
   53.5700   24.1650   45.2720 O   0  0  0  0  0  0  0  0  0  0  0  0
   54.6530   23.6960   47.4360 O   0  0  0  0  0  0  0  0  0  0  0  0
   56.0370   23.1520   45.2230 C   0  0  0  0  0  0  0  0  0  0  0  0
   55.6650   21.8780   44.7720 C   0  0  0  0  0  0  0  0  0  0  0  0
   56.6110   21.0430   44.1750 C   0  0  0  0  0  0  0  0  0  0  0  0
   57.9320   21.4720   44.0360 C   0  0  0  0  0  0  0  0  0  0  0  0
   58.3090   22.7400   44.4910 C   0  0  0  0  0  0  0  0  0  0  0  0
   57.3640   23.5980   45.0740 C   0  0  0  0  0  0  0  0  0  0  0  0
   57.7830   24.8950   45.5340 N   0  0  0  0  0  0  0  0  0  0  0  0
   56.3690   28.2310   45.2630 N   0  0  0  0  0  0  0  0  0  0  0  0
   56.6490   29.5480   45.1400 C   0  0  0  0  0  0  0  0  0  0  0  0
   55.7200   30.3400   44.8190 O   0  0  0  0  0  0  0  0  0  0  0  0
   57.9160   30.0110   45.3690 N   0  0  0  0  0  0  0  0  0  0  0  0
   58.1600   31.4260   45.2200 C   0  0  0  0  0  0  0  0  0  0  0  0
   57.6690   32.1120   44.0990 C   0  0  0  0  0  0  0  0  0  0  0  0
   57.9300   33.4750   43.9460 C   0  0  0  0  0  0  0  0  0  0  0  0
   58.6800   34.1620   44.9040 C   0  0  0  0  0  0  0  0  0  0  0  0
   59.1860   33.4860   46.0310 C   0  0  0  0  0  0  0  0  0  0  0  0
   60.0090   34.1990   47.0380 C   0  0  0  0  0  0  0  0  0  0  0  0
   59.6220   35.3030   47.5080 O   0  0  0  0  0  0  0  0  0  0  0  0
   61.2440   33.6440   47.5060 N   0  0  0  0  0  0  0  0  0  0  0  0
   61.2330   32.7990   48.7080 C   0  0  0  0  0  0  0  0  0  0  0  0
   62.5380   32.9480   49.4980 C   0  0  0  0  0  0  0  0  0  0  0  0
   63.7370   32.8230   48.5990 C   0  0  0  0  0  0  0  0  0  0  0  0
   64.8460   32.6610   49.0880 O   0  0  0  0  0  0  0  0  0  0  0  0
   63.5760   32.8760   47.1040 C   0  0  0  0  0  0  0  0  0  0  0  0
   62.4640   33.8620   46.7170 C   0  0  0  0  0  0  0  0  0  0  0  0
   58.9170   32.1120   46.1780 C   0  0  0  0  0  0  0  0  0  0  0  0
   60.4358   30.6229   45.8078 H   0  0  0  0  0  0  0  0  0  0  0  0
   60.9869   28.8287   46.1355 H   0  0  0  0  0  0  0  0  0  0  0  0
   54.6261   21.5357   44.8887 H   0  0  0  0  0  0  0  0  0  0  0  0
   56.3154   20.0468   43.8141 H   0  0  0  0  0  0  0  0  0  0  0  0
   58.6775   20.8122   43.5681 H   0  0  0  0  0  0  0  0  0  0  0  0
   59.3545   23.0670   44.3910 H   0  0  0  0  0  0  0  0  0  0  0  0
   58.7810   24.9880   45.8250 H   0  0  0  0  0  0  0  0  0  0  0  0
   57.0787   31.5763   43.3410 H   0  0  0  0  0  0  0  0  0  0  0  0
   57.5432   34.0108   43.0666 H   0  0  0  0  0  0  0  0  0  0  0  0
   58.8763   35.2369   44.7772 H   0  0  0  0  0  0  0  0  0  0  0  0
   60.3893   33.0958   49.3483 H   0  0  0  0  0  0  0  0  0  0  0  0
   61.1306   31.7490   48.3965 H   0  0  0  0  0  0  0  0  0  0  0  0
   62.5537   33.9360   49.9813 H   0  0  0  0  0  0  0  0  0  0  0  0
   62.5824   32.1467   50.2502 H   0  0  0  0  0  0  0  0  0  0  0  0
   64.5231   33.2020   46.6493 H   0  0  0  0  0  0  0  0  0  0  0  0
   63.3054   31.8740   46.7398 H   0  0  0  0  0  0  0  0  0  0  0  0
   62.8215   34.8878   46.8898 H   0  0  0  0  0  0  0  0  0  0  0  0
   62.2189   33.7027   45.6565 H   0  0  0  0  0  0  0  0  0  0  0  0
   59.3053   31.5718   47.0540 H   0  0  0  0  0  0  0  0  0  0  0  0
  1  2  2  0
  2  3  1  0
  3  4  2  0
  3  5  1  0
  5  6  2  3
  6  7  1  0
  7  8  1  0
  8  9  2  0
  8 10  2  0
  8 11  1  0
 11 12  2  0
 12 13  1  0
 13 14  2  0
 14 15  1  0
 15 16  2  0
 16 17  1  0
  5 18  1  0
 18 19  1  0
 19 20  2  0
 19 21  1  0
 21 22  1  0
 22 23  2  0
 23 24  1  0
 24 25  2  0
 25 26  1  0
 26 27  1  0
 27 28  2  0
 27 29  1  0
 29 30  1  0
 30 31  1  0
 31 32  1  0
 32 33  2  0
 32 34  1  0
 34 35  1  0
 26 36  2  0
 21  2  1  0
 36 22  1  0
 17  6  1  0
 35 29  1  0
 16 11  1  0
  1 37  1  0
  1 38  1  0
 12 39  1  0
 13 40  1  0
 14 41  1  0
 15 42  1  0
 17 43  1  0
 23 44  1  0
 24 45  1  0
 25 46  1  0
 30 47  1  0
 30 48  1  0
 31 49  1  0
 31 50  1  0
 34 51  1  0
 34 52  1  0
 35 53  1  0
 35 54  1  0
 36 55  1  0
M  CHG  2   7  -1  18  -1
M  END
>  <UniqueID>  (21) 
21

>  <SMILES>  (21) 
C=c1c(=O)c(=C2[N-]S(=O)(=O)c3ccccc3N2)[n-]c(=O)n1-c1cccc(C(=O)N2CCC(=O)CC2)c1

>  <Energy>  (21) 
98.33256510828633

>  <Genealogy>  (21) 
C=c1c(=O)c(=C2[N-]S(=O)(=O)c3ccccc3N2)[n-]c(=O)n1-c1cccc(C(=O)N2CCC(=O)CC2)c1 (protonated)
C=c1c(=O)c(=C2[N-]S(=O)(=O)c3ccccc3N2)[n-]c(=O)n1-c1cccc(C(=O)N2CCC(=O)CC2)c1 (3D coordinates assigned)
C=c1c(=O)c(=C2[N-]S(=O)(=O)c3ccccc3N2)[n-]c(=O)n1-c1cccc(C(=O)N2CCC(=O)CC2)c1 (nonaromatic ring conformer: 98.33256510828633 kcal/mol)

>  <smiles>  (21) 
C=c1c(=O)c(=C2Nc3ccccc3S(=O)(=O)N2)[nH]c(=O)n1-c1cccc(C(=O)N2CCC(=O)CC2)c1

>  <score_type>  (21) 
oracle

>  <origin>  (21) 
adg

>  <m_score__min__energy>  (21) 
-15.289999999999999

>  <m_primary>  (21) 
energy

$$$$
21:0
     RDKit          3D

 51 55  0  0  0  0  0  0  0  0999 V2000
   62.7020   29.9340   50.9420 C   0  0  0  0  0  0  0  0  0  0  0  0
   61.7780   30.6120   50.0240 N   0  0  0  0  0  0  0  0  0  0  0  0
   61.7230   32.0820   50.0440 C   0  0  0  0  0  0  0  0  0  0  0  0
   62.0650   32.6820   48.6980 C   0  0  0  0  0  0  0  0  0  0  0  0
   61.0910   33.3110   47.9000 C   0  0  0  0  0  0  0  0  0  0  0  0
   61.4450   33.8900   46.6770 C   0  0  0  0  0  0  0  0  0  0  0  0
   62.7730   33.8610   46.2470 C   0  0  0  0  0  0  0  0  0  0  0  0
   63.7500   33.2560   47.0400 C   0  0  0  0  0  0  0  0  0  0  0  0
   63.4010   32.6740   48.2620 C   0  0  0  0  0  0  0  0  0  0  0  0
   60.9590   29.8360   49.1140 C   0  0  0  0  0  0  0  0  0  0  0  0
   59.9050   29.0360   49.6000 C   0  0  0  0  0  0  0  0  0  0  0  0
   59.1330   28.2650   48.7290 C   0  0  0  0  0  0  0  0  0  0  0  0
   59.4140   28.2510   47.3560 C   0  0  0  0  0  0  0  0  0  0  0  0
   58.5770   27.4090   46.4310 C   0  0  1  0  0  0  0  0  0  0  0  0
   57.0420   27.5300   46.6060 C   0  0  2  0  0  0  0  0  0  0  0  0
   56.2780   26.2710   46.3350 C   0  0  0  0  0  0  0  0  0  0  0  0
   55.0710   26.3240   45.9850 O   0  0  0  0  0  0  0  0  0  0  0  0
   56.9210   25.0420   46.4090 O   0  0  0  0  0  0  0  0  0  0  0  0
   57.7300   28.1610   45.4060 C   0  0  2  0  0  0  0  0  0  0  0  0
   57.6860   27.6350   44.0100 C   0  0  0  0  0  0  0  0  0  0  0  0
   57.6670   26.4230   43.6680 O   0  0  0  0  0  0  0  0  0  0  0  0
   57.7230   28.7160   43.0810 N   0  0  0  0  0  0  0  0  0  0  0  0
   57.7730   29.9040   43.8710 C   0  0  0  0  0  0  0  0  0  0  0  0
   57.7950   31.2100   43.3850 C   0  0  0  0  0  0  0  0  0  0  0  0
   57.8100   32.2690   44.3080 C   0  0  0  0  0  0  0  0  0  0  0  0
   57.7870   32.0080   45.6950 C   0  0  0  0  0  0  0  0  0  0  0  0
   57.7990   33.3410   46.8350 Cl  0  0  0  0  0  0  0  0  0  0  0  0
   57.7530   30.6860   46.1680 C   0  0  0  0  0  0  0  0  0  0  0  0
   57.7700   29.6460   45.2340 C   0  0  0  0  0  0  0  0  0  0  0  0
   60.4320   29.0750   46.8560 C   0  0  0  0  0  0  0  0  0  0  0  0
   61.2040   29.8490   47.7260 C   0  0  0  0  0  0  0  0  0  0  0  0
   62.4100   30.1483   51.9807 H   0  0  0  0  0  0  0  0  0  0  0  0
   62.6628   28.8488   50.7665 H   0  0  0  0  0  0  0  0  0  0  0  0
   63.7254   30.2970   50.7665 H   0  0  0  0  0  0  0  0  0  0  0  0
   60.7064   32.3952   50.3241 H   0  0  0  0  0  0  0  0  0  0  0  0
   62.4654   32.4391   50.7729 H   0  0  0  0  0  0  0  0  0  0  0  0
   60.0455   33.3474   48.2401 H   0  0  0  0  0  0  0  0  0  0  0  0
   60.6760   34.3689   46.0530 H   0  0  0  0  0  0  0  0  0  0  0  0
   63.0495   34.3146   45.2838 H   0  0  0  0  0  0  0  0  0  0  0  0
   64.7967   33.2373   46.7023 H   0  0  0  0  0  0  0  0  0  0  0  0
   64.1769   32.2068   48.8863 H   0  0  0  0  0  0  0  0  0  0  0  0
   59.6882   29.0190   50.6783 H   0  0  0  0  0  0  0  0  0  0  0  0
   58.2993   27.6650   49.1226 H   0  0  0  0  0  0  0  0  0  0  0  0
   59.3010   26.5819   46.3896 H   0  0  0  0  0  0  0  0  0  0  0  0
   56.3650   27.8957   47.3921 H   0  0  0  0  0  0  0  0  0  0  0  0
   57.7130   28.6510   42.0390 H   0  0  0  0  0  0  0  0  0  0  0  0
   57.8005   31.4072   42.3028 H   0  0  0  0  0  0  0  0  0  0  0  0
   57.8399   33.3079   43.9476 H   0  0  0  0  0  0  0  0  0  0  0  0
   57.7140   30.4742   47.2467 H   0  0  0  0  0  0  0  0  0  0  0  0
   60.6239   29.1123   45.7735 H   0  0  0  0  0  0  0  0  0  0  0  0
   62.0128   30.4761   47.3229 H   0  0  0  0  0  0  0  0  0  0  0  0
  1  2  1  0
  2  3  1  0
  3  4  1  0
  4  5  2  0
  5  6  1  0
  6  7  2  0
  7  8  1  0
  8  9  2  0
  2 10  1  0
 10 11  2  0
 11 12  1  0
 12 13  2  0
 13 14  1  0
 14 15  1  0
 15 16  1  0
 16 17  2  0
 16 18  1  0
 15 19  1  0
 19 20  1  6
 20 21  2  0
 20 22  1  0
 22 23  1  0
 23 24  2  0
 24 25  1  0
 25 26  2  0
 26 27  1  0
 26 28  1  0
 28 29  2  0
 13 30  1  0
 30 31  2  0
  9  4  1  0
 31 10  1  0
 19 14  1  0
 29 23  1  0
 29 19  1  0
  1 32  1  0
  1 33  1  0
  1 34  1  0
  3 35  1  0
  3 36  1  0
  5 37  1  0
  6 38  1  0
  7 39  1  0
  8 40  1  0
  9 41  1  0
 11 42  1  0
 12 43  1  0
 14 44  1  6
 15 45  1  1
 22 46  1  0
 24 47  1  0
 25 48  1  0
 28 49  1  0
 30 50  1  0
 31 51  1  0
M  CHG  1  18  -1
M  END
>  <UniqueID>  (22) 
22

>  <SMILES>  (22) 
CN(Cc1ccccc1)c1ccc([C@H]2[C@H](C(=O)[O-])C23C(=O)Nc2ccc(Cl)cc23)cc1

>  <Energy>  (22) 
363.11869226846255

>  <Genealogy>  (22) 
CN(Cc1ccccc1)c1ccc(C2C(C(=O)[O-])C23C(=O)Nc2ccc(Cl)cc23)cc1 (protonated)
CN(Cc1ccccc1)c1ccc([C@H]2[C@H](C(=O)[O-])C23C(=O)Nc2ccc(Cl)cc23)cc1 (chirality)
CN(Cc1ccccc1)c1ccc([C@H]2[C@H](C(=O)[O-])C23C(=O)Nc2ccc(Cl)cc23)cc1 (3D coordinates assigned)
CN(Cc1ccccc1)c1ccc([C@H]2[C@H](C(=O)[O-])C23C(=O)Nc2ccc(Cl)cc23)cc1 (nonaromatic ring conformer: 363.11869226846255 kcal/mol)

>  <smiles>  (22) 
CN(Cc1ccccc1)c1ccc(C2C(C(=O)O)C23C(=O)Nc2ccc(Cl)cc23)cc1

>  <score_type>  (22) 
oracle

>  <origin>  (22) 
adg

>  <m_score__min__energy>  (22) 
-11.27

>  <m_primary>  (22) 
energy

$$$$
22:0
     RDKit          3D

 46 49  0  0  0  0  0  0  0  0999 V2000
   60.0880   26.3550   46.4680 C   0  0  0  0  0  0  0  0  0  0  0  0
   59.2060   27.3910   45.8280 C   0  0  0  0  0  0  0  0  0  0  0  0
   59.7800   28.4830   45.1570 C   0  0  0  0  0  0  0  0  0  0  0  0
   58.9710   29.4490   44.5580 C   0  0  0  0  0  0  0  0  0  0  0  0
   57.5780   29.3400   44.6200 C   0  0  0  0  0  0  0  0  0  0  0  0
   56.5580   30.5790   43.8920 S   0  0  0  0  0  0  0  0  0  0  0  0
   57.0610   30.9280   42.5190 O   0  0  0  0  0  0  0  0  0  0  0  0
   55.1530   30.0580   43.7850 O   0  0  0  0  0  0  0  0  0  0  0  0
   56.5590   32.0100   44.8760 N   0  0  0  0  0  0  0  0  0  0  0  0
   57.5950   32.4180   45.5430 C   0  0  0  0  0  0  0  0  0  0  0  0
   58.2260   31.5970   46.4230 N   0  0  0  0  0  0  0  0  0  0  0  0
   59.3040   32.0090   47.1420 C   0  0  0  0  0  0  0  0  0  0  0  0
   59.8910   31.0610   48.1040 C   0  0  0  0  0  0  0  0  0  0  0  0
   60.9990   31.3920   48.8210 N   0  0  0  0  0  0  0  0  0  0  0  0
   61.5180   30.5390   49.7420 C   0  0  0  0  0  0  0  0  0  0  0  0
   60.9060   29.3080   49.9720 C   0  0  0  0  0  0  0  0  0  0  0  0
   59.7630   28.9900   49.2420 C   0  0  0  0  0  0  0  0  0  0  0  0
   59.2710   29.8720   48.3340 N   0  0  0  0  0  0  0  0  0  0  0  0
   59.7990   33.3170   46.9480 C   0  0  0  0  0  0  0  0  0  0  0  0
   60.9500   33.7940   47.5800 O   0  0  0  0  0  0  0  0  0  0  0  0
   59.1210   34.1500   46.0490 C   0  0  0  0  0  0  0  0  0  0  0  0
   59.5160   35.3300   45.8560 O   0  0  0  0  0  0  0  0  0  0  0  0
   58.0430   33.6870   45.3670 N   0  0  0  0  0  0  0  0  0  0  0  0
   56.9980   28.2500   45.2780 C   0  0  0  0  0  0  0  0  0  0  0  0
   57.8040   27.2580   45.8640 C   0  0  0  0  0  0  0  0  0  0  0  0
   57.2140   26.1580   46.5710 N   0  0  0  0  0  0  0  0  0  0  0  0
   56.3630   25.1540   46.0070 C   0  0  0  0  0  0  0  0  0  0  0  0
   55.1510   25.1280   46.3510 O   0  0  0  0  0  0  0  0  0  0  0  0
   56.9220   24.0920   45.0910 C   0  0  0  0  0  0  0  0  0  0  0  0
   57.3500   24.5970   43.7210 C   0  0  0  0  0  0  0  0  0  0  0  0
   56.0970   23.7470   43.8540 C   0  0  0  0  0  0  0  0  0  0  0  0
   60.0169   26.4385   47.5625 H   0  0  0  0  0  0  0  0  0  0  0  0
   59.7623   25.3521   46.1548 H   0  0  0  0  0  0  0  0  0  0  0  0
   61.1300   26.5165   46.1548 H   0  0  0  0  0  0  0  0  0  0  0  0
   60.8746   28.5773   45.1033 H   0  0  0  0  0  0  0  0  0  0  0  0
   59.4308   30.3002   44.0346 H   0  0  0  0  0  0  0  0  0  0  0  0
   62.4201   30.8194   50.3056 H   0  0  0  0  0  0  0  0  0  0  0  0
   61.3156   28.6047   50.7120 H   0  0  0  0  0  0  0  0  0  0  0  0
   59.2592   28.0251   49.4009 H   0  0  0  0  0  0  0  0  0  0  0  0
   61.4370   33.2840   48.3040 H   0  0  0  0  0  0  0  0  0  0  0  0
   55.9026   28.1684   45.3374 H   0  0  0  0  0  0  0  0  0  0  0  0
   57.3815   23.5012   45.8971 H   0  0  0  0  0  0  0  0  0  0  0  0
   57.2650   25.6666   43.4786 H   0  0  0  0  0  0  0  0  0  0  0  0
   58.2712   24.5337   43.1232 H   0  0  0  0  0  0  0  0  0  0  0  0
   55.1058   24.2016   43.7093 H   0  0  0  0  0  0  0  0  0  0  0  0
   55.7364   22.8151   43.3942 H   0  0  0  0  0  0  0  0  0  0  0  0
  1  2  1  0
  2  3  2  0
  3  4  1  0
  4  5  2  0
  5  6  1  0
  6  7  2  0
  6  8  2  0
  6  9  1  0
  9 10  2  3
 10 11  1  0
 11 12  1  0
 12 13  1  0
 13 14  2  0
 14 15  1  0
 15 16  2  0
 16 17  1  0
 17 18  2  0
 12 19  2  0
 19 20  1  0
 19 21  1  0
 21 22  2  0
 21 23  1  0
  5 24  1  0
 24 25  2  0
 25 26  1  0
 26 27  1  0
 27 28  2  0
 27 29  1  0
 29 30  1  0
 30 31  1  0
 25  2  1  0
 31 29  1  0
 23 10  1  0
 18 13  1  0
  1 32  1  0
  1 33  1  0
  1 34  1  0
  3 35  1  0
  4 36  1  0
 15 37  1  0
 16 38  1  0
 17 39  1  0
 20 40  1  0
 24 41  1  0
 29 42  1  0
 30 43  1  0
 30 44  1  0
 31 45  1  0
 31 46  1  0
M  CHG  3  11  -1  23  -1  26  -1
M  END
>  <UniqueID>  (23) 
23

>  <SMILES>  (23) 
Cc1ccc(S(=O)(=O)N=c2[n-]c(-c3ncccn3)c(O)c(=O)[n-]2)cc1[N-]C(=O)C1CC1

>  <Energy>  (23) 
326.2600305867185

>  <Genealogy>  (23) 
Cc1ccc(S(=O)(=O)N=c2[n-]c(-c3ncccn3)c(O)c(=O)[n-]2)cc1[N-]C(=O)C1CC1 (protonated)
Cc1ccc(S(=O)(=O)N=c2[n-]c(-c3ncccn3)c(O)c(=O)[n-]2)cc1[N-]C(=O)C1CC1 (3D coordinates assigned)
Cc1ccc(S(=O)(=O)N=c2[n-]c(-c3ncccn3)c(O)c(=O)[n-]2)cc1[N-]C(=O)C1CC1 (nonaromatic ring conformer: 326.2600305867185 kcal/mol)

>  <smiles>  (23) 
Cc1ccc(S(=O)(=O)N=c2[nH]c(-c3ncccn3)c(O)c(=O)[nH]2)cc1NC(=O)C1CC1

>  <score_type>  (23) 
oracle

>  <origin>  (23) 
adg

>  <m_score__min__energy>  (23) 
-12.949999999999999

>  <m_primary>  (23) 
energy

$$$$
23:0
     RDKit          3D

 74 79  0  0  0  0  0  0  0  0999 V2000
   60.2090   30.9620   46.3440 O   0  0  0  0  0  0  0  0  0  0  0  0
   59.8810   30.1130   47.2150 C   0  0  0  0  0  0  0  0  0  0  0  0
   59.9210   28.7230   46.8620 N   0  0  0  0  0  0  0  0  0  0  0  0
   58.8040   27.8300   46.7280 C   0  0  0  0  0  0  0  0  0  0  0  0
   58.8400   26.5460   47.3040 C   0  0  0  0  0  0  0  0  0  0  0  0
   57.7830   25.6540   47.1140 C   0  0  0  0  0  0  0  0  0  0  0  0
   56.6910   26.0210   46.3300 C   0  0  0  0  0  0  0  0  0  0  0  0
   56.6540   27.2790   45.7280 C   0  0  0  0  0  0  0  0  0  0  0  0
   57.7000   28.1950   45.9200 C   0  0  0  0  0  0  0  0  0  0  0  0
   57.6200   29.5150   45.2550 C   0  0  0  0  0  0  0  0  0  0  0  0
   57.7850   29.7080   43.8800 C   0  0  0  0  0  0  0  0  0  0  0  0
   57.6490   31.3570   43.5620 S   0  0  0  0  0  0  0  0  0  0  0  0
   57.3940   31.7440   45.1730 C   0  0  0  0  0  0  0  0  0  0  0  0
   57.1990   32.9520   45.6030 N   0  0  0  0  0  0  0  0  0  0  0  0
   57.6490   34.1420   44.8910 C   0  0  0  0  0  0  0  0  0  0  0  0
   59.1790   34.3160   44.9920 C   0  0  0  0  0  0  0  0  0  0  0  0
   59.8020   33.9500   46.2950 N   0  0  0  0  0  0  0  0  0  0  0  0
   61.2760   33.8450   46.2520 C   0  0  0  0  0  0  0  0  0  0  0  0
   61.8200   33.3080   47.5980 C   0  0  0  0  0  0  0  0  0  0  0  0
   60.8380   33.3040   48.6230 O   0  0  0  0  0  0  0  0  0  0  0  0
   60.2000   34.5630   48.6850 C   0  0  0  0  0  0  0  0  0  0  0  0
   59.3680   34.8220   47.4090 C   0  0  0  0  0  0  0  0  0  0  0  0
   57.4120   30.6540   45.9700 N   0  0  0  0  0  0  0  0  0  0  0  0
   59.4280   30.5810   48.5450 C   0  0  0  0  0  0  0  0  0  0  0  0
   58.5620   31.6840   48.6420 C   0  0  0  0  0  0  0  0  0  0  0  0
   58.1500   32.1510   49.8930 C   0  0  0  0  0  0  0  0  0  0  0  0
   58.5930   31.5230   51.0620 C   0  0  0  0  0  0  0  0  0  0  0  0
   58.0600   32.1320   52.6260 S   0  0  0  0  0  0  0  0  0  0  0  0
   59.2360   32.5670   53.4560 O   0  0  0  0  0  0  0  0  0  0  0  0
   57.1790   33.3230   52.3670 O   0  0  0  0  0  0  0  0  0  0  0  0
   57.1850   30.8880   53.4800 N   0  0  0  0  0  0  0  0  0  0  0  0
   57.8480   30.1660   54.5680 C   0  0  0  0  0  0  0  0  0  0  0  0
   57.9030   28.6800   54.2180 C   0  0  0  0  0  0  0  0  0  0  0  0
   56.4870   28.1170   54.0280 C   0  0  0  0  0  0  0  0  0  0  0  0
   55.5890   29.0250   53.2160 C   0  0  0  0  0  0  0  0  0  0  0  0
   54.3650   28.5270   52.7440 C   0  0  0  0  0  0  0  0  0  0  0  0
   53.4720   29.3640   52.0710 C   0  0  0  0  0  0  0  0  0  0  0  0
   53.7810   30.7130   51.8900 C   0  0  0  0  0  0  0  0  0  0  0  0
   54.9910   31.2260   52.3650 C   0  0  0  0  0  0  0  0  0  0  0  0
   55.9170   30.3850   53.0080 C   0  0  0  0  0  0  0  0  0  0  0  0
   59.4310   30.4030   50.9730 C   0  0  0  0  0  0  0  0  0  0  0  0
   59.8400   29.9300   49.7220 C   0  0  0  0  0  0  0  0  0  0  0  0
   59.7077   26.2432   47.9085 H   0  0  0  0  0  0  0  0  0  0  0  0
   57.8122   24.6599   47.5839 H   0  0  0  0  0  0  0  0  0  0  0  0
   55.8573   25.3181   46.1856 H   0  0  0  0  0  0  0  0  0  0  0  0
   55.7967   27.5557   45.0967 H   0  0  0  0  0  0  0  0  0  0  0  0
   57.9712   28.9201   43.1353 H   0  0  0  0  0  0  0  0  0  0  0  0
   57.3686   34.0520   43.8312 H   0  0  0  0  0  0  0  0  0  0  0  0
   57.1705   35.0202   45.3491 H   0  0  0  0  0  0  0  0  0  0  0  0
   59.6393   33.6901   44.2133 H   0  0  0  0  0  0  0  0  0  0  0  0
   59.3592   35.3948   44.8743 H   0  0  0  0  0  0  0  0  0  0  0  0
   59.4380   32.9890   46.5140 H   0  0  0  0  0  0  0  0  0  0  0  0
   61.5667   33.1577   45.4439 H   0  0  0  0  0  0  0  0  0  0  0  0
   61.6990   34.8440   46.0701 H   0  0  0  0  0  0  0  0  0  0  0  0
   62.1763   32.2782   47.4479 H   0  0  0  0  0  0  0  0  0  0  0  0
   62.6324   33.9767   47.9187 H   0  0  0  0  0  0  0  0  0  0  0  0
   59.5342   34.5868   49.5603 H   0  0  0  0  0  0  0  0  0  0  0  0
   60.9702   35.3440   48.7673 H   0  0  0  0  0  0  0  0  0  0  0  0
   58.3081   34.6238   47.6265 H   0  0  0  0  0  0  0  0  0  0  0  0
   59.5153   35.8692   47.1064 H   0  0  0  0  0  0  0  0  0  0  0  0
   58.2066   32.1823   47.7280 H   0  0  0  0  0  0  0  0  0  0  0  0
   57.4742   33.0164   49.9589 H   0  0  0  0  0  0  0  0  0  0  0  0
   58.8697   30.5523   54.6981 H   0  0  0  0  0  0  0  0  0  0  0  0
   57.2869   30.3069   55.5036 H   0  0  0  0  0  0  0  0  0  0  0  0
   58.4723   28.5489   53.2859 H   0  0  0  0  0  0  0  0  0  0  0  0
   58.3921   28.1394   55.0417 H   0  0  0  0  0  0  0  0  0  0  0  0
   56.5622   27.1479   53.5130 H   0  0  0  0  0  0  0  0  0  0  0  0
   56.0368   28.0199   55.0270 H   0  0  0  0  0  0  0  0  0  0  0  0
   54.1069   27.4699   52.9051 H   0  0  0  0  0  0  0  0  0  0  0  0
   52.5251   28.9599   51.6836 H   0  0  0  0  0  0  0  0  0  0  0  0
   53.0704   31.3740   51.3722 H   0  0  0  0  0  0  0  0  0  0  0  0
   55.2206   32.2939   52.2352 H   0  0  0  0  0  0  0  0  0  0  0  0
   59.7676   29.8951   51.8888 H   0  0  0  0  0  0  0  0  0  0  0  0
   60.4879   29.0434   49.6580 H   0  0  0  0  0  0  0  0  0  0  0  0
  1  2  2  0
  2  3  1  0
  3  4  1  0
  4  5  2  0
  5  6  1  0
  6  7  2  0
  7  8  1  0
  8  9  2  0
  9 10  1  0
 10 11  2  0
 11 12  1  0
 12 13  1  0
 13 14  2  3
 14 15  1  0
 15 16  1  0
 16 17  1  0
 17 18  1  0
 18 19  1  0
 19 20  1  0
 20 21  1  0
 21 22  1  0
 13 23  1  0
  2 24  1  0
 24 25  2  0
 25 26  1  0
 26 27  2  0
 27 28  1  0
 28 29  2  0
 28 30  2  0
 28 31  1  0
 31 32  1  0
 32 33  1  0
 33 34  1  0
 34 35  1  0
 35 36  2  0
 36 37  1  0
 37 38  2  0
 38 39  1  0
 39 40  2  0
 27 41  1  0
 41 42  2  0
  9  4  1  0
 23 10  1  0
 42 24  1  0
 22 17  1  0
 40 31  1  0
 40 35  1  0
  5 43  1  0
  6 44  1  0
  7 45  1  0
  8 46  1  0
 11 47  1  0
 15 48  1  0
 15 49  1  0
 16 50  1  0
 16 51  1  0
 17 52  1  0
 18 53  1  0
 18 54  1  0
 19 55  1  0
 19 56  1  0
 21 57  1  0
 21 58  1  0
 22 59  1  0
 22 60  1  0
 25 61  1  0
 26 62  1  0
 32 63  1  0
 32 64  1  0
 33 65  1  0
 33 66  1  0
 34 67  1  0
 34 68  1  0
 36 69  1  0
 37 70  1  0
 38 71  1  0
 39 72  1  0
 41 73  1  0
 42 74  1  0
M  CHG  3   3  -1  17   1  23  -1
M  END
>  <UniqueID>  (24) 
24

>  <SMILES>  (24) 
O=C([N-]c1ccccc1-c1csc(=NCC[NH+]2CCOCC2)[n-]1)c1ccc(S(=O)(=O)N2CCCc3ccccc32)cc1

>  <Energy>  (24) 
139.60158350910865

>  <Genealogy>  (24) 
O=C([N-]c1ccccc1-c1csc(=NCC[NH+]2CCOCC2)[n-]1)c1ccc(S(=O)(=O)N2CCCc3ccccc32)cc1 (protonated)
O=C([N-]c1ccccc1-c1csc(=NCC[NH+]2CCOCC2)[n-]1)c1ccc(S(=O)(=O)N2CCCc3ccccc32)cc1 (3D coordinates assigned)
O=C([N-]c1ccccc1-c1csc(=NCC[NH+]2CCOCC2)[n-]1)c1ccc(S(=O)(=O)N2CCCc3ccccc32)cc1 (nonaromatic ring conformer: 139.60158350910865 kcal/mol)

>  <smiles>  (24) 
O=C(Nc1ccccc1-c1csc(=NCCN2CCOCC2)[nH]1)c1ccc(S(=O)(=O)N2CCCc3ccccc32)cc1

>  <score_type>  (24) 
oracle

>  <origin>  (24) 
adg

>  <m_score__min__energy>  (24) 
-12.029999999999999

>  <m_primary>  (24) 
energy

$$$$
24:0
     RDKit          3D

 51 53  0  0  0  0  0  0  0  0999 V2000
   57.1080   21.7920   48.9350 O   0  0  0  0  0  0  0  0  0  0  0  0
   56.6110   22.6060   48.1140 C   0  0  0  0  0  0  0  0  0  0  0  0
   57.3980   23.0680   47.0150 N   0  0  0  0  0  0  0  0  0  0  0  0
   57.5490   24.4310   46.5910 C   0  0  0  0  0  0  0  0  0  0  0  0
   58.8410   24.9130   46.3450 C   0  0  0  0  0  0  0  0  0  0  0  0
   59.0420   26.2330   45.9330 C   0  0  0  0  0  0  0  0  0  0  0  0
   57.9480   27.0940   45.7580 C   0  0  0  0  0  0  0  0  0  0  0  0
   58.1620   28.5240   45.3510 C   0  0  0  0  0  0  0  0  0  0  0  0
   57.6970   28.7160   43.9760 N   0  0  0  0  0  0  0  0  0  0  0  0
   56.6820   30.1240   43.8890 S   0  0  0  0  0  0  0  0  0  0  0  0
   55.3860   29.8590   44.6060 O   0  0  0  0  0  0  0  0  0  0  0  0
   56.3820   30.4350   42.4500 O   0  0  0  0  0  0  0  0  0  0  0  0
   57.5160   31.4970   44.6100 C   0  0  0  0  0  0  0  0  0  0  0  0
   57.7670   31.5060   45.9870 C   0  0  0  0  0  0  0  0  0  0  0  0
   58.3920   32.6050   46.5820 C   0  0  0  0  0  0  0  0  0  0  0  0
   58.7760   33.7080   45.8030 C   0  0  0  0  0  0  0  0  0  0  0  0
   59.4050   34.9180   46.4440 C   0  0  0  0  0  0  0  0  0  0  0  0
   60.6720   34.5540   47.1140 N   0  0  0  0  0  0  0  0  0  0  0  0
   60.4310   34.1180   48.5130 C   0  0  0  0  0  0  0  0  0  0  0  0
   61.6560   33.4160   49.1410 C   0  0  0  0  0  0  0  0  0  0  0  0
   62.9370   33.7240   48.3650 C   0  0  0  0  0  0  0  0  0  0  0  0
   62.8010   33.3020   46.8930 C   0  0  0  0  0  0  0  0  0  0  0  0
   61.3710   33.5000   46.3530 C   0  0  0  0  0  0  0  0  0  0  0  0
   58.5180   33.6990   44.4230 C   0  0  0  0  0  0  0  0  0  0  0  0
   57.8940   32.5990   43.8300 C   0  0  0  0  0  0  0  0  0  0  0  0
   56.6540   26.6240   46.0290 C   0  0  0  0  0  0  0  0  0  0  0  0
   56.4530   25.3020   46.4400 C   0  0  0  0  0  0  0  0  0  0  0  0
   55.5772   22.9595   48.2418 H   0  0  0  0  0  0  0  0  0  0  0  0
   59.7056   24.2460   46.4774 H   0  0  0  0  0  0  0  0  0  0  0  0
   60.0623   26.5987   45.7451 H   0  0  0  0  0  0  0  0  0  0  0  0
   57.5971   29.1852   46.0246 H   0  0  0  0  0  0  0  0  0  0  0  0
   59.2333   28.7658   45.4124 H   0  0  0  0  0  0  0  0  0  0  0  0
   57.1030   27.8960   43.7140 H   0  0  0  0  0  0  0  0  0  0  0  0
   57.4710   30.6443   46.6033 H   0  0  0  0  0  0  0  0  0  0  0  0
   58.5839   32.6059   47.6651 H   0  0  0  0  0  0  0  0  0  0  0  0
   59.6095   35.6719   45.6695 H   0  0  0  0  0  0  0  0  0  0  0  0
   58.7105   35.3221   47.1953 H   0  0  0  0  0  0  0  0  0  0  0  0
   60.1837   35.0021   49.1190 H   0  0  0  0  0  0  0  0  0  0  0  0
   59.6056   33.3911   48.4958 H   0  0  0  0  0  0  0  0  0  0  0  0
   61.7741   33.7631   50.1781 H   0  0  0  0  0  0  0  0  0  0  0  0
   61.4855   32.3298   49.1087 H   0  0  0  0  0  0  0  0  0  0  0  0
   63.1362   34.8047   48.4130 H   0  0  0  0  0  0  0  0  0  0  0  0
   63.7663   33.1603   48.8173 H   0  0  0  0  0  0  0  0  0  0  0  0
   63.4936   33.9051   46.2875 H   0  0  0  0  0  0  0  0  0  0  0  0
   63.0374   32.2296   46.8291 H   0  0  0  0  0  0  0  0  0  0  0  0
   61.4213   33.7915   45.2935 H   0  0  0  0  0  0  0  0  0  0  0  0
   60.8163   32.5562   46.4609 H   0  0  0  0  0  0  0  0  0  0  0  0
   58.8086   34.5621   43.8060 H   0  0  0  0  0  0  0  0  0  0  0  0
   57.6985   32.5973   42.7475 H   0  0  0  0  0  0  0  0  0  0  0  0
   55.7926   27.2990   45.9176 H   0  0  0  0  0  0  0  0  0  0  0  0
   55.4344   24.9414   46.6461 H   0  0  0  0  0  0  0  0  0  0  0  0
  1  2  2  0
  2  3  1  0
  3  4  1  0
  4  5  2  0
  5  6  1  0
  6  7  2  0
  7  8  1  0
  8  9  1  0
  9 10  1  0
 10 11  2  0
 10 12  2  0
 10 13  1  0
 13 14  2  0
 14 15  1  0
 15 16  2  0
 16 17  1  0
 17 18  1  0
 18 19  1  0
 19 20  1  0
 20 21  1  0
 21 22  1  0
 22 23  1  0
 16 24  1  0
 24 25  2  0
  7 26  1  0
 26 27  2  0
 27  4  1  0
 25 13  1  0
 23 18  1  0
  2 28  1  0
  5 29  1  0
  6 30  1  0
  8 31  1  0
  8 32  1  0
  9 33  1  0
 14 34  1  0
 15 35  1  0
 17 36  1  0
 17 37  1  0
 19 38  1  0
 19 39  1  0
 20 40  1  0
 20 41  1  0
 21 42  1  0
 21 43  1  0
 22 44  1  0
 22 45  1  0
 23 46  1  0
 23 47  1  0
 24 48  1  0
 25 49  1  0
 26 50  1  0
 27 51  1  0
M  CHG  1   3  -1
M  END
>  <UniqueID>  (25) 
25

>  <SMILES>  (25) 
O=C[N-]c1ccc(CNS(=O)(=O)c2ccc(CN3CCCCC3)cc2)cc1

>  <Energy>  (25) 
54.08209796552571

>  <Genealogy>  (25) 
O=C[N-]c1ccc(CNS(=O)(=O)c2ccc(CN3CCCCC3)cc2)cc1 (protonated)
O=C[N-]c1ccc(CNS(=O)(=O)c2ccc(CN3CCCCC3)cc2)cc1 (3D coordinates assigned)
O=C[N-]c1ccc(CNS(=O)(=O)c2ccc(CN3CCCCC3)cc2)cc1 (nonaromatic ring conformer: 54.08209796552571 kcal/mol)

>  <smiles>  (25) 
O=CNc1ccc(CNS(=O)(=O)c2ccc(CN3CCCCC3)cc2)cc1

>  <score_type>  (25) 
oracle

>  <origin>  (25) 
adg

>  <m_score__min__energy>  (25) 
-11.109999999999999

>  <m_primary>  (25) 
energy

$$$$
25:0
     RDKit          3D

 66 70  0  0  0  0  0  0  0  0999 V2000
   56.2390   28.9460   44.7720 C   0  0  0  0  0  0  0  0  0  0  0  0
   57.3380   29.1360   45.5220 C   0  0  0  0  0  0  0  0  0  0  0  0
   57.8870   28.2420   46.4570 C   0  0  0  0  0  0  0  0  0  0  0  0
   57.4060   27.0950   46.9740 C   0  0  0  0  0  0  0  0  0  0  0  0
   56.4880   26.1670   46.2940 C   0  0  0  0  0  0  0  0  0  0  0  0
   55.1620   26.3640   46.1680 N   0  0  0  0  0  0  0  0  0  0  0  0
   54.7270   25.2130   45.6140 C   0  0  0  0  0  0  0  0  0  0  0  0
   53.5180   25.0150   45.3240 O   0  0  0  0  0  0  0  0  0  0  0  0
   55.6860   24.2860   45.4040 N   0  0  0  0  0  0  0  0  0  0  0  0
   56.7940   24.8990   45.8500 C   0  0  0  0  0  0  0  0  0  0  0  0
   58.0540   24.3060   45.8460 O   0  0  0  0  0  0  0  0  0  0  0  0
   59.1080   28.7750   46.8310 C   0  0  0  0  0  0  0  0  0  0  0  0
   59.2340   29.9840   46.1810 C   0  0  0  0  0  0  0  0  0  0  0  0
   60.4070   30.9060   46.3290 C   0  0  0  0  0  0  0  0  0  0  0  0
   58.1690   30.2040   45.3770 N   0  0  0  0  0  0  0  0  0  0  0  0
   57.9700   31.3820   44.5180 C   0  0  0  0  0  0  0  0  0  0  0  0
   57.7410   32.6310   45.3740 C   0  0  0  0  0  0  0  0  0  0  0  0
   58.4860   33.8390   44.7930 C   0  0  0  0  0  0  0  0  0  0  0  0
   59.1600   34.6610   45.8990 C   0  0  0  0  0  0  0  0  0  0  0  0
   59.8470   33.7680   46.8540 N   0  0  0  0  0  0  0  0  0  0  0  0
   59.1830   33.7350   48.1850 C   0  0  0  0  0  0  0  0  0  0  0  0
   59.9650   34.5130   49.2590 C   0  0  0  0  0  0  0  0  0  0  0  0
   61.3520   34.0110   49.4220 N   0  0  0  0  0  0  0  0  0  0  0  0
   61.4490   33.0470   50.5400 C   0  0  0  0  0  0  0  0  0  0  0  0
   60.0950   32.7980   51.1570 C   0  0  0  0  0  0  0  0  0  0  0  0
   59.5470   33.7200   52.0850 C   0  0  0  0  0  0  0  0  0  0  0  0
   58.2770   33.4970   52.6480 C   0  0  0  0  0  0  0  0  0  0  0  0
   57.5870   32.3520   52.2620 C   0  0  0  0  0  0  0  0  0  0  0  0
   58.1060   31.4660   51.3750 C   0  0  0  0  0  0  0  0  0  0  0  0
   59.3580   31.6490   50.7960 C   0  0  0  0  0  0  0  0  0  0  0  0
   57.2110   30.4320   51.1810 O   0  0  0  0  0  0  0  0  0  0  0  0
   56.0600   30.6820   52.0010 C   0  0  0  0  0  0  0  0  0  0  0  0
   56.3390   31.9210   52.6690 O   0  0  0  0  0  0  0  0  0  0  0  0
   61.9240   33.4510   48.1700 C   0  0  0  0  0  0  0  0  0  0  0  0
   61.2910   34.0820   46.9260 C   0  0  0  0  0  0  0  0  0  0  0  0
   55.9091   29.7276   44.0717 H   0  0  0  0  0  0  0  0  0  0  0  0
   55.6694   28.0089   44.8584 H   0  0  0  0  0  0  0  0  0  0  0  0
   57.7269   26.8290   47.9920 H   0  0  0  0  0  0  0  0  0  0  0  0
   58.1870   23.3530   45.5280 H   0  0  0  0  0  0  0  0  0  0  0  0
   59.8387   28.3206   47.5163 H   0  0  0  0  0  0  0  0  0  0  0  0
   60.6134   31.0682   47.3972 H   0  0  0  0  0  0  0  0  0  0  0  0
   61.2891   30.4570   45.8492 H   0  0  0  0  0  0  0  0  0  0  0  0
   60.1791   31.8692   45.8492 H   0  0  0  0  0  0  0  0  0  0  0  0
   58.8624   31.5296   43.8920 H   0  0  0  0  0  0  0  0  0  0  0  0
   57.0874   31.2167   43.8827 H   0  0  0  0  0  0  0  0  0  0  0  0
   56.6642   32.8533   45.4052 H   0  0  0  0  0  0  0  0  0  0  0  0
   58.1237   32.4370   46.3869 H   0  0  0  0  0  0  0  0  0  0  0  0
   59.2550   33.4827   44.0918 H   0  0  0  0  0  0  0  0  0  0  0  0
   57.7575   34.4816   44.2769 H   0  0  0  0  0  0  0  0  0  0  0  0
   59.8948   35.3437   45.4473 H   0  0  0  0  0  0  0  0  0  0  0  0
   58.3918   35.2366   46.4361 H   0  0  0  0  0  0  0  0  0  0  0  0
   58.1808   34.1782   48.0893 H   0  0  0  0  0  0  0  0  0  0  0  0
   59.1343   32.6840   48.5058 H   0  0  0  0  0  0  0  0  0  0  0  0
   60.0046   35.5733   48.9688 H   0  0  0  0  0  0  0  0  0  0  0  0
   59.4438   34.3775   50.2182 H   0  0  0  0  0  0  0  0  0  0  0  0
   61.8523   32.0962   50.1614 H   0  0  0  0  0  0  0  0  0  0  0  0
   62.1131   33.4677   51.3094 H   0  0  0  0  0  0  0  0  0  0  0  0
   60.1192   34.6162   52.3667 H   0  0  0  0  0  0  0  0  0  0  0  0
   57.8436   34.2049   53.3699 H   0  0  0  0  0  0  0  0  0  0  0  0
   59.7617   30.9199   50.0781 H   0  0  0  0  0  0  0  0  0  0  0  0
   55.1562   30.7727   51.3806 H   0  0  0  0  0  0  0  0  0  0  0  0
   55.8746   29.8632   52.7117 H   0  0  0  0  0  0  0  0  0  0  0  0
   63.0069   33.6435   48.1555 H   0  0  0  0  0  0  0  0  0  0  0  0
   61.7152   32.3712   48.1507 H   0  0  0  0  0  0  0  0  0  0  0  0
   61.4209   35.1734   46.9696 H   0  0  0  0  0  0  0  0  0  0  0  0
   61.7856   33.6726   46.0328 H   0  0  0  0  0  0  0  0  0  0  0  0
  1  2  2  0
  2  3  1  0
  3  4  2  3
  4  5  1  0
  5  6  1  0
  6  7  1  0
  7  8  2  0
  7  9  1  0
  9 10  1  0
 10 11  1  0
  3 12  1  0
 12 13  2  0
 13 14  1  0
 13 15  1  0
 15 16  1  0
 16 17  1  0
 17 18  1  0
 18 19  1  0
 19 20  1  0
 20 21  1  0
 21 22  1  0
 22 23  1  0
 23 24  1  0
 24 25  1  0
 25 26  2  0
 26 27  1  0
 27 28  2  0
 28 29  1  0
 29 30  2  0
 29 31  1  0
 31 32  1  0
 32 33  1  0
 23 34  1  0
 34 35  1  0
 15  2  1  0
 35 20  1  0
 10  5  2  0
 30 25  1  0
 33 28  1  0
  1 36  1  0
  1 37  1  0
  4 38  1  0
 11 39  1  0
 12 40  1  0
 14 41  1  0
 14 42  1  0
 14 43  1  0
 16 44  1  0
 16 45  1  0
 17 46  1  0
 17 47  1  0
 18 48  1  0
 18 49  1  0
 19 50  1  0
 19 51  1  0
 21 52  1  0
 21 53  1  0
 22 54  1  0
 22 55  1  0
 24 56  1  0
 24 57  1  0
 26 58  1  0
 27 59  1  0
 30 60  1  0
 32 61  1  0
 32 62  1  0
 34 63  1  0
 34 64  1  0
 35 65  1  0
 35 66  1  0
M  CHG  2   6  -1   9  -1
M  END
>  <UniqueID>  (26) 
26

>  <SMILES>  (26) 
C=c1c(=Cc2[n-]c(=O)[n-]c2O)cc(C)n1CCCCN1CCN(Cc2ccc3c(c2)OCO3)CC1

>  <Energy>  (26) 
173.214971559807

>  <Genealogy>  (26) 
C=c1c(=Cc2[n-]c(=O)[n-]c2O)cc(C)n1CCCCN1CCN(Cc2ccc3c(c2)OCO3)CC1 (protonated)
C=c1c(=Cc2[n-]c(=O)[n-]c2O)cc(C)n1CCCCN1CCN(Cc2ccc3c(c2)OCO3)CC1 (3D coordinates assigned)
C=c1c(=Cc2[n-]c(=O)[n-]c2O)cc(C)n1CCCCN1CCN(Cc2ccc3c(c2)OCO3)CC1 (nonaromatic ring conformer: 173.214971559807 kcal/mol)

>  <smiles>  (26) 
C=c1c(=Cc2[nH]c(=O)[nH]c2O)cc(C)n1CCCCN1CCN(Cc2ccc3c(c2)OCO3)CC1

>  <score_type>  (26) 
oracle

>  <origin>  (26) 
adg

>  <m_score__min__energy>  (26) 
-13.69

>  <m_primary>  (26) 
energy

$$$$
26:0
     RDKit          3D

 46 48  0  0  0  0  0  0  0  0999 V2000
   58.8375   33.7864   51.1923 H   0  0  0  0  0  0  0  0  0  0  0  0
   59.7380   33.8120   50.5610 C   0  0  0  0  0  0  0  0  0  0  0  0
   59.6470   34.2310   49.2300 C   0  0  0  0  0  0  0  0  0  0  0  0
   58.6743   34.5316   48.8136 H   0  0  0  0  0  0  0  0  0  0  0  0
   60.7920   34.2680   48.4280 C   0  0  0  0  0  0  0  0  0  0  0  0
   60.7167   34.5935   47.3800 H   0  0  0  0  0  0  0  0  0  0  0  0
   62.0380   33.8910   48.9560 C   0  0  0  0  0  0  0  0  0  0  0  0
   63.2660   33.8990   48.0820 C   0  0  0  0  0  0  0  0  0  0  0  0
   64.1212   33.5249   48.6640 H   0  0  0  0  0  0  0  0  0  0  0  0
   63.4425   34.9311   47.7450 H   0  0  0  0  0  0  0  0  0  0  0  0
   63.0810   33.0130   46.8420 C   0  0  0  0  0  0  0  0  0  0  0  0
   63.9954   33.0562   46.2321 H   0  0  0  0  0  0  0  0  0  0  0  0
   62.2151   33.3874   46.2762 H   0  0  0  0  0  0  0  0  0  0  0  0
   62.8210   31.6200   47.2120 N   0  0  0  0  0  0  0  0  0  0  0  0
   61.7040   31.1750   47.7100 C   0  0  0  0  0  0  0  0  0  0  0  0
   60.5090   31.5050   47.1470 N   0  0  0  0  0  0  0  0  0  0  0  0
   59.3340   31.0460   47.6500 C   0  0  0  0  0  0  0  0  0  0  0  0
   58.1400   31.4170   47.0160 O   0  0  0  0  0  0  0  0  0  0  0  0
   58.0130   31.6300   45.6370 C   0  0  0  0  0  0  0  0  0  0  0  0
   57.6440   30.5550   44.8060 C   0  0  0  0  0  0  0  0  0  0  0  0
   57.3710   29.2020   45.3990 C   0  0  0  0  0  0  0  0  0  0  0  0
   57.3853   29.2731   46.4966 H   0  0  0  0  0  0  0  0  0  0  0  0
   56.3835   28.8488   45.0673 H   0  0  0  0  0  0  0  0  0  0  0  0
   58.1443   28.4935   45.0673 H   0  0  0  0  0  0  0  0  0  0  0  0
   57.4740   30.7670   43.4300 C   0  0  0  0  0  0  0  0  0  0  0  0
   57.1681   29.9324   42.7819 H   0  0  0  0  0  0  0  0  0  0  0  0
   57.6910   32.0330   42.8770 C   0  0  0  0  0  0  0  0  0  0  0  0
   57.5090   32.2430   41.4650 C   0  0  0  0  0  0  0  0  0  0  0  0
   57.3630   32.4110   40.3290 N   0  0  0  0  0  0  0  0  0  0  0  0
   58.0850   33.0950   43.6970 C   0  0  0  0  0  0  0  0  0  0  0  0
   58.2512   34.0902   43.2589 H   0  0  0  0  0  0  0  0  0  0  0  0
   58.2700   32.9010   45.0740 C   0  0  0  0  0  0  0  0  0  0  0  0
   58.7030   34.0590   45.9300 C   0  0  0  0  0  0  0  0  0  0  0  0
   58.6018   33.7884   46.9914 H   0  0  0  0  0  0  0  0  0  0  0  0
   59.7532   34.3033   45.7124 H   0  0  0  0  0  0  0  0  0  0  0  0
   58.0707   34.9324   45.7124 H   0  0  0  0  0  0  0  0  0  0  0  0
   59.3530   30.2030   48.7710 C   0  0  0  0  0  0  0  0  0  0  0  0
   58.4169   29.8084   49.1929 H   0  0  0  0  0  0  0  0  0  0  0  0
   60.5830   29.8760   49.3390 C   0  0  0  0  0  0  0  0  0  0  0  0
   60.6235   29.2201   50.2211 H   0  0  0  0  0  0  0  0  0  0  0  0
   61.7320   30.3660   48.8050 N   0  0  0  0  0  0  0  0  0  0  0  0
   62.6460   30.1080   49.2440 H   0  0  0  0  0  0  0  0  0  0  0  0
   62.1200   33.4620   50.2910 C   0  0  0  0  0  0  0  0  0  0  0  0
   63.0893   33.1537   50.7098 H   0  0  0  0  0  0  0  0  0  0  0  0
   60.9720   33.4260   51.0890 C   0  0  0  0  0  0  0  0  0  0  0  0
   61.0412   33.0928   52.1351 H   0  0  0  0  0  0  0  0  0  0  0  0
  1  2  1  0
  2  3  2  0
  3  4  1  0
  3  5  1  0
  5  6  1  0
  5  7  2  0
  7  8  1  0
  8  9  1  0
  8 10  1  0
  8 11  1  0
 11 12  1  0
 11 13  1  0
 11 14  1  0
 14 15  2  0
 15 16  1  0
 16 17  2  0
 17 18  1  0
 18 19  1  0
 19 20  2  0
 20 21  1  0
 21 22  1  0
 21 23  1  0
 21 24  1  0
 20 25  1  0
 25 26  1  0
 25 27  2  0
 27 28  1  0
 28 29  3  0
 27 30  1  0
 30 31  1  0
 30 32  2  0
 32 33  1  0
 33 34  1  0
 33 35  1  0
 33 36  1  0
 17 37  1  0
 37 38  1  0
 37 39  2  0
 39 40  1  0
 39 41  1  0
 41 42  1  0
  7 43  1  0
 43 44  1  0
 43 45  2  0
 45 46  1  0
 45  2  1  0
 41 15  1  0
 32 19  1  0
M  END
>  <UniqueID>  (27) 
27

>  <SMILES>  (27) 
Cc1cc(C#N)cc(C)c1Oc1cc[nH]/c(=N/CCc2ccccc2)n1

>  <Energy>  (27) 
52.571966337347995

>  <Genealogy>  (27) 
Cc1cc(C#N)cc(C)c1Oc1cc[nH]/c(=N/CCc2ccccc2)n1 (cis-trans isomerization)
Cc1cc(C#N)cc(C)c1Oc1cc[nH]/c(=N/CCc2ccccc2)n1 (3D coordinates assigned)
Cc1cc(C#N)cc(C)c1Oc1cc[nH]/c(=N/CCc2ccccc2)n1 (optimized conformer: 52.571966337347995 kcal/mol)

>  <smiles>  (27) 
Cc1cc(C#N)cc(C)c1Oc1cc[nH]c(=NCCc2ccccc2)n1

>  <score_type>  (27) 
oracle

>  <origin>  (27) 
adg

>  <m_score__min__energy>  (27) 
-7.6699999999999999

>  <m_primary>  (27) 
energy

$$$$
27:0
     RDKit          3D

 53 55  0  0  0  0  0  0  0  0999 V2000
   57.7350   32.0070   42.3390 C   0  0  0  0  0  0  0  0  0  0  0  0
   57.1910   31.1520   43.2110 C   0  0  0  0  0  0  0  0  0  0  0  0
   56.3080   30.0470   42.6970 C   0  0  0  0  0  0  0  0  0  0  0  0
   57.4660   31.2920   44.6640 C   0  0  0  0  0  0  0  0  0  0  0  0
   57.0210   30.4180   45.4590 O   0  0  0  0  0  0  0  0  0  0  0  0
   58.2350   32.4320   45.2170 C   0  0  0  0  0  0  0  0  0  0  0  0
   57.8290   33.7570   44.9990 C   0  0  0  0  0  0  0  0  0  0  0  0
   58.5580   34.7870   45.5020 N   0  0  0  0  0  0  0  0  0  0  0  0
   59.6920   34.5820   46.2210 C   0  0  0  0  0  0  0  0  0  0  0  0
   60.1580   33.2790   46.4550 C   0  0  0  0  0  0  0  0  0  0  0  0
   61.3690   33.0500   47.2120 N   0  0  0  0  0  0  0  0  0  0  0  0
   61.3230   32.2700   48.4600 C   0  0  0  0  0  0  0  0  0  0  0  0
   62.6570   31.5560   48.7110 C   0  0  0  0  0  0  0  0  0  0  0  0
   63.8860   32.5150   48.6840 C   0  0  0  0  0  0  0  0  0  0  0  0
   64.4760   32.7180   50.0440 N   0  0  0  0  0  0  0  0  0  0  0  0
   65.9470   32.8580   49.9860 C   0  0  0  0  0  0  0  0  0  0  0  0
   66.5550   32.7930   51.4020 C   0  0  0  0  0  0  0  0  0  0  0  0
   65.7640   33.5280   52.4200 N   0  0  0  0  0  0  0  0  0  0  0  0
   65.1160   32.6270   53.3890 C   0  0  0  0  0  0  0  0  0  0  0  0
   64.8060   34.4860   51.8350 C   0  0  0  0  0  0  0  0  0  0  0  0
   63.8460   33.8230   50.8210 C   0  0  0  0  0  0  0  0  0  0  0  0
   63.6060   33.8380   47.9150 C   0  0  0  0  0  0  0  0  0  0  0  0
   62.6450   33.6160   46.7450 C   0  0  0  0  0  0  0  0  0  0  0  0
   59.4160   32.2040   45.9390 C   0  0  0  0  0  0  0  0  0  0  0  0
   58.3829   32.8205   42.6975 H   0  0  0  0  0  0  0  0  0  0  0  0
   57.5347   31.8970   41.2630 H   0  0  0  0  0  0  0  0  0  0  0  0
   55.8717   29.5011   43.5465 H   0  0  0  0  0  0  0  0  0  0  0  0
   55.5018   30.4768   42.0844 H   0  0  0  0  0  0  0  0  0  0  0  0
   56.9051   29.3555   42.0844 H   0  0  0  0  0  0  0  0  0  0  0  0
   56.9173   33.9626   44.4188 H   0  0  0  0  0  0  0  0  0  0  0  0
   60.2482   35.4421   46.6221 H   0  0  0  0  0  0  0  0  0  0  0  0
   61.1141   32.9481   49.3006 H   0  0  0  0  0  0  0  0  0  0  0  0
   60.5310   31.5119   48.3706 H   0  0  0  0  0  0  0  0  0  0  0  0
   62.6135   31.0723   49.6980 H   0  0  0  0  0  0  0  0  0  0  0  0
   62.7944   30.8283   47.8977 H   0  0  0  0  0  0  0  0  0  0  0  0
   64.6669   32.0102   48.0963 H   0  0  0  0  0  0  0  0  0  0  0  0
   64.2910   31.8280   50.5660 H   0  0  0  0  0  0  0  0  0  0  0  0
   66.3639   32.0432   49.3759 H   0  0  0  0  0  0  0  0  0  0  0  0
   66.1930   33.8325   49.5389 H   0  0  0  0  0  0  0  0  0  0  0  0
   66.6184   31.7376   51.7056 H   0  0  0  0  0  0  0  0  0  0  0  0
   67.5436   33.2727   51.3520 H   0  0  0  0  0  0  0  0  0  0  0  0
   65.3530   32.9565   54.4114 H   0  0  0  0  0  0  0  0  0  0  0  0
   64.0264   32.6503   53.2395 H   0  0  0  0  0  0  0  0  0  0  0  0
   65.4847   31.6015   53.2395 H   0  0  0  0  0  0  0  0  0  0  0  0
   64.2101   34.9284   52.6469 H   0  0  0  0  0  0  0  0  0  0  0  0
   65.3858   35.2490   51.2949 H   0  0  0  0  0  0  0  0  0  0  0  0
   62.9850   33.4155   51.3712 H   0  0  0  0  0  0  0  0  0  0  0  0
   63.5495   34.5988   50.0998 H   0  0  0  0  0  0  0  0  0  0  0  0
   63.1618   34.5671   48.6086 H   0  0  0  0  0  0  0  0  0  0  0  0
   64.5593   34.2103   47.5118 H   0  0  0  0  0  0  0  0  0  0  0  0
   62.4518   34.5792   46.2501 H   0  0  0  0  0  0  0  0  0  0  0  0
   63.1065   32.9076   46.0413 H   0  0  0  0  0  0  0  0  0  0  0  0
   59.7642   31.1735   46.1025 H   0  0  0  0  0  0  0  0  0  0  0  0
  1  2  2  0
  2  3  1  0
  2  4  1  0
  4  5  2  0
  4  6  1  0
  6  7  2  0
  7  8  1  0
  8  9  2  0
  9 10  1  0
 10 11  1  0
 11 12  1  0
 12 13  1  0
 13 14  1  0
 14 15  1  0
 15 16  1  0
 16 17  1  0
 17 18  1  0
 18 19  1  0
 18 20  1  0
 20 21  1  0
 14 22  1  0
 22 23  1  0
 10 24  2  0
 24  6  1  0
 23 11  1  0
 21 15  1  0
  1 25  1  0
  1 26  1  0
  3 27  1  0
  3 28  1  0
  3 29  1  0
  7 30  1  0
  9 31  1  0
 12 32  1  0
 12 33  1  0
 13 34  1  0
 13 35  1  0
 14 36  1  0
 15 37  1  0
 16 38  1  0
 16 39  1  0
 17 40  1  0
 17 41  1  0
 19 42  1  0
 19 43  1  0
 19 44  1  0
 20 45  1  0
 20 46  1  0
 21 47  1  0
 21 48  1  0
 22 49  1  0
 22 50  1  0
 23 51  1  0
 23 52  1  0
 24 53  1  0
M  CHG  1  15   1
M  END
>  <UniqueID>  (28) 
28

>  <SMILES>  (28) 
C=C(C)C(=O)c1cncc(N2CCC([NH+]3CCN(C)CC3)CC2)c1

>  <Energy>  (28) 
81.14167612429003

>  <Genealogy>  (28) 
C=C(C)C(=O)c1cncc(N2CCC([NH+]3CCN(C)CC3)CC2)c1 (protonated)
C=C(C)C(=O)c1cncc(N2CCC([NH+]3CCN(C)CC3)CC2)c1 (3D coordinates assigned)
C=C(C)C(=O)c1cncc(N2CCC([NH+]3CCN(C)CC3)CC2)c1 (nonaromatic ring conformer: 81.14167612429003 kcal/mol)

>  <smiles>  (28) 
C=C(C)C(=O)c1cncc(N2CCC(N3CCN(C)CC3)CC2)c1

>  <score_type>  (28) 
oracle

>  <origin>  (28) 
adg

>  <m_score__min__energy>  (28) 
-6.9100000000000001

>  <m_primary>  (28) 
energy

$$$$
28:0
     RDKit          3D

 49 52  0  0  0  0  0  0  0  0999 V2000
   54.7630   26.7140   46.3620 O   0  0  0  0  0  0  0  0  0  0  0  0
   55.9420   26.3840   46.0710 C   0  0  0  0  0  0  0  0  0  0  0  0
   56.7690   27.2450   45.2780 N   0  0  0  0  0  0  0  0  0  0  0  0
   56.6400   28.6660   45.1480 C   0  0  0  0  0  0  0  0  0  0  0  0
   55.7170   29.3870   44.4140 C   0  0  0  0  0  0  0  0  0  0  0  0
   56.0260   30.6950   44.5080 N   0  0  0  0  0  0  0  0  0  0  0  0
   57.1030   30.8150   45.2740 N   0  0  0  0  0  0  0  0  0  0  0  0
   57.7380   32.0760   45.5640 C   0  0  0  0  0  0  0  0  0  0  0  0
   57.4270   33.2150   44.8080 C   0  0  0  0  0  0  0  0  0  0  0  0
   58.0340   34.4000   45.0710 N   0  0  0  0  0  0  0  0  0  0  0  0
   58.9500   34.5420   46.0620 C   0  0  0  0  0  0  0  0  0  0  0  0
   59.4650   35.6750   46.2560 O   0  0  0  0  0  0  0  0  0  0  0  0
   59.3030   33.4340   46.8640 C   0  0  0  0  0  0  0  0  0  0  0  0
   60.3020   33.5330   47.9610 C   0  0  0  0  0  0  0  0  0  0  0  0
   60.3620   34.5810   48.6620 O   0  0  0  0  0  0  0  0  0  0  0  0
   61.1850   32.4410   48.2480 N   0  0  0  0  0  0  0  0  0  0  0  0
   60.7580   31.2030   48.8900 C   0  0  0  0  0  0  0  0  0  0  0  0
   60.5820   30.1200   47.8610 C   0  0  0  0  0  0  0  0  0  0  0  0
   61.1570   30.2450   46.5850 C   0  0  0  0  0  0  0  0  0  0  0  0
   60.9650   29.2450   45.6270 C   0  0  0  0  0  0  0  0  0  0  0  0
   60.1950   28.1190   45.9320 C   0  0  0  0  0  0  0  0  0  0  0  0
   59.6120   27.9880   47.1960 C   0  0  0  0  0  0  0  0  0  0  0  0
   58.8430   26.8620   47.4850 O   0  0  0  0  0  0  0  0  0  0  0  0
   59.8030   28.9890   48.1590 C   0  0  0  0  0  0  0  0  0  0  0  0
   58.6760   32.2030   46.6040 C   0  0  0  0  0  0  0  0  0  0  0  0
   57.5090   29.5900   45.6740 C   0  0  0  0  0  0  0  0  0  0  0  0
   56.4770   25.1710   46.6110 N   0  0  0  0  0  0  0  0  0  0  0  0
   57.1080   24.1350   45.8460 C   0  0  0  0  0  0  0  0  0  0  0  0
   58.4930   23.9570   45.9660 C   0  0  0  0  0  0  0  0  0  0  0  0
   59.1420   22.9500   45.2440 C   0  0  0  0  0  0  0  0  0  0  0  0
   58.4080   22.1040   44.4090 C   0  0  0  0  0  0  0  0  0  0  0  0
   57.0210   22.2550   44.3060 C   0  0  0  0  0  0  0  0  0  0  0  0
   56.3670   23.2570   45.0290 C   0  0  0  0  0  0  0  0  0  0  0  0
   55.0130   23.3320   44.9700 F   0  0  0  0  0  0  0  0  0  0  0  0
   54.8731   28.9645   43.8489 H   0  0  0  0  0  0  0  0  0  0  0  0
   56.6868   33.1478   43.9971 H   0  0  0  0  0  0  0  0  0  0  0  0
   61.5192   30.8907   49.6201 H   0  0  0  0  0  0  0  0  0  0  0  0
   59.7982   31.3745   49.3993 H   0  0  0  0  0  0  0  0  0  0  0  0
   61.7597   31.1318   46.3392 H   0  0  0  0  0  0  0  0  0  0  0  0
   61.4210   29.3446   44.6309 H   0  0  0  0  0  0  0  0  0  0  0  0
   60.0474   27.3340   45.1757 H   0  0  0  0  0  0  0  0  0  0  0  0
   58.0400   26.6080   46.9210 H   0  0  0  0  0  0  0  0  0  0  0  0
   59.3410   28.8886   49.1522 H   0  0  0  0  0  0  0  0  0  0  0  0
   58.9224   31.3273   47.2224 H   0  0  0  0  0  0  0  0  0  0  0  0
   58.3808   29.3716   46.3083 H   0  0  0  0  0  0  0  0  0  0  0  0
   59.0730   24.6130   46.6318 H   0  0  0  0  0  0  0  0  0  0  0  0
   60.2311   22.8241   45.3337 H   0  0  0  0  0  0  0  0  0  0  0  0
   58.9204   21.3195   43.8328 H   0  0  0  0  0  0  0  0  0  0  0  0
   56.4432   21.5833   43.6541 H   0  0  0  0  0  0  0  0  0  0  0  0
  1  2  2  0
  2  3  1  0
  3  4  1  0
  4  5  1  0
  5  6  2  0
  6  7  1  0
  7  8  1  0
  8  9  2  0
  9 10  1  0
 10 11  1  0
 11 12  2  0
 11 13  1  0
 13 14  1  0
 14 15  2  0
 14 16  1  0
 16 17  1  0
 17 18  1  0
 18 19  2  0
 19 20  1  0
 20 21  2  0
 21 22  1  0
 22 23  1  0
 22 24  2  0
 13 25  2  0
  7 26  1  0
  2 27  1  0
 27 28  1  0
 28 29  2  0
 29 30  1  0
 30 31  2  0
 31 32  1  0
 32 33  2  0
 33 34  1  0
 26  4  2  0
 33 28  1  0
 25  8  1  0
 24 18  1  0
  5 35  1  0
  9 36  1  0
 17 37  1  0
 17 38  1  0
 19 39  1  0
 20 40  1  0
 21 41  1  0
 23 42  1  0
 24 43  1  0
 25 44  1  0
 26 45  1  0
 29 46  1  0
 30 47  1  0
 31 48  1  0
 32 49  1  0
M  CHG  4   3  -1  10  -1  16  -1  27  -1
M  END
>  <UniqueID>  (29) 
29

>  <SMILES>  (29) 
O=C([N-]c1cnn(-c2c[n-]c(=O)c(C(=O)[N-]Cc3cccc(O)c3)c2)c1)[N-]c1ccccc1F

>  <Energy>  (29) 
95.19218118226914

>  <Genealogy>  (29) 
O=C([N-]c1cnn(-c2c[n-]c(=O)c(C(=O)[N-]Cc3cccc(O)c3)c2)c1)[N-]c1ccccc1F (protonated)
O=C([N-]c1cnn(-c2c[n-]c(=O)c(C(=O)[N-]Cc3cccc(O)c3)c2)c1)[N-]c1ccccc1F (3D coordinates assigned)
O=C([N-]c1cnn(-c2c[n-]c(=O)c(C(=O)[N-]Cc3cccc(O)c3)c2)c1)[N-]c1ccccc1F (optimized conformer: 95.19218118226914 kcal/mol)

>  <smiles>  (29) 
O=C(Nc1cnn(-c2c[nH]c(=O)c(C(=O)NCc3cccc(O)c3)c2)c1)Nc1ccccc1F

>  <score_type>  (29) 
oracle

>  <origin>  (29) 
adg

>  <m_score__min__energy>  (29) 
-14.039999999999999

>  <m_primary>  (29) 
energy

$$$$
29:0
     RDKit          3D

 52 55  0  0  0  0  0  0  0  0999 V2000
   58.5720   27.9900   43.9590 C   0  0  0  0  0  0  0  0  0  0  0  0
   58.0480   26.9610   44.9250 C   0  0  0  0  0  0  0  0  0  0  0  0
   58.8640   25.8710   45.2620 C   0  0  0  0  0  0  0  0  0  0  0  0
   58.3990   24.8700   46.1170 C   0  0  0  0  0  0  0  0  0  0  0  0
   57.1010   24.9350   46.6440 C   0  0  0  0  0  0  0  0  0  0  0  0
   56.5940   23.8830   47.5520 C   0  0  0  0  0  0  0  0  0  0  0  0
   55.5180   24.0790   48.1770 O   0  0  0  0  0  0  0  0  0  0  0  0
   57.2680   22.6310   47.7270 N   0  0  0  0  0  0  0  0  0  0  0  0
   57.0070   21.4380   46.9320 C   0  0  0  0  0  0  0  0  0  0  0  0
   57.7570   21.4510   45.6120 C   0  0  0  0  0  0  0  0  0  0  0  0
   56.2590   21.7090   45.6400 C   0  0  0  0  0  0  0  0  0  0  0  0
   56.2960   26.0450   46.3450 C   0  0  0  0  0  0  0  0  0  0  0  0
   56.7660   27.0690   45.5120 C   0  0  0  0  0  0  0  0  0  0  0  0
   55.9020   28.1810   45.2480 N   0  0  0  0  0  0  0  0  0  0  0  0
   56.3600   29.5290   45.1170 C   0  0  0  0  0  0  0  0  0  0  0  0
   55.9390   30.2330   44.1610 O   0  0  0  0  0  0  0  0  0  0  0  0
   57.2630   30.0840   46.0810 N   0  0  0  0  0  0  0  0  0  0  0  0
   58.6800   30.3060   45.8230 C   0  0  0  0  0  0  0  0  0  0  0  0
   59.4450   30.3180   47.1160 C   0  0  0  0  0  0  0  0  0  0  0  0
   60.4340   29.4370   47.3760 N   0  0  0  0  0  0  0  0  0  0  0  0
   60.8680   29.7750   48.6060 C   0  0  0  0  0  0  0  0  0  0  0  0
   60.1470   30.8500   49.0710 C   0  0  0  0  0  0  0  0  0  0  0  0
   59.2450   31.1880   48.1340 N   0  0  0  0  0  0  0  0  0  0  0  0
   58.3140   32.3170   48.2090 C   0  0  0  0  0  0  0  0  0  0  0  0
   58.5360   33.2600   47.0560 C   0  0  0  0  0  0  0  0  0  0  0  0
   59.6800   34.0760   47.0070 C   0  0  0  0  0  0  0  0  0  0  0  0
   59.8740   34.9540   45.9350 C   0  0  0  0  0  0  0  0  0  0  0  0
   58.9340   35.0190   44.9050 C   0  0  0  0  0  0  0  0  0  0  0  0
   57.7980   34.2070   44.9420 C   0  0  0  0  0  0  0  0  0  0  0  0
   57.5990   33.3280   46.0120 C   0  0  0  0  0  0  0  0  0  0  0  0
   59.0016   28.8336   44.5192 H   0  0  0  0  0  0  0  0  0  0  0  0
   59.3490   27.5366   43.3260 H   0  0  0  0  0  0  0  0  0  0  0  0
   57.7483   28.3517   43.3260 H   0  0  0  0  0  0  0  0  0  0  0  0
   59.8810   25.8042   44.8483 H   0  0  0  0  0  0  0  0  0  0  0  0
   59.0541   24.0260   46.3786 H   0  0  0  0  0  0  0  0  0  0  0  0
   56.8798   20.7276   47.7621 H   0  0  0  0  0  0  0  0  0  0  0  0
   58.4525   22.2717   45.3824 H   0  0  0  0  0  0  0  0  0  0  0  0
   58.4156   20.7456   45.0840 H   0  0  0  0  0  0  0  0  0  0  0  0
   55.8703   22.7165   45.4303 H   0  0  0  0  0  0  0  0  0  0  0  0
   55.3841   21.2676   45.1403 H   0  0  0  0  0  0  0  0  0  0  0  0
   55.2836   26.1120   46.7698 H   0  0  0  0  0  0  0  0  0  0  0  0
   59.0635   29.4994   45.1809 H   0  0  0  0  0  0  0  0  0  0  0  0
   58.8066   31.2765   45.3210 H   0  0  0  0  0  0  0  0  0  0  0  0
   61.6757   29.2684   49.1546 H   0  0  0  0  0  0  0  0  0  0  0  0
   60.2849   31.3473   50.0424 H   0  0  0  0  0  0  0  0  0  0  0  0
   57.2819   31.9383   48.1735 H   0  0  0  0  0  0  0  0  0  0  0  0
   58.4865   32.8589   49.1506 H   0  0  0  0  0  0  0  0  0  0  0  0
   60.4252   34.0239   47.8144 H   0  0  0  0  0  0  0  0  0  0  0  0
   60.7683   35.5938   45.9038 H   0  0  0  0  0  0  0  0  0  0  0  0
   59.0880   35.7104   44.0634 H   0  0  0  0  0  0  0  0  0  0  0  0
   57.0590   34.2588   44.1288 H   0  0  0  0  0  0  0  0  0  0  0  0
   56.7050   32.6875   46.0357 H   0  0  0  0  0  0  0  0  0  0  0  0
  1  2  1  0
  2  3  2  0
  3  4  1  0
  4  5  2  0
  5  6  1  0
  6  7  2  0
  6  8  1  0
  8  9  1  0
  9 10  1  0
 10 11  1  0
  5 12  1  0
 12 13  2  0
 13 14  1  0
 14 15  1  0
 15 16  2  0
 15 17  1  0
 17 18  1  0
 18 19  1  0
 19 20  2  0
 20 21  1  0
 21 22  2  0
 22 23  1  0
 23 24  1  0
 24 25  1  0
 25 26  2  0
 26 27  1  0
 27 28  2  0
 28 29  1  0
 29 30  2  0
 13  2  1  0
 23 19  1  0
 30 25  1  0
 11  9  1  0
  1 31  1  0
  1 32  1  0
  1 33  1  0
  3 34  1  0
  4 35  1  0
  9 36  1  0
 10 37  1  0
 10 38  1  0
 11 39  1  0
 11 40  1  0
 12 41  1  0
 18 42  1  0
 18 43  1  0
 21 44  1  0
 22 45  1  0
 24 46  1  0
 24 47  1  0
 26 48  1  0
 27 49  1  0
 28 50  1  0
 29 51  1  0
 30 52  1  0
M  CHG  3   8  -1  14  -1  17  -1
M  END
>  <UniqueID>  (30) 
30

>  <SMILES>  (30) 
Cc1ccc(C(=O)[N-]C2CC2)cc1[N-]C(=O)[N-]Cc1nccn1Cc1ccccc1

>  <Energy>  (30) 
354.64154335377594

>  <Genealogy>  (30) 
Cc1ccc(C(=O)[N-]C2CC2)cc1[N-]C(=O)[N-]Cc1nccn1Cc1ccccc1 (protonated)
Cc1ccc(C(=O)[N-]C2CC2)cc1[N-]C(=O)[N-]Cc1nccn1Cc1ccccc1 (3D coordinates assigned)
Cc1ccc(C(=O)[N-]C2CC2)cc1[N-]C(=O)[N-]Cc1nccn1Cc1ccccc1 (nonaromatic ring conformer: 354.64154335377594 kcal/mol)

>  <smiles>  (30) 
Cc1ccc(C(=O)NC2CC2)cc1NC(=O)NCc1nccn1Cc1ccccc1

>  <score_type>  (30) 
oracle

>  <origin>  (30) 
adg

>  <m_score__min__energy>  (30) 
-13.82

>  <m_primary>  (30) 
energy

$$$$
30:0
     RDKit          3D

 57 60  0  0  0  0  0  0  0  0999 V2000
   60.8344   28.6238   51.4148 H   0  0  0  0  0  0  0  0  0  0  0  0
   60.7790   28.9570   50.3680 C   0  0  0  0  0  0  0  0  0  0  0  0
   60.1910   28.1380   49.4100 C   0  0  0  0  0  0  0  0  0  0  0  0
   59.7783   27.1618   49.7045 H   0  0  0  0  0  0  0  0  0  0  0  0
   60.1210   28.5480   48.0730 C   0  0  0  0  0  0  0  0  0  0  0  0
   59.5000   27.6870   47.1060 N   0  0  0  0  0  0  0  0  0  0  0  0
   58.3620   27.9420   46.5290 C   0  0  0  0  0  0  0  0  0  0  0  0
   57.3940   26.9930   46.5140 N   0  0  0  0  0  0  0  0  0  0  0  0
   56.2120   27.2310   45.8900 C   0  0  0  0  0  0  0  0  0  0  0  0
   55.2890   26.3190   45.9070 N   0  0  0  0  0  0  0  0  0  0  0  0
   55.5330   24.9030   45.6450 C   0  0  0  0  0  0  0  0  0  0  0  0
   55.6258   24.3642   46.5995 H   0  0  0  0  0  0  0  0  0  0  0  0
   54.6934   24.4867   45.0691 H   0  0  0  0  0  0  0  0  0  0  0  0
   56.4636   24.7917   45.0691 H   0  0  0  0  0  0  0  0  0  0  0  0
   56.0090   28.4210   45.2610 N   0  0  0  0  0  0  0  0  0  0  0  0
   56.9760   29.3720   45.2580 C   0  0  0  0  0  0  0  0  0  0  0  0
   56.7590   30.4890   44.6200 N   0  0  0  0  0  0  0  0  0  0  0  0
   57.6470   31.6160   44.2740 C   0  0  0  0  0  0  0  0  0  0  0  0
   58.2400   32.3560   45.4420 C   0  0  0  0  0  0  0  0  0  0  0  0
   57.8350   32.0590   46.7510 C   0  0  0  0  0  0  0  0  0  0  0  0
   57.1011   31.2591   46.9286 H   0  0  0  0  0  0  0  0  0  0  0  0
   58.3590   32.7740   47.8310 C   0  0  0  0  0  0  0  0  0  0  0  0
   58.0460   32.5216   48.8549 H   0  0  0  0  0  0  0  0  0  0  0  0
   59.2790   33.8090   47.6220 C   0  0  0  0  0  0  0  0  0  0  0  0
   59.7650   34.5000   48.7440 O   0  0  0  0  0  0  0  0  0  0  0  0
   60.0290   33.9170   50.0190 C   0  0  0  0  0  0  0  0  0  0  0  0
   59.2690   34.5660   50.9740 F   0  0  0  0  0  0  0  0  0  0  0  0
   59.6870   32.5780   50.0110 F   0  0  0  0  0  0  0  0  0  0  0  0
   61.3670   34.0610   50.3420 F   0  0  0  0  0  0  0  0  0  0  0  0
   59.6720   34.1190   46.3050 C   0  0  0  0  0  0  0  0  0  0  0  0
   60.3923   34.9308   46.1256 H   0  0  0  0  0  0  0  0  0  0  0  0
   59.1510   33.4000   45.2250 C   0  0  0  0  0  0  0  0  0  0  0  0
   59.4573   33.6545   44.1996 H   0  0  0  0  0  0  0  0  0  0  0  0
   58.5240   31.4690   43.0370 C   0  0  0  0  0  0  0  0  0  0  0  0
   59.5545   31.8538   43.0443 H   0  0  0  0  0  0  0  0  0  0  0  0
   58.8430   30.6271   42.4050 H   0  0  0  0  0  0  0  0  0  0  0  0
   57.3420   32.4440   43.0280 C   0  0  0  0  0  0  0  0  0  0  0  0
   57.5230   33.5290   43.0299 H   0  0  0  0  0  0  0  0  0  0  0  0
   56.4598   32.5933   42.3882 H   0  0  0  0  0  0  0  0  0  0  0  0
   58.1450   29.1290   45.9020 N   0  0  0  0  0  0  0  0  0  0  0  0
   60.6830   29.7870   47.6840 C   0  0  0  0  0  0  0  0  0  0  0  0
   60.6290   30.2260   46.2400 C   0  0  0  0  0  0  0  0  0  0  0  0
   60.4948   31.3168   46.1932 H   0  0  0  0  0  0  0  0  0  0  0  0
   61.5678   29.9501   45.7375 H   0  0  0  0  0  0  0  0  0  0  0  0
   59.7850   29.7308   45.7375 H   0  0  0  0  0  0  0  0  0  0  0  0
   61.2490   30.6350   48.6700 C   0  0  0  0  0  0  0  0  0  0  0  0
   61.7220   31.9510   48.3210 N   0  0  0  0  0  0  0  0  0  0  0  0
   61.0660   32.7660   48.3480 H   0  0  0  0  0  0  0  0  0  0  0  0
   63.3070   32.2560   47.6880 S   0  0  0  0  0  0  0  0  0  0  0  0
   63.7060   31.1560   46.7450 O   0  0  0  0  0  0  0  0  0  0  0  0
   64.2880   32.2980   48.8280 O   0  0  0  0  0  0  0  0  0  0  0  0
   63.3390   33.8270   46.8520 C   0  0  0  0  0  0  0  0  0  0  0  0
   63.3555   34.6376   47.5954 H   0  0  0  0  0  0  0  0  0  0  0  0
   64.2386   33.8888   46.2220 H   0  0  0  0  0  0  0  0  0  0  0  0
   62.4427   33.9254   46.2220 H   0  0  0  0  0  0  0  0  0  0  0  0
   61.2980   30.1980   50.0060 C   0  0  0  0  0  0  0  0  0  0  0  0
   61.7510   30.8431   50.7732 H   0  0  0  0  0  0  0  0  0  0  0  0
  1  2  1  0
  2  3  2  0
  3  4  1  0
  3  5  1  0
  5  6  1  0
  6  7  2  0
  7  8  1  0
  8  9  1  0
  9 10  2  3
 10 11  1  0
 11 12  1  0
 11 13  1  0
 11 14  1  0
  9 15  1  0
 15 16  1  0
 16 17  2  3
 17 18  1  0
 18 19  1  0
 19 20  2  0
 20 21  1  0
 20 22  1  0
 22 23  1  0
 22 24  2  0
 24 25  1  0
 25 26  1  0
 26 27  1  0
 26 28  1  0
 26 29  1  0
 24 30  1  0
 30 31  1  0
 30 32  2  0
 32 33  1  0
 18 34  1  0
 34 35  1  0
 34 36  1  0
 34 37  1  0
 37 38  1  0
 37 39  1  0
 16 40  1  0
  5 41  2  0
 41 42  1  0
 42 43  1  0
 42 44  1  0
 42 45  1  0
 41 46  1  0
 46 47  1  0
 47 48  1  0
 47 49  1  0
 49 50  2  0
 49 51  2  0
 49 52  1  0
 52 53  1  0
 52 54  1  0
 52 55  1  0
 46 56  2  0
 56 57  1  0
 56  2  1  0
 40  7  1  0
 37 18  1  0
 32 19  1  0
M  CHG  3   8  -1  15  -1  40  -1
M  END
>  <UniqueID>  (31) 
31

>  <SMILES>  (31) 
CN=c1[n-]c(=NC2(c3ccc(OC(F)(F)F)cc3)CC2)[n-]/c(=N\c2cccc(NS(C)(=O)=O)c2C)[n-]1

>  <Energy>  (31) 
343.6134656998397

>  <Genealogy>  (31) 
CN=c1[n-]c(=Nc2cccc(NS(C)(=O)=O)c2C)[n-]c(=NC2(c3ccc(OC(F)(F)F)cc3)CC2)[n-]1 (protonated)
CN=c1[n-]c(=NC2(c3ccc(OC(F)(F)F)cc3)CC2)[n-]/c(=N\c2cccc(NS(C)(=O)=O)c2C)[n-]1 (cis-trans isomerization)
CN=c1[n-]c(=NC2(c3ccc(OC(F)(F)F)cc3)CC2)[n-]/c(=N\c2cccc(NS(C)(=O)=O)c2C)[n-]1 (3D coordinates assigned)
CN=c1[n-]c(=NC2(c3ccc(OC(F)(F)F)cc3)CC2)[n-]/c(=N\c2cccc(NS(C)(=O)=O)c2C)[n-]1 (nonaromatic ring conformer: 343.6134656998397 kcal/mol)

>  <smiles>  (31) 
CN=c1[nH]c(=Nc2cccc(NS(C)(=O)=O)c2C)[nH]c(=NC2(c3ccc(OC(F)(F)F)cc3)CC2)[nH]1

>  <score_type>  (31) 
oracle

>  <origin>  (31) 
adg

>  <m_score__min__energy>  (31) 
-12.81

>  <m_primary>  (31) 
energy

$$$$
31:0
     RDKit          3D

 53 55  0  0  0  0  0  0  0  0999 V2000
   61.5710   30.9050   46.8040 C   0  0  0  0  0  0  0  0  0  0  0  0
   60.5300   29.9960   47.4070 C   0  0  0  0  0  0  0  0  0  0  0  0
   59.9650   30.3520   48.6410 C   0  0  0  0  0  0  0  0  0  0  0  0
   58.9930   29.5560   49.2330 C   0  0  0  0  0  0  0  0  0  0  0  0
   58.5590   28.3940   48.6020 C   0  0  0  0  0  0  0  0  0  0  0  0
   59.1020   28.0030   47.3660 C   0  0  0  0  0  0  0  0  0  0  0  0
   58.6070   26.7100   46.7510 C   0  0  0  0  0  0  0  0  0  0  0  0
   57.3440   26.9470   45.9830 C   0  0  0  0  0  0  0  0  0  0  0  0
   56.2540   26.4710   46.4020 O   0  0  0  0  0  0  0  0  0  0  0  0
   57.3820   27.7130   44.7750 N   0  0  0  0  0  0  0  0  0  0  0  0
   56.6860   28.9840   44.5950 C   0  0  2  0  0  0  0  0  0  0  0  0
   56.6140   29.3070   43.0850 C   0  0  0  0  0  0  0  0  0  0  0  0
   56.7110   30.8170   42.8330 C   0  0  0  0  0  0  0  0  0  0  0  0
   58.0150   31.3590   43.3000 N   0  0  1  0  0  0  0  0  0  0  0  0
   58.0290   32.8450   43.3340 C   0  0  0  0  0  0  0  0  0  0  0  0
   58.3950   33.4420   44.6820 C   0  0  0  0  0  0  0  0  0  0  0  0
   57.5170   33.3140   45.7740 C   0  0  0  0  0  0  0  0  0  0  0  0
   57.8470   33.8620   47.0170 C   0  0  0  0  0  0  0  0  0  0  0  0
   59.0460   34.5590   47.1780 C   0  0  0  0  0  0  0  0  0  0  0  0
   59.9130   34.7170   46.0940 C   0  0  0  0  0  0  0  0  0  0  0  0
   59.5860   34.1720   44.8490 C   0  0  0  0  0  0  0  0  0  0  0  0
   58.5200   30.7360   44.5590 C   0  0  0  0  0  0  0  0  0  0  0  0
   57.4010   30.0990   45.3950 C   0  0  0  0  0  0  0  0  0  0  0  0
   60.1340   28.7850   46.7750 C   0  0  0  0  0  0  0  0  0  0  0  0
   60.7510   28.3780   45.4530 C   0  0  0  0  0  0  0  0  0  0  0  0
   62.1365   31.3988   47.6079 H   0  0  0  0  0  0  0  0  0  0  0  0
   62.2587   30.3131   46.1821 H   0  0  0  0  0  0  0  0  0  0  0  0
   61.0772   31.6662   46.1821 H   0  0  0  0  0  0  0  0  0  0  0  0
   60.2957   31.2720   49.1453 H   0  0  0  0  0  0  0  0  0  0  0  0
   58.5647   29.8450   50.2041 H   0  0  0  0  0  0  0  0  0  0  0  0
   57.7828   27.7750   49.0756 H   0  0  0  0  0  0  0  0  0  0  0  0
   59.3758   26.3145   46.0710 H   0  0  0  0  0  0  0  0  0  0  0  0
   58.4052   25.9869   47.5550 H   0  0  0  0  0  0  0  0  0  0  0  0
   55.6588   28.9160   44.9825 H   0  0  0  0  0  0  0  0  0  0  0  0
   57.4460   28.8037   42.5708 H   0  0  0  0  0  0  0  0  0  0  0  0
   55.6468   28.9520   42.6997 H   0  0  0  0  0  0  0  0  0  0  0  0
   56.6090   31.0078   41.7545 H   0  0  0  0  0  0  0  0  0  0  0  0
   55.9065   31.3155   43.3936 H   0  0  0  0  0  0  0  0  0  0  0  0
   58.7090   31.1010   42.5570 H   0  0  0  0  0  0  0  0  0  0  0  0
   58.7601   33.1985   42.5920 H   0  0  0  0  0  0  0  0  0  0  0  0
   57.0016   33.1721   43.1162 H   0  0  0  0  0  0  0  0  0  0  0  0
   56.5641   32.7789   45.6487 H   0  0  0  0  0  0  0  0  0  0  0  0
   57.1614   33.7440   47.8690 H   0  0  0  0  0  0  0  0  0  0  0  0
   59.3080   34.9837   48.1583 H   0  0  0  0  0  0  0  0  0  0  0  0
   60.8547   35.2713   46.2204 H   0  0  0  0  0  0  0  0  0  0  0  0
   60.2640   34.3148   43.9947 H   0  0  0  0  0  0  0  0  0  0  0  0
   59.2510   29.9568   44.2974 H   0  0  0  0  0  0  0  0  0  0  0  0
   58.9748   31.5334   45.1651 H   0  0  0  0  0  0  0  0  0  0  0  0
   57.8348   29.6662   46.3085 H   0  0  0  0  0  0  0  0  0  0  0  0
   56.6660   30.8761   45.6519 H   0  0  0  0  0  0  0  0  0  0  0  0
   61.6560   27.7810   45.6391 H   0  0  0  0  0  0  0  0  0  0  0  0
   60.0280   27.7790   44.8799 H   0  0  0  0  0  0  0  0  0  0  0  0
   61.0171   29.2784   44.8799 H   0  0  0  0  0  0  0  0  0  0  0  0
  1  2  1  0
  2  3  2  0
  3  4  1  0
  4  5  2  0
  5  6  1  0
  6  7  1  0
  7  8  1  0
  8  9  2  0
  8 10  1  0
 10 11  1  0
 11 12  1  0
 12 13  1  0
 13 14  1  0
 14 15  1  0
 15 16  1  0
 16 17  2  0
 17 18  1  0
 18 19  2  0
 19 20  1  0
 20 21  2  0
 14 22  1  0
 22 23  1  0
  6 24  2  0
 24 25  1  0
 24  2  1  0
 23 11  1  0
 21 16  1  0
  1 26  1  0
  1 27  1  0
  1 28  1  0
  3 29  1  0
  4 30  1  0
  5 31  1  0
  7 32  1  0
  7 33  1  0
 11 34  1  1
 12 35  1  0
 12 36  1  0
 13 37  1  0
 13 38  1  0
 14 39  1  6
 15 40  1  0
 15 41  1  0
 17 42  1  0
 18 43  1  0
 19 44  1  0
 20 45  1  0
 21 46  1  0
 22 47  1  0
 22 48  1  0
 23 49  1  0
 23 50  1  0
 25 51  1  0
 25 52  1  0
 25 53  1  0
M  CHG  2  10  -1  14   1
M  END
>  <UniqueID>  (32) 
32

>  <SMILES>  (32) 
Cc1cccc(CC(=O)[N-]C2CC[NH+](Cc3ccccc3)CC2)c1C

>  <Energy>  (32) 
64.48991061862915

>  <Genealogy>  (32) 
Cc1cccc(CC(=O)[N-]C2CC[NH+](Cc3ccccc3)CC2)c1C (protonated)
Cc1cccc(CC(=O)[N-]C2CC[NH+](Cc3ccccc3)CC2)c1C (3D coordinates assigned)
Cc1cccc(CC(=O)[N-]C2CC[NH+](Cc3ccccc3)CC2)c1C (nonaromatic ring conformer: 64.48991061862915 kcal/mol)

>  <smiles>  (32) 
Cc1cccc(CC(=O)NC2CCN(Cc3ccccc3)CC2)c1C

>  <score_type>  (32) 
oracle

>  <origin>  (32) 
adg

>  <m_score__min__energy>  (32) 
-9.5199999999999996

>  <m_primary>  (32) 
energy

$$$$
32:0
     RDKit          3D

 52 55  0  0  0  0  0  0  0  0999 V2000
   63.7770   33.9710   47.5040 C   0  0  0  0  0  0  0  0  0  0  0  0
   62.7290   33.1580   48.1310 N   0  0  0  0  0  0  0  0  0  0  0  0
   61.6300   33.8220   48.8390 C   0  0  0  0  0  0  0  0  0  0  0  0
   60.4080   33.8650   47.9790 C   0  0  0  0  0  0  0  0  0  0  0  0
   60.3750   34.4040   46.7460 N   0  0  0  0  0  0  0  0  0  0  0  0
   59.0880   34.1850   46.3970 C   0  0  0  0  0  0  0  0  0  0  0  0
   58.4740   34.5940   45.0870 C   0  0  0  0  0  0  0  0  0  0  0  0
   57.0290   34.1680   44.8700 C   0  0  0  0  0  0  0  0  0  0  0  0
   58.1530   33.4490   44.1380 C   0  0  0  0  0  0  0  0  0  0  0  0
   58.3940   33.5470   47.3590 N   0  0  0  0  0  0  0  0  0  0  0  0
   59.2460   33.3660   48.3210 O   0  0  0  0  0  0  0  0  0  0  0  0
   62.6580   31.7410   47.8620 C   0  0  0  0  0  0  0  0  0  0  0  0
   63.4920   31.2130   47.0750 O   0  0  0  0  0  0  0  0  0  0  0  0
   61.6330   30.8840   48.4950 C   0  0  0  0  0  0  0  0  0  0  0  0
   61.6890   30.6050   49.8690 C   0  0  0  0  0  0  0  0  0  0  0  0
   60.7220   29.7910   50.4610 C   0  0  0  0  0  0  0  0  0  0  0  0
   59.6840   29.2620   49.6910 C   0  0  0  0  0  0  0  0  0  0  0  0
   59.5880   29.5600   48.3240 C   0  0  0  0  0  0  0  0  0  0  0  0
   58.5080   28.9960   47.5590 N   0  0  0  0  0  0  0  0  0  0  0  0
   58.6710   27.6130   46.5160 S   0  0  0  0  0  0  0  0  0  0  0  0
   57.4840   26.7060   46.6830 O   0  0  0  0  0  0  0  0  0  0  0  0
   59.8910   26.8480   46.9540 O   0  0  0  0  0  0  0  0  0  0  0  0
   58.8000   28.0780   44.8240 N   0  0  0  0  0  0  0  0  0  0  0  0
   59.4920   29.3690   44.6540 C   0  0  0  0  0  0  0  0  0  0  0  0
   58.5990   30.5660   45.0640 C   0  0  0  0  0  0  0  0  0  0  0  0
   57.2800   30.1710   45.3950 O   0  0  0  0  0  0  0  0  0  0  0  0
   56.7290   29.4140   44.3360 C   0  0  0  0  0  0  0  0  0  0  0  0
   57.4950   28.0880   44.1340 C   0  0  0  0  0  0  0  0  0  0  0  0
   60.5720   30.3710   47.7300 C   0  0  0  0  0  0  0  0  0  0  0  0
   64.3891   34.4459   48.2849 H   0  0  0  0  0  0  0  0  0  0  0  0
   64.4143   33.3287   46.8785 H   0  0  0  0  0  0  0  0  0  0  0  0
   63.3133   34.7480   46.8785 H   0  0  0  0  0  0  0  0  0  0  0  0
   61.4049   33.2666   49.7614 H   0  0  0  0  0  0  0  0  0  0  0  0
   61.9320   34.8514   49.0823 H   0  0  0  0  0  0  0  0  0  0  0  0
   59.0220   35.5447   45.0105 H   0  0  0  0  0  0  0  0  0  0  0  0
   56.4799   33.6557   45.6738 H   0  0  0  0  0  0  0  0  0  0  0  0
   56.1044   34.6800   44.5649 H   0  0  0  0  0  0  0  0  0  0  0  0
   58.4162   32.4169   44.4126 H   0  0  0  0  0  0  0  0  0  0  0  0
   58.3772   33.2260   43.0844 H   0  0  0  0  0  0  0  0  0  0  0  0
   62.4979   31.0293   50.4818 H   0  0  0  0  0  0  0  0  0  0  0  0
   60.7776   29.5657   51.5362 H   0  0  0  0  0  0  0  0  0  0  0  0
   58.9358   28.6064   50.1604 H   0  0  0  0  0  0  0  0  0  0  0  0
   57.6260   29.5470   47.4620 H   0  0  0  0  0  0  0  0  0  0  0  0
   60.3974   29.3713   45.2788 H   0  0  0  0  0  0  0  0  0  0  0  0
   59.7424   29.4819   43.5888 H   0  0  0  0  0  0  0  0  0  0  0  0
   59.0494   31.0588   45.9382 H   0  0  0  0  0  0  0  0  0  0  0  0
   58.5373   31.2472   44.2025 H   0  0  0  0  0  0  0  0  0  0  0  0
   55.6774   29.1884   44.5665 H   0  0  0  0  0  0  0  0  0  0  0  0
   56.8076   30.0039   43.4109 H   0  0  0  0  0  0  0  0  0  0  0  0
   56.8821   27.2633   44.5266 H   0  0  0  0  0  0  0  0  0  0  0  0
   57.6857   27.9730   43.0568 H   0  0  0  0  0  0  0  0  0  0  0  0
   60.5103   30.6056   46.6571 H   0  0  0  0  0  0  0  0  0  0  0  0
  1  2  1  0
  2  3  1  0
  3  4  1  0
  4  5  2  0
  5  6  1  0
  6  7  1  0
  7  8  1  0
  8  9  1  0
  6 10  2  0
 10 11  1  0
  2 12  1  0
 12 13  2  0
 12 14  1  0
 14 15  2  0
 15 16  1  0
 16 17  2  0
 17 18  1  0
 18 19  1  0
 19 20  1  0
 20 21  2  0
 20 22  2  0
 20 23  1  0
 23 24  1  0
 24 25  1  0
 25 26  1  0
 26 27  1  0
 27 28  1  0
 18 29  2  0
 11  4  1  0
 29 14  1  0
  9  7  1  0
 28 23  1  0
  1 30  1  0
  1 31  1  0
  1 32  1  0
  3 33  1  0
  3 34  1  0
  7 35  1  0
  8 36  1  0
  8 37  1  0
  9 38  1  0
  9 39  1  0
 15 40  1  0
 16 41  1  0
 17 42  1  0
 19 43  1  0
 24 44  1  0
 24 45  1  0
 25 46  1  0
 25 47  1  0
 27 48  1  0
 27 49  1  0
 28 50  1  0
 28 51  1  0
 29 52  1  0
M  END
>  <UniqueID>  (33) 
33

>  <SMILES>  (33) 
CN(Cc1nc(C2CC2)no1)C(=O)c1cccc(NS(=O)(=O)N2CCOCC2)c1

>  <Energy>  (33) 
367.88258602554794

>  <Genealogy>  (33) 
CN(Cc1nc(C2CC2)no1)C(=O)c1cccc(NS(=O)(=O)N2CCOCC2)c1 (3D coordinates assigned)
CN(Cc1nc(C2CC2)no1)C(=O)c1cccc(NS(=O)(=O)N2CCOCC2)c1 (nonaromatic ring conformer: 367.88258602554794 kcal/mol)

>  <smiles>  (33) 
CN(Cc1nc(C2CC2)no1)C(=O)c1cccc(NS(=O)(=O)N2CCOCC2)c1

>  <score_type>  (33) 
oracle

>  <origin>  (33) 
adg

>  <m_score__min__energy>  (33) 
-9.9000000000000004

>  <m_primary>  (33) 
energy

$$$$
33:0
     RDKit          3D

 52 54  0  0  0  0  0  0  0  0999 V2000
   53.8420   24.0570   45.5150 C   0  0  0  0  0  0  0  0  0  0  0  0
   54.9130   23.8910   46.5500 C   0  0  0  0  0  0  0  0  0  0  0  0
   54.6890   23.1290   47.5300 O   0  0  0  0  0  0  0  0  0  0  0  0
   56.2110   24.6070   46.4580 C   0  0  0  0  0  0  0  0  0  0  0  0
   57.4200   23.9220   46.6900 C   0  0  0  0  0  0  0  0  0  0  0  0
   57.4170   22.5630   46.9910 O   0  0  0  0  0  0  0  0  0  0  0  0
   58.5830   24.5600   46.6110 O   0  0  0  0  0  0  0  0  0  0  0  0
   58.6840   25.8490   46.3130 C   0  0  0  0  0  0  0  0  0  0  0  0
   59.8290   26.3710   46.2450 O   0  0  0  0  0  0  0  0  0  0  0  0
   57.5320   26.6160   46.0650 C   0  0  0  0  0  0  0  0  0  0  0  0
   57.6330   28.0650   45.7500 C   0  0  0  0  0  0  0  0  0  0  0  0
   56.7170   28.6390   44.9470 C   0  0  0  0  0  0  0  0  0  0  0  0
   56.9660   28.9450   43.4900 C   0  0  0  0  0  0  0  0  0  0  0  0
   56.6850   30.4160   43.1490 C   0  0  0  0  0  0  0  0  0  0  0  0
   57.9320   31.2960   43.3140 C   0  0  0  0  0  0  0  0  0  0  0  0
   57.7680   32.2200   44.4790 C   0  0  0  0  0  0  0  0  0  0  0  0
   58.6980   33.0060   44.7990 O   0  0  0  0  0  0  0  0  0  0  0  0
   56.6090   32.1780   45.2420 O   0  0  0  0  0  0  0  0  0  0  0  0
   58.7230   28.8460   46.3790 C   0  0  0  0  0  0  0  0  0  0  0  0
   59.7610   29.3560   45.5890 C   0  0  0  0  0  0  0  0  0  0  0  0
   60.7830   30.1140   46.1670 C   0  0  0  0  0  0  0  0  0  0  0  0
   60.7770   30.3870   47.5460 C   0  0  0  0  0  0  0  0  0  0  0  0
   61.8640   31.1900   48.1620 C   0  0  0  0  0  0  0  0  0  0  0  0
   62.6510   32.0530   47.3750 C   0  0  0  0  0  0  0  0  0  0  0  0
   63.6730   32.8080   47.9580 C   0  0  0  0  0  0  0  0  0  0  0  0
   63.9210   32.7130   49.3300 C   0  0  0  0  0  0  0  0  0  0  0  0
   64.9360   33.4660   49.9070 O   0  0  0  0  0  0  0  0  0  0  0  0
   63.1460   31.8610   50.1210 C   0  0  0  0  0  0  0  0  0  0  0  0
   62.1240   31.1020   49.5430 C   0  0  0  0  0  0  0  0  0  0  0  0
   59.7220   29.8900   48.3330 C   0  0  0  0  0  0  0  0  0  0  0  0
   58.7010   29.1310   47.7530 C   0  0  0  0  0  0  0  0  0  0  0  0
   56.2800   25.9810   46.1590 C   0  0  0  0  0  0  0  0  0  0  0  0
   55.1160   26.7270   45.9990 O   0  0  0  0  0  0  0  0  0  0  0  0
   52.8722   24.2073   46.0118 H   0  0  0  0  0  0  0  0  0  0  0  0
   54.0714   24.9303   44.8868 H   0  0  0  0  0  0  0  0  0  0  0  0
   53.7963   23.1552   44.8868 H   0  0  0  0  0  0  0  0  0  0  0  0
   56.5530   22.0860   47.2240 H   0  0  0  0  0  0  0  0  0  0  0  0
   55.7372   28.8981   45.3747 H   0  0  0  0  0  0  0  0  0  0  0  0
   58.0174   28.7219   43.2560 H   0  0  0  0  0  0  0  0  0  0  0  0
   56.2820   28.3238   42.8931 H   0  0  0  0  0  0  0  0  0  0  0  0
   56.3421   30.4789   42.1057 H   0  0  0  0  0  0  0  0  0  0  0  0
   55.9166   30.7839   43.8448 H   0  0  0  0  0  0  0  0  0  0  0  0
   58.8092   30.6538   43.4815 H   0  0  0  0  0  0  0  0  0  0  0  0
   58.0700   31.8940   42.4011 H   0  0  0  0  0  0  0  0  0  0  0  0
   59.7719   29.1587   44.5069 H   0  0  0  0  0  0  0  0  0  0  0  0
   61.5986   30.5001   45.5379 H   0  0  0  0  0  0  0  0  0  0  0  0
   62.4603   32.1335   46.2946 H   0  0  0  0  0  0  0  0  0  0  0  0
   64.2834   33.4785   47.3352 H   0  0  0  0  0  0  0  0  0  0  0  0
   63.3404   31.7872   51.2012 H   0  0  0  0  0  0  0  0  0  0  0  0
   61.5191   30.4317   50.1713 H   0  0  0  0  0  0  0  0  0  0  0  0
   59.7002   30.1001   49.4125 H   0  0  0  0  0  0  0  0  0  0  0  0
   57.8764   28.7554   48.3767 H   0  0  0  0  0  0  0  0  0  0  0  0
  1  2  1  0
  2  3  2  0
  2  4  1  0
  4  5  2  0
  5  6  1  0
  5  7  1  0
  7  8  1  0
  8  9  2  0
  8 10  1  0
 10 11  1  0
 11 12  2  3
 12 13  1  0
 13 14  1  0
 14 15  1  0
 15 16  1  0
 16 17  2  0
 16 18  1  0
 11 19  1  0
 19 20  2  0
 20 21  1  0
 21 22  2  0
 22 23  1  0
 23 24  2  0
 24 25  1  0
 25 26  2  0
 26 27  1  0
 26 28  1  0
 28 29  2  0
 22 30  1  0
 30 31  2  0
 10 32  2  0
 32 33  1  0
 32  4  1  0
 31 19  1  0
 29 23  1  0
  1 34  1  0
  1 35  1  0
  1 36  1  0
  6 37  1  0
 12 38  1  0
 13 39  1  0
 13 40  1  0
 14 41  1  0
 14 42  1  0
 15 43  1  0
 15 44  1  0
 20 45  1  0
 21 46  1  0
 24 47  1  0
 25 48  1  0
 28 49  1  0
 29 50  1  0
 30 51  1  0
 31 52  1  0
M  CHG  3  18  -1  27  -1  33  -1
M  END
>  <UniqueID>  (34) 
34

>  <SMILES>  (34) 
CC(=O)c1c(O)oc(=O)c(C(=CCCCC(=O)[O-])c2ccc(-c3ccc([O-])cc3)cc2)c1[O-]

>  <Energy>  (34) 
72.67341965433428

>  <Genealogy>  (34) 
CC(=O)c1c(O)oc(=O)c(C(=CCCCC(=O)[O-])c2ccc(-c3ccc([O-])cc3)cc2)c1[O-] (protonated)
CC(=O)c1c(O)oc(=O)c(C(=CCCCC(=O)[O-])c2ccc(-c3ccc([O-])cc3)cc2)c1[O-] (3D coordinates assigned)
CC(=O)c1c(O)oc(=O)c(C(=CCCCC(=O)[O-])c2ccc(-c3ccc([O-])cc3)cc2)c1[O-] (optimized conformer: 72.67341965433428 kcal/mol)

>  <smiles>  (34) 
CC(=O)c1c(O)oc(=O)c(C(=CCCCC(=O)O)c2ccc(-c3ccc(O)cc3)cc2)c1O

>  <score_type>  (34) 
oracle

>  <origin>  (34) 
adg

>  <m_score__min__energy>  (34) 
-13.720000000000001

>  <m_primary>  (34) 
energy

$$$$
34:0
     RDKit          3D

 62 65  0  0  0  0  0  0  0  0999 V2000
   56.8314   31.8945   52.3447 H   0  0  0  0  0  0  0  0  0  0  0  0
   55.7500   31.6950   52.3740 C   0  0  0  0  0  0  0  0  0  0  0  0
   55.0368   32.4888   52.1071 H   0  0  0  0  0  0  0  0  0  0  0  0
   55.3000   30.4810   52.7360 C   0  0  0  0  0  0  0  0  0  0  0  0
   53.9540   30.0950   52.8150 C   0  0  0  0  0  0  0  0  0  0  0  0
   52.8710   30.8670   52.5700 C   0  0  0  0  0  0  0  0  0  0  0  0
   52.5094   31.5021   53.3921 H   0  0  0  0  0  0  0  0  0  0  0  0
   52.1310   30.9300   51.2900 C   0  0  0  0  0  0  0  0  0  0  0  0
   52.1980   30.0290   50.2940 N   0  0  0  0  0  0  0  0  0  0  0  0
   51.3970   30.5510   49.3390 C   0  0  0  0  0  0  0  0  0  0  0  0
   51.1980   29.9810   48.2350 O   0  0  0  0  0  0  0  0  0  0  0  0
   50.8340   31.7340   49.6600 N   0  0  0  0  0  0  0  0  0  0  0  0
   51.3110   31.9620   50.8940 C   0  0  0  0  0  0  0  0  0  0  0  0
   51.0070   33.0930   51.6420 O   0  0  0  0  0  0  0  0  0  0  0  0
   53.9570   28.7710   53.2320 C   0  0  0  0  0  0  0  0  0  0  0  0
   53.0752   28.1382   53.4109 H   0  0  0  0  0  0  0  0  0  0  0  0
   55.2770   28.4010   53.3790 C   0  0  0  0  0  0  0  0  0  0  0  0
   55.7190   27.0620   53.8900 C   0  0  0  0  0  0  0  0  0  0  0  0
   55.7163   27.0702   54.9900 H   0  0  0  0  0  0  0  0  0  0  0  0
   55.0296   26.2853   53.5274 H   0  0  0  0  0  0  0  0  0  0  0  0
   56.7353   26.8484   53.5274 H   0  0  0  0  0  0  0  0  0  0  0  0
   56.1000   29.4360   53.0830 N   0  0  0  0  0  0  0  0  0  0  0  0
   57.5680   29.4150   53.2080 C   0  0  0  0  0  0  0  0  0  0  0  0
   57.8547   29.8508   54.1764 H   0  0  0  0  0  0  0  0  0  0  0  0
   57.9149   28.3732   53.1422 H   0  0  0  0  0  0  0  0  0  0  0  0
   58.2060   30.2110   52.0980 C   0  0  0  0  0  0  0  0  0  0  0  0
   58.1670   29.7430   50.7760 C   0  0  0  0  0  0  0  0  0  0  0  0
   57.6883   28.7783   50.5517 H   0  0  0  0  0  0  0  0  0  0  0  0
   58.7320   30.4940   49.7430 C   0  0  0  0  0  0  0  0  0  0  0  0
   58.6926   30.1174   48.7102 H   0  0  0  0  0  0  0  0  0  0  0  0
   59.3500   31.7260   50.0120 C   0  0  0  0  0  0  0  0  0  0  0  0
   59.9110   32.5130   48.9430 N   0  0  0  0  0  0  0  0  0  0  0  0
   59.6640   33.9630   48.8970 C   0  0  0  0  0  0  0  0  0  0  0  0
   58.6095   34.1539   49.1452 H   0  0  0  0  0  0  0  0  0  0  0  0
   60.3318   34.4498   49.6230 H   0  0  0  0  0  0  0  0  0  0  0  0
   59.9620   34.5420   47.5040 C   0  0  0  0  0  0  0  0  0  0  0  0
   59.4661   35.5185   47.4015 H   0  0  0  0  0  0  0  0  0  0  0  0
   61.0492   34.6621   47.3875 H   0  0  0  0  0  0  0  0  0  0  0  0
   59.4370   33.5840   46.4110 C   0  0  0  0  0  0  0  0  0  0  0  0
   58.3691   33.4278   46.6235 H   0  0  0  0  0  0  0  0  0  0  0  0
   59.4580   34.2060   44.9870 C   0  0  0  0  0  0  0  0  0  0  0  0
   59.7009   35.2746   45.0830 H   0  0  0  0  0  0  0  0  0  0  0  0
   60.2078   33.6429   44.4120 H   0  0  0  0  0  0  0  0  0  0  0  0
   58.1810   34.0870   44.2420 N   0  0  0  0  0  0  0  0  0  0  0  0
   58.1330   32.7900   43.5460 C   0  0  0  0  0  0  0  0  0  0  0  0
   58.1029   31.9773   44.2867 H   0  0  0  0  0  0  0  0  0  0  0  0
   57.2326   32.7452   42.9157 H   0  0  0  0  0  0  0  0  0  0  0  0
   59.0276   32.6788   42.9157 H   0  0  0  0  0  0  0  0  0  0  0  0
   57.0090   34.2150   45.1270 C   0  0  0  0  0  0  0  0  0  0  0  0
   57.3364   34.1792   46.1765 H   0  0  0  0  0  0  0  0  0  0  0  0
   56.5055   35.1735   44.9324 H   0  0  0  0  0  0  0  0  0  0  0  0
   56.3105   33.3878   44.9324 H   0  0  0  0  0  0  0  0  0  0  0  0
   60.0840   32.1720   46.4980 C   0  0  0  0  0  0  0  0  0  0  0  0
   59.3103   31.4179   46.2913 H   0  0  0  0  0  0  0  0  0  0  0  0
   60.8983   32.1356   45.7593 H   0  0  0  0  0  0  0  0  0  0  0  0
   60.6980   31.8800   47.8770 C   0  0  0  0  0  0  0  0  0  0  0  0
   60.7171   30.7923   48.0402 H   0  0  0  0  0  0  0  0  0  0  0  0
   61.7188   32.2890   47.9021 H   0  0  0  0  0  0  0  0  0  0  0  0
   59.3860   32.1950   51.3360 C   0  0  0  0  0  0  0  0  0  0  0  0
   59.8607   33.1616   51.5602 H   0  0  0  0  0  0  0  0  0  0  0  0
   58.8230   31.4420   52.3700 C   0  0  0  0  0  0  0  0  0  0  0  0
   58.8637   31.8164   53.4035 H   0  0  0  0  0  0  0  0  0  0  0  0
  1  2  1  0
  2  3  1  0
  2  4  2  0
  4  5  1  0
  5  6  2  0
  6  7  1  0
  6  8  1  0
  8  9  1  0
  9 10  1  0
 10 11  2  0
 10 12  1  0
 12 13  1  0
 13 14  1  0
  5 15  1  0
 15 16  1  0
 15 17  2  0
 17 18  1  0
 18 19  1  0
 18 20  1  0
 18 21  1  0
 17 22  1  0
 22 23  1  0
 23 24  1  0
 23 25  1  0
 23 26  1  0
 26 27  2  0
 27 28  1  0
 27 29  1  0
 29 30  1  0
 29 31  2  0
 31 32  1  0
 32 33  1  0
 33 34  1  0
 33 35  1  0
 33 36  1  0
 36 37  1  0
 36 38  1  0
 36 39  1  0
 39 40  1  0
 39 41  1  0
 41 42  1  0
 41 43  1  0
 41 44  1  0
 44 45  1  0
 45 46  1  0
 45 47  1  0
 45 48  1  0
 44 49  1  0
 49 50  1  0
 49 51  1  0
 49 52  1  0
 39 53  1  0
 53 54  1  0
 53 55  1  0
 53 56  1  0
 56 57  1  0
 56 58  1  0
 31 59  1  0
 59 60  1  0
 59 61  2  0
 61 62  1  0
 22  4  1  0
 61 26  1  0
 13  8  2  0
 56 32  1  0
M  CHG  3   9  -1  12  -1  14  -1
M  END
>  <UniqueID>  (35) 
35

>  <SMILES>  (35) 
C=c1/c(=C/c2[n-]c(=O)[n-]c2[O-])cc(C)n1Cc1ccc(N2CCC(CN(C)C)CC2)cc1

>  <Energy>  (35) 
137.1947370922166

>  <Genealogy>  (35) 
C=c1c(=Cc2[n-]c(=O)[n-]c2[O-])cc(C)n1Cc1ccc(N2CCC(CN(C)C)CC2)cc1 (protonated)
C=c1/c(=C/c2[n-]c(=O)[n-]c2[O-])cc(C)n1Cc1ccc(N2CCC(CN(C)C)CC2)cc1 (cis-trans isomerization)
C=c1/c(=C/c2[n-]c(=O)[n-]c2[O-])cc(C)n1Cc1ccc(N2CCC(CN(C)C)CC2)cc1 (3D coordinates assigned)
C=c1/c(=C/c2[n-]c(=O)[n-]c2[O-])cc(C)n1Cc1ccc(N2CCC(CN(C)C)CC2)cc1 (nonaromatic ring conformer: 137.1947370922166 kcal/mol)

>  <smiles>  (35) 
C=c1c(=Cc2[nH]c(=O)[nH]c2O)cc(C)n1Cc1ccc(N2CCC(CN(C)C)CC2)cc1

>  <score_type>  (35) 
oracle

>  <origin>  (35) 
adg

>  <m_score__min__energy>  (35) 
-18.149999999999999

>  <m_primary>  (35) 
energy

$$$$
35:0
     RDKit          3D

 33 35  0  0  0  0  0  0  0  0999 V2000
   56.7642   25.4780   44.9802 H   0  0  0  0  0  0  0  0  0  0  0  0
   57.7340   25.9670   44.8060 C   0  0  0  0  0  0  0  0  0  0  0  0
   58.6004   25.3710   44.4833 H   0  0  0  0  0  0  0  0  0  0  0  0
   57.8600   27.2890   44.9870 C   0  0  0  0  0  0  0  0  0  0  0  0
   59.0980   27.9090   44.7640 C   0  0  0  0  0  0  0  0  0  0  0  0
   59.9585   27.3045   44.4413 H   0  0  0  0  0  0  0  0  0  0  0  0
   59.2510   29.2860   44.9470 C   0  0  0  0  0  0  0  0  0  0  0  0
   60.2312   29.7515   44.7667 H   0  0  0  0  0  0  0  0  0  0  0  0
   58.1650   30.0880   45.3600 C   0  0  0  0  0  0  0  0  0  0  0  0
   58.2890   31.4280   45.5440 C   0  0  0  0  0  0  0  0  0  0  0  0
   59.4640   32.0210   45.8750 N   0  0  0  0  0  0  0  0  0  0  0  0
   59.1850   33.3370   45.9640 C   0  0  0  0  0  0  0  0  0  0  0  0
   60.1100   34.2510   46.2930 C   0  0  0  0  0  0  0  0  0  0  0  0
   59.9372   35.2910   45.9792 H   0  0  0  0  0  0  0  0  0  0  0  0
   61.3450   33.9560   47.0480 C   0  0  0  0  0  0  0  0  0  0  0  0
   62.5740   33.8550   46.3740 C   0  0  0  0  0  0  0  0  0  0  0  0
   62.6191   34.0337   45.2895 H   0  0  0  0  0  0  0  0  0  0  0  0
   63.7390   33.5290   47.0730 C   0  0  0  0  0  0  0  0  0  0  0  0
   64.6996   33.4654   46.5408 H   0  0  0  0  0  0  0  0  0  0  0  0
   63.6850   33.2840   48.4460 C   0  0  0  0  0  0  0  0  0  0  0  0
   64.6040   33.0324   48.9957 H   0  0  0  0  0  0  0  0  0  0  0  0
   62.4650   33.3580   49.1230 C   0  0  0  0  0  0  0  0  0  0  0  0
   62.4259   33.1601   50.2043 H   0  0  0  0  0  0  0  0  0  0  0  0
   61.2920   33.6830   48.4310 C   0  0  0  0  0  0  0  0  0  0  0  0
   59.6480   33.7750   49.4130 Br  0  0  0  0  0  0  0  0  0  0  0  0
   57.8410   33.5120   45.7000 C   0  0  0  0  0  0  0  0  0  0  0  0
   57.1990   34.5960   45.7360 O   0  0  0  0  0  0  0  0  0  0  0  0
   57.2780   32.3260   45.4310 N   0  0  0  0  0  0  0  0  0  0  0  0
   56.2710   32.1740   45.2060 H   0  0  0  0  0  0  0  0  0  0  0  0
   56.9220   29.4540   45.5820 C   0  0  0  0  0  0  0  0  0  0  0  0
   56.0594   30.0554   45.9048 H   0  0  0  0  0  0  0  0  0  0  0  0
   56.7680   28.0760   45.3990 C   0  0  0  0  0  0  0  0  0  0  0  0
   55.5190   27.5030   45.6320 O   0  0  0  0  0  0  0  0  0  0  0  0
  1  2  1  0
  2  3  1  0
  2  4  2  0
  4  5  1  0
  5  6  1  0
  5  7  2  0
  7  8  1  0
  7  9  1  0
  9 10  2  3
 10 11  1  0
 11 12  1  0
 12 13  2  0
 13 14  1  0
 13 15  1  0
 15 16  2  0
 16 17  1  0
 16 18  1  0
 18 19  1  0
 18 20  2  0
 20 21  1  0
 20 22  1  0
 22 23  1  0
 22 24  2  0
 24 25  1  0
 12 26  1  0
 26 27  2  0
 26 28  1  0
 28 29  1  0
  9 30  1  0
 30 31  1  0
 30 32  2  0
 32 33  1  0
 32  4  1  0
 28 10  1  0
 24 15  1  0
M  CHG  2  11  -1  33  -1
M  END
>  <UniqueID>  (36) 
36

>  <SMILES>  (36) 
C=c1ccc(=c2[n-]/c(=C/c3ccccc3Br)c(=O)[nH]2)cc1[O-]

>  <Energy>  (36) 
83.4496758945443

>  <Genealogy>  (36) 
C=c1ccc(=c2[n-]c(=Cc3ccccc3Br)c(=O)[nH]2)cc1[O-] (protonated)
C=c1ccc(=c2[n-]/c(=C/c3ccccc3Br)c(=O)[nH]2)cc1[O-] (cis-trans isomerization)
C=c1ccc(=c2[n-]/c(=C/c3ccccc3Br)c(=O)[nH]2)cc1[O-] (3D coordinates assigned)
C=c1ccc(=c2[n-]/c(=C/c3ccccc3Br)c(=O)[nH]2)cc1[O-] (optimized conformer: 83.4496758945443 kcal/mol)

>  <smiles>  (36) 
C=c1ccc(=c2[nH]c(=O)c(=Cc3ccccc3Br)[nH]2)cc1O

>  <score_type>  (36) 
oracle

>  <origin>  (36) 
adg

>  <m_score__min__energy>  (36) 
-12.640000000000001

>  <m_primary>  (36) 
energy

$$$$
36:0
     RDKit          3D

 70 74  0  0  0  0  0  0  0  0999 V2000
   55.4179   28.8743   44.5234 H   0  0  0  0  0  0  0  0  0  0  0  0
   56.2140   29.6330   44.5010 C   0  0  0  0  0  0  0  0  0  0  0  0
   55.9860   30.9510   44.7670 N   0  0  0  0  0  0  0  0  0  0  0  0
   57.1170   31.6870   44.6910 C   0  0  0  0  0  0  0  0  0  0  0  0
   57.1150   32.9810   44.8630 N   0  0  0  0  0  0  0  0  0  0  0  0
   58.1540   33.8030   45.4230 C   0  0  0  0  0  0  0  0  0  0  0  0
   58.4430   34.8890   44.8500 O   0  0  0  0  0  0  0  0  0  0  0  0
   58.7220   33.5440   46.7570 C   0  0  0  0  0  0  0  0  0  0  0  0
   60.0260   33.9640   47.0440 C   0  0  0  0  0  0  0  0  0  0  0  0
   60.6261   34.4712   46.2742 H   0  0  0  0  0  0  0  0  0  0  0  0
   60.5630   33.7340   48.3200 C   0  0  0  0  0  0  0  0  0  0  0  0
   61.9400   34.2070   48.6590 C   0  0  0  0  0  0  0  0  0  0  0  0
   62.0553   34.2466   49.7522 H   0  0  0  0  0  0  0  0  0  0  0  0
   62.6807   33.5118   48.2371 H   0  0  0  0  0  0  0  0  0  0  0  0
   62.0972   35.2106   48.2371 H   0  0  0  0  0  0  0  0  0  0  0  0
   59.7970   33.1490   49.2750 N   0  0  0  0  0  0  0  0  0  0  0  0
   58.5240   32.7170   49.0250 C   0  0  0  0  0  0  0  0  0  0  0  0
   57.7830   32.2160   49.9740 N   0  0  0  0  0  0  0  0  0  0  0  0
   58.2050   31.2370   50.9450 C   0  0  0  0  0  0  0  0  0  0  0  0
   57.6680   30.0910   50.9930 O   0  0  0  0  0  0  0  0  0  0  0  0
   59.2100   31.5760   51.9010 N   0  0  0  0  0  0  0  0  0  0  0  0
   59.0500   32.5990   52.8920 C   0  0  0  0  0  0  0  0  0  0  0  0
   58.9550   33.9340   52.4750 C   0  0  0  0  0  0  0  0  0  0  0  0
   58.9300   34.1709   51.4011 H   0  0  0  0  0  0  0  0  0  0  0  0
   58.8920   34.9630   53.4130 C   0  0  0  0  0  0  0  0  0  0  0  0
   58.8035   36.0067   53.0772 H   0  0  0  0  0  0  0  0  0  0  0  0
   58.9410   34.6720   54.7800 C   0  0  0  0  0  0  0  0  0  0  0  0
   58.9032   35.4867   55.5182 H   0  0  0  0  0  0  0  0  0  0  0  0
   59.0380   33.3450   55.2070 C   0  0  0  0  0  0  0  0  0  0  0  0
   59.0719   33.1150   56.2821 H   0  0  0  0  0  0  0  0  0  0  0  0
   59.0920   32.3100   54.2700 C   0  0  0  0  0  0  0  0  0  0  0  0
   59.1675   31.2664   54.6094 H   0  0  0  0  0  0  0  0  0  0  0  0
   57.9870   32.8610   47.7350 C   0  0  0  0  0  0  0  0  0  0  0  0
   56.9989   32.4416   47.4949 H   0  0  0  0  0  0  0  0  0  0  0  0
   58.4380   30.7410   44.2540 S   0  0  0  0  0  0  0  0  0  0  0  0
   57.5330   29.3290   44.2000 C   0  0  0  0  0  0  0  0  0  0  0  0
   58.1590   27.7190   43.7350 S   0  0  0  0  0  0  0  0  0  0  0  0
   58.9950   27.4950   45.3070 C   0  0  0  0  0  0  0  0  0  0  0  0
   59.2210   26.2140   45.8210 C   0  0  0  0  0  0  0  0  0  0  0  0
   58.9024   25.3281   45.2521 H   0  0  0  0  0  0  0  0  0  0  0  0
   59.8530   26.0610   47.0600 C   0  0  0  0  0  0  0  0  0  0  0  0
   60.0285   25.0527   47.4632 H   0  0  0  0  0  0  0  0  0  0  0  0
   60.2630   27.1820   47.7890 C   0  0  0  0  0  0  0  0  0  0  0  0
   60.7617   27.0527   48.7609 H   0  0  0  0  0  0  0  0  0  0  0  0
   60.0390   28.4730   47.2820 C   0  0  0  0  0  0  0  0  0  0  0  0
   60.4490   29.6740   48.0490 C   0  0  0  0  0  0  0  0  0  0  0  0
   60.3340   30.8090   47.5120 O   0  0  0  0  0  0  0  0  0  0  0  0
   60.9720   29.5760   49.3830 N   0  0  0  0  0  0  0  0  0  0  0  0
   60.3450   28.6730   50.3560 C   0  0  0  0  0  0  0  0  0  0  0  0
   59.8726   27.8345   49.8234 H   0  0  0  0  0  0  0  0  0  0  0  0
   59.5851   29.2273   50.9264 H   0  0  0  0  0  0  0  0  0  0  0  0
   61.4020   28.1300   51.3210 C   0  0  0  0  0  0  0  0  0  0  0  0
   62.0745   27.4589   50.7666 H   0  0  0  0  0  0  0  0  0  0  0  0
   60.8767   27.5988   52.1284 H   0  0  0  0  0  0  0  0  0  0  0  0
   62.2100   29.2070   51.9410 N   0  0  0  0  0  0  0  0  0  0  0  0
   63.0070   28.7210   52.4190 H   0  0  0  0  0  0  0  0  0  0  0  0
   61.4760   29.9180   52.9770 C   0  0  0  0  0  0  0  0  0  0  0  0
   60.4170   29.4810   53.4160 O   0  0  0  0  0  0  0  0  0  0  0  0
   62.0310   31.1900   53.5490 C   0  0  0  0  0  0  0  0  0  0  0  0
   62.0085   31.1385   54.6476 H   0  0  0  0  0  0  0  0  0  0  0  0
   63.0688   31.3226   53.2093 H   0  0  0  0  0  0  0  0  0  0  0  0
   61.4224   32.0410   53.2093 H   0  0  0  0  0  0  0  0  0  0  0  0
   62.8210   30.1060   50.9350 C   0  0  0  0  0  0  0  0  0  0  0  0
   63.5969   29.5457   50.3928 H   0  0  0  0  0  0  0  0  0  0  0  0
   63.2332   30.9684   51.4794 H   0  0  0  0  0  0  0  0  0  0  0  0
   61.8150   30.6550   49.9140 C   0  0  0  0  0  0  0  0  0  0  0  0
   62.3630   31.1262   49.0848 H   0  0  0  0  0  0  0  0  0  0  0  0
   61.1708   31.3930   50.4144 H   0  0  0  0  0  0  0  0  0  0  0  0
   59.4210   28.6190   46.0280 C   0  0  0  0  0  0  0  0  0  0  0  0
   59.2703   29.6247   45.6086 H   0  0  0  0  0  0  0  0  0  0  0  0
  1  2  1  0
  2  3  1  0
  3  4  1  0
  4  5  2  0
  5  6  1  0
  6  7  2  0
  6  8  1  0
  8  9  1  0
  9 10  1  0
  9 11  2  0
 11 12  1  0
 12 13  1  0
 12 14  1  0
 12 15  1  0
 11 16  1  0
 16 17  1  0
 17 18  2  3
 18 19  1  0
 19 20  2  0
 19 21  1  0
 21 22  1  0
 22 23  2  0
 23 24  1  0
 23 25  1  0
 25 26  1  0
 25 27  2  0
 27 28  1  0
 27 29  1  0
 29 30  1  0
 29 31  2  0
 31 32  1  0
 17 33  1  0
 33 34  1  0
  4 35  1  0
 35 36  1  0
 36 37  1  0
 37 38  1  0
 38 39  2  0
 39 40  1  0
 39 41  1  0
 41 42  1  0
 41 43  2  0
 43 44  1  0
 43 45  1  0
 45 46  1  0
 46 47  2  0
 46 48  1  0
 48 49  1  0
 49 50  1  0
 49 51  1  0
 49 52  1  0
 52 53  1  0
 52 54  1  0
 52 55  1  0
 55 56  1  0
 55 57  1  0
 57 58  2  0
 57 59  1  0
 59 60  1  0
 59 61  1  0
 59 62  1  0
 55 63  1  0
 63 64  1  0
 63 65  1  0
 63 66  1  0
 66 67  1  0
 66 68  1  0
 45 69  2  0
 69 70  1  0
 36  2  2  0
 69 38  1  0
 33  8  2  0
 66 48  1  0
 31 22  1  0
M  CHG  4   3  -1  16  -1  21  -1  55   1
M  END
>  <UniqueID>  (37) 
37

>  <SMILES>  (37) 
CC(=O)[NH+]1CCN(C(=O)c2cccc(Sc3c[n-]/c(=N/C(=O)c4cc(C)[n-]c(=NC(=O)[N-]c5ccccc5)c4)s3)c2)CC1

>  <Energy>  (37) 
129.6167238950134

>  <Genealogy>  (37) 
CC(=O)[NH+]1CCN(C(=O)c2cccc(Sc3c[n-]c(=NC(=O)c4cc(C)[n-]c(=NC(=O)[N-]c5ccccc5)c4)s3)c2)CC1 (protonated)
CC(=O)[NH+]1CCN(C(=O)c2cccc(Sc3c[n-]/c(=N/C(=O)c4cc(C)[n-]c(=NC(=O)[N-]c5ccccc5)c4)s3)c2)CC1 (cis-trans isomerization)
CC(=O)[NH+]1CCN(C(=O)c2cccc(Sc3c[n-]/c(=N/C(=O)c4cc(C)[n-]c(=NC(=O)[N-]c5ccccc5)c4)s3)c2)CC1 (3D coordinates assigned)
CC(=O)[NH+]1CCN(C(=O)c2cccc(Sc3c[n-]/c(=N/C(=O)c4cc(C)[n-]c(=NC(=O)[N-]c5ccccc5)c4)s3)c2)CC1 (nonaromatic ring conformer: 129.6167238950134 kcal/mol)

>  <smiles>  (37) 
CC(=O)N1CCN(C(=O)c2cccc(Sc3c[nH]c(=NC(=O)c4cc(C)[nH]c(=NC(=O)Nc5ccccc5)c4)s3)c2)CC1

>  <score_type>  (37) 
oracle

>  <origin>  (37) 
adg

>  <m_score__min__energy>  (37) 
-13.199999999999999

>  <m_primary>  (37) 
energy

$$$$
37:0
     RDKit          3D

 45 47  0  0  0  0  0  0  0  0999 V2000
   59.6300   34.9150   43.6770 H   0  0  0  0  0  0  0  0  0  0  0  0
   59.5030   34.9470   44.6810 O   0  0  0  0  0  0  0  0  0  0  0  0
   58.8120   33.9380   45.3580 C   0  0  0  0  0  0  0  0  0  0  0  0
   58.2120   32.9600   44.6420 C   0  0  0  0  0  0  0  0  0  0  0  0
   58.2180   33.0710   43.2870 N   0  0  0  0  0  0  0  0  0  0  0  0
   57.6470   32.1520   42.4720 C   0  0  0  0  0  0  0  0  0  0  0  0
   57.6890   32.3410   41.1510 C   0  0  0  0  0  0  0  0  0  0  0  0
   57.2301   31.6043   40.4751 H   0  0  0  0  0  0  0  0  0  0  0  0
   58.1825   33.2334   40.7385 H   0  0  0  0  0  0  0  0  0  0  0  0
   57.0140   31.0370   43.0500 C   0  0  0  0  0  0  0  0  0  0  0  0
   56.4650   30.1650   42.3180 O   0  0  0  0  0  0  0  0  0  0  0  0
   56.9860   30.8920   44.4070 N   0  0  0  0  0  0  0  0  0  0  0  0
   56.3650   29.7480   44.8960 O   0  0  0  0  0  0  0  0  0  0  0  0
   57.0090   28.4990   45.1610 C   0  0  0  0  0  0  0  0  0  0  0  0
   56.2086   27.7462   45.2134 H   0  0  0  0  0  0  0  0  0  0  0  0
   57.8200   28.6030   46.4370 C   0  0  0  0  0  0  0  0  0  0  0  0
   58.2412   29.6134   46.5452 H   0  0  0  0  0  0  0  0  0  0  0  0
   57.2060   28.4181   47.3308 H   0  0  0  0  0  0  0  0  0  0  0  0
   58.9290   27.5770   46.2880 C   0  0  0  0  0  0  0  0  0  0  0  0
   59.8521   27.9441   46.7603 H   0  0  0  0  0  0  0  0  0  0  0  0
   58.6610   26.6283   46.7759 H   0  0  0  0  0  0  0  0  0  0  0  0
   59.1440   27.3850   44.7900 C   0  0  0  0  0  0  0  0  0  0  0  0
   60.1232   27.7890   44.4933 H   0  0  0  0  0  0  0  0  0  0  0  0
   59.1262   26.3181   44.5227 H   0  0  0  0  0  0  0  0  0  0  0  0
   58.0290   28.1430   44.0840 C   0  0  0  0  0  0  0  0  0  0  0  0
   58.4252   29.0567   43.6170 H   0  0  0  0  0  0  0  0  0  0  0  0
   57.5749   27.5371   43.2861 H   0  0  0  0  0  0  0  0  0  0  0  0
   57.6130   31.8080   45.2170 C   0  0  0  0  0  0  0  0  0  0  0  0
   57.7270   31.5850   46.4520 O   0  0  0  0  0  0  0  0  0  0  0  0
   58.7280   34.0000   46.7880 N   0  0  0  0  0  0  0  0  0  0  0  0
   58.1360   33.3030   47.2980 H   0  0  0  0  0  0  0  0  0  0  0  0
   59.5630   34.9140   47.5640 C   0  0  0  0  0  0  0  0  0  0  0  0
   59.7267   35.8360   46.9869 H   0  0  0  0  0  0  0  0  0  0  0  0
   59.0548   35.1501   48.5105 H   0  0  0  0  0  0  0  0  0  0  0  0
   60.8880   34.2740   47.8640 C   0  0  0  0  0  0  0  0  0  0  0  0
   61.3310   34.1520   49.1900 C   0  0  0  0  0  0  0  0  0  0  0  0
   60.7025   34.5212   50.0138 H   0  0  0  0  0  0  0  0  0  0  0  0
   62.5680   33.5630   49.4680 C   0  0  0  0  0  0  0  0  0  0  0  0
   62.9054   33.4593   50.5098 H   0  0  0  0  0  0  0  0  0  0  0  0
   63.3760   33.1060   48.4240 C   0  0  0  0  0  0  0  0  0  0  0  0
   64.5680   32.5250   48.6950 F   0  0  0  0  0  0  0  0  0  0  0  0
   62.9480   33.2400   47.1000 C   0  0  0  0  0  0  0  0  0  0  0  0
   63.5862   32.8843   46.2777 H   0  0  0  0  0  0  0  0  0  0  0  0
   61.7110   33.8250   46.8200 C   0  0  0  0  0  0  0  0  0  0  0  0
   61.3805   33.9342   45.7765 H   0  0  0  0  0  0  0  0  0  0  0  0
  1  2  1  0
  2  3  1  0
  3  4  2  0
  4  5  1  0
  5  6  1  0
  6  7  2  0
  7  8  1  0
  7  9  1  0
  6 10  1  0
 10 11  2  0
 10 12  1  0
 12 13  1  0
 13 14  1  0
 14 15  1  0
 14 16  1  0
 16 17  1  0
 16 18  1  0
 16 19  1  0
 19 20  1  0
 19 21  1  0
 19 22  1  0
 22 23  1  0
 22 24  1  0
 22 25  1  0
 25 26  1  0
 25 27  1  0
 12 28  1  0
 28 29  2  0
  3 30  1  0
 30 31  1  0
 30 32  1  0
 32 33  1  0
 32 34  1  0
 32 35  1  0
 35 36  2  0
 36 37  1  0
 36 38  1  0
 38 39  1  0
 38 40  2  0
 40 41  1  0
 40 42  1  0
 42 43  1  0
 42 44  2  0
 44 45  1  0
 28  4  1  0
 44 35  1  0
 25 14  1  0
M  CHG  1   5  -1
M  END
>  <UniqueID>  (38) 
38

>  <SMILES>  (38) 
C=c1[n-]/c(=C(\O)NCc2ccc(F)cc2)c(=O)n(OC2CCCC2)c1=O

>  <Energy>  (38) 
62.56749821367531

>  <Genealogy>  (38) 
C=c1[n-]c(=C(O)NCc2ccc(F)cc2)c(=O)n(OC2CCCC2)c1=O (protonated)
C=c1[n-]/c(=C(\O)NCc2ccc(F)cc2)c(=O)n(OC2CCCC2)c1=O (cis-trans isomerization)
C=c1[n-]/c(=C(\O)NCc2ccc(F)cc2)c(=O)n(OC2CCCC2)c1=O (3D coordinates assigned)
C=c1[n-]/c(=C(\O)NCc2ccc(F)cc2)c(=O)n(OC2CCCC2)c1=O (nonaromatic ring conformer: 62.56749821367531 kcal/mol)

>  <smiles>  (38) 
C=c1[nH]c(=C(O)NCc2ccc(F)cc2)c(=O)n(OC2CCCC2)c1=O

>  <score_type>  (38) 
oracle

>  <origin>  (38) 
adg

>  <m_score__min__energy>  (38) 
-10.119999999999999

>  <m_primary>  (38) 
energy

$$$$
38:0
     RDKit          3D

 52 54  0  0  0  0  0  0  0  0999 V2000
   55.1480   26.6950   45.9970 O   0  0  0  0  0  0  0  0  0  0  0  0
   55.8790   25.7000   46.2390 C   0  0  0  0  0  0  0  0  0  0  0  0
   55.2980   24.4680   46.5120 O   0  0  0  0  0  0  0  0  0  0  0  0
   57.3710   25.8300   46.1860 C   0  0  0  0  0  0  0  0  0  0  0  0
   57.8350   26.4920   44.8830 C   0  0  0  0  0  0  0  0  0  0  0  0
   58.0810   27.9690   45.0620 C   0  0  0  0  0  0  0  0  0  0  0  0
   59.3900   28.4580   45.1820 C   0  0  0  0  0  0  0  0  0  0  0  0
   59.6230   29.8290   45.3170 C   0  0  0  0  0  0  0  0  0  0  0  0
   58.5490   30.7350   45.3340 C   0  0  0  0  0  0  0  0  0  0  0  0
   58.7910   32.1910   45.4710 C   0  0  0  0  0  0  0  0  0  0  0  0
   58.1620   33.0800   44.5830 C   0  0  0  0  0  0  0  0  0  0  0  0
   58.3810   34.4550   44.6830 C   0  0  0  0  0  0  0  0  0  0  0  0
   59.2270   34.9560   45.6710 C   0  0  0  0  0  0  0  0  0  0  0  0
   59.8520   34.0880   46.5670 C   0  0  0  0  0  0  0  0  0  0  0  0
   59.6420   32.6970   46.4800 C   0  0  0  0  0  0  0  0  0  0  0  0
   60.2290   31.7930   47.3850 O   0  0  0  0  0  0  0  0  0  0  0  0
   59.5420   31.0190   48.3710 C   0  0  1  0  0  0  0  0  0  0  0  0
   60.5100   30.4160   49.2110 O   0  0  0  0  0  0  0  0  0  0  0  0
   59.9430   29.4270   50.0690 C   0  0  2  0  0  0  0  0  0  0  0  0
   60.0150   28.0420   49.4010 C   0  0  0  0  0  0  0  0  0  0  0  0
   60.4820   28.1470   48.0830 O   0  0  0  0  0  0  0  0  0  0  0  0
   58.5030   29.7710   50.5610 C   0  0  1  0  0  0  0  0  0  0  0  0
   58.2420   29.1910   51.8160 O   0  0  0  0  0  0  0  0  0  0  0  0
   58.3190   31.2980   50.6050 C   0  0  2  0  0  0  0  0  0  0  0  0
   57.0120   31.5990   51.0200 O   0  0  0  0  0  0  0  0  0  0  0  0
   58.5980   31.9170   49.2120 C   0  0  1  0  0  0  0  0  0  0  0  0
   59.1690   33.1910   49.3720 O   0  0  0  0  0  0  0  0  0  0  0  0
   57.2390   30.2440   45.1970 C   0  0  0  0  0  0  0  0  0  0  0  0
   57.0070   28.8730   45.0610 C   0  0  0  0  0  0  0  0  0  0  0  0
   57.7062   26.4421   47.0363 H   0  0  0  0  0  0  0  0  0  0  0  0
   57.8057   24.8206   46.2324 H   0  0  0  0  0  0  0  0  0  0  0  0
   58.7686   26.0130   44.5531 H   0  0  0  0  0  0  0  0  0  0  0  0
   57.0398   26.3662   44.1335 H   0  0  0  0  0  0  0  0  0  0  0  0
   60.2384   27.7579   45.1698 H   0  0  0  0  0  0  0  0  0  0  0  0
   60.6538   30.2015   45.4106 H   0  0  0  0  0  0  0  0  0  0  0  0
   57.4919   32.6894   43.8030 H   0  0  0  0  0  0  0  0  0  0  0  0
   57.8859   35.1432   43.9821 H   0  0  0  0  0  0  0  0  0  0  0  0
   59.4025   36.0394   45.7446 H   0  0  0  0  0  0  0  0  0  0  0  0
   60.5136   34.4924   47.3472 H   0  0  0  0  0  0  0  0  0  0  0  0
   58.9280   30.2507   47.8783 H   0  0  0  0  0  0  0  0  0  0  0  0
   60.5521   29.4093   50.9848 H   0  0  0  0  0  0  0  0  0  0  0  0
   60.6988   27.3999   49.9755 H   0  0  0  0  0  0  0  0  0  0  0  0
   59.0048   27.6071   49.3828 H   0  0  0  0  0  0  0  0  0  0  0  0
   60.7440   29.0950   47.9490 H   0  0  0  0  0  0  0  0  0  0  0  0
   57.7774   29.3486   49.8503 H   0  0  0  0  0  0  0  0  0  0  0  0
   57.5990   29.7770   52.2940 H   0  0  0  0  0  0  0  0  0  0  0  0
   59.0348   31.7272   51.3215 H   0  0  0  0  0  0  0  0  0  0  0  0
   56.6850   32.3260   50.4290 H   0  0  0  0  0  0  0  0  0  0  0  0
   57.6423   31.9993   48.6736 H   0  0  0  0  0  0  0  0  0  0  0  0
   60.1160   33.1200   49.0840 H   0  0  0  0  0  0  0  0  0  0  0  0
   56.3906   30.9441   45.1969 H   0  0  0  0  0  0  0  0  0  0  0  0
   55.9778   28.5001   44.9526 H   0  0  0  0  0  0  0  0  0  0  0  0
  1  2  2  0
  2  3  1  0
  2  4  1  0
  4  5  1  0
  5  6  1  0
  6  7  2  0
  7  8  1  0
  8  9  2  0
  9 10  1  0
 10 11  2  0
 11 12  1  0
 12 13  2  0
 13 14  1  0
 14 15  2  0
 15 16  1  0
 16 17  1  0
 17 18  1  0
 18 19  1  0
 19 20  1  0
 20 21  1  0
 19 22  1  0
 22 23  1  0
 22 24  1  0
 24 25  1  0
 24 26  1  0
 26 27  1  0
  9 28  1  0
 28 29  2  0
 29  6  1  0
 15 10  1  0
 26 17  1  0
  4 30  1  0
  4 31  1  0
  5 32  1  0
  5 33  1  0
  7 34  1  0
  8 35  1  0
 11 36  1  0
 12 37  1  0
 13 38  1  0
 14 39  1  0
 17 40  1  6
 19 41  1  1
 20 42  1  0
 20 43  1  0
 21 44  1  0
 22 45  1  6
 23 46  1  0
 24 47  1  1
 25 48  1  0
 26 49  1  6
 27 50  1  0
 28 51  1  0
 29 52  1  0
M  CHG  1   3  -1
M  END
>  <UniqueID>  (39) 
39

>  <SMILES>  (39) 
O=C([O-])CCc1ccc(-c2ccccc2O[C@H]2O[C@H](CO)C(O)C(O)C2O)cc1

>  <Energy>  (39) 
65.8357831931463

>  <Genealogy>  (39) 
O=C([O-])CCc1ccc(-c2ccccc2OC2OC(CO)C(O)C(O)C2O)cc1 (protonated)
O=C([O-])CCc1ccc(-c2ccccc2O[C@H]2O[C@H](CO)C(O)C(O)C2O)cc1 (chirality)
O=C([O-])CCc1ccc(-c2ccccc2O[C@H]2O[C@H](CO)C(O)C(O)C2O)cc1 (3D coordinates assigned)
O=C([O-])CCc1ccc(-c2ccccc2O[C@H]2O[C@H](CO)C(O)C(O)C2O)cc1 (nonaromatic ring conformer: 65.8357831931463 kcal/mol)

>  <smiles>  (39) 
O=C(O)CCc1ccc(-c2ccccc2OC2OC(CO)C(O)C(O)C2O)cc1

>  <score_type>  (39) 
oracle

>  <origin>  (39) 
adg

>  <m_score__min__energy>  (39) 
-11.17

>  <m_primary>  (39) 
energy

$$$$
39:0
     RDKit          3D

 49 52  0  0  0  0  0  0  0  0999 V2000
   56.1745   31.4164   44.2488 H   0  0  0  0  0  0  0  0  0  0  0  0
   57.0280   30.7680   44.4960 C   0  0  0  0  0  0  0  0  0  0  0  0
   58.5830   31.2850   44.8660 S   0  0  0  0  0  0  0  0  0  0  0  0
   59.2450   29.7590   45.1190 C   0  0  0  0  0  0  0  0  0  0  0  0
   60.6490   29.5240   45.4920 C   0  0  0  0  0  0  0  0  0  0  0  0
   61.4420   28.9850   44.6760 O   0  0  0  0  0  0  0  0  0  0  0  0
   61.1140   29.9260   46.7860 N   0  0  0  0  0  0  0  0  0  0  0  0
   60.2550   30.1050   47.9220 C   0  0  0  0  0  0  0  0  0  0  0  0
   59.7620   31.3840   48.2770 C   0  0  0  0  0  0  0  0  0  0  0  0
   60.2210   32.6060   47.5880 C   0  0  0  0  0  0  0  0  0  0  0  0
   59.3870   33.4890   47.2530 O   0  0  0  0  0  0  0  0  0  0  0  0
   61.6080   32.8140   47.3210 N   0  0  0  0  0  0  0  0  0  0  0  0
   62.4400   33.8620   46.7050 C   0  0  0  0  0  0  0  0  0  0  0  0
   62.2691   33.9582   45.6226 H   0  0  0  0  0  0  0  0  0  0  0  0
   62.2821   34.8944   47.0503 H   0  0  0  0  0  0  0  0  0  0  0  0
   63.7540   33.2310   47.0270 C   0  0  0  0  0  0  0  0  0  0  0  0
   64.3492   32.9055   46.1611 H   0  0  0  0  0  0  0  0  0  0  0  0
   64.5718   33.7479   47.5505 H   0  0  0  0  0  0  0  0  0  0  0  0
   62.8980   32.1810   47.6510 C   0  0  0  0  0  0  0  0  0  0  0  0
   63.0211   31.1960   47.1771 H   0  0  0  0  0  0  0  0  0  0  0  0
   63.0846   31.9464   48.7094 H   0  0  0  0  0  0  0  0  0  0  0  0
   58.8610   31.5050   49.3460 C   0  0  0  0  0  0  0  0  0  0  0  0
   58.4634   32.4946   49.6156 H   0  0  0  0  0  0  0  0  0  0  0  0
   58.4660   30.3800   50.0690 C   0  0  0  0  0  0  0  0  0  0  0  0
   57.5720   30.5130   51.1260 O   0  0  0  0  0  0  0  0  0  0  0  0
   58.9710   29.1220   49.7400 C   0  0  0  0  0  0  0  0  0  0  0  0
   58.6576   28.2394   50.3170 H   0  0  0  0  0  0  0  0  0  0  0  0
   59.8760   28.9750   48.6780 C   0  0  0  0  0  0  0  0  0  0  0  0
   60.3790   27.6070   48.3080 C   0  0  0  0  0  0  0  0  0  0  0  0
   60.5897   27.0339   49.2230 H   0  0  0  0  0  0  0  0  0  0  0  0
   59.6147   27.0832   47.7152 H   0  0  0  0  0  0  0  0  0  0  0  0
   61.3006   27.7031   47.7152 H   0  0  0  0  0  0  0  0  0  0  0  0
   58.2400   28.8100   44.8980 C   0  0  0  0  0  0  0  0  0  0  0  0
   58.4850   27.0650   44.9380 S   0  0  0  0  0  0  0  0  0  0  0  0
   58.1820   26.5010   43.5770 O   0  0  0  0  0  0  0  0  0  0  0  0
   59.9120   26.7490   45.2920 O   0  0  0  0  0  0  0  0  0  0  0  0
   57.4450   26.3810   46.1510 N   0  0  0  0  0  0  0  0  0  0  0  0
   56.2470   25.9460   45.9210 C   0  0  0  0  0  0  0  0  0  0  0  0
   55.1560   26.6760   45.9570 O   0  0  0  0  0  0  0  0  0  0  0  0
   54.1050   25.9440   45.7190 N   0  0  0  0  0  0  0  0  0  0  0  0
   54.5420   24.6850   45.5080 C   0  0  0  0  0  0  0  0  0  0  0  0
   53.6440   23.5150   45.2770 C   0  0  0  0  0  0  0  0  0  0  0  0
   53.3257   23.1003   46.2449 H   0  0  0  0  0  0  0  0  0  0  0  0
   52.7598   23.8381   44.7080 H   0  0  0  0  0  0  0  0  0  0  0  0
   54.1848   22.7444   44.7080 H   0  0  0  0  0  0  0  0  0  0  0  0
   55.9160   24.6450   45.6340 C   0  0  0  0  0  0  0  0  0  0  0  0
   56.9770   23.2470   45.5640 Cl  0  0  0  0  0  0  0  0  0  0  0  0
   57.0060   29.3820   44.5560 C   0  0  0  0  0  0  0  0  0  0  0  0
   56.1035   28.7865   44.3539 H   0  0  0  0  0  0  0  0  0  0  0  0
  1  2  1  0
  2  3  1  0
  3  4  1  0
  4  5  1  0
  5  6  2  0
  5  7  1  0
  7  8  1  0
  8  9  1  0
  9 10  1  0
 10 11  2  0
 10 12  1  0
 12 13  1  0
 13 14  1  0
 13 15  1  0
 13 16  1  0
 16 17  1  0
 16 18  1  0
 16 19  1  0
 19 20  1  0
 19 21  1  0
  9 22  2  0
 22 23  1  0
 22 24  1  0
 24 25  1  0
 24 26  2  0
 26 27  1  0
 26 28  1  0
 28 29  1  0
 29 30  1  0
 29 31  1  0
 29 32  1  0
  4 33  2  0
 33 34  1  0
 34 35  2  0
 34 36  2  0
 34 37  1  0
 37 38  2  0
 38 39  1  0
 39 40  1  0
 40 41  1  0
 41 42  1  0
 42 43  1  0
 42 44  1  0
 42 45  1  0
 41 46  2  0
 46 47  1  0
 33 48  1  0
 48 49  1  0
 48  2  2  0
 28  8  2  0
 46 38  1  0
 19 12  1  0
M  CHG  3   7  -1  25  -1  40  -1
M  END
>  <UniqueID>  (40) 
40

>  <SMILES>  (40) 
Cc1cc([O-])cc(C(=O)N2CCC2)c1[N-]C(=O)c1sccc1S(=O)(=O)/N=c1\o[n-]c(C)c1Cl

>  <Energy>  (40) 
166.31277248807856

>  <Genealogy>  (40) 
Cc1cc([O-])cc(C(=O)N2CCC2)c1[N-]C(=O)c1sccc1S(=O)(=O)N=c1o[n-]c(C)c1Cl (protonated)
Cc1cc([O-])cc(C(=O)N2CCC2)c1[N-]C(=O)c1sccc1S(=O)(=O)/N=c1\o[n-]c(C)c1Cl (cis-trans isomerization)
Cc1cc([O-])cc(C(=O)N2CCC2)c1[N-]C(=O)c1sccc1S(=O)(=O)/N=c1\o[n-]c(C)c1Cl (3D coordinates assigned)
Cc1cc([O-])cc(C(=O)N2CCC2)c1[N-]C(=O)c1sccc1S(=O)(=O)/N=c1\o[n-]c(C)c1Cl (nonaromatic ring conformer: 166.31277248807856 kcal/mol)

>  <smiles>  (40) 
Cc1cc(O)cc(C(=O)N2CCC2)c1NC(=O)c1sccc1S(=O)(=O)N=c1o[nH]c(C)c1Cl

>  <score_type>  (40) 
oracle

>  <origin>  (40) 
adg

>  <m_score__min__energy>  (40) 
-14.15

>  <m_primary>  (40) 
energy

$$$$
40:0
     RDKit          3D

 64 68  0  0  0  0  0  0  0  0999 V2000
   64.2996   33.1528   48.2619 H   0  0  0  0  0  0  0  0  0  0  0  0
   63.2030   33.0660   48.2630 C   0  0  0  0  0  0  0  0  0  0  0  0
   62.5900   31.8090   47.7950 C   0  0  0  0  0  0  0  0  0  0  0  0
   63.0580   31.2100   46.7880 O   0  0  0  0  0  0  0  0  0  0  0  0
   61.4830   31.2510   48.5210 N   0  0  0  0  0  0  0  0  0  0  0  0
   61.3080   31.6020   49.4900 H   0  0  0  0  0  0  0  0  0  0  0  0
   60.6730   30.1620   48.0460 C   0  0  0  0  0  0  0  0  0  0  0  0
   60.4540   29.0540   48.8770 C   0  0  0  0  0  0  0  0  0  0  0  0
   60.9140   29.0219   49.8757 H   0  0  0  0  0  0  0  0  0  0  0  0
   59.6560   27.9900   48.4470 C   0  0  0  0  0  0  0  0  0  0  0  0
   59.5076   27.1185   49.1016 H   0  0  0  0  0  0  0  0  0  0  0  0
   59.0430   28.0270   47.1850 C   0  0  0  0  0  0  0  0  0  0  0  0
   58.2300   26.9290   46.7330 N   0  0  0  0  0  0  0  0  0  0  0  0
   58.1550   25.6930   47.5250 C   0  0  0  0  0  0  0  0  0  0  0  0
   58.9354   24.9998   47.1779 H   0  0  0  0  0  0  0  0  0  0  0  0
   58.3015   25.9556   48.5831 H   0  0  0  0  0  0  0  0  0  0  0  0
   56.7770   25.0050   47.3870 C   0  0  0  0  0  0  0  0  0  0  0  0
   56.9362   23.9739   47.0384 H   0  0  0  0  0  0  0  0  0  0  0  0
   56.2968   25.0422   48.3760 H   0  0  0  0  0  0  0  0  0  0  0  0
   55.9080   25.6560   46.4780 O   0  0  0  0  0  0  0  0  0  0  0  0
   56.5710   25.8690   45.2510 C   0  0  0  0  0  0  0  0  0  0  0  0
   57.0893   24.9469   44.9491 H   0  0  0  0  0  0  0  0  0  0  0  0
   55.8367   26.1454   44.4800 H   0  0  0  0  0  0  0  0  0  0  0  0
   57.5900   26.9970   45.4130 C   0  0  0  0  0  0  0  0  0  0  0  0
   58.3597   26.9038   44.6327 H   0  0  0  0  0  0  0  0  0  0  0  0
   57.0694   27.9616   45.3203 H   0  0  0  0  0  0  0  0  0  0  0  0
   59.2450   29.1450   46.3600 C   0  0  0  0  0  0  0  0  0  0  0  0
   58.7694   29.1854   45.3689 H   0  0  0  0  0  0  0  0  0  0  0  0
   60.0460   30.2070   46.7890 C   0  0  0  0  0  0  0  0  0  0  0  0
   60.1865   31.0832   46.1390 H   0  0  0  0  0  0  0  0  0  0  0  0
   62.4750   34.1050   48.6890 C   0  0  0  0  0  0  0  0  0  0  0  0
   62.7452   35.1159   48.3498 H   0  0  0  0  0  0  0  0  0  0  0  0
   61.3220   33.9440   49.5980 C   0  0  0  0  0  0  0  0  0  0  0  0
   59.9860   33.7440   49.2570 C   0  0  0  0  0  0  0  0  0  0  0  0
   59.3810   33.7720   47.9090 C   0  0  0  0  0  0  0  0  0  0  0  0
   58.2780   32.9490   47.6240 C   0  0  0  0  0  0  0  0  0  0  0  0
   57.8822   32.2768   48.3996 H   0  0  0  0  0  0  0  0  0  0  0  0
   57.6810   32.9800   46.3600 C   0  0  0  0  0  0  0  0  0  0  0  0
   56.8253   32.3244   46.1411 H   0  0  0  0  0  0  0  0  0  0  0  0
   58.1690   33.8420   45.3740 C   0  0  0  0  0  0  0  0  0  0  0  0
   57.5740   33.8710   44.1200 O   0  0  0  0  0  0  0  0  0  0  0  0
   59.2520   34.6800   45.6550 C   0  0  0  0  0  0  0  0  0  0  0  0
   59.6323   35.3632   44.8813 H   0  0  0  0  0  0  0  0  0  0  0  0
   59.8530   34.6520   46.9170 C   0  0  0  0  0  0  0  0  0  0  0  0
   60.6986   35.3207   47.1357 H   0  0  0  0  0  0  0  0  0  0  0  0
   59.2670   33.5240   50.3760 N   0  0  0  0  0  0  0  0  0  0  0  0
   60.0990   33.5760   51.4040 N   0  0  0  0  0  0  0  0  0  0  0  0
   59.6810   33.4310   52.7950 C   0  0  0  0  0  0  0  0  0  0  0  0
   60.5479   33.5917   53.4528 H   0  0  0  0  0  0  0  0  0  0  0  0
   58.8993   34.1738   53.0124 H   0  0  0  0  0  0  0  0  0  0  0  0
   59.1140   32.0240   53.0390 C   0  0  2  0  0  0  0  0  0  0  0  0
   59.4221   31.7068   54.0462 H   0  0  0  0  0  0  0  0  0  0  0  0
   59.6200   31.1350   52.0640 O   0  0  0  0  0  0  0  0  0  0  0  0
   58.5370   30.6790   51.2860 C   0  0  0  0  0  0  0  0  0  0  0  0
   58.3369   29.6228   51.5193 H   0  0  0  0  0  0  0  0  0  0  0  0
   58.7846   30.7780   50.2188 H   0  0  0  0  0  0  0  0  0  0  0  0
   57.3090   31.5060   51.5980 C   0  0  0  0  0  0  0  0  0  0  0  0
   56.4000   30.8867   51.5828 H   0  0  0  0  0  0  0  0  0  0  0  0
   57.1274   32.3081   50.8675 H   0  0  0  0  0  0  0  0  0  0  0  0
   57.5920   32.0140   52.9770 C   0  0  0  0  0  0  0  0  0  0  0  0
   57.1706   31.3419   53.7391 H   0  0  0  0  0  0  0  0  0  0  0  0
   57.1459   33.0001   53.1733 H   0  0  0  0  0  0  0  0  0  0  0  0
   61.3490   33.8350   50.9780 C   0  0  0  0  0  0  0  0  0  0  0  0
   62.2387   33.9417   51.6161 H   0  0  0  0  0  0  0  0  0  0  0  0
  1  2  1  0
  2  3  1  0
  3  4  2  0
  3  5  1  0
  5  6  1  0
  5  7  1  0
  7  8  2  0
  8  9  1  0
  8 10  1  0
 10 11  1  0
 10 12  2  0
 12 13  1  0
 13 14  1  0
 14 15  1  0
 14 16  1  0
 14 17  1  0
 17 18  1  0
 17 19  1  0
 17 20  1  0
 20 21  1  0
 21 22  1  0
 21 23  1  0
 21 24  1  0
 24 25  1  0
 24 26  1  0
 12 27  1  0
 27 28  1  0
 27 29  2  0
 29 30  1  0
  2 31  2  0
 31 32  1  0
 31 33  1  0
 33 34  1  0
 34 35  1  0
 35 36  2  0
 36 37  1  0
 36 38  1  0
 38 39  1  0
 38 40  2  0
 40 41  1  0
 40 42  1  0
 42 43  1  0
 42 44  2  0
 44 45  1  0
 34 46  2  0
 46 47  1  0
 47 48  1  0
 48 49  1  0
 48 50  1  0
 48 51  1  0
 51 52  1  1
 51 53  1  0
 53 54  1  0
 54 55  1  0
 54 56  1  0
 54 57  1  0
 57 58  1  0
 57 59  1  0
 57 60  1  0
 60 61  1  0
 60 62  1  0
 47 63  1  0
 63 64  1  0
 29  7  1  0
 63 33  2  0
 24 13  1  0
 44 35  1  0
 60 51  1  0
M  CHG  1  41  -1
M  END
>  <UniqueID>  (41) 
41

>  <SMILES>  (41) 
O=C(/C=C/c1cn(C[C@H]2CCCO2)nc1-c1ccc([O-])cc1)Nc1ccc(N2CCOCC2)cc1

>  <Energy>  (41) 
113.22890783209597

>  <Genealogy>  (41) 
O=C(C=Cc1cn(CC2CCCO2)nc1-c1ccc([O-])cc1)Nc1ccc(N2CCOCC2)cc1 (protonated)
O=C(C=Cc1cn(C[C@H]2CCCO2)nc1-c1ccc([O-])cc1)Nc1ccc(N2CCOCC2)cc1 (chirality)
O=C(/C=C/c1cn(C[C@H]2CCCO2)nc1-c1ccc([O-])cc1)Nc1ccc(N2CCOCC2)cc1 (cis-trans isomerization)
O=C(/C=C/c1cn(C[C@H]2CCCO2)nc1-c1ccc([O-])cc1)Nc1ccc(N2CCOCC2)cc1 (3D coordinates assigned)
O=C(/C=C/c1cn(C[C@H]2CCCO2)nc1-c1ccc([O-])cc1)Nc1ccc(N2CCOCC2)cc1 (nonaromatic ring conformer: 113.22890783209597 kcal/mol)

>  <smiles>  (41) 
O=C(C=Cc1cn(CC2CCCO2)nc1-c1ccc(O)cc1)Nc1ccc(N2CCOCC2)cc1

>  <score_type>  (41) 
oracle

>  <origin>  (41) 
adg

>  <m_score__min__energy>  (41) 
-11.84

>  <m_primary>  (41) 
energy

$$$$
41:0
     RDKit          3D

 56 59  0  0  0  0  0  0  0  0999 V2000
   55.3520   27.9320   53.5440 C   0  0  0  0  0  0  0  0  0  0  0  0
   55.5510   29.1950   53.1290 C   0  0  0  0  0  0  0  0  0  0  0  0
   54.6690   29.9780   52.3650 C   0  0  0  0  0  0  0  0  0  0  0  0
   53.3840   29.7780   52.0080 C   0  0  0  0  0  0  0  0  0  0  0  0
   52.4080   30.8300   51.6860 C   0  0  0  0  0  0  0  0  0  0  0  0
   52.0340   31.7830   52.5560 N   0  0  0  0  0  0  0  0  0  0  0  0
   51.0720   32.4570   51.8890 C   0  0  0  0  0  0  0  0  0  0  0  0
   50.4760   33.4500   52.3800 O   0  0  0  0  0  0  0  0  0  0  0  0
   50.7920   31.9750   50.6600 N   0  0  0  0  0  0  0  0  0  0  0  0
   51.6330   30.9340   50.5480 C   0  0  0  0  0  0  0  0  0  0  0  0
   51.6670   30.0950   49.4370 O   0  0  0  0  0  0  0  0  0  0  0  0
   55.3750   31.1100   52.0000 C   0  0  0  0  0  0  0  0  0  0  0  0
   56.6100   31.0210   52.6000 C   0  0  0  0  0  0  0  0  0  0  0  0
   57.6580   32.0510   52.4740 C   0  0  0  0  0  0  0  0  0  0  0  0
   57.8260   32.8580   53.4290 O   0  0  0  0  0  0  0  0  0  0  0  0
   58.4980   32.1370   51.3070 N   0  0  0  0  0  0  0  0  0  0  0  0
   58.8810   30.9250   50.5620 C   0  0  0  0  0  0  0  0  0  0  0  0
   58.8780   31.1930   49.0490 C   0  0  0  0  0  0  0  0  0  0  0  0
   59.4220   32.5220   48.7270 N   0  0  0  0  0  0  0  0  0  0  0  0
   59.2410   33.0670   47.4050 C   0  0  0  0  0  0  0  0  0  0  0  0
   59.6190   34.3900   47.1240 C   0  0  0  0  0  0  0  0  0  0  0  0
   59.4180   34.9270   45.8510 C   0  0  0  0  0  0  0  0  0  0  0  0
   58.8400   34.1520   44.8440 C   0  0  0  0  0  0  0  0  0  0  0  0
   58.4710   32.8200   45.0970 C   0  0  0  0  0  0  0  0  0  0  0  0
   57.7980   32.0000   44.0250 C   0  0  0  0  0  0  0  0  0  0  0  0
   57.7010   32.7230   42.8490 F   0  0  0  0  0  0  0  0  0  0  0  0
   58.5180   30.8470   43.7640 F   0  0  0  0  0  0  0  0  0  0  0  0
   56.5270   31.6520   44.4470 F   0  0  0  0  0  0  0  0  0  0  0  0
   58.6510   32.2940   46.3900 C   0  0  0  0  0  0  0  0  0  0  0  0
   60.0710   33.3070   49.7830 C   0  0  0  0  0  0  0  0  0  0  0  0
   59.1270   33.4270   50.9810 C   0  0  0  0  0  0  0  0  0  0  0  0
   56.7260   29.8630   53.2940 N   0  0  0  0  0  0  0  0  0  0  0  0
   57.9670   29.3450   53.8920 C   0  0  0  0  0  0  0  0  0  0  0  0
   58.2340   30.0160   55.2340 C   0  0  0  0  0  0  0  0  0  0  0  0
   56.1222   27.4213   54.1406 H   0  0  0  0  0  0  0  0  0  0  0  0
   54.4189   27.4092   53.2870 H   0  0  0  0  0  0  0  0  0  0  0  0
   53.0351   28.7363   51.9528 H   0  0  0  0  0  0  0  0  0  0  0  0
   51.0340   29.3090   49.3450 H   0  0  0  0  0  0  0  0  0  0  0  0
   55.0176   31.9253   51.3538 H   0  0  0  0  0  0  0  0  0  0  0  0
   59.8899   30.6147   50.8716 H   0  0  0  0  0  0  0  0  0  0  0  0
   58.1527   30.1304   50.7815 H   0  0  0  0  0  0  0  0  0  0  0  0
   59.4909   30.4274   48.5508 H   0  0  0  0  0  0  0  0  0  0  0  0
   57.8362   31.1564   48.6979 H   0  0  0  0  0  0  0  0  0  0  0  0
   60.0762   35.0069   47.9116 H   0  0  0  0  0  0  0  0  0  0  0  0
   59.7162   35.9647   45.6407 H   0  0  0  0  0  0  0  0  0  0  0  0
   58.6726   34.5863   43.8473 H   0  0  0  0  0  0  0  0  0  0  0  0
   58.3262   31.2661   46.6088 H   0  0  0  0  0  0  0  0  0  0  0  0
   60.9986   32.8052   50.0957 H   0  0  0  0  0  0  0  0  0  0  0  0
   60.3086   34.3107   49.4009 H   0  0  0  0  0  0  0  0  0  0  0  0
   59.6997   33.7753   51.8532 H   0  0  0  0  0  0  0  0  0  0  0  0
   58.3318   34.1416   50.7220 H   0  0  0  0  0  0  0  0  0  0  0  0
   57.8705   28.2597   54.0429 H   0  0  0  0  0  0  0  0  0  0  0  0
   58.8056   29.5607   53.2136 H   0  0  0  0  0  0  0  0  0  0  0  0
   57.9606   29.3289   56.0483 H   0  0  0  0  0  0  0  0  0  0  0  0
   59.3016   30.2697   55.3112 H   0  0  0  0  0  0  0  0  0  0  0  0
   57.6326   30.9338   55.3112 H   0  0  0  0  0  0  0  0  0  0  0  0
  1  2  2  0
  2  3  1  0
  3  4  2  3
  4  5  1  0
  5  6  1  0
  6  7  1  0
  7  8  2  0
  7  9  1  0
  9 10  1  0
 10 11  1  0
  3 12  1  0
 12 13  2  0
 13 14  1  0
 14 15  2  0
 14 16  1  0
 16 17  1  0
 17 18  1  0
 18 19  1  0
 19 20  1  0
 20 21  2  0
 21 22  1  0
 22 23  2  0
 23 24  1  0
 24 25  1  0
 25 26  1  0
 25 27  1  0
 25 28  1  0
 24 29  2  0
 19 30  1  0
 30 31  1  0
 13 32  1  0
 32 33  1  0
 33 34  1  0
 32  2  1  0
 10  5  2  0
 31 16  1  0
 29 20  1  0
  1 35  1  0
  1 36  1  0
  4 37  1  0
 11 38  1  0
 12 39  1  0
 17 40  1  0
 17 41  1  0
 18 42  1  0
 18 43  1  0
 21 44  1  0
 22 45  1  0
 23 46  1  0
 29 47  1  0
 30 48  1  0
 30 49  1  0
 31 50  1  0
 31 51  1  0
 33 52  1  0
 33 53  1  0
 34 54  1  0
 34 55  1  0
 34 56  1  0
M  CHG  2   6  -1   9  -1
M  END
>  <UniqueID>  (42) 
42

>  <SMILES>  (42) 
C=c1c(=Cc2[n-]c(=O)[n-]c2O)cc(C(=O)N2CCN(c3cccc(C(F)(F)F)c3)CC2)n1CC

>  <Energy>  (42) 
136.5994401419719

>  <Genealogy>  (42) 
C=c1c(=Cc2[n-]c(=O)[n-]c2O)cc(C(=O)N2CCN(c3cccc(C(F)(F)F)c3)CC2)n1CC (protonated)
C=c1c(=Cc2[n-]c(=O)[n-]c2O)cc(C(=O)N2CCN(c3cccc(C(F)(F)F)c3)CC2)n1CC (3D coordinates assigned)
C=c1c(=Cc2[n-]c(=O)[n-]c2O)cc(C(=O)N2CCN(c3cccc(C(F)(F)F)c3)CC2)n1CC (nonaromatic ring conformer: 136.5994401419719 kcal/mol)

>  <smiles>  (42) 
C=c1c(=Cc2[nH]c(=O)[nH]c2O)cc(C(=O)N2CCN(c3cccc(C(F)(F)F)c3)CC2)n1CC

>  <score_type>  (42) 
oracle

>  <origin>  (42) 
adg

>  <m_score__min__energy>  (42) 
-14.109999999999999

>  <m_primary>  (42) 
energy

$$$$
42:0
     RDKit          3D

 21 22  0  0  0  0  0  0  0  0999 V2000
   52.2540   32.9940   49.3720 H   0  0  0  0  0  0  0  0  0  0  0  0
   51.3950   32.7070   49.8250 O   0  0  0  0  0  0  0  0  0  0  0  0
   51.3630   32.3500   51.1700 C   0  0  0  0  0  0  0  0  0  0  0  0
   50.3850   32.7310   52.0090 N   0  0  0  0  0  0  0  0  0  0  0  0
   50.7160   32.1070   53.1590 C   0  0  0  0  0  0  0  0  0  0  0  0
   50.0280   32.2100   54.2070 O   0  0  0  0  0  0  0  0  0  0  0  0
   51.8390   31.3590   53.0960 N   0  0  0  0  0  0  0  0  0  0  0  0
   52.2600   31.5340   51.8320 C   0  0  0  0  0  0  0  0  0  0  0  0
   53.4540   30.8700   51.2810 C   0  0  0  0  0  0  0  0  0  0  0  0
   53.4173   30.5216   50.2383 H   0  0  0  0  0  0  0  0  0  0  0  0
   54.5830   30.6650   51.9750 C   0  0  0  0  0  0  0  0  0  0  0  0
   54.7350   29.8670   53.1020 C   0  0  0  0  0  0  0  0  0  0  0  0
   53.9474   29.2959   53.6153 H   0  0  0  0  0  0  0  0  0  0  0  0
   56.0700   29.9320   53.4510 C   0  0  0  0  0  0  0  0  0  0  0  0
   56.5567   29.4279   54.2990 H   0  0  0  0  0  0  0  0  0  0  0  0
   56.6710   30.7580   52.5200 C   0  0  0  0  0  0  0  0  0  0  0  0
   57.9630   31.0810   52.4970 C   0  0  0  0  0  0  0  0  0  0  0  0
   58.3492   31.7485   51.7126 H   0  0  0  0  0  0  0  0  0  0  0  0
   58.6438   30.6803   53.2624 H   0  0  0  0  0  0  0  0  0  0  0  0
   55.7700   31.1990   51.6220 N   0  0  0  0  0  0  0  0  0  0  0  0
   55.9550   31.8320   50.8090 H   0  0  0  0  0  0  0  0  0  0  0  0
  1  2  1  0
  2  3  1  0
  3  4  1  0
  4  5  1  0
  5  6  2  0
  5  7  1  0
  7  8  1  0
  8  9  1  0
  9 10  1  0
  9 11  2  0
 11 12  1  0
 12 13  1  0
 12 14  2  0
 14 15  1  0
 14 16  1  0
 16 17  2  0
 17 18  1  0
 17 19  1  0
 16 20  1  0
 20 21  1  0
  8  3  2  0
 20 11  1  0
M  CHG  2   4  -1   7  -1
M  END
>  <UniqueID>  (43) 
43

>  <SMILES>  (43) 
C=c1cc/c(=C\c2[n-]c(=O)[n-]c2O)[nH]1

>  <Energy>  (43) 
81.73077401169529

>  <Genealogy>  (43) 
C=c1ccc(=Cc2[n-]c(=O)[n-]c2O)[nH]1 (protonated)
C=c1cc/c(=C\c2[n-]c(=O)[n-]c2O)[nH]1 (cis-trans isomerization)
C=c1cc/c(=C\c2[n-]c(=O)[n-]c2O)[nH]1 (3D coordinates assigned)
C=c1cc/c(=C\c2[n-]c(=O)[n-]c2O)[nH]1 (optimized conformer: 81.73077401169529 kcal/mol)

>  <smiles>  (43) 
C=c1ccc(=Cc2[nH]c(=O)[nH]c2O)[nH]1

>  <score_type>  (43) 
oracle

>  <origin>  (43) 
adg

>  <m_score__min__energy>  (43) 
-10.970000000000001

>  <m_primary>  (43) 
energy

$$$$
43:0
     RDKit          3D

 58 61  0  0  0  0  0  0  0  0999 V2000
   53.9620   26.7300   46.3690 H   0  0  0  0  0  0  0  0  0  0  0  0
   54.6750   26.2180   45.8030 N   0  0  0  0  0  0  0  0  0  0  0  0
   55.9960   26.0060   46.3010 C   0  0  0  0  0  0  0  0  0  0  0  0
   56.1860   25.1110   47.1690 O   0  0  0  0  0  0  0  0  0  0  0  0
   57.1280   26.8280   45.8100 C   0  0  0  0  0  0  0  0  0  0  0  0
   58.4510   26.3580   45.9220 C   0  0  0  0  0  0  0  0  0  0  0  0
   58.6438   25.3656   46.3556 H   0  0  0  0  0  0  0  0  0  0  0  0
   59.5190   27.1440   45.4860 C   0  0  0  0  0  0  0  0  0  0  0  0
   60.5501   26.7762   45.5940 H   0  0  0  0  0  0  0  0  0  0  0  0
   59.2830   28.3960   44.9130 C   0  0  0  0  0  0  0  0  0  0  0  0
   60.1302   29.0114   44.5761 H   0  0  0  0  0  0  0  0  0  0  0  0
   57.9760   28.8720   44.7650 C   0  0  0  0  0  0  0  0  0  0  0  0
   57.7810   30.1720   44.1880 N   0  0  0  0  0  0  0  0  0  0  0  0
   56.7050   31.0730   44.4790 C   0  0  0  0  0  0  0  0  0  0  0  0
   55.5330   30.8210   44.0900 O   0  0  0  0  0  0  0  0  0  0  0  0
   56.9890   32.2870   45.1820 N   0  0  0  0  0  0  0  0  0  0  0  0
   58.3020   32.9250   45.1820 C   0  0  0  0  0  0  0  0  0  0  0  0
   58.9972   32.3254   44.5761 H   0  0  0  0  0  0  0  0  0  0  0  0
   58.2096   33.9358   44.7580 H   0  0  0  0  0  0  0  0  0  0  0  0
   58.8310   33.0290   46.5900 C   0  0  0  0  0  0  0  0  0  0  0  0
   59.2910   34.2600   47.0790 C   0  0  0  0  0  0  0  0  0  0  0  0
   59.3259   35.1333   46.4110 H   0  0  0  0  0  0  0  0  0  0  0  0
   59.7050   34.3870   48.4060 C   0  0  0  0  0  0  0  0  0  0  0  0
   60.0694   35.3582   48.7720 H   0  0  0  0  0  0  0  0  0  0  0  0
   59.6610   33.2870   49.2790 C   0  0  0  0  0  0  0  0  0  0  0  0
   60.0500   33.4570   50.7010 C   0  0  0  0  0  0  0  0  0  0  0  0
   61.3240   33.2160   51.1230 N   0  0  0  0  0  0  0  0  0  0  0  0
   61.4860   33.4800   52.4360 C   0  0  0  0  0  0  0  0  0  0  0  0
   62.6190   33.2900   53.0430 N   0  0  0  0  0  0  0  0  0  0  0  0
   63.8520   33.9730   52.7720 C   0  0  0  0  0  0  0  0  0  0  0  0
   64.7030   34.1660   53.6830 O   0  0  0  0  0  0  0  0  0  0  0  0
   64.1270   34.4700   51.3850 C   0  0  0  0  0  0  0  0  0  0  0  0
   63.1738   34.7401   50.9071 H   0  0  0  0  0  0  0  0  0  0  0  0
   64.7914   35.3437   51.4581 H   0  0  0  0  0  0  0  0  0  0  0  0
   64.8280   33.4040   50.5310 C   0  0  0  0  0  0  0  0  0  0  0  0
   65.7756   33.8167   50.1545 H   0  0  0  0  0  0  0  0  0  0  0  0
   65.0032   32.5215   51.1638 H   0  0  0  0  0  0  0  0  0  0  0  0
   63.9800   32.9760   49.3550 C   0  0  0  0  0  0  0  0  0  0  0  0
   63.3470   31.7210   49.3570 C   0  0  0  0  0  0  0  0  0  0  0  0
   63.4923   31.0347   50.2043 H   0  0  0  0  0  0  0  0  0  0  0  0
   62.5340   31.3430   48.2860 C   0  0  0  0  0  0  0  0  0  0  0  0
   62.0388   30.3608   48.2930 H   0  0  0  0  0  0  0  0  0  0  0  0
   62.3480   32.2100   47.2050 C   0  0  0  0  0  0  0  0  0  0  0  0
   61.7121   31.9075   46.3599 H   0  0  0  0  0  0  0  0  0  0  0  0
   62.9710   33.4620   47.1990 C   0  0  0  0  0  0  0  0  0  0  0  0
   62.8268   34.1429   46.3472 H   0  0  0  0  0  0  0  0  0  0  0  0
   63.7770   33.8500   48.2740 C   0  0  0  0  0  0  0  0  0  0  0  0
   64.2530   34.8417   48.2731 H   0  0  0  0  0  0  0  0  0  0  0  0
   60.0530   34.0160   53.1400 S   0  0  0  0  0  0  0  0  0  0  0  0
   59.1870   33.9140   51.7020 C   0  0  0  0  0  0  0  0  0  0  0  0
   58.1238   34.1640   51.5712 H   0  0  0  0  0  0  0  0  0  0  0  0
   59.2250   32.0450   48.7810 C   0  0  0  0  0  0  0  0  0  0  0  0
   59.2101   31.1679   49.4447 H   0  0  0  0  0  0  0  0  0  0  0  0
   58.8090   31.9130   47.4470 C   0  0  0  0  0  0  0  0  0  0  0  0
   58.3640   30.6780   46.9740 O   0  0  0  0  0  0  0  0  0  0  0  0
   57.9750   30.5740   46.0450 H   0  0  0  0  0  0  0  0  0  0  0  0
   56.9010   28.0950   45.2390 C   0  0  0  0  0  0  0  0  0  0  0  0
   55.8741   28.4817   45.1624 H   0  0  0  0  0  0  0  0  0  0  0  0
  1  2  1  0
  2  3  1  0
  3  4  2  0
  3  5  1  0
  5  6  2  0
  6  7  1  0
  6  8  1  0
  8  9  1  0
  8 10  2  0
 10 11  1  0
 10 12  1  0
 12 13  1  0
 13 14  1  0
 14 15  2  0
 14 16  1  0
 16 17  1  0
 17 18  1  0
 17 19  1  0
 17 20  1  0
 20 21  2  0
 21 22  1  0
 21 23  1  0
 23 24  1  0
 23 25  2  0
 25 26  1  0
 26 27  1  0
 27 28  1  0
 28 29  2  0
 29 30  1  0
 30 31  2  0
 30 32  1  0
 32 33  1  0
 32 34  1  0
 32 35  1  0
 35 36  1  0
 35 37  1  0
 35 38  1  0
 38 39  2  0
 39 40  1  0
 39 41  1  0
 41 42  1  0
 41 43  2  0
 43 44  1  0
 43 45  1  0
 45 46  1  0
 45 47  2  0
 47 48  1  0
 28 49  1  0
 49 50  1  0
 50 51  1  0
 25 52  1  0
 52 53  1  0
 52 54  2  0
 54 55  1  0
 55 56  1  0
 12 57  2  0
 57 58  1  0
 57  5  1  0
 54 20  1  0
 50 26  2  0
 47 38  1  0
M  CHG  4   2  -1  13  -1  16  -1  27  -1
M  END
>  <UniqueID>  (44) 
44

>  <SMILES>  (44) 
[NH-]C(=O)c1cccc([N-]C(=O)[N-]Cc2ccc(-c3cs/c(=N\C(=O)CCc4ccccc4)[n-]3)cc2O)c1

>  <Energy>  (44) 
96.03816743635932

>  <Genealogy>  (44) 
[NH-]C(=O)c1cccc([N-]C(=O)[N-]Cc2ccc(-c3csc(=NC(=O)CCc4ccccc4)[n-]3)cc2O)c1 (protonated)
[NH-]C(=O)c1cccc([N-]C(=O)[N-]Cc2ccc(-c3cs/c(=N\C(=O)CCc4ccccc4)[n-]3)cc2O)c1 (cis-trans isomerization)
[NH-]C(=O)c1cccc([N-]C(=O)[N-]Cc2ccc(-c3cs/c(=N\C(=O)CCc4ccccc4)[n-]3)cc2O)c1 (3D coordinates assigned)
[NH-]C(=O)c1cccc([N-]C(=O)[N-]Cc2ccc(-c3cs/c(=N\C(=O)CCc4ccccc4)[n-]3)cc2O)c1 (optimized conformer: 96.03816743635932 kcal/mol)

>  <smiles>  (44) 
NC(=O)c1cccc(NC(=O)NCc2ccc(-c3csc(=NC(=O)CCc4ccccc4)[nH]3)cc2O)c1

>  <score_type>  (44) 
oracle

>  <origin>  (44) 
adg

>  <m_score__min__energy>  (44) 
-17.350000000000001

>  <m_primary>  (44) 
energy

$$$$
44:0
     RDKit          3D

 41 43  0  0  0  0  0  0  0  0999 V2000
   57.6980   29.3650   52.6730 C   0  0  0  0  0  0  0  0  0  0  0  0
   57.3650   30.1460   51.5300 O   0  0  0  0  0  0  0  0  0  0  0  0
   58.2520   30.4310   50.4800 C   0  0  0  0  0  0  0  0  0  0  0  0
   58.2840   31.6820   49.8410 C   0  0  0  0  0  0  0  0  0  0  0  0
   59.1850   31.9200   48.8020 C   0  0  0  0  0  0  0  0  0  0  0  0
   60.0690   30.9090   48.3780 C   0  0  0  0  0  0  0  0  0  0  0  0
   60.9850   31.1110   47.3340 O   0  0  0  0  0  0  0  0  0  0  0  0
   62.3290   31.5480   47.5130 C   0  0  0  0  0  0  0  0  0  0  0  0
   60.0380   29.6550   49.0110 C   0  0  0  0  0  0  0  0  0  0  0  0
   60.9400   28.6340   48.5590 N   0  0  0  0  0  0  0  0  0  0  0  0
   60.5080   26.9880   48.2280 S   0  0  0  0  0  0  0  0  0  0  0  0
   60.5110   26.2100   49.5140 O   0  0  0  0  0  0  0  0  0  0  0  0
   61.5210   26.3890   47.2940 O   0  0  0  0  0  0  0  0  0  0  0  0
   58.9230   26.9320   47.4610 C   0  0  0  0  0  0  0  0  0  0  0  0
   58.0890   25.8310   47.6770 C   0  0  0  0  0  0  0  0  0  0  0  0
   56.8380   25.7700   47.0620 C   0  0  0  0  0  0  0  0  0  0  0  0
   56.4080   26.8040   46.2250 C   0  0  0  0  0  0  0  0  0  0  0  0
   55.1400   26.7250   45.6600 O   0  0  0  0  0  0  0  0  0  0  0  0
   57.2450   27.9150   45.9860 C   0  0  0  0  0  0  0  0  0  0  0  0
   56.8330   29.0220   45.0870 C   0  0  0  0  0  0  0  0  0  0  0  0
   57.6690   29.8310   44.3390 C   0  0  0  0  0  0  0  0  0  0  0  0
   56.8420   30.6870   43.6450 C   0  0  0  0  0  0  0  0  0  0  0  0
   55.5880   30.4240   43.9320 O   0  0  0  0  0  0  0  0  0  0  0  0
   55.5440   29.4300   44.7880 C   0  0  0  0  0  0  0  0  0  0  0  0
   58.4990   27.9720   46.6230 C   0  0  0  0  0  0  0  0  0  0  0  0
   59.1300   29.4270   50.0620 C   0  0  0  0  0  0  0  0  0  0  0  0
   57.4572   29.9297   53.5858 H   0  0  0  0  0  0  0  0  0  0  0  0
   57.1208   28.4287   52.6581 H   0  0  0  0  0  0  0  0  0  0  0  0
   58.7732   29.1332   52.6581 H   0  0  0  0  0  0  0  0  0  0  0  0
   57.5954   32.4778   50.1613 H   0  0  0  0  0  0  0  0  0  0  0  0
   59.2048   32.9041   48.3109 H   0  0  0  0  0  0  0  0  0  0  0  0
   62.5510   31.6202   48.5879 H   0  0  0  0  0  0  0  0  0  0  0  0
   63.0146   30.8265   47.0446 H   0  0  0  0  0  0  0  0  0  0  0  0
   62.4592   32.5348   47.0446 H   0  0  0  0  0  0  0  0  0  0  0  0
   58.4194   25.0118   48.3326 H   0  0  0  0  0  0  0  0  0  0  0  0
   56.1853   24.9020   47.2370 H   0  0  0  0  0  0  0  0  0  0  0  0
   58.7680   29.7978   44.3051 H   0  0  0  0  0  0  0  0  0  0  0  0
   57.1814   31.4728   42.9541 H   0  0  0  0  0  0  0  0  0  0  0  0
   54.6257   28.9894   45.2034 H   0  0  0  0  0  0  0  0  0  0  0  0
   59.1527   28.8418   46.4613 H   0  0  0  0  0  0  0  0  0  0  0  0
   59.1111   28.4466   50.5605 H   0  0  0  0  0  0  0  0  0  0  0  0
  1  2  1  0
  2  3  1  0
  3  4  2  0
  4  5  1  0
  5  6  2  0
  6  7  1  0
  7  8  1  0
  6  9  1  0
  9 10  1  0
 10 11  1  0
 11 12  2  0
 11 13  2  0
 11 14  1  0
 14 15  2  0
 15 16  1  0
 16 17  2  0
 17 18  1  0
 17 19  1  0
 19 20  1  0
 20 21  1  0
 21 22  2  0
 22 23  1  0
 23 24  1  0
 19 25  2  0
  9 26  2  0
 26  3  1  0
 25 14  1  0
 24 20  2  0
  1 27  1  0
  1 28  1  0
  1 29  1  0
  4 30  1  0
  5 31  1  0
  8 32  1  0
  8 33  1  0
  8 34  1  0
 15 35  1  0
 16 36  1  0
 21 37  1  0
 22 38  1  0
 24 39  1  0
 25 40  1  0
 26 41  1  0
M  CHG  2  10  -1  18  -1
M  END
>  <UniqueID>  (45) 
45

>  <SMILES>  (45) 
COc1ccc(OC)c([N-]S(=O)(=O)c2ccc([O-])c(-c3ccoc3)c2)c1

>  <Energy>  (45) 
76.1688113790083

>  <Genealogy>  (45) 
COc1ccc(OC)c([N-]S(=O)(=O)c2ccc([O-])c(-c3ccoc3)c2)c1 (protonated)
COc1ccc(OC)c([N-]S(=O)(=O)c2ccc([O-])c(-c3ccoc3)c2)c1 (3D coordinates assigned)
COc1ccc(OC)c([N-]S(=O)(=O)c2ccc([O-])c(-c3ccoc3)c2)c1 (optimized conformer: 76.1688113790083 kcal/mol)

>  <smiles>  (45) 
COc1ccc(OC)c(NS(=O)(=O)c2ccc(O)c(-c3ccoc3)c2)c1

>  <score_type>  (45) 
oracle

>  <origin>  (45) 
adg

>  <m_score__min__energy>  (45) 
-10.6

>  <m_primary>  (45) 
energy

$$$$
45:0
     RDKit          3D

 68 71  0  0  0  0  0  0  0  0999 V2000
   55.1580   25.6790   46.0170 O   0  0  0  0  0  0  0  0  0  0  0  0
   55.5780   24.7150   45.3230 C   0  0  0  0  0  0  0  0  0  0  0  0
   56.8930   24.8280   44.5970 C   0  0  0  0  0  0  0  0  0  0  0  0
   57.9830   24.9520   45.5080 O   0  0  0  0  0  0  0  0  0  0  0  0
   58.0770   25.9640   46.4740 C   0  0  0  0  0  0  0  0  0  0  0  0
   58.1930   25.6640   47.6940 O   0  0  0  0  0  0  0  0  0  0  0  0
   58.0290   27.3810   46.0550 C   0  0  0  0  0  0  0  0  0  0  0  0
   56.9720   27.8490   45.2550 C   0  0  0  0  0  0  0  0  0  0  0  0
   56.9280   29.1850   44.8490 C   0  0  0  0  0  0  0  0  0  0  0  0
   57.9440   30.0720   45.2260 C   0  0  0  0  0  0  0  0  0  0  0  0
   57.8790   31.7560   44.7130 S   0  0  0  0  0  0  0  0  0  0  0  0
   56.5220   32.3300   45.0090 O   0  0  0  0  0  0  0  0  0  0  0  0
   58.1350   31.8300   43.2350 O   0  0  0  0  0  0  0  0  0  0  0  0
   59.0990   32.6740   45.5490 N   0  0  0  0  0  0  0  0  0  0  0  0
   58.5270   33.3940   46.6920 C   0  0  0  0  0  0  0  0  0  0  0  0
   59.4030   34.5940   47.0680 C   0  0  0  0  0  0  0  0  0  0  0  0
   60.8030   34.1610   47.4210 C   0  0  0  0  0  0  0  0  0  0  0  0
   61.7230   33.8500   46.4050 C   0  0  0  0  0  0  0  0  0  0  0  0
   63.0320   33.4840   46.7310 C   0  0  0  0  0  0  0  0  0  0  0  0
   63.4350   33.4380   48.0680 C   0  0  0  0  0  0  0  0  0  0  0  0
   62.5290   33.7590   49.0830 C   0  0  0  0  0  0  0  0  0  0  0  0
   61.2170   34.1210   48.7620 C   0  0  0  0  0  0  0  0  0  0  0  0
   58.9970   29.6160   46.0270 C   0  0  0  0  0  0  0  0  0  0  0  0
   59.0420   28.2800   46.4380 C   0  0  0  0  0  0  0  0  0  0  0  0
   54.7750   23.5330   45.2210 N   0  0  0  0  0  0  0  0  0  0  0  0
   54.3990   22.7090   46.3320 C   0  0  0  0  0  0  0  0  0  0  0  0
   55.3240   22.4880   47.3600 C   0  0  0  0  0  0  0  0  0  0  0  0
   54.9890   21.6840   48.4580 C   0  0  0  0  0  0  0  0  0  0  0  0
   56.1660   21.3960   49.7400 S   0  0  0  0  0  0  0  0  0  0  0  0
   57.3770   22.2520   49.4890 O   0  0  0  0  0  0  0  0  0  0  0  0
   55.5730   21.8180   51.0550 O   0  0  0  0  0  0  0  0  0  0  0  0
   56.6580   19.7160   49.8370 N   0  0  0  0  0  0  0  0  0  0  0  0
   56.3160   18.9560   48.6200 C   0  0  0  0  0  0  0  0  0  0  0  0
   57.3510   19.1310   47.4820 C   0  0  0  0  0  0  0  0  0  0  0  0
   58.5350   19.7880   47.8960 O   0  0  0  0  0  0  0  0  0  0  0  0
   59.0060   19.2100   49.0900 C   0  0  0  0  0  0  0  0  0  0  0  0
   58.0670   19.5560   50.2580 C   0  0  0  0  0  0  0  0  0  0  0  0
   53.7170   21.1000   48.5240 C   0  0  0  0  0  0  0  0  0  0  0  0
   52.8050   21.2800   47.4800 C   0  0  0  0  0  0  0  0  0  0  0  0
   53.1480   22.0660   46.3720 C   0  0  0  0  0  0  0  0  0  0  0  0
   52.2630   22.1850   45.3000 O   0  0  0  0  0  0  0  0  0  0  0  0
   57.0409   23.9275   43.9828 H   0  0  0  0  0  0  0  0  0  0  0  0
   56.8640   25.7300   43.9681 H   0  0  0  0  0  0  0  0  0  0  0  0
   56.1736   27.1581   44.9464 H   0  0  0  0  0  0  0  0  0  0  0  0
   56.0914   29.5419   44.2303 H   0  0  0  0  0  0  0  0  0  0  0  0
   57.5204   33.7502   46.4276 H   0  0  0  0  0  0  0  0  0  0  0  0
   58.4755   32.7098   47.5518 H   0  0  0  0  0  0  0  0  0  0  0  0
   59.4467   35.2870   46.2149 H   0  0  0  0  0  0  0  0  0  0  0  0
   58.9598   35.0856   47.9465 H   0  0  0  0  0  0  0  0  0  0  0  0
   61.4121   33.8947   45.3508 H   0  0  0  0  0  0  0  0  0  0  0  0
   63.7463   33.2317   45.9334 H   0  0  0  0  0  0  0  0  0  0  0  0
   64.4655   33.1491   48.3220 H   0  0  0  0  0  0  0  0  0  0  0  0
   62.8484   33.7268   50.1351 H   0  0  0  0  0  0  0  0  0  0  0  0
   60.5070   34.3753   49.5627 H   0  0  0  0  0  0  0  0  0  0  0  0
   59.7923   30.3110   46.3345 H   0  0  0  0  0  0  0  0  0  0  0  0
   59.8750   27.9293   47.0650 H   0  0  0  0  0  0  0  0  0  0  0  0
   56.3212   22.9490   47.3053 H   0  0  0  0  0  0  0  0  0  0  0  0
   56.2580   17.8885   48.8790 H   0  0  0  0  0  0  0  0  0  0  0  0
   55.3551   19.3439   48.2510 H   0  0  0  0  0  0  0  0  0  0  0  0
   57.6201   18.1355   47.0991 H   0  0  0  0  0  0  0  0  0  0  0  0
   56.8828   19.7601   46.7106 H   0  0  0  0  0  0  0  0  0  0  0  0
   59.0500   18.1173   48.9714 H   0  0  0  0  0  0  0  0  0  0  0  0
   60.0087   19.6064   49.3079 H   0  0  0  0  0  0  0  0  0  0  0  0
   58.1211   18.7482   51.0027 H   0  0  0  0  0  0  0  0  0  0  0  0
   58.3984   20.5192   50.6733 H   0  0  0  0  0  0  0  0  0  0  0  0
   53.4351   20.4978   49.4003 H   0  0  0  0  0  0  0  0  0  0  0  0
   51.8150   20.8031   47.5285 H   0  0  0  0  0  0  0  0  0  0  0  0
   52.5510   22.5930   44.4180 H   0  0  0  0  0  0  0  0  0  0  0  0
  1  2  2  0
  2  3  1  0
  3  4  1  0
  4  5  1  0
  5  6  2  0
  5  7  1  0
  7  8  2  0
  8  9  1  0
  9 10  2  0
 10 11  1  0
 11 12  2  0
 11 13  2  0
 11 14  1  0
 14 15  1  0
 15 16  1  0
 16 17  1  0
 17 18  2  0
 18 19  1  0
 19 20  2  0
 20 21  1  0
 21 22  2  0
 10 23  1  0
 23 24  2  0
  2 25  1  0
 25 26  1  0
 26 27  2  0
 27 28  1  0
 28 29  1  0
 29 30  2  0
 29 31  2  0
 29 32  1  0
 32 33  1  0
 33 34  1  0
 34 35  1  0
 35 36  1  0
 36 37  1  0
 28 38  2  0
 38 39  1  0
 39 40  2  0
 40 41  1  0
 24  7  1  0
 40 26  1  0
 22 17  1  0
 37 32  1  0
  3 42  1  0
  3 43  1  0
  8 44  1  0
  9 45  1  0
 15 46  1  0
 15 47  1  0
 16 48  1  0
 16 49  1  0
 18 50  1  0
 19 51  1  0
 20 52  1  0
 21 53  1  0
 22 54  1  0
 23 55  1  0
 24 56  1  0
 27 57  1  0
 33 58  1  0
 33 59  1  0
 34 60  1  0
 34 61  1  0
 36 62  1  0
 36 63  1  0
 37 64  1  0
 37 65  1  0
 38 66  1  0
 39 67  1  0
 41 68  1  0
M  CHG  2  14  -1  25  -1
M  END
>  <UniqueID>  (46) 
46

>  <SMILES>  (46) 
O=C(COC(=O)c1ccc(S(=O)(=O)[N-]CCc2ccccc2)cc1)[N-]c1cc(S(=O)(=O)N2CCOCC2)ccc1O

>  <Energy>  (46) 
84.9380101985482

>  <Genealogy>  (46) 
O=C(COC(=O)c1ccc(S(=O)(=O)[N-]CCc2ccccc2)cc1)[N-]c1cc(S(=O)(=O)N2CCOCC2)ccc1O (protonated)
O=C(COC(=O)c1ccc(S(=O)(=O)[N-]CCc2ccccc2)cc1)[N-]c1cc(S(=O)(=O)N2CCOCC2)ccc1O (3D coordinates assigned)
O=C(COC(=O)c1ccc(S(=O)(=O)[N-]CCc2ccccc2)cc1)[N-]c1cc(S(=O)(=O)N2CCOCC2)ccc1O (nonaromatic ring conformer: 84.9380101985482 kcal/mol)

>  <smiles>  (46) 
O=C(COC(=O)c1ccc(S(=O)(=O)NCCc2ccccc2)cc1)Nc1cc(S(=O)(=O)N2CCOCC2)ccc1O

>  <score_type>  (46) 
oracle

>  <origin>  (46) 
adg

>  <m_score__min__energy>  (46) 
-12.19

>  <m_primary>  (46) 
energy

$$$$
46:0
     RDKit          3D

 42 44  0  0  0  0  0  0  0  0999 V2000
   55.1390   30.0410   43.3920 C   0  0  0  0  0  0  0  0  0  0  0  0
   56.1340   29.6830   44.2080 C   0  0  0  0  0  0  0  0  0  0  0  0
   56.0340   28.6760   45.0930 N   0  0  0  0  0  0  0  0  0  0  0  0
   57.2160   28.5790   45.7380 C   0  0  0  0  0  0  0  0  0  0  0  0
   57.3900   27.6820   46.7280 C   0  0  0  0  0  0  0  0  0  0  0  0
   57.0980   26.2360   46.6550 C   0  0  0  0  0  0  0  0  0  0  0  0
   55.8000   25.7960   46.3560 C   0  0  0  0  0  0  0  0  0  0  0  0
   54.7890   26.7080   46.0770 O   0  0  0  0  0  0  0  0  0  0  0  0
   55.5220   24.4670   46.3370 N   0  0  0  0  0  0  0  0  0  0  0  0
   56.4740   23.5460   46.6350 C   0  0  0  0  0  0  0  0  0  0  0  0
   56.1950   22.3200   46.6040 O   0  0  0  0  0  0  0  0  0  0  0  0
   57.7250   23.9480   46.9740 N   0  0  0  0  0  0  0  0  0  0  0  0
   58.0550   25.2650   47.0050 C   0  0  0  0  0  0  0  0  0  0  0  0
   59.2190   25.6020   47.3540 O   0  0  0  0  0  0  0  0  0  0  0  0
   58.1180   29.5240   45.2150 C   0  0  0  0  0  0  0  0  0  0  0  0
   59.6260   29.5840   45.3670 C   0  0  0  0  0  0  0  0  0  0  0  0
   60.0520   30.2710   46.6720 C   0  0  0  0  0  0  0  0  0  0  0  0
   59.2790   31.5320   46.9170 C   0  0  0  0  0  0  0  0  0  0  0  0
   58.6410   31.6710   47.9970 O   0  0  0  0  0  0  0  0  0  0  0  0
   59.2430   32.5580   45.9220 N   0  0  0  0  0  0  0  0  0  0  0  0
   58.5750   33.8330   46.1630 C   0  0  0  0  0  0  0  0  0  0  0  0
   58.9940   34.9340   45.2070 C   0  0  0  0  0  0  0  0  0  0  0  0
   59.5170   34.9280   46.6350 C   0  0  0  0  0  0  0  0  0  0  0  0
   57.3990   30.2470   44.2620 C   0  0  0  0  0  0  0  0  0  0  0  0
   57.9200   31.3350   43.3650 C   0  0  0  0  0  0  0  0  0  0  0  0
   55.2783   30.8741   42.6874 H   0  0  0  0  0  0  0  0  0  0  0  0
   54.1803   29.5027   43.4246 H   0  0  0  0  0  0  0  0  0  0  0  0
   55.1840   28.0900   45.2630 H   0  0  0  0  0  0  0  0  0  0  0  0
   57.7870   28.0625   47.6807 H   0  0  0  0  0  0  0  0  0  0  0  0
   60.0234   28.5583   45.3609 H   0  0  0  0  0  0  0  0  0  0  0  0
   60.0259   30.1742   44.5293 H   0  0  0  0  0  0  0  0  0  0  0  0
   59.8804   29.5799   47.5104 H   0  0  0  0  0  0  0  0  0  0  0  0
   61.1167   30.5343   46.5873 H   0  0  0  0  0  0  0  0  0  0  0  0
   59.6580   32.3720   44.9820 H   0  0  0  0  0  0  0  0  0  0  0  0
   57.6129   33.4260   46.5074 H   0  0  0  0  0  0  0  0  0  0  0  0
   59.6731   34.7080   44.3717 H   0  0  0  0  0  0  0  0  0  0  0  0
   58.4610   35.6614   44.5771 H   0  0  0  0  0  0  0  0  0  0  0  0
   60.5741   34.6970   46.8330 H   0  0  0  0  0  0  0  0  0  0  0  0
   59.5192   35.6483   47.4664 H   0  0  0  0  0  0  0  0  0  0  0  0
   58.3143   32.1585   43.9784 H   0  0  0  0  0  0  0  0  0  0  0  0
   58.7235   30.9334   42.7301 H   0  0  0  0  0  0  0  0  0  0  0  0
   57.1034   31.7092   42.7301 H   0  0  0  0  0  0  0  0  0  0  0  0
  1  2  2  0
  2  3  1  0
  3  4  1  0
  4  5  2  3
  5  6  1  0
  6  7  2  0
  7  8  1  0
  7  9  1  0
  9 10  1  0
 10 11  2  0
 10 12  1  0
 12 13  1  0
 13 14  2  0
  4 15  1  0
 15 16  1  0
 16 17  1  0
 17 18  1  0
 18 19  2  0
 18 20  1  0
 20 21  1  0
 21 22  1  0
 22 23  1  0
 15 24  2  0
 24 25  1  0
 24  2  1  0
 13  6  1  0
 23 21  1  0
  1 26  1  0
  1 27  1  0
  3 28  1  0
  5 29  1  0
 16 30  1  0
 16 31  1  0
 17 32  1  0
 17 33  1  0
 20 34  1  0
 21 35  1  0
 22 36  1  0
 22 37  1  0
 23 38  1  0
 23 39  1  0
 25 40  1  0
 25 41  1  0
 25 42  1  0
M  CHG  3   8  -1   9  -1  12  -1
M  END
>  <UniqueID>  (47) 
47

>  <SMILES>  (47) 
C=c1[nH]c(=Cc2c([O-])[n-]c(=O)[n-]c2=O)c(CCC(=O)NC2CC2)c1C

>  <Energy>  (47) 
341.91522132244086

>  <Genealogy>  (47) 
C=c1[nH]c(=Cc2c([O-])[n-]c(=O)[n-]c2=O)c(CCC(=O)NC2CC2)c1C (protonated)
C=c1[nH]c(=Cc2c([O-])[n-]c(=O)[n-]c2=O)c(CCC(=O)NC2CC2)c1C (3D coordinates assigned)
C=c1[nH]c(=Cc2c([O-])[n-]c(=O)[n-]c2=O)c(CCC(=O)NC2CC2)c1C (nonaromatic ring conformer: 341.91522132244086 kcal/mol)

>  <smiles>  (47) 
C=c1[nH]c(=Cc2c(O)[nH]c(=O)[nH]c2=O)c(CCC(=O)NC2CC2)c1C

>  <score_type>  (47) 
oracle

>  <origin>  (47) 
adg

>  <m_score__min__energy>  (47) 
-15.34

>  <m_primary>  (47) 
energy

$$$$
47:0
     RDKit          3D

 51 53  0  0  0  0  0  0  0  0999 V2000
   63.3170   33.8530   46.3580 C   0  0  0  0  0  0  0  0  0  0  0  0
   63.1550   33.3950   47.6020 C   0  0  0  0  0  0  0  0  0  0  0  0
   62.4680   34.2090   48.6640 C   0  0  0  0  0  0  0  0  0  0  0  0
   61.7120   33.3520   49.5910 N   0  0  0  0  0  0  0  0  0  0  0  0
   62.3320   32.1280   50.1170 C   0  0  0  0  0  0  0  0  0  0  0  0
   61.6050   30.9030   49.6260 C   0  0  0  0  0  0  0  0  0  0  0  0
   61.2460   30.7860   48.2730 C   0  0  0  0  0  0  0  0  0  0  0  0
   60.6050   29.6340   47.8100 C   0  0  0  0  0  0  0  0  0  0  0  0
   60.3210   28.5840   48.6920 C   0  0  0  0  0  0  0  0  0  0  0  0
   59.6670   27.3960   48.2120 C   0  0  0  0  0  0  0  0  0  0  0  0
   59.1410   26.4410   47.8270 N   0  0  0  0  0  0  0  0  0  0  0  0
   60.6730   28.6960   50.0430 C   0  0  0  0  0  0  0  0  0  0  0  0
   61.3120   29.8490   50.5080 C   0  0  0  0  0  0  0  0  0  0  0  0
   60.3640   33.6930   49.9770 C   0  0  0  0  0  0  0  0  0  0  0  0
   60.1390   34.1610   51.1250 O   0  0  0  0  0  0  0  0  0  0  0  0
   59.2550   33.4600   49.1020 N   0  0  0  0  0  0  0  0  0  0  0  0
   59.2280   33.7680   47.7010 C   0  0  0  0  0  0  0  0  0  0  0  0
   59.6510   35.0160   47.2150 C   0  0  0  0  0  0  0  0  0  0  0  0
   59.5870   35.2950   45.8470 C   0  0  0  0  0  0  0  0  0  0  0  0
   59.1010   34.3330   44.9580 C   0  0  0  0  0  0  0  0  0  0  0  0
   58.6800   33.0840   45.4270 C   0  0  0  0  0  0  0  0  0  0  0  0
   58.1860   32.1490   44.5060 O   0  0  0  0  0  0  0  0  0  0  0  0
   57.8130   30.8300   44.8110 C   0  0  0  0  0  0  0  0  0  0  0  0
   58.7570   29.8620   45.1850 C   0  0  0  0  0  0  0  0  0  0  0  0
   58.3340   28.5610   45.4610 C   0  0  0  0  0  0  0  0  0  0  0  0
   56.9760   28.2200   45.3520 C   0  0  0  0  0  0  0  0  0  0  0  0
   56.5130   26.8410   45.6320 C   0  0  0  0  0  0  0  0  0  0  0  0
   55.1500   26.5880   45.9710 N   0  0  0  0  0  0  0  0  0  0  0  0
   57.3210   25.8750   45.5750 O   0  0  0  0  0  0  0  0  0  0  0  0
   56.0690   29.2180   44.9570 C   0  0  0  0  0  0  0  0  0  0  0  0
   56.5070   30.4780   44.6940 N   0  0  0  0  0  0  0  0  0  0  0  0
   58.7200   32.8160   46.8080 C   0  0  0  0  0  0  0  0  0  0  0  0
   63.8241   33.2319   45.6049 H   0  0  0  0  0  0  0  0  0  0  0  0
   62.9433   34.8513   46.0864 H   0  0  0  0  0  0  0  0  0  0  0  0
   63.5346   32.3946   47.8571 H   0  0  0  0  0  0  0  0  0  0  0  0
   63.2255   34.7695   49.2315 H   0  0  0  0  0  0  0  0  0  0  0  0
   61.7624   34.8950   48.1726 H   0  0  0  0  0  0  0  0  0  0  0  0
   63.3793   32.0830   49.7837 H   0  0  0  0  0  0  0  0  0  0  0  0
   62.2789   32.1514   51.2155 H   0  0  0  0  0  0  0  0  0  0  0  0
   61.4706   31.6055   47.5744 H   0  0  0  0  0  0  0  0  0  0  0  0
   60.3227   29.5517   46.7500 H   0  0  0  0  0  0  0  0  0  0  0  0
   60.4462   27.8752   50.7393 H   0  0  0  0  0  0  0  0  0  0  0  0
   61.5869   29.9317   51.5699 H   0  0  0  0  0  0  0  0  0  0  0  0
   60.0335   35.7756   47.9126 H   0  0  0  0  0  0  0  0  0  0  0  0
   59.9197   36.2733   45.4698 H   0  0  0  0  0  0  0  0  0  0  0  0
   59.0491   34.5590   43.8827 H   0  0  0  0  0  0  0  0  0  0  0  0
   59.8221   30.1263   45.2601 H   0  0  0  0  0  0  0  0  0  0  0  0
   59.0673   27.7995   45.7652 H   0  0  0  0  0  0  0  0  0  0  0  0
   54.6890   27.0960   46.7560 H   0  0  0  0  0  0  0  0  0  0  0  0
   54.9997   28.9787   44.8601 H   0  0  0  0  0  0  0  0  0  0  0  0
   58.3499   31.8526   47.1886 H   0  0  0  0  0  0  0  0  0  0  0  0
  1  2  2  0
  2  3  1  0
  3  4  1  0
  4  5  1  0
  5  6  1  0
  6  7  2  0
  7  8  1  0
  8  9  2  0
  9 10  1  0
 10 11  3  0
  9 12  1  0
 12 13  2  0
  4 14  1  0
 14 15  2  0
 14 16  1  0
 16 17  1  0
 17 18  2  0
 18 19  1  0
 19 20  2  0
 20 21  1  0
 21 22  1  0
 22 23  1  0
 23 24  2  0
 24 25  1  0
 25 26  2  0
 26 27  1  0
 27 28  1  0
 27 29  2  0
 26 30  1  0
 30 31  2  0
 21 32  2  0
 13  6  1  0
 32 17  1  0
 31 23  1  0
  1 33  1  0
  1 34  1  0
  2 35  1  0
  3 36  1  0
  3 37  1  0
  5 38  1  0
  5 39  1  0
  7 40  1  0
  8 41  1  0
 12 42  1  0
 13 43  1  0
 18 44  1  0
 19 45  1  0
 20 46  1  0
 24 47  1  0
 25 48  1  0
 28 49  1  0
 30 50  1  0
 32 51  1  0
M  CHG  2  16  -1  28  -1
M  END
>  <UniqueID>  (48) 
48

>  <SMILES>  (48) 
C=CCN(Cc1ccc(C#N)cc1)C(=O)[N-]c1cccc(Oc2ccc(C([NH-])=O)cn2)c1

>  <Energy>  (48) 
60.98194068034482

>  <Genealogy>  (48) 
C=CCN(Cc1ccc(C#N)cc1)C(=O)[N-]c1cccc(Oc2ccc(C([NH-])=O)cn2)c1 (protonated)
C=CCN(Cc1ccc(C#N)cc1)C(=O)[N-]c1cccc(Oc2ccc(C([NH-])=O)cn2)c1 (3D coordinates assigned)
C=CCN(Cc1ccc(C#N)cc1)C(=O)[N-]c1cccc(Oc2ccc(C([NH-])=O)cn2)c1 (optimized conformer: 60.98194068034482 kcal/mol)

>  <smiles>  (48) 
C=CCN(Cc1ccc(C#N)cc1)C(=O)Nc1cccc(Oc2ccc(C(N)=O)cn2)c1

>  <score_type>  (48) 
oracle

>  <origin>  (48) 
adg

>  <m_score__min__energy>  (48) 
-13.06

>  <m_primary>  (48) 
energy

$$$$
48:0
     RDKit          3D

 49 52  0  0  0  0  0  0  0  0999 V2000
   57.4840   25.6490   43.8590 C   0  0  0  0  0  0  0  0  0  0  0  0
   57.5070   25.7620   45.1950 C   0  0  0  0  0  0  0  0  0  0  0  0
   56.9720   24.8810   46.1470 C   0  0  0  0  0  0  0  0  0  0  0  0
   56.1450   23.8290   45.9920 C   0  0  0  0  0  0  0  0  0  0  0  0
   54.7040   23.9010   45.7050 C   0  0  0  0  0  0  0  0  0  0  0  0
   53.9500   22.8620   45.3000 N   0  0  0  0  0  0  0  0  0  0  0  0
   52.7550   23.4320   45.0300 C   0  0  0  0  0  0  0  0  0  0  0  0
   51.7620   22.7680   44.6310 O   0  0  0  0  0  0  0  0  0  0  0  0
   52.7120   24.7700   45.2080 N   0  0  0  0  0  0  0  0  0  0  0  0
   53.9580   25.0510   45.6210 C   0  0  0  0  0  0  0  0  0  0  0  0
   54.4050   26.3340   45.9110 O   0  0  0  0  0  0  0  0  0  0  0  0
   57.4030   25.2470   47.3730 N   0  0  0  0  0  0  0  0  0  0  0  0
   58.1380   26.3530   47.1560 C   0  0  0  0  0  0  0  0  0  0  0  0
   58.7060   26.9840   48.0860 O   0  0  0  0  0  0  0  0  0  0  0  0
   58.2150   26.7080   45.8570 N   0  0  0  0  0  0  0  0  0  0  0  0
   59.0070   27.8160   45.3040 C   0  0  0  0  0  0  0  0  0  0  0  0
   58.1330   29.0160   45.0270 C   0  0  0  0  0  0  0  0  0  0  0  0
   56.7810   28.8350   44.6970 C   0  0  0  0  0  0  0  0  0  0  0  0
   55.9780   29.9460   44.4370 C   0  0  0  0  0  0  0  0  0  0  0  0
   56.5050   31.1960   44.4920 N   0  0  0  0  0  0  0  0  0  0  0  0
   57.8160   31.4090   44.7960 C   0  0  0  0  0  0  0  0  0  0  0  0
   58.3370   32.7050   44.8410 O   0  0  0  0  0  0  0  0  0  0  0  0
   58.0150   33.6340   45.8710 C   0  0  0  0  0  0  0  0  0  0  0  0
   58.7310   33.2510   47.1290 C   0  0  0  0  0  0  0  0  0  0  0  0
   58.0590   32.8480   48.1170 O   0  0  0  0  0  0  0  0  0  0  0  0
   60.1650   33.3180   47.2220 N   0  0  0  0  0  0  0  0  0  0  0  0
   60.8990   32.9060   48.4060 C   0  0  0  0  0  0  0  0  0  0  0  0
   62.3720   32.9710   48.0190 C   0  0  0  0  0  0  0  0  0  0  0  0
   62.4350   33.8230   46.7550 C   0  0  0  0  0  0  0  0  0  0  0  0
   61.0340   33.7910   46.1570 C   0  0  0  0  0  0  0  0  0  0  0  0
   58.6550   30.3220   45.0640 C   0  0  0  0  0  0  0  0  0  0  0  0
   59.9630   30.5450   45.3510 F   0  0  0  0  0  0  0  0  0  0  0  0
   57.9487   26.4252   43.2333 H   0  0  0  0  0  0  0  0  0  0  0  0
   57.0004   24.7801   43.3888 H   0  0  0  0  0  0  0  0  0  0  0  0
   56.5868   22.8263   46.0887 H   0  0  0  0  0  0  0  0  0  0  0  0
   59.7869   28.0974   46.0269 H   0  0  0  0  0  0  0  0  0  0  0  0
   59.4616   27.4859   44.3583 H   0  0  0  0  0  0  0  0  0  0  0  0
   56.3563   27.8217   44.6436 H   0  0  0  0  0  0  0  0  0  0  0  0
   54.9156   29.8088   44.1869 H   0  0  0  0  0  0  0  0  0  0  0  0
   58.3261   34.6437   45.5647 H   0  0  0  0  0  0  0  0  0  0  0  0
   56.9295   33.6234   46.0487 H   0  0  0  0  0  0  0  0  0  0  0  0
   60.6915   33.5887   49.2432 H   0  0  0  0  0  0  0  0  0  0  0  0
   60.6087   31.8970   48.7340 H   0  0  0  0  0  0  0  0  0  0  0  0
   62.9590   33.4370   48.8242 H   0  0  0  0  0  0  0  0  0  0  0  0
   62.7901   31.9675   47.8509 H   0  0  0  0  0  0  0  0  0  0  0  0
   62.7209   34.8556   47.0039 H   0  0  0  0  0  0  0  0  0  0  0  0
   63.1842   33.4390   46.0471 H   0  0  0  0  0  0  0  0  0  0  0  0
   60.7316   34.7979   45.8333 H   0  0  0  0  0  0  0  0  0  0  0  0
   60.9841   33.1400   45.2717 H   0  0  0  0  0  0  0  0  0  0  0  0
  1  2  2  0
  2  3  1  0
  3  4  2  3
  4  5  1  0
  5  6  1  0
  6  7  1  0
  7  8  2  0
  7  9  1  0
  9 10  1  0
 10 11  1  0
  3 12  1  0
 12 13  1  0
 13 14  2  0
 13 15  1  0
 15 16  1  0
 16 17  1  0
 17 18  2  0
 18 19  1  0
 19 20  2  0
 20 21  1  0
 21 22  1  0
 22 23  1  0
 23 24  1  0
 24 25  2  0
 24 26  1  0
 26 27  1  0
 27 28  1  0
 28 29  1  0
 29 30  1  0
 21 31  2  0
 31 32  1  0
 15  2  1  0
 31 17  1  0
 10  5  2  0
 30 26  1  0
  1 33  1  0
  1 34  1  0
  4 35  1  0
 16 36  1  0
 16 37  1  0
 18 38  1  0
 19 39  1  0
 23 40  1  0
 23 41  1  0
 27 42  1  0
 27 43  1  0
 28 44  1  0
 28 45  1  0
 29 46  1  0
 29 47  1  0
 30 48  1  0
 30 49  1  0
M  CHG  4   6  -1   9  -1  11  -1  12  -1
M  END
>  <UniqueID>  (49) 
49

>  <SMILES>  (49) 
C=c1c(=Cc2[n-]c(=O)[n-]c2[O-])[n-]c(=O)n1Cc1ccnc(OCC(=O)N2CCCC2)c1F

>  <Energy>  (49) 
121.81720182203968

>  <Genealogy>  (49) 
C=c1c(=Cc2[n-]c(=O)[n-]c2[O-])[n-]c(=O)n1Cc1ccnc(OCC(=O)N2CCCC2)c1F (protonated)
C=c1c(=Cc2[n-]c(=O)[n-]c2[O-])[n-]c(=O)n1Cc1ccnc(OCC(=O)N2CCCC2)c1F (3D coordinates assigned)
C=c1c(=Cc2[n-]c(=O)[n-]c2[O-])[n-]c(=O)n1Cc1ccnc(OCC(=O)N2CCCC2)c1F (nonaromatic ring conformer: 121.81720182203968 kcal/mol)

>  <smiles>  (49) 
C=c1c(=Cc2[nH]c(=O)[nH]c2O)[nH]c(=O)n1Cc1ccnc(OCC(=O)N2CCCC2)c1F

>  <score_type>  (49) 
oracle

>  <origin>  (49) 
adg

>  <m_score__min__energy>  (49) 
-18.010000000000002

>  <m_primary>  (49) 
energy

$$$$
49:0
     RDKit          3D

 57 60  0  0  0  0  0  0  0  0999 V2000
   55.1900   26.6670   46.0420 N   0  0  0  0  0  0  0  0  0  0  0  0
   56.7330   25.9050   46.2030 S   0  0  0  0  0  0  0  0  0  0  0  0
   56.9880   25.0350   45.0030 O   0  0  0  0  0  0  0  0  0  0  0  0
   56.7440   25.0420   47.4360 O   0  0  0  0  0  0  0  0  0  0  0  0
   57.9840   27.1370   46.3330 C   0  0  0  0  0  0  0  0  0  0  0  0
   58.4700   27.7850   45.1910 C   0  0  0  0  0  0  0  0  0  0  0  0
   59.4480   28.7750   45.3080 C   0  0  0  0  0  0  0  0  0  0  0  0
   59.9360   29.1340   46.5650 C   0  0  0  0  0  0  0  0  0  0  0  0
   59.4440   28.5030   47.7220 C   0  0  0  0  0  0  0  0  0  0  0  0
   59.9810   28.8500   49.0520 C   0  0  0  0  0  0  0  0  0  0  0  0
   60.8730   28.1200   49.5650 O   0  0  0  0  0  0  0  0  0  0  0  0
   59.5100   30.0050   49.7680 N   0  0  0  0  0  0  0  0  0  0  0  0
   58.1810   30.0980   50.3460 C   0  0  0  0  0  0  0  0  0  0  0  0
   58.2740   31.1850   51.4100 C   0  0  0  0  0  0  0  0  0  0  0  0
   59.5440   31.9760   51.1060 C   0  0  0  0  0  0  0  0  0  0  0  0
   60.3920   31.0840   50.1910 C   0  0  2  0  0  0  0  0  0  0  0  0
   60.9080   31.8420   48.9870 C   0  0  0  0  0  0  0  0  0  0  0  0
   62.2530   31.7360   48.6010 C   0  0  0  0  0  0  0  0  0  0  0  0
   62.7190   32.4180   47.4720 C   0  0  0  0  0  0  0  0  0  0  0  0
   61.8470   33.2130   46.7220 C   0  0  0  0  0  0  0  0  0  0  0  0
   60.5060   33.3390   47.1080 C   0  0  0  0  0  0  0  0  0  0  0  0
   59.3740   34.2990   46.1620 S   0  0  0  0  0  0  0  0  0  0  0  0
   59.2650   35.6630   46.7800 O   0  0  0  0  0  0  0  0  0  0  0  0
   59.8640   34.4550   44.7470 O   0  0  0  0  0  0  0  0  0  0  0  0
   57.8050   33.5460   46.1730 N   0  0  0  0  0  0  0  0  0  0  0  0
   57.9130   32.0870   46.1630 C   0  0  0  0  0  0  0  0  0  0  0  0
   57.5050   31.5440   44.8210 C   0  0  0  0  0  0  0  0  0  0  0  0
   56.7080   30.3870   44.7450 C   0  0  0  0  0  0  0  0  0  0  0  0
   56.2980   29.8960   43.5010 C   0  0  0  0  0  0  0  0  0  0  0  0
   56.6710   30.5610   42.3270 C   0  0  0  0  0  0  0  0  0  0  0  0
   57.4600   31.7130   42.3970 C   0  0  0  0  0  0  0  0  0  0  0  0
   57.8800   32.2060   43.6360 C   0  0  0  0  0  0  0  0  0  0  0  0
   60.0430   32.6580   48.2380 C   0  0  0  0  0  0  0  0  0  0  0  0
   58.4740   27.4980   47.5950 C   0  0  0  0  0  0  0  0  0  0  0  0
   55.1620   27.0980   45.0880 H   0  0  0  0  0  0  0  0  0  0  0  0
   58.0804   27.5135   44.1988 H   0  0  0  0  0  0  0  0  0  0  0  0
   59.8347   29.2732   44.4067 H   0  0  0  0  0  0  0  0  0  0  0  0
   60.7079   29.9129   46.6515 H   0  0  0  0  0  0  0  0  0  0  0  0
   57.4458   30.3755   49.5763 H   0  0  0  0  0  0  0  0  0  0  0  0
   57.8533   29.1380   50.7714 H   0  0  0  0  0  0  0  0  0  0  0  0
   57.3942   31.8434   51.3596 H   0  0  0  0  0  0  0  0  0  0  0  0
   58.3051   30.7527   52.4210 H   0  0  0  0  0  0  0  0  0  0  0  0
   59.2941   32.9180   50.5959 H   0  0  0  0  0  0  0  0  0  0  0  0
   60.0854   32.2364   52.0274 H   0  0  0  0  0  0  0  0  0  0  0  0
   61.2805   30.7128   50.7228 H   0  0  0  0  0  0  0  0  0  0  0  0
   62.9439   31.1139   49.1888 H   0  0  0  0  0  0  0  0  0  0  0  0
   63.7740   32.3286   47.1736 H   0  0  0  0  0  0  0  0  0  0  0  0
   62.2139   33.7397   45.8287 H   0  0  0  0  0  0  0  0  0  0  0  0
   58.9541   31.7985   46.3702 H   0  0  0  0  0  0  0  0  0  0  0  0
   57.2473   31.6730   46.9346 H   0  0  0  0  0  0  0  0  0  0  0  0
   56.4065   29.8671   45.6663 H   0  0  0  0  0  0  0  0  0  0  0  0
   55.6819   28.9864   43.4452 H   0  0  0  0  0  0  0  0  0  0  0  0
   56.3434   30.1772   41.3496 H   0  0  0  0  0  0  0  0  0  0  0  0
   57.7516   32.2339   41.4731 H   0  0  0  0  0  0  0  0  0  0  0  0
   58.5034   33.1110   43.6852 H   0  0  0  0  0  0  0  0  0  0  0  0
   58.9915   32.7620   48.5437 H   0  0  0  0  0  0  0  0  0  0  0  0
   58.0949   26.9891   48.4935 H   0  0  0  0  0  0  0  0  0  0  0  0
  1  2  1  0
  2  3  2  0
  2  4  2  0
  2  5  1  0
  5  6  2  0
  6  7  1  0
  7  8  2  0
  8  9  1  0
  9 10  1  0
 10 11  2  0
 10 12  1  0
 12 13  1  0
 13 14  1  0
 14 15  1  0
 15 16  1  0
 16 17  1  0
 17 18  2  0
 18 19  1  0
 19 20  2  0
 20 21  1  0
 21 22  1  0
 22 23  2  0
 22 24  2  0
 22 25  1  0
 25 26  1  0
 26 27  1  0
 27 28  2  0
 28 29  1  0
 29 30  2  0
 30 31  1  0
 31 32  2  0
 21 33  2  0
  9 34  2  0
 34  5  1  0
 16 12  1  0
 33 17  1  0
 32 27  1  0
  1 35  1  0
  6 36  1  0
  7 37  1  0
  8 38  1  0
 13 39  1  0
 13 40  1  0
 14 41  1  0
 14 42  1  0
 15 43  1  0
 15 44  1  0
 16 45  1  1
 18 46  1  0
 19 47  1  0
 20 48  1  0
 26 49  1  0
 26 50  1  0
 28 51  1  0
 29 52  1  0
 30 53  1  0
 31 54  1  0
 32 55  1  0
 33 56  1  0
 34 57  1  0
M  CHG  2   1  -1  25  -1
M  END
>  <UniqueID>  (50) 
50

>  <SMILES>  (50) 
[NH-]S(=O)(=O)c1cccc(C(=O)N2CCC[C@@H]2c2cccc(S(=O)(=O)[N-]Cc3ccccc3)c2)c1

>  <Energy>  (50) 
62.35667459436929

>  <Genealogy>  (50) 
[NH-]S(=O)(=O)c1cccc(C(=O)N2CCCC2c2cccc(S(=O)(=O)[N-]Cc3ccccc3)c2)c1 (protonated)
[NH-]S(=O)(=O)c1cccc(C(=O)N2CCC[C@@H]2c2cccc(S(=O)(=O)[N-]Cc3ccccc3)c2)c1 (chirality)
[NH-]S(=O)(=O)c1cccc(C(=O)N2CCC[C@@H]2c2cccc(S(=O)(=O)[N-]Cc3ccccc3)c2)c1 (3D coordinates assigned)
[NH-]S(=O)(=O)c1cccc(C(=O)N2CCC[C@@H]2c2cccc(S(=O)(=O)[N-]Cc3ccccc3)c2)c1 (nonaromatic ring conformer: 62.35667459436929 kcal/mol)

>  <smiles>  (50) 
NS(=O)(=O)c1cccc(C(=O)N2CCCC2c2cccc(S(=O)(=O)NCc3ccccc3)c2)c1

>  <score_type>  (50) 
oracle

>  <origin>  (50) 
adg

>  <m_score__min__energy>  (50) 
-14.199999999999999

>  <m_primary>  (50) 
energy

$$$$
50:0
     RDKit          3D

 45 47  0  0  0  0  0  0  0  0999 V2000
   61.3659   29.7438   45.2465 H   0  0  0  0  0  0  0  0  0  0  0  0
   60.6150   29.9920   46.0110 C   0  0  0  0  0  0  0  0  0  0  0  0
   61.0570   30.5060   47.1710 C   0  0  0  0  0  0  0  0  0  0  0  0
   62.3590   31.1160   47.1750 N   0  0  0  0  0  0  0  0  0  0  0  0
   62.5880   32.3880   47.3090 C   0  0  0  0  0  0  0  0  0  0  0  0
   62.4024   33.0652   46.4623 H   0  0  0  0  0  0  0  0  0  0  0  0
   63.0940   32.9360   48.5830 C   0  0  0  0  0  0  0  0  0  0  0  0
   62.4680   34.0300   49.2120 C   0  0  0  0  0  0  0  0  0  0  0  0
   61.5776   34.4877   48.7563 H   0  0  0  0  0  0  0  0  0  0  0  0
   62.9740   34.5370   50.4140 C   0  0  0  0  0  0  0  0  0  0  0  0
   62.4820   35.3926   50.8996 H   0  0  0  0  0  0  0  0  0  0  0  0
   64.1030   33.9580   50.9980 C   0  0  0  0  0  0  0  0  0  0  0  0
   64.4993   34.3579   51.9430 H   0  0  0  0  0  0  0  0  0  0  0  0
   64.7300   32.8700   50.3820 C   0  0  0  0  0  0  0  0  0  0  0  0
   65.6170   32.4127   50.8447 H   0  0  0  0  0  0  0  0  0  0  0  0
   64.2300   32.3630   49.1780 C   0  0  0  0  0  0  0  0  0  0  0  0
   64.7294   31.5106   48.6943 H   0  0  0  0  0  0  0  0  0  0  0  0
   60.2550   30.4360   48.4140 C   0  0  0  0  0  0  0  0  0  0  0  0
   60.5360   29.5840   49.3010 O   0  0  0  0  0  0  0  0  0  0  0  0
   59.1810   31.3590   48.6150 N   0  0  0  0  0  0  0  0  0  0  0  0
   59.3700   32.8020   48.7020 C   0  0  0  0  0  0  0  0  0  0  0  0
   58.7507   33.2023   49.5182 H   0  0  0  0  0  0  0  0  0  0  0  0
   60.4306   33.0167   48.8998 H   0  0  0  0  0  0  0  0  0  0  0  0
   58.9670   33.4510   47.4060 C   0  0  0  0  0  0  0  0  0  0  0  0
   59.8900   34.2170   46.6710 C   0  0  0  0  0  0  0  0  0  0  0  0
   60.9041   34.3800   47.0647 H   0  0  0  0  0  0  0  0  0  0  0  0
   59.5220   34.7720   45.4410 C   0  0  0  0  0  0  0  0  0  0  0  0
   60.2458   35.3733   44.8713 H   0  0  0  0  0  0  0  0  0  0  0  0
   58.2370   34.5640   44.9350 C   0  0  0  0  0  0  0  0  0  0  0  0
   57.9491   35.0028   43.9683 H   0  0  0  0  0  0  0  0  0  0  0  0
   57.3160   33.7980   45.6570 C   0  0  0  0  0  0  0  0  0  0  0  0
   56.3049   33.6329   45.2564 H   0  0  0  0  0  0  0  0  0  0  0  0
   57.6790   33.2420   46.8870 C   0  0  0  0  0  0  0  0  0  0  0  0
   56.9527   32.6382   47.4508 H   0  0  0  0  0  0  0  0  0  0  0  0
   59.1940   29.7340   45.6830 C   0  0  0  0  0  0  0  0  0  0  0  0
   58.5790   28.5700   46.1670 C   0  0  0  0  0  0  0  0  0  0  0  0
   59.1592   27.8529   46.7663 H   0  0  0  0  0  0  0  0  0  0  0  0
   57.2310   28.3170   45.8910 C   0  0  0  0  0  0  0  0  0  0  0  0
   56.7594   27.3932   46.2573 H   0  0  0  0  0  0  0  0  0  0  0  0
   56.4820   29.2370   45.1500 C   0  0  0  0  0  0  0  0  0  0  0  0
   55.1440   28.9830   44.8730 O   0  0  0  0  0  0  0  0  0  0  0  0
   57.0800   30.4140   44.6910 C   0  0  0  0  0  0  0  0  0  0  0  0
   56.4889   31.1414   44.1153 H   0  0  0  0  0  0  0  0  0  0  0  0
   58.4280   30.6690   44.9620 C   0  0  0  0  0  0  0  0  0  0  0  0
   58.8909   31.6029   44.6107 H   0  0  0  0  0  0  0  0  0  0  0  0
  1  2  1  0
  2  3  2  0
  3  4  1  0
  4  5  2  0
  5  6  1  0
  5  7  1  0
  7  8  2  0
  8  9  1  0
  8 10  1  0
 10 11  1  0
 10 12  2  0
 12 13  1  0
 12 14  1  0
 14 15  1  0
 14 16  2  0
 16 17  1  0
  3 18  1  0
 18 19  2  0
 18 20  1  0
 20 21  1  0
 21 22  1  0
 21 23  1  0
 21 24  1  0
 24 25  2  0
 25 26  1  0
 25 27  1  0
 27 28  1  0
 27 29  2  0
 29 30  1  0
 29 31  1  0
 31 32  1  0
 31 33  2  0
 33 34  1  0
  2 35  1  0
 35 36  2  0
 36 37  1  0
 36 38  1  0
 38 39  1  0
 38 40  2  0
 40 41  1  0
 40 42  1  0
 42 43  1  0
 42 44  2  0
 44 45  1  0
 16  7  1  0
 33 24  1  0
 44 35  1  0
M  CHG  2  20  -1  41  -1
M  END
>  <UniqueID>  (51) 
51

>  <SMILES>  (51) 
O=C([N-]Cc1ccccc1)C(=Cc1ccc([O-])cc1)/N=C/c1ccccc1

>  <Energy>  (51) 
54.248328184506626

>  <Genealogy>  (51) 
O=C([N-]Cc1ccccc1)C(=Cc1ccc([O-])cc1)N=Cc1ccccc1 (protonated)
O=C([N-]Cc1ccccc1)C(=Cc1ccc([O-])cc1)/N=C/c1ccccc1 (cis-trans isomerization)
O=C([N-]Cc1ccccc1)C(=Cc1ccc([O-])cc1)/N=C/c1ccccc1 (3D coordinates assigned)
O=C([N-]Cc1ccccc1)C(=Cc1ccc([O-])cc1)/N=C/c1ccccc1 (optimized conformer: 54.248328184506626 kcal/mol)

>  <smiles>  (51) 
O=C(NCc1ccccc1)C(=Cc1ccc(O)cc1)N=Cc1ccccc1

>  <score_type>  (51) 
oracle

>  <origin>  (51) 
adg

>  <m_score__min__energy>  (51) 
-12.27

>  <m_primary>  (51) 
energy

$$$$
51:0
     RDKit          3D

 65 69  0  0  0  0  0  0  0  0999 V2000
   58.5540   30.0820   48.3790 C   0  0  0  0  0  0  0  0  0  0  0  0
   58.4920   30.4850   47.1000 C   0  0  0  0  0  0  0  0  0  0  0  0
   58.3780   29.6570   45.9690 C   0  0  0  0  0  0  0  0  0  0  0  0
   58.4910   28.3210   45.8320 C   0  0  0  0  0  0  0  0  0  0  0  0
   57.4310   27.3340   46.0960 C   0  0  0  0  0  0  0  0  0  0  0  0
   57.6430   26.0870   46.5580 N   0  0  0  0  0  0  0  0  0  0  0  0
   56.4180   25.5200   46.4920 C   0  0  0  0  0  0  0  0  0  0  0  0
   56.1990   24.3350   46.8580 O   0  0  0  0  0  0  0  0  0  0  0  0
   55.4490   26.3190   45.9960 N   0  0  0  0  0  0  0  0  0  0  0  0
   56.1110   27.4580   45.7380 C   0  0  0  0  0  0  0  0  0  0  0  0
   55.5230   28.5850   45.1770 O   0  0  0  0  0  0  0  0  0  0  0  0
   58.1130   30.4920   44.9010 C   0  0  0  0  0  0  0  0  0  0  0  0
   58.1500   31.7840   45.3820 C   0  0  0  0  0  0  0  0  0  0  0  0
   57.8870   32.9960   44.5410 C   0  0  0  0  0  0  0  0  0  0  0  0
   58.3810   31.7900   46.7170 N   0  0  0  0  0  0  0  0  0  0  0  0
   58.4160   32.9950   47.5650 C   0  0  0  0  0  0  0  0  0  0  0  0
   59.7600   33.1450   48.2320 C   0  0  0  0  0  0  0  0  0  0  0  0
   59.8550   33.2160   49.6310 C   0  0  0  0  0  0  0  0  0  0  0  0
   61.1020   33.3320   50.2520 C   0  0  0  0  0  0  0  0  0  0  0  0
   62.2760   33.3930   49.4830 C   0  0  0  0  0  0  0  0  0  0  0  0
   63.6040   33.4860   50.1310 C   0  0  0  0  0  0  0  0  0  0  0  0
   64.0020   34.6070   50.5500 O   0  0  0  0  0  0  0  0  0  0  0  0
   64.4560   32.3330   50.2880 N   0  0  0  0  0  0  0  0  0  0  0  0
   63.8920   31.0020   50.5560 C   0  0  0  0  0  0  0  0  0  0  0  0
   64.6940   30.2480   51.6420 C   0  0  0  0  0  0  0  0  0  0  0  0
   66.0790   30.7550   51.8200 N   0  0  0  0  0  0  0  0  0  0  0  0
   66.9510   29.7340   52.4370 C   0  0  0  0  0  0  0  0  0  0  0  0
   66.9470   28.4670   51.6210 C   0  0  0  0  0  0  0  0  0  0  0  0
   67.8380   28.3210   50.5440 C   0  0  0  0  0  0  0  0  0  0  0  0
   67.8520   27.1400   49.7980 C   0  0  0  0  0  0  0  0  0  0  0  0
   66.9810   26.0960   50.1220 C   0  0  0  0  0  0  0  0  0  0  0  0
   66.0890   26.2340   51.1890 C   0  0  0  0  0  0  0  0  0  0  0  0
   66.0710   27.4140   51.9400 C   0  0  0  0  0  0  0  0  0  0  0  0
   66.6490   31.2260   50.5470 C   0  0  0  0  0  0  0  0  0  0  0  0
   65.9050   32.4900   50.1180 C   0  0  0  0  0  0  0  0  0  0  0  0
   62.1810   33.3130   48.0840 C   0  0  0  0  0  0  0  0  0  0  0  0
   60.9330   33.1950   47.4640 C   0  0  0  0  0  0  0  0  0  0  0  0
   58.6429   30.8243   49.1859 H   0  0  0  0  0  0  0  0  0  0  0  0
   58.5159   29.0094   48.6202 H   0  0  0  0  0  0  0  0  0  0  0  0
   59.4627   27.9331   45.4924 H   0  0  0  0  0  0  0  0  0  0  0  0
   57.9109   30.1849   43.8642 H   0  0  0  0  0  0  0  0  0  0  0  0
   57.6992   33.8614   45.1936 H   0  0  0  0  0  0  0  0  0  0  0  0
   58.7621   33.1986   43.9060 H   0  0  0  0  0  0  0  0  0  0  0  0
   57.0066   32.8177   43.9060 H   0  0  0  0  0  0  0  0  0  0  0  0
   58.2228   33.8801   46.9411 H   0  0  0  0  0  0  0  0  0  0  0  0
   57.6458   32.8986   48.3444 H   0  0  0  0  0  0  0  0  0  0  0  0
   58.9416   33.1801   50.2428 H   0  0  0  0  0  0  0  0  0  0  0  0
   61.1643   33.3758   51.3494 H   0  0  0  0  0  0  0  0  0  0  0  0
   62.8524   31.1175   50.8966 H   0  0  0  0  0  0  0  0  0  0  0  0
   63.9399   30.4162   49.6262 H   0  0  0  0  0  0  0  0  0  0  0  0
   64.1616   30.3480   52.5994 H   0  0  0  0  0  0  0  0  0  0  0  0
   64.7741   29.2010   51.3143 H   0  0  0  0  0  0  0  0  0  0  0  0
   67.9782   30.1233   52.4945 H   0  0  0  0  0  0  0  0  0  0  0  0
   66.5721   29.5072   53.4445 H   0  0  0  0  0  0  0  0  0  0  0  0
   68.5267   29.1395   50.2876 H   0  0  0  0  0  0  0  0  0  0  0  0
   68.5495   27.0315   48.9544 H   0  0  0  0  0  0  0  0  0  0  0  0
   66.9976   25.1648   49.5366 H   0  0  0  0  0  0  0  0  0  0  0  0
   65.4001   25.4136   51.4386 H   0  0  0  0  0  0  0  0  0  0  0  0
   65.3704   27.5185   52.7816 H   0  0  0  0  0  0  0  0  0  0  0  0
   67.7173   31.4520   50.6803 H   0  0  0  0  0  0  0  0  0  0  0  0
   66.5430   30.4478   49.7769 H   0  0  0  0  0  0  0  0  0  0  0  0
   66.2493   33.3354   50.7318 H   0  0  0  0  0  0  0  0  0  0  0  0
   66.1141   32.6746   49.0540 H   0  0  0  0  0  0  0  0  0  0  0  0
   63.0944   33.3434   47.4718 H   0  0  0  0  0  0  0  0  0  0  0  0
   60.8707   33.1410   46.3671 H   0  0  0  0  0  0  0  0  0  0  0  0
  1  2  2  0
  2  3  1  0
  3  4  2  3
  4  5  1  0
  5  6  1  0
  6  7  1  0
  7  8  2  0
  7  9  1  0
  9 10  1  0
 10 11  1  0
  3 12  1  0
 12 13  2  0
 13 14  1  0
 13 15  1  0
 15 16  1  0
 16 17  1  0
 17 18  2  0
 18 19  1  0
 19 20  2  0
 20 21  1  0
 21 22  2  0
 21 23  1  0
 23 24  1  0
 24 25  1  0
 25 26  1  0
 26 27  1  0
 27 28  1  0
 28 29  2  0
 29 30  1  0
 30 31  2  0
 31 32  1  0
 32 33  2  0
 26 34  1  0
 34 35  1  0
 20 36  1  0
 36 37  2  0
 15  2  1  0
 37 17  1  0
 10  5  2  0
 35 23  1  0
 33 28  1  0
  1 38  1  0
  1 39  1  0
  4 40  1  0
 12 41  1  0
 14 42  1  0
 14 43  1  0
 14 44  1  0
 16 45  1  0
 16 46  1  0
 18 47  1  0
 19 48  1  0
 24 49  1  0
 24 50  1  0
 25 51  1  0
 25 52  1  0
 27 53  1  0
 27 54  1  0
 29 55  1  0
 30 56  1  0
 31 57  1  0
 32 58  1  0
 33 59  1  0
 34 60  1  0
 34 61  1  0
 35 62  1  0
 35 63  1  0
 36 64  1  0
 37 65  1  0
M  CHG  3   6  -1   9  -1  11  -1
M  END
>  <UniqueID>  (52) 
52

>  <SMILES>  (52) 
C=c1c(=Cc2[n-]c(=O)[n-]c2[O-])cc(C)n1Cc1ccc(C(=O)N2CCN(Cc3ccccc3)CC2)cc1

>  <Energy>  (52) 
149.12528376635362

>  <Genealogy>  (52) 
C=c1c(=Cc2[n-]c(=O)[n-]c2[O-])cc(C)n1Cc1ccc(C(=O)N2CCN(Cc3ccccc3)CC2)cc1 (protonated)
C=c1c(=Cc2[n-]c(=O)[n-]c2[O-])cc(C)n1Cc1ccc(C(=O)N2CCN(Cc3ccccc3)CC2)cc1 (3D coordinates assigned)
C=c1c(=Cc2[n-]c(=O)[n-]c2[O-])cc(C)n1Cc1ccc(C(=O)N2CCN(Cc3ccccc3)CC2)cc1 (nonaromatic ring conformer: 149.12528376635362 kcal/mol)

>  <smiles>  (52) 
C=c1c(=Cc2[nH]c(=O)[nH]c2O)cc(C)n1Cc1ccc(C(=O)N2CCN(Cc3ccccc3)CC2)cc1

>  <score_type>  (52) 
oracle

>  <origin>  (52) 
adg

>  <m_score__min__energy>  (52) 
-17.379999999999999

>  <m_primary>  (52) 
energy

$$$$
52:0
     RDKit          3D

 50 51  0  0  0  0  0  0  0  0999 V2000
   54.7320   29.0780   44.8710 H   0  0  0  0  0  0  0  0  0  0  0  0
   55.7690   29.2300   44.9260 N   0  0  0  0  0  0  0  0  0  0  0  0
   56.6280   28.2880   45.5720 C   0  0  0  0  0  0  0  0  0  0  0  0
   56.2800   27.0810   45.6460 O   0  0  0  0  0  0  0  0  0  0  0  0
   57.8790   28.6990   46.1400 N   0  0  0  0  0  0  0  0  0  0  0  0
   58.1970   28.6010   47.5610 C   0  0  0  0  0  0  0  0  0  0  0  0
   57.2900   28.8076   48.1480 H   0  0  0  0  0  0  0  0  0  0  0  0
   58.5667   27.5861   47.7690 H   0  0  0  0  0  0  0  0  0  0  0  0
   59.2830   29.6050   47.9480 C   0  0  0  0  0  0  0  0  0  0  0  0
   60.2446   29.2922   47.5149 H   0  0  0  0  0  0  0  0  0  0  0  0
   59.0191   30.6015   47.5643 H   0  0  0  0  0  0  0  0  0  0  0  0
   59.3950   29.6530   49.4020 N   0  0  0  0  0  0  0  0  0  0  0  0
   58.4850   30.3310   50.2800 C   0  0  0  0  0  0  0  0  0  0  0  0
   57.8960   31.3590   49.8520 O   0  0  0  0  0  0  0  0  0  0  0  0
   58.2310   29.8710   51.6670 C   0  0  0  0  0  0  0  0  0  0  0  0
   57.0050   29.5910   52.0140 N   0  0  0  0  0  0  0  0  0  0  0  0
   55.9290   30.5090   52.2510 C   0  0  0  0  0  0  0  0  0  0  0  0
   55.8340   31.5300   51.5160 O   0  0  0  0  0  0  0  0  0  0  0  0
   55.0840   30.4020   53.4960 C   0  0  0  0  0  0  0  0  0  0  0  0
   55.6636   29.8728   54.2667 H   0  0  0  0  0  0  0  0  0  0  0  0
   54.8244   31.4262   53.8021 H   0  0  0  0  0  0  0  0  0  0  0  0
   53.7630   29.6450   53.2730 C   0  0  0  0  0  0  0  0  0  0  0  0
   53.9927   28.6312   52.9131 H   0  0  0  0  0  0  0  0  0  0  0  0
   53.2244   29.6187   54.2318 H   0  0  0  0  0  0  0  0  0  0  0  0
   52.8750   30.3280   52.2640 C   0  0  0  0  0  0  0  0  0  0  0  0
   52.8210   29.8580   50.9400 C   0  0  0  0  0  0  0  0  0  0  0  0
   53.3881   28.9600   50.6537 H   0  0  0  0  0  0  0  0  0  0  0  0
   52.0490   30.5280   49.9860 C   0  0  0  0  0  0  0  0  0  0  0  0
   52.0118   30.1574   48.9510 H   0  0  0  0  0  0  0  0  0  0  0  0
   51.3250   31.6670   50.3450 C   0  0  0  0  0  0  0  0  0  0  0  0
   50.5700   32.3350   49.3870 O   0  0  0  0  0  0  0  0  0  0  0  0
   51.3640   32.1350   51.6640 C   0  0  0  0  0  0  0  0  0  0  0  0
   50.6420   33.2660   52.0260 O   0  0  0  0  0  0  0  0  0  0  0  0
   52.1360   31.4680   52.6200 C   0  0  0  0  0  0  0  0  0  0  0  0
   52.1647   31.8378   53.6556 H   0  0  0  0  0  0  0  0  0  0  0  0
   59.4140   29.5850   52.5700 C   0  0  0  0  0  0  0  0  0  0  0  0
   59.1465   28.7726   53.2617 H   0  0  0  0  0  0  0  0  0  0  0  0
   60.2673   29.2987   51.9376 H   0  0  0  0  0  0  0  0  0  0  0  0
   59.8100   30.8030   53.3740 C   0  0  0  0  0  0  0  0  0  0  0  0
   59.3040   32.0650   53.0160 C   0  0  0  0  0  0  0  0  0  0  0  0
   58.6039   32.1525   52.1721 H   0  0  0  0  0  0  0  0  0  0  0  0
   59.6840   33.2120   53.7250 C   0  0  0  0  0  0  0  0  0  0  0  0
   59.1820   34.4610   53.3710 O   0  0  0  0  0  0  0  0  0  0  0  0
   58.3520   34.5530   52.7960 H   0  0  0  0  0  0  0  0  0  0  0  0
   60.5760   33.1040   54.7960 C   0  0  0  0  0  0  0  0  0  0  0  0
   60.8812   34.0042   55.3495 H   0  0  0  0  0  0  0  0  0  0  0  0
   61.0800   31.8550   55.1640 C   0  0  0  0  0  0  0  0  0  0  0  0
   61.7758   31.7742   56.0122 H   0  0  0  0  0  0  0  0  0  0  0  0
   60.7050   30.7060   54.4600 C   0  0  0  0  0  0  0  0  0  0  0  0
   61.2270   29.4770   54.8500 O   0  0  0  0  0  0  0  0  0  0  0  0
  1  2  1  0
  2  3  1  0
  3  4  2  0
  3  5  1  0
  5  6  1  0
  6  7  1  0
  6  8  1  0
  6  9  1  0
  9 10  1  0
  9 11  1  0
  9 12  1  0
 12 13  1  0
 13 14  2  0
 13 15  1  0
 15 16  2  0
 16 17  1  0
 17 18  2  0
 17 19  1  0
 19 20  1  0
 19 21  1  0
 19 22  1  0
 22 23  1  0
 22 24  1  0
 22 25  1  0
 25 26  2  0
 26 27  1  0
 26 28  1  0
 28 29  1  0
 28 30  2  0
 30 31  1  0
 30 32  1  0
 32 33  1  0
 32 34  2  0
 34 35  1  0
 15 36  1  0
 36 37  1  0
 36 38  1  0
 36 39  1  0
 39 40  2  0
 40 41  1  0
 40 42  1  0
 42 43  1  0
 43 44  1  0
 42 45  2  0
 45 46  1  0
 45 47  1  0
 47 48  1  0
 47 49  2  0
 49 50  1  0
 34 25  1  0
 49 39  1  0
M  CHG  6   2  -1   5  -1  12  -1  31  -1  33  -1  50  -1
M  END
>  <UniqueID>  (53) 
53

>  <SMILES>  (53) 
[NH-]C(=O)[N-]CC[N-]C(=O)/C(Cc1cc(O)ccc1[O-])=N/C(=O)CCc1ccc([O-])c([O-])c1

>  <Energy>  (53) 
50.66256797151131

>  <Genealogy>  (53) 
[NH-]C(=O)[N-]CC[N-]C(=O)C(Cc1cc(O)ccc1[O-])=NC(=O)CCc1ccc([O-])c([O-])c1 (protonated)
[NH-]C(=O)[N-]CC[N-]C(=O)/C(Cc1cc(O)ccc1[O-])=N/C(=O)CCc1ccc([O-])c([O-])c1 (cis-trans isomerization)
[NH-]C(=O)[N-]CC[N-]C(=O)/C(Cc1cc(O)ccc1[O-])=N/C(=O)CCc1ccc([O-])c([O-])c1 (3D coordinates assigned)
[NH-]C(=O)[N-]CC[N-]C(=O)/C(Cc1cc(O)ccc1[O-])=N/C(=O)CCc1ccc([O-])c([O-])c1 (optimized conformer: 50.66256797151131 kcal/mol)

>  <smiles>  (53) 
NC(=O)NCCNC(=O)C(Cc1cc(O)ccc1O)=NC(=O)CCc1ccc(O)c(O)c1

>  <score_type>  (53) 
oracle

>  <origin>  (53) 
adg

>  <m_score__min__energy>  (53) 
-20.760000000000002

>  <m_primary>  (53) 
energy

$$$$
53:0
     RDKit          3D

 52 54  0  0  0  0  0  0  0  0999 V2000
   60.0970   26.9440   45.7680 H   0  0  0  0  0  0  0  0  0  0  0  0
   59.4850   27.0820   44.9740 O   0  0  0  0  0  0  0  0  0  0  0  0
   58.1290   27.3570   45.1390 C   0  0  0  0  0  0  0  0  0  0  0  0
   57.2070   26.5310   45.7450 C   0  0  0  0  0  0  0  0  0  0  0  0
   57.4850   25.2250   46.2630 N   0  0  0  0  0  0  0  0  0  0  0  0
   58.8740   24.7520   46.2920 C   0  0  0  0  0  0  0  0  0  0  0  0
   59.5161   25.4818   45.7771 H   0  0  0  0  0  0  0  0  0  0  0  0
   59.1912   24.6416   47.3395 H   0  0  0  0  0  0  0  0  0  0  0  0
   58.9910   23.4000   45.5950 C   0  0  0  0  0  0  0  0  0  0  0  0
   59.0600   22.6030   46.3500 H   0  0  0  0  0  0  0  0  0  0  0  0
   58.1039   23.2336   44.9662 H   0  0  0  0  0  0  0  0  0  0  0  0
   59.8935   23.3885   44.9662 H   0  0  0  0  0  0  0  0  0  0  0  0
   56.4130   24.4840   46.9400 C   0  0  0  0  0  0  0  0  0  0  0  0
   56.8361   23.5809   47.4040 H   0  0  0  0  0  0  0  0  0  0  0  0
   55.9645   25.1334   47.7063 H   0  0  0  0  0  0  0  0  0  0  0  0
   55.3290   24.0760   45.9490 C   0  0  0  0  0  0  0  0  0  0  0  0
   54.4372   23.7404   46.4986 H   0  0  0  0  0  0  0  0  0  0  0  0
   55.0674   24.9372   45.3166 H   0  0  0  0  0  0  0  0  0  0  0  0
   55.7001   23.2560   45.3166 H   0  0  0  0  0  0  0  0  0  0  0  0
   55.9980   27.1220   45.8330 N   0  0  0  0  0  0  0  0  0  0  0  0
   56.1670   28.3300   45.2560 C   0  0  0  0  0  0  0  0  0  0  0  0
   55.1470   29.2670   45.1460 O   0  0  0  0  0  0  0  0  0  0  0  0
   57.4550   28.5100   44.7910 C   0  0  0  0  0  0  0  0  0  0  0  0
   57.9870   29.7250   44.1480 C   0  0  0  0  0  0  0  0  0  0  0  0
   58.4090   29.6364   43.1360 H   0  0  0  0  0  0  0  0  0  0  0  0
   57.9840   30.9390   44.7340 C   0  0  0  0  0  0  0  0  0  0  0  0
   57.5580   32.1220   44.1510 C   0  0  0  0  0  0  0  0  0  0  0  0
   57.1820   32.2506   43.1253 H   0  0  0  0  0  0  0  0  0  0  0  0
   57.6970   33.1060   45.1060 C   0  0  0  0  0  0  0  0  0  0  0  0
   57.2970   34.5360   44.8970 C   0  0  0  0  0  0  0  0  0  0  0  0
   57.1603   35.0249   45.8729 H   0  0  0  0  0  0  0  0  0  0  0  0
   58.0836   35.0580   44.3324 H   0  0  0  0  0  0  0  0  0  0  0  0
   56.3537   34.5741   44.3324 H   0  0  0  0  0  0  0  0  0  0  0  0
   58.1680   32.5870   46.2670 N   0  0  0  0  0  0  0  0  0  0  0  0
   58.4120   33.3560   47.5000 C   0  0  0  0  0  0  0  0  0  0  0  0
   58.1305   34.4058   47.3308 H   0  0  0  0  0  0  0  0  0  0  0  0
   57.8080   32.9207   48.3098 H   0  0  0  0  0  0  0  0  0  0  0  0
   59.8670   33.2930   47.8980 C   0  0  0  0  0  0  0  0  0  0  0  0
   60.2220   32.9820   49.2230 C   0  0  0  0  0  0  0  0  0  0  0  0
   59.4364   32.7935   49.9695 H   0  0  0  0  0  0  0  0  0  0  0  0
   61.5670   32.9110   49.5970 C   0  0  0  0  0  0  0  0  0  0  0  0
   61.8360   32.6627   50.6343 H   0  0  0  0  0  0  0  0  0  0  0  0
   62.5710   33.1550   48.6550 C   0  0  0  0  0  0  0  0  0  0  0  0
   64.4080   33.0570   49.1690 Br  0  0  0  0  0  0  0  0  0  0  0  0
   62.2280   33.4740   47.3380 C   0  0  0  0  0  0  0  0  0  0  0  0
   63.0182   33.6700   46.5983 H   0  0  0  0  0  0  0  0  0  0  0  0
   60.8840   33.5450   46.9570 C   0  0  0  0  0  0  0  0  0  0  0  0
   60.5790   33.8650   45.6750 F   0  0  0  0  0  0  0  0  0  0  0  0
   58.3500   31.2540   46.0480 C   0  0  0  0  0  0  0  0  0  0  0  0
   58.8200   30.3830   46.9570 C   0  0  0  0  0  0  0  0  0  0  0  0
   59.0807   30.7300   47.9678 H   0  0  0  0  0  0  0  0  0  0  0  0
   58.9440   29.3230   46.6903 H   0  0  0  0  0  0  0  0  0  0  0  0
  1  2  1  0
  2  3  1  0
  3  4  2  0
  4  5  1  0
  5  6  1  0
  6  7  1  0
  6  8  1  0
  6  9  1  0
  9 10  1  0
  9 11  1  0
  9 12  1  0
  5 13  1  0
 13 14  1  0
 13 15  1  0
 13 16  1  0
 16 17  1  0
 16 18  1  0
 16 19  1  0
  4 20  1  0
 20 21  1  0
 21 22  1  0
 21 23  2  0
 23 24  1  0
 24 25  1  0
 24 26  2  0
 26 27  1  0
 27 28  1  0
 27 29  2  0
 29 30  1  0
 30 31  1  0
 30 32  1  0
 30 33  1  0
 29 34  1  0
 34 35  1  0
 35 36  1  0
 35 37  1  0
 35 38  1  0
 38 39  2  0
 39 40  1  0
 39 41  1  0
 41 42  1  0
 41 43  2  0
 43 44  1  0
 43 45  1  0
 45 46  1  0
 45 47  2  0
 47 48  1  0
 34 49  1  0
 49 50  2  0
 50 51  1  0
 50 52  1  0
 23  3  1  0
 49 26  1  0
 47 38  1  0
M  CHG  2  20  -1  22  -1
M  END
>  <UniqueID>  (54) 
54

>  <SMILES>  (54) 
C=c1/c(=C/c2c([O-])[n-]c(N(CC)CC)c2O)cc(C)n1Cc1ccc(Br)cc1F

>  <Energy>  (54) 
115.66689171121082

>  <Genealogy>  (54) 
C=c1c(=Cc2c([O-])[n-]c(N(CC)CC)c2O)cc(C)n1Cc1ccc(Br)cc1F (protonated)
C=c1/c(=C/c2c([O-])[n-]c(N(CC)CC)c2O)cc(C)n1Cc1ccc(Br)cc1F (cis-trans isomerization)
C=c1/c(=C/c2c([O-])[n-]c(N(CC)CC)c2O)cc(C)n1Cc1ccc(Br)cc1F (3D coordinates assigned)
C=c1/c(=C/c2c([O-])[n-]c(N(CC)CC)c2O)cc(C)n1Cc1ccc(Br)cc1F (optimized conformer: 115.66689171121082 kcal/mol)

>  <smiles>  (54) 
C=c1c(=Cc2c(O)[nH]c(N(CC)CC)c2O)cc(C)n1Cc1ccc(Br)cc1F

>  <score_type>  (54) 
oracle

>  <origin>  (54) 
adg

>  <m_score__min__energy>  (54) 
-13.25

>  <m_primary>  (54) 
energy

$$$$
54:0
     RDKit          3D

 56 59  0  0  0  0  0  0  0  0999 V2000
   56.7210   19.9280   43.3500 H   0  0  0  0  0  0  0  0  0  0  0  0
   56.3320   20.8980   43.3700 N   0  0  0  0  0  0  0  0  0  0  0  0
   57.0430   21.9000   43.7770 C   0  0  0  0  0  0  0  0  0  0  0  0
   56.5730   23.5790   43.3430 S   0  0  0  0  0  0  0  0  0  0  0  0
   55.6830   23.9070   44.9050 C   0  0  0  0  0  0  0  0  0  0  0  0
   54.7773   24.4916   44.6862 H   0  0  0  0  0  0  0  0  0  0  0  0
   55.4201   22.9433   45.3656 H   0  0  0  0  0  0  0  0  0  0  0  0
   56.5410   24.6750   45.8660 C   0  0  0  0  0  0  0  0  0  0  0  0
   57.1770   25.8200   45.5490 N   0  0  0  0  0  0  0  0  0  0  0  0
   57.7950   26.1640   46.7020 C   0  0  0  0  0  0  0  0  0  0  0  0
   58.6310   27.3720   46.8550 C   0  0  0  0  0  0  0  0  0  0  0  0
   58.4520   28.4780   46.0080 C   0  0  0  0  0  0  0  0  0  0  0  0
   57.6857   28.4450   45.2195 H   0  0  0  0  0  0  0  0  0  0  0  0
   59.2430   29.6210   46.1620 C   0  0  0  0  0  0  0  0  0  0  0  0
   59.1016   30.4772   45.4860 H   0  0  0  0  0  0  0  0  0  0  0  0
   60.2170   29.6850   47.1730 C   0  0  0  0  0  0  0  0  0  0  0  0
   61.0390   30.9050   47.3370 C   0  0  0  0  0  0  0  0  0  0  0  0
   61.1630   31.7030   46.3680 O   0  0  0  0  0  0  0  0  0  0  0  0
   61.6720   31.2000   48.5940 N   0  0  0  0  0  0  0  0  0  0  0  0
   61.3720   30.6630   49.4390 H   0  0  0  0  0  0  0  0  0  0  0  0
   62.5080   32.3880   48.7880 C   0  0  2  0  0  0  0  0  0  0  0  0
   62.9836   32.6697   47.8370 H   0  0  0  0  0  0  0  0  0  0  0  0
   63.5880   32.0830   49.7930 C   0  0  0  0  0  0  0  0  0  0  0  0
   64.4429   32.7667   49.9012 H   0  0  0  0  0  0  0  0  0  0  0  0
   63.5200   31.0790   50.4900 O   0  0  0  0  0  0  0  0  0  0  0  0
   61.6350   33.5620   49.2610 C   0  0  0  0  0  0  0  0  0  0  0  0
   61.6785   33.6181   50.3587 H   0  0  0  0  0  0  0  0  0  0  0  0
   62.0234   34.4830   48.8017 H   0  0  0  0  0  0  0  0  0  0  0  0
   60.2020   33.3990   48.8390 C   0  0  0  0  0  0  0  0  0  0  0  0
   59.2000   32.7430   49.5500 C   0  0  0  0  0  0  0  0  0  0  0  0
   59.3235   32.3084   50.5529 H   0  0  0  0  0  0  0  0  0  0  0  0
   58.0540   32.7160   48.8330 N   0  0  0  0  0  0  0  0  0  0  0  0
   57.1480   32.2800   49.1170 H   0  0  0  0  0  0  0  0  0  0  0  0
   58.3270   33.3400   47.6720 C   0  0  0  0  0  0  0  0  0  0  0  0
   57.4630   33.5400   46.5950 C   0  0  0  0  0  0  0  0  0  0  0  0
   56.4215   33.1878   46.6304 H   0  0  0  0  0  0  0  0  0  0  0  0
   57.9660   34.2070   45.4610 C   0  0  0  0  0  0  0  0  0  0  0  0
   57.3082   34.3893   44.5984 H   0  0  0  0  0  0  0  0  0  0  0  0
   59.3100   34.6440   45.4230 C   0  0  0  0  0  0  0  0  0  0  0  0
   59.6923   35.1616   44.5308 H   0  0  0  0  0  0  0  0  0  0  0  0
   60.1610   34.4200   46.5210 C   0  0  0  0  0  0  0  0  0  0  0  0
   61.2103   34.7496   46.5023 H   0  0  0  0  0  0  0  0  0  0  0  0
   59.6310   33.7660   47.6350 C   0  0  0  0  0  0  0  0  0  0  0  0
   60.4020   28.5720   48.0090 C   0  0  0  0  0  0  0  0  0  0  0  0
   61.1720   28.6015   48.7940 H   0  0  0  0  0  0  0  0  0  0  0  0
   59.6160   27.4270   47.8520 C   0  0  0  0  0  0  0  0  0  0  0  0
   59.7710   26.5630   48.5149 H   0  0  0  0  0  0  0  0  0  0  0  0
   57.5670   25.3060   47.6760 O   0  0  0  0  0  0  0  0  0  0  0  0
   56.7920   24.3700   47.1880 C   0  0  0  0  0  0  0  0  0  0  0  0
   56.2770   23.2050   47.9690 C   0  0  0  0  0  0  0  0  0  0  0  0
   56.3698   23.4149   49.0448 H   0  0  0  0  0  0  0  0  0  0  0  0
   55.2196   23.0343   47.7186 H   0  0  0  0  0  0  0  0  0  0  0  0
   56.8625   22.3081   47.7186 H   0  0  0  0  0  0  0  0  0  0  0  0
   58.2180   21.6720   44.5540 N   0  0  0  0  0  0  0  0  0  0  0  0
   58.5240   20.7000   44.7880 H   0  0  0  0  0  0  0  0  0  0  0  0
   58.8130   22.4750   44.8520 H   0  0  0  0  0  0  0  0  0  0  0  0
  1  2  1  0
  2  3  2  0
  3  4  1  0
  4  5  1  0
  5  6  1  0
  5  7  1  0
  5  8  1  0
  8  9  1  0
  9 10  2  0
 10 11  1  0
 11 12  2  0
 12 13  1  0
 12 14  1  0
 14 15  1  0
 14 16  2  0
 16 17  1  0
 17 18  2  0
 17 19  1  0
 19 20  1  0
 19 21  1  0
 21 22  1  6
 21 23  1  0
 23 24  1  0
 23 25  2  0
 21 26  1  0
 26 27  1  0
 26 28  1  0
 26 29  1  0
 29 30  2  0
 30 31  1  0
 30 32  1  0
 32 33  1  0
 32 34  1  0
 34 35  2  0
 35 36  1  0
 35 37  1  0
 37 38  1  0
 37 39  2  0
 39 40  1  0
 39 41  1  0
 41 42  1  0
 41 43  2  0
 16 44  1  0
 44 45  1  0
 44 46  2  0
 46 47  1  0
 10 48  1  0
 48 49  1  0
 49 50  1  0
 50 51  1  0
 50 52  1  0
 50 53  1  0
  3 54  1  0
 54 55  1  0
 54 56  1  0
 49  8  2  0
 46 11  1  0
 43 29  1  0
 43 34  1  0
M  END
>  <UniqueID>  (55) 
55

>  <SMILES>  (55) 
[H]/N=C(/N)SCc1nc(-c2ccc(C(=O)N[C@H](C=O)Cc3c[nH]c4ccccc34)cc2)oc1C

>  <Energy>  (55) 
112.65136957383284

>  <Genealogy>  (55) 
Cc1oc(-c2ccc(C(=O)N[C@H](C=O)Cc3c[nH]c4ccccc34)cc2)nc1CSC(=N)N (chirality)
[H]/N=C(/N)SCc1nc(-c2ccc(C(=O)N[C@H](C=O)Cc3c[nH]c4ccccc34)cc2)oc1C (cis-trans isomerization)
[H]/N=C(/N)SCc1nc(-c2ccc(C(=O)N[C@H](C=O)Cc3c[nH]c4ccccc34)cc2)oc1C (3D coordinates assigned)
[H]/N=C(/N)SCc1nc(-c2ccc(C(=O)N[C@H](C=O)Cc3c[nH]c4ccccc34)cc2)oc1C (optimized conformer: 112.65136957383284 kcal/mol)

>  <smiles>  (55) 
Cc1oc(-c2ccc(C(=O)NC(C=O)Cc3c[nH]c4ccccc34)cc2)nc1CSC(=N)N

>  <score_type>  (55) 
oracle

>  <origin>  (55) 
adg

>  <m_score__min__energy>  (55) 
-10.210000000000001

>  <m_primary>  (55) 
energy

$$$$
55:0
     RDKit          3D

 46 48  0  0  0  0  0  0  0  0999 V2000
   54.4130   29.3720   43.4070 O   0  0  0  0  0  0  0  0  0  0  0  0
   55.4970   29.5950   44.0070 C   0  0  0  0  0  0  0  0  0  0  0  0
   56.5140   30.5010   43.3730 C   0  0  0  0  0  0  0  0  0  0  0  0
   57.2430   31.2500   44.3960 N   0  0  0  0  0  0  0  0  0  0  0  0
   57.9390   32.4650   44.0830 C   0  0  0  0  0  0  0  0  0  0  0  0
   58.0970   32.8000   42.8780 O   0  0  0  0  0  0  0  0  0  0  0  0
   58.4990   33.3170   45.1570 C   0  0  0  0  0  0  0  0  0  0  0  0
   59.1020   34.5490   44.8550 C   0  0  0  0  0  0  0  0  0  0  0  0
   59.6280   35.3460   45.8740 C   0  0  0  0  0  0  0  0  0  0  0  0
   59.5510   34.9260   47.2020 C   0  0  0  0  0  0  0  0  0  0  0  0
   58.9500   33.7050   47.5270 C   0  0  0  0  0  0  0  0  0  0  0  0
   58.8630   33.3290   48.9080 N   0  0  0  0  0  0  0  0  0  0  0  0
   60.1890   32.7810   49.8810 S   0  0  0  0  0  0  0  0  0  0  0  0
   60.3290   33.6780   51.0800 O   0  0  0  0  0  0  0  0  0  0  0  0
   59.9100   31.3810   50.3460 O   0  0  0  0  0  0  0  0  0  0  0  0
   61.6670   32.7700   48.9220 C   0  0  0  0  0  0  0  0  0  0  0  0
   62.5350   33.8730   48.9260 C   0  0  0  0  0  0  0  0  0  0  0  0
   63.6900   33.8590   48.1370 C   0  0  0  0  0  0  0  0  0  0  0  0
   63.9830   32.7480   47.3440 C   0  0  0  0  0  0  0  0  0  0  0  0
   63.1240   31.6460   47.3390 C   0  0  0  0  0  0  0  0  0  0  0  0
   61.9670   31.6570   48.1250 C   0  0  0  0  0  0  0  0  0  0  0  0
   58.4410   32.8930   46.4960 C   0  0  0  0  0  0  0  0  0  0  0  0
   55.7500   28.9320   45.2500 N   0  0  0  0  0  0  0  0  0  0  0  0
   56.7370   27.8760   45.4320 C   0  0  0  0  0  0  0  0  0  0  0  0
   58.0960   28.4840   45.5400 C   0  0  0  0  0  0  0  0  0  0  0  0
   59.1320   28.3400   44.6270 C   0  0  0  0  0  0  0  0  0  0  0  0
   60.3110   28.9800   45.0260 C   0  0  0  0  0  0  0  0  0  0  0  0
   60.2100   29.6170   46.2550 C   0  0  0  0  0  0  0  0  0  0  0  0
   58.6520   29.3850   46.8450 S   0  0  0  0  0  0  0  0  0  0  0  0
   57.2254   29.8957   42.7920 H   0  0  0  0  0  0  0  0  0  0  0  0
   55.9943   31.2126   42.7145 H   0  0  0  0  0  0  0  0  0  0  0  0
   57.2880   30.8770   45.3730 H   0  0  0  0  0  0  0  0  0  0  0  0
   59.1603   34.8880   43.8101 H   0  0  0  0  0  0  0  0  0  0  0  0
   60.1040   36.3069   45.6289 H   0  0  0  0  0  0  0  0  0  0  0  0
   59.9659   35.5596   47.9998 H   0  0  0  0  0  0  0  0  0  0  0  0
   62.3067   34.7494   49.5503 H   0  0  0  0  0  0  0  0  0  0  0  0
   64.3685   34.7248   48.1414 H   0  0  0  0  0  0  0  0  0  0  0  0
   64.8907   32.7402   46.7227 H   0  0  0  0  0  0  0  0  0  0  0  0
   63.3577   30.7695   46.7168 H   0  0  0  0  0  0  0  0  0  0  0  0
   61.2907   30.7895   48.1175 H   0  0  0  0  0  0  0  0  0  0  0  0
   57.9939   31.9181   46.7402 H   0  0  0  0  0  0  0  0  0  0  0  0
   56.5108   27.3162   46.3515 H   0  0  0  0  0  0  0  0  0  0  0  0
   56.7070   27.1914   44.5715 H   0  0  0  0  0  0  0  0  0  0  0  0
   59.0359   27.7796   43.6853 H   0  0  0  0  0  0  0  0  0  0  0  0
   61.2307   28.9783   44.4226 H   0  0  0  0  0  0  0  0  0  0  0  0
   61.0119   30.1778   46.7574 H   0  0  0  0  0  0  0  0  0  0  0  0
  1  2  2  0
  2  3  1  0
  3  4  1  0
  4  5  1  0
  5  6  2  0
  5  7  1  0
  7  8  2  0
  8  9  1  0
  9 10  2  0
 10 11  1  0
 11 12  1  0
 12 13  1  0
 13 14  2  0
 13 15  2  0
 13 16  1  0
 16 17  2  0
 17 18  1  0
 18 19  2  0
 19 20  1  0
 20 21  2  0
 11 22  2  0
  2 23  1  0
 23 24  1  0
 24 25  1  0
 25 26  2  0
 26 27  1  0
 27 28  2  0
 28 29  1  0
 22  7  1  0
 29 25  1  0
 21 16  1  0
  3 30  1  0
  3 31  1  0
  4 32  1  0
  8 33  1  0
  9 34  1  0
 10 35  1  0
 17 36  1  0
 18 37  1  0
 19 38  1  0
 20 39  1  0
 21 40  1  0
 22 41  1  0
 24 42  1  0
 24 43  1  0
 26 44  1  0
 27 45  1  0
 28 46  1  0
M  CHG  2  12  -1  23  -1
M  END
>  <UniqueID>  (56) 
56

>  <SMILES>  (56) 
O=C(CNC(=O)c1cccc([N-]S(=O)(=O)c2ccccc2)c1)[N-]Cc1cccs1

>  <Energy>  (56) 
73.73630410567128

>  <Genealogy>  (56) 
O=C(CNC(=O)c1cccc([N-]S(=O)(=O)c2ccccc2)c1)[N-]Cc1cccs1 (protonated)
O=C(CNC(=O)c1cccc([N-]S(=O)(=O)c2ccccc2)c1)[N-]Cc1cccs1 (3D coordinates assigned)
O=C(CNC(=O)c1cccc([N-]S(=O)(=O)c2ccccc2)c1)[N-]Cc1cccs1 (optimized conformer: 73.73630410567128 kcal/mol)

>  <smiles>  (56) 
O=C(CNC(=O)c1cccc(NS(=O)(=O)c2ccccc2)c1)NCc1cccs1

>  <score_type>  (56) 
oracle

>  <origin>  (56) 
adg

>  <m_score__min__energy>  (56) 
-12.27

>  <m_primary>  (56) 
energy

$$$$
56:0
     RDKit          3D

 52 55  0  0  0  0  0  0  0  0999 V2000
   57.9864   31.8568   45.3619 H   0  0  0  0  0  0  0  0  0  0  0  0
   57.9870   30.7570   45.3850 C   0  0  0  0  0  0  0  0  0  0  0  0
   57.4297   30.1906   44.6243 H   0  0  0  0  0  0  0  0  0  0  0  0
   58.6690   30.1050   46.3430 C   0  0  0  0  0  0  0  0  0  0  0  0
   58.7620   28.7130   46.5000 C   0  0  0  0  0  0  0  0  0  0  0  0
   58.4080   27.7020   45.6830 C   0  0  0  0  0  0  0  0  0  0  0  0
   59.0813   27.4743   44.8434 H   0  0  0  0  0  0  0  0  0  0  0  0
   57.1970   26.8760   45.8180 C   0  0  0  0  0  0  0  0  0  0  0  0
   57.1760   25.6200   46.3030 N   0  0  0  0  0  0  0  0  0  0  0  0
   55.8570   25.3370   46.3780 C   0  0  0  0  0  0  0  0  0  0  0  0
   55.4230   24.2270   46.7830 O   0  0  0  0  0  0  0  0  0  0  0  0
   55.0380   26.3430   45.9970 N   0  0  0  0  0  0  0  0  0  0  0  0
   55.9040   27.3130   45.6600 C   0  0  0  0  0  0  0  0  0  0  0  0
   55.5200   28.5760   45.2290 O   0  0  0  0  0  0  0  0  0  0  0  0
   59.3490   28.5010   47.7340 C   0  0  0  0  0  0  0  0  0  0  0  0
   59.5358   27.5274   48.2107 H   0  0  0  0  0  0  0  0  0  0  0  0
   59.6560   29.7410   48.2540 C   0  0  0  0  0  0  0  0  0  0  0  0
   60.3280   29.9420   49.5570 C   0  0  0  0  0  0  0  0  0  0  0  0
   61.4710   29.4470   49.7490 O   0  0  0  0  0  0  0  0  0  0  0  0
   59.7200   30.7410   50.5890 N   0  0  0  0  0  0  0  0  0  0  0  0
   58.2960   30.6090   50.9100 C   0  0  0  0  0  0  0  0  0  0  0  0
   57.7626   30.1751   50.0514 H   0  0  0  0  0  0  0  0  0  0  0  0
   58.1701   29.9504   51.7820 H   0  0  0  0  0  0  0  0  0  0  0  0
   57.7270   31.9960   51.2210 C   0  0  0  0  0  0  0  0  0  0  0  0
   57.7854   32.6111   50.3109 H   0  0  0  0  0  0  0  0  0  0  0  0
   56.6887   31.8583   51.5571 H   0  0  0  0  0  0  0  0  0  0  0  0
   58.4590   32.6920   52.3110 N   0  0  0  0  0  0  0  0  0  0  0  0
   58.5410   34.1400   52.0570 C   0  0  0  0  0  0  0  0  0  0  0  0
   58.5715   34.6792   53.0153 H   0  0  0  0  0  0  0  0  0  0  0  0
   59.4531   34.3605   51.4830 H   0  0  0  0  0  0  0  0  0  0  0  0
   57.6597   34.4621   51.4830 H   0  0  0  0  0  0  0  0  0  0  0  0
   59.7880   32.1240   52.6450 C   0  0  0  0  0  0  0  0  0  0  0  0
   60.3880   32.9031   53.1379 H   0  0  0  0  0  0  0  0  0  0  0  0
   59.6192   31.2577   53.3015 H   0  0  0  0  0  0  0  0  0  0  0  0
   60.5560   31.6220   51.4110 C   0  0  0  0  0  0  0  0  0  0  0  0
   60.8688   32.4863   50.8068 H   0  0  0  0  0  0  0  0  0  0  0  0
   61.4318   31.0514   51.7538 H   0  0  0  0  0  0  0  0  0  0  0  0
   59.2490   30.7220   47.4110 N   0  0  0  0  0  0  0  0  0  0  0  0
   59.4270   32.1690   47.6260 C   0  0  0  0  0  0  0  0  0  0  0  0
   59.0670   32.7069   46.7366 H   0  0  0  0  0  0  0  0  0  0  0  0
   58.8545   32.4518   48.5217 H   0  0  0  0  0  0  0  0  0  0  0  0
   60.8760   32.5340   47.8640 C   0  0  0  0  0  0  0  0  0  0  0  0
   61.9240   31.8410   47.2250 C   0  0  0  0  0  0  0  0  0  0  0  0
   61.6932   31.0303   46.5183 H   0  0  0  0  0  0  0  0  0  0  0  0
   63.2550   32.1790   47.4850 C   0  0  0  0  0  0  0  0  0  0  0  0
   64.0672   31.6419   46.9732 H   0  0  0  0  0  0  0  0  0  0  0  0
   63.5570   33.1970   48.3930 C   0  0  0  0  0  0  0  0  0  0  0  0
   64.8490   33.5230   48.6420 F   0  0  0  0  0  0  0  0  0  0  0  0
   62.5260   33.8710   49.0510 C   0  0  0  0  0  0  0  0  0  0  0  0
   62.7637   34.6663   49.7728 H   0  0  0  0  0  0  0  0  0  0  0  0
   61.1930   33.5380   48.7950 C   0  0  0  0  0  0  0  0  0  0  0  0
   60.3866   34.0652   49.3257 H   0  0  0  0  0  0  0  0  0  0  0  0
  1  2  1  0
  2  3  1  0
  2  4  2  0
  4  5  1  0
  5  6  2  0
  6  7  1  0
  6  8  1  0
  8  9  1  0
  9 10  1  0
 10 11  2  0
 10 12  1  0
 12 13  1  0
 13 14  1  0
  5 15  1  0
 15 16  1  0
 15 17  2  0
 17 18  1  0
 18 19  2  0
 18 20  1  0
 20 21  1  0
 21 22  1  0
 21 23  1  0
 21 24  1  0
 24 25  1  0
 24 26  1  0
 24 27  1  0
 27 28  1  0
 28 29  1  0
 28 30  1  0
 28 31  1  0
 27 32  1  0
 32 33  1  0
 32 34  1  0
 32 35  1  0
 35 36  1  0
 35 37  1  0
 17 38  1  0
 38 39  1  0
 39 40  1  0
 39 41  1  0
 39 42  1  0
 42 43  2  0
 43 44  1  0
 43 45  1  0
 45 46  1  0
 45 47  2  0
 47 48  1  0
 47 49  1  0
 49 50  1  0
 49 51  2  0
 51 52  1  0
 38  4  1  0
 51 42  1  0
 13  8  2  0
 35 20  1  0
M  CHG  3   9  -1  12  -1  14  -1
M  END
>  <UniqueID>  (57) 
57

>  <SMILES>  (57) 
C=c1/c(=C\c2[n-]c(=O)[n-]c2[O-])cc(C(=O)N2CCN(C)CC2)n1Cc1ccc(F)cc1

>  <Energy>  (57) 
137.4229820317474

>  <Genealogy>  (57) 
C=c1c(=Cc2[n-]c(=O)[n-]c2[O-])cc(C(=O)N2CCN(C)CC2)n1Cc1ccc(F)cc1 (protonated)
C=c1/c(=C\c2[n-]c(=O)[n-]c2[O-])cc(C(=O)N2CCN(C)CC2)n1Cc1ccc(F)cc1 (cis-trans isomerization)
C=c1/c(=C\c2[n-]c(=O)[n-]c2[O-])cc(C(=O)N2CCN(C)CC2)n1Cc1ccc(F)cc1 (3D coordinates assigned)
C=c1/c(=C\c2[n-]c(=O)[n-]c2[O-])cc(C(=O)N2CCN(C)CC2)n1Cc1ccc(F)cc1 (nonaromatic ring conformer: 137.4229820317474 kcal/mol)

>  <smiles>  (57) 
C=c1c(=Cc2[nH]c(=O)[nH]c2O)cc(C(=O)N2CCN(C)CC2)n1Cc1ccc(F)cc1

>  <score_type>  (57) 
oracle

>  <origin>  (57) 
adg

>  <m_score__min__energy>  (57) 
-16.289999999999999

>  <m_primary>  (57) 
energy

$$$$
57:0
     RDKit          3D

 44 46  0  0  1  0  0  0  0  0999 V2000
   59.9610   34.5350   48.8580 C   0  0  0  0  0  0  0  0  0  0  0  0
   59.3800   34.2220   47.5480 C   0  0  0  0  0  0  0  0  0  0  0  0
   59.5010   34.8780   46.3770 C   0  0  0  0  0  0  0  0  0  0  0  0
   58.8790   34.4150   45.2830 C   0  0  0  0  0  0  0  0  0  0  0  0
   58.1300   33.2660   45.4200 C   0  0  0  0  0  0  0  0  0  0  0  0
   57.3360   32.4960   44.4750 C   0  0  0  0  0  0  0  0  0  0  0  0
   56.5780   31.5210   44.7800 N   0  0  0  0  0  0  0  0  0  0  0  0
   56.9790   30.2040   44.3430 C   0  0  0  0  0  0  0  0  0  0  0  0
   56.1410   29.3220   44.0350 O   0  0  0  0  0  0  0  0  0  0  0  0
   58.4560   29.9800   44.2890 C   0  0  0  0  0  0  0  0  0  0  0  0
   59.0740   28.9940   45.6520 S   0  0  0  0  0  0  0  0  0  0  0  0
   58.2580   27.4200   45.8010 C   0  0  0  0  0  0  0  0  0  0  0  0
   58.8980   26.2470   45.9010 N   0  0  0  0  0  0  0  0  0  0  0  0
   58.1850   25.1020   46.0210 C   0  0  0  0  0  0  0  0  0  0  0  0
   58.8210   24.0360   46.1120 O   0  0  0  0  0  0  0  0  0  0  0  0
   56.8110   25.0730   46.0450 C   0  0  0  0  0  0  0  0  0  0  0  0
   55.9890   23.8680   46.1840 C   0  0  0  0  0  0  0  0  0  0  0  0
   56.2860   22.9600   45.0270 C   0  0  0  0  0  0  0  0  0  0  0  0
   56.7520   21.6760   45.1920 C   0  0  0  0  0  0  0  0  0  0  0  0
   57.0080   20.8620   44.1110 C   0  0  0  0  0  0  0  0  0  0  0  0
   56.7860   21.3590   42.8390 C   0  0  0  0  0  0  0  0  0  0  0  0
   56.3160   22.6450   42.6300 C   0  0  0  0  0  0  0  0  0  0  0  0
   56.0700   23.4400   43.7500 C   0  0  0  0  0  0  0  0  0  0  0  0
   56.1750   26.3140   45.9370 C   0  0  0  0  0  0  0  0  0  0  0  0
   54.7840   26.3800   45.9510 O   0  0  0  0  0  0  0  0  0  0  0  0
   56.8930   27.4430   45.8180 N   0  0  0  0  0  0  0  0  0  0  0  0
   58.3230   32.8200   47.2020 S   0  0  0  0  0  0  0  0  0  0  0  0
   59.2908   34.1740   49.6521 H   0  0  0  0  0  0  0  0  0  0  0  0
   60.9399   34.0422   48.9522 H   0  0  0  0  0  0  0  0  0  0  0  0
   60.0880   35.6236   48.9522 H   0  0  0  0  0  0  0  0  0  0  0  0
   60.1095   35.7925   46.3187 H   0  0  0  0  0  0  0  0  0  0  0  0
   58.9631   34.9313   44.3153 H   0  0  0  0  0  0  0  0  0  0  0  0
   57.3958   32.7790   43.4137 H   0  0  0  0  0  0  0  0  0  0  0  0
   58.6967   29.4642   43.3477 H   0  0  0  0  0  0  0  0  0  0  0  0
   58.9377   30.9666   44.3560 H   0  0  0  0  0  0  0  0  0  0  0  0
   56.2317   23.3589   47.1284 H   0  0  0  0  0  0  0  0  0  0  0  0
   54.9221   24.1355   46.1921 H   0  0  0  0  0  0  0  0  0  0  0  0
   56.9236   21.2917   46.2083 H   0  0  0  0  0  0  0  0  0  0  0  0
   57.3814   19.8375   44.2559 H   0  0  0  0  0  0  0  0  0  0  0  0
   56.9882   20.7154   41.9702 H   0  0  0  0  0  0  0  0  0  0  0  0
   56.1422   23.0274   41.6134 H   0  0  0  0  0  0  0  0  0  0  0  0
   55.6978   24.4661   43.6137 H   0  0  0  0  0  0  0  0  0  0  0  0
   54.2640   26.7110   46.7510 H   0  0  0  0  0  0  0  0  0  0  0  0
   56.3640   28.3500   45.7400 H   0  0  0  0  0  0  0  0  0  0  0  0
  1  2  1  0
  2  3  2  0
  3  4  1  0
  4  5  2  0
  5  6  1  0
  6  7  2  0
  7  8  1  0
  8  9  2  0
  8 10  1  0
 10 11  1  0
 11 12  1  0
 12 13  2  0
 13 14  1  0
 14 15  2  0
 14 16  1  0
 16 17  1  0
 17 18  1  0
 18 19  2  0
 19 20  1  0
 20 21  2  0
 21 22  1  0
 22 23  2  0
 16 24  2  0
 24 25  1  0
 24 26  1  0
  5 27  1  0
 27  2  1  0
 26 12  1  0
 23 18  1  0
  1 28  1  0
  1 29  1  0
  1 30  1  0
  3 31  1  0
  4 32  1  0
  6 33  1  0
 10 34  1  0
 10 35  1  0
 17 36  1  0
 17 37  1  0
 19 38  1  0
 20 39  1  0
 21 40  1  0
 22 41  1  0
 23 42  1  0
 25 43  1  0
 26 44  1  0
M  END
>  <smiles>  (58) 
Cc1ccc(C=NC(=O)CSc2nc(=O)c(Cc3ccccc3)c(O)[nH]2)s1

>  <score_type>  (58) 
oracle

>  <origin>  (58) 
adg

>  <m_score__min__energy>  (58) 
-10.07

>  <m_primary>  (58) 
energy

$$$$
58:0
     RDKit          3D

 51 54  0  0  0  0  0  0  0  0999 V2000
   58.2442   33.2309   52.7924 H   0  0  0  0  0  0  0  0  0  0  0  0
   58.2290   32.1480   52.6000 C   0  0  0  0  0  0  0  0  0  0  0  0
   57.4020   31.3430   53.3180 N   0  0  0  0  0  0  0  0  0  0  0  0
   57.3550   29.9950   53.1170 C   0  0  0  0  0  0  0  0  0  0  0  0
   56.5640   29.2320   53.8140 N   0  0  0  0  0  0  0  0  0  0  0  0
   55.2770   28.7220   53.4220 C   0  0  0  0  0  0  0  0  0  0  0  0
   55.0100   27.4940   53.5450 O   0  0  0  0  0  0  0  0  0  0  0  0
   54.2570   29.6440   52.8690 C   0  0  0  0  0  0  0  0  0  0  0  0
   54.4870   30.3240   51.6590 C   0  0  0  0  0  0  0  0  0  0  0  0
   55.4316   30.1689   51.1170 H   0  0  0  0  0  0  0  0  0  0  0  0
   53.5250   31.1950   51.1400 C   0  0  0  0  0  0  0  0  0  0  0  0
   53.7194   31.7200   50.1931 H   0  0  0  0  0  0  0  0  0  0  0  0
   52.3130   31.4060   51.8160 C   0  0  0  0  0  0  0  0  0  0  0  0
   51.2970   32.3290   51.2620 C   0  0  0  0  0  0  0  0  0  0  0  0
   50.6600   33.1090   52.0180 O   0  0  0  0  0  0  0  0  0  0  0  0
   51.0340   32.3480   49.8970 O   0  0  0  0  0  0  0  0  0  0  0  0
   52.0810   30.7280   53.0250 C   0  0  0  0  0  0  0  0  0  0  0  0
   51.1356   30.8832   53.5655 H   0  0  0  0  0  0  0  0  0  0  0  0
   53.0440   29.8570   53.5460 C   0  0  0  0  0  0  0  0  0  0  0  0
   52.8499   29.3342   54.4941 H   0  0  0  0  0  0  0  0  0  0  0  0
   58.1770   29.4150   52.1420 C   0  0  0  0  0  0  0  0  0  0  0  0
   58.1584   28.3271   51.9801 H   0  0  0  0  0  0  0  0  0  0  0  0
   59.0250   30.2280   51.3720 C   0  0  0  0  0  0  0  0  0  0  0  0
   59.8740   29.6960   50.3900 O   0  0  0  0  0  0  0  0  0  0  0  0
   59.5820   29.6240   49.0200 C   0  0  0  0  0  0  0  0  0  0  0  0
   60.3550   30.3000   48.0590 C   0  0  0  0  0  0  0  0  0  0  0  0
   61.2174   30.9042   48.3770 H   0  0  0  0  0  0  0  0  0  0  0  0
   60.0330   30.2080   46.7020 C   0  0  0  0  0  0  0  0  0  0  0  0
   60.6431   30.7390   45.9565 H   0  0  0  0  0  0  0  0  0  0  0  0
   58.9320   29.4390   46.2870 C   0  0  0  0  0  0  0  0  0  0  0  0
   58.5760   29.3170   44.9030 N   0  0  0  0  0  0  0  0  0  0  0  0
   57.4810   29.9770   44.2560 C   0  0  0  0  0  0  0  0  0  0  0  0
   57.0300   29.4990   43.1820 O   0  0  0  0  0  0  0  0  0  0  0  0
   56.9070   31.1590   44.8290 N   0  0  0  0  0  0  0  0  0  0  0  0
   57.6020   32.3410   45.2560 C   0  0  0  0  0  0  0  0  0  0  0  0
   57.7970   33.4450   44.4060 C   0  0  0  0  0  0  0  0  0  0  0  0
   57.4304   33.4109   43.3694 H   0  0  0  0  0  0  0  0  0  0  0  0
   58.4560   34.5860   44.8760 C   0  0  0  0  0  0  0  0  0  0  0  0
   58.6163   35.4426   44.2048 H   0  0  0  0  0  0  0  0  0  0  0  0
   58.9110   34.6400   46.1960 C   0  0  0  0  0  0  0  0  0  0  0  0
   59.4346   35.5359   46.5608 H   0  0  0  0  0  0  0  0  0  0  0  0
   58.7010   33.5560   47.0530 C   0  0  0  0  0  0  0  0  0  0  0  0
   59.2550   33.6300   48.7150 Cl  0  0  0  0  0  0  0  0  0  0  0  0
   58.0410   32.4130   46.5850 C   0  0  0  0  0  0  0  0  0  0  0  0
   57.8660   31.5662   47.2649 H   0  0  0  0  0  0  0  0  0  0  0  0
   58.1990   28.7220   47.2390 C   0  0  0  0  0  0  0  0  0  0  0  0
   57.3653   28.0805   46.9174 H   0  0  0  0  0  0  0  0  0  0  0  0
   58.5200   28.8160   48.5970 C   0  0  0  0  0  0  0  0  0  0  0  0
   57.9343   28.2514   49.3374 H   0  0  0  0  0  0  0  0  0  0  0  0
   59.0590   31.6030   51.6190 C   0  0  0  0  0  0  0  0  0  0  0  0
   59.7358   32.2519   51.0438 H   0  0  0  0  0  0  0  0  0  0  0  0
  1  2  1  0
  2  3  1  0
  3  4  1  0
  4  5  2  0
  5  6  1  0
  6  7  2  0
  6  8  1  0
  8  9  2  0
  9 10  1  0
  9 11  1  0
 11 12  1  0
 11 13  2  0
 13 14  1  0
 14 15  2  0
 14 16  1  0
 13 17  1  0
 17 18  1  0
 17 19  2  0
 19 20  1  0
  4 21  1  0
 21 22  1  0
 21 23  2  0
 23 24  1  0
 24 25  1  0
 25 26  2  0
 26 27  1  0
 26 28  1  0
 28 29  1  0
 28 30  2  0
 30 31  1  0
 31 32  1  0
 32 33  2  0
 32 34  1  0
 34 35  1  0
 35 36  2  0
 36 37  1  0
 36 38  1  0
 38 39  1  0
 38 40  2  0
 40 41  1  0
 40 42  1  0
 42 43  1  0
 42 44  2  0
 44 45  1  0
 30 46  1  0
 46 47  1  0
 46 48  2  0
 48 49  1  0
 23 50  1  0
 50 51  1  0
 50  2  2  0
 19  8  1  0
 48 25  1  0
 44 35  1  0
M  CHG  4   3  -1  16  -1  31  -1  34  -1
M  END
>  <UniqueID>  (59) 
58

>  <SMILES>  (59) 
O=C([N-]c1ccc(Oc2cc[n-]/c(=N\C(=O)c3ccc(C(=O)[O-])cc3)c2)cc1)[N-]c1cccc(Cl)c1

>  <Energy>  (59) 
74.05345536600807

>  <Genealogy>  (59) 
O=C([N-]c1ccc(Oc2cc[n-]c(=NC(=O)c3ccc(C(=O)[O-])cc3)c2)cc1)[N-]c1cccc(Cl)c1 (protonated)
O=C([N-]c1ccc(Oc2cc[n-]/c(=N\C(=O)c3ccc(C(=O)[O-])cc3)c2)cc1)[N-]c1cccc(Cl)c1 (cis-trans isomerization)
O=C([N-]c1ccc(Oc2cc[n-]/c(=N\C(=O)c3ccc(C(=O)[O-])cc3)c2)cc1)[N-]c1cccc(Cl)c1 (3D coordinates assigned)
O=C([N-]c1ccc(Oc2cc[n-]/c(=N\C(=O)c3ccc(C(=O)[O-])cc3)c2)cc1)[N-]c1cccc(Cl)c1 (optimized conformer: 74.05345536600807 kcal/mol)

>  <smiles>  (59) 
O=C(Nc1ccc(Oc2cc[nH]c(=NC(=O)c3ccc(C(=O)O)cc3)c2)cc1)Nc1cccc(Cl)c1

>  <score_type>  (59) 
oracle

>  <origin>  (59) 
adg

>  <m_score__min__energy>  (59) 
-17.09

>  <m_primary>  (59) 
energy

$$$$
59:0
     RDKit          3D

 43 46  0  0  0  0  0  0  0  0999 V2000
   58.3070   27.4010   43.8090 O   0  0  0  0  0  0  0  0  0  0  0  0
   57.4970   27.4040   44.7760 C   0  0  0  0  0  0  0  0  0  0  0  0
   56.8140   28.6150   45.1480 N   0  0  0  0  0  0  0  0  0  0  0  0
   56.9990   29.8790   44.4890 C   0  0  0  0  0  0  0  0  0  0  0  0
   56.8450   30.0100   43.0970 C   0  0  0  0  0  0  0  0  0  0  0  0
   57.0640   31.2420   42.4780 C   0  0  0  0  0  0  0  0  0  0  0  0
   57.4430   32.3520   43.2360 C   0  0  0  0  0  0  0  0  0  0  0  0
   57.6050   32.2380   44.6250 C   0  0  0  0  0  0  0  0  0  0  0  0
   58.0330   33.3980   45.4320 C   0  0  0  0  0  0  0  0  0  0  0  0
   57.4660   34.5090   45.2500 O   0  0  0  0  0  0  0  0  0  0  0  0
   59.0880   33.2930   46.4030 N   0  0  0  0  0  0  0  0  0  0  0  0
   60.1580   32.2900   46.3510 C   0  0  0  0  0  0  0  0  0  0  0  0
   61.1210   32.7710   47.3710 C   0  0  0  0  0  0  0  0  0  0  0  0
   62.3330   32.1900   47.7460 C   0  0  0  0  0  0  0  0  0  0  0  0
   63.0940   32.8150   48.7470 C   0  0  0  0  0  0  0  0  0  0  0  0
   62.6350   34.0020   49.3500 C   0  0  0  0  0  0  0  0  0  0  0  0
   61.4120   34.5690   48.9550 C   0  0  0  0  0  0  0  0  0  0  0  0
   60.6720   33.9290   47.9600 C   0  0  0  0  0  0  0  0  0  0  0  0
   59.3720   34.3450   47.3840 C   0  0  0  0  0  0  0  0  0  0  0  0
   57.4060   30.9910   45.2400 C   0  0  0  0  0  0  0  0  0  0  0  0
   57.2690   26.1460   45.5190 C   0  0  0  0  0  0  0  0  0  0  0  0
   58.3000   25.2000   45.6090 C   0  0  0  0  0  0  0  0  0  0  0  0
   58.1060   24.0120   46.3150 C   0  0  0  0  0  0  0  0  0  0  0  0
   56.8700   23.7690   46.9180 C   0  0  0  0  0  0  0  0  0  0  0  0
   56.6780   22.7060   47.5630 O   0  0  0  0  0  0  0  0  0  0  0  0
   55.8690   24.6820   46.8050 N   0  0  0  0  0  0  0  0  0  0  0  0
   56.0300   25.8470   46.1230 C   0  0  0  0  0  0  0  0  0  0  0  0
   54.9490   26.7140   46.0060 O   0  0  0  0  0  0  0  0  0  0  0  0
   56.1000   28.5740   45.9090 H   0  0  0  0  0  0  0  0  0  0  0  0
   56.5509   29.1384   42.4939 H   0  0  0  0  0  0  0  0  0  0  0  0
   56.9376   31.3388   41.3896 H   0  0  0  0  0  0  0  0  0  0  0  0
   57.6152   33.3197   42.7420 H   0  0  0  0  0  0  0  0  0  0  0  0
   59.7758   31.2913   46.6090 H   0  0  0  0  0  0  0  0  0  0  0  0
   60.6041   32.1857   45.3509 H   0  0  0  0  0  0  0  0  0  0  0  0
   62.6843   31.2635   47.2683 H   0  0  0  0  0  0  0  0  0  0  0  0
   64.0523   32.3758   49.0613 H   0  0  0  0  0  0  0  0  0  0  0  0
   63.2363   34.4869   50.1331 H   0  0  0  0  0  0  0  0  0  0  0  0
   61.0459   35.4965   49.4195 H   0  0  0  0  0  0  0  0  0  0  0  0
   58.5917   34.3833   48.1584 H   0  0  0  0  0  0  0  0  0  0  0  0
   59.3987   35.3517   46.9414 H   0  0  0  0  0  0  0  0  0  0  0  0
   57.5712   30.8856   46.3224 H   0  0  0  0  0  0  0  0  0  0  0  0
   59.2662   25.3952   45.1208 H   0  0  0  0  0  0  0  0  0  0  0  0
   58.9182   23.2746   46.3957 H   0  0  0  0  0  0  0  0  0  0  0  0
  1  2  2  0
  2  3  1  0
  3  4  1  0
  4  5  2  0
  5  6  1  0
  6  7  2  0
  7  8  1  0
  8  9  1  0
  9 10  2  0
  9 11  1  0
 11 12  1  0
 12 13  1  0
 13 14  2  0
 14 15  1  0
 15 16  2  0
 16 17  1  0
 17 18  2  0
 18 19  1  0
  8 20  2  0
  2 21  1  0
 21 22  1  0
 22 23  2  0
 23 24  1  0
 24 25  2  0
 24 26  1  0
 26 27  1  0
 27 28  1  0
 20  4  1  0
 27 21  2  0
 19 11  1  0
 18 13  1  0
  3 29  1  0
  5 30  1  0
  6 31  1  0
  7 32  1  0
 12 33  1  0
 12 34  1  0
 14 35  1  0
 15 36  1  0
 16 37  1  0
 17 38  1  0
 19 39  1  0
 19 40  1  0
 20 41  1  0
 22 42  1  0
 23 43  1  0
M  CHG  2  26  -1  28  -1
M  END
>  <UniqueID>  (60) 
59

>  <SMILES>  (60) 
O=C(Nc1cccc(C(=O)N2Cc3ccccc3C2)c1)c1ccc(=O)[n-]c1[O-]

>  <Energy>  (60) 
72.09646284179891

>  <Genealogy>  (60) 
O=C(Nc1cccc(C(=O)N2Cc3ccccc3C2)c1)c1ccc(=O)[n-]c1[O-] (protonated)
O=C(Nc1cccc(C(=O)N2Cc3ccccc3C2)c1)c1ccc(=O)[n-]c1[O-] (3D coordinates assigned)
O=C(Nc1cccc(C(=O)N2Cc3ccccc3C2)c1)c1ccc(=O)[n-]c1[O-] (nonaromatic ring conformer: 72.09646284179891 kcal/mol)

>  <smiles>  (60) 
O=C(Nc1cccc(C(=O)N2Cc3ccccc3C2)c1)c1ccc(=O)[nH]c1O

>  <score_type>  (60) 
oracle

>  <origin>  (60) 
adg

>  <m_score__min__energy>  (60) 
-15.44

>  <m_primary>  (60) 
energy

$$$$
60:0
     RDKit          3D

 50 53  0  0  0  0  0  0  0  0999 V2000
   57.0490   21.9090   50.1150 C   0  0  0  0  0  0  0  0  0  0  0  0
   57.3840   22.1670   48.7550 O   0  0  0  0  0  0  0  0  0  0  0  0
   56.6200   21.7460   47.6560 C   0  0  0  0  0  0  0  0  0  0  0  0
   57.1600   20.7790   46.8020 C   0  0  0  0  0  0  0  0  0  0  0  0
   56.4370   20.3250   45.6980 C   0  0  0  0  0  0  0  0  0  0  0  0
   55.1670   20.8420   45.4300 C   0  0  0  0  0  0  0  0  0  0  0  0
   54.6170   21.8320   46.2630 C   0  0  0  0  0  0  0  0  0  0  0  0
   53.3150   22.3850   46.0240 N   0  0  0  0  0  0  0  0  0  0  0  0
   53.0090   23.4960   45.1690 C   0  0  0  0  0  0  0  0  0  0  0  0
   52.3300   23.3240   44.1230 O   0  0  0  0  0  0  0  0  0  0  0  0
   53.5300   24.8050   45.4420 N   0  0  0  0  0  0  0  0  0  0  0  0
   54.7810   25.1220   45.6120 C   0  0  0  0  0  0  0  0  0  0  0  0
   55.8140   24.2690   45.3760 N   0  0  0  0  0  0  0  0  0  0  0  0
   56.8790   25.0120   45.7060 C   0  0  0  0  0  0  0  0  0  0  0  0
   58.2200   24.6400   45.6790 C   0  0  0  0  0  0  0  0  0  0  0  0
   59.1720   25.5890   46.0920 C   0  0  0  0  0  0  0  0  0  0  0  0
   58.7630   26.8800   46.5150 C   0  0  0  0  0  0  0  0  0  0  0  0
   59.9500   28.0630   47.0560 S   0  0  0  0  0  0  0  0  0  0  0  0
   60.6960   28.5870   45.8610 O   0  0  0  0  0  0  0  0  0  0  0  0
   60.9400   27.4200   47.9890 O   0  0  0  0  0  0  0  0  0  0  0  0
   59.1630   29.3860   47.8640 N   0  0  0  0  0  0  0  0  0  0  0  0
   59.7520   30.6550   47.4310 C   0  0  0  0  0  0  0  0  0  0  0  0
   58.9540   31.2150   46.2860 C   0  0  0  0  0  0  0  0  0  0  0  0
   58.9950   32.5890   45.9990 C   0  0  0  0  0  0  0  0  0  0  0  0
   58.2200   33.1140   44.9600 C   0  0  0  0  0  0  0  0  0  0  0  0
   57.3910   32.2750   44.2080 C   0  0  0  0  0  0  0  0  0  0  0  0
   57.3340   30.9080   44.4970 C   0  0  0  0  0  0  0  0  0  0  0  0
   56.2850   29.8560   43.5620 Cl  0  0  0  0  0  0  0  0  0  0  0  0
   58.1080   30.3780   45.5380 C   0  0  0  0  0  0  0  0  0  0  0  0
   57.3940   27.2150   46.5310 C   0  0  0  0  0  0  0  0  0  0  0  0
   56.4820   26.2480   46.1180 C   0  0  0  0  0  0  0  0  0  0  0  0
   55.1450   26.3460   46.0720 N   0  0  0  0  0  0  0  0  0  0  0  0
   55.3380   22.2630   47.3860 C   0  0  0  0  0  0  0  0  0  0  0  0
   57.7474   22.4468   50.7730 H   0  0  0  0  0  0  0  0  0  0  0  0
   56.0224   22.2520   50.3112 H   0  0  0  0  0  0  0  0  0  0  0  0
   57.1185   20.8289   50.3112 H   0  0  0  0  0  0  0  0  0  0  0  0
   58.1626   20.3730   47.0021 H   0  0  0  0  0  0  0  0  0  0  0  0
   56.8680   19.5584   45.0373 H   0  0  0  0  0  0  0  0  0  0  0  0
   54.5960   20.4735   44.5650 H   0  0  0  0  0  0  0  0  0  0  0  0
   58.5249   23.6370   45.3457 H   0  0  0  0  0  0  0  0  0  0  0  0
   60.2407   25.3287   46.0871 H   0  0  0  0  0  0  0  0  0  0  0  0
   59.3530   29.2720   48.8880 H   0  0  0  0  0  0  0  0  0  0  0  0
   59.7416   31.3683   48.2683 H   0  0  0  0  0  0  0  0  0  0  0  0
   60.7890   30.4851   47.1059 H   0  0  0  0  0  0  0  0  0  0  0  0
   59.6386   33.2543   46.5932 H   0  0  0  0  0  0  0  0  0  0  0  0
   58.2624   34.1896   44.7335 H   0  0  0  0  0  0  0  0  0  0  0  0
   56.7843   32.6903   43.3898 H   0  0  0  0  0  0  0  0  0  0  0  0
   58.0534   29.3042   45.7704 H   0  0  0  0  0  0  0  0  0  0  0  0
   57.0570   28.2092   46.8595 H   0  0  0  0  0  0  0  0  0  0  0  0
   54.8985   23.0113   48.0619 H   0  0  0  0  0  0  0  0  0  0  0  0
  1  2  1  0
  2  3  1  0
  3  4  2  0
  4  5  1  0
  5  6  2  0
  6  7  1  0
  7  8  1  0
  8  9  1  0
  9 10  2  0
  9 11  1  0
 11 12  2  3
 12 13  1  0
 13 14  1  0
 14 15  2  0
 15 16  1  0
 16 17  2  0
 17 18  1  0
 18 19  2  0
 18 20  2  0
 18 21  1  0
 21 22  1  0
 22 23  1  0
 23 24  2  0
 24 25  1  0
 25 26  2  0
 26 27  1  0
 27 28  1  0
 27 29  2  0
 17 30  1  0
 30 31  2  0
 31 32  1  0
  7 33  2  0
 33  3  1  0
 32 12  1  0
 31 14  1  0
 29 23  1  0
  1 34  1  0
  1 35  1  0
  1 36  1  0
  4 37  1  0
  5 38  1  0
  6 39  1  0
 15 40  1  0
 16 41  1  0
 21 42  1  0
 22 43  1  0
 22 44  1  0
 24 45  1  0
 25 46  1  0
 26 47  1  0
 29 48  1  0
 30 49  1  0
 33 50  1  0
M  CHG  3   8  -1  13  -1  32  -1
M  END
>  <UniqueID>  (61) 
60

>  <SMILES>  (61) 
COc1cccc([N-]C(=O)N=c2[n-]c3ccc(S(=O)(=O)NCc4cccc(Cl)c4)cc3[n-]2)c1

>  <Energy>  (61) 
91.08412769754405

>  <Genealogy>  (61) 
COc1cccc([N-]C(=O)N=c2[n-]c3ccc(S(=O)(=O)NCc4cccc(Cl)c4)cc3[n-]2)c1 (protonated)
COc1cccc([N-]C(=O)N=c2[n-]c3ccc(S(=O)(=O)NCc4cccc(Cl)c4)cc3[n-]2)c1 (3D coordinates assigned)
COc1cccc([N-]C(=O)N=c2[n-]c3ccc(S(=O)(=O)NCc4cccc(Cl)c4)cc3[n-]2)c1 (optimized conformer: 91.08412769754405 kcal/mol)

>  <smiles>  (61) 
COc1cccc(NC(=O)N=c2[nH]c3ccc(S(=O)(=O)NCc4cccc(Cl)c4)cc3[nH]2)c1

>  <score_type>  (61) 
oracle

>  <origin>  (61) 
adg

>  <m_score__min__energy>  (61) 
-13.390000000000001

>  <m_primary>  (61) 
energy

$$$$
61:0
     RDKit          3D

 56 60  0  0  0  0  0  0  0  0999 V2000
   54.0740   27.5930   52.8830 O   0  0  0  0  0  0  0  0  0  0  0  0
   54.6050   28.7330   52.9520 C   0  0  0  0  0  0  0  0  0  0  0  0
   53.7820   29.8860   53.4750 C   0  0  0  0  0  0  0  0  0  0  0  0
   52.9580   30.5470   52.3960 C   0  0  0  0  0  0  0  0  0  0  0  0
   52.9430   30.0260   51.0910 C   0  0  0  0  0  0  0  0  0  0  0  0
   52.1540   30.6200   50.1010 C   0  0  0  0  0  0  0  0  0  0  0  0
   51.3810   31.7460   50.4020 C   0  0  0  0  0  0  0  0  0  0  0  0
   50.5980   32.3320   49.4140 O   0  0  0  0  0  0  0  0  0  0  0  0
   51.3980   32.2800   51.6970 C   0  0  0  0  0  0  0  0  0  0  0  0
   50.6280   33.3970   52.0020 O   0  0  0  0  0  0  0  0  0  0  0  0
   52.1910   31.6890   52.6870 C   0  0  0  0  0  0  0  0  0  0  0  0
   55.9750   28.8780   52.5500 N   0  0  0  0  0  0  0  0  0  0  0  0
   56.6400   30.1170   52.2800 C   0  0  0  0  0  0  0  0  0  0  0  0
   55.9650   31.3190   52.5130 C   0  0  0  0  0  0  0  0  0  0  0  0
   56.5750   32.5380   52.2120 C   0  0  0  0  0  0  0  0  0  0  0  0
   57.8740   32.5630   51.7000 C   0  0  0  0  0  0  0  0  0  0  0  0
   58.5870   31.3660   51.5090 C   0  0  0  0  0  0  0  0  0  0  0  0
   59.9600   31.3800   50.9560 C   0  0  0  0  0  0  0  0  0  0  0  0
   60.8630   30.7130   51.5300 O   0  0  0  0  0  0  0  0  0  0  0  0
   60.3030   32.1180   49.7250 C   0  0  0  0  0  0  0  0  0  0  0  0
   59.4020   32.7910   48.9060 C   0  0  0  0  0  0  0  0  0  0  0  0
   60.0540   33.3800   47.8730 N   0  0  0  0  0  0  0  0  0  0  0  0
   59.4470   34.2620   46.8770 C   0  0  0  0  0  0  0  0  0  0  0  0
   58.7660   33.4430   45.8130 C   0  0  0  0  0  0  0  0  0  0  0  0
   58.8360   33.8400   44.4670 C   0  0  0  0  0  0  0  0  0  0  0  0
   58.2450   33.0590   43.4690 C   0  0  0  0  0  0  0  0  0  0  0  0
   57.5840   31.8750   43.8070 C   0  0  0  0  0  0  0  0  0  0  0  0
   57.5120   31.4710   45.1420 C   0  0  0  0  0  0  0  0  0  0  0  0
   58.1030   32.2490   46.1440 C   0  0  0  0  0  0  0  0  0  0  0  0
   61.3610   33.0810   48.0300 C   0  0  0  0  0  0  0  0  0  0  0  0
   62.4370   33.4540   47.2220 C   0  0  0  0  0  0  0  0  0  0  0  0
   63.7100   32.9840   47.5860 C   0  0  0  0  0  0  0  0  0  0  0  0
   63.8670   32.1870   48.6880 N   0  0  0  0  0  0  0  0  0  0  0  0
   62.8140   31.8270   49.4780 C   0  0  0  0  0  0  0  0  0  0  0  0
   61.5450   32.3010   49.1430 C   0  0  0  0  0  0  0  0  0  0  0  0
   57.9610   30.1440   51.8040 C   0  0  0  0  0  0  0  0  0  0  0  0
   53.1041   29.5097   54.2553 H   0  0  0  0  0  0  0  0  0  0  0  0
   54.4782   30.6397   53.8717 H   0  0  0  0  0  0  0  0  0  0  0  0
   53.5556   29.1456   50.8468 H   0  0  0  0  0  0  0  0  0  0  0  0
   52.1413   30.2010   49.0840 H   0  0  0  0  0  0  0  0  0  0  0  0
   52.2145   32.1203   53.6987 H   0  0  0  0  0  0  0  0  0  0  0  0
   54.9493   31.3041   52.9351 H   0  0  0  0  0  0  0  0  0  0  0  0
   56.0318   33.4800   52.3783 H   0  0  0  0  0  0  0  0  0  0  0  0
   58.3424   33.5249   51.4445 H   0  0  0  0  0  0  0  0  0  0  0  0
   58.3157   32.8386   49.0726 H   0  0  0  0  0  0  0  0  0  0  0  0
   58.7063   34.9107   47.3676 H   0  0  0  0  0  0  0  0  0  0  0  0
   60.2316   34.8776   46.4128 H   0  0  0  0  0  0  0  0  0  0  0  0
   59.3583   34.7697   44.1970 H   0  0  0  0  0  0  0  0  0  0  0  0
   58.3004   33.3767   42.4173 H   0  0  0  0  0  0  0  0  0  0  0  0
   57.1201   31.2609   43.0211 H   0  0  0  0  0  0  0  0  0  0  0  0
   56.9898   30.5396   45.4063 H   0  0  0  0  0  0  0  0  0  0  0  0
   58.0484   31.9249   47.1938 H   0  0  0  0  0  0  0  0  0  0  0  0
   62.2937   34.0902   46.3362 H   0  0  0  0  0  0  0  0  0  0  0  0
   64.5869   33.2584   46.9812 H   0  0  0  0  0  0  0  0  0  0  0  0
   62.9617   31.1804   50.3555 H   0  0  0  0  0  0  0  0  0  0  0  0
   58.5093   29.2011   51.6612 H   0  0  0  0  0  0  0  0  0  0  0  0
  1  2  2  0
  2  3  1  0
  3  4  1  0
  4  5  2  0
  5  6  1  0
  6  7  2  0
  7  8  1  0
  7  9  1  0
  9 10  1  0
  9 11  2  0
  2 12  1  0
 12 13  1  0
 13 14  2  0
 14 15  1  0
 15 16  2  0
 16 17  1  0
 17 18  1  0
 18 19  2  0
 18 20  1  0
 20 21  2  0
 21 22  1  0
 22 23  1  0
 23 24  1  0
 24 25  2  0
 25 26  1  0
 26 27  2  0
 27 28  1  0
 28 29  2  0
 22 30  1  0
 30 31  2  0
 31 32  1  0
 32 33  2  0
 33 34  1  0
 34 35  2  0
 17 36  2  0
 11  4  1  0
 36 13  1  0
 35 20  1  0
 29 24  1  0
 35 30  1  0
  3 37  1  0
  3 38  1  0
  5 39  1  0
  6 40  1  0
 11 41  1  0
 14 42  1  0
 15 43  1  0
 16 44  1  0
 21 45  1  0
 23 46  1  0
 23 47  1  0
 25 48  1  0
 26 49  1  0
 27 50  1  0
 28 51  1  0
 29 52  1  0
 31 53  1  0
 32 54  1  0
 34 55  1  0
 36 56  1  0
M  CHG  3   8  -1  10  -1  12  -1
M  END
>  <UniqueID>  (62) 
61

>  <SMILES>  (62) 
O=C(Cc1ccc([O-])c([O-])c1)[N-]c1cccc(C(=O)c2cn(Cc3ccccc3)c3ccncc23)c1

>  <Energy>  (62) 
105.209490868786

>  <Genealogy>  (62) 
O=C(Cc1ccc([O-])c([O-])c1)[N-]c1cccc(C(=O)c2cn(Cc3ccccc3)c3ccncc23)c1 (protonated)
O=C(Cc1ccc([O-])c([O-])c1)[N-]c1cccc(C(=O)c2cn(Cc3ccccc3)c3ccncc23)c1 (3D coordinates assigned)
O=C(Cc1ccc([O-])c([O-])c1)[N-]c1cccc(C(=O)c2cn(Cc3ccccc3)c3ccncc23)c1 (optimized conformer: 105.209490868786 kcal/mol)

>  <smiles>  (62) 
O=C(Cc1ccc(O)c(O)c1)Nc1cccc(C(=O)c2cn(Cc3ccccc3)c3ccncc23)c1

>  <score_type>  (62) 
oracle

>  <origin>  (62) 
adg

>  <m_score__min__energy>  (62) 
-20.350000000000001

>  <m_primary>  (62) 
energy

$$$$
62:0
     RDKit          3D

 54 57  0  0  0  0  0  0  0  0999 V2000
   58.5320   29.4190   47.9610 O   0  0  0  0  0  0  0  0  0  0  0  0
   58.9820   29.6070   49.1230 C   0  0  0  0  0  0  0  0  0  0  0  0
   60.4020   29.2600   49.4390 C   0  0  0  0  0  0  0  0  0  0  0  0
   61.3170   30.3410   48.9320 C   0  0  0  0  0  0  0  0  0  0  0  0
   61.2750   30.7320   47.5840 C   0  0  0  0  0  0  0  0  0  0  0  0
   62.0980   31.7660   47.1250 C   0  0  0  0  0  0  0  0  0  0  0  0
   62.9630   32.4180   48.0070 C   0  0  0  0  0  0  0  0  0  0  0  0
   63.0090   32.0380   49.3510 C   0  0  0  0  0  0  0  0  0  0  0  0
   62.1870   31.0050   49.8150 C   0  0  0  0  0  0  0  0  0  0  0  0
   58.1460   30.1630   50.1450 N   0  0  0  0  0  0  0  0  0  0  0  0
   58.1100   31.5860   50.4680 C   0  0  0  0  0  0  0  0  0  0  0  0
   58.8530   32.4040   49.4520 C   0  0  0  0  0  0  0  0  0  0  0  0
   59.7950   33.1620   49.8080 O   0  0  0  0  0  0  0  0  0  0  0  0
   58.5460   32.2340   48.0600 N   0  0  0  0  0  0  0  0  0  0  0  0
   58.8450   33.2050   47.0390 C   0  0  0  0  0  0  0  0  0  0  0  0
   59.7850   34.2280   47.2660 C   0  0  0  0  0  0  0  0  0  0  0  0
   60.0080   35.2130   46.3050 C   0  0  0  0  0  0  0  0  0  0  0  0
   59.2750   35.2090   45.1200 C   0  0  0  0  0  0  0  0  0  0  0  0
   58.3360   34.2030   44.8800 C   0  0  0  0  0  0  0  0  0  0  0  0
   58.1260   33.1790   45.8270 C   0  0  0  0  0  0  0  0  0  0  0  0
   57.2270   32.1210   45.6110 O   0  0  0  0  0  0  0  0  0  0  0  0
   57.2080   31.2270   44.5000 C   0  0  0  0  0  0  0  0  0  0  0  0
   57.8210   29.9180   44.8950 C   0  0  0  0  0  0  0  0  0  0  0  0
   59.2020   29.7200   44.8570 C   0  0  0  0  0  0  0  0  0  0  0  0
   59.7170   28.4760   45.2310 C   0  0  0  0  0  0  0  0  0  0  0  0
   60.9690   28.3070   45.2110 O   0  0  0  0  0  0  0  0  0  0  0  0
   58.8740   27.4660   45.6240 N   0  0  0  0  0  0  0  0  0  0  0  0
   59.3680   26.2440   46.0040 C   0  0  0  0  0  0  0  0  0  0  0  0
   58.5080   25.2190   46.4050 C   0  0  0  0  0  0  0  0  0  0  0  0
   57.1340   25.4410   46.4180 C   0  0  0  0  0  0  0  0  0  0  0  0
   56.6310   26.6790   46.0290 C   0  0  0  0  0  0  0  0  0  0  0  0
   57.5110   27.6900   45.6360 C   0  0  0  0  0  0  0  0  0  0  0  0
   57.0120   28.8980   45.2710 N   0  0  0  0  0  0  0  0  0  0  0  0
   60.5202   29.1630   50.5283 H   0  0  0  0  0  0  0  0  0  0  0  0
   60.6599   28.3083   48.9513 H   0  0  0  0  0  0  0  0  0  0  0  0
   60.5928   30.2237   46.8867 H   0  0  0  0  0  0  0  0  0  0  0  0
   62.0639   32.0662   46.0673 H   0  0  0  0  0  0  0  0  0  0  0  0
   63.6084   33.2311   47.6434 H   0  0  0  0  0  0  0  0  0  0  0  0
   63.6916   32.5511   50.0444 H   0  0  0  0  0  0  0  0  0  0  0  0
   62.2215   30.7112   50.8745 H   0  0  0  0  0  0  0  0  0  0  0  0
   57.0620   31.9189   50.4965 H   0  0  0  0  0  0  0  0  0  0  0  0
   58.5951   31.7287   51.4449 H   0  0  0  0  0  0  0  0  0  0  0  0
   58.0350   31.3610   47.7870 H   0  0  0  0  0  0  0  0  0  0  0  0
   60.3487   34.2504   48.2103 H   0  0  0  0  0  0  0  0  0  0  0  0
   60.7627   35.9934   46.4822 H   0  0  0  0  0  0  0  0  0  0  0  0
   59.4360   35.9994   44.3722 H   0  0  0  0  0  0  0  0  0  0  0  0
   57.7560   34.2095   43.9454 H   0  0  0  0  0  0  0  0  0  0  0  0
   56.1683   31.0624   44.1808 H   0  0  0  0  0  0  0  0  0  0  0  0
   57.7841   31.6637   43.6709 H   0  0  0  0  0  0  0  0  0  0  0  0
   59.8742   30.5301   44.5378 H   0  0  0  0  0  0  0  0  0  0  0  0
   60.4540   26.0693   45.9928 H   0  0  0  0  0  0  0  0  0  0  0  0
   58.9139   24.2427   46.7085 H   0  0  0  0  0  0  0  0  0  0  0  0
   56.4484   24.6411   46.7345 H   0  0  0  0  0  0  0  0  0  0  0  0
   55.5461   26.8603   46.0310 H   0  0  0  0  0  0  0  0  0  0  0  0
  1  2  2  0
  2  3  1  0
  3  4  1  0
  4  5  2  0
  5  6  1  0
  6  7  2  0
  7  8  1  0
  8  9  2  0
  2 10  1  0
 10 11  1  0
 11 12  1  0
 12 13  2  0
 12 14  1  0
 14 15  1  0
 15 16  2  0
 16 17  1  0
 17 18  2  0
 18 19  1  0
 19 20  2  0
 20 21  1  0
 21 22  1  0
 22 23  1  0
 23 24  2  0
 24 25  1  0
 25 26  2  0
 25 27  1  0
 27 28  1  0
 28 29  2  0
 29 30  1  0
 30 31  2  0
 31 32  1  0
 32 33  2  0
  9  4  1  0
 20 15  1  0
 33 23  1  0
 32 27  1  0
  3 34  1  0
  3 35  1  0
  5 36  1  0
  6 37  1  0
  7 38  1  0
  8 39  1  0
  9 40  1  0
 11 41  1  0
 11 42  1  0
 14 43  1  0
 16 44  1  0
 17 45  1  0
 18 46  1  0
 19 47  1  0
 22 48  1  0
 22 49  1  0
 24 50  1  0
 28 51  1  0
 29 52  1  0
 30 53  1  0
 31 54  1  0
M  CHG  1  10  -1
M  END
>  <UniqueID>  (63) 
62

>  <SMILES>  (63) 
O=C(Cc1ccccc1)[N-]CC(=O)Nc1ccccc1OCc1cc(=O)n2ccccc2n1

>  <Energy>  (63) 
66.22753601493126

>  <Genealogy>  (63) 
O=C(Cc1ccccc1)[N-]CC(=O)Nc1ccccc1OCc1cc(=O)n2ccccc2n1 (protonated)
O=C(Cc1ccccc1)[N-]CC(=O)Nc1ccccc1OCc1cc(=O)n2ccccc2n1 (3D coordinates assigned)
O=C(Cc1ccccc1)[N-]CC(=O)Nc1ccccc1OCc1cc(=O)n2ccccc2n1 (optimized conformer: 66.22753601493126 kcal/mol)

>  <smiles>  (63) 
O=C(Cc1ccccc1)NCC(=O)Nc1ccccc1OCc1cc(=O)n2ccccc2n1

>  <score_type>  (63) 
oracle

>  <origin>  (63) 
adg

>  <m_score__min__energy>  (63) 
-11.630000000000001

>  <m_primary>  (63) 
energy

$$$$
63:0
     RDKit          3D

 47 49  0  0  0  0  0  0  0  0999 V2000
   57.2241   33.7823   46.6834 H   0  0  0  0  0  0  0  0  0  0  0  0
   57.1160   32.9320   45.9940 C   0  0  0  0  0  0  0  0  0  0  0  0
   56.2179   32.8448   45.3649 H   0  0  0  0  0  0  0  0  0  0  0  0
   58.0860   31.9950   45.9200 C   0  0  0  0  0  0  0  0  0  0  0  0
   57.9740   30.8830   45.0370 C   0  0  0  0  0  0  0  0  0  0  0  0
   56.8360   30.7680   44.0950 C   0  0  0  0  0  0  0  0  0  0  0  0
   55.6520   30.8640   44.5200 O   0  0  0  0  0  0  0  0  0  0  0  0
   57.0910   30.5970   42.7290 O   0  0  0  0  0  0  0  0  0  0  0  0
   57.3990   31.6700   41.8410 C   0  0  0  0  0  0  0  0  0  0  0  0
   57.9324   31.2708   40.9657 H   0  0  0  0  0  0  0  0  0  0  0  0
   56.4589   32.1509   41.5330 H   0  0  0  0  0  0  0  0  0  0  0  0
   58.2750   32.7110   42.5260 C   0  0  0  0  0  0  0  0  0  0  0  0
   58.1856   32.6047   43.6172 H   0  0  0  0  0  0  0  0  0  0  0  0
   59.3232   32.5617   42.2277 H   0  0  0  0  0  0  0  0  0  0  0  0
   57.9488   33.7183   42.2277 H   0  0  0  0  0  0  0  0  0  0  0  0
   58.9960   29.9020   45.0430 C   0  0  0  0  0  0  0  0  0  0  0  0
   58.9880   28.7710   44.1440 N   0  0  0  0  0  0  0  0  0  0  0  0
   59.9690   28.5090   43.8940 H   0  0  0  0  0  0  0  0  0  0  0  0
   58.5160   29.0390   43.2500 H   0  0  0  0  0  0  0  0  0  0  0  0
   58.2630   27.6600   44.7130 C   0  0  0  0  0  0  0  0  0  0  0  0
   57.7650   27.7320   46.0270 C   0  0  0  0  0  0  0  0  0  0  0  0
   57.9137   28.6481   46.6174 H   0  0  0  0  0  0  0  0  0  0  0  0
   57.0830   26.6490   46.5880 C   0  0  0  0  0  0  0  0  0  0  0  0
   56.6894   26.7193   47.6128 H   0  0  0  0  0  0  0  0  0  0  0  0
   56.9000   25.4760   45.8490 C   0  0  0  0  0  0  0  0  0  0  0  0
   56.0400   24.1200   46.5530 Cl  0  0  0  0  0  0  0  0  0  0  0  0
   57.4120   25.3830   44.5520 C   0  0  0  0  0  0  0  0  0  0  0  0
   57.2750   24.4577   43.9732 H   0  0  0  0  0  0  0  0  0  0  0  0
   58.0980   26.4630   43.9880 C   0  0  0  0  0  0  0  0  0  0  0  0
   58.5114   26.3777   42.9722 H   0  0  0  0  0  0  0  0  0  0  0  0
   60.0520   30.0440   45.8850 N   0  0  0  0  0  0  0  0  0  0  0  0
   60.2030   31.0810   46.7460 C   0  0  0  0  0  0  0  0  0  0  0  0
   61.3040   31.0710   47.5260 C   0  0  0  0  0  0  0  0  0  0  0  0
   61.5188   30.1438   48.0774 H   0  0  0  0  0  0  0  0  0  0  0  0
   62.2440   32.1910   47.7050 C   0  0  0  0  0  0  0  0  0  0  0  0
   62.4220   33.4540   46.6120 S   0  0  0  0  0  0  0  0  0  0  0  0
   63.6870   34.2190   47.4140 C   0  0  0  0  0  0  0  0  0  0  0  0
   64.1794   35.1506   47.0983 H   0  0  0  0  0  0  0  0  0  0  0  0
   64.0040   33.4750   48.5420 C   0  0  0  0  0  0  0  0  0  0  0  0
   64.7971   33.7616   49.2483 H   0  0  0  0  0  0  0  0  0  0  0  0
   63.2180   32.3230   48.6970 C   0  0  0  0  0  0  0  0  0  0  0  0
   63.4120   31.3600   49.8310 C   0  0  0  0  0  0  0  0  0  0  0  0
   63.3046   31.8931   50.7872 H   0  0  0  0  0  0  0  0  0  0  0  0
   62.6564   30.5631   49.7686 H   0  0  0  0  0  0  0  0  0  0  0  0
   64.4173   30.9178   49.7686 H   0  0  0  0  0  0  0  0  0  0  0  0
   59.2260   32.1050   46.7550 C   0  0  0  0  0  0  0  0  0  0  0  0
   59.3750   33.1270   47.4800 O   0  0  0  0  0  0  0  0  0  0  0  0
  1  2  1  0
  2  3  1  0
  2  4  2  0
  4  5  1  0
  5  6  1  0
  6  7  2  0
  6  8  1  0
  8  9  1  0
  9 10  1  0
  9 11  1  0
  9 12  1  0
 12 13  1  0
 12 14  1  0
 12 15  1  0
  5 16  2  0
 16 17  1  0
 17 18  1  0
 17 19  1  0
 17 20  1  0
 20 21  2  0
 21 22  1  0
 21 23  1  0
 23 24  1  0
 23 25  2  0
 25 26  1  0
 25 27  1  0
 27 28  1  0
 27 29  2  0
 29 30  1  0
 16 31  1  0
 31 32  1  0
 32 33  2  0
 33 34  1  0
 33 35  1  0
 35 36  1  0
 36 37  1  0
 37 38  1  0
 37 39  2  0
 39 40  1  0
 39 41  1  0
 41 42  1  0
 42 43  1  0
 42 44  1  0
 42 45  1  0
 32 46  1  0
 46 47  2  0
 46  4  1  0
 29 20  1  0
 41 35  2  0
M  CHG  2  17   1  31  -1
M  END
>  <UniqueID>  (64) 
63

>  <SMILES>  (64) 
C=c1c(C(=O)OCC)c([NH2+]c2ccc(Cl)cc2)[n-]/c(=C/c2sccc2C)c1=O

>  <Energy>  (64) 
97.06788406747857

>  <Genealogy>  (64) 
C=c1c(C(=O)OCC)c([NH2+]c2ccc(Cl)cc2)[n-]c(=Cc2sccc2C)c1=O (protonated)
C=c1c(C(=O)OCC)c([NH2+]c2ccc(Cl)cc2)[n-]/c(=C/c2sccc2C)c1=O (cis-trans isomerization)
C=c1c(C(=O)OCC)c([NH2+]c2ccc(Cl)cc2)[n-]/c(=C/c2sccc2C)c1=O (3D coordinates assigned)
C=c1c(C(=O)OCC)c([NH2+]c2ccc(Cl)cc2)[n-]/c(=C/c2sccc2C)c1=O (optimized conformer: 97.06788406747857 kcal/mol)

>  <smiles>  (64) 
C=c1c(C(=O)OCC)c(Nc2ccc(Cl)cc2)[nH]c(=Cc2sccc2C)c1=O

>  <score_type>  (64) 
oracle

>  <origin>  (64) 
adg

>  <m_score__min__energy>  (64) 
-7.8200000000000003

>  <m_primary>  (64) 
energy

$$$$
64:0
     RDKit          3D

 47 49  0  0  1  0  0  0  0  0999 V2000
   57.1170   25.1790   44.4250 C   0  0  0  0  0  0  0  0  0  0  0  0
   57.9700   25.8530   45.4380 C   0  0  0  0  0  0  0  0  0  0  0  0
   58.0160   25.4260   46.7690 C   0  0  0  0  0  0  0  0  0  0  0  0
   58.7900   26.0430   47.6690 N   0  0  0  0  0  0  0  0  0  0  0  0
   59.5300   27.0920   47.2720 C   0  0  0  0  0  0  0  0  0  0  0  0
   60.2860   27.7200   48.0830 N   0  0  0  0  0  0  0  0  0  0  0  0
   59.9290   28.9470   48.7230 C   0  0  0  0  0  0  0  0  0  0  0  0
   60.6540   30.1230   48.1230 C   0  0  0  0  0  0  0  0  0  0  0  0
   61.7050   30.7900   48.6380 N   0  0  0  0  0  0  0  0  0  0  0  0
   62.1050   31.7870   47.8370 C   0  0  0  0  0  0  0  0  0  0  0  0
   63.1980   32.6760   48.1120 C   0  0  0  0  0  0  0  0  0  0  0  0
   64.1050   33.3960   48.3220 N   0  0  0  0  0  0  0  0  0  0  0  0
   61.2560   31.7500   46.7520 C   0  0  0  0  0  0  0  0  0  0  0  0
   60.3870   30.7300   46.9530 N   0  0  0  0  0  0  0  0  0  0  0  0
   59.4800   27.5090   45.9590 C   0  0  0  0  0  0  0  0  0  0  0  0
   60.1840   28.5080   45.5840 O   0  0  0  0  0  0  0  0  0  0  0  0
   58.7100   26.9040   45.0390 N   0  0  0  0  0  0  0  0  0  0  0  0
   58.7050   27.4010   43.6710 C   0  0  0  0  0  0  0  0  0  0  0  0
   57.7800   28.5610   43.5810 C   0  0  0  0  0  0  0  0  0  0  0  0
   57.0190   28.6090   42.5840 O   0  0  0  0  0  0  0  0  0  0  0  0
   57.7840   29.5540   44.5940 N   0  0  0  0  0  0  0  0  0  0  0  0
   56.8970   30.6970   44.5380 C   0  0  0  0  0  0  0  0  0  0  0  0
   57.6140   31.9140   44.9840 C   0  0  0  0  0  0  0  0  0  0  0  0
   57.7640   32.2810   46.2990 C   0  0  0  0  0  0  0  0  0  0  0  0
   58.4480   33.4320   46.6310 C   0  0  0  0  0  0  0  0  0  0  0  0
   58.9950   34.2370   45.6270 C   0  0  0  0  0  0  0  0  0  0  0  0
   59.8720   35.7080   46.0440 Cl  0  0  0  0  0  0  0  0  0  0  0  0
   58.8570   33.8870   44.3030 C   0  0  0  0  0  0  0  0  0  0  0  0
   58.1610   32.7190   44.0140 C   0  0  0  0  0  0  0  0  0  0  0  0
   57.9980   32.2950   42.3280 Cl  0  0  0  0  0  0  0  0  0  0  0  0
   56.3518   24.5744   44.9338 H   0  0  0  0  0  0  0  0  0  0  0  0
   56.6271   25.9366   43.7957 H   0  0  0  0  0  0  0  0  0  0  0  0
   57.7407   24.5271   43.7957 H   0  0  0  0  0  0  0  0  0  0  0  0
   57.4044   24.5668   47.0817 H   0  0  0  0  0  0  0  0  0  0  0  0
   58.8460   25.7510   48.6680 H   0  0  0  0  0  0  0  0  0  0  0  0
   58.8456   29.1033   48.6139 H   0  0  0  0  0  0  0  0  0  0  0  0
   60.2135   28.8748   49.7831 H   0  0  0  0  0  0  0  0  0  0  0  0
   61.2795   32.4242   45.8831 H   0  0  0  0  0  0  0  0  0  0  0  0
   59.6290   30.4810   46.2720 H   0  0  0  0  0  0  0  0  0  0  0  0
   59.7205   27.7164   43.3895 H   0  0  0  0  0  0  0  0  0  0  0  0
   58.3716   26.6059   42.9879 H   0  0  0  0  0  0  0  0  0  0  0  0
   58.4600   29.4130   45.3820 H   0  0  0  0  0  0  0  0  0  0  0  0
   56.5480   30.8375   43.5043 H   0  0  0  0  0  0  0  0  0  0  0  0
   56.0366   30.5205   45.2002 H   0  0  0  0  0  0  0  0  0  0  0  0
   57.3355   31.6523   47.0934 H   0  0  0  0  0  0  0  0  0  0  0  0
   58.5633   33.7170   47.6872 H   0  0  0  0  0  0  0  0  0  0  0  0
   59.2824   34.5095   43.5020 H   0  0  0  0  0  0  0  0  0  0  0  0
  1  2  1  0
  2  3  2  0
  3  4  1  0
  4  5  1  0
  5  6  2  0
  6  7  1  0
  7  8  1  0
  8  9  2  0
  9 10  1  0
 10 11  1  0
 11 12  3  0
 10 13  2  0
 13 14  1  0
  5 15  1  0
 15 16  2  0
 15 17  1  0
 17 18  1  0
 18 19  1  0
 19 20  2  0
 19 21  1  0
 21 22  1  0
 22 23  1  0
 23 24  2  0
 24 25  1  0
 25 26  2  0
 26 27  1  0
 26 28  1  0
 28 29  2  0
 29 30  1  0
 17  2  1  0
 29 23  1  0
 14  8  1  0
  1 31  1  0
  1 32  1  0
  1 33  1  0
  3 34  1  0
  4 35  1  0
  7 36  1  0
  7 37  1  0
 13 38  1  0
 14 39  1  0
 18 40  1  0
 18 41  1  0
 21 42  1  0
 22 43  1  0
 22 44  1  0
 24 45  1  0
 25 46  1  0
 28 47  1  0
M  END
>  <smiles>  (65) 
Cc1c[nH]c(=NCc2nc(C#N)c[nH]2)c(=O)n1CC(=O)NCc1ccc(Cl)cc1Cl

>  <score_type>  (65) 
oracle

>  <origin>  (65) 
adg

>  <m_score__min__energy>  (65) 
-8.2300000000000004

>  <m_primary>  (65) 
energy

$$$$
65:0
     RDKit          3D

 54 57  0  0  0  0  0  0  0  0999 V2000
   54.7438   21.0765   45.4179 H   0  0  0  0  0  0  0  0  0  0  0  0
   54.7340   22.1750   45.4750 C   0  0  0  0  0  0  0  0  0  0  0  0
   55.9020   22.8700   45.4150 N   0  0  0  0  0  0  0  0  0  0  0  0
   55.9380   24.2320   45.4700 C   0  0  0  0  0  0  0  0  0  0  0  0
   57.0690   24.8780   45.4000 N   0  0  0  0  0  0  0  0  0  0  0  0
   57.5190   25.9060   46.3000 C   0  0  0  0  0  0  0  0  0  0  0  0
   57.2820   25.7740   47.5290 O   0  0  0  0  0  0  0  0  0  0  0  0
   58.1810   27.1440   45.8140 C   0  0  0  0  0  0  0  0  0  0  0  0
   57.4100   28.2780   45.5130 C   0  0  0  0  0  0  0  0  0  0  0  0
   56.3275   28.2667   45.7081 H   0  0  0  0  0  0  0  0  0  0  0  0
   58.0020   29.4220   44.9680 C   0  0  0  0  0  0  0  0  0  0  0  0
   56.9730   30.7470   44.4420 S   0  0  0  0  0  0  0  0  0  0  0  0
   57.4570   31.2330   43.1050 O   0  0  0  0  0  0  0  0  0  0  0  0
   55.5580   30.2570   44.3050 O   0  0  0  0  0  0  0  0  0  0  0  0
   57.0880   32.0010   45.6660 N   0  0  0  0  0  0  0  0  0  0  0  0
   58.1120   31.7430   46.6860 C   0  0  0  0  0  0  0  0  0  0  0  0
   57.8990   32.3679   47.5658 H   0  0  0  0  0  0  0  0  0  0  0  0
   58.0757   30.6717   46.9329 H   0  0  0  0  0  0  0  0  0  0  0  0
   59.5310   32.0600   46.1880 C   0  0  0  0  0  0  0  0  0  0  0  0
   60.2215   32.0169   47.0432 H   0  0  0  0  0  0  0  0  0  0  0  0
   59.7867   31.3155   45.4196 H   0  0  0  0  0  0  0  0  0  0  0  0
   59.6330   33.3920   45.5670 N   0  0  0  0  0  0  0  0  0  0  0  0
   60.1210   34.4930   46.4240 C   0  0  0  0  0  0  0  0  0  0  0  0
   60.4276   35.3268   45.7753 H   0  0  0  0  0  0  0  0  0  0  0  0
   59.2944   34.7631   47.0976 H   0  0  0  0  0  0  0  0  0  0  0  0
   61.2920   34.1160   47.2980 C   0  0  0  0  0  0  0  0  0  0  0  0
   61.1810   34.1730   48.6980 C   0  0  0  0  0  0  0  0  0  0  0  0
   60.2303   34.4777   49.1598 H   0  0  0  0  0  0  0  0  0  0  0  0
   62.2740   33.8440   49.5070 C   0  0  0  0  0  0  0  0  0  0  0  0
   62.1776   33.8808   50.6022 H   0  0  0  0  0  0  0  0  0  0  0  0
   63.4870   33.4690   48.9260 C   0  0  0  0  0  0  0  0  0  0  0  0
   64.3443   33.2079   49.5639 H   0  0  0  0  0  0  0  0  0  0  0  0
   63.6130   33.4250   47.5340 C   0  0  0  0  0  0  0  0  0  0  0  0
   64.5687   33.1284   47.0772 H   0  0  0  0  0  0  0  0  0  0  0  0
   62.5240   33.7580   46.7230 C   0  0  0  0  0  0  0  0  0  0  0  0
   62.6317   33.7398   45.6284 H   0  0  0  0  0  0  0  0  0  0  0  0
   58.5660   33.7220   44.6040 C   0  0  0  0  0  0  0  0  0  0  0  0
   58.5998   34.8022   44.3988 H   0  0  0  0  0  0  0  0  0  0  0  0
   58.7449   33.1277   43.6958 H   0  0  0  0  0  0  0  0  0  0  0  0
   57.1620   33.3640   45.1220 C   0  0  0  0  0  0  0  0  0  0  0  0
   56.8880   34.0748   45.9155 H   0  0  0  0  0  0  0  0  0  0  0  0
   56.4695   33.4190   44.2691 H   0  0  0  0  0  0  0  0  0  0  0  0
   59.3910   29.4700   44.7970 C   0  0  0  0  0  0  0  0  0  0  0  0
   59.8643   30.3752   44.3888 H   0  0  0  0  0  0  0  0  0  0  0  0
   60.1750   28.3680   45.1450 C   0  0  0  0  0  0  0  0  0  0  0  0
   61.2677   28.4150   45.0271 H   0  0  0  0  0  0  0  0  0  0  0  0
   59.5780   27.2040   45.6430 C   0  0  0  0  0  0  0  0  0  0  0  0
   60.3620   26.1340   45.9290 F   0  0  0  0  0  0  0  0  0  0  0  0
   54.7390   24.9480   45.6170 C   0  0  0  0  0  0  0  0  0  0  0  0
   54.7420   26.3360   45.6860 O   0  0  0  0  0  0  0  0  0  0  0  0
   53.5290   24.2500   45.6820 C   0  0  0  0  0  0  0  0  0  0  0  0
   52.5820   24.7990   45.7906 H   0  0  0  0  0  0  0  0  0  0  0  0
   53.5240   22.8560   45.6090 C   0  0  0  0  0  0  0  0  0  0  0  0
   52.5758   22.3004   45.6566 H   0  0  0  0  0  0  0  0  0  0  0  0
  1  2  1  0
  2  3  1  0
  3  4  1  0
  4  5  2  0
  5  6  1  0
  6  7  2  0
  6  8  1  0
  8  9  2  0
  9 10  1  0
  9 11  1  0
 11 12  1  0
 12 13  2  0
 12 14  2  0
 12 15  1  0
 15 16  1  0
 16 17  1  0
 16 18  1  0
 16 19  1  0
 19 20  1  0
 19 21  1  0
 19 22  1  0
 22 23  1  0
 23 24  1  0
 23 25  1  0
 23 26  1  0
 26 27  2  0
 27 28  1  0
 27 29  1  0
 29 30  1  0
 29 31  2  0
 31 32  1  0
 31 33  1  0
 33 34  1  0
 33 35  2  0
 35 36  1  0
 22 37  1  0
 37 38  1  0
 37 39  1  0
 37 40  1  0
 40 41  1  0
 40 42  1  0
 11 43  2  0
 43 44  1  0
 43 45  1  0
 45 46  1  0
 45 47  2  0
 47 48  1  0
  4 49  1  0
 49 50  1  0
 49 51  2  0
 51 52  1  0
 51 53  1  0
 53 54  1  0
 53  2  2  0
 47  8  1  0
 40 15  1  0
 35 26  1  0
M  CHG  2   3  -1  50  -1
M  END
>  <UniqueID>  (66) 
64

>  <SMILES>  (66) 
O=C(/N=c1\[n-]cccc1[O-])c1cc(S(=O)(=O)N2CCN(Cc3ccccc3)CC2)ccc1F

>  <Energy>  (66) 
77.3312738510525

>  <Genealogy>  (66) 
O=C(N=c1[n-]cccc1[O-])c1cc(S(=O)(=O)N2CCN(Cc3ccccc3)CC2)ccc1F (protonated)
O=C(/N=c1\[n-]cccc1[O-])c1cc(S(=O)(=O)N2CCN(Cc3ccccc3)CC2)ccc1F (cis-trans isomerization)
O=C(/N=c1\[n-]cccc1[O-])c1cc(S(=O)(=O)N2CCN(Cc3ccccc3)CC2)ccc1F (3D coordinates assigned)
O=C(/N=c1\[n-]cccc1[O-])c1cc(S(=O)(=O)N2CCN(Cc3ccccc3)CC2)ccc1F (nonaromatic ring conformer: 77.3312738510525 kcal/mol)

>  <smiles>  (66) 
O=C(N=c1[nH]cccc1O)c1cc(S(=O)(=O)N2CCN(Cc3ccccc3)CC2)ccc1F

>  <score_type>  (66) 
oracle

>  <origin>  (66) 
adg

>  <m_score__min__energy>  (66) 
-16.100000000000001

>  <m_primary>  (66) 
energy

$$$$
66:0
     RDKit          3D

 72 76  0  0  0  0  0  0  0  0999 V2000
   57.6999   26.6758   42.4250 H   0  0  0  0  0  0  0  0  0  0  0  0
   57.7940   27.2850   43.3360 C   0  0  0  0  0  0  0  0  0  0  0  0
   57.2890   28.5450   43.3660 N   0  0  0  0  0  0  0  0  0  0  0  0
   57.3840   29.3150   44.4840 C   0  0  0  0  0  0  0  0  0  0  0  0
   56.9200   30.5300   44.5110 N   0  0  0  0  0  0  0  0  0  0  0  0
   57.5930   31.7010   45.0060 C   0  0  0  0  0  0  0  0  0  0  0  0
   58.1440   31.6650   46.2930 C   0  0  0  0  0  0  0  0  0  0  0  0
   58.0768   30.7438   46.8903 H   0  0  0  0  0  0  0  0  0  0  0  0
   58.7790   32.7920   46.8240 C   0  0  0  0  0  0  0  0  0  0  0  0
   59.2310   32.7471   47.8258 H   0  0  0  0  0  0  0  0  0  0  0  0
   58.8400   33.9770   46.0820 C   0  0  0  0  0  0  0  0  0  0  0  0
   59.6350   35.4300   46.7750 S   0  0  0  0  0  0  0  0  0  0  0  0
   60.0640   34.6400   48.3670 C   0  0  0  0  0  0  0  0  0  0  0  0
   60.0167   35.3942   49.1664 H   0  0  0  0  0  0  0  0  0  0  0  0
   59.3470   33.8280   48.5580 H   0  0  0  0  0  0  0  0  0  0  0  0
   61.4490   34.0540   48.3260 C   0  0  0  0  0  0  0  0  0  0  0  0
   61.9490   33.4900   47.1400 C   0  0  0  0  0  0  0  0  0  0  0  0
   61.3138   33.4464   46.2430 H   0  0  0  0  0  0  0  0  0  0  0  0
   63.2520   32.9840   47.0970 C   0  0  0  0  0  0  0  0  0  0  0  0
   63.6399   32.5449   46.1660 H   0  0  0  0  0  0  0  0  0  0  0  0
   64.0620   33.0350   48.2340 C   0  0  0  0  0  0  0  0  0  0  0  0
   65.0856   32.6337   48.1985 H   0  0  0  0  0  0  0  0  0  0  0  0
   63.5720   33.5960   49.4170 C   0  0  0  0  0  0  0  0  0  0  0  0
   64.3610   33.6490   50.5190 F   0  0  0  0  0  0  0  0  0  0  0  0
   62.2710   34.1050   49.4650 C   0  0  0  0  0  0  0  0  0  0  0  0
   61.8893   34.5469   50.3972 H   0  0  0  0  0  0  0  0  0  0  0  0
   58.2730   34.0280   44.8040 C   0  0  0  0  0  0  0  0  0  0  0  0
   58.3243   34.9573   44.2177 H   0  0  0  0  0  0  0  0  0  0  0  0
   57.6410   32.9000   44.2700 C   0  0  0  0  0  0  0  0  0  0  0  0
   57.1803   32.9501   43.2724 H   0  0  0  0  0  0  0  0  0  0  0  0
   58.0140   28.8240   45.5840 N   0  0  0  0  0  0  0  0  0  0  0  0
   58.5510   27.5730   45.6000 C   0  0  0  0  0  0  0  0  0  0  0  0
   59.2040   27.0860   46.8340 C   0  0  0  0  0  0  0  0  0  0  0  0
   59.1140   25.8600   47.1180 O   0  0  0  0  0  0  0  0  0  0  0  0
   59.9450   27.9800   47.7550 C   0  0  0  0  0  0  0  0  0  0  0  0
   60.2280   27.5620   49.0640 C   0  0  0  0  0  0  0  0  0  0  0  0
   59.9135   26.5618   49.3968 H   0  0  0  0  0  0  0  0  0  0  0  0
   60.9060   28.4050   49.9490 C   0  0  0  0  0  0  0  0  0  0  0  0
   61.1333   28.0569   50.9674 H   0  0  0  0  0  0  0  0  0  0  0  0
   61.3000   29.6940   49.5490 C   0  0  0  0  0  0  0  0  0  0  0  0
   62.0180   30.5760   50.5000 C   0  0  0  0  0  0  0  0  0  0  0  0
   63.2800   30.5840   50.4980 O   0  0  0  0  0  0  0  0  0  0  0  0
   61.3040   31.4040   51.4330 N   0  0  0  0  0  0  0  0  0  0  0  0
   60.2630   31.3600   51.4820 H   0  0  0  0  0  0  0  0  0  0  0  0
   61.9830   32.3200   52.3510 C   0  0  0  0  0  0  0  0  0  0  0  0
   62.3376   31.7525   53.2241 H   0  0  0  0  0  0  0  0  0  0  0  0
   62.8246   32.7830   51.8149 H   0  0  0  0  0  0  0  0  0  0  0  0
   61.0450   33.4390   52.8310 C   0  0  0  0  0  0  0  0  0  0  0  0
   61.5801   34.0375   53.5829 H   0  0  0  0  0  0  0  0  0  0  0  0
   60.7671   34.0197   51.9391 H   0  0  0  0  0  0  0  0  0  0  0  0
   59.7290   32.9410   53.4590 C   0  0  0  0  0  0  0  0  0  0  0  0
   59.9076   31.9663   53.9366 H   0  0  0  0  0  0  0  0  0  0  0  0
   59.3967   33.6850   54.1980 H   0  0  0  0  0  0  0  0  0  0  0  0
   58.6640   32.7900   52.4420 N   0  0  0  0  0  0  0  0  0  0  0  0
   59.0570   33.2620   51.1020 C   0  0  0  0  0  0  0  0  0  0  0  0
   58.5935   34.2389   50.9001 H   0  0  0  0  0  0  0  0  0  0  0  0
   60.1497   33.3735   51.0428 H   0  0  0  0  0  0  0  0  0  0  0  0
   58.5740   32.2390   50.0780 C   0  0  0  0  0  0  0  0  0  0  0  0
   57.9513   32.7246   49.3122 H   0  0  0  0  0  0  0  0  0  0  0  0
   59.4116   31.7601   49.5498 H   0  0  0  0  0  0  0  0  0  0  0  0
   57.7600   31.2400   50.8670 C   0  0  0  0  0  0  0  0  0  0  0  0
   56.6879   31.4806   50.8146 H   0  0  0  0  0  0  0  0  0  0  0  0
   57.8601   30.2142   50.4828 H   0  0  0  0  0  0  0  0  0  0  0  0
   58.2750   31.3850   52.2810 C   0  0  0  0  0  0  0  0  0  0  0  0
   57.4855   31.1246   53.0013 H   0  0  0  0  0  0  0  0  0  0  0  0
   59.1268   30.7135   52.4643 H   0  0  0  0  0  0  0  0  0  0  0  0
   61.0120   30.1140   48.2380 C   0  0  0  0  0  0  0  0  0  0  0  0
   61.3231   31.1152   47.9052 H   0  0  0  0  0  0  0  0  0  0  0  0
   60.3340   29.2700   47.3550 C   0  0  0  0  0  0  0  0  0  0  0  0
   60.1025   29.6182   46.3376 H   0  0  0  0  0  0  0  0  0  0  0  0
   58.4320   26.7640   44.4610 C   0  0  0  0  0  0  0  0  0  0  0  0
   58.8335   25.7399   44.4551 H   0  0  0  0  0  0  0  0  0  0  0  0
  1  2  1  0
  2  3  1  0
  3  4  1  0
  4  5  2  0
  5  6  1  0
  6  7  2  0
  7  8  1  0
  7  9  1  0
  9 10  1  0
  9 11  2  0
 11 12  1  0
 12 13  1  0
 13 14  1  0
 13 15  1  0
 13 16  1  0
 16 17  2  0
 17 18  1  0
 17 19  1  0
 19 20  1  0
 19 21  2  0
 21 22  1  0
 21 23  1  0
 23 24  1  0
 23 25  2  0
 25 26  1  0
 11 27  1  0
 27 28  1  0
 27 29  2  0
 29 30  1  0
  4 31  1  0
 31 32  2  0
 32 33  1  0
 33 34  2  0
 33 35  1  0
 35 36  2  0
 36 37  1  0
 36 38  1  0
 38 39  1  0
 38 40  2  0
 40 41  1  0
 41 42  2  0
 41 43  1  0
 43 44  1  0
 43 45  1  0
 45 46  1  0
 45 47  1  0
 45 48  1  0
 48 49  1  0
 48 50  1  0
 48 51  1  0
 51 52  1  0
 51 53  1  0
 51 54  1  0
 54 55  1  0
 55 56  1  0
 55 57  1  0
 55 58  1  0
 58 59  1  0
 58 60  1  0
 58 61  1  0
 61 62  1  0
 61 63  1  0
 61 64  1  0
 64 65  1  0
 64 66  1  0
 40 67  1  0
 67 68  1  0
 67 69  2  0
 69 70  1  0
 32 71  1  0
 71 72  1  0
 71  2  2  0
 29  6  1  0
 69 35  1  0
 25 16  1  0
 64 54  1  0
M  CHG  1   3  -1
M  END
>  <UniqueID>  (67) 
65

>  <SMILES>  (67) 
O=C(NCCCN1CCCC1)c1ccc(C(=O)c2cc[n-]/c(=N\c3ccc(SCc4cccc(F)c4)cc3)n2)cc1

>  <Energy>  (67) 
86.62487832524938

>  <Genealogy>  (67) 
O=C(NCCCN1CCCC1)c1ccc(C(=O)c2cc[n-]c(=Nc3ccc(SCc4cccc(F)c4)cc3)n2)cc1 (protonated)
O=C(NCCCN1CCCC1)c1ccc(C(=O)c2cc[n-]/c(=N\c3ccc(SCc4cccc(F)c4)cc3)n2)cc1 (cis-trans isomerization)
O=C(NCCCN1CCCC1)c1ccc(C(=O)c2cc[n-]/c(=N\c3ccc(SCc4cccc(F)c4)cc3)n2)cc1 (3D coordinates assigned)
O=C(NCCCN1CCCC1)c1ccc(C(=O)c2cc[n-]/c(=N\c3ccc(SCc4cccc(F)c4)cc3)n2)cc1 (nonaromatic ring conformer: 86.62487832524938 kcal/mol)

>  <smiles>  (67) 
O=C(NCCCN1CCCC1)c1ccc(C(=O)c2cc[nH]c(=Nc3ccc(SCc4cccc(F)c4)cc3)n2)cc1

>  <score_type>  (67) 
oracle

>  <origin>  (67) 
adg

>  <m_score__min__energy>  (67) 
-11.039999999999999

>  <m_primary>  (67) 
energy

$$$$
67:0
     RDKit          3D

 41 44  0  0  0  0  0  0  0  0999 V2000
   56.5990   27.7950   44.6950 H   0  0  0  0  0  0  0  0  0  0  0  0
   57.1510   28.6440   44.7040 O   0  0  0  0  0  0  0  0  0  0  0  0
   57.8310   29.0990   45.8370 C   0  0  0  0  0  0  0  0  0  0  0  0
   58.4610   28.2070   46.7330 C   0  0  0  0  0  0  0  0  0  0  0  0
   58.5240   26.7520   46.4720 C   0  0  0  0  0  0  0  0  0  0  0  0
   59.2650   26.0370   47.1970 O   0  0  0  0  0  0  0  0  0  0  0  0
   57.7580   26.1190   45.4310 N   0  0  0  0  0  0  0  0  0  0  0  0
   56.9170   25.1320   45.5650 C   0  0  0  0  0  0  0  0  0  0  0  0
   57.3310   23.8350   45.4870 N   0  0  0  0  0  0  0  0  0  0  0  0
   56.4710   22.7910   45.6350 C   0  0  0  0  0  0  0  0  0  0  0  0
   56.8418   21.7580   45.5607 H   0  0  0  0  0  0  0  0  0  0  0  0
   55.1190   23.0310   45.8810 C   0  0  0  0  0  0  0  0  0  0  0  0
   54.4177   22.1918   45.9988 H   0  0  0  0  0  0  0  0  0  0  0  0
   54.6660   24.3480   45.9760 C   0  0  0  0  0  0  0  0  0  0  0  0
   53.6033   24.5521   46.1733 H   0  0  0  0  0  0  0  0  0  0  0  0
   55.5650   25.4070   45.8200 C   0  0  0  0  0  0  0  0  0  0  0  0
   55.1120   26.7190   45.9180 O   0  0  0  0  0  0  0  0  0  0  0  0
   59.0620   28.7060   47.8970 C   0  0  0  0  0  0  0  0  0  0  0  0
   59.5131   28.0088   48.6184 H   0  0  0  0  0  0  0  0  0  0  0  0
   59.0940   30.0770   48.1500 C   0  0  0  0  0  0  0  0  0  0  0  0
   59.5716   30.4522   49.0671 H   0  0  0  0  0  0  0  0  0  0  0  0
   58.5200   30.9830   47.2410 C   0  0  0  0  0  0  0  0  0  0  0  0
   58.5610   32.3810   47.4400 C   0  0  0  0  0  0  0  0  0  0  0  0
   59.4250   33.1340   48.8300 S   0  0  0  0  0  0  0  0  0  0  0  0
   61.0210   33.0300   48.0150 C   0  0  0  0  0  0  0  0  0  0  0  0
   61.3490   33.9250   46.9880 C   0  0  0  0  0  0  0  0  0  0  0  0
   60.6227   34.6877   46.6706 H   0  0  0  0  0  0  0  0  0  0  0  0
   62.6000   33.8490   46.3660 C   0  0  0  0  0  0  0  0  0  0  0  0
   62.8584   34.5553   45.5632 H   0  0  0  0  0  0  0  0  0  0  0  0
   63.5220   32.8760   46.7640 C   0  0  0  0  0  0  0  0  0  0  0  0
   64.5066   32.8190   46.2767 H   0  0  0  0  0  0  0  0  0  0  0  0
   63.1920   31.9750   47.7820 C   0  0  0  0  0  0  0  0  0  0  0  0
   63.9158   31.2066   48.0913 H   0  0  0  0  0  0  0  0  0  0  0  0
   61.9430   32.0500   48.4070 C   0  0  0  0  0  0  0  0  0  0  0  0
   61.6844   31.3398   49.2062 H   0  0  0  0  0  0  0  0  0  0  0  0
   57.9290   33.2250   46.5200 C   0  0  0  0  0  0  0  0  0  0  0  0
   57.9387   34.3141   46.6738 H   0  0  0  0  0  0  0  0  0  0  0  0
   57.2870   32.6820   45.4080 C   0  0  0  0  0  0  0  0  0  0  0  0
   56.7874   33.3439   44.6853 H   0  0  0  0  0  0  0  0  0  0  0  0
   57.2770   31.3390   45.2150 N   0  0  0  0  0  0  0  0  0  0  0  0
   57.8700   30.4800   46.0880 C   0  0  0  0  0  0  0  0  0  0  0  0
  1  2  1  0
  2  3  1  0
  3  4  2  0
  4  5  1  0
  5  6  2  0
  5  7  1  0
  7  8  2  0
  8  9  1  0
  9 10  1  0
 10 11  1  0
 10 12  2  0
 12 13  1  0
 12 14  1  0
 14 15  1  0
 14 16  2  0
 16 17  1  0
  4 18  1  0
 18 19  1  0
 18 20  2  0
 20 21  1  0
 20 22  1  0
 22 23  2  0
 23 24  1  0
 24 25  1  0
 25 26  2  0
 26 27  1  0
 26 28  1  0
 28 29  1  0
 28 30  2  0
 30 31  1  0
 30 32  1  0
 32 33  1  0
 32 34  2  0
 34 35  1  0
 23 36  1  0
 36 37  1  0
 36 38  2  0
 38 39  1  0
 38 40  1  0
 40 41  2  0
 41  3  1  0
 16  8  1  0
 41 22  1  0
 34 25  1  0
M  CHG  2   9  -1  17  -1
M  END
>  <UniqueID>  (68) 
66

>  <SMILES>  (68) 
O=C(/N=c1\[n-]cccc1[O-])c1ccc2c(Sc3ccccc3)ccnc2c1O

>  <Energy>  (68) 
57.91009621742561

>  <Genealogy>  (68) 
O=C(N=c1[n-]cccc1[O-])c1ccc2c(Sc3ccccc3)ccnc2c1O (protonated)
O=C(/N=c1\[n-]cccc1[O-])c1ccc2c(Sc3ccccc3)ccnc2c1O (cis-trans isomerization)
O=C(/N=c1\[n-]cccc1[O-])c1ccc2c(Sc3ccccc3)ccnc2c1O (3D coordinates assigned)
O=C(/N=c1\[n-]cccc1[O-])c1ccc2c(Sc3ccccc3)ccnc2c1O (optimized conformer: 57.91009621742561 kcal/mol)

>  <smiles>  (68) 
O=C(N=c1[nH]cccc1O)c1ccc2c(Sc3ccccc3)ccnc2c1O

>  <score_type>  (68) 
oracle

>  <origin>  (68) 
adg

>  <m_score__min__energy>  (68) 
-14.369999999999999

>  <m_primary>  (68) 
energy

$$$$
68:0
     RDKit          3D

 70 74  0  0  0  0  0  0  0  0999 V2000
   61.3070   27.3190   50.8020 O   0  0  0  0  0  0  0  0  0  0  0  0
   60.6740   27.6870   49.7730 C   0  0  0  0  0  0  0  0  0  0  0  0
   60.4010   26.6940   48.6860 C   0  0  0  0  0  0  0  0  0  0  0  0
   59.5090   27.2980   47.6490 C   0  0  0  0  0  0  0  0  0  0  0  0
   58.2560   26.8080   47.4630 N   0  0  0  0  0  0  0  0  0  0  0  0
   57.4110   27.3680   46.5600 C   0  0  0  0  0  0  0  0  0  0  0  0
   56.2590   26.8820   46.4110 O   0  0  0  0  0  0  0  0  0  0  0  0
   57.8260   28.4790   45.8020 C   0  0  0  0  0  0  0  0  0  0  0  0
   59.1370   28.9470   45.9870 C   0  0  0  0  0  0  0  0  0  0  0  0
   59.9350   28.3600   46.9190 N   0  0  0  0  0  0  0  0  0  0  0  0
   59.6460   30.1600   45.2720 C   0  0  0  0  0  0  0  0  0  0  0  0
   58.8260   30.4980   44.0210 C   0  0  0  0  0  0  0  0  0  0  0  0
   57.3760   30.3870   44.2500 N   0  0  0  0  0  0  0  0  0  0  0  0
   56.6730   31.5930   44.7410 C   0  0  0  0  0  0  0  0  0  0  0  0
   57.5870   32.6690   45.2780 C   0  0  0  0  0  0  0  0  0  0  0  0
   58.1580   33.6180   44.4180 C   0  0  0  0  0  0  0  0  0  0  0  0
   59.0320   34.5870   44.9180 C   0  0  0  0  0  0  0  0  0  0  0  0
   59.3750   34.5940   46.2700 C   0  0  0  0  0  0  0  0  0  0  0  0
   58.8260   33.6440   47.1470 C   0  0  0  0  0  0  0  0  0  0  0  0
   59.2790   33.5810   48.5900 C   0  0  0  0  0  0  0  0  0  0  0  0
   60.4460   32.7010   48.8170 N   0  0  0  0  0  0  0  0  0  0  0  0
   60.7420   31.7180   47.7460 C   0  0  0  0  0  0  0  0  0  0  0  0
   62.1930   31.7750   47.2490 C   0  0  0  0  0  0  0  0  0  0  0  0
   62.6660   33.2210   47.1540 C   0  0  0  0  0  0  0  0  0  0  0  0
   62.6520   33.8990   48.5320 C   0  0  0  0  0  0  0  0  0  0  0  0
   61.6040   33.3140   49.5000 C   0  0  0  0  0  0  0  0  0  0  0  0
   57.9280   32.6860   46.6440 C   0  0  0  0  0  0  0  0  0  0  0  0
   56.9110   29.0820   44.7600 C   0  0  0  0  0  0  0  0  0  0  0  0
   60.2170   29.0400   49.6450 N   0  0  0  0  0  0  0  0  0  0  0  0
   60.2800   30.0040   50.7470 C   0  0  0  0  0  0  0  0  0  0  0  0
   59.0180   29.9910   51.5800 C   0  0  0  0  0  0  0  0  0  0  0  0
   57.9060   30.7890   51.2410 C   0  0  0  0  0  0  0  0  0  0  0  0
   56.7350   30.7330   52.0020 C   0  0  0  0  0  0  0  0  0  0  0  0
   55.6790   31.5230   51.6810 F   0  0  0  0  0  0  0  0  0  0  0  0
   56.6520   29.8670   53.0960 C   0  0  0  0  0  0  0  0  0  0  0  0
   57.7340   29.0450   53.4210 C   0  0  0  0  0  0  0  0  0  0  0  0
   58.9100   29.0980   52.6650 C   0  0  0  0  0  0  0  0  0  0  0  0
   59.9400   28.2680   52.9850 F   0  0  0  0  0  0  0  0  0  0  0  0
   61.3512   26.3955   48.2191 H   0  0  0  0  0  0  0  0  0  0  0  0
   59.9037   25.8138   49.1196 H   0  0  0  0  0  0  0  0  0  0  0  0
   59.6064   31.0168   45.9607 H   0  0  0  0  0  0  0  0  0  0  0  0
   60.6749   29.9463   44.9468 H   0  0  0  0  0  0  0  0  0  0  0  0
   59.0570   31.5293   43.7159 H   0  0  0  0  0  0  0  0  0  0  0  0
   59.0970   29.7742   43.2383 H   0  0  0  0  0  0  0  0  0  0  0  0
   56.0935   32.0173   43.9078 H   0  0  0  0  0  0  0  0  0  0  0  0
   56.0400   31.2692   45.5803 H   0  0  0  0  0  0  0  0  0  0  0  0
   57.9169   33.5996   43.3449 H   0  0  0  0  0  0  0  0  0  0  0  0
   59.4512   35.3473   44.2426 H   0  0  0  0  0  0  0  0  0  0  0  0
   60.0794   35.3478   46.6516 H   0  0  0  0  0  0  0  0  0  0  0  0
   59.5448   34.5981   48.9137 H   0  0  0  0  0  0  0  0  0  0  0  0
   58.4440   33.1570   49.1672 H   0  0  0  0  0  0  0  0  0  0  0  0
   60.5467   30.7082   48.1361 H   0  0  0  0  0  0  0  0  0  0  0  0
   60.0963   31.9660   46.8907 H   0  0  0  0  0  0  0  0  0  0  0  0
   62.8386   31.2280   47.9519 H   0  0  0  0  0  0  0  0  0  0  0  0
   62.2465   31.3159   46.2508 H   0  0  0  0  0  0  0  0  0  0  0  0
   63.6912   33.2382   46.7555 H   0  0  0  0  0  0  0  0  0  0  0  0
   61.9831   33.7689   46.4881 H   0  0  0  0  0  0  0  0  0  0  0  0
   63.6471   33.7831   48.9862 H   0  0  0  0  0  0  0  0  0  0  0  0
   62.3854   34.9536   48.3687 H   0  0  0  0  0  0  0  0  0  0  0  0
   62.0914   32.5446   50.1168 H   0  0  0  0  0  0  0  0  0  0  0  0
   61.2184   34.1500   50.1020 H   0  0  0  0  0  0  0  0  0  0  0  0
   57.4875   31.9424   47.3245 H   0  0  0  0  0  0  0  0  0  0  0  0
   55.9157   29.2182   45.2080 H   0  0  0  0  0  0  0  0  0  0  0  0
   56.8937   28.3892   43.9058 H   0  0  0  0  0  0  0  0  0  0  0  0
   59.6960   29.3200   48.7830 H   0  0  0  0  0  0  0  0  0  0  0  0
   61.1345   29.7515   51.3920 H   0  0  0  0  0  0  0  0  0  0  0  0
   60.3930   31.0092   50.3148 H   0  0  0  0  0  0  0  0  0  0  0  0
   57.9605   31.4604   50.3714 H   0  0  0  0  0  0  0  0  0  0  0  0
   55.7343   29.8326   53.7014 H   0  0  0  0  0  0  0  0  0  0  0  0
   57.6610   28.3541   54.2738 H   0  0  0  0  0  0  0  0  0  0  0  0
  1  2  2  0
  2  3  1  0
  3  4  1  0
  4  5  2  0
  5  6  1  0
  6  7  2  0
  6  8  1  0
  8  9  2  0
  9 10  1  0
  9 11  1  0
 11 12  1  0
 12 13  1  0
 13 14  1  0
 14 15  1  0
 15 16  2  0
 16 17  1  0
 17 18  2  0
 18 19  1  0
 19 20  1  0
 20 21  1  0
 21 22  1  0
 22 23  1  0
 23 24  1  0
 24 25  1  0
 25 26  1  0
 19 27  2  0
 13 28  1  0
  2 29  1  0
 29 30  1  0
 30 31  1  0
 31 32  2  0
 32 33  1  0
 33 34  1  0
 33 35  2  0
 35 36  1  0
 36 37  2  0
 37 38  1  0
 10  4  1  0
 27 15  1  0
 37 31  1  0
 28  8  1  0
 26 21  1  0
  3 39  1  0
  3 40  1  0
 11 41  1  0
 11 42  1  0
 12 43  1  0
 12 44  1  0
 14 45  1  0
 14 46  1  0
 16 47  1  0
 17 48  1  0
 18 49  1  0
 20 50  1  0
 20 51  1  0
 22 52  1  0
 22 53  1  0
 23 54  1  0
 23 55  1  0
 24 56  1  0
 24 57  1  0
 25 58  1  0
 25 59  1  0
 26 60  1  0
 26 61  1  0
 27 62  1  0
 28 63  1  0
 28 64  1  0
 29 65  1  0
 30 66  1  0
 30 67  1  0
 32 68  1  0
 35 69  1  0
 36 70  1  0
M  CHG  1  10  -1
M  END
>  <UniqueID>  (69) 
67

>  <SMILES>  (69) 
O=C(Cc1nc(=O)c2c([n-]1)CCN(Cc1cccc(CN3CCCCC3)c1)C2)NCc1cc(F)ccc1F

>  <Energy>  (69) 
91.26536964217344

>  <Genealogy>  (69) 
O=C(Cc1nc(=O)c2c([n-]1)CCN(Cc1cccc(CN3CCCCC3)c1)C2)NCc1cc(F)ccc1F (protonated)
O=C(Cc1nc(=O)c2c([n-]1)CCN(Cc1cccc(CN3CCCCC3)c1)C2)NCc1cc(F)ccc1F (3D coordinates assigned)
O=C(Cc1nc(=O)c2c([n-]1)CCN(Cc1cccc(CN3CCCCC3)c1)C2)NCc1cc(F)ccc1F (nonaromatic ring conformer: 91.26536964217344 kcal/mol)

>  <smiles>  (69) 
O=C(Cc1nc(=O)c2c([nH]1)CCN(Cc1cccc(CN3CCCCC3)c1)C2)NCc1cc(F)ccc1F

>  <score_type>  (69) 
oracle

>  <origin>  (69) 
adg

>  <m_score__min__energy>  (69) 
-10.4

>  <m_primary>  (69) 
energy

$$$$
69:0
     RDKit          3D

 60 63  0  0  0  0  0  0  0  0999 V2000
   58.8240   29.2030   44.1790 C   0  0  0  0  0  0  0  0  0  0  0  0
   58.9390   28.8300   45.4650 C   0  0  0  0  0  0  0  0  0  0  0  0
   58.6430   27.5600   45.9860 C   0  0  0  0  0  0  0  0  0  0  0  0
   57.9890   26.5120   45.4480 C   0  0  0  0  0  0  0  0  0  0  0  0
   57.2700   25.4750   46.2060 C   0  0  0  0  0  0  0  0  0  0  0  0
   57.8330   24.3410   46.6650 N   0  0  0  0  0  0  0  0  0  0  0  0
   56.7840   23.6490   47.1580 C   0  0  0  0  0  0  0  0  0  0  0  0
   56.9120   22.5190   47.6970 O   0  0  0  0  0  0  0  0  0  0  0  0
   55.5880   24.2570   47.0190 N   0  0  0  0  0  0  0  0  0  0  0  0
   55.9090   25.4070   46.4030 C   0  0  0  0  0  0  0  0  0  0  0  0
   54.9700   26.3660   46.0320 O   0  0  0  0  0  0  0  0  0  0  0  0
   59.1470   27.5410   47.2730 C   0  0  0  0  0  0  0  0  0  0  0  0
   59.6460   28.7990   47.5230 C   0  0  0  0  0  0  0  0  0  0  0  0
   60.2870   29.2020   48.7900 C   0  0  0  0  0  0  0  0  0  0  0  0
   61.1300   28.4210   49.3080 O   0  0  0  0  0  0  0  0  0  0  0  0
   60.0250   30.4880   49.3940 N   0  0  0  0  0  0  0  0  0  0  0  0
   61.0800   31.0280   50.2840 C   0  0  0  0  0  0  0  0  0  0  0  0
   60.7900   32.4290   50.8310 C   0  0  0  0  0  0  0  0  0  0  0  0
   59.9900   33.1780   49.8720 N   0  0  0  0  0  0  0  0  0  0  0  0
   60.5700   34.0810   48.9060 C   0  0  0  0  0  0  0  0  0  0  0  0
   59.8310   34.9420   48.3540 O   0  0  0  0  0  0  0  0  0  0  0  0
   62.0300   33.9770   48.5150 C   0  0  0  0  0  0  0  0  0  0  0  0
   62.3230   33.8170   47.0280 C   0  0  0  0  0  0  0  0  0  0  0  0
   62.4420   32.6200   47.9600 C   0  0  0  0  0  0  0  0  0  0  0  0
   58.6730   32.6070   49.6320 C   0  0  0  0  0  0  0  0  0  0  0  0
   58.8370   31.2530   48.9450 C   0  0  0  0  0  0  0  0  0  0  0  0
   59.5120   29.5980   46.4360 N   0  0  0  0  0  0  0  0  0  0  0  0
   60.0050   30.9870   46.3470 C   0  0  0  0  0  0  0  0  0  0  0  0
   59.0200   31.9250   45.6060 C   0  0  0  0  0  0  0  0  0  0  0  0
   58.8000   33.2500   46.2270 N   0  0  0  0  0  0  0  0  0  0  0  0
   57.4140   33.4790   46.6580 C   0  0  0  0  0  0  0  0  0  0  0  0
   59.3190   34.3740   45.4340 C   0  0  0  0  0  0  0  0  0  0  0  0
   59.0844   30.2286   43.8784 H   0  0  0  0  0  0  0  0  0  0  0  0
   58.4694   28.4827   43.4270 H   0  0  0  0  0  0  0  0  0  0  0  0
   57.9927   26.4240   44.3515 H   0  0  0  0  0  0  0  0  0  0  0  0
   54.0140   26.3260   46.3670 H   0  0  0  0  0  0  0  0  0  0  0  0
   59.1489   26.6853   47.9642 H   0  0  0  0  0  0  0  0  0  0  0  0
   61.1948   30.3427   51.1367 H   0  0  0  0  0  0  0  0  0  0  0  0
   61.9923   31.1113   49.6751 H   0  0  0  0  0  0  0  0  0  0  0  0
   60.2384   32.3438   51.7789 H   0  0  0  0  0  0  0  0  0  0  0  0
   61.7404   32.9561   51.0008 H   0  0  0  0  0  0  0  0  0  0  0  0
   62.3947   34.6523   49.3030 H   0  0  0  0  0  0  0  0  0  0  0  0
   61.5022   33.8657   46.2973 H   0  0  0  0  0  0  0  0  0  0  0  0
   62.9921   34.3128   46.3093 H   0  0  0  0  0  0  0  0  0  0  0  0
   61.7073   31.8034   47.9027 H   0  0  0  0  0  0  0  0  0  0  0  0
   63.2331   31.8922   48.1936 H   0  0  0  0  0  0  0  0  0  0  0  0
   58.1485   32.4737   50.5897 H   0  0  0  0  0  0  0  0  0  0  0  0
   58.0865   33.2811   48.9905 H   0  0  0  0  0  0  0  0  0  0  0  0
   57.9399   30.6503   49.1501 H   0  0  0  0  0  0  0  0  0  0  0  0
   58.9759   31.4554   47.8727 H   0  0  0  0  0  0  0  0  0  0  0  0
   60.1582   31.3719   47.3660 H   0  0  0  0  0  0  0  0  0  0  0  0
   60.9431   30.9703   45.7729 H   0  0  0  0  0  0  0  0  0  0  0  0
   59.4098   32.0890   44.5905 H   0  0  0  0  0  0  0  0  0  0  0  0
   58.0450   31.4165   45.6351 H   0  0  0  0  0  0  0  0  0  0  0  0
   57.3683   33.4866   47.7570 H   0  0  0  0  0  0  0  0  0  0  0  0
   57.0645   34.4471   46.2698 H   0  0  0  0  0  0  0  0  0  0  0  0
   56.7717   32.6748   46.2698 H   0  0  0  0  0  0  0  0  0  0  0  0
   59.6829   35.1622   46.1095 H   0  0  0  0  0  0  0  0  0  0  0  0
   60.1466   34.0239   44.7996 H   0  0  0  0  0  0  0  0  0  0  0  0
   58.5158   34.7769   44.7996 H   0  0  0  0  0  0  0  0  0  0  0  0
  1  2  2  0
  2  3  1  0
  3  4  2  3
  4  5  1  0
  5  6  1  0
  6  7  1  0
  7  8  2  0
  7  9  1  0
  9 10  1  0
 10 11  1  0
  3 12  1  0
 12 13  2  0
 13 14  1  0
 14 15  2  0
 14 16  1  0
 16 17  1  0
 17 18  1  0
 18 19  1  0
 19 20  1  0
 20 21  2  0
 20 22  1  0
 22 23  1  0
 23 24  1  0
 19 25  1  0
 25 26  1  0
 13 27  1  0
 27 28  1  0
 28 29  1  0
 29 30  1  0
 30 31  1  0
 30 32  1  0
 27  2  1  0
 10  5  2  0
 26 16  1  0
 24 22  1  0
  1 33  1  0
  1 34  1  0
  4 35  1  0
 11 36  1  0
 12 37  1  0
 17 38  1  0
 17 39  1  0
 18 40  1  0
 18 41  1  0
 22 42  1  0
 23 43  1  0
 23 44  1  0
 24 45  1  0
 24 46  1  0
 25 47  1  0
 25 48  1  0
 26 49  1  0
 26 50  1  0
 28 51  1  0
 28 52  1  0
 29 53  1  0
 29 54  1  0
 31 55  1  0
 31 56  1  0
 31 57  1  0
 32 58  1  0
 32 59  1  0
 32 60  1  0
M  CHG  2   6  -1   9  -1
M  END
>  <UniqueID>  (70) 
68

>  <SMILES>  (70) 
C=c1c(=Cc2[n-]c(=O)[n-]c2O)cc(C(=O)N2CCN(C(=O)C3CC3)CC2)n1CCN(C)C

>  <Energy>  (70) 
409.6581077909627

>  <Genealogy>  (70) 
C=c1c(=Cc2[n-]c(=O)[n-]c2O)cc(C(=O)N2CCN(C(=O)C3CC3)CC2)n1CCN(C)C (protonated)
C=c1c(=Cc2[n-]c(=O)[n-]c2O)cc(C(=O)N2CCN(C(=O)C3CC3)CC2)n1CCN(C)C (3D coordinates assigned)
C=c1c(=Cc2[n-]c(=O)[n-]c2O)cc(C(=O)N2CCN(C(=O)C3CC3)CC2)n1CCN(C)C (nonaromatic ring conformer: 409.6581077909627 kcal/mol)

>  <smiles>  (70) 
C=c1c(=Cc2[nH]c(=O)[nH]c2O)cc(C(=O)N2CCN(C(=O)C3CC3)CC2)n1CCN(C)C

>  <score_type>  (70) 
oracle

>  <origin>  (70) 
adg

>  <m_score__min__energy>  (70) 
-13.359999999999999

>  <m_primary>  (70) 
energy

$$$$
70:0
     RDKit          3D

 79 83  0  0  0  0  0  0  0  0999 V2000
   59.6720   33.9230   53.3320 C   0  0  0  0  0  0  0  0  0  0  0  0
   58.2750   34.0950   52.7460 C   0  0  0  0  0  0  0  0  0  0  0  0
   57.7600   32.7950   52.1940 C   0  0  0  0  0  0  0  0  0  0  0  0
   56.6590   32.3560   52.6300 O   0  0  0  0  0  0  0  0  0  0  0  0
   58.4850   32.0480   51.1910 N   0  0  0  0  0  0  0  0  0  0  0  0
   58.1280   30.6370   50.9770 C   0  0  0  0  0  0  0  0  0  0  0  0
   59.3370   29.8420   50.4890 C   0  0  0  0  0  0  0  0  0  0  0  0
   59.9720   30.5420   49.3660 N   0  0  0  0  0  0  0  0  0  0  0  0
   60.5490   29.7990   48.2740 C   0  0  0  0  0  0  0  0  0  0  0  0
   61.7210   30.0700   47.8950 O   0  0  0  0  0  0  0  0  0  0  0  0
   59.7880   28.7350   47.5730 C   0  0  0  0  0  0  0  0  0  0  0  0
   60.0080   27.3840   47.8890 C   0  0  0  0  0  0  0  0  0  0  0  0
   59.2880   26.3800   47.2380 C   0  0  0  0  0  0  0  0  0  0  0  0
   58.3540   26.7090   46.2570 C   0  0  0  0  0  0  0  0  0  0  0  0
   58.1530   28.0520   45.8950 C   0  0  0  0  0  0  0  0  0  0  0  0
   57.2000   28.4280   44.8880 N   0  0  0  0  0  0  0  0  0  0  0  0
   56.5080   29.6810   44.8030 C   0  0  0  0  0  0  0  0  0  0  0  0
   55.2480   29.6800   44.8310 O   0  0  0  0  0  0  0  0  0  0  0  0
   57.2380   30.9740   44.7800 C   0  0  0  0  0  0  0  0  0  0  0  0
   57.7010   31.5070   45.9950 C   0  0  0  0  0  0  0  0  0  0  0  0
   58.3780   32.7240   46.0290 C   0  0  0  0  0  0  0  0  0  0  0  0
   58.5970   33.4450   44.8490 C   0  0  0  0  0  0  0  0  0  0  0  0
   59.2920   34.7810   44.9000 C   0  0  0  0  0  0  0  0  0  0  0  0
   59.9240   35.0530   46.2360 C   0  0  0  0  0  0  0  0  0  0  0  0
   59.3000   35.6840   47.1330 O   0  0  0  0  0  0  0  0  0  0  0  0
   61.2430   34.5660   46.4870 N   0  0  0  0  0  0  0  0  0  0  0  0
   61.5350   33.1580   46.7230 C   0  0  0  0  0  0  0  0  0  0  0  0
   62.9680   32.9940   47.2260 C   0  0  0  0  0  0  0  0  0  0  0  0
   63.0900   33.4130   48.6630 C   0  0  0  0  0  0  0  0  0  0  0  0
   62.3850   34.4390   49.2840 C   0  0  0  0  0  0  0  0  0  0  0  0
   62.8110   34.5980   50.5580 N   0  0  0  0  0  0  0  0  0  0  0  0
   63.7870   33.6930   50.7420 C   0  0  0  0  0  0  0  0  0  0  0  0
   64.5460   33.4920   51.8940 C   0  0  0  0  0  0  0  0  0  0  0  0
   65.5380   32.4930   51.8620 C   0  0  0  0  0  0  0  0  0  0  0  0
   65.7530   31.7300   50.6880 C   0  0  0  0  0  0  0  0  0  0  0  0
   66.7410   30.7470   50.6570 O   0  0  0  0  0  0  0  0  0  0  0  0
   64.9700   31.9600   49.5410 C   0  0  0  0  0  0  0  0  0  0  0  0
   63.9900   32.9510   49.6060 C   0  0  0  0  0  0  0  0  0  0  0  0
   58.1280   32.9310   43.6310 C   0  0  0  0  0  0  0  0  0  0  0  0
   57.4690   31.6910   43.5780 C   0  0  0  0  0  0  0  0  0  0  0  0
   57.0210   31.1640   42.2400 C   0  0  0  0  0  0  0  0  0  0  0  0
   58.8630   29.0570   46.5630 C   0  0  0  0  0  0  0  0  0  0  0  0
   60.3830   31.9290   49.6020 C   0  0  0  0  0  0  0  0  0  0  0  0
   59.1950   32.7500   50.1070 C   0  0  0  0  0  0  0  0  0  0  0  0
   59.6123   33.9303   54.4304 H   0  0  0  0  0  0  0  0  0  0  0  0
   60.0960   32.9659   52.9942 H   0  0  0  0  0  0  0  0  0  0  0  0
   60.3155   34.7487   52.9942 H   0  0  0  0  0  0  0  0  0  0  0  0
   57.5941   34.4457   53.5355 H   0  0  0  0  0  0  0  0  0  0  0  0
   58.3254   34.8284   51.9277 H   0  0  0  0  0  0  0  0  0  0  0  0
   57.7718   30.2070   51.9247 H   0  0  0  0  0  0  0  0  0  0  0  0
   57.3384   30.5841   50.2130 H   0  0  0  0  0  0  0  0  0  0  0  0
   60.0610   29.7374   51.3105 H   0  0  0  0  0  0  0  0  0  0  0  0
   59.0071   28.8466   50.1567 H   0  0  0  0  0  0  0  0  0  0  0  0
   60.7517   27.1154   48.6537 H   0  0  0  0  0  0  0  0  0  0  0  0
   59.4586   25.3255   47.5004 H   0  0  0  0  0  0  0  0  0  0  0  0
   57.7727   25.9153   45.7649 H   0  0  0  0  0  0  0  0  0  0  0  0
   57.5266   30.9563   46.9311 H   0  0  0  0  0  0  0  0  0  0  0  0
   58.7425   33.1206   46.9881 H   0  0  0  0  0  0  0  0  0  0  0  0
   60.0763   34.7998   44.1289 H   0  0  0  0  0  0  0  0  0  0  0  0
   58.5332   35.5581   44.7260 H   0  0  0  0  0  0  0  0  0  0  0  0
   60.8378   32.7637   47.4769 H   0  0  0  0  0  0  0  0  0  0  0  0
   61.4200   32.6043   45.7795 H   0  0  0  0  0  0  0  0  0  0  0  0
   63.2621   31.9380   47.1339 H   0  0  0  0  0  0  0  0  0  0  0  0
   63.6257   33.6339   46.6194 H   0  0  0  0  0  0  0  0  0  0  0  0
   61.5938   35.0360   48.8069 H   0  0  0  0  0  0  0  0  0  0  0  0
   62.4600   35.2970   51.2510 H   0  0  0  0  0  0  0  0  0  0  0  0
   64.3755   34.0942   52.7986 H   0  0  0  0  0  0  0  0  0  0  0  0
   66.1508   32.3037   52.7557 H   0  0  0  0  0  0  0  0  0  0  0  0
   67.3830   30.6210   51.4300 H   0  0  0  0  0  0  0  0  0  0  0  0
   65.1260   31.3764   48.6217 H   0  0  0  0  0  0  0  0  0  0  0  0
   58.2780   33.5060   42.7054 H   0  0  0  0  0  0  0  0  0  0  0  0
   56.3152   30.3338   42.3905 H   0  0  0  0  0  0  0  0  0  0  0  0
   56.5260   31.9684   41.6762 H   0  0  0  0  0  0  0  0  0  0  0  0
   57.8946   30.8049   41.6762 H   0  0  0  0  0  0  0  0  0  0  0  0
   58.6956   30.1106   46.2950 H   0  0  0  0  0  0  0  0  0  0  0  0
   61.1848   31.9479   50.3549 H   0  0  0  0  0  0  0  0  0  0  0  0
   60.7457   32.3628   48.6585 H   0  0  0  0  0  0  0  0  0  0  0  0
   59.5610   33.7162   50.4845 H   0  0  0  0  0  0  0  0  0  0  0  0
   58.4950   32.9002   49.2719 H   0  0  0  0  0  0  0  0  0  0  0  0
  1  2  1  0
  2  3  1  0
  3  4  2  0
  3  5  1  0
  5  6  1  0
  6  7  1  0
  7  8  1  0
  8  9  1  0
  9 10  2  0
  9 11  1  0
 11 12  2  0
 12 13  1  0
 13 14  2  0
 14 15  1  0
 15 16  1  0
 16 17  1  0
 17 18  2  0
 17 19  1  0
 19 20  2  0
 20 21  1  0
 21 22  2  0
 22 23  1  0
 23 24  1  0
 24 25  2  0
 24 26  1  0
 26 27  1  0
 27 28  1  0
 28 29  1  0
 29 30  2  0
 30 31  1  0
 31 32  1  0
 32 33  2  0
 33 34  1  0
 34 35  2  0
 35 36  1  0
 35 37  1  0
 37 38  2  0
 22 39  1  0
 39 40  2  0
 40 41  1  0
 15 42  2  0
  8 43  1  0
 43 44  1  0
 44  5  1  0
 42 11  1  0
 40 19  1  0
 38 29  1  0
 38 32  1  0
  1 45  1  0
  1 46  1  0
  1 47  1  0
  2 48  1  0
  2 49  1  0
  6 50  1  0
  6 51  1  0
  7 52  1  0
  7 53  1  0
 12 54  1  0
 13 55  1  0
 14 56  1  0
 20 57  1  0
 21 58  1  0
 23 59  1  0
 23 60  1  0
 27 61  1  0
 27 62  1  0
 28 63  1  0
 28 64  1  0
 30 65  1  0
 31 66  1  0
 33 67  1  0
 34 68  1  0
 36 69  1  0
 37 70  1  0
 39 71  1  0
 41 72  1  0
 41 73  1  0
 41 74  1  0
 42 75  1  0
 43 76  1  0
 43 77  1  0
 44 78  1  0
 44 79  1  0
M  CHG  2  16  -1  26  -1
M  END
>  <UniqueID>  (71) 
69

>  <SMILES>  (71) 
CCC(=O)N1CCN(C(=O)c2cccc([N-]C(=O)c3ccc(CC(=O)[N-]CCc4c[nH]c5ccc(O)cc45)cc3C)c2)CC1

>  <Energy>  (71) 
121.02857933357893

>  <Genealogy>  (71) 
CCC(=O)N1CCN(C(=O)c2cccc([N-]C(=O)c3ccc(CC(=O)[N-]CCc4c[nH]c5ccc(O)cc45)cc3C)c2)CC1 (protonated)
CCC(=O)N1CCN(C(=O)c2cccc([N-]C(=O)c3ccc(CC(=O)[N-]CCc4c[nH]c5ccc(O)cc45)cc3C)c2)CC1 (3D coordinates assigned)
CCC(=O)N1CCN(C(=O)c2cccc([N-]C(=O)c3ccc(CC(=O)[N-]CCc4c[nH]c5ccc(O)cc45)cc3C)c2)CC1 (nonaromatic ring conformer: 121.02857933357893 kcal/mol)

>  <smiles>  (71) 
CCC(=O)N1CCN(C(=O)c2cccc(NC(=O)c3ccc(CC(=O)NCCc4c[nH]c5ccc(O)cc45)cc3C)c2)CC1

>  <score_type>  (71) 
oracle

>  <origin>  (71) 
adg

>  <m_score__min__energy>  (71) 
-14.59

>  <m_primary>  (71) 
energy

$$$$
71:0
     RDKit          3D

 50 54  0  0  0  0  0  0  0  0999 V2000
   58.0689   30.0069   43.0394 H   0  0  0  0  0  0  0  0  0  0  0  0
   58.1070   30.2810   44.1040 C   0  0  0  0  0  0  0  0  0  0  0  0
   58.2040   31.4890   44.5660 N   0  0  0  0  0  0  0  0  0  0  0  0
   58.1500   31.3960   45.9620 N   0  0  0  0  0  0  0  0  0  0  0  0
   58.8850   32.0730   46.8680 C   0  0  0  0  0  0  0  0  0  0  0  0
   59.3300   33.2870   46.7280 N   0  0  0  0  0  0  0  0  0  0  0  0
   58.4920   34.4290   46.3810 C   0  0  0  0  0  0  0  0  0  0  0  0
   58.7594   35.0750   47.2303 H   0  0  0  0  0  0  0  0  0  0  0  0
   58.3470   34.6100   44.8820 C   0  0  0  0  0  0  0  0  0  0  0  0
   58.2794   35.6210   44.4539 H   0  0  0  0  0  0  0  0  0  0  0  0
   58.9114   34.2743   43.9995 H   0  0  0  0  0  0  0  0  0  0  0  0
   57.1910   34.0500   45.6970 C   0  0  0  0  0  0  0  0  0  0  0  0
   56.2873   34.6560   45.8588 H   0  0  0  0  0  0  0  0  0  0  0  0
   56.5726   33.1415   45.6488 H   0  0  0  0  0  0  0  0  0  0  0  0
   59.1780   31.2940   47.9310 N   0  0  0  0  0  0  0  0  0  0  0  0
   59.7050   31.5480   48.7960 H   0  0  0  0  0  0  0  0  0  0  0  0
   58.6130   30.1060   47.6100 C   0  0  0  0  0  0  0  0  0  0  0  0
   58.5520   29.1150   48.4550 N   0  0  0  0  0  0  0  0  0  0  0  0
   59.5820   28.6560   49.3440 C   0  0  0  0  0  0  0  0  0  0  0  0
   60.1530   27.3770   49.2150 C   0  0  0  0  0  0  0  0  0  0  0  0
   59.8167   26.7048   48.4119 H   0  0  0  0  0  0  0  0  0  0  0  0
   61.1460   26.9580   50.1040 C   0  0  0  0  0  0  0  0  0  0  0  0
   61.6001   25.9632   49.9848 H   0  0  0  0  0  0  0  0  0  0  0  0
   61.5680   27.7930   51.1450 C   0  0  0  0  0  0  0  0  0  0  0  0
   62.5730   27.3280   52.0060 O   0  0  0  0  0  0  0  0  0  0  0  0
   63.0140   25.9760   52.0710 C   0  0  0  0  0  0  0  0  0  0  0  0
   63.1129   25.6728   53.1238 H   0  0  0  0  0  0  0  0  0  0  0  0
   62.2811   25.3267   51.5697 H   0  0  0  0  0  0  0  0  0  0  0  0
   63.9888   25.8838   51.5697 H   0  0  0  0  0  0  0  0  0  0  0  0
   60.9700   29.0590   51.2950 C   0  0  0  0  0  0  0  0  0  0  0  0
   61.2858   29.7210   52.1148 H   0  0  0  0  0  0  0  0  0  0  0  0
   59.9760   29.4770   50.4050 C   0  0  0  0  0  0  0  0  0  0  0  0
   59.5002   30.4595   50.5406 H   0  0  0  0  0  0  0  0  0  0  0  0
   58.0100   30.1650   46.3960 N   0  0  0  0  0  0  0  0  0  0  0  0
   58.0560   29.3340   45.2320 C   0  0  0  0  0  0  0  0  0  0  0  0
   58.3600   28.0290   45.1800 C   0  0  0  0  0  0  0  0  0  0  0  0
   59.3697   27.7365   44.8560 H   0  0  0  0  0  0  0  0  0  0  0  0
   57.3950   26.9640   45.5400 C   0  0  0  0  0  0  0  0  0  0  0  0
   56.0180   27.2510   45.5940 C   0  0  0  0  0  0  0  0  0  0  0  0
   55.5430   28.5190   45.2770 O   0  0  0  0  0  0  0  0  0  0  0  0
   55.1360   26.2960   45.9820 N   0  0  0  0  0  0  0  0  0  0  0  0
   55.5340   25.0530   46.3510 C   0  0  0  0  0  0  0  0  0  0  0  0
   54.6700   24.2110   46.7110 O   0  0  0  0  0  0  0  0  0  0  0  0
   56.8940   24.7160   46.3400 C   0  0  0  0  0  0  0  0  0  0  0  0
   57.3780   23.1070   46.8840 Cl  0  0  0  0  0  0  0  0  0  0  0  0
   57.8420   25.6720   45.9120 C   0  0  0  0  0  0  0  0  0  0  0  0
   59.3160   25.3330   45.9000 C   0  0  0  0  0  0  0  0  0  0  0  0
   59.6813   25.2490   46.9342 H   0  0  0  0  0  0  0  0  0  0  0  0
   59.4680   24.3764   45.3786 H   0  0  0  0  0  0  0  0  0  0  0  0
   59.8706   26.1270   45.3786 H   0  0  0  0  0  0  0  0  0  0  0  0
  1  2  1  0
  2  3  2  0
  3  4  1  0
  4  5  1  0
  5  6  2  0
  6  7  1  0
  7  8  1  0
  7  9  1  0
  9 10  1  0
  9 11  1  0
  9 12  1  0
 12 13  1  0
 12 14  1  0
  5 15  1  0
 15 16  1  0
 15 17  1  0
 17 18  2  0
 18 19  1  0
 19 20  2  0
 20 21  1  0
 20 22  1  0
 22 23  1  0
 22 24  2  0
 24 25  1  0
 25 26  1  0
 26 27  1  0
 26 28  1  0
 26 29  1  0
 24 30  1  0
 30 31  1  0
 30 32  2  0
 32 33  1  0
 17 34  1  0
 34 35  1  0
 35 36  2  3
 36 37  1  0
 36 38  1  0
 38 39  2  0
 39 40  1  0
 39 41  1  0
 41 42  1  0
 42 43  2  0
 42 44  1  0
 44 45  1  0
 44 46  2  0
 46 47  1  0
 47 48  1  0
 47 49  1  0
 47 50  1  0
 35  2  1  0
 46 38  1  0
 34  4  1  0
 12  7  1  0
 32 19  1  0
M  CHG  2  40  -1  41  -1
M  END
>  <UniqueID>  (72) 
70

>  <SMILES>  (72) 
COc1ccc(/N=c2/[nH]/c(=N/C3CC3)n3n2C(=Cc2c([O-])[n-]c(=O)c(Cl)c2C)C=N3)cc1

>  <Energy>  (72) 
437.4052564021864

>  <Genealogy>  (72) 
COc1ccc(N=c2[nH]c(=NC3CC3)n3n2C(=Cc2c([O-])[n-]c(=O)c(Cl)c2C)C=N3)cc1 (protonated)
COc1ccc(/N=c2/[nH]/c(=N/C3CC3)n3n2C(=Cc2c([O-])[n-]c(=O)c(Cl)c2C)C=N3)cc1 (cis-trans isomerization)
COc1ccc(/N=c2/[nH]/c(=N/C3CC3)n3n2C(=Cc2c([O-])[n-]c(=O)c(Cl)c2C)C=N3)cc1 (3D coordinates assigned)
COc1ccc(/N=c2/[nH]/c(=N/C3CC3)n3n2C(=Cc2c([O-])[n-]c(=O)c(Cl)c2C)C=N3)cc1 (nonaromatic ring conformer: 437.4052564021864 kcal/mol)

>  <smiles>  (72) 
COc1ccc(N=c2[nH]c(=NC3CC3)n3n2C(=Cc2c(O)[nH]c(=O)c(Cl)c2C)C=N3)cc1

>  <score_type>  (72) 
oracle

>  <origin>  (72) 
adg

>  <m_score__min__energy>  (72) 
-13.73

>  <m_primary>  (72) 
energy

$$$$
72:0
     RDKit          3D

 60 63  0  0  0  0  0  0  0  0999 V2000
   56.4990   20.6860   43.2570 N   0  0  0  0  0  0  0  0  0  0  0  0
   56.2920   21.7750   43.9050 C   0  0  0  0  0  0  0  0  0  0  0  0
   56.1010   22.9000   43.2000 N   0  0  0  0  0  0  0  0  0  0  0  0
   55.8800   24.0630   43.8570 C   0  0  0  0  0  0  0  0  0  0  0  0
   55.8380   24.1680   45.2230 C   0  0  0  0  0  0  0  0  0  0  0  0
   55.6330   25.2350   45.9920 O   0  0  0  0  0  0  0  0  0  0  0  0
   56.4730   26.1220   46.5910 C   0  0  0  0  0  0  0  0  0  0  0  0
   57.2900   26.9830   45.7350 C   0  0  0  0  0  0  0  0  0  0  0  0
   58.2470   26.6030   44.8400 C   0  0  0  0  0  0  0  0  0  0  0  0
   58.9710   27.4690   44.0520 C   0  0  0  0  0  0  0  0  0  0  0  0
   58.7340   28.8240   44.1530 C   0  0  0  0  0  0  0  0  0  0  0  0
   57.7750   29.2610   45.0440 C   0  0  0  0  0  0  0  0  0  0  0  0
   57.4860   30.6830   45.1900 C   0  0  0  0  0  0  0  0  0  0  0  0
   56.4490   31.2070   44.7140 O   0  0  0  0  0  0  0  0  0  0  0  0
   58.3930   31.5230   45.8920 N   0  0  0  0  0  0  0  0  0  0  0  0
   58.0940   32.9280   46.0290 C   0  0  0  0  0  0  0  0  0  0  0  0
   59.3970   33.6310   46.3350 C   0  0  0  0  0  0  0  0  0  0  0  0
   59.9490   33.1810   47.6720 C   0  0  0  0  0  0  0  0  0  0  0  0
   61.2110   33.7750   47.9740 N   0  0  0  0  0  0  0  0  0  0  0  0
   61.4220   33.9390   49.3900 C   0  0  0  0  0  0  0  0  0  0  0  0
   62.6870   33.3770   49.9250 C   0  0  0  0  0  0  0  0  0  0  0  0
   63.9090   33.7410   49.1290 C   0  0  0  0  0  0  0  0  0  0  0  0
   63.5530   34.0740   47.6940 C   0  0  0  0  0  0  0  0  0  0  0  0
   62.3550   33.1670   47.3780 C   0  0  0  0  0  0  0  0  0  0  0  0
   59.9620   31.6700   47.7850 C   0  0  0  0  0  0  0  0  0  0  0  0
   59.6000   31.0130   46.4710 C   0  0  0  0  0  0  0  0  0  0  0  0
   57.0550   28.3650   45.8310 C   0  0  0  0  0  0  0  0  0  0  0  0
   56.0480   22.9370   45.9020 C   0  0  0  0  0  0  0  0  0  0  0  0
   56.0330   22.8970   47.1930 N   0  0  0  0  0  0  0  0  0  0  0  0
   56.2640   21.8020   45.2440 N   0  0  0  0  0  0  0  0  0  0  0  0
   57.1410   19.9620   43.6730 H   0  0  0  0  0  0  0  0  0  0  0  0
   56.1220   22.8810   42.1460 H   0  0  0  0  0  0  0  0  0  0  0  0
   55.7255   24.9747   43.2612 H   0  0  0  0  0  0  0  0  0  0  0  0
   55.8576   26.7791   47.2231 H   0  0  0  0  0  0  0  0  0  0  0  0
   57.2023   25.4927   47.1222 H   0  0  0  0  0  0  0  0  0  0  0  0
   58.4550   25.5274   44.7409 H   0  0  0  0  0  0  0  0  0  0  0  0
   59.7278   27.0858   43.3517 H   0  0  0  0  0  0  0  0  0  0  0  0
   59.2970   29.5406   43.5369 H   0  0  0  0  0  0  0  0  0  0  0  0
   57.6665   33.3160   45.0927 H   0  0  0  0  0  0  0  0  0  0  0  0
   57.3602   33.0961   46.8310 H   0  0  0  0  0  0  0  0  0  0  0  0
   60.1270   33.3971   45.5461 H   0  0  0  0  0  0  0  0  0  0  0  0
   59.2122   34.7146   46.3761 H   0  0  0  0  0  0  0  0  0  0  0  0
   59.2618   33.5502   48.4475 H   0  0  0  0  0  0  0  0  0  0  0  0
   61.4122   35.0168   49.6099 H   0  0  0  0  0  0  0  0  0  0  0  0
   60.6145   33.3745   49.8792 H   0  0  0  0  0  0  0  0  0  0  0  0
   62.8216   33.7471   50.9521 H   0  0  0  0  0  0  0  0  0  0  0  0
   62.5922   32.2822   49.8751 H   0  0  0  0  0  0  0  0  0  0  0  0
   64.3900   34.6158   49.5910 H   0  0  0  0  0  0  0  0  0  0  0  0
   64.5909   32.8779   49.1260 H   0  0  0  0  0  0  0  0  0  0  0  0
   63.2749   35.1339   47.5978 H   0  0  0  0  0  0  0  0  0  0  0  0
   64.3948   33.9125   47.0046 H   0  0  0  0  0  0  0  0  0  0  0  0
   62.2175   33.0864   46.2896 H   0  0  0  0  0  0  0  0  0  0  0  0
   62.5131   32.1520   47.7713 H   0  0  0  0  0  0  0  0  0  0  0  0
   60.9689   31.3424   48.0831 H   0  0  0  0  0  0  0  0  0  0  0  0
   59.2155   31.3735   48.5366 H   0  0  0  0  0  0  0  0  0  0  0  0
   60.4237   31.1773   45.7607 H   0  0  0  0  0  0  0  0  0  0  0  0
   59.4346   29.9452   46.6772 H   0  0  0  0  0  0  0  0  0  0  0  0
   56.2967   28.7423   46.5329 H   0  0  0  0  0  0  0  0  0  0  0  0
   55.8510   23.7700   47.7250 H   0  0  0  0  0  0  0  0  0  0  0  0
   56.4180   20.8950   45.7450 H   0  0  0  0  0  0  0  0  0  0  0  0
  1  2  2  3
  2  3  1  0
  3  4  1  0
  4  5  2  0
  5  6  1  0
  6  7  1  0
  7  8  1  0
  8  9  2  0
  9 10  1  0
 10 11  2  0
 11 12  1  0
 12 13  1  0
 13 14  2  0
 13 15  1  0
 15 16  1  0
 16 17  1  0
 17 18  1  0
 18 19  1  0
 19 20  1  0
 20 21  1  0
 21 22  1  0
 22 23  1  0
 23 24  1  0
 18 25  1  0
 25 26  1  0
 12 27  2  0
  5 28  1  0
 28 29  2  3
 28 30  1  0
 30  2  1  0
 27  8  1  0
 26 15  1  0
 24 19  1  0
  1 31  1  0
  3 32  1  0
  4 33  1  0
  7 34  1  0
  7 35  1  0
  9 36  1  0
 10 37  1  0
 11 38  1  0
 16 39  1  0
 16 40  1  0
 17 41  1  0
 17 42  1  0
 18 43  1  0
 20 44  1  0
 20 45  1  0
 21 46  1  0
 21 47  1  0
 22 48  1  0
 22 49  1  0
 23 50  1  0
 23 51  1  0
 24 52  1  0
 24 53  1  0
 25 54  1  0
 25 55  1  0
 26 56  1  0
 26 57  1  0
 27 58  1  0
 29 59  1  0
 30 60  1  0
M  END
>  <smiles>  (73) 
N=c1[nH]cc(OCc2cccc(C(=O)N3CCC(N4CCCCC4)CC3)c2)c(=N)[nH]1

>  <score_type>  (73) 
oracle

>  <origin>  (73) 
adg

>  <m_score__min__energy>  (73) 
-9.8000000000000007

>  <m_primary>  (73) 
energy

$$$$
73:0
     RDKit          3D

 39 41  0  0  0  0  0  0  0  0999 V2000
   58.2023   33.1876   48.5334 H   0  0  0  0  0  0  0  0  0  0  0  0
   58.4460   33.3900   47.4800 C   0  0  0  0  0  0  0  0  0  0  0  0
   58.2020   32.4930   46.4900 N   0  0  0  0  0  0  0  0  0  0  0  0
   58.5890   32.9710   45.2860 C   0  0  0  0  0  0  0  0  0  0  0  0
   58.4730   32.3140   44.1740 N   0  0  0  0  0  0  0  0  0  0  0  0
   57.2570   31.1080   43.9100 S   0  0  0  0  0  0  0  0  0  0  0  0
   55.9700   31.5580   44.5430 O   0  0  0  0  0  0  0  0  0  0  0  0
   57.0370   30.9410   42.4330 O   0  0  0  0  0  0  0  0  0  0  0  0
   57.7860   29.5680   44.5870 C   0  0  0  0  0  0  0  0  0  0  0  0
   59.1520   29.2690   44.6860 C   0  0  0  0  0  0  0  0  0  0  0  0
   59.8991   30.0035   44.3508 H   0  0  0  0  0  0  0  0  0  0  0  0
   59.5690   28.0410   45.2090 C   0  0  0  0  0  0  0  0  0  0  0  0
   60.8940   27.7650   45.2960 F   0  0  0  0  0  0  0  0  0  0  0  0
   58.6280   27.1020   45.6470 C   0  0  0  0  0  0  0  0  0  0  0  0
   59.0820   25.8730   46.1520 O   0  0  0  0  0  0  0  0  0  0  0  0
   58.3190   24.7010   46.2400 C   0  0  0  0  0  0  0  0  0  0  0  0
   57.4490   24.5440   47.3250 C   0  0  0  0  0  0  0  0  0  0  0  0
   57.3773   25.3344   48.0867 H   0  0  0  0  0  0  0  0  0  0  0  0
   56.6710   23.3900   47.4470 C   0  0  0  0  0  0  0  0  0  0  0  0
   55.9982   23.2700   48.3090 H   0  0  0  0  0  0  0  0  0  0  0  0
   56.7460   22.3880   46.4760 C   0  0  0  0  0  0  0  0  0  0  0  0
   56.1455   21.4729   46.5852 H   0  0  0  0  0  0  0  0  0  0  0  0
   57.5840   22.5450   45.3630 C   0  0  0  0  0  0  0  0  0  0  0  0
   57.6830   21.4570   44.3250 C   0  0  0  0  0  0  0  0  0  0  0  0
   58.7007   21.4470   43.9077 H   0  0  0  0  0  0  0  0  0  0  0  0
   56.9481   21.6563   43.5312 H   0  0  0  0  0  0  0  0  0  0  0  0
   57.3940   20.1520   44.9180 N   0  0  0  0  0  0  0  0  0  0  0  0
   56.7140   20.2580   45.7070 H   0  0  0  0  0  0  0  0  0  0  0  0
   56.9950   19.5100   44.1940 H   0  0  0  0  0  0  0  0  0  0  0  0
   58.2800   19.7390   45.2870 H   0  0  0  0  0  0  0  0  0  0  0  0
   58.3720   23.7020   45.2500 C   0  0  0  0  0  0  0  0  0  0  0  0
   59.0353   23.8283   44.3816 H   0  0  0  0  0  0  0  0  0  0  0  0
   57.2580   27.3940   45.5270 C   0  0  0  0  0  0  0  0  0  0  0  0
   56.5108   26.6520   45.8449 H   0  0  0  0  0  0  0  0  0  0  0  0
   56.8400   28.6220   45.0060 C   0  0  0  0  0  0  0  0  0  0  0  0
   55.5120   28.8820   44.9000 F   0  0  0  0  0  0  0  0  0  0  0  0
   59.2420   34.5120   45.3960 S   0  0  0  0  0  0  0  0  0  0  0  0
   59.0270   34.5840   47.0640 C   0  0  0  0  0  0  0  0  0  0  0  0
   59.2989   35.4293   47.7133 H   0  0  0  0  0  0  0  0  0  0  0  0
  1  2  1  0
  2  3  1  0
  3  4  1  0
  4  5  2  0
  5  6  1  0
  6  7  2  0
  6  8  2  0
  6  9  1  0
  9 10  2  0
 10 11  1  0
 10 12  1  0
 12 13  1  0
 12 14  2  0
 14 15  1  0
 15 16  1  0
 16 17  2  0
 17 18  1  0
 17 19  1  0
 19 20  1  0
 19 21  2  0
 21 22  1  0
 21 23  1  0
 23 24  1  0
 24 25  1  0
 24 26  1  0
 24 27  1  0
 27 28  1  0
 27 29  1  0
 27 30  1  0
 23 31  2  0
 31 32  1  0
 14 33  1  0
 33 34  1  0
 33 35  2  0
 35 36  1  0
  4 37  1  0
 37 38  1  0
 38 39  1  0
 38  2  2  0
 35  9  1  0
 31 16  1  0
M  CHG  2   3  -1  27   1
M  END
>  <UniqueID>  (74) 
71

>  <SMILES>  (74) 
[NH3+]Cc1cccc(Oc2cc(F)c(S(=O)(=O)/N=c3\[n-]ccs3)cc2F)c1

>  <Energy>  (74) 
79.21901983668677

>  <Genealogy>  (74) 
[NH3+]Cc1cccc(Oc2cc(F)c(S(=O)(=O)N=c3[n-]ccs3)cc2F)c1 (protonated)
[NH3+]Cc1cccc(Oc2cc(F)c(S(=O)(=O)/N=c3\[n-]ccs3)cc2F)c1 (cis-trans isomerization)
[NH3+]Cc1cccc(Oc2cc(F)c(S(=O)(=O)/N=c3\[n-]ccs3)cc2F)c1 (3D coordinates assigned)
[NH3+]Cc1cccc(Oc2cc(F)c(S(=O)(=O)/N=c3\[n-]ccs3)cc2F)c1 (optimized conformer: 79.21901983668677 kcal/mol)

>  <smiles>  (74) 
NCc1cccc(Oc2cc(F)c(S(=O)(=O)N=c3[nH]ccs3)cc2F)c1

>  <score_type>  (74) 
oracle

>  <origin>  (74) 
adg

>  <m_score__min__energy>  (74) 
-8.6799999999999997

>  <m_primary>  (74) 
energy

$$$$
74:0
     RDKit          3D

 39 41  0  0  0  0  0  0  0  0999 V2000
   55.9020   27.8180   45.5900 O   0  0  0  0  0  0  0  0  0  0  0  0
   56.8190   28.6330   45.3020 C   0  0  0  0  0  0  0  0  0  0  0  0
   58.1830   28.1240   44.9600 C   0  0  0  0  0  0  0  0  0  0  0  0
   59.2110   28.7010   45.8850 C   0  0  0  0  0  0  0  0  0  0  0  0
   60.0840   29.7390   45.5870 C   0  0  0  0  0  0  0  0  0  0  0  0
   60.9100   30.0880   46.6620 C   0  0  0  0  0  0  0  0  0  0  0  0
   60.6960   29.3250   47.8030 C   0  0  0  0  0  0  0  0  0  0  0  0
   59.4720   28.2190   47.4760 S   0  0  0  0  0  0  0  0  0  0  0  0
   56.5570   30.0400   45.2490 N   0  0  0  0  0  0  0  0  0  0  0  0
   57.0050   30.9550   44.2360 C   0  0  0  0  0  0  0  0  0  0  0  0
   56.8990   30.6230   42.8730 C   0  0  0  0  0  0  0  0  0  0  0  0
   57.3590   31.5040   41.8920 C   0  0  0  0  0  0  0  0  0  0  0  0
   57.9240   32.7240   42.2580 C   0  0  0  0  0  0  0  0  0  0  0  0
   58.0180   33.0770   43.6050 C   0  0  0  0  0  0  0  0  0  0  0  0
   57.5430   32.2110   44.6070 C   0  0  0  0  0  0  0  0  0  0  0  0
   57.6670   32.6170   46.0280 C   0  0  0  0  0  0  0  0  0  0  0  0
   57.3360   33.7860   46.3690 O   0  0  0  0  0  0  0  0  0  0  0  0
   58.0970   31.6790   47.0270 N   0  0  0  0  0  0  0  0  0  0  0  0
   58.7020   32.0620   48.2740 C   0  0  0  0  0  0  0  0  0  0  0  0
   58.5670   31.2680   49.4290 C   0  0  0  0  0  0  0  0  0  0  0  0
   59.1410   31.6760   50.6360 C   0  0  0  0  0  0  0  0  0  0  0  0
   59.8450   32.8820   50.7070 C   0  0  0  0  0  0  0  0  0  0  0  0
   60.6110   33.4460   52.3620 Br  0  0  0  0  0  0  0  0  0  0  0  0
   59.9690   33.6840   49.5680 C   0  0  0  0  0  0  0  0  0  0  0  0
   59.3940   33.2800   48.3600 C   0  0  0  0  0  0  0  0  0  0  0  0
   58.1921   27.0276   45.0489 H   0  0  0  0  0  0  0  0  0  0  0  0
   58.4250   28.4254   43.9302 H   0  0  0  0  0  0  0  0  0  0  0  0
   60.1225   30.2362   44.6065 H   0  0  0  0  0  0  0  0  0  0  0  0
   61.6590   30.8918   46.6082 H   0  0  0  0  0  0  0  0  0  0  0  0
   61.2347   29.4268   48.7567 H   0  0  0  0  0  0  0  0  0  0  0  0
   56.4507   29.6628   42.5780 H   0  0  0  0  0  0  0  0  0  0  0  0
   57.2752   31.2345   40.8288 H   0  0  0  0  0  0  0  0  0  0  0  0
   58.2968   33.4104   41.4835 H   0  0  0  0  0  0  0  0  0  0  0  0
   58.4675   34.0409   43.8858 H   0  0  0  0  0  0  0  0  0  0  0  0
   57.8880   30.6670   46.8680 H   0  0  0  0  0  0  0  0  0  0  0  0
   58.0072   30.3223   49.3810 H   0  0  0  0  0  0  0  0  0  0  0  0
   59.0387   31.0468   51.5325 H   0  0  0  0  0  0  0  0  0  0  0  0
   60.5201   34.6344   49.6230 H   0  0  0  0  0  0  0  0  0  0  0  0
   59.4844   33.9209   47.4706 H   0  0  0  0  0  0  0  0  0  0  0  0
  1  2  2  0
  2  3  1  0
  3  4  1  0
  4  5  2  0
  5  6  1  0
  6  7  2  0
  7  8  1  0
  2  9  1  0
  9 10  1  0
 10 11  2  0
 11 12  1  0
 12 13  2  0
 13 14  1  0
 14 15  2  0
 15 16  1  0
 16 17  2  0
 16 18  1  0
 18 19  1  0
 19 20  2  0
 20 21  1  0
 21 22  2  0
 22 23  1  0
 22 24  1  0
 24 25  2  0
  8  4  1  0
 15 10  1  0
 25 19  1  0
  3 26  1  0
  3 27  1  0
  5 28  1  0
  6 29  1  0
  7 30  1  0
 11 31  1  0
 12 32  1  0
 13 33  1  0
 14 34  1  0
 18 35  1  0
 20 36  1  0
 21 37  1  0
 24 38  1  0
 25 39  1  0
M  CHG  1   9  -1
M  END
>  <UniqueID>  (75) 
72

>  <SMILES>  (75) 
O=C(Cc1cccs1)[N-]c1ccccc1C(=O)Nc1ccc(Br)cc1

>  <Energy>  (75) 
71.93927272224165

>  <Genealogy>  (75) 
O=C(Cc1cccs1)[N-]c1ccccc1C(=O)Nc1ccc(Br)cc1 (protonated)
O=C(Cc1cccs1)[N-]c1ccccc1C(=O)Nc1ccc(Br)cc1 (3D coordinates assigned)
O=C(Cc1cccs1)[N-]c1ccccc1C(=O)Nc1ccc(Br)cc1 (optimized conformer: 71.93927272224165 kcal/mol)

>  <smiles>  (75) 
O=C(Cc1cccs1)Nc1ccccc1C(=O)Nc1ccc(Br)cc1

>  <score_type>  (75) 
oracle

>  <origin>  (75) 
adg

>  <m_score__min__energy>  (75) 
-9.4800000000000004

>  <m_primary>  (75) 
energy

$$$$
75:0
     RDKit          3D

 99103  0  0  0  0  0  0  0  0999 V2000
   61.9010   33.3740   49.8020 N   0  0  0  0  0  0  0  0  0  0  0  0
   62.8280   33.7980   48.7570 C   0  0  0  0  0  0  0  0  0  0  0  0
   62.4590   33.1370   47.4250 C   0  0  0  0  0  0  0  0  0  0  0  0
   62.6870   31.6210   47.4830 C   0  0  0  0  0  0  0  0  0  0  0  0
   61.5500   30.8630   46.7740 C   0  0  0  0  0  0  0  0  0  0  0  0
   60.4250   30.4090   47.7230 C   0  0  1  0  0  0  0  0  0  0  0  0
   60.1650   28.9810   47.5560 N   0  0  0  0  0  0  0  0  0  0  0  0
   58.9200   28.4730   47.0750 C   0  0  0  0  0  0  0  0  0  0  0  0
   58.1550   27.8840   47.8860 O   0  0  0  0  0  0  0  0  0  0  0  0
   58.4590   28.7430   45.6600 C   0  0  1  0  0  0  0  0  0  0  0  0
   58.3940   27.5030   44.7310 C   0  0  0  0  0  0  0  0  0  0  0  0
   57.7980   26.2630   45.3500 C   0  0  0  0  0  0  0  0  0  0  0  0
   56.4480   26.2410   45.7410 C   0  0  0  0  0  0  0  0  0  0  0  0
   55.8880   25.0800   46.2810 C   0  0  0  0  0  0  0  0  0  0  0  0
   56.6710   23.9330   46.4430 C   0  0  0  0  0  0  0  0  0  0  0  0
   58.0110   23.9430   46.0510 C   0  0  0  0  0  0  0  0  0  0  0  0
   58.5710   25.0980   45.5010 C   0  0  0  0  0  0  0  0  0  0  0  0
   57.2200   29.5320   45.5970 N   0  0  0  0  0  0  0  0  0  0  0  0
   56.7520   30.4950   44.6340 C   0  0  0  0  0  0  0  0  0  0  0  0
   55.5230   30.5040   44.3670 O   0  0  0  0  0  0  0  0  0  0  0  0
   57.6760   31.3970   43.8480 C   0  0  0  0  0  0  0  0  0  0  0  0
   57.4350   32.8940   44.1150 C   0  0  0  0  0  0  0  0  0  0  0  0
   58.0970   33.3710   45.3840 C   0  0  0  0  0  0  0  0  0  0  0  0
   59.0010   34.4470   45.3570 C   0  0  0  0  0  0  0  0  0  0  0  0
   59.6160   34.8820   46.5350 C   0  0  0  0  0  0  0  0  0  0  0  0
   59.3330   34.2500   47.7490 C   0  0  0  0  0  0  0  0  0  0  0  0
   58.4280   33.1850   47.7890 C   0  0  0  0  0  0  0  0  0  0  0  0
   57.8110   32.7480   46.6120 C   0  0  0  0  0  0  0  0  0  0  0  0
   60.7690   30.7040   49.1650 C   0  0  0  0  0  0  0  0  0  0  0  0
   61.8180   30.2140   49.6620 O   0  0  0  0  0  0  0  0  0  0  0  0
   59.9790   31.5810   49.9760 N   0  0  0  0  0  0  0  0  0  0  0  0
   59.6050   31.3710   51.3730 C   0  0  1  0  0  0  0  0  0  0  0  0
   58.7100   32.5520   51.8620 C   0  0  0  0  0  0  0  0  0  0  0  0
   57.4190   32.1300   52.5810 C   0  0  0  0  0  0  0  0  0  0  0  0
   56.6890   31.0700   51.7490 C   0  0  2  0  0  0  0  0  0  0  0  0
   55.3430   30.7070   52.3290 C   0  0  0  0  0  0  0  0  0  0  0  0
   55.1550   30.8960   53.5590 O   0  0  0  0  0  0  0  0  0  0  0  0
   54.2490   30.2010   51.5480 N   0  0  0  0  0  0  0  0  0  0  0  0
   52.8180   30.2170   51.8700 C   0  0  0  0  0  0  0  0  0  0  0  0
   52.4210   28.9050   52.5350 C   0  0  0  0  0  0  0  0  0  0  0  0
   51.0770   28.4740   52.6030 C   0  0  0  0  0  0  0  0  0  0  0  0
   50.7410   27.2920   53.2690 C   0  0  0  0  0  0  0  0  0  0  0  0
   51.7310   26.5340   53.8970 C   0  0  0  0  0  0  0  0  0  0  0  0
   53.0570   26.9690   53.8770 C   0  0  0  0  0  0  0  0  0  0  0  0
   53.4010   28.1520   53.2120 C   0  0  0  0  0  0  0  0  0  0  0  0
   52.0470   30.4950   50.5960 C   0  0  0  0  0  0  0  0  0  0  0  0
   52.0650   29.5690   49.5400 C   0  0  0  0  0  0  0  0  0  0  0  0
   51.3760   29.8380   48.3520 C   0  0  0  0  0  0  0  0  0  0  0  0
   50.6700   31.0350   48.2060 C   0  0  0  0  0  0  0  0  0  0  0  0
   50.6560   31.9670   49.2470 C   0  0  0  0  0  0  0  0  0  0  0  0
   51.3430   31.7030   50.4360 C   0  0  0  0  0  0  0  0  0  0  0  0
   57.5300   29.8920   51.6110 N   0  0  0  0  0  0  0  0  0  0  0  0
   58.9450   30.0180   51.4680 C   0  0  0  0  0  0  0  0  0  0  0  0
   59.6510   28.9770   51.3930 O   0  0  0  0  0  0  0  0  0  0  0  0
   60.9270   33.4790   49.4360 H   0  0  0  0  0  0  0  0  0  0  0  0
   62.0480   32.3520   49.9640 H   0  0  0  0  0  0  0  0  0  0  0  0
   62.7767   34.8913   48.6470 H   0  0  0  0  0  0  0  0  0  0  0  0
   63.8482   33.4972   49.0374 H   0  0  0  0  0  0  0  0  0  0  0  0
   61.3988   33.3334   47.2072 H   0  0  0  0  0  0  0  0  0  0  0  0
   63.0985   33.5581   46.6353 H   0  0  0  0  0  0  0  0  0  0  0  0
   63.6407   31.3818   46.9898 H   0  0  0  0  0  0  0  0  0  0  0  0
   62.7095   31.3108   48.5381 H   0  0  0  0  0  0  0  0  0  0  0  0
   61.1148   31.5242   46.0102 H   0  0  0  0  0  0  0  0  0  0  0  0
   61.9910   29.9540   46.3389 H   0  0  0  0  0  0  0  0  0  0  0  0
   59.5186   30.9754   47.4632 H   0  0  0  0  0  0  0  0  0  0  0  0
   59.2708   29.3611   45.2489 H   0  0  0  0  0  0  0  0  0  0  0  0
   57.7883   27.7685   43.8520 H   0  0  0  0  0  0  0  0  0  0  0  0
   59.4367   27.2502   44.4884 H   0  0  0  0  0  0  0  0  0  0  0  0
   55.8290   27.1424   45.6213 H   0  0  0  0  0  0  0  0  0  0  0  0
   54.8292   25.0685   46.5791 H   0  0  0  0  0  0  0  0  0  0  0  0
   56.2317   23.0236   46.8789 H   0  0  0  0  0  0  0  0  0  0  0  0
   58.6265   23.0398   46.1756 H   0  0  0  0  0  0  0  0  0  0  0  0
   59.6242   25.0965   45.1836 H   0  0  0  0  0  0  0  0  0  0  0  0
   58.7143   31.1562   44.1200 H   0  0  0  0  0  0  0  0  0  0  0  0
   57.4762   31.2192   42.7810 H   0  0  0  0  0  0  0  0  0  0  0  0
   57.8366   33.4718   43.2695 H   0  0  0  0  0  0  0  0  0  0  0  0
   56.3509   33.0418   44.2289 H   0  0  0  0  0  0  0  0  0  0  0  0
   59.2257   34.9493   44.4045 H   0  0  0  0  0  0  0  0  0  0  0  0
   60.3240   35.7234   46.5062 H   0  0  0  0  0  0  0  0  0  0  0  0
   59.8224   34.5906   48.6734 H   0  0  0  0  0  0  0  0  0  0  0  0
   58.2013   32.6911   48.7454 H   0  0  0  0  0  0  0  0  0  0  0  0
   57.0974   31.9116   46.6472 H   0  0  0  0  0  0  0  0  0  0  0  0
   60.4776   31.3669   52.0427 H   0  0  0  0  0  0  0  0  0  0  0  0
   59.3030   33.1656   52.5562 H   0  0  0  0  0  0  0  0  0  0  0  0
   58.3967   33.0964   50.9590 H   0  0  0  0  0  0  0  0  0  0  0  0
   57.6693   31.7124   53.5674 H   0  0  0  0  0  0  0  0  0  0  0  0
   56.7677   33.0075   52.7066 H   0  0  0  0  0  0  0  0  0  0  0  0
   56.4939   31.4988   50.7550 H   0  0  0  0  0  0  0  0  0  0  0  0
   52.5799   31.0127   52.5912 H   0  0  0  0  0  0  0  0  0  0  0  0
   50.2876   29.0745   52.1272 H   0  0  0  0  0  0  0  0  0  0  0  0
   49.6934   26.9580   53.2984 H   0  0  0  0  0  0  0  0  0  0  0  0
   51.4665   25.5957   54.4066 H   0  0  0  0  0  0  0  0  0  0  0  0
   53.8346   26.3802   54.3856 H   0  0  0  0  0  0  0  0  0  0  0  0
   54.4456   28.4968   53.2180 H   0  0  0  0  0  0  0  0  0  0  0  0
   52.6236   28.6275   49.6474 H   0  0  0  0  0  0  0  0  0  0  0  0
   51.3902   29.1056   47.5314 H   0  0  0  0  0  0  0  0  0  0  0  0
   50.1260   31.2433   47.2729 H   0  0  0  0  0  0  0  0  0  0  0  0
   50.1031   32.9108   49.1309 H   0  0  0  0  0  0  0  0  0  0  0  0
   51.3331   32.4429   51.2499 H   0  0  0  0  0  0  0  0  0  0  0  0
  1  2  1  0
  2  3  1  0
  3  4  1  0
  4  5  1  0
  5  6  1  0
  6  7  1  0
  7  8  1  0
  8  9  2  0
  8 10  1  0
 10 11  1  0
 11 12  1  0
 12 13  2  0
 13 14  1  0
 14 15  2  0
 15 16  1  0
 16 17  2  0
 10 18  1  0
 18 19  1  0
 19 20  2  0
 19 21  1  0
 21 22  1  0
 22 23  1  0
 23 24  2  0
 24 25  1  0
 25 26  2  0
 26 27  1  0
 27 28  2  0
  6 29  1  0
 29 30  2  0
 29 31  1  0
 31 32  1  0
 32 33  1  0
 33 34  1  0
 34 35  1  0
 35 36  1  0
 36 37  2  0
 36 38  1  0
 38 39  1  0
 39 40  1  0
 40 41  2  0
 41 42  1  0
 42 43  2  0
 43 44  1  0
 44 45  2  0
 39 46  1  0
 46 47  2  0
 47 48  1  0
 48 49  2  0
 49 50  1  0
 50 51  2  0
 35 52  1  0
 52 53  1  0
 53 54  2  0
 17 12  1  0
 28 23  1  0
 53 32  1  0
 45 40  1  0
 51 46  1  0
  1 55  1  0
  1 56  1  0
  2 57  1  0
  2 58  1  0
  3 59  1  0
  3 60  1  0
  4 61  1  0
  4 62  1  0
  5 63  1  0
  5 64  1  0
  6 65  1  6
 10 66  1  6
 11 67  1  0
 11 68  1  0
 13 69  1  0
 14 70  1  0
 15 71  1  0
 16 72  1  0
 17 73  1  0
 21 74  1  0
 21 75  1  0
 22 76  1  0
 22 77  1  0
 24 78  1  0
 25 79  1  0
 26 80  1  0
 27 81  1  0
 28 82  1  0
 32 83  1  1
 33 84  1  0
 33 85  1  0
 34 86  1  0
 34 87  1  0
 35 88  1  6
 39 89  1  0
 41 90  1  0
 42 91  1  0
 43 92  1  0
 44 93  1  0
 45 94  1  0
 47 95  1  0
 48 96  1  0
 49 97  1  0
 50 98  1  0
 51 99  1  0
M  CHG  5   7  -1  18  -1  31  -1  38  -1  52  -1
M  END
>  <UniqueID>  (76) 
73

>  <SMILES>  (76) 
NCCCC[C@@H]([N-]C(=O)[C@@H](Cc1ccccc1)[N-]C(=O)CCc1ccccc1)C(=O)[N-]C1CCC(C(=O)[N-]C(c2ccccc2)c2ccccc2)[N-]C1=O

>  <Energy>  (76) 
106.8145833458134

>  <Genealogy>  (76) 
NCCCCC([N-]C(=O)C(Cc1ccccc1)[N-]C(=O)CCc1ccccc1)C(=O)[N-]C1CCC(C(=O)[N-]C(c2ccccc2)c2ccccc2)[N-]C1=O (protonated)
NCCCC[C@@H]([N-]C(=O)[C@@H](Cc1ccccc1)[N-]C(=O)CCc1ccccc1)C(=O)[N-]C1CCC(C(=O)[N-]C(c2ccccc2)c2ccccc2)[N-]C1=O (chirality)
NCCCC[C@@H]([N-]C(=O)[C@@H](Cc1ccccc1)[N-]C(=O)CCc1ccccc1)C(=O)[N-]C1CCC(C(=O)[N-]C(c2ccccc2)c2ccccc2)[N-]C1=O (3D coordinates assigned)
NCCCC[C@@H]([N-]C(=O)[C@@H](Cc1ccccc1)[N-]C(=O)CCc1ccccc1)C(=O)[N-]C1CCC(C(=O)[N-]C(c2ccccc2)c2ccccc2)[N-]C1=O (nonaromatic ring conformer: 106.8145833458134 kcal/mol)

>  <smiles>  (76) 
NCCCCC(NC(=O)C(Cc1ccccc1)NC(=O)CCc1ccccc1)C(=O)NC1CCC(C(=O)NC(c2ccccc2)c2ccccc2)NC1=O

>  <score_type>  (76) 
oracle

>  <origin>  (76) 
adg

>  <m_score__min__energy>  (76) 
-18.199999999999999

>  <m_primary>  (76) 
energy

$$$$
76:0
     RDKit          3D

 40 42  0  0  0  0  0  0  0  0999 V2000
   55.2940   29.3750   44.7790 O   0  0  0  0  0  0  0  0  0  0  0  0
   56.5140   29.0860   44.6480 C   0  0  0  0  0  0  0  0  0  0  0  0
   57.3010   29.7630   43.6570 N   0  0  0  0  0  0  0  0  0  0  0  0
   56.9920   31.1210   43.2230 C   0  0  0  0  0  0  0  0  0  0  0  0
   57.5860   32.1040   44.1920 C   0  0  0  0  0  0  0  0  0  0  0  0
   57.4110   31.9370   45.5780 C   0  0  0  0  0  0  0  0  0  0  0  0
   58.0200   32.8180   46.4780 C   0  0  0  0  0  0  0  0  0  0  0  0
   58.8150   33.8660   46.0010 C   0  0  0  0  0  0  0  0  0  0  0  0
   59.5840   34.9680   47.1300 Cl  0  0  0  0  0  0  0  0  0  0  0  0
   59.0010   34.0330   44.6230 C   0  0  0  0  0  0  0  0  0  0  0  0
   58.3960   33.1520   43.7220 C   0  0  0  0  0  0  0  0  0  0  0  0
   57.1460   28.0840   45.5340 C   0  0  0  0  0  0  0  0  0  0  0  0
   58.4380   28.2800   45.9150 N   0  0  0  0  0  0  0  0  0  0  0  0
   59.0670   27.4350   46.7710 C   0  0  0  0  0  0  0  0  0  0  0  0
   60.4710   27.7230   47.2010 C   0  0  0  0  0  0  0  0  0  0  0  0
   60.5920   29.1600   47.6320 C   0  0  0  0  0  0  0  0  0  0  0  0
   61.0620   30.1310   46.7320 C   0  0  0  0  0  0  0  0  0  0  0  0
   61.1270   31.4730   47.1160 C   0  0  0  0  0  0  0  0  0  0  0  0
   60.7120   31.8580   48.3950 C   0  0  0  0  0  0  0  0  0  0  0  0
   60.2340   30.8990   49.2920 C   0  0  0  0  0  0  0  0  0  0  0  0
   60.1700   29.5540   48.9120 C   0  0  0  0  0  0  0  0  0  0  0  0
   58.4020   26.3600   47.2710 N   0  0  0  0  0  0  0  0  0  0  0  0
   57.1140   26.1090   46.9190 C   0  0  0  0  0  0  0  0  0  0  0  0
   56.5230   25.1030   47.3920 O   0  0  0  0  0  0  0  0  0  0  0  0
   56.4490   26.9700   46.0380 C   0  0  0  0  0  0  0  0  0  0  0  0
   55.1290   26.7120   45.6770 O   0  0  0  0  0  0  0  0  0  0  0  0
   58.2230   29.3620   43.3700 H   0  0  0  0  0  0  0  0  0  0  0  0
   57.4154   31.2913   42.2221 H   0  0  0  0  0  0  0  0  0  0  0  0
   55.9008   31.2551   43.1873 H   0  0  0  0  0  0  0  0  0  0  0  0
   56.7923   31.1097   45.9558 H   0  0  0  0  0  0  0  0  0  0  0  0
   57.8739   32.6869   47.5603 H   0  0  0  0  0  0  0  0  0  0  0  0
   59.6242   34.8587   44.2491 H   0  0  0  0  0  0  0  0  0  0  0  0
   58.5545   33.2794   42.6410 H   0  0  0  0  0  0  0  0  0  0  0  0
   60.7362   27.0665   48.0428 H   0  0  0  0  0  0  0  0  0  0  0  0
   61.1522   27.5403   46.3569 H   0  0  0  0  0  0  0  0  0  0  0  0
   61.3799   29.8339   45.7217 H   0  0  0  0  0  0  0  0  0  0  0  0
   61.5052   32.2280   46.4111 H   0  0  0  0  0  0  0  0  0  0  0  0
   60.7619   32.9152   48.6947 H   0  0  0  0  0  0  0  0  0  0  0  0
   59.9077   31.2019   50.2979 H   0  0  0  0  0  0  0  0  0  0  0  0
   59.7877   28.8025   49.6185 H   0  0  0  0  0  0  0  0  0  0  0  0
  1  2  2  0
  2  3  1  0
  3  4  1  0
  4  5  1  0
  5  6  2  0
  6  7  1  0
  7  8  2  0
  8  9  1  0
  8 10  1  0
 10 11  2  0
  2 12  1  0
 12 13  1  0
 13 14  1  0
 14 15  1  0
 15 16  1  0
 16 17  2  0
 17 18  1  0
 18 19  2  0
 19 20  1  0
 20 21  2  0
 14 22  2  0
 22 23  1  0
 23 24  2  0
 23 25  1  0
 25 26  1  0
 11  5  1  0
 25 12  2  0
 21 16  1  0
  3 27  1  0
  4 28  1  0
  4 29  1  0
  6 30  1  0
  7 31  1  0
 10 32  1  0
 11 33  1  0
 15 34  1  0
 15 35  1  0
 17 36  1  0
 18 37  1  0
 19 38  1  0
 20 39  1  0
 21 40  1  0
M  CHG  2  13  -1  26  -1
M  END
>  <UniqueID>  (77) 
74

>  <SMILES>  (77) 
O=C(NCc1ccc(Cl)cc1)c1[n-]c(Cc2ccccc2)nc(=O)c1[O-]

>  <Energy>  (77) 
40.47758869222059

>  <Genealogy>  (77) 
O=C(NCc1ccc(Cl)cc1)c1[n-]c(Cc2ccccc2)nc(=O)c1[O-] (protonated)
O=C(NCc1ccc(Cl)cc1)c1[n-]c(Cc2ccccc2)nc(=O)c1[O-] (3D coordinates assigned)
O=C(NCc1ccc(Cl)cc1)c1[n-]c(Cc2ccccc2)nc(=O)c1[O-] (optimized conformer: 40.47758869222059 kcal/mol)

>  <smiles>  (77) 
O=C(NCc1ccc(Cl)cc1)c1[nH]c(Cc2ccccc2)nc(=O)c1O

>  <score_type>  (77) 
oracle

>  <origin>  (77) 
adg

>  <m_score__min__energy>  (77) 
-14.07

>  <m_primary>  (77) 
energy

$$$$
77:0
     RDKit          3D

 51 53  0  0  0  0  0  0  0  0999 V2000
   57.3560   22.9610   48.2750 O   0  0  0  0  0  0  0  0  0  0  0  0
   56.8360   23.6070   47.3290 C   0  0  0  0  0  0  0  0  0  0  0  0
   57.7330   24.2160   46.2860 C   0  0  0  0  0  0  0  0  0  0  0  0
   57.4430   25.6410   46.1350 N   0  0  0  0  0  0  0  0  0  0  0  0
   56.3030   26.1910   45.6660 C   0  0  0  0  0  0  0  0  0  0  0  0
   56.4640   27.5600   45.6720 C   0  0  0  0  0  0  0  0  0  0  0  0
   55.5240   28.4890   45.2400 O   0  0  0  0  0  0  0  0  0  0  0  0
   57.6850   27.8750   46.1500 N   0  0  0  0  0  0  0  0  0  0  0  0
   58.2880   29.2020   46.2460 C   0  0  0  0  0  0  0  0  0  0  0  0
   57.9670   30.0190   44.9930 C   0  0  0  0  0  0  0  0  0  0  0  0
   57.9540   31.4910   45.3090 C   0  0  0  0  0  0  0  0  0  0  0  0
   57.7440   32.4320   44.2870 C   0  0  0  0  0  0  0  0  0  0  0  0
   57.7630   33.8010   44.5770 C   0  0  0  0  0  0  0  0  0  0  0  0
   58.0020   34.2360   45.8830 C   0  0  0  0  0  0  0  0  0  0  0  0
   58.2250   33.3060   46.9010 C   0  0  0  0  0  0  0  0  0  0  0  0
   58.2070   31.9370   46.6160 C   0  0  0  0  0  0  0  0  0  0  0  0
   58.2620   26.6820   46.4070 C   0  0  0  0  0  0  0  0  0  0  0  0
   59.4380   26.5540   46.8400 O   0  0  0  0  0  0  0  0  0  0  0  0
   55.4150   23.8000   47.3260 N   0  0  0  0  0  0  0  0  0  0  0  0
   54.4270   22.8910   46.7520 C   0  0  0  0  0  0  0  0  0  0  0  0
   55.0860   21.5810   46.3040 C   0  0  0  0  0  0  0  0  0  0  0  0
   55.4600   21.6370   44.8750 N   0  0  0  0  0  0  0  0  0  0  0  0
   56.7740   20.9980   44.6540 C   0  0  0  0  0  0  0  0  0  0  0  0
   57.2970   21.2770   43.2320 C   0  0  0  0  0  0  0  0  0  0  0  0
   56.2640   21.7700   42.4030 O   0  0  0  0  0  0  0  0  0  0  0  0
   55.8390   23.0380   42.8700 C   0  0  0  0  0  0  0  0  0  0  0  0
   55.4910   23.0250   44.3740 C   0  0  0  0  0  0  0  0  0  0  0  0
   58.7822   24.0898   46.5915 H   0  0  0  0  0  0  0  0  0  0  0  0
   57.5566   23.7117   45.3245 H   0  0  0  0  0  0  0  0  0  0  0  0
   55.4064   25.6447   45.3379 H   0  0  0  0  0  0  0  0  0  0  0  0
   57.8879   29.7200   47.1301 H   0  0  0  0  0  0  0  0  0  0  0  0
   59.3791   29.0953   46.3356 H   0  0  0  0  0  0  0  0  0  0  0  0
   58.7307   29.8205   44.2266 H   0  0  0  0  0  0  0  0  0  0  0  0
   56.9727   29.7267   44.6242 H   0  0  0  0  0  0  0  0  0  0  0  0
   57.5642   32.0919   43.2565 H   0  0  0  0  0  0  0  0  0  0  0  0
   57.5897   34.5350   43.7762 H   0  0  0  0  0  0  0  0  0  0  0  0
   58.0146   35.3123   46.1098 H   0  0  0  0  0  0  0  0  0  0  0  0
   58.4150   33.6508   47.9281 H   0  0  0  0  0  0  0  0  0  0  0  0
   58.3916   31.2074   47.4183 H   0  0  0  0  0  0  0  0  0  0  0  0
   53.6599   22.6683   47.5083 H   0  0  0  0  0  0  0  0  0  0  0  0
   53.9719   23.3741   45.8748 H   0  0  0  0  0  0  0  0  0  0  0  0
   55.9905   21.4093   46.9060 H   0  0  0  0  0  0  0  0  0  0  0  0
   54.3668   20.7609   46.4458 H   0  0  0  0  0  0  0  0  0  0  0  0
   57.4935   21.3949   45.3853 H   0  0  0  0  0  0  0  0  0  0  0  0
   56.6575   19.9109   44.7753 H   0  0  0  0  0  0  0  0  0  0  0  0
   58.1036   22.0231   43.2847 H   0  0  0  0  0  0  0  0  0  0  0  0
   57.6722   20.3356   42.8042 H   0  0  0  0  0  0  0  0  0  0  0  0
   56.6464   23.7656   42.7005 H   0  0  0  0  0  0  0  0  0  0  0  0
   54.9279   23.3108   42.3173 H   0  0  0  0  0  0  0  0  0  0  0  0
   56.2511   23.5951   44.9283 H   0  0  0  0  0  0  0  0  0  0  0  0
   54.5011   23.4824   44.5187 H   0  0  0  0  0  0  0  0  0  0  0  0
  1  2  2  0
  2  3  1  0
  3  4  1  0
  4  5  1  0
  5  6  2  0
  6  7  1  0
  6  8  1  0
  8  9  1  0
  9 10  1  0
 10 11  1  0
 11 12  2  0
 12 13  1  0
 13 14  2  0
 14 15  1  0
 15 16  2  0
  8 17  1  0
 17 18  2  0
  2 19  1  0
 19 20  1  0
 20 21  1  0
 21 22  1  0
 22 23  1  0
 23 24  1  0
 24 25  1  0
 25 26  1  0
 26 27  1  0
 17  4  1  0
 27 22  1  0
 16 11  1  0
  3 28  1  0
  3 29  1  0
  5 30  1  0
  9 31  1  0
  9 32  1  0
 10 33  1  0
 10 34  1  0
 12 35  1  0
 13 36  1  0
 14 37  1  0
 15 38  1  0
 16 39  1  0
 20 40  1  0
 20 41  1  0
 21 42  1  0
 21 43  1  0
 23 44  1  0
 23 45  1  0
 24 46  1  0
 24 47  1  0
 26 48  1  0
 26 49  1  0
 27 50  1  0
 27 51  1  0
M  CHG  2   7  -1  19  -1
M  END
>  <UniqueID>  (78) 
75

>  <SMILES>  (78) 
O=C(Cn1cc([O-])n(CCc2ccccc2)c1=O)[N-]CCN1CCOCC1

>  <Energy>  (78) 
88.3690042368404

>  <Genealogy>  (78) 
O=C(Cn1cc([O-])n(CCc2ccccc2)c1=O)[N-]CCN1CCOCC1 (protonated)
O=C(Cn1cc([O-])n(CCc2ccccc2)c1=O)[N-]CCN1CCOCC1 (3D coordinates assigned)
O=C(Cn1cc([O-])n(CCc2ccccc2)c1=O)[N-]CCN1CCOCC1 (nonaromatic ring conformer: 88.3690042368404 kcal/mol)

>  <smiles>  (78) 
O=C(Cn1cc(O)n(CCc2ccccc2)c1=O)NCCN1CCOCC1

>  <score_type>  (78) 
oracle

>  <origin>  (78) 
adg

>  <m_score__min__energy>  (78) 
-12.539999999999999

>  <m_primary>  (78) 
energy

$$$$
78:0
     RDKit          3D

 46 49  0  0  0  0  0  0  0  0999 V2000
   54.1340   26.7230   46.7660 H   0  0  0  0  0  0  0  0  0  0  0  0
   54.6700   26.3220   46.0050 O   0  0  0  0  0  0  0  0  0  0  0  0
   55.7210   25.4490   46.2600 C   0  0  0  0  0  0  0  0  0  0  0  0
   55.7060   24.5290   47.2410 N   0  0  0  0  0  0  0  0  0  0  0  0
   56.9360   23.9810   47.1510 C   0  0  0  0  0  0  0  0  0  0  0  0
   57.3260   23.0630   47.9190 O   0  0  0  0  0  0  0  0  0  0  0  0
   57.7200   24.5000   46.1810 N   0  0  0  0  0  0  0  0  0  0  0  0
   56.9300   25.4200   45.5990 C   0  0  0  0  0  0  0  0  0  0  0  0
   57.3880   26.3120   44.5200 C   0  0  0  0  0  0  0  0  0  0  0  0
   57.1250   26.0479   43.4851 H   0  0  0  0  0  0  0  0  0  0  0  0
   58.1090   27.4310   44.7230 C   0  0  0  0  0  0  0  0  0  0  0  0
   59.4490   27.4950   45.0870 C   0  0  0  0  0  0  0  0  0  0  0  0
   60.1315   26.6445   45.2314 H   0  0  0  0  0  0  0  0  0  0  0  0
   59.7570   28.8320   45.2320 C   0  0  0  0  0  0  0  0  0  0  0  0
   61.1050   29.3620   45.6180 C   0  0  0  0  0  0  0  0  0  0  0  0
   61.1862   29.3939   46.7145 H   0  0  0  0  0  0  0  0  0  0  0  0
   61.8876   28.7046   45.2114 H   0  0  0  0  0  0  0  0  0  0  0  0
   61.2304   30.3764   45.2114 H   0  0  0  0  0  0  0  0  0  0  0  0
   58.6740   29.5970   44.9720 N   0  0  0  0  0  0  0  0  0  0  0  0
   58.6260   31.0330   45.0300 C   0  0  0  0  0  0  0  0  0  0  0  0
   58.1550   31.7620   43.9310 C   0  0  0  0  0  0  0  0  0  0  0  0
   57.8226   31.2344   43.0248 H   0  0  0  0  0  0  0  0  0  0  0  0
   58.1060   33.1560   43.9820 C   0  0  0  0  0  0  0  0  0  0  0  0
   57.7434   33.7252   43.1134 H   0  0  0  0  0  0  0  0  0  0  0  0
   58.5170   33.8290   45.1350 C   0  0  0  0  0  0  0  0  0  0  0  0
   58.4797   34.9279   45.1682 H   0  0  0  0  0  0  0  0  0  0  0  0
   58.9770   33.1140   46.2510 C   0  0  0  0  0  0  0  0  0  0  0  0
   59.4790   33.9900   47.7110 S   0  0  0  0  0  0  0  0  0  0  0  0
   58.9110   35.3810   47.6760 O   0  0  0  0  0  0  0  0  0  0  0  0
   58.9040   33.2910   48.9110 O   0  0  0  0  0  0  0  0  0  0  0  0
   61.2190   34.0950   47.9040 N   0  0  0  0  0  0  0  0  0  0  0  0
   61.7710   32.8630   48.4770 C   0  0  0  0  0  0  0  0  0  0  0  0
   62.4541   33.0415   49.3205 H   0  0  0  0  0  0  0  0  0  0  0  0
   61.0816   32.1356   48.9305 H   0  0  0  0  0  0  0  0  0  0  0  0
   62.4850   32.4880   47.1930 C   0  0  0  0  0  0  0  0  0  0  0  0
   63.5820   32.4453   47.2627 H   0  0  0  0  0  0  0  0  0  0  0  0
   62.3439   31.5203   46.6893 H   0  0  0  0  0  0  0  0  0  0  0  0
   61.9230   33.7890   46.6550 C   0  0  0  0  0  0  0  0  0  0  0  0
   62.6979   34.5264   46.3986 H   0  0  0  0  0  0  0  0  0  0  0  0
   61.3496   33.7689   45.7165 H   0  0  0  0  0  0  0  0  0  0  0  0
   59.0550   31.7100   46.1840 C   0  0  0  0  0  0  0  0  0  0  0  0
   59.5560   30.9950   47.2230 F   0  0  0  0  0  0  0  0  0  0  0  0
   57.6560   28.7540   44.6640 C   0  0  0  0  0  0  0  0  0  0  0  0
   56.4240   29.1590   44.3190 C   0  0  0  0  0  0  0  0  0  0  0  0
   56.1806   30.2317   44.3082 H   0  0  0  0  0  0  0  0  0  0  0  0
   55.6576   28.4183   44.0470 H   0  0  0  0  0  0  0  0  0  0  0  0
  1  2  1  0
  2  3  1  0
  3  4  1  0
  4  5  1  0
  5  6  2  0
  5  7  1  0
  7  8  1  0
  8  9  1  0
  9 10  1  0
  9 11  2  0
 11 12  1  0
 12 13  1  0
 12 14  2  0
 14 15  1  0
 15 16  1  0
 15 17  1  0
 15 18  1  0
 14 19  1  0
 19 20  1  0
 20 21  2  0
 21 22  1  0
 21 23  1  0
 23 24  1  0
 23 25  2  0
 25 26  1  0
 25 27  1  0
 27 28  1  0
 28 29  2  0
 28 30  2  0
 28 31  1  0
 31 32  1  0
 32 33  1  0
 32 34  1  0
 32 35  1  0
 35 36  1  0
 35 37  1  0
 35 38  1  0
 38 39  1  0
 38 40  1  0
 27 41  2  0
 41 42  1  0
 19 43  1  0
 43 44  2  0
 44 45  1  0
 44 46  1  0
  8  3  2  0
 43 11  1  0
 41 20  1  0
 38 31  1  0
M  CHG  2   4  -1   7  -1
M  END
>  <UniqueID>  (79) 
76

>  <SMILES>  (79) 
C=c1/c(=C/c2[n-]c(=O)[n-]c2O)cc(C)n1-c1cccc(S(=O)(=O)N2CCC2)c1F

>  <Energy>  (79) 
187.51025604641515

>  <Genealogy>  (79) 
C=c1c(=Cc2[n-]c(=O)[n-]c2O)cc(C)n1-c1cccc(S(=O)(=O)N2CCC2)c1F (protonated)
C=c1/c(=C/c2[n-]c(=O)[n-]c2O)cc(C)n1-c1cccc(S(=O)(=O)N2CCC2)c1F (cis-trans isomerization)
C=c1/c(=C/c2[n-]c(=O)[n-]c2O)cc(C)n1-c1cccc(S(=O)(=O)N2CCC2)c1F (3D coordinates assigned)
C=c1/c(=C/c2[n-]c(=O)[n-]c2O)cc(C)n1-c1cccc(S(=O)(=O)N2CCC2)c1F (nonaromatic ring conformer: 187.51025604641515 kcal/mol)

>  <smiles>  (79) 
C=c1c(=Cc2[nH]c(=O)[nH]c2O)cc(C)n1-c1cccc(S(=O)(=O)N2CCC2)c1F

>  <score_type>  (79) 
oracle

>  <origin>  (79) 
adg

>  <m_score__min__energy>  (79) 
-13.69

>  <m_primary>  (79) 
energy

$$$$
79:0
     RDKit          3D

 62 66  0  0  0  0  0  0  0  0999 V2000
   61.3120   30.1780   46.3500 O   0  0  0  0  0  0  0  0  0  0  0  0
   60.2570   29.7200   46.8650 C   0  0  0  0  0  0  0  0  0  0  0  0
   59.3430   28.9460   46.0500 N   0  0  0  0  0  0  0  0  0  0  0  0
   59.6410   28.8600   44.6060 C   0  0  0  0  0  0  0  0  0  0  0  0
   58.6000   28.0990   43.7560 C   0  0  0  0  0  0  0  0  0  0  0  0
   57.2520   28.0340   44.3530 N   0  0  0  0  0  0  0  0  0  0  0  0
   56.4630   29.2630   44.3270 C   0  0  0  0  0  0  0  0  0  0  0  0
   55.5200   29.3620   45.1020 O   0  0  0  0  0  0  0  0  0  0  0  0
   56.7760   30.4340   43.4090 C   0  0  0  0  0  0  0  0  0  0  0  0
   57.4780   31.5540   44.1270 C   0  0  0  0  0  0  0  0  0  0  0  0
   58.1200   32.5760   43.4090 C   0  0  0  0  0  0  0  0  0  0  0  0
   58.7860   33.5890   44.1010 C   0  0  0  0  0  0  0  0  0  0  0  0
   58.8220   33.5710   45.5010 C   0  0  0  0  0  0  0  0  0  0  0  0
   59.4900   34.5690   46.2270 C   0  0  0  0  0  0  0  0  0  0  0  0
   59.5160   34.5180   47.6240 C   0  0  0  0  0  0  0  0  0  0  0  0
   58.8780   33.4730   48.3020 C   0  0  0  0  0  0  0  0  0  0  0  0
   58.2090   32.4750   47.5870 C   0  0  0  0  0  0  0  0  0  0  0  0
   58.1760   32.5190   46.1880 C   0  0  0  0  0  0  0  0  0  0  0  0
   57.5320   31.5480   45.4880 N   0  0  0  0  0  0  0  0  0  0  0  0
   57.3420   27.4740   45.7090 C   0  0  0  0  0  0  0  0  0  0  0  0
   58.1240   28.3880   46.6540 C   0  0  0  0  0  0  0  0  0  0  0  0
   60.0040   30.0110   48.2470 N   0  0  0  0  0  0  0  0  0  0  0  0
   60.6570   30.8580   49.2620 C   0  0  0  0  0  0  0  0  0  0  0  0
   59.7290   30.5180   50.3840 C   0  0  0  0  0  0  0  0  0  0  0  0
   60.3540   29.7320   51.3800 O   0  0  0  0  0  0  0  0  0  0  0  0
   59.8220   30.0440   52.6510 C   0  0  0  0  0  0  0  0  0  0  0  0
   58.3720   30.4270   52.5230 C   0  0  0  0  0  0  0  0  0  0  0  0
   58.0090   31.7840   52.4720 C   0  0  0  0  0  0  0  0  0  0  0  0
   56.6620   32.1500   52.3850 C   0  0  0  0  0  0  0  0  0  0  0  0
   55.6690   31.1660   52.3530 C   0  0  0  0  0  0  0  0  0  0  0  0
   56.0220   29.8150   52.4110 C   0  0  0  0  0  0  0  0  0  0  0  0
   57.3690   29.4450   52.4980 C   0  0  0  0  0  0  0  0  0  0  0  0
   59.0750   29.6680   49.3450 C   0  0  0  0  0  0  0  0  0  0  0  0
   59.7147   29.8850   44.2136 H   0  0  0  0  0  0  0  0  0  0  0  0
   60.5754   28.2854   44.5244 H   0  0  0  0  0  0  0  0  0  0  0  0
   58.5199   28.6010   42.7805 H   0  0  0  0  0  0  0  0  0  0  0  0
   58.9579   27.0618   43.6780 H   0  0  0  0  0  0  0  0  0  0  0  0
   56.7190   27.3410   43.7750 H   0  0  0  0  0  0  0  0  0  0  0  0
   57.4210   30.0794   42.5915 H   0  0  0  0  0  0  0  0  0  0  0  0
   55.8214   30.8261   43.0282 H   0  0  0  0  0  0  0  0  0  0  0  0
   58.0982   32.5782   42.3092 H   0  0  0  0  0  0  0  0  0  0  0  0
   59.2818   34.4001   43.5476 H   0  0  0  0  0  0  0  0  0  0  0  0
   59.9931   35.3913   45.6971 H   0  0  0  0  0  0  0  0  0  0  0  0
   60.0394   35.3014   48.1918 H   0  0  0  0  0  0  0  0  0  0  0  0
   58.9030   33.4367   49.4011 H   0  0  0  0  0  0  0  0  0  0  0  0
   57.7087   31.6554   48.1235 H   0  0  0  0  0  0  0  0  0  0  0  0
   56.3251   27.3388   46.1059 H   0  0  0  0  0  0  0  0  0  0  0  0
   57.8746   26.5136   45.6461 H   0  0  0  0  0  0  0  0  0  0  0  0
   57.4707   29.2206   46.9539 H   0  0  0  0  0  0  0  0  0  0  0  0
   58.4376   27.7759   47.5125 H   0  0  0  0  0  0  0  0  0  0  0  0
   61.6946   30.5535   49.4637 H   0  0  0  0  0  0  0  0  0  0  0  0
   60.7759   31.9243   49.0195 H   0  0  0  0  0  0  0  0  0  0  0  0
   59.2091   31.2651   51.0016 H   0  0  0  0  0  0  0  0  0  0  0  0
   59.9102   29.1663   53.3081 H   0  0  0  0  0  0  0  0  0  0  0  0
   60.3818   30.8886   53.0790 H   0  0  0  0  0  0  0  0  0  0  0  0
   58.7872   32.5609   52.5006 H   0  0  0  0  0  0  0  0  0  0  0  0
   56.3833   33.2132   52.3417 H   0  0  0  0  0  0  0  0  0  0  0  0
   54.6101   31.4553   52.2822 H   0  0  0  0  0  0  0  0  0  0  0  0
   55.2402   29.0415   52.3882 H   0  0  0  0  0  0  0  0  0  0  0  0
   57.6428   28.3808   52.5470 H   0  0  0  0  0  0  0  0  0  0  0  0
   59.0954   28.5978   49.5986 H   0  0  0  0  0  0  0  0  0  0  0  0
   58.0034   29.8376   49.1635 H   0  0  0  0  0  0  0  0  0  0  0  0
  1  2  2  0
  2  3  1  0
  3  4  1  0
  4  5  1  0
  5  6  1  0
  6  7  1  0
  7  8  2  0
  7  9  1  0
  9 10  1  0
 10 11  2  0
 11 12  1  0
 12 13  2  0
 13 14  1  0
 14 15  2  0
 15 16  1  0
 16 17  2  0
 17 18  1  0
 18 19  2  0
  6 20  1  0
 20 21  1  0
  2 22  1  0
 22 23  1  0
 23 24  1  0
 24 25  1  0
 25 26  1  0
 26 27  1  0
 27 28  2  0
 28 29  1  0
 29 30  2  0
 30 31  1  0
 31 32  2  0
 24 33  1  0
 21  3  1  0
 33 22  1  0
 19 10  1  0
 32 27  1  0
 18 13  1  0
  4 34  1  0
  4 35  1  0
  5 36  1  0
  5 37  1  0
  6 38  1  0
  9 39  1  0
  9 40  1  0
 11 41  1  0
 12 42  1  0
 14 43  1  0
 15 44  1  0
 16 45  1  0
 17 46  1  0
 20 47  1  0
 20 48  1  0
 21 49  1  0
 21 50  1  0
 23 51  1  0
 23 52  1  0
 24 53  1  0
 26 54  1  0
 26 55  1  0
 28 56  1  0
 29 57  1  0
 30 58  1  0
 31 59  1  0
 32 60  1  0
 33 61  1  0
 33 62  1  0
M  CHG  1   6   1
M  END
>  <UniqueID>  (80) 
77

>  <SMILES>  (80) 
O=C(N1CC[NH+](C(=O)Cc2ccc3ccccc3n2)CC1)N1CC(OCc2ccccc2)C1

>  <Energy>  (80) 
127.17255057774318

>  <Genealogy>  (80) 
O=C(N1CC[NH+](C(=O)Cc2ccc3ccccc3n2)CC1)N1CC(OCc2ccccc2)C1 (protonated)
O=C(N1CC[NH+](C(=O)Cc2ccc3ccccc3n2)CC1)N1CC(OCc2ccccc2)C1 (3D coordinates assigned)
O=C(N1CC[NH+](C(=O)Cc2ccc3ccccc3n2)CC1)N1CC(OCc2ccccc2)C1 (nonaromatic ring conformer: 127.17255057774318 kcal/mol)

>  <smiles>  (80) 
O=C(Cc1ccc2ccccc2n1)N1CCN(C(=O)N2CC(OCc3ccccc3)C2)CC1

>  <score_type>  (80) 
oracle

>  <origin>  (80) 
adg

>  <m_score__min__energy>  (80) 
-8.3499999999999996

>  <m_primary>  (80) 
energy

$$$$
80:0
     RDKit          3D

 57 60  0  0  0  0  0  0  0  0999 V2000
   60.6230   22.5750   45.5940 O   0  0  0  0  0  0  0  0  0  0  0  0
   59.5580   22.2230   45.0700 C   0  0  0  0  0  0  0  0  0  0  0  0
   58.4630   21.8640   44.5320 N   0  0  0  0  0  0  0  0  0  0  0  0
   57.6530   22.7890   43.7500 C   0  0  0  0  0  0  0  0  0  0  0  0
   56.4130   22.1030   43.2760 C   0  0  0  0  0  0  0  0  0  0  0  0
   56.5050   21.0720   42.5570 O   0  0  0  0  0  0  0  0  0  0  0  0
   55.1340   22.5970   43.6750 N   0  0  0  0  0  0  0  0  0  0  0  0
   54.7280   22.9070   45.3280 S   0  0  0  0  0  0  0  0  0  0  0  0
   53.3140   23.4040   45.4050 O   0  0  0  0  0  0  0  0  0  0  0  0
   54.8250   21.6350   46.1240 O   0  0  0  0  0  0  0  0  0  0  0  0
   55.8200   24.1210   45.9850 C   0  0  0  0  0  0  0  0  0  0  0  0
   56.6710   23.8030   47.0480 C   0  0  0  0  0  0  0  0  0  0  0  0
   57.5270   24.7710   47.5800 C   0  0  0  0  0  0  0  0  0  0  0  0
   57.5380   26.0780   47.0610 C   0  0  0  0  0  0  0  0  0  0  0  0
   58.4490   27.1070   47.6260 C   0  0  0  0  0  0  0  0  0  0  0  0
   59.6450   26.7310   48.2620 C   0  0  0  0  0  0  0  0  0  0  0  0
   60.5100   27.7020   48.7770 C   0  0  0  0  0  0  0  0  0  0  0  0
   60.1920   29.0630   48.6810 C   0  0  0  0  0  0  0  0  0  0  0  0
   61.1200   30.0420   49.1840 N   0  0  0  0  0  0  0  0  0  0  0  0
   61.6760   31.1020   48.3880 C   0  0  0  0  0  0  0  0  0  0  0  0
   61.0990   31.4590   47.3240 O   0  0  0  0  0  0  0  0  0  0  0  0
   62.8960   31.8180   48.8190 C   0  0  0  0  0  0  0  0  0  0  0  0
   63.4190   32.9360   48.1680 C   0  0  0  0  0  0  0  0  0  0  0  0
   64.8020   33.4330   48.9870 S   0  0  0  0  0  0  0  0  0  0  0  0
   64.7400   32.2560   50.1810 C   0  0  0  0  0  0  0  0  0  0  0  0
   65.7570   32.0700   51.2630 C   0  0  0  0  0  0  0  0  0  0  0  0
   66.7290   33.2170   51.2640 C   0  0  0  0  0  0  0  0  0  0  0  0
   66.4830   34.3570   52.0490 C   0  0  0  0  0  0  0  0  0  0  0  0
   67.4040   35.4080   52.0720 C   0  0  0  0  0  0  0  0  0  0  0  0
   68.5790   35.3260   51.3180 C   0  0  0  0  0  0  0  0  0  0  0  0
   68.8380   34.1890   50.5460 C   0  0  0  0  0  0  0  0  0  0  0  0
   67.9180   33.1370   50.5200 C   0  0  0  0  0  0  0  0  0  0  0  0
   63.6430   31.4380   49.9480 C   0  0  0  0  0  0  0  0  0  0  0  0
   59.0040   29.4440   48.0320 C   0  0  0  0  0  0  0  0  0  0  0  0
   58.1390   28.4750   47.5150 C   0  0  0  0  0  0  0  0  0  0  0  0
   56.6730   26.3930   45.9990 C   0  0  0  0  0  0  0  0  0  0  0  0
   55.8210   25.4210   45.4660 C   0  0  0  0  0  0  0  0  0  0  0  0
   57.3768   23.6506   44.3755 H   0  0  0  0  0  0  0  0  0  0  0  0
   58.2325   23.1318   42.8801 H   0  0  0  0  0  0  0  0  0  0  0  0
   56.6666   22.7861   47.4674 H   0  0  0  0  0  0  0  0  0  0  0  0
   58.1976   24.5085   48.4115 H   0  0  0  0  0  0  0  0  0  0  0  0
   59.9024   25.6656   48.3553 H   0  0  0  0  0  0  0  0  0  0  0  0
   61.4483   27.3943   49.2617 H   0  0  0  0  0  0  0  0  0  0  0  0
   61.3400   30.0230   50.2060 H   0  0  0  0  0  0  0  0  0  0  0  0
   62.9979   33.4122   47.2703 H   0  0  0  0  0  0  0  0  0  0  0  0
   65.2475   32.0246   52.2368 H   0  0  0  0  0  0  0  0  0  0  0  0
   66.3061   31.1341   51.0827 H   0  0  0  0  0  0  0  0  0  0  0  0
   65.5623   34.4221   52.6473 H   0  0  0  0  0  0  0  0  0  0  0  0
   67.2045   36.3003   52.6836 H   0  0  0  0  0  0  0  0  0  0  0  0
   69.3001   36.1565   51.3322 H   0  0  0  0  0  0  0  0  0  0  0  0
   69.7660   34.1226   49.9591 H   0  0  0  0  0  0  0  0  0  0  0  0
   68.1259   32.2426   49.9144 H   0  0  0  0  0  0  0  0  0  0  0  0
   63.3839   30.5782   50.5833 H   0  0  0  0  0  0  0  0  0  0  0  0
   58.7540   30.5104   47.9306 H   0  0  0  0  0  0  0  0  0  0  0  0
   57.2082   28.7846   47.0172 H   0  0  0  0  0  0  0  0  0  0  0  0
   56.6663   27.4117   45.5841 H   0  0  0  0  0  0  0  0  0  0  0  0
   55.1483   25.6791   44.6348 H   0  0  0  0  0  0  0  0  0  0  0  0
  1  2  2  0
  2  3  2  0
  3  4  1  0
  4  5  1  0
  5  6  2  0
  5  7  1  0
  7  8  1  0
  8  9  2  0
  8 10  2  0
  8 11  1  0
 11 12  2  0
 12 13  1  0
 13 14  2  0
 14 15  1  0
 15 16  2  0
 16 17  1  0
 17 18  2  0
 18 19  1  0
 19 20  1  0
 20 21  2  0
 20 22  1  0
 22 23  2  0
 23 24  1  0
 24 25  1  0
 25 26  1  0
 26 27  1  0
 27 28  2  0
 28 29  1  0
 29 30  2  0
 30 31  1  0
 31 32  2  0
 25 33  2  0
 18 34  1  0
 34 35  2  0
 14 36  1  0
 36 37  2  0
 37 11  1  0
 35 15  1  0
 33 22  1  0
 32 27  1  0
  4 38  1  0
  4 39  1  0
 12 40  1  0
 13 41  1  0
 16 42  1  0
 17 43  1  0
 19 44  1  0
 23 45  1  0
 26 46  1  0
 26 47  1  0
 28 48  1  0
 29 49  1  0
 30 50  1  0
 31 51  1  0
 32 52  1  0
 33 53  1  0
 34 54  1  0
 35 55  1  0
 36 56  1  0
 37 57  1  0
M  CHG  1   7  -1
M  END
>  <UniqueID>  (81) 
78

>  <SMILES>  (81) 
O=C=NCC(=O)[N-]S(=O)(=O)c1ccc(-c2ccc(NC(=O)c3csc(Cc4ccccc4)c3)cc2)cc1

>  <Energy>  (81) 
94.60501515613129

>  <Genealogy>  (81) 
O=C=NCC(=O)[N-]S(=O)(=O)c1ccc(-c2ccc(NC(=O)c3csc(Cc4ccccc4)c3)cc2)cc1 (protonated)
O=C=NCC(=O)[N-]S(=O)(=O)c1ccc(-c2ccc(NC(=O)c3csc(Cc4ccccc4)c3)cc2)cc1 (3D coordinates assigned)
O=C=NCC(=O)[N-]S(=O)(=O)c1ccc(-c2ccc(NC(=O)c3csc(Cc4ccccc4)c3)cc2)cc1 (optimized conformer: 94.60501515613129 kcal/mol)

>  <smiles>  (81) 
O=C=NCC(=O)NS(=O)(=O)c1ccc(-c2ccc(NC(=O)c3csc(Cc4ccccc4)c3)cc2)cc1

>  <score_type>  (81) 
oracle

>  <origin>  (81) 
adg

>  <m_score__min__energy>  (81) 
-10.06

>  <m_primary>  (81) 
energy

$$$$
81:0
     RDKit          3D

 51 54  0  0  0  0  0  0  0  0999 V2000
   55.2640   29.3120   44.7350 N   0  0  0  0  0  0  0  0  0  0  0  0
   56.2910   30.0920   44.1240 C   0  0  0  0  0  0  0  0  0  0  0  0
   56.0930   30.5750   42.9760 O   0  0  0  0  0  0  0  0  0  0  0  0
   57.5730   30.3310   44.8250 C   0  0  0  0  0  0  0  0  0  0  0  0
   57.7830   31.5220   45.5420 C   0  0  0  0  0  0  0  0  0  0  0  0
   58.9930   31.7480   46.2050 C   0  0  0  0  0  0  0  0  0  0  0  0
   60.0240   30.7990   46.1510 C   0  0  0  0  0  0  0  0  0  0  0  0
   61.2480   31.0470   46.8620 N   0  0  0  0  0  0  0  0  0  0  0  0
   61.3130   31.3360   48.2710 C   0  0  0  0  0  0  0  0  0  0  0  0
   60.2640   31.2890   48.9720 O   0  0  0  0  0  0  0  0  0  0  0  0
   62.5960   31.6830   48.9290 C   0  0  0  0  0  0  0  0  0  0  0  0
   63.4300   32.6980   48.4240 C   0  0  0  0  0  0  0  0  0  0  0  0
   64.6390   33.0020   49.0560 C   0  0  0  0  0  0  0  0  0  0  0  0
   65.0420   32.2910   50.1930 C   0  0  0  0  0  0  0  0  0  0  0  0
   66.5840   32.6580   50.9720 S   0  0  0  0  0  0  0  0  0  0  0  0
   67.1220   31.4130   51.6200 O   0  0  0  0  0  0  0  0  0  0  0  0
   67.5730   33.1060   49.9320 O   0  0  0  0  0  0  0  0  0  0  0  0
   66.4010   33.9090   52.1810 N   0  0  0  0  0  0  0  0  0  0  0  0
   64.9850   34.0510   52.6070 C   0  0  0  0  0  0  0  0  0  0  0  0
   64.3100   35.3100   52.0570 C   0  0  0  0  0  0  0  0  0  0  0  0
   65.1270   36.4990   52.4550 C   0  0  0  0  0  0  0  0  0  0  0  0
   64.5220   37.6820   52.9030 C   0  0  0  0  0  0  0  0  0  0  0  0
   65.3120   38.7760   53.2600 C   0  0  0  0  0  0  0  0  0  0  0  0
   66.7010   38.7000   53.1550 C   0  0  0  0  0  0  0  0  0  0  0  0
   67.3160   37.5290   52.6940 C   0  0  0  0  0  0  0  0  0  0  0  0
   69.2270   37.5320   52.5150 Br  0  0  0  0  0  0  0  0  0  0  0  0
   66.5240   36.4070   52.3610 C   0  0  0  0  0  0  0  0  0  0  0  0
   67.1080   35.1460   51.7620 C   0  0  0  0  0  0  0  0  0  0  0  0
   64.2180   31.2770   50.6980 C   0  0  0  0  0  0  0  0  0  0  0  0
   63.0100   30.9700   50.0680 C   0  0  0  0  0  0  0  0  0  0  0  0
   59.8080   29.5970   45.4570 C   0  0  0  0  0  0  0  0  0  0  0  0
   58.5990   29.3680   44.7940 C   0  0  0  0  0  0  0  0  0  0  0  0
   55.1490   28.3010   44.5040 H   0  0  0  0  0  0  0  0  0  0  0  0
   56.9889   32.2822   45.5817 H   0  0  0  0  0  0  0  0  0  0  0  0
   59.1375   32.6783   46.7739 H   0  0  0  0  0  0  0  0  0  0  0  0
   62.1340   30.9590   46.3180 H   0  0  0  0  0  0  0  0  0  0  0  0
   63.1282   33.2561   47.5254 H   0  0  0  0  0  0  0  0  0  0  0  0
   65.2776   33.8044   48.6579 H   0  0  0  0  0  0  0  0  0  0  0  0
   64.4247   33.1724   52.2547 H   0  0  0  0  0  0  0  0  0  0  0  0
   64.9817   34.1326   53.7040 H   0  0  0  0  0  0  0  0  0  0  0  0
   64.2512   35.2505   50.9602 H   0  0  0  0  0  0  0  0  0  0  0  0
   63.2915   35.3995   52.4628 H   0  0  0  0  0  0  0  0  0  0  0  0
   63.4262   37.7478   52.9730 H   0  0  0  0  0  0  0  0  0  0  0  0
   64.8386   39.6995   53.6247 H   0  0  0  0  0  0  0  0  0  0  0  0
   67.3179   39.5662   53.4363 H   0  0  0  0  0  0  0  0  0  0  0  0
   67.0541   35.2237   50.6661 H   0  0  0  0  0  0  0  0  0  0  0  0
   68.1436   35.0653   52.1239 H   0  0  0  0  0  0  0  0  0  0  0  0
   64.5240   30.7196   51.5956 H   0  0  0  0  0  0  0  0  0  0  0  0
   62.3769   30.1634   50.4663 H   0  0  0  0  0  0  0  0  0  0  0  0
   60.5963   28.8301   45.4351 H   0  0  0  0  0  0  0  0  0  0  0  0
   58.4482   28.4276   44.2436 H   0  0  0  0  0  0  0  0  0  0  0  0
  1  2  1  0
  2  3  2  0
  2  4  1  0
  4  5  2  0
  5  6  1  0
  6  7  2  0
  7  8  1  0
  8  9  1  0
  9 10  2  0
  9 11  1  0
 11 12  2  0
 12 13  1  0
 13 14  2  0
 14 15  1  0
 15 16  2  0
 15 17  2  0
 15 18  1  0
 18 19  1  0
 19 20  1  0
 20 21  1  0
 21 22  2  0
 22 23  1  0
 23 24  2  0
 24 25  1  0
 25 26  1  0
 25 27  2  0
 27 28  1  0
 14 29  1  0
 29 30  2  0
  7 31  1  0
 31 32  2  0
 32  4  1  0
 30 11  1  0
 28 18  1  0
 27 21  1  0
  1 33  1  0
  5 34  1  0
  6 35  1  0
  8 36  1  0
 12 37  1  0
 13 38  1  0
 19 39  1  0
 19 40  1  0
 20 41  1  0
 20 42  1  0
 22 43  1  0
 23 44  1  0
 24 45  1  0
 28 46  1  0
 28 47  1  0
 29 48  1  0
 30 49  1  0
 31 50  1  0
 32 51  1  0
M  CHG  1   1  -1
M  END
>  <UniqueID>  (82) 
79

>  <SMILES>  (82) 
[NH-]C(=O)c1ccc(NC(=O)c2ccc(S(=O)(=O)N3CCc4cccc(Br)c4C3)cc2)cc1

>  <Energy>  (82) 
72.85650968984253

>  <Genealogy>  (82) 
[NH-]C(=O)c1ccc(NC(=O)c2ccc(S(=O)(=O)N3CCc4cccc(Br)c4C3)cc2)cc1 (protonated)
[NH-]C(=O)c1ccc(NC(=O)c2ccc(S(=O)(=O)N3CCc4cccc(Br)c4C3)cc2)cc1 (3D coordinates assigned)
[NH-]C(=O)c1ccc(NC(=O)c2ccc(S(=O)(=O)N3CCc4cccc(Br)c4C3)cc2)cc1 (nonaromatic ring conformer: 72.85650968984253 kcal/mol)

>  <smiles>  (82) 
NC(=O)c1ccc(NC(=O)c2ccc(S(=O)(=O)N3CCc4cccc(Br)c4C3)cc2)cc1

>  <score_type>  (82) 
oracle

>  <origin>  (82) 
adg

>  <m_score__min__energy>  (82) 
-10.9

>  <m_primary>  (82) 
energy

$$$$
82:0
     RDKit          3D

 55 58  0  0  0  0  0  0  0  0999 V2000
   60.5170   28.4510   45.0570 O   0  0  0  0  0  0  0  0  0  0  0  0
   59.3910   28.5420   45.6110 C   0  0  0  0  0  0  0  0  0  0  0  0
   59.2000   27.9140   46.9680 C   0  0  0  0  0  0  0  0  0  0  0  0
   57.7540   27.4530   47.1820 C   0  0  0  0  0  0  0  0  0  0  0  0
   57.4420   26.2800   46.3620 N   0  0  0  0  0  0  0  0  0  0  0  0
   56.2380   25.9540   45.8440 C   0  0  0  0  0  0  0  0  0  0  0  0
   55.0860   26.7160   45.9970 O   0  0  0  0  0  0  0  0  0  0  0  0
   56.3170   24.7550   45.1650 C   0  0  0  0  0  0  0  0  0  0  0  0
   57.6180   24.3310   45.2710 C   0  0  0  0  0  0  0  0  0  0  0  0
   58.2840   25.2840   46.0140 C   0  0  0  0  0  0  0  0  0  0  0  0
   59.6270   25.2290   46.3760 O   0  0  0  0  0  0  0  0  0  0  0  0
   58.1340   23.0540   44.6880 C   0  0  0  0  0  0  0  0  0  0  0  0
   57.0200   22.2300   44.0740 C   0  0  0  0  0  0  0  0  0  0  0  0
   55.7370   22.6420   43.9800 C   0  0  0  0  0  0  0  0  0  0  0  0
   55.2350   23.9810   44.4870 C   0  0  0  0  0  0  0  0  0  0  0  0
   58.3840   29.3550   44.9910 N   0  0  0  0  0  0  0  0  0  0  0  0
   58.1840   30.7620   45.1740 C   0  0  0  0  0  0  0  0  0  0  0  0
   59.1820   31.5700   45.7450 C   0  0  0  0  0  0  0  0  0  0  0  0
   58.9580   32.9410   45.9460 C   0  0  0  0  0  0  0  0  0  0  0  0
   60.2030   33.9430   46.7010 S   0  0  0  0  0  0  0  0  0  0  0  0
   59.8330   34.2010   48.1370 O   0  0  0  0  0  0  0  0  0  0  0  0
   60.2700   35.2680   45.9930 O   0  0  0  0  0  0  0  0  0  0  0  0
   61.7720   33.1710   46.6370 N   0  0  0  0  0  0  0  0  0  0  0  0
   61.8370   32.0470   47.5990 C   0  0  0  0  0  0  0  0  0  0  0  0
   63.2840   31.6350   47.8820 C   0  0  0  0  0  0  0  0  0  0  0  0
   64.0660   32.7890   48.5350 C   0  0  0  0  0  0  0  0  0  0  0  0
   63.5120   34.1730   48.1560 C   0  0  0  0  0  0  0  0  0  0  0  0
   62.8750   34.1580   46.7580 C   0  0  0  0  0  0  0  0  0  0  0  0
   57.7290   33.5030   45.5780 C   0  0  0  0  0  0  0  0  0  0  0  0
   56.7160   32.6940   45.0570 C   0  0  0  0  0  0  0  0  0  0  0  0
   56.9340   31.3250   44.8750 C   0  0  0  0  0  0  0  0  0  0  0  0
   55.9030   30.5250   44.3950 O   0  0  0  0  0  0  0  0  0  0  0  0
   59.8678   27.0443   47.0553 H   0  0  0  0  0  0  0  0  0  0  0  0
   59.4349   28.6703   47.7315 H   0  0  0  0  0  0  0  0  0  0  0  0
   57.6129   27.1966   48.2424 H   0  0  0  0  0  0  0  0  0  0  0  0
   57.0814   28.2718   46.8865 H   0  0  0  0  0  0  0  0  0  0  0  0
   58.8738   23.2906   43.9091 H   0  0  0  0  0  0  0  0  0  0  0  0
   58.5902   22.4659   45.4980 H   0  0  0  0  0  0  0  0  0  0  0  0
   57.2720   21.2342   43.6803 H   0  0  0  0  0  0  0  0  0  0  0  0
   55.0111   21.9646   43.5065 H   0  0  0  0  0  0  0  0  0  0  0  0
   54.8580   24.5662   43.6353 H   0  0  0  0  0  0  0  0  0  0  0  0
   54.4366   23.7930   45.2200 H   0  0  0  0  0  0  0  0  0  0  0  0
   60.1449   31.1252   46.0363 H   0  0  0  0  0  0  0  0  0  0  0  0
   61.3620   32.3555   48.5420 H   0  0  0  0  0  0  0  0  0  0  0  0
   61.3120   31.1857   47.1601 H   0  0  0  0  0  0  0  0  0  0  0  0
   63.2858   30.7693   48.5607 H   0  0  0  0  0  0  0  0  0  0  0  0
   63.7688   31.3770   46.9289 H   0  0  0  0  0  0  0  0  0  0  0  0
   64.0123   32.6760   49.6279 H   0  0  0  0  0  0  0  0  0  0  0  0
   65.1023   32.7355   48.1701 H   0  0  0  0  0  0  0  0  0  0  0  0
   62.7506   34.4679   48.8931 H   0  0  0  0  0  0  0  0  0  0  0  0
   64.3463   34.8898   48.1487 H   0  0  0  0  0  0  0  0  0  0  0  0
   62.4747   35.1599   46.5437 H   0  0  0  0  0  0  0  0  0  0  0  0
   63.6576   33.8685   46.0413 H   0  0  0  0  0  0  0  0  0  0  0  0
   57.5610   34.5833   45.6994 H   0  0  0  0  0  0  0  0  0  0  0  0
   55.7446   33.1352   44.7893 H   0  0  0  0  0  0  0  0  0  0  0  0
  1  2  2  0
  2  3  1  0
  3  4  1  0
  4  5  1  0
  5  6  1  0
  6  7  1  0
  6  8  2  0
  8  9  1  0
  9 10  2  0
 10 11  1  0
  9 12  1  0
 12 13  1  0
 13 14  2  0
 14 15  1  0
  2 16  1  0
 16 17  1  0
 17 18  2  0
 18 19  1  0
 19 20  1  0
 20 21  2  0
 20 22  2  0
 20 23  1  0
 23 24  1  0
 24 25  1  0
 25 26  1  0
 26 27  1  0
 27 28  1  0
 19 29  2  0
 29 30  1  0
 30 31  2  0
 31 32  1  0
 10  5  1  0
 31 17  1  0
 15  8  1  0
 28 23  1  0
  3 33  1  0
  3 34  1  0
  4 35  1  0
  4 36  1  0
 12 37  1  0
 12 38  1  0
 13 39  1  0
 14 40  1  0
 15 41  1  0
 15 42  1  0
 18 43  1  0
 24 44  1  0
 24 45  1  0
 25 46  1  0
 25 47  1  0
 26 48  1  0
 26 49  1  0
 27 50  1  0
 27 51  1  0
 28 52  1  0
 28 53  1  0
 29 54  1  0
 30 55  1  0
M  CHG  4   7  -1  11  -1  16  -1  32  -1
M  END
>  <UniqueID>  (83) 
80

>  <SMILES>  (83) 
O=C(CCn1c([O-])c2c(c1[O-])CC=CC2)[N-]c1cc(S(=O)(=O)N2CCCCC2)ccc1[O-]

>  <Energy>  (83) 
92.24972392029208

>  <Genealogy>  (83) 
O=C(CCn1c([O-])c2c(c1[O-])CC=CC2)[N-]c1cc(S(=O)(=O)N2CCCCC2)ccc1[O-] (protonated)
O=C(CCn1c([O-])c2c(c1[O-])CC=CC2)[N-]c1cc(S(=O)(=O)N2CCCCC2)ccc1[O-] (3D coordinates assigned)
O=C(CCn1c([O-])c2c(c1[O-])CC=CC2)[N-]c1cc(S(=O)(=O)N2CCCCC2)ccc1[O-] (nonaromatic ring conformer: 92.24972392029208 kcal/mol)

>  <smiles>  (83) 
O=C(CCn1c(O)c2c(c1O)CC=CC2)Nc1cc(S(=O)(=O)N2CCCCC2)ccc1O

>  <score_type>  (83) 
oracle

>  <origin>  (83) 
adg

>  <m_score__min__energy>  (83) 
-17.289999999999999

>  <m_primary>  (83) 
energy

$$$$
83:0
     RDKit          3D

 43 45  0  0  0  0  0  0  0  0999 V2000
   60.7120   34.2280   49.1360 O   0  0  0  0  0  0  0  0  0  0  0  0
   61.3810   34.2100   48.0690 C   0  0  0  0  0  0  0  0  0  0  0  0
   62.7920   33.7660   48.1010 C   0  0  0  0  0  0  0  0  0  0  0  0
   63.1980   32.4890   48.2060 C   0  0  0  0  0  0  0  0  0  0  0  0
   62.3670   31.3540   48.6730 C   0  0  0  0  0  0  0  0  0  0  0  0
   61.3250   30.8270   47.8860 C   0  0  0  0  0  0  0  0  0  0  0  0
   60.5290   29.7880   48.3770 C   0  0  0  0  0  0  0  0  0  0  0  0
   60.7410   29.2900   49.6660 C   0  0  0  0  0  0  0  0  0  0  0  0
   61.7500   29.8310   50.4660 C   0  0  0  0  0  0  0  0  0  0  0  0
   62.5540   30.8650   49.9760 C   0  0  0  0  0  0  0  0  0  0  0  0
   60.6990   34.4490   46.8230 N   0  0  0  0  0  0  0  0  0  0  0  0
   59.6640   33.8270   46.3230 C   0  0  0  0  0  0  0  0  0  0  0  0
   59.2150   34.0290   45.0000 C   0  0  0  0  0  0  0  0  0  0  0  0
   58.1300   33.2930   44.5220 C   0  0  0  0  0  0  0  0  0  0  0  0
   57.4610   32.3960   45.3570 C   0  0  0  0  0  0  0  0  0  0  0  0
   56.3430   31.6660   44.8330 N   0  0  0  0  0  0  0  0  0  0  0  0
   56.3760   30.0030   44.3380 S   0  0  0  0  0  0  0  0  0  0  0  0
   55.1430   29.3170   44.8540 O   0  0  0  0  0  0  0  0  0  0  0  0
   56.3650   29.9390   42.8350 O   0  0  0  0  0  0  0  0  0  0  0  0
   57.8330   29.2030   44.9310 C   0  0  0  0  0  0  0  0  0  0  0  0
   57.7370   28.1340   45.8380 C   0  0  0  0  0  0  0  0  0  0  0  0
   58.8960   27.4950   46.2950 C   0  0  0  0  0  0  0  0  0  0  0  0
   60.1520   27.9140   45.8440 C   0  0  0  0  0  0  0  0  0  0  0  0
   60.2520   28.9780   44.9420 C   0  0  0  0  0  0  0  0  0  0  0  0
   59.0940   29.6230   44.4860 C   0  0  0  0  0  0  0  0  0  0  0  0
   57.8990   32.2580   46.6810 C   0  0  0  0  0  0  0  0  0  0  0  0
   58.9800   32.9580   47.1240 N   0  0  0  0  0  0  0  0  0  0  0  0
   63.5693   34.5414   48.0336 H   0  0  0  0  0  0  0  0  0  0  0  0
   64.2369   32.2670   47.9207 H   0  0  0  0  0  0  0  0  0  0  0  0
   61.1368   31.2342   46.8816 H   0  0  0  0  0  0  0  0  0  0  0  0
   59.7340   29.3613   47.7477 H   0  0  0  0  0  0  0  0  0  0  0  0
   60.1133   28.4723   50.0500 H   0  0  0  0  0  0  0  0  0  0  0  0
   61.9124   29.4433   51.4825 H   0  0  0  0  0  0  0  0  0  0  0  0
   63.3376   31.2979   50.6151 H   0  0  0  0  0  0  0  0  0  0  0  0
   59.7168   34.7613   44.3505 H   0  0  0  0  0  0  0  0  0  0  0  0
   57.7997   33.4204   43.4805 H   0  0  0  0  0  0  0  0  0  0  0  0
   56.7500   27.7988   46.1894 H   0  0  0  0  0  0  0  0  0  0  0  0
   58.8187   26.6624   47.0097 H   0  0  0  0  0  0  0  0  0  0  0  0
   61.0612   27.4065   46.1989 H   0  0  0  0  0  0  0  0  0  0  0  0
   61.2402   29.3090   44.5901 H   0  0  0  0  0  0  0  0  0  0  0  0
   59.1751   30.4605   43.7775 H   0  0  0  0  0  0  0  0  0  0  0  0
   57.3671   31.5811   47.3657 H   0  0  0  0  0  0  0  0  0  0  0  0
   59.2900   32.8130   48.1140 H   0  0  0  0  0  0  0  0  0  0  0  0
  1  2  2  0
  2  3  1  0
  3  4  2  3
  4  5  1  0
  5  6  2  0
  6  7  1  0
  7  8  2  0
  8  9  1  0
  9 10  2  0
  2 11  1  0
 11 12  2  3
 12 13  1  0
 13 14  2  0
 14 15  1  0
 15 16  1  0
 16 17  1  0
 17 18  2  0
 17 19  2  0
 17 20  1  0
 20 21  2  0
 21 22  1  0
 22 23  2  0
 23 24  1  0
 24 25  2  0
 15 26  2  0
 26 27  1  0
 10  5  1  0
 27 12  1  0
 25 20  1  0
  3 28  1  0
  4 29  1  0
  6 30  1  0
  7 31  1  0
  8 32  1  0
  9 33  1  0
 10 34  1  0
 13 35  1  0
 14 36  1  0
 21 37  1  0
 22 38  1  0
 23 39  1  0
 24 40  1  0
 25 41  1  0
 26 42  1  0
 27 43  1  0
M  CHG  1  16  -1
M  END
>  <UniqueID>  (84) 
81

>  <SMILES>  (84) 
O=C(C=Cc1ccccc1)N=c1ccc([N-]S(=O)(=O)c2ccccc2)c[nH]1

>  <Energy>  (84) 
66.35552079363605

>  <Genealogy>  (84) 
O=C(C=Cc1ccccc1)N=c1ccc([N-]S(=O)(=O)c2ccccc2)c[nH]1 (protonated)
O=C(C=Cc1ccccc1)N=c1ccc([N-]S(=O)(=O)c2ccccc2)c[nH]1 (3D coordinates assigned)
O=C(C=Cc1ccccc1)N=c1ccc([N-]S(=O)(=O)c2ccccc2)c[nH]1 (optimized conformer: 66.35552079363605 kcal/mol)

>  <smiles>  (84) 
O=C(C=Cc1ccccc1)N=c1ccc(NS(=O)(=O)c2ccccc2)c[nH]1

>  <score_type>  (84) 
oracle

>  <origin>  (84) 
adg

>  <m_score__min__energy>  (84) 
-11.09

>  <m_primary>  (84) 
energy

$$$$
84:0
     RDKit          3D

 72 77  0  0  0  0  0  0  0  0999 V2000
   53.5750   28.1810   54.0950 O   0  0  0  0  0  0  0  0  0  0  0  0
   53.7570   29.3490   53.6520 C   0  0  0  0  0  0  0  0  0  0  0  0
   52.6460   30.3120   53.6800 C   0  0  0  0  0  0  0  0  0  0  0  0
   52.0900   30.9550   54.8000 C   0  0  0  0  0  0  0  0  0  0  0  0
   51.1790   31.8910   54.4170 N   0  0  0  0  0  0  0  0  0  0  0  0
   51.1700   31.8010   53.0810 C   0  0  0  0  0  0  0  0  0  0  0  0
   50.6620   32.6270   52.1540 N   0  0  0  0  0  0  0  0  0  0  0  0
   51.2560   32.1470   51.0210 C   0  0  0  0  0  0  0  0  0  0  0  0
   51.0420   32.7060   49.7690 O   0  0  0  0  0  0  0  0  0  0  0  0
   52.1350   31.0810   51.2570 C   0  0  0  0  0  0  0  0  0  0  0  0
   52.0240   30.9090   52.6120 C   0  0  0  0  0  0  0  0  0  0  0  0
   55.0470   29.7310   53.1500 N   0  0  0  0  0  0  0  0  0  0  0  0
   56.2490   29.3320   53.8920 C   0  0  0  0  0  0  0  0  0  0  0  0
   57.5290   29.8130   53.1950 C   0  0  0  0  0  0  0  0  0  0  0  0
   57.3720   31.2770   52.7400 C   0  0  0  0  0  0  0  0  0  0  0  0
   58.6210   31.7690   52.1230 N   0  0  0  0  0  0  0  0  0  0  0  0
   58.6120   32.9290   51.2260 C   0  0  0  0  0  0  0  0  0  0  0  0
   59.8410   33.8210   51.4790 C   0  0  0  0  0  0  0  0  0  0  0  0
   61.1420   33.1040   51.3810 N   0  0  2  0  0  0  0  0  0  0  0  0
   61.7310   33.1070   50.0170 C   0  0  0  0  0  0  0  0  0  0  0  0
   61.0950   32.1200   49.0640 C   0  0  0  0  0  0  0  0  0  0  0  0
   61.6040   30.8200   48.9410 C   0  0  0  0  0  0  0  0  0  0  0  0
   60.9980   29.9010   48.0820 C   0  0  0  0  0  0  0  0  0  0  0  0
   59.8610   30.2590   47.3310 C   0  0  0  0  0  0  0  0  0  0  0  0
   59.1980   29.2830   46.3700 C   0  0  0  0  0  0  0  0  0  0  0  0
   60.2510   28.4240   45.6230 C   0  0  0  0  0  0  0  0  0  0  0  0
   60.5720   27.1090   46.3460 C   0  0  0  0  0  0  0  0  0  0  0  0
   59.3150   26.2710   46.6810 C   0  0  0  0  0  0  0  0  0  0  0  0
   57.9900   27.0260   46.4820 C   0  0  0  0  0  0  0  0  0  0  0  0
   58.0770   28.4450   47.0510 C   0  0  0  0  0  0  0  0  0  0  0  0
   59.3780   31.5770   47.4300 C   0  0  0  0  0  0  0  0  0  0  0  0
   59.9920   32.4990   48.2820 C   0  0  0  0  0  0  0  0  0  0  0  0
   61.1330   31.7780   51.9700 C   0  0  0  0  0  0  0  0  0  0  0  0
   62.2280   31.1860   52.1870 O   0  0  0  0  0  0  0  0  0  0  0  0
   59.8770   31.1060   52.3460 C   0  0  0  0  0  0  0  0  0  0  0  0
   59.9170   29.9580   52.8690 O   0  0  0  0  0  0  0  0  0  0  0  0
   56.1660   31.4810   51.7870 C   0  0  0  0  0  0  0  0  0  0  0  0
   55.1630   30.3160   51.8060 C   0  0  0  0  0  0  0  0  0  0  0  0
   52.3552   30.7319   55.8440 H   0  0  0  0  0  0  0  0  0  0  0  0
   50.6680   32.5720   55.0200 H   0  0  0  0  0  0  0  0  0  0  0  0
   52.7551   30.5249   50.5385 H   0  0  0  0  0  0  0  0  0  0  0  0
   56.2067   29.7679   54.9011 H   0  0  0  0  0  0  0  0  0  0  0  0
   56.2752   28.2333   53.9393 H   0  0  0  0  0  0  0  0  0  0  0  0
   58.3735   29.7394   53.8960 H   0  0  0  0  0  0  0  0  0  0  0  0
   57.7152   29.1821   52.3133 H   0  0  0  0  0  0  0  0  0  0  0  0
   57.1645   31.8712   53.6422 H   0  0  0  0  0  0  0  0  0  0  0  0
   58.6279   32.5794   50.1832 H   0  0  0  0  0  0  0  0  0  0  0  0
   57.7023   33.5172   51.4171 H   0  0  0  0  0  0  0  0  0  0  0  0
   59.8372   34.6331   50.7371 H   0  0  0  0  0  0  0  0  0  0  0  0
   59.7586   34.1896   52.5121 H   0  0  0  0  0  0  0  0  0  0  0  0
   61.8100   33.6600   51.9670 H   0  0  0  0  0  0  0  0  0  0  0  0
   61.6174   34.1163   49.5946 H   0  0  0  0  0  0  0  0  0  0  0  0
   62.7834   32.8064   50.1269 H   0  0  0  0  0  0  0  0  0  0  0  0
   62.4870   30.5216   49.5252 H   0  0  0  0  0  0  0  0  0  0  0  0
   61.4129   28.8863   47.9906 H   0  0  0  0  0  0  0  0  0  0  0  0
   58.6808   29.8742   45.6000 H   0  0  0  0  0  0  0  0  0  0  0  0
   59.8640   28.1879   44.6208 H   0  0  0  0  0  0  0  0  0  0  0  0
   61.1809   29.0098   45.5758 H   0  0  0  0  0  0  0  0  0  0  0  0
   61.2304   26.5081   45.7015 H   0  0  0  0  0  0  0  0  0  0  0  0
   61.0522   27.3712   47.3003 H   0  0  0  0  0  0  0  0  0  0  0  0
   59.3081   25.3828   46.0321 H   0  0  0  0  0  0  0  0  0  0  0  0
   59.3783   26.0142   47.7487 H   0  0  0  0  0  0  0  0  0  0  0  0
   57.7661   27.0826   45.4065 H   0  0  0  0  0  0  0  0  0  0  0  0
   57.1939   26.4834   47.0129 H   0  0  0  0  0  0  0  0  0  0  0  0
   57.1123   28.9496   46.8939 H   0  0  0  0  0  0  0  0  0  0  0  0
   58.3172   28.3658   48.1215 H   0  0  0  0  0  0  0  0  0  0  0  0
   58.5084   31.8846   46.8307 H   0  0  0  0  0  0  0  0  0  0  0  0
   59.6087   33.5284   48.3404 H   0  0  0  0  0  0  0  0  0  0  0  0
   55.6385   32.3990   52.0852 H   0  0  0  0  0  0  0  0  0  0  0  0
   56.5689   31.5433   50.7654 H   0  0  0  0  0  0  0  0  0  0  0  0
   54.1767   30.6874   51.4908 H   0  0  0  0  0  0  0  0  0  0  0  0
   55.5239   29.5366   51.1187 H   0  0  0  0  0  0  0  0  0  0  0  0
  1  2  2  0
  2  3  1  0
  3  4  2  0
  4  5  1  0
  5  6  1  0
  6  7  1  0
  7  8  1  0
  8  9  1  0
  8 10  2  0
 10 11  1  0
  2 12  1  0
 12 13  1  0
 13 14  1  0
 14 15  1  0
 15 16  1  0
 16 17  1  0
 17 18  1  0
 18 19  1  0
 19 20  1  0
 20 21  1  0
 21 22  2  0
 22 23  1  0
 23 24  2  0
 24 25  1  0
 25 26  1  0
 26 27  1  0
 27 28  1  0
 28 29  1  0
 29 30  1  0
 24 31  1  0
 31 32  2  0
 19 33  1  0
 33 34  2  0
 33 35  1  0
 35 36  2  0
 15 37  1  0
 37 38  1  0
 11  3  1  0
 38 12  1  0
 11  6  2  0
 35 16  1  0
 32 21  1  0
 30 25  1  0
  4 39  1  0
  5 40  1  0
 10 41  1  0
 13 42  1  0
 13 43  1  0
 14 44  1  0
 14 45  1  0
 15 46  1  0
 17 47  1  0
 17 48  1  0
 18 49  1  0
 18 50  1  0
 19 51  1  1
 20 52  1  0
 20 53  1  0
 22 54  1  0
 23 55  1  0
 25 56  1  0
 26 57  1  0
 26 58  1  0
 27 59  1  0
 27 60  1  0
 28 61  1  0
 28 62  1  0
 29 63  1  0
 29 64  1  0
 30 65  1  0
 30 66  1  0
 31 67  1  0
 32 68  1  0
 37 69  1  0
 37 70  1  0
 38 71  1  0
 38 72  1  0
M  CHG  3   7  -1   9  -1  19   1
M  END
>  <UniqueID>  (85) 
82

>  <SMILES>  (85) 
O=C(c1c[nH]c2[n-]c([O-])cc12)N1CCC(N2CC[N@H+](Cc3ccc(C4CCCCC4)cc3)C(=O)C2=O)CC1

>  <Energy>  (85) 
175.70588837666352

>  <Genealogy>  (85) 
O=C(c1c[nH]c2[n-]c([O-])cc12)N1CCC(N2CC[NH+](Cc3ccc(C4CCCCC4)cc3)C(=O)C2=O)CC1 (protonated)
O=C(c1c[nH]c2[n-]c([O-])cc12)N1CCC(N2CC[N@H+](Cc3ccc(C4CCCCC4)cc3)C(=O)C2=O)CC1 (chirality)
O=C(c1c[nH]c2[n-]c([O-])cc12)N1CCC(N2CC[N@H+](Cc3ccc(C4CCCCC4)cc3)C(=O)C2=O)CC1 (3D coordinates assigned)
O=C(c1c[nH]c2[n-]c([O-])cc12)N1CCC(N2CC[N@H+](Cc3ccc(C4CCCCC4)cc3)C(=O)C2=O)CC1 (nonaromatic ring conformer: 175.70588837666352 kcal/mol)

>  <smiles>  (85) 
O=C1C(=O)N(C2CCN(C(=O)c3c[nH]c4[nH]c(O)cc34)CC2)CCN1Cc1ccc(C2CCCCC2)cc1

>  <score_type>  (85) 
oracle

>  <origin>  (85) 
adg

>  <m_score__min__energy>  (85) 
-16.300000000000001

>  <m_primary>  (85) 
energy

$$$$
85:0
     RDKit          3D

 34 36  0  0  0  0  0  0  0  0999 V2000
   55.1020   26.3440   45.9810 N   0  0  0  0  0  0  0  0  0  0  0  0
   56.8250   26.4630   45.9370 S   0  0  0  0  0  0  0  0  0  0  0  0
   57.3470   25.7190   44.7390 O   0  0  0  0  0  0  0  0  0  0  0  0
   57.4030   25.8430   47.1780 O   0  0  0  0  0  0  0  0  0  0  0  0
   57.2960   28.1560   45.8410 C   0  0  0  0  0  0  0  0  0  0  0  0
   56.6570   29.0170   44.9400 C   0  0  0  0  0  0  0  0  0  0  0  0
   57.0240   30.3640   44.8710 C   0  0  0  0  0  0  0  0  0  0  0  0
   58.0390   30.8660   45.7020 C   0  0  0  0  0  0  0  0  0  0  0  0
   58.4200   32.2950   45.6260 C   0  0  0  0  0  0  0  0  0  0  0  0
   58.9540   33.0480   46.6030 C   0  0  0  0  0  0  0  0  0  0  0  0
   59.4050   32.5960   47.9390 C   0  0  0  0  0  0  0  0  0  0  0  0
   60.7650   32.3440   48.1910 C   0  0  0  0  0  0  0  0  0  0  0  0
   61.1810   31.9220   49.4570 C   0  0  0  0  0  0  0  0  0  0  0  0
   60.2470   31.7580   50.4840 C   0  0  0  0  0  0  0  0  0  0  0  0
   58.8940   32.0200   50.2450 C   0  0  0  0  0  0  0  0  0  0  0  0
   57.6190   31.7980   51.6500 Br  0  0  0  0  0  0  0  0  0  0  0  0
   58.4740   32.4420   48.9780 C   0  0  0  0  0  0  0  0  0  0  0  0
   59.0840   34.4130   46.0820 C   0  0  0  0  0  0  0  0  0  0  0  0
   59.5690   35.3920   46.7090 O   0  0  0  0  0  0  0  0  0  0  0  0
   58.6180   34.4940   44.7450 N   0  0  0  0  0  0  0  0  0  0  0  0
   58.2060   33.1660   44.4660 C   0  0  0  0  0  0  0  0  0  0  0  0
   57.6970   32.8130   43.3690 O   0  0  0  0  0  0  0  0  0  0  0  0
   58.6620   30.0030   46.6200 C   0  0  0  0  0  0  0  0  0  0  0  0
   58.2940   28.6570   46.6870 C   0  0  0  0  0  0  0  0  0  0  0  0
   54.7620   27.0840   46.6330 H   0  0  0  0  0  0  0  0  0  0  0  0
   55.8628   28.6315   44.2837 H   0  0  0  0  0  0  0  0  0  0  0  0
   56.5154   31.0342   44.1624 H   0  0  0  0  0  0  0  0  0  0  0  0
   61.5049   32.4795   47.3884 H   0  0  0  0  0  0  0  0  0  0  0  0
   62.2455   31.7186   49.6455 H   0  0  0  0  0  0  0  0  0  0  0  0
   60.5757   31.4233   51.4790 H   0  0  0  0  0  0  0  0  0  0  0  0
   57.4100   32.6538   48.7960 H   0  0  0  0  0  0  0  0  0  0  0  0
   58.5880   35.3290   44.1190 H   0  0  0  0  0  0  0  0  0  0  0  0
   59.4441   30.3898   47.2898 H   0  0  0  0  0  0  0  0  0  0  0  0
   58.7894   27.9884   47.4063 H   0  0  0  0  0  0  0  0  0  0  0  0
  1  2  1  0
  2  3  2  0
  2  4  2  0
  2  5  1  0
  5  6  2  0
  6  7  1  0
  7  8  2  0
  8  9  1  0
  9 10  2  0
 10 11  1  0
 11 12  2  0
 12 13  1  0
 13 14  2  0
 14 15  1  0
 15 16  1  0
 15 17  2  0
 10 18  1  0
 18 19  2  0
 18 20  1  0
 20 21  1  0
 21 22  2  0
  8 23  1  0
 23 24  2  0
 24  5  1  0
 21  9  1  0
 17 11  1  0
  1 25  1  0
  6 26  1  0
  7 27  1  0
 12 28  1  0
 13 29  1  0
 14 30  1  0
 17 31  1  0
 20 32  1  0
 23 33  1  0
 24 34  1  0
M  CHG  1   1  -1
M  END
>  <UniqueID>  (86) 
83

>  <SMILES>  (86) 
[NH-]S(=O)(=O)c1ccc(C2=C(c3cccc(Br)c3)C(=O)NC2=O)cc1

>  <Energy>  (86) 
71.47067472711797

>  <Genealogy>  (86) 
[NH-]S(=O)(=O)c1ccc(C2=C(c3cccc(Br)c3)C(=O)NC2=O)cc1 (protonated)
[NH-]S(=O)(=O)c1ccc(C2=C(c3cccc(Br)c3)C(=O)NC2=O)cc1 (3D coordinates assigned)
[NH-]S(=O)(=O)c1ccc(C2=C(c3cccc(Br)c3)C(=O)NC2=O)cc1 (nonaromatic ring conformer: 71.47067472711797 kcal/mol)

>  <smiles>  (86) 
NS(=O)(=O)c1ccc(C2=C(c3cccc(Br)c3)C(=O)NC2=O)cc1

>  <score_type>  (86) 
oracle

>  <origin>  (86) 
adg

>  <m_score__min__energy>  (86) 
-11.33

>  <m_primary>  (86) 
energy

$$$$
86:0
     RDKit          3D

 58 62  0  0  0  0  0  0  0  0999 V2000
   58.8000   35.4310   45.2670 H   0  0  0  0  0  0  0  0  0  0  0  0
   58.7010   34.7400   44.4890 N   0  0  0  0  0  0  0  0  0  0  0  0
   58.4940   33.4820   44.7190 C   0  0  0  0  0  0  0  0  0  0  0  0
   58.0440   32.6850   43.7110 N   0  0  0  0  0  0  0  0  0  0  0  0
   57.8460   31.3510   43.8750 C   0  0  0  0  0  0  0  0  0  0  0  0
   57.4671   30.7471   43.0373 H   0  0  0  0  0  0  0  0  0  0  0  0
   58.1220   30.7400   45.1060 C   0  0  0  0  0  0  0  0  0  0  0  0
   57.9170   29.2820   45.2950 C   0  0  0  0  0  0  0  0  0  0  0  0
   59.0170   28.3840   45.2060 C   0  0  0  0  0  0  0  0  0  0  0  0
   60.0237   28.7763   44.9996 H   0  0  0  0  0  0  0  0  0  0  0  0
   58.8320   27.0000   45.3790 C   0  0  0  0  0  0  0  0  0  0  0  0
   59.6778   26.3001   45.3093 H   0  0  0  0  0  0  0  0  0  0  0  0
   57.5440   26.5470   45.6410 C   0  0  0  0  0  0  0  0  0  0  0  0
   57.1450   25.2810   45.8370 N   0  0  0  0  0  0  0  0  0  0  0  0
   55.8130   25.4340   46.0450 C   0  0  0  0  0  0  0  0  0  0  0  0
   55.0500   24.4600   46.2720 O   0  0  0  0  0  0  0  0  0  0  0  0
   55.3610   26.7130   45.9890 N   0  0  0  0  0  0  0  0  0  0  0  0
   56.4850   27.3960   45.7300 C   0  0  0  0  0  0  0  0  0  0  0  0
   56.6250   28.7720   45.5640 C   0  0  0  0  0  0  0  0  0  0  0  0
   55.7563   29.4425   45.6399 H   0  0  0  0  0  0  0  0  0  0  0  0
   58.5890   31.5410   46.1590 C   0  0  0  0  0  0  0  0  0  0  0  0
   58.8214   31.0805   47.1306 H   0  0  0  0  0  0  0  0  0  0  0  0
   58.7630   32.9230   45.9870 C   0  0  0  0  0  0  0  0  0  0  0  0
   59.2330   33.7390   47.1310 C   0  0  0  0  0  0  0  0  0  0  0  0
   58.5520   34.7370   47.4970 O   0  0  0  0  0  0  0  0  0  0  0  0
   60.4690   33.4350   47.7950 N   0  0  0  0  0  0  0  0  0  0  0  0
   61.0930   32.6930   47.4080 H   0  0  0  0  0  0  0  0  0  0  0  0
   60.9480   34.2000   48.9450 C   0  0  0  0  0  0  0  0  0  0  0  0
   61.0313   35.2607   48.6659 H   0  0  0  0  0  0  0  0  0  0  0  0
   60.2349   34.0832   49.7744 H   0  0  0  0  0  0  0  0  0  0  0  0
   62.2960   33.6950   49.3840 C   0  0  0  0  0  0  0  0  0  0  0  0
   62.6480   33.7230   50.7410 C   0  0  0  0  0  0  0  0  0  0  0  0
   61.9411   34.1270   51.4806 H   0  0  0  0  0  0  0  0  0  0  0  0
   63.8910   33.2410   51.1600 C   0  0  0  0  0  0  0  0  0  0  0  0
   64.1523   33.2587   52.2284 H   0  0  0  0  0  0  0  0  0  0  0  0
   64.8090   32.7340   50.2250 C   0  0  0  0  0  0  0  0  0  0  0  0
   66.1250   32.2160   50.6650 C   0  0  0  0  0  0  0  0  0  0  0  0
   67.1590   32.9130   50.4690 O   0  0  0  0  0  0  0  0  0  0  0  0
   66.2550   30.9240   51.2860 N   0  0  0  0  0  0  0  0  0  0  0  0
   67.4230   30.0940   50.9580 C   0  0  0  0  0  0  0  0  0  0  0  0
   67.4506   29.9311   49.8705 H   0  0  0  0  0  0  0  0  0  0  0  0
   68.3257   30.6212   51.3003 H   0  0  0  0  0  0  0  0  0  0  0  0
   67.3670   28.7320   51.6640 C   0  0  0  0  0  0  0  0  0  0  0  0
   68.0602   28.0368   51.1679 H   0  0  0  0  0  0  0  0  0  0  0  0
   67.6553   28.8617   52.7176 H   0  0  0  0  0  0  0  0  0  0  0  0
   65.9480   28.1620   51.6010 C   0  0  0  0  0  0  0  0  0  0  0  0
   65.6662   28.0308   50.5458 H   0  0  0  0  0  0  0  0  0  0  0  0
   65.9467   27.2030   52.1398 H   0  0  0  0  0  0  0  0  0  0  0  0
   64.9150   29.0850   52.2790 C   0  0  0  0  0  0  0  0  0  0  0  0
   63.9900   29.0672   51.6840 H   0  0  0  0  0  0  0  0  0  0  0  0
   64.7644   28.7041   53.2999 H   0  0  0  0  0  0  0  0  0  0  0  0
   65.3820   30.5460   52.4080 C   0  0  0  0  0  0  0  0  0  0  0  0
   64.5015   31.2052   52.4160 H   0  0  0  0  0  0  0  0  0  0  0  0
   65.9510   30.6496   53.3437 H   0  0  0  0  0  0  0  0  0  0  0  0
   64.4480   32.6910   48.8680 C   0  0  0  0  0  0  0  0  0  0  0  0
   65.1498   32.2771   48.1290 H   0  0  0  0  0  0  0  0  0  0  0  0
   63.2020   33.1710   48.4500 C   0  0  0  0  0  0  0  0  0  0  0  0
   62.9317   33.1373   47.3843 H   0  0  0  0  0  0  0  0  0  0  0  0
  1  2  1  0
  2  3  2  0
  3  4  1  0
  4  5  1  0
  5  6  1  0
  5  7  2  0
  7  8  1  0
  8  9  2  0
  9 10  1  0
  9 11  1  0
 11 12  1  0
 11 13  2  0
 13 14  1  0
 14 15  1  0
 15 16  2  0
 15 17  1  0
 17 18  1  0
 18 19  2  0
 19 20  1  0
  7 21  1  0
 21 22  1  0
 21 23  2  0
 23 24  1  0
 24 25  2  0
 24 26  1  0
 26 27  1  0
 26 28  1  0
 28 29  1  0
 28 30  1  0
 28 31  1  0
 31 32  2  0
 32 33  1  0
 32 34  1  0
 34 35  1  0
 34 36  2  0
 36 37  1  0
 37 38  2  0
 37 39  1  0
 39 40  1  0
 40 41  1  0
 40 42  1  0
 40 43  1  0
 43 44  1  0
 43 45  1  0
 43 46  1  0
 46 47  1  0
 46 48  1  0
 46 49  1  0
 49 50  1  0
 49 51  1  0
 49 52  1  0
 52 53  1  0
 52 54  1  0
 36 55  1  0
 55 56  1  0
 55 57  2  0
 57 58  1  0
 23  3  1  0
 57 31  1  0
 19  8  1  0
 52 39  1  0
 18 13  1  0
M  CHG  3   4  -1  14  -1  17  -1
M  END
>  <UniqueID>  (87) 
84

>  <SMILES>  (87) 
[H]/N=c1\[n-]cc(-c2ccc3[n-]c(=O)[n-]c3c2)cc1C(=O)NCc1ccc(C(=O)N2CCCCC2)cc1

>  <Energy>  (87) 
112.70740788776315

>  <Genealogy>  (87) 
N=c1[n-]cc(-c2ccc3[n-]c(=O)[n-]c3c2)cc1C(=O)NCc1ccc(C(=O)N2CCCCC2)cc1 (protonated)
[H]/N=c1\[n-]cc(-c2ccc3[n-]c(=O)[n-]c3c2)cc1C(=O)NCc1ccc(C(=O)N2CCCCC2)cc1 (cis-trans isomerization)
[H]/N=c1\[n-]cc(-c2ccc3[n-]c(=O)[n-]c3c2)cc1C(=O)NCc1ccc(C(=O)N2CCCCC2)cc1 (3D coordinates assigned)
[H]/N=c1\[n-]cc(-c2ccc3[n-]c(=O)[n-]c3c2)cc1C(=O)NCc1ccc(C(=O)N2CCCCC2)cc1 (nonaromatic ring conformer: 112.70740788776315 kcal/mol)

>  <smiles>  (87) 
N=c1[nH]cc(-c2ccc3[nH]c(=O)[nH]c3c2)cc1C(=O)NCc1ccc(C(=O)N2CCCCC2)cc1

>  <score_type>  (87) 
oracle

>  <origin>  (87) 
adg

>  <m_score__min__energy>  (87) 
-13.699999999999999

>  <m_primary>  (87) 
energy

$$$$
87:0
     RDKit          3D

 38 39  0  0  0  0  0  0  0  0999 V2000
   54.2150   29.1890   54.6990 O   0  0  0  0  0  0  0  0  0  0  0  0
   55.0770   29.5260   53.8410 C   0  0  0  0  0  0  0  0  0  0  0  0
   56.4730   29.8410   54.2820 C   0  0  0  0  0  0  0  0  0  0  0  0
   57.4910   29.1500   53.3750 C   0  0  0  0  0  0  0  0  0  0  0  0
   57.4360   29.7250   52.0280 N   0  0  0  0  0  0  0  0  0  0  0  0
   57.4270   31.4640   52.0870 S   0  0  0  0  0  0  0  0  0  0  0  0
   58.0020   31.9260   53.3980 O   0  0  0  0  0  0  0  0  0  0  0  0
   56.0120   31.9540   51.9710 O   0  0  0  0  0  0  0  0  0  0  0  0
   58.3710   32.1170   50.7500 C   0  0  0  0  0  0  0  0  0  0  0  0
   58.4880   31.3930   49.5560 C   0  0  0  0  0  0  0  0  0  0  0  0
   59.2310   31.9090   48.4900 C   0  0  0  0  0  0  0  0  0  0  0  0
   59.8590   33.1530   48.6110 C   0  0  0  0  0  0  0  0  0  0  0  0
   60.8760   33.8560   47.1560 Br  0  0  0  0  0  0  0  0  0  0  0  0
   59.7420   33.8800   49.8000 C   0  0  0  0  0  0  0  0  0  0  0  0
   58.9980   33.3660   50.8670 C   0  0  0  0  0  0  0  0  0  0  0  0
   54.7350   29.5660   52.4500 N   0  0  0  0  0  0  0  0  0  0  0  0
   53.3900   29.2300   51.9850 C   0  0  0  0  0  0  0  0  0  0  0  0
   52.5480   30.4710   51.8590 C   0  0  0  0  0  0  0  0  0  0  0  0
   52.0630   31.1160   53.0060 C   0  0  0  0  0  0  0  0  0  0  0  0
   51.2540   32.2460   52.8690 C   0  0  0  0  0  0  0  0  0  0  0  0
   50.9310   32.7080   51.6320 N   0  0  0  0  0  0  0  0  0  0  0  0
   51.3760   32.0940   50.5030 C   0  0  0  0  0  0  0  0  0  0  0  0
   51.0510   32.5490   49.3750 O   0  0  0  0  0  0  0  0  0  0  0  0
   52.1890   30.9600   50.5950 C   0  0  0  0  0  0  0  0  0  0  0  0
   56.6294   30.9290   54.2383 H   0  0  0  0  0  0  0  0  0  0  0  0
   56.6107   29.4785   55.3114 H   0  0  0  0  0  0  0  0  0  0  0  0
   58.5006   29.2887   53.7890 H   0  0  0  0  0  0  0  0  0  0  0  0
   57.2541   28.0773   53.3189 H   0  0  0  0  0  0  0  0  0  0  0  0
   57.9936   30.4154   49.4571 H   0  0  0  0  0  0  0  0  0  0  0  0
   59.3218   31.3362   47.5553 H   0  0  0  0  0  0  0  0  0  0  0  0
   60.2361   34.8581   49.8962 H   0  0  0  0  0  0  0  0  0  0  0  0
   58.9045   33.9423   51.7993 H   0  0  0  0  0  0  0  0  0  0  0  0
   55.4730   29.8340   51.7610 H   0  0  0  0  0  0  0  0  0  0  0  0
   53.4591   28.7387   51.0032 H   0  0  0  0  0  0  0  0  0  0  0  0
   52.9202   28.5553   52.7158 H   0  0  0  0  0  0  0  0  0  0  0  0
   52.3179   30.7347   54.0058 H   0  0  0  0  0  0  0  0  0  0  0  0
   50.8774   32.7632   53.7638 H   0  0  0  0  0  0  0  0  0  0  0  0
   52.5437   30.4561   49.6838 H   0  0  0  0  0  0  0  0  0  0  0  0
  1  2  2  0
  2  3  1  0
  3  4  1  0
  4  5  1  0
  5  6  1  0
  6  7  2  0
  6  8  2  0
  6  9  1  0
  9 10  2  0
 10 11  1  0
 11 12  2  0
 12 13  1  0
 12 14  1  0
 14 15  2  0
  2 16  1  0
 16 17  1  0
 17 18  1  0
 18 19  1  0
 19 20  2  0
 20 21  1  0
 21 22  1  0
 22 23  2  0
 22 24  1  0
 15  9  1  0
 24 18  2  0
  3 25  1  0
  3 26  1  0
  4 27  1  0
  4 28  1  0
 10 29  1  0
 11 30  1  0
 14 31  1  0
 15 32  1  0
 16 33  1  0
 17 34  1  0
 17 35  1  0
 19 36  1  0
 20 37  1  0
 24 38  1  0
M  CHG  2   5  -1  21  -1
M  END
>  <UniqueID>  (88) 
85

>  <SMILES>  (88) 
O=C(CC[N-]S(=O)(=O)c1ccc(Br)cc1)NCc1cc[n-]c(=O)c1

>  <Energy>  (88) 
33.11863241461452

>  <Genealogy>  (88) 
O=C(CC[N-]S(=O)(=O)c1ccc(Br)cc1)NCc1cc[n-]c(=O)c1 (protonated)
O=C(CC[N-]S(=O)(=O)c1ccc(Br)cc1)NCc1cc[n-]c(=O)c1 (3D coordinates assigned)
O=C(CC[N-]S(=O)(=O)c1ccc(Br)cc1)NCc1cc[n-]c(=O)c1 (optimized conformer: 33.11863241461452 kcal/mol)

>  <smiles>  (88) 
O=C(CCNS(=O)(=O)c1ccc(Br)cc1)NCc1cc[nH]c(=O)c1

>  <score_type>  (88) 
oracle

>  <origin>  (88) 
adg

>  <m_score__min__energy>  (88) 
-12.02

>  <m_primary>  (88) 
energy

$$$$
88:0
     RDKit          3D

 59 63  0  0  1  0  0  0  0  0999 V2000
   59.2730   35.2360   46.3920 O   0  0  0  0  0  0  0  0  0  0  0  0
   58.4990   34.2700   46.3990 C   0  0  0  0  0  0  0  0  0  0  0  0
   58.4970   33.2820   47.5370 C   0  0  0  0  0  0  0  0  0  0  0  0
   59.9180   32.7650   47.5580 C   0  0  0  0  0  0  0  0  0  0  0  0
   60.9580   33.5050   48.0640 C   0  0  0  0  0  0  0  0  0  0  0  0
   62.2510   32.9610   48.0560 C   0  0  0  0  0  0  0  0  0  0  0  0
   62.4300   31.6740   47.5290 C   0  0  0  0  0  0  0  0  0  0  0  0
   61.3580   30.9630   47.0290 C   0  0  0  0  0  0  0  0  0  0  0  0
   60.0750   31.4920   47.0320 C   0  0  0  0  0  0  0  0  0  0  0  0
   57.5840   34.0430   45.3610 N   0  0  0  0  0  0  0  0  0  0  0  0
   57.5470   32.9810   44.6630 C   0  0  0  0  0  0  0  0  0  0  0  0
   58.1240   33.0870   43.3860 C   0  0  0  0  0  0  0  0  0  0  0  0
   58.1270   31.9890   42.5600 C   0  0  0  0  0  0  0  0  0  0  0  0
   57.5730   30.8630   43.0210 N   0  0  0  0  0  0  0  0  0  0  0  0
   57.0090   30.7480   44.2540 C   0  0  0  0  0  0  0  0  0  0  0  0
   56.4660   29.4740   44.5440 N   0  0  0  0  0  0  0  0  0  0  0  0
   57.2390   28.6280   45.1370 C   0  0  0  0  0  0  0  0  0  0  0  0
   57.7920   29.0240   46.3340 C   0  0  0  0  0  0  0  0  0  0  0  0
   58.6140   28.0960   46.9600 C   0  0  0  0  0  0  0  0  0  0  0  0
   59.2580   28.4090   48.2460 C   0  0  0  0  0  0  0  0  0  0  0  0
   60.4810   27.9350   48.6170 C   0  0  0  0  0  0  0  0  0  0  0  0
   61.0120   28.3180   49.8270 C   0  0  0  0  0  0  0  0  0  0  0  0
   60.2990   29.1730   50.6430 C   0  0  0  0  0  0  0  0  0  0  0  0
   59.0700   29.6790   50.3200 C   0  0  0  0  0  0  0  0  0  0  0  0
   58.2920   30.6150   51.1120 C   0  0  0  0  0  0  0  0  0  0  0  0
   57.2180   30.1370   51.6340 O   0  0  0  0  0  0  0  0  0  0  0  0
   58.6070   31.9760   51.3450 N   0  0  0  0  0  0  0  0  0  0  0  0
   59.5780   32.9980   51.0930 C   0  0  0  0  0  0  0  0  0  0  0  0
   59.0130   33.8350   52.2310 C   0  0  0  0  0  0  0  0  0  0  0  0
   57.7910   32.9920   52.0340 C   0  0  0  0  0  0  0  0  0  0  0  0
   58.5550   29.2700   49.0820 C   0  0  0  0  0  0  0  0  0  0  0  0
   58.8540   26.8670   46.4050 C   0  0  0  0  0  0  0  0  0  0  0  0
   58.2750   26.5210   45.1980 C   0  0  0  0  0  0  0  0  0  0  0  0
   57.4790   27.4180   44.5960 N   0  0  0  0  0  0  0  0  0  0  0  0
   57.0070   31.8140   45.0580 N   0  0  0  0  0  0  0  0  0  0  0  0
   58.2444   33.7765   48.4866 H   0  0  0  0  0  0  0  0  0  0  0  0
   57.7521   32.4828   47.4092 H   0  0  0  0  0  0  0  0  0  0  0  0
   60.7796   34.5115   48.4704 H   0  0  0  0  0  0  0  0  0  0  0  0
   63.1040   33.5304   48.4536 H   0  0  0  0  0  0  0  0  0  0  0  0
   63.4348   31.2266   47.5139 H   0  0  0  0  0  0  0  0  0  0  0  0
   61.5240   29.9557   46.6194 H   0  0  0  0  0  0  0  0  0  0  0  0
   59.2198   30.9258   46.6343 H   0  0  0  0  0  0  0  0  0  0  0  0
   58.5675   34.0366   43.0521 H   0  0  0  0  0  0  0  0  0  0  0  0
   58.5699   32.0348   41.5542 H   0  0  0  0  0  0  0  0  0  0  0  0
   57.5980   30.0410   42.3550 H   0  0  0  0  0  0  0  0  0  0  0  0
   57.5947   30.0152   46.7682 H   0  0  0  0  0  0  0  0  0  0  0  0
   61.0372   27.2538   47.9563 H   0  0  0  0  0  0  0  0  0  0  0  0
   61.9979   27.9455   50.1420 H   0  0  0  0  0  0  0  0  0  0  0  0
   60.7437   29.4635   51.6062 H   0  0  0  0  0  0  0  0  0  0  0  0
   60.6178   32.6750   51.2492 H   0  0  0  0  0  0  0  0  0  0  0  0
   59.6763   33.4299   50.0861 H   0  0  0  0  0  0  0  0  0  0  0  0
   59.5178   33.7152   53.2009 H   0  0  0  0  0  0  0  0  0  0  0  0
   59.0001   34.9349   52.2290 H   0  0  0  0  0  0  0  0  0  0  0  0
   57.3315   32.6407   52.9697 H   0  0  0  0  0  0  0  0  0  0  0  0
   56.8963   33.4109   51.5502 H   0  0  0  0  0  0  0  0  0  0  0  0
   57.5692   29.6397   48.7634 H   0  0  0  0  0  0  0  0  0  0  0  0
   59.5106   26.1518   46.9220 H   0  0  0  0  0  0  0  0  0  0  0  0
   58.4619   25.5369   44.7435 H   0  0  0  0  0  0  0  0  0  0  0  0
   57.0270   27.1840   43.6810 H   0  0  0  0  0  0  0  0  0  0  0  0
  1  2  2  0
  2  3  1  0
  3  4  1  0
  4  5  2  0
  5  6  1  0
  6  7  2  0
  7  8  1  0
  8  9  2  0
  2 10  1  0
 10 11  2  0
 11 12  1  0
 12 13  2  0
 13 14  1  0
 14 15  1  0
 15 16  1  0
 16 17  2  0
 17 18  1  0
 18 19  2  0
 19 20  1  0
 20 21  2  0
 21 22  1  0
 22 23  2  0
 23 24  1  0
 24 25  1  0
 25 26  2  0
 25 27  1  0
 27 28  1  0
 28 29  1  0
 29 30  1  0
 24 31  2  0
 19 32  1  0
 32 33  2  0
 33 34  1  0
 15 35  2  0
  9  4  1  0
 35 11  1  0
 34 17  1  0
 31 20  1  0
 30 27  1  0
  3 36  1  0
  3 37  1  0
  5 38  1  0
  6 39  1  0
  7 40  1  0
  8 41  1  0
  9 42  1  0
 12 43  1  0
 13 44  1  0
 14 45  1  0
 18 46  1  0
 21 47  1  0
 22 48  1  0
 23 49  1  0
 28 50  1  0
 28 51  1  0
 29 52  1  0
 29 53  1  0
 30 54  1  0
 30 55  1  0
 31 56  1  0
 32 57  1  0
 33 58  1  0
 34 59  1  0
M  END
>  <smiles>  (89) 
O=C(Cc1ccccc1)N=c1cc[nH]c(N=c2cc(-c3cccc(C(=O)N4CCC4)c3)cc[nH]2)n1

>  <score_type>  (89) 
oracle

>  <origin>  (89) 
adg

>  <m_score__min__energy>  (89) 
-10.52

>  <m_primary>  (89) 
energy

$$$$
89:0
     RDKit          3D

 50 53  0  0  0  0  0  0  0  0999 V2000
   60.5520   27.3610   46.9020 C   0  0  0  0  0  0  0  0  0  0  0  0
   59.6410   28.3300   47.0900 C   0  0  0  0  0  0  0  0  0  0  0  0
   58.3940   28.4300   46.4530 C   0  0  0  0  0  0  0  0  0  0  0  0
   57.6960   27.5350   45.7270 C   0  0  0  0  0  0  0  0  0  0  0  0
   57.1800   26.2470   46.2210 C   0  0  0  0  0  0  0  0  0  0  0  0
   57.9380   25.2670   46.7470 N   0  0  0  0  0  0  0  0  0  0  0  0
   57.0280   24.3640   47.1740 C   0  0  0  0  0  0  0  0  0  0  0  0
   57.3540   23.2790   47.7210 O   0  0  0  0  0  0  0  0  0  0  0  0
   55.7400   24.7220   46.9780 N   0  0  0  0  0  0  0  0  0  0  0  0
   55.8560   25.9220   46.3880 C   0  0  0  0  0  0  0  0  0  0  0  0
   54.7730   26.7070   46.0130 O   0  0  0  0  0  0  0  0  0  0  0  0
   57.9190   29.6980   46.7270 C   0  0  0  0  0  0  0  0  0  0  0  0
   58.8390   30.2980   47.5580 C   0  0  0  0  0  0  0  0  0  0  0  0
   58.6840   31.6640   48.0910 C   0  0  0  0  0  0  0  0  0  0  0  0
   58.5820   31.8210   49.3380 O   0  0  0  0  0  0  0  0  0  0  0  0
   58.5990   32.8020   47.2150 N   0  0  0  0  0  0  0  0  0  0  0  0
   59.0040   34.1300   47.6940 C   0  0  0  0  0  0  0  0  0  0  0  0
   59.7910   34.8810   46.6070 C   0  0  0  0  0  0  0  0  0  0  0  0
   59.2420   34.6670   45.1800 C   0  0  0  0  0  0  0  0  0  0  0  0
   57.8610   34.0030   45.1660 C   0  0  0  0  0  0  0  0  0  0  0  0
   57.9080   32.6690   45.9210 C   0  0  0  0  0  0  0  0  0  0  0  0
   59.8810   29.4650   47.8050 N   0  0  0  0  0  0  0  0  0  0  0  0
   60.9370   29.6880   48.8120 C   0  0  0  0  0  0  0  0  0  0  0  0
   61.7110   30.9420   48.4910 C   0  0  0  0  0  0  0  0  0  0  0  0
   61.7260   31.4360   47.1740 C   0  0  0  0  0  0  0  0  0  0  0  0
   62.4050   32.6180   46.8670 C   0  0  0  0  0  0  0  0  0  0  0  0
   63.0730   33.3220   47.8720 C   0  0  0  0  0  0  0  0  0  0  0  0
   63.7300   34.4690   47.5720 F   0  0  0  0  0  0  0  0  0  0  0  0
   63.0660   32.8420   49.1820 C   0  0  0  0  0  0  0  0  0  0  0  0
   62.3910   31.6580   49.4960 C   0  0  0  0  0  0  0  0  0  0  0  0
   62.4140   31.2090   50.7750 F   0  0  0  0  0  0  0  0  0  0  0  0
   61.5008   27.3828   47.4581 H   0  0  0  0  0  0  0  0  0  0  0  0
   60.3492   26.5457   46.1920 H   0  0  0  0  0  0  0  0  0  0  0  0
   57.4943   27.7878   44.6756 H   0  0  0  0  0  0  0  0  0  0  0  0
   56.9851   30.1431   46.3532 H   0  0  0  0  0  0  0  0  0  0  0  0
   58.1062   34.7092   47.9555 H   0  0  0  0  0  0  0  0  0  0  0  0
   59.6483   34.0071   48.5771 H   0  0  0  0  0  0  0  0  0  0  0  0
   59.7561   35.9567   46.8343 H   0  0  0  0  0  0  0  0  0  0  0  0
   60.8156   34.4811   46.6193 H   0  0  0  0  0  0  0  0  0  0  0  0
   59.1662   35.6452   44.6827 H   0  0  0  0  0  0  0  0  0  0  0  0
   59.9371   33.9944   44.6562 H   0  0  0  0  0  0  0  0  0  0  0  0
   57.1323   34.6695   45.6506 H   0  0  0  0  0  0  0  0  0  0  0  0
   57.5630   33.8157   44.1238 H   0  0  0  0  0  0  0  0  0  0  0  0
   56.8790   32.3236   46.0997 H   0  0  0  0  0  0  0  0  0  0  0  0
   58.4643   31.9456   45.3068 H   0  0  0  0  0  0  0  0  0  0  0  0
   60.4753   29.7909   49.8051 H   0  0  0  0  0  0  0  0  0  0  0  0
   61.6260   28.8306   48.8034 H   0  0  0  0  0  0  0  0  0  0  0  0
   61.1990   30.8874   46.3795 H   0  0  0  0  0  0  0  0  0  0  0  0
   62.4136   32.9944   45.8335 H   0  0  0  0  0  0  0  0  0  0  0  0
   63.5937   33.3973   49.9714 H   0  0  0  0  0  0  0  0  0  0  0  0
  1  2  2  0
  2  3  1  0
  3  4  2  3
  4  5  1  0
  5  6  1  0
  6  7  1  0
  7  8  2  0
  7  9  1  0
  9 10  1  0
 10 11  1  0
  3 12  1  0
 12 13  2  0
 13 14  1  0
 14 15  2  0
 14 16  1  0
 16 17  1  0
 17 18  1  0
 18 19  1  0
 19 20  1  0
 20 21  1  0
 13 22  1  0
 22 23  1  0
 23 24  1  0
 24 25  2  0
 25 26  1  0
 26 27  2  0
 27 28  1  0
 27 29  1  0
 29 30  2  0
 30 31  1  0
 22  2  1  0
 30 24  1  0
 10  5  2  0
 21 16  1  0
  1 32  1  0
  1 33  1  0
  4 34  1  0
 12 35  1  0
 17 36  1  0
 17 37  1  0
 18 38  1  0
 18 39  1  0
 19 40  1  0
 19 41  1  0
 20 42  1  0
 20 43  1  0
 21 44  1  0
 21 45  1  0
 23 46  1  0
 23 47  1  0
 25 48  1  0
 26 49  1  0
 29 50  1  0
M  CHG  3   6  -1   9  -1  11  -1
M  END
>  <UniqueID>  (90) 
86

>  <SMILES>  (90) 
C=c1c(=Cc2[n-]c(=O)[n-]c2[O-])cc(C(=O)N2CCCCC2)n1Cc1ccc(F)cc1F

>  <Energy>  (90) 
128.8483261610255

>  <Genealogy>  (90) 
C=c1c(=Cc2[n-]c(=O)[n-]c2[O-])cc(C(=O)N2CCCCC2)n1Cc1ccc(F)cc1F (protonated)
C=c1c(=Cc2[n-]c(=O)[n-]c2[O-])cc(C(=O)N2CCCCC2)n1Cc1ccc(F)cc1F (3D coordinates assigned)
C=c1c(=Cc2[n-]c(=O)[n-]c2[O-])cc(C(=O)N2CCCCC2)n1Cc1ccc(F)cc1F (nonaromatic ring conformer: 128.8483261610255 kcal/mol)

>  <smiles>  (90) 
C=c1c(=Cc2[nH]c(=O)[nH]c2O)cc(C(=O)N2CCCCC2)n1Cc1ccc(F)cc1F

>  <score_type>  (90) 
oracle

>  <origin>  (90) 
adg

>  <m_score__min__energy>  (90) 
-16.32

>  <m_primary>  (90) 
energy

$$$$
90:0
     RDKit          3D

 51 53  0  0  0  0  0  0  0  0999 V2000
   63.9000   32.1450   48.9710 C   0  0  0  0  0  0  0  0  0  0  0  0
   64.0660   33.4670   48.2210 C   0  0  0  0  0  0  0  0  0  0  0  0
   63.5460   33.3950   46.7720 C   0  0  0  0  0  0  0  0  0  0  0  0
   62.0880   33.8600   46.6190 C   0  0  0  0  0  0  0  0  0  0  0  0
   61.1800   33.1430   47.5320 N   0  0  0  0  0  0  0  0  0  0  0  0
   60.8310   31.8500   47.2450 C   0  0  0  0  0  0  0  0  0  0  0  0
   59.9810   31.1220   48.0940 C   0  0  0  0  0  0  0  0  0  0  0  0
   59.6270   29.7170   47.7770 C   0  0  0  0  0  0  0  0  0  0  0  0
   60.1100   28.7840   48.4760 O   0  0  0  0  0  0  0  0  0  0  0  0
   58.7760   29.4020   46.6640 N   0  0  0  0  0  0  0  0  0  0  0  0
   58.1640   28.1120   46.4900 C   0  0  0  0  0  0  0  0  0  0  0  0
   58.6590   27.0090   47.2070 C   0  0  0  0  0  0  0  0  0  0  0  0
   58.0240   25.7680   47.1300 C   0  0  0  0  0  0  0  0  0  0  0  0
   56.8810   25.6150   46.3480 C   0  0  0  0  0  0  0  0  0  0  0  0
   56.3730   26.7000   45.6310 C   0  0  0  0  0  0  0  0  0  0  0  0
   57.0070   27.9550   45.6830 C   0  0  0  0  0  0  0  0  0  0  0  0
   56.4670   29.0620   44.8590 C   0  0  0  0  0  0  0  0  0  0  0  0
   55.2290   29.3100   44.8570 O   0  0  0  0  0  0  0  0  0  0  0  0
   57.3560   29.8750   44.0830 N   0  0  0  0  0  0  0  0  0  0  0  0
   57.0360   31.2300   43.6500 C   0  0  0  0  0  0  0  0  0  0  0  0
   57.4110   32.2140   44.7120 C   0  0  0  0  0  0  0  0  0  0  0  0
   57.7460   33.5360   44.5030 C   0  0  0  0  0  0  0  0  0  0  0  0
   57.9810   34.0600   45.7560 C   0  0  0  0  0  0  0  0  0  0  0  0
   57.7730   33.0270   46.6480 C   0  0  0  0  0  0  0  0  0  0  0  0
   57.4310   31.9400   45.9950 O   0  0  0  0  0  0  0  0  0  0  0  0
   59.5030   31.7470   49.2540 C   0  0  0  0  0  0  0  0  0  0  0  0
   59.8580   33.0630   49.5360 C   0  0  0  0  0  0  0  0  0  0  0  0
   60.6990   33.7560   48.6630 C   0  0  0  0  0  0  0  0  0  0  0  0
   61.0100   34.9490   48.9300 O   0  0  0  0  0  0  0  0  0  0  0  0
   63.9236   32.3327   50.0546 H   0  0  0  0  0  0  0  0  0  0  0  0
   62.9374   31.6875   48.6990 H   0  0  0  0  0  0  0  0  0  0  0  0
   64.7196   31.4637   48.6990 H   0  0  0  0  0  0  0  0  0  0  0  0
   63.5081   34.2488   48.7572 H   0  0  0  0  0  0  0  0  0  0  0  0
   65.1416   33.6934   48.1784 H   0  0  0  0  0  0  0  0  0  0  0  0
   64.1828   34.0330   46.1416 H   0  0  0  0  0  0  0  0  0  0  0  0
   63.5820   32.3385   46.4677 H   0  0  0  0  0  0  0  0  0  0  0  0
   62.0340   34.9367   46.8379 H   0  0  0  0  0  0  0  0  0  0  0  0
   61.7703   33.6466   45.5877 H   0  0  0  0  0  0  0  0  0  0  0  0
   61.2230   31.3736   46.3343 H   0  0  0  0  0  0  0  0  0  0  0  0
   58.6410   30.1170   45.9140 H   0  0  0  0  0  0  0  0  0  0  0  0
   59.5550   27.1246   47.8346 H   0  0  0  0  0  0  0  0  0  0  0  0
   58.4267   24.9096   47.6876 H   0  0  0  0  0  0  0  0  0  0  0  0
   56.3782   24.6381   46.2954 H   0  0  0  0  0  0  0  0  0  0  0  0
   55.4678   26.5724   45.0192 H   0  0  0  0  0  0  0  0  0  0  0  0
   57.5936   31.4585   42.7297 H   0  0  0  0  0  0  0  0  0  0  0  0
   55.9546   31.3004   43.4613 H   0  0  0  0  0  0  0  0  0  0  0  0
   57.8117   34.0615   43.5389 H   0  0  0  0  0  0  0  0  0  0  0  0
   58.2748   35.0924   45.9966 H   0  0  0  0  0  0  0  0  0  0  0  0
   57.8778   33.1029   47.7404 H   0  0  0  0  0  0  0  0  0  0  0  0
   58.8458   31.1962   49.9430 H   0  0  0  0  0  0  0  0  0  0  0  0
   59.4775   33.5552   50.4432 H   0  0  0  0  0  0  0  0  0  0  0  0
  1  2  1  0
  2  3  1  0
  3  4  1  0
  4  5  1  0
  5  6  1  0
  6  7  2  0
  7  8  1  0
  8  9  2  0
  8 10  1  0
 10 11  1  0
 11 12  2  0
 12 13  1  0
 13 14  2  0
 14 15  1  0
 15 16  2  0
 16 17  1  0
 17 18  2  0
 17 19  1  0
 19 20  1  0
 20 21  1  0
 21 22  2  0
 22 23  1  0
 23 24  2  0
 24 25  1  0
  7 26  1  0
 26 27  2  0
 27 28  1  0
 28 29  2  0
 28  5  1  0
 16 11  1  0
 25 21  1  0
  1 30  1  0
  1 31  1  0
  1 32  1  0
  2 33  1  0
  2 34  1  0
  3 35  1  0
  3 36  1  0
  4 37  1  0
  4 38  1  0
  6 39  1  0
 10 40  1  0
 12 41  1  0
 13 42  1  0
 14 43  1  0
 15 44  1  0
 20 45  1  0
 20 46  1  0
 22 47  1  0
 23 48  1  0
 24 49  1  0
 26 50  1  0
 27 51  1  0
M  CHG  1  19  -1
M  END
>  <UniqueID>  (91) 
87

>  <SMILES>  (91) 
CCCCn1cc(C(=O)Nc2ccccc2C(=O)[N-]Cc2ccco2)ccc1=O

>  <Energy>  (91) 
83.25872485943584

>  <Genealogy>  (91) 
CCCCn1cc(C(=O)Nc2ccccc2C(=O)[N-]Cc2ccco2)ccc1=O (protonated)
CCCCn1cc(C(=O)Nc2ccccc2C(=O)[N-]Cc2ccco2)ccc1=O (3D coordinates assigned)
CCCCn1cc(C(=O)Nc2ccccc2C(=O)[N-]Cc2ccco2)ccc1=O (optimized conformer: 83.25872485943584 kcal/mol)

>  <smiles>  (91) 
CCCCn1cc(C(=O)Nc2ccccc2C(=O)NCc2ccco2)ccc1=O

>  <score_type>  (91) 
oracle

>  <origin>  (91) 
adg

>  <m_score__min__energy>  (91) 
-10.23

>  <m_primary>  (91) 
energy

$$$$
91:0
     RDKit          3D

 52 54  0  0  0  0  0  0  0  0999 V2000
   56.6490   21.1190   43.5530 C   0  0  0  0  0  0  0  0  0  0  0  0
   55.9090   21.5020   44.5940 C   0  0  0  0  0  0  0  0  0  0  0  0
   55.8020   22.9090   45.0540 C   0  0  0  0  0  0  0  0  0  0  0  0
   56.9790   23.6310   45.2870 C   0  0  0  0  0  0  0  0  0  0  0  0
   56.9420   24.9340   45.6990 N   0  0  0  0  0  0  0  0  0  0  0  0
   58.2170   25.6450   45.9290 C   0  0  2  0  0  0  0  0  0  0  0  0
   58.2570   26.2690   47.3100 C   0  0  0  0  0  0  0  0  0  0  0  0
   59.1810   27.4380   47.1200 C   0  0  1  0  0  0  0  0  0  0  0  0
   60.4840   27.0760   47.5000 O   0  0  0  0  0  0  0  0  0  0  0  0
   59.1160   27.7070   45.6060 C   0  0  2  0  0  0  0  0  0  0  0  0
   58.4320   29.0150   45.3080 C   0  0  0  0  0  0  0  0  0  0  0  0
   57.4690   29.1040   44.3820 C   0  0  0  0  0  0  0  0  0  0  0  0
   56.2500   29.9130   44.5900 C   0  0  0  0  0  0  0  0  0  0  0  0
   55.1490   29.3450   44.8180 O   0  0  0  0  0  0  0  0  0  0  0  0
   56.2850   31.3440   44.5490 N   0  0  0  0  0  0  0  0  0  0  0  0
   57.3940   32.1350   44.0350 C   0  0  0  0  0  0  0  0  0  0  0  0
   58.0610   32.8540   45.1740 C   0  0  0  0  0  0  0  0  0  0  0  0
   58.6950   34.0840   44.9540 C   0  0  0  0  0  0  0  0  0  0  0  0
   59.2710   34.7790   46.0180 C   0  0  0  0  0  0  0  0  0  0  0  0
   59.2120   34.2560   47.3170 C   0  0  0  0  0  0  0  0  0  0  0  0
   59.7800   34.9540   48.3820 O   0  0  0  0  0  0  0  0  0  0  0  0
   58.5760   33.0300   47.5530 C   0  0  0  0  0  0  0  0  0  0  0  0
   58.5360   32.5400   48.8680 O   0  0  0  0  0  0  0  0  0  0  0  0
   58.9090   31.2180   49.2490 C   0  0  0  0  0  0  0  0  0  0  0  0
   57.9950   32.3330   46.4740 C   0  0  0  0  0  0  0  0  0  0  0  0
   58.4060   26.6620   44.9720 O   0  0  0  0  0  0  0  0  0  0  0  0
   55.7260   25.5300   45.9370 C   0  0  0  0  0  0  0  0  0  0  0  0
   55.6560   26.7200   46.3430 O   0  0  0  0  0  0  0  0  0  0  0  0
   54.5740   24.8380   45.7440 N   0  0  0  0  0  0  0  0  0  0  0  0
   54.5790   23.5520   45.3170 C   0  0  0  0  0  0  0  0  0  0  0  0
   53.4790   22.9480   45.1930 O   0  0  0  0  0  0  0  0  0  0  0  0
   56.6847   20.0582   43.2642 H   0  0  0  0  0  0  0  0  0  0  0  0
   57.2238   21.8638   42.9831 H   0  0  0  0  0  0  0  0  0  0  0  0
   55.3464   20.7321   45.1425 H   0  0  0  0  0  0  0  0  0  0  0  0
   57.9518   23.1404   45.1356 H   0  0  0  0  0  0  0  0  0  0  0  0
   59.0205   24.8988   45.8418 H   0  0  0  0  0  0  0  0  0  0  0  0
   57.2565   26.6016   47.6237 H   0  0  0  0  0  0  0  0  0  0  0  0
   58.5910   25.5725   48.0932 H   0  0  0  0  0  0  0  0  0  0  0  0
   58.9049   28.3180   47.7195 H   0  0  0  0  0  0  0  0  0  0  0  0
   60.9590   26.8200   46.6670 H   0  0  0  0  0  0  0  0  0  0  0  0
   60.1469   27.7582   45.2257 H   0  0  0  0  0  0  0  0  0  0  0  0
   58.7299   29.9168   45.8630 H   0  0  0  0  0  0  0  0  0  0  0  0
   57.5892   28.5569   43.4353 H   0  0  0  0  0  0  0  0  0  0  0  0
   58.1210   31.4723   43.5427 H   0  0  0  0  0  0  0  0  0  0  0  0
   57.0173   32.8681   43.3065 H   0  0  0  0  0  0  0  0  0  0  0  0
   58.7388   34.5035   43.9381 H   0  0  0  0  0  0  0  0  0  0  0  0
   59.7732   35.7407   45.8367 H   0  0  0  0  0  0  0  0  0  0  0  0
   59.7120   34.6140   49.3360 H   0  0  0  0  0  0  0  0  0  0  0  0
   58.9297   31.1447   50.3464 H   0  0  0  0  0  0  0  0  0  0  0  0
   58.1782   30.5007   48.8473 H   0  0  0  0  0  0  0  0  0  0  0  0
   59.9070   30.9884   48.8473 H   0  0  0  0  0  0  0  0  0  0  0  0
   57.4866   31.3742   46.6532 H   0  0  0  0  0  0  0  0  0  0  0  0
  1  2  2  0
  2  3  1  0
  3  4  2  0
  4  5  1  0
  5  6  1  0
  6  7  1  0
  7  8  1  0
  8  9  1  0
  8 10  1  0
 10 11  1  0
 11 12  2  3
 12 13  1  0
 13 14  2  0
 13 15  1  0
 15 16  1  0
 16 17  1  0
 17 18  2  0
 18 19  1  0
 19 20  2  0
 20 21  1  0
 20 22  1  0
 22 23  1  0
 23 24  1  0
 22 25  2  0
 10 26  1  0
  5 27  1  0
 27 28  2  0
 27 29  1  0
 29 30  1  0
 30 31  2  0
 30  3  1  0
 26  6  1  0
 25 17  1  0
  1 32  1  0
  1 33  1  0
  2 34  1  0
  4 35  1  0
  6 36  1  1
  7 37  1  0
  7 38  1  0
  8 39  1  1
  9 40  1  0
 10 41  1  6
 11 42  1  0
 12 43  1  0
 16 44  1  0
 16 45  1  0
 18 46  1  0
 19 47  1  0
 21 48  1  0
 24 49  1  0
 24 50  1  0
 24 51  1  0
 25 52  1  0
M  CHG  2  15  -1  29  -1
M  END
>  <UniqueID>  (92) 
88

>  <SMILES>  (92) 
C=Cc1cn([C@@H]2C[C@@H](O)C(C=CC(=O)[N-]Cc3ccc(O)c(OC)c3)O2)c(=O)[n-]c1=O

>  <Energy>  (92) 
57.069125926482116

>  <Genealogy>  (92) 
C=Cc1cn(C2CC(O)C(C=CC(=O)[N-]Cc3ccc(O)c(OC)c3)O2)c(=O)[n-]c1=O (protonated)
C=Cc1cn([C@@H]2C[C@@H](O)C(C=CC(=O)[N-]Cc3ccc(O)c(OC)c3)O2)c(=O)[n-]c1=O (chirality)
C=Cc1cn([C@@H]2C[C@@H](O)C(C=CC(=O)[N-]Cc3ccc(O)c(OC)c3)O2)c(=O)[n-]c1=O (3D coordinates assigned)
C=Cc1cn([C@@H]2C[C@@H](O)C(C=CC(=O)[N-]Cc3ccc(O)c(OC)c3)O2)c(=O)[n-]c1=O (nonaromatic ring conformer: 57.069125926482116 kcal/mol)

>  <smiles>  (92) 
C=Cc1cn(C2CC(O)C(C=CC(=O)NCc3ccc(O)c(OC)c3)O2)c(=O)[nH]c1=O

>  <score_type>  (92) 
oracle

>  <origin>  (92) 
adg

>  <m_score__min__energy>  (92) 
-11.83

>  <m_primary>  (92) 
energy

$$$$
92:0
     RDKit          3D

 65 68  0  0  0  0  0  0  0  0999 V2000
   59.6337   27.7500   44.5749 H   0  0  0  0  0  0  0  0  0  0  0  0
   58.6820   27.2890   44.8780 C   0  0  0  0  0  0  0  0  0  0  0  0
   58.5340   25.9390   44.8430 N   0  0  0  0  0  0  0  0  0  0  0  0
   57.3710   25.3410   45.2080 C   0  0  0  0  0  0  0  0  0  0  0  0
   57.2741   24.2459   45.1705 H   0  0  0  0  0  0  0  0  0  0  0  0
   56.2900   26.1360   45.6350 C   0  0  0  0  0  0  0  0  0  0  0  0
   55.1460   25.6330   46.0050 N   0  0  0  0  0  0  0  0  0  0  0  0
   54.3450   24.6370   45.2870 C   0  0  0  0  0  0  0  0  0  0  0  0
   53.6020   24.2072   45.9749 H   0  0  0  0  0  0  0  0  0  0  0  0
   53.8425   25.1301   44.4418 H   0  0  0  0  0  0  0  0  0  0  0  0
   55.2250   23.5280   44.7500 C   0  0  0  0  0  0  0  0  0  0  0  0
   55.4870   23.4810   43.3660 C   0  0  0  0  0  0  0  0  0  0  0  0
   55.0498   24.2425   42.7034 H   0  0  0  0  0  0  0  0  0  0  0  0
   56.2950   22.4790   42.8270 C   0  0  0  0  0  0  0  0  0  0  0  0
   56.4791   22.4455   41.7430 H   0  0  0  0  0  0  0  0  0  0  0  0
   56.8700   21.5190   43.6620 C   0  0  0  0  0  0  0  0  0  0  0  0
   57.5021   20.7262   43.2355 H   0  0  0  0  0  0  0  0  0  0  0  0
   56.6420   21.5660   45.0390 C   0  0  0  0  0  0  0  0  0  0  0  0
   57.1031   20.8124   45.6943 H   0  0  0  0  0  0  0  0  0  0  0  0
   55.8300   22.5660   45.5930 C   0  0  0  0  0  0  0  0  0  0  0  0
   55.6150   22.5730   47.3410 Cl  0  0  0  0  0  0  0  0  0  0  0  0
   56.4490   27.4840   45.6690 N   0  0  0  0  0  0  0  0  0  0  0  0
   57.6110   28.0920   45.3040 C   0  0  0  0  0  0  0  0  0  0  0  0
   57.7310   29.5670   45.4230 C   0  0  0  0  0  0  0  0  0  0  0  0
   58.4520   30.1720   46.4700 C   0  0  0  0  0  0  0  0  0  0  0  0
   58.9664   29.5461   47.2141 H   0  0  0  0  0  0  0  0  0  0  0  0
   58.5150   31.5260   46.5650 N   0  0  0  0  0  0  0  0  0  0  0  0
   57.9020   32.3450   45.6630 C   0  0  0  0  0  0  0  0  0  0  0  0
   57.9610   33.6390   45.7820 N   0  0  0  0  0  0  0  0  0  0  0  0
   58.9260   34.3730   46.6060 C   0  0  0  0  0  0  0  0  0  0  0  0
   58.6649   35.4401   46.6613 H   0  0  0  0  0  0  0  0  0  0  0  0
   58.8910   33.8330   48.0530 C   0  0  0  0  0  0  0  0  0  0  0  0
   58.7863   32.7385   48.0203 H   0  0  0  0  0  0  0  0  0  0  0  0
   58.0392   34.3012   48.5679 H   0  0  0  0  0  0  0  0  0  0  0  0
   60.1660   34.1850   48.8340 C   0  0  0  0  0  0  0  0  0  0  0  0
   60.1403   33.6728   49.8071 H   0  0  0  0  0  0  0  0  0  0  0  0
   60.1976   35.2770   48.9627 H   0  0  0  0  0  0  0  0  0  0  0  0
   61.3810   33.7740   48.1110 N   0  0  0  0  0  0  0  0  0  0  0  0
   62.6620   33.7370   48.7810 C   0  0  0  0  0  0  0  0  0  0  0  0
   63.6520   33.2050   48.2070 O   0  0  0  0  0  0  0  0  0  0  0  0
   62.8300   34.3060   50.0920 N   0  0  0  0  0  0  0  0  0  0  0  0
   62.0570   34.8570   50.5280 H   0  0  0  0  0  0  0  0  0  0  0  0
   64.0960   34.2300   50.8220 C   0  0  0  0  0  0  0  0  0  0  0  0
   63.9756   34.7239   51.7975 H   0  0  0  0  0  0  0  0  0  0  0  0
   64.8698   34.7298   50.2209 H   0  0  0  0  0  0  0  0  0  0  0  0
   64.5320   32.7730   51.0510 C   0  0  0  0  0  0  0  0  0  0  0  0
   63.6785   32.1159   50.8280 H   0  0  0  0  0  0  0  0  0  0  0  0
   64.8584   32.6959   52.0986 H   0  0  0  0  0  0  0  0  0  0  0  0
   65.7200   32.3390   50.1770 C   0  0  0  0  0  0  0  0  0  0  0  0
   65.4552   32.4954   49.1209 H   0  0  0  0  0  0  0  0  0  0  0  0
   65.9218   31.2797   50.3940 H   0  0  0  0  0  0  0  0  0  0  0  0
   66.9960   33.1230   50.4820 C   0  0  0  0  0  0  0  0  0  0  0  0
   67.1258   33.2027   51.5714 H   0  0  0  0  0  0  0  0  0  0  0  0
   67.8605   32.6000   50.0471 H   0  0  0  0  0  0  0  0  0  0  0  0
   66.9201   34.1305   50.0471 H   0  0  0  0  0  0  0  0  0  0  0  0
   61.2700   33.3390   46.7100 C   0  0  0  0  0  0  0  0  0  0  0  0
   60.8733   32.3136   46.6758 H   0  0  0  0  0  0  0  0  0  0  0  0
   62.2642   33.3662   46.2401 H   0  0  0  0  0  0  0  0  0  0  0  0
   60.3260   34.2750   45.9530 C   0  0  0  0  0  0  0  0  0  0  0  0
   60.2089   33.9001   44.9255 H   0  0  0  0  0  0  0  0  0  0  0  0
   60.7713   35.2806   45.9726 H   0  0  0  0  0  0  0  0  0  0  0  0
   57.1840   31.7870   44.6020 C   0  0  0  0  0  0  0  0  0  0  0  0
   56.6867   32.4366   43.8666 H   0  0  0  0  0  0  0  0  0  0  0  0
   57.1030   30.3990   44.4830 C   0  0  0  0  0  0  0  0  0  0  0  0
   56.5434   29.9540   43.6471 H   0  0  0  0  0  0  0  0  0  0  0  0
  1  2  1  0
  2  3  1  0
  3  4  2  0
  4  5  1  0
  4  6  1  0
  6  7  2  3
  7  8  1  0
  8  9  1  0
  8 10  1  0
  8 11  1  0
 11 12  2  0
 12 13  1  0
 12 14  1  0
 14 15  1  0
 14 16  2  0
 16 17  1  0
 16 18  1  0
 18 19  1  0
 18 20  2  0
 20 21  1  0
  6 22  1  0
 22 23  1  0
 23 24  1  0
 24 25  2  0
 25 26  1  0
 25 27  1  0
 27 28  1  0
 28 29  2  0
 29 30  1  0
 30 31  1  0
 30 32  1  0
 32 33  1  0
 32 34  1  0
 32 35  1  0
 35 36  1  0
 35 37  1  0
 35 38  1  0
 38 39  1  0
 39 40  2  0
 39 41  1  0
 41 42  1  0
 41 43  1  0
 43 44  1  0
 43 45  1  0
 43 46  1  0
 46 47  1  0
 46 48  1  0
 46 49  1  0
 49 50  1  0
 49 51  1  0
 49 52  1  0
 52 53  1  0
 52 54  1  0
 52 55  1  0
 38 56  1  0
 56 57  1  0
 56 58  1  0
 56 59  1  0
 59 60  1  0
 59 61  1  0
 28 62  1  0
 62 63  1  0
 62 64  2  0
 64 65  1  0
 23  2  2  0
 64 24  1  0
 20 11  1  0
 59 30  1  0
M  CHG  2  22  -1  27  -1
M  END
>  <UniqueID>  (93) 
89

>  <SMILES>  (93) 
CCCCNC(=O)N1CCC(/N=c2/ccc(-c3cncc(=NCc4ccccc4Cl)[n-]3)c[n-]2)CC1

>  <Energy>  (93) 
72.99318995015639

>  <Genealogy>  (93) 
CCCCNC(=O)N1CCC(N=c2ccc(-c3cncc(=NCc4ccccc4Cl)[n-]3)c[n-]2)CC1 (protonated)
CCCCNC(=O)N1CCC(/N=c2/ccc(-c3cncc(=NCc4ccccc4Cl)[n-]3)c[n-]2)CC1 (cis-trans isomerization)
CCCCNC(=O)N1CCC(/N=c2/ccc(-c3cncc(=NCc4ccccc4Cl)[n-]3)c[n-]2)CC1 (3D coordinates assigned)
CCCCNC(=O)N1CCC(/N=c2/ccc(-c3cncc(=NCc4ccccc4Cl)[n-]3)c[n-]2)CC1 (nonaromatic ring conformer: 72.99318995015639 kcal/mol)

>  <smiles>  (93) 
CCCCNC(=O)N1CCC(N=c2ccc(-c3cncc(=NCc4ccccc4Cl)[nH]3)c[nH]2)CC1

>  <score_type>  (93) 
oracle

>  <origin>  (93) 
adg

>  <m_score__min__energy>  (93) 
-12.699999999999999

>  <m_primary>  (93) 
energy

$$$$
93:0
     RDKit          3D

 28 29  0  0  0  0  0  0  0  0999 V2000
   54.3650   26.7300   46.7320 H   0  0  0  0  0  0  0  0  0  0  0  0
   55.0750   26.5490   46.0330 O   0  0  0  0  0  0  0  0  0  0  0  0
   56.0380   25.5670   46.2400 C   0  0  0  0  0  0  0  0  0  0  0  0
   55.9000   24.5500   47.1080 N   0  0  0  0  0  0  0  0  0  0  0  0
   57.0720   23.8900   46.9800 C   0  0  0  0  0  0  0  0  0  0  0  0
   57.3430   22.8570   47.6440 O   0  0  0  0  0  0  0  0  0  0  0  0
   57.9320   24.4320   46.0910 N   0  0  0  0  0  0  0  0  0  0  0  0
   57.2540   25.4890   45.6060 C   0  0  0  0  0  0  0  0  0  0  0  0
   57.8060   26.4900   44.6720 C   0  0  0  0  0  0  0  0  0  0  0  0
   58.3801   26.1090   43.8145 H   0  0  0  0  0  0  0  0  0  0  0  0
   57.6710   27.8370   44.7730 C   0  0  0  0  0  0  0  0  0  0  0  0
   57.3730   28.5420   43.5890 C   0  0  0  0  0  0  0  0  0  0  0  0
   57.4179   28.0172   42.6233 H   0  0  0  0  0  0  0  0  0  0  0  0
   57.0210   29.8970   43.6180 C   0  0  0  0  0  0  0  0  0  0  0  0
   56.6740   30.6170   42.3390 C   0  0  0  0  0  0  0  0  0  0  0  0
   56.8162   29.9327   41.4896 H   0  0  0  0  0  0  0  0  0  0  0  0
   55.6260   30.9470   42.3925 H   0  0  0  0  0  0  0  0  0  0  0  0
   57.5640   31.8410   42.1500 C   0  0  0  0  0  0  0  0  0  0  0  0
   57.8536   32.2392   43.1337 H   0  0  0  0  0  0  0  0  0  0  0  0
   58.4666   31.5551   41.5900 H   0  0  0  0  0  0  0  0  0  0  0  0
   57.0138   32.6115   41.5900 H   0  0  0  0  0  0  0  0  0  0  0  0
   57.0330   30.5650   44.8480 C   0  0  0  0  0  0  0  0  0  0  0  0
   56.6800   31.9070   44.9320 O   0  0  0  0  0  0  0  0  0  0  0  0
   57.4210   29.9110   45.9690 N   0  0  0  0  0  0  0  0  0  0  0  0
   57.7800   28.5970   45.9800 C   0  0  0  0  0  0  0  0  0  0  0  0
   58.3460   28.1390   47.1040 C   0  0  0  0  0  0  0  0  0  0  0  0
   58.6575   27.0863   47.1735 H   0  0  0  0  0  0  0  0  0  0  0  0
   58.4994   28.8155   47.9577 H   0  0  0  0  0  0  0  0  0  0  0  0
  1  2  1  0
  2  3  1  0
  3  4  1  0
  4  5  1  0
  5  6  2  0
  5  7  1  0
  7  8  1  0
  8  9  1  0
  9 10  1  0
  9 11  2  0
 11 12  1  0
 12 13  1  0
 12 14  2  0
 14 15  1  0
 15 16  1  0
 15 17  1  0
 15 18  1  0
 18 19  1  0
 18 20  1  0
 18 21  1  0
 14 22  1  0
 22 23  1  0
 22 24  2  0
 24 25  1  0
 25 26  2  0
 26 27  1  0
 26 28  1  0
  8  3  2  0
 25 11  1  0
M  CHG  3   4  -1   7  -1  23  -1
M  END
>  <UniqueID>  (94) 
90

>  <SMILES>  (94) 
C=c1nc([O-])c(CC)c/c1=C/c1[n-]c(=O)[n-]c1O

>  <Energy>  (94) 
73.70078846228921

>  <Genealogy>  (94) 
C=c1nc([O-])c(CC)cc1=Cc1[n-]c(=O)[n-]c1O (protonated)
C=c1nc([O-])c(CC)c/c1=C/c1[n-]c(=O)[n-]c1O (cis-trans isomerization)
C=c1nc([O-])c(CC)c/c1=C/c1[n-]c(=O)[n-]c1O (3D coordinates assigned)
C=c1nc([O-])c(CC)c/c1=C/c1[n-]c(=O)[n-]c1O (optimized conformer: 73.70078846228921 kcal/mol)

>  <smiles>  (94) 
C=c1nc(O)c(CC)cc1=Cc1[nH]c(=O)[nH]c1O

>  <score_type>  (94) 
oracle

>  <origin>  (94) 
adg

>  <m_score__min__energy>  (94) 
-12.470000000000001

>  <m_primary>  (94) 
energy

$$$$
94:0
     RDKit          3D

 56 58  0  0  0  0  0  0  0  0999 V2000
   56.7280   22.6830   46.6420 C   0  0  0  0  0  0  0  0  0  0  0  0
   57.5010   23.9440   46.4020 C   0  0  0  0  0  0  0  0  0  0  0  0
   58.8460   23.9630   46.4010 N   0  0  0  0  0  0  0  0  0  0  0  0
   59.1990   25.2320   46.1270 C   0  0  0  0  0  0  0  0  0  0  0  0
   60.6300   25.6610   46.0210 C   0  0  0  0  0  0  0  0  0  0  0  0
   58.0830   26.0420   45.9650 C   0  0  0  0  0  0  0  0  0  0  0  0
   58.1400   27.7680   45.5460 S   0  0  0  0  0  0  0  0  0  0  0  0
   59.5340   28.1120   45.1010 O   0  0  0  0  0  0  0  0  0  0  0  0
   57.8210   28.6380   46.7270 O   0  0  0  0  0  0  0  0  0  0  0  0
   57.0480   28.1100   44.2360 N   0  0  0  0  0  0  0  0  0  0  0  0
   57.4120   29.3740   43.5960 C   0  0  0  0  0  0  0  0  0  0  0  0
   56.5920   30.4950   44.1730 C   0  0  0  0  0  0  0  0  0  0  0  0
   55.5500   30.2370   44.7590 O   0  0  0  0  0  0  0  0  0  0  0  0
   57.0410   31.9260   44.0410 C   0  0  0  0  0  0  0  0  0  0  0  0
   57.8580   32.3400   45.2370 C   0  0  0  0  0  0  0  0  0  0  0  0
   58.4800   31.3740   46.0460 C   0  0  0  0  0  0  0  0  0  0  0  0
   59.2040   31.7610   47.1770 C   0  0  0  0  0  0  0  0  0  0  0  0
   59.3140   33.1170   47.5150 C   0  0  0  0  0  0  0  0  0  0  0  0
   60.1790   33.6230   48.9640 S   0  0  0  0  0  0  0  0  0  0  0  0
   59.9130   32.6240   50.0560 O   0  0  0  0  0  0  0  0  0  0  0  0
   59.6950   34.9730   49.4160 O   0  0  0  0  0  0  0  0  0  0  0  0
   61.8890   33.6810   48.6210 N   0  0  0  0  0  0  0  0  0  0  0  0
   62.6150   32.7370   49.4910 C   0  0  0  0  0  0  0  0  0  0  0  0
   64.0570   32.5210   48.9880 C   0  0  0  0  0  0  0  0  0  0  0  0
   64.4320   33.5420   48.0840 O   0  0  0  0  0  0  0  0  0  0  0  0
   63.6450   33.4580   46.9060 C   0  0  0  0  0  0  0  0  0  0  0  0
   62.1340   33.3630   47.2070 C   0  0  0  0  0  0  0  0  0  0  0  0
   58.6890   34.0820   46.7130 C   0  0  0  0  0  0  0  0  0  0  0  0
   57.9640   33.6970   45.5830 C   0  0  0  0  0  0  0  0  0  0  0  0
   56.9740   25.2050   46.1290 C   0  0  0  0  0  0  0  0  0  0  0  0
   55.5310   25.5320   46.0010 C   0  0  0  0  0  0  0  0  0  0  0  0
   55.1410   26.7240   45.9220 O   0  0  0  0  0  0  0  0  0  0  0  0
   54.5790   24.5200   45.9640 O   0  0  0  0  0  0  0  0  0  0  0  0
   56.6257   22.5161   47.7244 H   0  0  0  0  0  0  0  0  0  0  0  0
   55.7297   22.7730   46.1889 H   0  0  0  0  0  0  0  0  0  0  0  0
   57.2612   21.8342   46.1889 H   0  0  0  0  0  0  0  0  0  0  0  0
   61.0506   25.7871   47.0295 H   0  0  0  0  0  0  0  0  0  0  0  0
   61.2031   24.8952   45.4778 H   0  0  0  0  0  0  0  0  0  0  0  0
   60.6873   26.6158   45.4778 H   0  0  0  0  0  0  0  0  0  0  0  0
   56.1030   28.2260   44.6680 H   0  0  0  0  0  0  0  0  0  0  0  0
   58.4793   29.5763   43.7691 H   0  0  0  0  0  0  0  0  0  0  0  0
   57.2175   29.3020   42.5157 H   0  0  0  0  0  0  0  0  0  0  0  0
   57.6523   32.0303   43.1325 H   0  0  0  0  0  0  0  0  0  0  0  0
   56.1523   32.5713   43.9792 H   0  0  0  0  0  0  0  0  0  0  0  0
   58.3966   30.3080   45.7878 H   0  0  0  0  0  0  0  0  0  0  0  0
   59.6893   30.9988   47.8043 H   0  0  0  0  0  0  0  0  0  0  0  0
   62.6472   33.1416   50.5134 H   0  0  0  0  0  0  0  0  0  0  0  0
   62.0896   31.7707   49.4761 H   0  0  0  0  0  0  0  0  0  0  0  0
   64.7438   32.5300   49.8472 H   0  0  0  0  0  0  0  0  0  0  0  0
   64.1075   31.5533   48.4675 H   0  0  0  0  0  0  0  0  0  0  0  0
   63.8270   34.3551   46.2960 H   0  0  0  0  0  0  0  0  0  0  0  0
   63.9372   32.5401   46.3749 H   0  0  0  0  0  0  0  0  0  0  0  0
   61.5892   34.0771   46.5720 H   0  0  0  0  0  0  0  0  0  0  0  0
   61.7847   32.3411   46.9979 H   0  0  0  0  0  0  0  0  0  0  0  0
   58.7699   35.1473   46.9748 H   0  0  0  0  0  0  0  0  0  0  0  0
   57.4737   34.4603   44.9610 H   0  0  0  0  0  0  0  0  0  0  0  0
  1  2  1  0
  2  3  1  0
  3  4  1  0
  4  5  1  0
  4  6  2  0
  6  7  1  0
  7  8  2  0
  7  9  2  0
  7 10  1  0
 10 11  1  0
 11 12  1  0
 12 13  2  0
 12 14  1  0
 14 15  1  0
 15 16  2  0
 16 17  1  0
 17 18  2  0
 18 19  1  0
 19 20  2  0
 19 21  2  0
 19 22  1  0
 22 23  1  0
 23 24  1  0
 24 25  1  0
 25 26  1  0
 26 27  1  0
 18 28  1  0
 28 29  2  0
  6 30  1  0
 30 31  1  0
 31 32  2  0
 31 33  1  0
 30  2  2  0
 29 15  1  0
 27 22  1  0
  1 34  1  0
  1 35  1  0
  1 36  1  0
  5 37  1  0
  5 38  1  0
  5 39  1  0
 10 40  1  0
 11 41  1  0
 11 42  1  0
 14 43  1  0
 14 44  1  0
 16 45  1  0
 17 46  1  0
 23 47  1  0
 23 48  1  0
 24 49  1  0
 24 50  1  0
 26 51  1  0
 26 52  1  0
 27 53  1  0
 27 54  1  0
 28 55  1  0
 29 56  1  0
M  CHG  2   3  -1  33  -1
M  END
>  <UniqueID>  (95) 
91

>  <SMILES>  (95) 
Cc1[n-]c(C)c(S(=O)(=O)NCC(=O)Cc2ccc(S(=O)(=O)N3CCOCC3)cc2)c1C(=O)[O-]

>  <Energy>  (95) 
85.3310458537972

>  <Genealogy>  (95) 
Cc1[n-]c(C)c(S(=O)(=O)NCC(=O)Cc2ccc(S(=O)(=O)N3CCOCC3)cc2)c1C(=O)[O-] (protonated)
Cc1[n-]c(C)c(S(=O)(=O)NCC(=O)Cc2ccc(S(=O)(=O)N3CCOCC3)cc2)c1C(=O)[O-] (3D coordinates assigned)
Cc1[n-]c(C)c(S(=O)(=O)NCC(=O)Cc2ccc(S(=O)(=O)N3CCOCC3)cc2)c1C(=O)[O-] (nonaromatic ring conformer: 85.3310458537972 kcal/mol)

>  <smiles>  (95) 
Cc1[nH]c(C)c(S(=O)(=O)NCC(=O)Cc2ccc(S(=O)(=O)N3CCOCC3)cc2)c1C(=O)O

>  <score_type>  (95) 
oracle

>  <origin>  (95) 
adg

>  <m_score__min__energy>  (95) 
-14.18

>  <m_primary>  (95) 
energy

$$$$
95:0
     RDKit          3D

 32 34  0  0  0  0  0  0  0  0999 V2000
   56.1991   22.7894   48.3127 H   0  0  0  0  0  0  0  0  0  0  0  0
   56.4310   23.7100   47.7570 C   0  0  0  0  0  0  0  0  0  0  0  0
   55.4690   24.3140   47.0160 N   0  0  0  0  0  0  0  0  0  0  0  0
   55.7350   25.4410   46.3080 C   0  0  0  0  0  0  0  0  0  0  0  0
   54.8170   25.9630   45.6200 O   0  0  0  0  0  0  0  0  0  0  0  0
   57.0260   26.0020   46.3310 C   0  0  0  0  0  0  0  0  0  0  0  0
   57.3280   27.1970   45.5090 C   0  0  0  0  0  0  0  0  0  0  0  0
   56.7080   28.3900   45.7270 N   0  0  0  0  0  0  0  0  0  0  0  0
   57.0940   29.3270   44.8370 C   0  0  0  0  0  0  0  0  0  0  0  0
   56.6610   30.5530   44.8950 N   0  0  0  0  0  0  0  0  0  0  0  0
   57.4520   31.7260   45.1370 C   0  0  0  0  0  0  0  0  0  0  0  0
   57.6420   32.7050   44.1460 C   0  0  0  0  0  0  0  0  0  0  0  0
   57.2058   32.5640   43.1461 H   0  0  0  0  0  0  0  0  0  0  0  0
   58.3830   33.8570   44.4260 C   0  0  0  0  0  0  0  0  0  0  0  0
   58.5435   34.6101   43.6404 H   0  0  0  0  0  0  0  0  0  0  0  0
   58.9210   34.0550   45.7020 C   0  0  0  0  0  0  0  0  0  0  0  0
   59.8460   35.5180   46.0180 Cl  0  0  0  0  0  0  0  0  0  0  0  0
   58.7050   33.0970   46.7080 C   0  0  0  0  0  0  0  0  0  0  0  0
   59.3460   33.3180   48.3300 Cl  0  0  0  0  0  0  0  0  0  0  0  0
   57.9630   31.9450   46.4220 C   0  0  0  0  0  0  0  0  0  0  0  0
   57.7796   31.2046   47.2145 H   0  0  0  0  0  0  0  0  0  0  0  0
   58.2270   28.7170   43.7460 S   0  0  0  0  0  0  0  0  0  0  0  0
   58.2100   27.1800   44.4280 C   0  0  0  0  0  0  0  0  0  0  0  0
   58.7922   26.3131   44.0824 H   0  0  0  0  0  0  0  0  0  0  0  0
   58.0050   25.3710   47.1320 C   0  0  0  0  0  0  0  0  0  0  0  0
   59.3220   25.9270   47.2920 N   0  0  0  0  0  0  0  0  0  0  0  0
   59.5730   26.4650   48.1500 H   0  0  0  0  0  0  0  0  0  0  0  0
   60.3710   25.7050   46.3030 C   0  0  0  0  0  0  0  0  0  0  0  0
   61.3226   25.5036   46.8167 H   0  0  0  0  0  0  0  0  0  0  0  0
   60.1048   24.8433   45.6732 H   0  0  0  0  0  0  0  0  0  0  0  0
   60.4767   26.6007   45.6732 H   0  0  0  0  0  0  0  0  0  0  0  0
   57.6780   24.2390   47.8140 N   0  0  0  0  0  0  0  0  0  0  0  0
  1  2  1  0
  2  3  2  0
  3  4  1  0
  4  5  2  0
  4  6  1  0
  6  7  1  0
  7  8  1  0
  8  9  1  0
  9 10  2  0
 10 11  1  0
 11 12  2  0
 12 13  1  0
 12 14  1  0
 14 15  1  0
 14 16  2  0
 16 17  1  0
 16 18  1  0
 18 19  1  0
 18 20  2  0
 20 21  1  0
  9 22  1  0
 22 23  1  0
 23 24  1  0
  6 25  2  0
 25 26  1  0
 26 27  1  0
 26 28  1  0
 28 29  1  0
 28 30  1  0
 28 31  1  0
 25 32  1  0
 32  2  1  0
 23  7  2  0
 20 11  1  0
M  CHG  2   8  -1  32  -1
M  END
>  <UniqueID>  (96) 
92

>  <SMILES>  (96) 
CNc1[n-]cnc(=O)c1-c1cs/c(=N\c2ccc(Cl)c(Cl)c2)[n-]1

>  <Energy>  (96) 
79.48851532540574

>  <Genealogy>  (96) 
CNc1[n-]cnc(=O)c1-c1csc(=Nc2ccc(Cl)c(Cl)c2)[n-]1 (protonated)
CNc1[n-]cnc(=O)c1-c1cs/c(=N\c2ccc(Cl)c(Cl)c2)[n-]1 (cis-trans isomerization)
CNc1[n-]cnc(=O)c1-c1cs/c(=N\c2ccc(Cl)c(Cl)c2)[n-]1 (3D coordinates assigned)
CNc1[n-]cnc(=O)c1-c1cs/c(=N\c2ccc(Cl)c(Cl)c2)[n-]1 (optimized conformer: 79.48851532540574 kcal/mol)

>  <smiles>  (96) 
CNc1[nH]cnc(=O)c1-c1csc(=Nc2ccc(Cl)c(Cl)c2)[nH]1

>  <score_type>  (96) 
oracle

>  <origin>  (96) 
adg

>  <m_score__min__energy>  (96) 
-11.449999999999999

>  <m_primary>  (96) 
energy

$$$$
