0:0
     RDKit          3D

 51 54  0  0  0  0  0  0  0  0999 V2000
   62.1650   33.8210   45.9990 N   0  0  0  0  0  0  0  0  0  0  0  0
   61.6750   34.0010   47.3350 C   0  0  0  0  0  0  0  0  0  0  0  0
   62.5320   33.7250   48.4120 C   0  0  0  0  0  0  0  0  0  0  0  0
   62.0730   33.8180   49.7270 C   0  0  0  0  0  0  0  0  0  0  0  0
   60.7510   34.1810   49.9830 C   0  0  0  0  0  0  0  0  0  0  0  0
   59.8880   34.4670   48.9230 C   0  0  0  0  0  0  0  0  0  0  0  0
   60.3410   34.4060   47.5960 C   0  0  0  0  0  0  0  0  0  0  0  0
   59.4220   34.7480   46.5430 N   0  0  0  0  0  0  0  0  0  0  0  0
   58.8660   33.7880   45.6260 C   0  0  0  0  0  0  0  0  0  0  0  0
   59.0100   33.9750   44.2400 C   0  0  0  0  0  0  0  0  0  0  0  0
   58.4500   33.0720   43.3420 C   0  0  0  0  0  0  0  0  0  0  0  0
   57.7670   31.9530   43.8100 C   0  0  0  0  0  0  0  0  0  0  0  0
   57.6630   31.7060   45.1900 C   0  0  0  0  0  0  0  0  0  0  0  0
   57.0240   30.5140   45.6780 N   0  0  0  0  0  0  0  0  0  0  0  0
   56.4190   29.4780   44.8860 C   0  0  0  0  0  0  0  0  0  0  0  0
   55.2210   29.6120   44.5280 O   0  0  0  0  0  0  0  0  0  0  0  0
   57.1350   28.3000   44.4830 N   0  0  0  0  0  0  0  0  0  0  0  0
   58.2310   27.7000   45.1890 C   0  0  0  0  0  0  0  0  0  0  0  0
   59.5430   28.1690   45.0140 C   0  0  0  0  0  0  0  0  0  0  0  0
   60.6110   27.5470   45.6640 C   0  0  0  0  0  0  0  0  0  0  0  0
   60.3750   26.4650   46.5150 C   0  0  0  0  0  0  0  0  0  0  0  0
   59.0680   26.0140   46.7260 C   0  0  0  0  0  0  0  0  0  0  0  0
   57.9940   26.6330   46.0730 C   0  0  0  0  0  0  0  0  0  0  0  0
   56.3670   26.0270   46.3360 Cl  0  0  0  0  0  0  0  0  0  0  0  0
   58.1580   32.6610   46.1040 C   0  0  0  0  0  0  0  0  0  0  0  0
   57.7940   32.4910   47.8690 S   0  0  0  0  0  0  0  0  0  0  0  0
   59.0120   31.2120   48.1840 C   0  0  0  0  0  0  0  0  0  0  0  0
   58.8750   30.3840   49.3040 C   0  0  0  0  0  0  0  0  0  0  0  0
   59.8320   29.4000   49.5720 C   0  0  0  0  0  0  0  0  0  0  0  0
   60.9360   29.2500   48.7280 C   0  0  0  0  0  0  0  0  0  0  0  0
   61.0930   30.0960   47.6260 C   0  0  0  0  0  0  0  0  0  0  0  0
   60.1410   31.0860   47.3630 C   0  0  0  0  0  0  0  0  0  0  0  0
   61.5060   33.8170   45.1890 H   0  0  0  0  0  0  0  0  0  0  0  0
   63.1830   33.7600   45.7830 H   0  0  0  0  0  0  0  0  0  0  0  0
   63.5746   33.4328   48.2180 H   0  0  0  0  0  0  0  0  0  0  0  0
   62.7554   33.6046   50.5630 H   0  0  0  0  0  0  0  0  0  0  0  0
   60.3881   34.2420   51.0196 H   0  0  0  0  0  0  0  0  0  0  0  0
   58.8434   34.7427   49.1300 H   0  0  0  0  0  0  0  0  0  0  0  0
   59.2770   35.7640   46.3480 H   0  0  0  0  0  0  0  0  0  0  0  0
   59.5704   34.8429   43.8623 H   0  0  0  0  0  0  0  0  0  0  0  0
   58.5472   33.2427   42.2597 H   0  0  0  0  0  0  0  0  0  0  0  0
   57.3051   31.2567   43.0946 H   0  0  0  0  0  0  0  0  0  0  0  0
   59.7309   29.0331   44.3598 H   0  0  0  0  0  0  0  0  0  0  0  0
   61.6376   27.9090   45.5059 H   0  0  0  0  0  0  0  0  0  0  0  0
   61.2168   25.9677   47.0191 H   0  0  0  0  0  0  0  0  0  0  0  0
   58.8826   25.1703   47.4070 H   0  0  0  0  0  0  0  0  0  0  0  0
   58.0123   30.5075   49.9753 H   0  0  0  0  0  0  0  0  0  0  0  0
   59.7158   28.7439   50.4472 H   0  0  0  0  0  0  0  0  0  0  0  0
   61.6811   28.4666   48.9307 H   0  0  0  0  0  0  0  0  0  0  0  0
   61.9655   29.9828   46.9658 H   0  0  0  0  0  0  0  0  0  0  0  0
   60.2784   31.7671   46.5102 H   0  0  0  0  0  0  0  0  0  0  0  0
  1  2  1  0
  2  3  2  0
  3  4  1  0
  4  5  2  0
  5  6  1  0
  6  7  2  0
  7  8  1  0
  8  9  1  0
  9 10  2  0
 10 11  1  0
 11 12  2  0
 12 13  1  0
 13 14  1  0
 14 15  1  0
 15 16  2  0
 15 17  1  0
 17 18  1  0
 18 19  2  0
 19 20  1  0
 20 21  2  0
 21 22  1  0
 22 23  2  0
 23 24  1  0
 13 25  2  0
 25 26  1  0
 26 27  1  0
 27 28  2  0
 28 29  1  0
 29 30  2  0
 30 31  1  0
 31 32  2  0
  7  2  1  0
 25  9  1  0
 32 27  1  0
 23 18  1  0
  1 33  1  0
  1 34  1  0
  3 35  1  0
  4 36  1  0
  5 37  1  0
  6 38  1  0
  8 39  1  0
 10 40  1  0
 11 41  1  0
 12 42  1  0
 19 43  1  0
 20 44  1  0
 21 45  1  0
 22 46  1  0
 28 47  1  0
 29 48  1  0
 30 49  1  0
 31 50  1  0
 32 51  1  0
M  CHG  2  14  -1  17  -1
M  END
>  <UniqueID>  (1) 
1

>  <SMILES>  (1) 
Nc1ccccc1Nc1cccc([N-]C(=O)[N-]c2ccccc2Cl)c1Sc1ccccc1

>  <Energy>  (1) 
65.24013503471086

>  <Genealogy>  (1) 
Nc1ccccc1Nc1cccc([N-]C(=O)[N-]c2ccccc2Cl)c1Sc1ccccc1 (protonated)
Nc1ccccc1Nc1cccc([N-]C(=O)[N-]c2ccccc2Cl)c1Sc1ccccc1 (3D coordinates assigned)
Nc1ccccc1Nc1cccc([N-]C(=O)[N-]c2ccccc2Cl)c1Sc1ccccc1 (optimized conformer: 65.24013503471086 kcal/mol)

>  <smiles>  (1) 
Nc1ccccc1Nc1cccc(NC(=O)Nc2ccccc2Cl)c1Sc1ccccc1

>  <score_type>  (1) 
oracle

>  <origin>  (1) 
adg

>  <m_score__min__energy>  (1) 
-12.18

>  <m_primary>  (1) 
energy

$$$$
1:0
     RDKit          3D

 58 61  0  0  0  0  0  0  0  0999 V2000
   54.1740   24.8810   45.6160 C   0  0  0  0  0  0  0  0  0  0  0  0
   54.7890   26.1150   45.9730 O   0  0  0  0  0  0  0  0  0  0  0  0
   56.1590   26.2720   46.2430 C   0  0  0  0  0  0  0  0  0  0  0  0
   56.9190   25.2590   46.8560 C   0  0  0  0  0  0  0  0  0  0  0  0
   58.2800   25.4460   47.1040 C   0  0  0  0  0  0  0  0  0  0  0  0
   58.9000   26.6550   46.7620 C   0  0  0  0  0  0  0  0  0  0  0  0
   60.3710   26.8440   46.9950 C   0  0  0  0  0  0  0  0  0  0  0  0
   58.1500   27.6650   46.1420 C   0  0  0  0  0  0  0  0  0  0  0  0
   56.7790   27.4800   45.8820 C   0  0  0  0  0  0  0  0  0  0  0  0
   55.9890   28.4950   45.2460 N   0  0  0  0  0  0  0  0  0  0  0  0
   56.5370   29.5560   43.9890 S   0  0  0  0  0  0  0  0  0  0  0  0
   55.3520   30.0430   43.2010 O   0  0  0  0  0  0  0  0  0  0  0  0
   57.4880   28.8310   43.0790 O   0  0  0  0  0  0  0  0  0  0  0  0
   57.3680   30.9220   44.7260 C   0  0  0  0  0  0  0  0  0  0  0  0
   57.6320   32.0600   43.9630 C   0  0  0  0  0  0  0  0  0  0  0  0
   58.3030   33.1500   44.5230 C   0  0  0  0  0  0  0  0  0  0  0  0
   58.7280   33.1250   45.8710 C   0  0  0  0  0  0  0  0  0  0  0  0
   58.4470   31.9670   46.6480 C   0  0  0  0  0  0  0  0  0  0  0  0
   57.7690   30.8790   46.0650 C   0  0  0  0  0  0  0  0  0  0  0  0
   58.8460   31.9310   47.9950 C   0  0  0  0  0  0  0  0  0  0  0  0
   58.6200   30.9100   48.7040 O   0  0  0  0  0  0  0  0  0  0  0  0
   59.5020   33.0330   48.5540 C   0  0  0  0  0  0  0  0  0  0  0  0
   59.8570   33.0700   49.9840 C   0  0  0  0  0  0  0  0  0  0  0  0
   59.7380   34.1520   50.6190 O   0  0  0  0  0  0  0  0  0  0  0  0
   60.2790   31.8920   50.6830 N   0  0  0  0  0  0  0  0  0  0  0  0
   61.4660   31.1030   50.3590 C   0  0  0  0  0  0  0  0  0  0  0  0
   62.3520   31.8430   49.3880 C   0  0  0  0  0  0  0  0  0  0  0  0
   63.2480   32.8180   49.8570 C   0  0  0  0  0  0  0  0  0  0  0  0
   64.1070   33.4740   48.9670 C   0  0  0  0  0  0  0  0  0  0  0  0
   64.0730   33.1630   47.6040 C   0  0  0  0  0  0  0  0  0  0  0  0
   63.1770   32.2020   47.1270 C   0  0  0  0  0  0  0  0  0  0  0  0
   62.3140   31.5470   48.0120 C   0  0  0  0  0  0  0  0  0  0  0  0
   59.7870   34.1420   47.7520 C   0  0  0  0  0  0  0  0  0  0  0  0
   59.4000   34.1880   46.4410 N   0  0  0  0  0  0  0  0  0  0  0  0
   59.7070   35.4080   45.6740 C   0  0  0  0  0  0  0  0  0  0  0  0
   53.8997   24.3306   46.5281 H   0  0  0  0  0  0  0  0  0  0  0  0
   53.2698   25.0803   45.0221 H   0  0  0  0  0  0  0  0  0  0  0  0
   54.8775   24.2790   45.0221 H   0  0  0  0  0  0  0  0  0  0  0  0
   56.4371   24.3125   47.1420 H   0  0  0  0  0  0  0  0  0  0  0  0
   58.8678   24.6412   47.5696 H   0  0  0  0  0  0  0  0  0  0  0  0
   60.5706   26.8696   48.0764 H   0  0  0  0  0  0  0  0  0  0  0  0
   60.9245   26.0096   46.5396 H   0  0  0  0  0  0  0  0  0  0  0  0
   60.6956   27.7912   46.5396 H   0  0  0  0  0  0  0  0  0  0  0  0
   58.6370   28.6092   45.8566 H   0  0  0  0  0  0  0  0  0  0  0  0
   57.3092   32.0993   42.9122 H   0  0  0  0  0  0  0  0  0  0  0  0
   58.5032   34.0391   43.9070 H   0  0  0  0  0  0  0  0  0  0  0  0
   57.5525   29.9858   46.6694 H   0  0  0  0  0  0  0  0  0  0  0  0
   62.0299   30.9040   51.2823 H   0  0  0  0  0  0  0  0  0  0  0  0
   61.1459   30.1584   49.8950 H   0  0  0  0  0  0  0  0  0  0  0  0
   63.2748   33.0672   50.9281 H   0  0  0  0  0  0  0  0  0  0  0  0
   64.8089   34.2343   49.3401 H   0  0  0  0  0  0  0  0  0  0  0  0
   64.7521   33.6752   46.9065 H   0  0  0  0  0  0  0  0  0  0  0  0
   63.1504   31.9604   46.0542 H   0  0  0  0  0  0  0  0  0  0  0  0
   61.6035   30.7983   47.6317 H   0  0  0  0  0  0  0  0  0  0  0  0
   60.3329   34.9939   48.1836 H   0  0  0  0  0  0  0  0  0  0  0  0
   59.9151   36.2352   46.3686 H   0  0  0  0  0  0  0  0  0  0  0  0
   60.5885   35.2307   45.0404 H   0  0  0  0  0  0  0  0  0  0  0  0
   58.8465   35.6690   45.0404 H   0  0  0  0  0  0  0  0  0  0  0  0
  1  2  1  0
  2  3  1  0
  3  4  2  0
  4  5  1  0
  5  6  2  0
  6  7  1  0
  6  8  1  0
  8  9  2  0
  9 10  1  0
 10 11  1  0
 11 12  2  0
 11 13  2  0
 11 14  1  0
 14 15  2  0
 15 16  1  0
 16 17  2  0
 17 18  1  0
 18 19  2  0
 18 20  1  0
 20 21  2  0
 20 22  1  0
 22 23  1  0
 23 24  2  0
 23 25  1  0
 25 26  1  0
 26 27  1  0
 27 28  2  0
 28 29  1  0
 29 30  2  0
 30 31  1  0
 31 32  2  0
 22 33  2  0
 33 34  1  0
 34 35  1  0
  9  3  1  0
 19 14  1  0
 32 27  1  0
 34 17  1  0
  1 36  1  0
  1 37  1  0
  1 38  1  0
  4 39  1  0
  5 40  1  0
  7 41  1  0
  7 42  1  0
  7 43  1  0
  8 44  1  0
 15 45  1  0
 16 46  1  0
 19 47  1  0
 26 48  1  0
 26 49  1  0
 28 50  1  0
 29 51  1  0
 30 52  1  0
 31 53  1  0
 32 54  1  0
 33 55  1  0
 35 56  1  0
 35 57  1  0
 35 58  1  0
M  CHG  2  10  -1  25  -1
M  END
>  <UniqueID>  (2) 
2

>  <SMILES>  (2) 
COc1ccc(C)cc1[N-]S(=O)(=O)c1ccc2c(c1)c(=O)c(C(=O)[N-]Cc1ccccc1)cn2C

>  <Energy>  (2) 
76.60527613906555

>  <Genealogy>  (2) 
COc1ccc(C)cc1[N-]S(=O)(=O)c1ccc2c(c1)c(=O)c(C(=O)[N-]Cc1ccccc1)cn2C (protonated)
COc1ccc(C)cc1[N-]S(=O)(=O)c1ccc2c(c1)c(=O)c(C(=O)[N-]Cc1ccccc1)cn2C (3D coordinates assigned)
COc1ccc(C)cc1[N-]S(=O)(=O)c1ccc2c(c1)c(=O)c(C(=O)[N-]Cc1ccccc1)cn2C (optimized conformer: 76.60527613906555 kcal/mol)

>  <smiles>  (2) 
COc1ccc(C)cc1NS(=O)(=O)c1ccc2c(c1)c(=O)c(C(=O)NCc1ccccc1)cn2C

>  <score_type>  (2) 
oracle

>  <origin>  (2) 
adg

>  <m_score__min__energy>  (2) 
-13.35

>  <m_primary>  (2) 
energy

$$$$
2:0
     RDKit          3D

 44 46  0  0  0  0  0  0  0  0999 V2000
   58.4400   33.1690   43.9350 C   0  0  0  0  0  0  0  0  0  0  0  0
   57.6810   33.5000   45.1540 N   0  0  0  0  0  0  0  0  0  0  0  0
   56.7220   34.5870   44.8910 C   0  0  0  0  0  0  0  0  0  0  0  0
   58.5660   33.7920   46.3110 C   0  0  0  0  0  0  0  0  0  0  0  0
   58.9160   32.5710   47.1420 C   0  0  0  0  0  0  0  0  0  0  0  0
   58.5020   32.4820   48.4810 C   0  0  0  0  0  0  0  0  0  0  0  0
   58.8180   31.3560   49.2440 C   0  0  0  0  0  0  0  0  0  0  0  0
   59.5470   30.3080   48.6790 C   0  0  0  0  0  0  0  0  0  0  0  0
   59.9620   30.3760   47.3410 C   0  0  0  0  0  0  0  0  0  0  0  0
   60.7650   29.2570   46.7470 C   0  0  0  0  0  0  0  0  0  0  0  0
   60.1950   28.8850   45.4930 O   0  0  0  0  0  0  0  0  0  0  0  0
   58.8190   28.8440   45.2000 C   0  0  0  0  0  0  0  0  0  0  0  0
   58.2240   29.8630   44.5550 C   0  0  0  0  0  0  0  0  0  0  0  0
   56.5300   29.8200   44.1590 S   0  0  0  0  0  0  0  0  0  0  0  0
   55.8750   31.1270   44.5080 O   0  0  0  0  0  0  0  0  0  0  0  0
   56.3510   29.5240   42.6970 O   0  0  0  0  0  0  0  0  0  0  0  0
   55.8480   28.5760   45.0850 O   0  0  0  0  0  0  0  0  0  0  0  0
   56.6380   27.5510   45.6070 C   0  0  0  0  0  0  0  0  0  0  0  0
   55.9870   26.4190   46.1120 C   0  0  0  0  0  0  0  0  0  0  0  0
   56.7180   25.3520   46.6340 C   0  0  0  0  0  0  0  0  0  0  0  0
   58.1100   25.4090   46.6570 C   0  0  0  0  0  0  0  0  0  0  0  0
   58.7760   26.5380   46.1690 C   0  0  0  0  0  0  0  0  0  0  0  0
   58.0580   27.6320   45.6450 C   0  0  0  0  0  0  0  0  0  0  0  0
   59.6610   31.5190   46.5840 C   0  0  0  0  0  0  0  0  0  0  0  0
   59.4152   32.7437   44.2144 H   0  0  0  0  0  0  0  0  0  0  0  0
   57.8766   32.4348   43.3403 H   0  0  0  0  0  0  0  0  0  0  0  0
   58.5947   34.0814   43.3403 H   0  0  0  0  0  0  0  0  0  0  0  0
   57.1190   32.6510   45.4080 H   0  0  0  0  0  0  0  0  0  0  0  0
   56.3608   34.9964   45.8460 H   0  0  0  0  0  0  0  0  0  0  0  0
   57.2181   35.3823   44.3153 H   0  0  0  0  0  0  0  0  0  0  0  0
   55.8711   34.1939   44.3153 H   0  0  0  0  0  0  0  0  0  0  0  0
   59.5000   34.2310   45.9303 H   0  0  0  0  0  0  0  0  0  0  0  0
   58.0139   34.4786   46.9696 H   0  0  0  0  0  0  0  0  0  0  0  0
   57.9257   33.3037   48.9312 H   0  0  0  0  0  0  0  0  0  0  0  0
   58.4918   31.2946   50.2927 H   0  0  0  0  0  0  0  0  0  0  0  0
   59.7970   29.4252   49.2858 H   0  0  0  0  0  0  0  0  0  0  0  0
   61.8027   29.5889   46.5955 H   0  0  0  0  0  0  0  0  0  0  0  0
   60.7556   28.3933   47.4281 H   0  0  0  0  0  0  0  0  0  0  0  0
   58.8208   30.7425   44.2717 H   0  0  0  0  0  0  0  0  0  0  0  0
   54.8882   26.3707   46.0969 H   0  0  0  0  0  0  0  0  0  0  0  0
   56.1964   24.4668   47.0269 H   0  0  0  0  0  0  0  0  0  0  0  0
   58.6869   24.5636   47.0601 H   0  0  0  0  0  0  0  0  0  0  0  0
   59.8752   26.5727   46.1945 H   0  0  0  0  0  0  0  0  0  0  0  0
   60.0118   31.5916   45.5440 H   0  0  0  0  0  0  0  0  0  0  0  0
  1  2  1  0
  2  3  1  0
  2  4  1  0
  4  5  1  0
  5  6  2  0
  6  7  1  0
  7  8  2  0
  8  9  1  0
  9 10  1  0
 10 11  1  0
 11 12  1  0
 12 13  2  0
 13 14  1  0
 14 15  2  0
 14 16  2  0
 14 17  1  0
 17 18  1  0
 18 19  2  0
 19 20  1  0
 20 21  2  0
 21 22  1  0
 22 23  2  0
  9 24  2  0
 24  5  1  0
 23 12  1  0
 23 18  1  0
  1 25  1  0
  1 26  1  0
  1 27  1  0
  2 28  1  0
  3 29  1  0
  3 30  1  0
  3 31  1  0
  4 32  1  0
  4 33  1  0
  6 34  1  0
  7 35  1  0
  8 36  1  0
 10 37  1  0
 10 38  1  0
 13 39  1  0
 19 40  1  0
 20 41  1  0
 21 42  1  0
 22 43  1  0
 24 44  1  0
M  CHG  1   2   1
M  END
>  <UniqueID>  (3) 
3

>  <SMILES>  (3) 
C[NH+](C)Cc1cccc(COC2=CS(=O)(=O)Oc3ccccc32)c1

>  <Energy>  (3) 
52.324163715543186

>  <Genealogy>  (3) 
C[NH+](C)Cc1cccc(COC2=CS(=O)(=O)Oc3ccccc32)c1 (protonated)
C[NH+](C)Cc1cccc(COC2=CS(=O)(=O)Oc3ccccc32)c1 (3D coordinates assigned)
C[NH+](C)Cc1cccc(COC2=CS(=O)(=O)Oc3ccccc32)c1 (nonaromatic ring conformer: 52.324163715543186 kcal/mol)

>  <smiles>  (3) 
CN(C)Cc1cccc(COC2=CS(=O)(=O)Oc3ccccc32)c1

>  <score_type>  (3) 
oracle

>  <origin>  (3) 
adg

>  <m_score__min__energy>  (3) 
-7.2800000000000002

>  <m_primary>  (3) 
energy

$$$$
3:0
     RDKit          3D

 44 46  0  0  0  0  0  0  0  0999 V2000
   58.4020   34.8140   45.6400 H   0  0  0  0  0  0  0  0  0  0  0  0
   57.6490   34.2450   45.1980 N   0  0  0  0  0  0  0  0  0  0  0  0
   57.6480   32.9530   45.2610 C   0  0  0  0  0  0  0  0  0  0  0  0
   56.6250   32.1820   44.8620 N   0  0  0  0  0  0  0  0  0  0  0  0
   56.9820   30.9640   45.1710 O   0  0  0  0  0  0  0  0  0  0  0  0
   58.1560   30.8800   45.7400 N   0  0  0  0  0  0  0  0  0  0  0  0
   58.6140   32.1420   45.7970 C   0  0  0  0  0  0  0  0  0  0  0  0
   59.8620   32.5210   46.3840 N   0  0  0  0  0  0  0  0  0  0  0  0
   60.1420   33.7630   46.7430 N   0  0  0  0  0  0  0  0  0  0  0  0
   61.2850   33.7930   47.4060 N   0  0  0  0  0  0  0  0  0  0  0  0
   61.7050   34.6540   47.8210 H   0  0  0  0  0  0  0  0  0  0  0  0
   61.7440   32.5310   47.5160 C   0  0  0  0  0  0  0  0  0  0  0  0
   62.9070   32.1600   48.3410 C   0  0  0  0  0  0  0  0  0  0  0  0
   62.8760   31.1290   49.0650 O   0  0  0  0  0  0  0  0  0  0  0  0
   64.0350   32.9880   48.3370 O   0  0  0  0  0  0  0  0  0  0  0  0
   64.9370   33.0920   49.4360 C   0  0  0  0  0  0  0  0  0  0  0  0
   65.4473   32.1279   49.5777 H   0  0  0  0  0  0  0  0  0  0  0  0
   65.6711   33.8821   49.2196 H   0  0  0  0  0  0  0  0  0  0  0  0
   64.1860   33.4540   50.7120 C   0  0  0  0  0  0  0  0  0  0  0  0
   64.7874   33.1641   51.5862 H   0  0  0  0  0  0  0  0  0  0  0  0
   64.0043   34.5386   50.7353 H   0  0  0  0  0  0  0  0  0  0  0  0
   63.2243   32.9205   50.7353 H   0  0  0  0  0  0  0  0  0  0  0  0
   60.8430   31.7100   46.8450 C   0  0  0  0  0  0  0  0  0  0  0  0
   60.8270   30.2000   46.7930 C   0  0  0  0  0  0  0  0  0  0  0  0
   61.3262   29.8078   47.6913 H   0  0  0  0  0  0  0  0  0  0  0  0
   59.7783   29.8712   46.7472 H   0  0  0  0  0  0  0  0  0  0  0  0
   61.4930   29.7050   45.6460 O   0  0  0  0  0  0  0  0  0  0  0  0
   60.6790   28.7770   44.9590 C   0  0  0  0  0  0  0  0  0  0  0  0
   59.7415   29.2663   44.6562 H   0  0  0  0  0  0  0  0  0  0  0  0
   61.2107   28.4154   44.0665 H   0  0  0  0  0  0  0  0  0  0  0  0
   60.3630   27.5950   45.8750 C   0  0  0  0  0  0  0  0  0  0  0  0
   60.9059   26.7082   45.5160 H   0  0  0  0  0  0  0  0  0  0  0  0
   60.6751   27.8546   46.8974 H   0  0  0  0  0  0  0  0  0  0  0  0
   58.8860   27.2940   45.8900 C   0  0  0  0  0  0  0  0  0  0  0  0
   58.3970   26.1920   46.6120 C   0  0  0  0  0  0  0  0  0  0  0  0
   59.0966   25.5362   47.1510 H   0  0  0  0  0  0  0  0  0  0  0  0
   57.0260   25.9260   46.6480 C   0  0  0  0  0  0  0  0  0  0  0  0
   56.6487   25.0630   47.2162 H   0  0  0  0  0  0  0  0  0  0  0  0
   56.1330   26.7550   45.9630 C   0  0  0  0  0  0  0  0  0  0  0  0
   54.7690   26.4870   45.9970 O   0  0  0  0  0  0  0  0  0  0  0  0
   56.6110   27.8560   45.2460 C   0  0  0  0  0  0  0  0  0  0  0  0
   55.9080   28.5072   44.7058 H   0  0  0  0  0  0  0  0  0  0  0  0
   57.9810   28.1300   45.2150 C   0  0  0  0  0  0  0  0  0  0  0  0
   58.3523   29.0040   44.6597 H   0  0  0  0  0  0  0  0  0  0  0  0
  1  2  1  0
  2  3  2  0
  3  4  1  0
  4  5  1  0
  5  6  1  0
  6  7  2  0
  7  8  1  0
  8  9  1  0
  9 10  2  0
 10 11  1  0
 10 12  1  0
 12 13  1  0
 13 14  2  0
 13 15  1  0
 15 16  1  0
 16 17  1  0
 16 18  1  0
 16 19  1  0
 19 20  1  0
 19 21  1  0
 19 22  1  0
 12 23  2  0
 23 24  1  0
 24 25  1  0
 24 26  1  0
 24 27  1  0
 27 28  1  0
 28 29  1  0
 28 30  1  0
 28 31  1  0
 31 32  1  0
 31 33  1  0
 31 34  1  0
 34 35  2  0
 35 36  1  0
 35 37  1  0
 37 38  1  0
 37 39  2  0
 39 40  1  0
 39 41  1  0
 41 42  1  0
 41 43  2  0
 43 44  1  0
  7  3  1  0
 23  8  1  0
 43 34  1  0
M  CHG  3   4  -1  10   1  40  -1
M  END
>  <UniqueID>  (4) 
4

>  <SMILES>  (4) 
[H]/N=c1/[n-]onc1-n1n[nH+]c(C(=O)OCC)c1COCCc1ccc([O-])cc1

>  <Energy>  (4) 
119.29268596016358

>  <Genealogy>  (4) 
CCOC(=O)c1[nH+]nn(-c2no[n-]c2=N)c1COCCc1ccc([O-])cc1 (protonated)
[H]/N=c1/[n-]onc1-n1n[nH+]c(C(=O)OCC)c1COCCc1ccc([O-])cc1 (cis-trans isomerization)
[H]/N=c1/[n-]onc1-n1n[nH+]c(C(=O)OCC)c1COCCc1ccc([O-])cc1 (3D coordinates assigned)
[H]/N=c1/[n-]onc1-n1n[nH+]c(C(=O)OCC)c1COCCc1ccc([O-])cc1 (optimized conformer: 119.29268596016358 kcal/mol)

>  <smiles>  (4) 
CCOC(=O)c1nnn(-c2no[nH]c2=N)c1COCCc1ccc(O)cc1

>  <score_type>  (4) 
oracle

>  <origin>  (4) 
adg

>  <m_score__min__energy>  (4) 
-11.279999999999999

>  <m_primary>  (4) 
energy

$$$$
4:0
     RDKit          3D

 51 53  0  0  0  0  0  0  0  0999 V2000
   55.1510   26.6740   46.0170 N   0  0  0  0  0  0  0  0  0  0  0  0
   56.8390   27.0230   45.8950 S   0  0  0  0  0  0  0  0  0  0  0  0
   57.4800   26.8690   47.2470 O   0  0  0  0  0  0  0  0  0  0  0  0
   57.4820   26.0510   44.9440 O   0  0  0  0  0  0  0  0  0  0  0  0
   57.0730   28.6660   45.3090 C   0  0  0  0  0  0  0  0  0  0  0  0
   57.6370   29.6400   46.1420 C   0  0  0  0  0  0  0  0  0  0  0  0
   57.8720   30.9280   45.6570 C   0  0  0  0  0  0  0  0  0  0  0  0
   57.5480   31.2610   44.3330 C   0  0  0  0  0  0  0  0  0  0  0  0
   57.8080   32.6540   43.8180 C   0  0  0  0  0  0  0  0  0  0  0  0
   58.8990   33.3510   44.6310 C   0  0  0  0  0  0  0  0  0  0  0  0
   58.3000   34.0250   45.7920 N   0  0  0  0  0  0  0  0  0  0  0  0
   59.5110   34.8680   46.7080 S   0  0  0  0  0  0  0  0  0  0  0  0
   59.9700   36.0880   45.9590 O   0  0  0  0  0  0  0  0  0  0  0  0
   58.9280   35.3080   48.0210 O   0  0  0  0  0  0  0  0  0  0  0  0
   60.8700   33.7880   47.0100 C   0  0  0  0  0  0  0  0  0  0  0  0
   62.1180   34.0650   46.4400 C   0  0  0  0  0  0  0  0  0  0  0  0
   63.2040   33.2210   46.6860 C   0  0  0  0  0  0  0  0  0  0  0  0
   63.0540   32.1110   47.5210 C   0  0  0  0  0  0  0  0  0  0  0  0
   61.8180   31.8310   48.1160 C   0  0  0  0  0  0  0  0  0  0  0  0
   61.7250   30.7100   48.9560 O   0  0  0  0  0  0  0  0  0  0  0  0
   60.5960   29.8410   49.0560 C   0  0  0  0  0  0  0  0  0  0  0  0
   60.5290   28.9180   47.8680 C   0  0  0  0  0  0  0  0  0  0  0  0
   60.6600   29.4180   46.5610 C   0  0  0  0  0  0  0  0  0  0  0  0
   60.6070   28.5500   45.4670 C   0  0  0  0  0  0  0  0  0  0  0  0
   60.4330   27.1770   45.6700 C   0  0  0  0  0  0  0  0  0  0  0  0
   60.3070   26.6720   46.9670 C   0  0  0  0  0  0  0  0  0  0  0  0
   60.3530   27.5390   48.0630 C   0  0  0  0  0  0  0  0  0  0  0  0
   60.7200   32.6720   47.8460 C   0  0  0  0  0  0  0  0  0  0  0  0
   56.9470   30.2930   43.5120 C   0  0  0  0  0  0  0  0  0  0  0  0
   56.7140   29.0020   43.9970 C   0  0  0  0  0  0  0  0  0  0  0  0
   54.7620   26.7120   45.0480 H   0  0  0  0  0  0  0  0  0  0  0  0
   57.8957   29.3897   47.1814 H   0  0  0  0  0  0  0  0  0  0  0  0
   58.3146   31.6877   46.3180 H   0  0  0  0  0  0  0  0  0  0  0  0
   58.1272   32.5939   42.7670 H   0  0  0  0  0  0  0  0  0  0  0  0
   56.8799   33.2374   43.9096 H   0  0  0  0  0  0  0  0  0  0  0  0
   59.6289   32.6048   44.9782 H   0  0  0  0  0  0  0  0  0  0  0  0
   59.4036   34.0962   43.9985 H   0  0  0  0  0  0  0  0  0  0  0  0
   57.6130   34.7370   45.4500 H   0  0  0  0  0  0  0  0  0  0  0  0
   62.2440   34.9487   45.7972 H   0  0  0  0  0  0  0  0  0  0  0  0
   64.1787   33.4309   46.2214 H   0  0  0  0  0  0  0  0  0  0  0  0
   63.9136   31.4519   47.7124 H   0  0  0  0  0  0  0  0  0  0  0  0
   60.6815   29.2419   49.9746 H   0  0  0  0  0  0  0  0  0  0  0  0
   59.6810   30.4510   49.0825 H   0  0  0  0  0  0  0  0  0  0  0  0
   60.8047   30.4963   46.3986 H   0  0  0  0  0  0  0  0  0  0  0  0
   60.7022   28.9468   44.4455 H   0  0  0  0  0  0  0  0  0  0  0  0
   60.3953   26.4944   44.8083 H   0  0  0  0  0  0  0  0  0  0  0  0
   60.1716   25.5920   47.1257 H   0  0  0  0  0  0  0  0  0  0  0  0
   60.2508   27.1388   49.0825 H   0  0  0  0  0  0  0  0  0  0  0  0
   59.7396   32.4519   48.2935 H   0  0  0  0  0  0  0  0  0  0  0  0
   56.6581   30.5514   42.4825 H   0  0  0  0  0  0  0  0  0  0  0  0
   56.2473   28.2479   43.3462 H   0  0  0  0  0  0  0  0  0  0  0  0
  1  2  1  0
  2  3  2  0
  2  4  2  0
  2  5  1  0
  5  6  2  0
  6  7  1  0
  7  8  2  0
  8  9  1  0
  9 10  1  0
 10 11  1  0
 11 12  1  0
 12 13  2  0
 12 14  2  0
 12 15  1  0
 15 16  2  0
 16 17  1  0
 17 18  2  0
 18 19  1  0
 19 20  1  0
 20 21  1  0
 21 22  1  0
 22 23  2  0
 23 24  1  0
 24 25  2  0
 25 26  1  0
 26 27  2  0
 19 28  2  0
  8 29  1  0
 29 30  2  0
 30  5  1  0
 28 15  1  0
 27 22  1  0
  1 31  1  0
  6 32  1  0
  7 33  1  0
  9 34  1  0
  9 35  1  0
 10 36  1  0
 10 37  1  0
 11 38  1  0
 16 39  1  0
 17 40  1  0
 18 41  1  0
 21 42  1  0
 21 43  1  0
 23 44  1  0
 24 45  1  0
 25 46  1  0
 26 47  1  0
 27 48  1  0
 28 49  1  0
 29 50  1  0
 30 51  1  0
M  CHG  1   1  -1
M  END
>  <UniqueID>  (5) 
5

>  <SMILES>  (5) 
[NH-]S(=O)(=O)c1ccc(CCNS(=O)(=O)c2cccc(OCc3ccccc3)c2)cc1

>  <Energy>  (5) 
40.86228833449823

>  <Genealogy>  (5) 
[NH-]S(=O)(=O)c1ccc(CCNS(=O)(=O)c2cccc(OCc3ccccc3)c2)cc1 (protonated)
[NH-]S(=O)(=O)c1ccc(CCNS(=O)(=O)c2cccc(OCc3ccccc3)c2)cc1 (3D coordinates assigned)
[NH-]S(=O)(=O)c1ccc(CCNS(=O)(=O)c2cccc(OCc3ccccc3)c2)cc1 (optimized conformer: 40.86228833449823 kcal/mol)

>  <smiles>  (5) 
NS(=O)(=O)c1ccc(CCNS(=O)(=O)c2cccc(OCc3ccccc3)c2)cc1

>  <score_type>  (5) 
oracle

>  <origin>  (5) 
adg

>  <m_score__min__energy>  (5) 
-13.130000000000001

>  <m_primary>  (5) 
energy

$$$$
5:0
     RDKit          3D

 51 53  0  0  0  0  0  0  0  0999 V2000
   59.5442   26.0449   44.8026 H   0  0  0  0  0  0  0  0  0  0  0  0
   59.2050   27.0000   45.2300 C   0  0  0  0  0  0  0  0  0  0  0  0
   59.6050   27.3690   46.5180 C   0  0  0  0  0  0  0  0  0  0  0  0
   60.2751   26.7132   47.0932 H   0  0  0  0  0  0  0  0  0  0  0  0
   59.1530   28.5760   47.0800 C   0  0  0  0  0  0  0  0  0  0  0  0
   59.6030   29.0420   48.3590 N   0  0  0  0  0  0  0  0  0  0  0  0
   59.2510   30.2670   49.0120 C   0  0  0  0  0  0  0  0  0  0  0  0
   58.5240   31.1190   48.4350 O   0  0  0  0  0  0  0  0  0  0  0  0
   59.8170   30.5650   50.3660 C   0  0  0  0  0  0  0  0  0  0  0  0
   60.9144   30.5039   50.3218 H   0  0  0  0  0  0  0  0  0  0  0  0
   59.4267   29.8305   51.0859 H   0  0  0  0  0  0  0  0  0  0  0  0
   59.4240   31.9130   50.7990 N   0  0  0  0  0  0  0  0  0  0  0  0
   59.9330   33.0680   50.0930 C   0  0  0  0  0  0  0  0  0  0  0  0
   59.4650   34.2110   50.3440 O   0  0  0  0  0  0  0  0  0  0  0  0
   60.9840   32.9440   49.0620 C   0  0  0  0  0  0  0  0  0  0  0  0
   62.3320   33.1070   49.4180 C   0  0  0  0  0  0  0  0  0  0  0  0
   62.6080   33.3205   50.4612 H   0  0  0  0  0  0  0  0  0  0  0  0
   63.3190   32.9960   48.4380 C   0  0  0  0  0  0  0  0  0  0  0  0
   64.3773   33.1367   48.7028 H   0  0  0  0  0  0  0  0  0  0  0  0
   62.9600   32.7060   47.1210 C   0  0  0  0  0  0  0  0  0  0  0  0
   63.7304   32.6202   46.3406 H   0  0  0  0  0  0  0  0  0  0  0  0
   61.6120   32.5260   46.8050 C   0  0  0  0  0  0  0  0  0  0  0  0
   61.3188   32.2910   45.7712 H   0  0  0  0  0  0  0  0  0  0  0  0
   60.6580   32.6400   47.7710 N   0  0  0  0  0  0  0  0  0  0  0  0
   59.6610   32.4700   47.5090 H   0  0  0  0  0  0  0  0  0  0  0  0
   58.6740   32.0660   52.0590 C   0  0  0  0  0  0  0  0  0  0  0  0
   58.7260   33.1162   52.3821 H   0  0  0  0  0  0  0  0  0  0  0  0
   59.1238   31.4047   52.8142 H   0  0  0  0  0  0  0  0  0  0  0  0
   57.2080   31.6710   51.8820 C   0  0  0  0  0  0  0  0  0  0  0  0
   56.7404   31.5450   52.8697 H   0  0  0  0  0  0  0  0  0  0  0  0
   56.6807   32.4591   51.3245 H   0  0  0  0  0  0  0  0  0  0  0  0
   57.1480   30.7247   51.3245 H   0  0  0  0  0  0  0  0  0  0  0  0
   58.3180   29.4110   46.3280 C   0  0  0  0  0  0  0  0  0  0  0  0
   57.9592   30.3561   46.7615 H   0  0  0  0  0  0  0  0  0  0  0  0
   57.9350   29.0540   45.0280 C   0  0  0  0  0  0  0  0  0  0  0  0
   56.9710   30.1510   44.0420 S   0  0  0  0  0  0  0  0  0  0  0  0
   56.6830   29.4950   42.7220 O   0  0  0  0  0  0  0  0  0  0  0  0
   55.6640   30.4690   44.7130 O   0  0  0  0  0  0  0  0  0  0  0  0
   57.8610   31.6150   43.7690 N   0  0  0  0  0  0  0  0  0  0  0  0
   58.2220   32.4420   44.7040 C   0  0  0  0  0  0  0  0  0  0  0  0
   57.9850   32.2350   45.9760 O   0  0  0  0  0  0  0  0  0  0  0  0
   58.4410   33.2180   46.6970 N   0  0  0  0  0  0  0  0  0  0  0  0
   59.0100   34.0960   45.8450 C   0  0  0  0  0  0  0  0  0  0  0  0
   59.6160   35.3950   46.2610 C   0  0  0  0  0  0  0  0  0  0  0  0
   59.6427   35.4522   47.3592 H   0  0  0  0  0  0  0  0  0  0  0  0
   60.6399   35.4654   45.8652 H   0  0  0  0  0  0  0  0  0  0  0  0
   59.0120   36.2248   45.8652 H   0  0  0  0  0  0  0  0  0  0  0  0
   58.8860   33.6440   44.5470 C   0  0  0  0  0  0  0  0  0  0  0  0
   59.2302   34.1218   43.6179 H   0  0  0  0  0  0  0  0  0  0  0  0
   58.3760   27.8410   44.4850 C   0  0  0  0  0  0  0  0  0  0  0  0
   58.0688   27.5501   43.4696 H   0  0  0  0  0  0  0  0  0  0  0  0
  1  2  1  0
  2  3  2  0
  3  4  1  0
  3  5  1  0
  5  6  1  0
  6  7  1  0
  7  8  2  0
  7  9  1  0
  9 10  1  0
  9 11  1  0
  9 12  1  0
 12 13  1  0
 13 14  2  0
 13 15  1  0
 15 16  2  0
 16 17  1  0
 16 18  1  0
 18 19  1  0
 18 20  2  0
 20 21  1  0
 20 22  1  0
 22 23  1  0
 22 24  2  0
 24 25  1  0
 12 26  1  0
 26 27  1  0
 26 28  1  0
 26 29  1  0
 29 30  1  0
 29 31  1  0
 29 32  1  0
  5 33  2  0
 33 34  1  0
 33 35  1  0
 35 36  1  0
 36 37  2  0
 36 38  2  0
 36 39  1  0
 39 40  2  0
 40 41  1  0
 41 42  1  0
 42 43  1  0
 43 44  1  0
 44 45  1  0
 44 46  1  0
 44 47  1  0
 43 48  2  0
 48 49  1  0
 35 50  2  0
 50 51  1  0
 50  2  1  0
 24 15  1  0
 48 40  1  0
M  CHG  3   6  -1  24   1  42  -1
M  END
>  <UniqueID>  (6) 
6

>  <SMILES>  (6) 
CCN(CC(=O)[N-]c1cccc(S(=O)(=O)/N=c2\cc(C)[n-]o2)c1)C(=O)c1cccc[nH+]1

>  <Energy>  (6) 
88.0547408536364

>  <Genealogy>  (6) 
CCN(CC(=O)[N-]c1cccc(S(=O)(=O)N=c2cc(C)[n-]o2)c1)C(=O)c1cccc[nH+]1 (protonated)
CCN(CC(=O)[N-]c1cccc(S(=O)(=O)/N=c2\cc(C)[n-]o2)c1)C(=O)c1cccc[nH+]1 (cis-trans isomerization)
CCN(CC(=O)[N-]c1cccc(S(=O)(=O)/N=c2\cc(C)[n-]o2)c1)C(=O)c1cccc[nH+]1 (3D coordinates assigned)
CCN(CC(=O)[N-]c1cccc(S(=O)(=O)/N=c2\cc(C)[n-]o2)c1)C(=O)c1cccc[nH+]1 (optimized conformer: 88.0547408536364 kcal/mol)

>  <smiles>  (6) 
CCN(CC(=O)Nc1cccc(S(=O)(=O)N=c2cc(C)[nH]o2)c1)C(=O)c1ccccn1

>  <score_type>  (6) 
oracle

>  <origin>  (6) 
adg

>  <m_score__min__energy>  (6) 
-11.31

>  <m_primary>  (6) 
energy

$$$$
6:0
     RDKit          3D

 64 66  0  0  0  0  0  0  0  0999 V2000
   65.0500   33.1180   49.4090 C   0  0  0  0  0  0  0  0  0  0  0  0
   63.5910   32.9790   49.0910 C   0  0  0  0  0  0  0  0  0  0  0  0
   63.1810   32.7200   47.7780 C   0  0  0  0  0  0  0  0  0  0  0  0
   61.8320   32.5170   47.4880 C   0  0  0  0  0  0  0  0  0  0  0  0
   60.8660   32.5840   48.5070 C   0  0  0  0  0  0  0  0  0  0  0  0
   59.5130   32.3300   48.2400 O   0  0  0  0  0  0  0  0  0  0  0  0
   58.8730   32.3920   46.9910 C   0  0  0  0  0  0  0  0  0  0  0  0
   58.4700   33.6180   46.4280 C   0  0  0  0  0  0  0  0  0  0  0  0
   57.8170   33.6490   45.1950 C   0  0  0  0  0  0  0  0  0  0  0  0
   57.5460   32.4590   44.5170 C   0  0  0  0  0  0  0  0  0  0  0  0
   57.9150   31.2340   45.0760 C   0  0  0  0  0  0  0  0  0  0  0  0
   58.5700   31.1850   46.3230 C   0  0  0  0  0  0  0  0  0  0  0  0
   58.9770   29.8740   46.9600 C   0  0  0  0  0  0  0  0  0  0  0  0
   58.0260   28.8280   46.7460 O   0  0  0  0  0  0  0  0  0  0  0  0
   58.3260   27.4900   46.4320 C   0  0  0  0  0  0  0  0  0  0  0  0
   59.6170   26.9640   46.6190 C   0  0  0  0  0  0  0  0  0  0  0  0
   59.8950   25.6300   46.3180 C   0  0  0  0  0  0  0  0  0  0  0  0
   58.8940   24.7900   45.8090 C   0  0  0  0  0  0  0  0  0  0  0  0
   59.1790   23.3620   45.5260 C   0  0  0  0  0  0  0  0  0  0  0  0
   60.3590   22.9220   45.6100 O   0  0  0  0  0  0  0  0  0  0  0  0
   58.1170   22.4760   45.1500 N   0  0  0  0  0  0  0  0  0  0  0  0
   57.4050   22.5530   43.8780 C   0  0  0  0  0  0  0  0  0  0  0  0
   55.9560   22.9990   44.1090 C   0  0  0  0  0  0  0  0  0  0  0  0
   57.4430   21.1840   43.2000 C   0  0  0  0  0  0  0  0  0  0  0  0
   57.6100   25.3170   45.5930 C   0  0  0  0  0  0  0  0  0  0  0  0
   57.3090   26.6570   45.9070 C   0  0  0  0  0  0  0  0  0  0  0  0
   55.9200   27.1520   45.7150 C   0  0  0  0  0  0  0  0  0  0  0  0
   55.7140   28.3080   45.2500 O   0  0  0  0  0  0  0  0  0  0  0  0
   54.8240   26.3460   45.9980 O   0  0  0  0  0  0  0  0  0  0  0  0
   61.2730   32.8370   49.8330 C   0  0  0  0  0  0  0  0  0  0  0  0
   60.0980   32.8690   51.1640 S   0  0  0  0  0  0  0  0  0  0  0  0
   60.1510   34.2200   51.8170 O   0  0  0  0  0  0  0  0  0  0  0  0
   60.4350   31.8270   52.1910 O   0  0  0  0  0  0  0  0  0  0  0  0
   58.4780   32.5700   50.6040 N   0  0  0  0  0  0  0  0  0  0  0  0
   57.6720   32.0060   51.6900 C   0  0  0  0  0  0  0  0  0  0  0  0
   57.3720   30.5720   51.4030 C   0  0  0  0  0  0  0  0  0  0  0  0
   56.4440   29.9830   52.0230 O   0  0  0  0  0  0  0  0  0  0  0  0
   58.1530   29.8660   50.4940 O   0  0  0  0  0  0  0  0  0  0  0  0
   62.6360   33.0120   50.1170 C   0  0  0  0  0  0  0  0  0  0  0  0
   65.1878   33.1311   50.5003 H   0  0  0  0  0  0  0  0  0  0  0  0
   65.6014   32.2683   48.9800 H   0  0  0  0  0  0  0  0  0  0  0  0
   65.4310   34.0565   48.9800 H   0  0  0  0  0  0  0  0  0  0  0  0
   63.9267   32.6763   46.9706 H   0  0  0  0  0  0  0  0  0  0  0  0
   61.5218   32.3029   46.4546 H   0  0  0  0  0  0  0  0  0  0  0  0
   58.6712   34.5575   46.9635 H   0  0  0  0  0  0  0  0  0  0  0  0
   57.5155   34.6119   44.7569 H   0  0  0  0  0  0  0  0  0  0  0  0
   57.0407   32.4866   43.5403 H   0  0  0  0  0  0  0  0  0  0  0  0
   57.6928   30.3000   44.5391 H   0  0  0  0  0  0  0  0  0  0  0  0
   59.9421   29.5624   46.5340 H   0  0  0  0  0  0  0  0  0  0  0  0
   59.0412   30.0423   48.0452 H   0  0  0  0  0  0  0  0  0  0  0  0
   60.4169   27.6117   47.0071 H   0  0  0  0  0  0  0  0  0  0  0  0
   60.9081   25.2339   46.4814 H   0  0  0  0  0  0  0  0  0  0  0  0
   57.8918   23.2938   43.2266 H   0  0  0  0  0  0  0  0  0  0  0  0
   55.7589   23.0597   45.1895 H   0  0  0  0  0  0  0  0  0  0  0  0
   55.7991   23.9870   43.6516 H   0  0  0  0  0  0  0  0  0  0  0  0
   55.2707   22.2702   43.6516 H   0  0  0  0  0  0  0  0  0  0  0  0
   57.4649   20.3956   43.9668 H   0  0  0  0  0  0  0  0  0  0  0  0
   56.5479   21.0606   42.5726 H   0  0  0  0  0  0  0  0  0  0  0  0
   58.3435   21.1104   42.5726 H   0  0  0  0  0  0  0  0  0  0  0  0
   56.8253   24.6718   45.1711 H   0  0  0  0  0  0  0  0  0  0  0  0
   58.5320   31.8700   49.8300 H   0  0  0  0  0  0  0  0  0  0  0  0
   58.2293   32.0806   52.6354 H   0  0  0  0  0  0  0  0  0  0  0  0
   56.7286   32.5658   51.7715 H   0  0  0  0  0  0  0  0  0  0  0  0
   62.9586   33.1768   51.1556 H   0  0  0  0  0  0  0  0  0  0  0  0
  1  2  1  0
  2  3  2  0
  3  4  1  0
  4  5  2  0
  5  6  1  0
  6  7  1  0
  7  8  2  0
  8  9  1  0
  9 10  2  0
 10 11  1  0
 11 12  2  0
 12 13  1  0
 13 14  1  0
 14 15  1  0
 15 16  2  0
 16 17  1  0
 17 18  2  0
 18 19  1  0
 19 20  2  0
 19 21  1  0
 21 22  1  0
 22 23  1  0
 22 24  1  0
 18 25  1  0
 25 26  2  0
 26 27  1  0
 27 28  2  0
 27 29  1  0
  5 30  1  0
 30 31  1  0
 31 32  2  0
 31 33  2  0
 31 34  1  0
 34 35  1  0
 35 36  1  0
 36 37  2  0
 36 38  1  0
 30 39  2  0
 39  2  1  0
 12  7  1  0
 26 15  1  0
  1 40  1  0
  1 41  1  0
  1 42  1  0
  3 43  1  0
  4 44  1  0
  8 45  1  0
  9 46  1  0
 10 47  1  0
 11 48  1  0
 13 49  1  0
 13 50  1  0
 16 51  1  0
 17 52  1  0
 22 53  1  0
 23 54  1  0
 23 55  1  0
 23 56  1  0
 24 57  1  0
 24 58  1  0
 24 59  1  0
 25 60  1  0
 34 61  1  0
 35 62  1  0
 35 63  1  0
 39 64  1  0
M  CHG  3  21  -1  29  -1  38  -1
M  END
>  <UniqueID>  (7) 
7

>  <SMILES>  (7) 
Cc1ccc(Oc2ccccc2COc2ccc(C(=O)[N-]C(C)C)cc2C(=O)[O-])c(S(=O)(=O)NCC(=O)[O-])c1

>  <Energy>  (7) 
70.12970434460149

>  <Genealogy>  (7) 
Cc1ccc(Oc2ccccc2COc2ccc(C(=O)[N-]C(C)C)cc2C(=O)[O-])c(S(=O)(=O)NCC(=O)[O-])c1 (protonated)
Cc1ccc(Oc2ccccc2COc2ccc(C(=O)[N-]C(C)C)cc2C(=O)[O-])c(S(=O)(=O)NCC(=O)[O-])c1 (3D coordinates assigned)
Cc1ccc(Oc2ccccc2COc2ccc(C(=O)[N-]C(C)C)cc2C(=O)[O-])c(S(=O)(=O)NCC(=O)[O-])c1 (optimized conformer: 70.12970434460149 kcal/mol)

>  <smiles>  (7) 
Cc1ccc(Oc2ccccc2COc2ccc(C(=O)NC(C)C)cc2C(=O)O)c(S(=O)(=O)NCC(=O)O)c1

>  <score_type>  (7) 
oracle

>  <origin>  (7) 
adg

>  <m_score__min__energy>  (7) 
-14.81

>  <m_primary>  (7) 
energy

$$$$
7:0
     RDKit          3D

 56 59  0  0  0  0  0  0  0  0999 V2000
   56.1880   22.2760   43.3690 O   0  0  0  0  0  0  0  0  0  0  0  0
   55.9230   22.8960   44.4370 C   0  0  0  0  0  0  0  0  0  0  0  0
   55.1430   22.2670   45.4720 N   0  0  0  0  0  0  0  0  0  0  0  0
   53.8900   22.4820   45.7510 C   0  0  0  0  0  0  0  0  0  0  0  0
   53.3750   22.0230   46.9700 C   0  0  0  0  0  0  0  0  0  0  0  0
   52.0340   22.2600   47.2820 C   0  0  0  0  0  0  0  0  0  0  0  0
   51.2200   22.9450   46.3770 C   0  0  0  0  0  0  0  0  0  0  0  0
   51.7630   23.3840   45.1680 C   0  0  0  0  0  0  0  0  0  0  0  0
   53.0720   23.1480   44.8850 N   0  0  0  0  0  0  0  0  0  0  0  0
   56.4010   24.2870   44.6160 C   0  0  0  0  0  0  0  0  0  0  0  0
   57.3150   24.8530   43.7100 C   0  0  0  0  0  0  0  0  0  0  0  0
   57.7760   26.1600   43.8900 C   0  0  0  0  0  0  0  0  0  0  0  0
   57.3460   26.9230   44.9850 C   0  0  0  0  0  0  0  0  0  0  0  0
   57.8270   28.2690   45.1410 N   0  0  0  0  0  0  0  0  0  0  0  0
   56.9900   29.4330   45.0310 C   0  0  0  0  0  0  0  0  0  0  0  0
   55.7430   29.3220   45.1840 O   0  0  0  0  0  0  0  0  0  0  0  0
   57.5790   30.7720   44.7920 C   0  0  0  0  0  0  0  0  0  0  0  0
   57.5270   31.3510   43.5120 C   0  0  0  0  0  0  0  0  0  0  0  0
   58.0740   32.6150   43.2830 C   0  0  0  0  0  0  0  0  0  0  0  0
   58.6930   33.3100   44.3230 C   0  0  0  0  0  0  0  0  0  0  0  0
   58.7850   32.7370   45.5980 C   0  0  0  0  0  0  0  0  0  0  0  0
   59.5860   33.6070   46.9080 S   0  0  0  0  0  0  0  0  0  0  0  0
   60.4490   34.6930   46.3250 O   0  0  0  0  0  0  0  0  0  0  0  0
   58.5390   34.2640   47.7650 O   0  0  0  0  0  0  0  0  0  0  0  0
   60.5720   32.5600   47.9060 N   0  0  0  0  0  0  0  0  0  0  0  0
   61.3130   33.2920   48.9550 C   0  0  0  0  0  0  0  0  0  0  0  0
   62.6660   33.8710   48.4840 C   0  0  0  0  0  0  0  0  0  0  0  0
   63.3790   33.0050   47.4340 C   0  0  0  0  0  0  0  0  0  0  0  0
   62.8520   31.5740   47.4370 C   0  0  0  0  0  0  0  0  0  0  0  0
   61.3510   31.5710   47.1210 C   0  0  0  0  0  0  0  0  0  0  0  0
   58.2140   31.4770   45.8320 C   0  0  0  0  0  0  0  0  0  0  0  0
   56.4130   26.3700   45.8780 C   0  0  0  0  0  0  0  0  0  0  0  0
   55.9490   25.0640   45.6990 C   0  0  0  0  0  0  0  0  0  0  0  0
   54.0211   21.4804   47.6758 H   0  0  0  0  0  0  0  0  0  0  0  0
   51.6201   21.9079   48.2384 H   0  0  0  0  0  0  0  0  0  0  0  0
   50.1631   23.1364   46.6141 H   0  0  0  0  0  0  0  0  0  0  0  0
   51.1320   23.9208   44.4444 H   0  0  0  0  0  0  0  0  0  0  0  0
   57.6701   24.2624   42.8526 H   0  0  0  0  0  0  0  0  0  0  0  0
   58.4821   26.5938   43.1666 H   0  0  0  0  0  0  0  0  0  0  0  0
   58.8130   28.4000   45.4630 H   0  0  0  0  0  0  0  0  0  0  0  0
   57.0517   30.8040   42.6845 H   0  0  0  0  0  0  0  0  0  0  0  0
   58.0169   33.0641   42.2805 H   0  0  0  0  0  0  0  0  0  0  0  0
   59.1102   34.3114   44.1409 H   0  0  0  0  0  0  0  0  0  0  0  0
   60.6844   34.1239   49.3054 H   0  0  0  0  0  0  0  0  0  0  0  0
   61.5381   32.5657   49.7499 H   0  0  0  0  0  0  0  0  0  0  0  0
   62.4853   34.8651   48.0490 H   0  0  0  0  0  0  0  0  0  0  0  0
   63.3222   33.9105   49.3660 H   0  0  0  0  0  0  0  0  0  0  0  0
   63.2158   33.4437   46.4386 H   0  0  0  0  0  0  0  0  0  0  0  0
   64.4509   32.9781   47.6797 H   0  0  0  0  0  0  0  0  0  0  0  0
   63.3864   30.9867   46.6757 H   0  0  0  0  0  0  0  0  0  0  0  0
   63.0144   31.1298   48.4301 H   0  0  0  0  0  0  0  0  0  0  0  0
   61.2211   31.7967   46.0523 H   0  0  0  0  0  0  0  0  0  0  0  0
   60.9688   30.5754   47.3905 H   0  0  0  0  0  0  0  0  0  0  0  0
   58.2630   31.0355   46.8383 H   0  0  0  0  0  0  0  0  0  0  0  0
   56.0451   26.9692   46.7240 H   0  0  0  0  0  0  0  0  0  0  0  0
   55.2248   24.6399   46.4101 H   0  0  0  0  0  0  0  0  0  0  0  0
  1  2  2  0
  2  3  1  0
  3  4  2  3
  4  5  1  0
  5  6  2  0
  6  7  1  0
  7  8  2  0
  8  9  1  0
  2 10  1  0
 10 11  2  0
 11 12  1  0
 12 13  2  0
 13 14  1  0
 14 15  1  0
 15 16  2  0
 15 17  1  0
 17 18  2  0
 18 19  1  0
 19 20  2  0
 20 21  1  0
 21 22  1  0
 22 23  2  0
 22 24  2  0
 22 25  1  0
 25 26  1  0
 26 27  1  0
 27 28  1  0
 28 29  1  0
 29 30  1  0
 21 31  2  0
 13 32  1  0
 32 33  2  0
  9  4  1  0
 33 10  1  0
 31 17  1  0
 30 25  1  0
  5 34  1  0
  6 35  1  0
  7 36  1  0
  8 37  1  0
 11 38  1  0
 12 39  1  0
 14 40  1  0
 18 41  1  0
 19 42  1  0
 20 43  1  0
 26 44  1  0
 26 45  1  0
 27 46  1  0
 27 47  1  0
 28 48  1  0
 28 49  1  0
 29 50  1  0
 29 51  1  0
 30 52  1  0
 30 53  1  0
 31 54  1  0
 32 55  1  0
 33 56  1  0
M  CHG  1   9  -1
M  END
>  <UniqueID>  (8) 
8

>  <SMILES>  (8) 
O=C(N=c1cccc[n-]1)c1ccc(NC(=O)c2cccc(S(=O)(=O)N3CCCCC3)c2)cc1

>  <Energy>  (8) 
76.47607171770278

>  <Genealogy>  (8) 
O=C(N=c1cccc[n-]1)c1ccc(NC(=O)c2cccc(S(=O)(=O)N3CCCCC3)c2)cc1 (protonated)
O=C(N=c1cccc[n-]1)c1ccc(NC(=O)c2cccc(S(=O)(=O)N3CCCCC3)c2)cc1 (3D coordinates assigned)
O=C(N=c1cccc[n-]1)c1ccc(NC(=O)c2cccc(S(=O)(=O)N3CCCCC3)c2)cc1 (nonaromatic ring conformer: 76.47607171770278 kcal/mol)

>  <smiles>  (8) 
O=C(N=c1cccc[nH]1)c1ccc(NC(=O)c2cccc(S(=O)(=O)N3CCCCC3)c2)cc1

>  <score_type>  (8) 
oracle

>  <origin>  (8) 
adg

>  <m_score__min__energy>  (8) 
-11.58

>  <m_primary>  (8) 
energy

$$$$
8:0
     RDKit          3D

 57 59  0  0  0  0  0  0  0  0999 V2000
   57.3670   31.2490   51.4750 C   0  0  0  0  0  0  0  0  0  0  0  0
   58.2340   29.9930   51.4810 C   0  0  0  0  0  0  0  0  0  0  0  0
   59.2590   30.0560   50.4370 N   0  0  0  0  0  0  0  0  0  0  0  0
   59.5870   28.9400   49.5840 C   0  0  0  0  0  0  0  0  0  0  0  0
   60.5050   27.9520   49.9890 C   0  0  0  0  0  0  0  0  0  0  0  0
   60.8210   26.8900   49.1420 C   0  0  0  0  0  0  0  0  0  0  0  0
   60.2200   26.7880   47.8880 C   0  0  0  0  0  0  0  0  0  0  0  0
   59.2830   27.7450   47.4680 C   0  0  0  0  0  0  0  0  0  0  0  0
   58.6440   27.6000   46.1400 C   0  0  0  0  0  0  0  0  0  0  0  0
   58.7810   26.5200   45.5030 O   0  0  0  0  0  0  0  0  0  0  0  0
   57.8420   28.6580   45.5870 N   0  0  0  0  0  0  0  0  0  0  0  0
   57.2750   28.5840   44.2430 C   0  0  0  0  0  0  0  0  0  0  0  0
   56.3560   29.7380   44.0000 C   0  0  0  0  0  0  0  0  0  0  0  0
   55.5660   29.7140   43.0180 O   0  0  0  0  0  0  0  0  0  0  0  0
   56.3940   30.8710   44.8730 N   0  0  0  0  0  0  0  0  0  0  0  0
   57.0030   32.1470   44.5150 C   0  0  0  0  0  0  0  0  0  0  0  0
   58.2490   32.3710   45.3270 C   0  0  0  0  0  0  0  0  0  0  0  0
   58.5660   33.6600   45.7810 C   0  0  0  0  0  0  0  0  0  0  0  0
   59.7000   33.8710   46.5700 C   0  0  0  0  0  0  0  0  0  0  0  0
   60.5220   32.7920   46.9270 C   0  0  0  0  0  0  0  0  0  0  0  0
   61.7180   33.0120   47.7640 C   0  0  0  0  0  0  0  0  0  0  0  0
   62.9800   32.9710   47.1480 C   0  0  0  0  0  0  0  0  0  0  0  0
   64.1390   33.1970   47.8930 C   0  0  0  0  0  0  0  0  0  0  0  0
   64.0500   33.4630   49.2590 C   0  0  0  0  0  0  0  0  0  0  0  0
   62.8040   33.4930   49.8880 C   0  0  0  0  0  0  0  0  0  0  0  0
   61.6270   33.2610   49.1560 C   0  0  0  0  0  0  0  0  0  0  0  0
   60.0720   33.2510   50.0080 S   0  0  0  0  0  0  0  0  0  0  0  0
   60.2560   32.6020   51.6010 N   0  0  0  0  0  0  0  0  0  0  0  0
   59.5400   34.6520   50.1060 O   0  0  0  0  0  0  0  0  0  0  0  0
   59.0890   32.3910   49.2630 O   0  0  0  0  0  0  0  0  0  0  0  0
   60.2120   31.5040   46.4650 C   0  0  0  0  0  0  0  0  0  0  0  0
   59.0790   31.2930   45.6750 C   0  0  0  0  0  0  0  0  0  0  0  0
   58.9810   28.8320   48.3150 C   0  0  0  0  0  0  0  0  0  0  0  0
   58.1390   29.8090   47.8940 F   0  0  0  0  0  0  0  0  0  0  0  0
   57.1564   31.5541   52.5106 H   0  0  0  0  0  0  0  0  0  0  0  0
   57.8990   32.0593   50.9550 H   0  0  0  0  0  0  0  0  0  0  0  0
   56.4207   31.0389   50.9550 H   0  0  0  0  0  0  0  0  0  0  0  0
   58.7245   29.8995   52.4611 H   0  0  0  0  0  0  0  0  0  0  0  0
   57.5901   29.1226   51.2869 H   0  0  0  0  0  0  0  0  0  0  0  0
   59.7750   30.9560   50.3010 H   0  0  0  0  0  0  0  0  0  0  0  0
   60.9763   28.0183   50.9807 H   0  0  0  0  0  0  0  0  0  0  0  0
   61.5475   26.1296   49.4646 H   0  0  0  0  0  0  0  0  0  0  0  0
   60.4820   25.9517   47.2232 H   0  0  0  0  0  0  0  0  0  0  0  0
   57.5960   29.4830   46.1760 H   0  0  0  0  0  0  0  0  0  0  0  0
   58.0897   28.6078   43.5043 H   0  0  0  0  0  0  0  0  0  0  0  0
   56.7050   27.6481   44.1476 H   0  0  0  0  0  0  0  0  0  0  0  0
   57.2619   32.1393   43.4459 H   0  0  0  0  0  0  0  0  0  0  0  0
   56.2884   32.9574   44.7212 H   0  0  0  0  0  0  0  0  0  0  0  0
   57.9189   34.5087   45.5147 H   0  0  0  0  0  0  0  0  0  0  0  0
   59.9487   34.8864   46.9121 H   0  0  0  0  0  0  0  0  0  0  0  0
   63.0555   32.7594   46.0712 H   0  0  0  0  0  0  0  0  0  0  0  0
   65.1229   33.1652   47.4021 H   0  0  0  0  0  0  0  0  0  0  0  0
   64.9637   33.6496   49.8423 H   0  0  0  0  0  0  0  0  0  0  0  0
   62.7430   33.7002   50.9666 H   0  0  0  0  0  0  0  0  0  0  0  0
   60.7050   31.6630   51.5030 H   0  0  0  0  0  0  0  0  0  0  0  0
   60.8635   30.6569   46.7258 H   0  0  0  0  0  0  0  0  0  0  0  0
   58.8363   30.2790   45.3244 H   0  0  0  0  0  0  0  0  0  0  0  0
  1  2  1  0
  2  3  1  0
  3  4  1  0
  4  5  2  0
  5  6  1  0
  6  7  2  0
  7  8  1  0
  8  9  1  0
  9 10  2  0
  9 11  1  0
 11 12  1  0
 12 13  1  0
 13 14  2  0
 13 15  1  0
 15 16  1  0
 16 17  1  0
 17 18  2  0
 18 19  1  0
 19 20  2  0
 20 21  1  0
 21 22  2  0
 22 23  1  0
 23 24  2  0
 24 25  1  0
 25 26  2  0
 26 27  1  0
 27 28  1  0
 27 29  2  0
 27 30  2  0
 20 31  1  0
 31 32  2  0
  8 33  2  0
 33 34  1  0
 33  4  1  0
 32 17  1  0
 26 21  1  0
  1 35  1  0
  1 36  1  0
  1 37  1  0
  2 38  1  0
  2 39  1  0
  3 40  1  0
  5 41  1  0
  6 42  1  0
  7 43  1  0
 11 44  1  0
 12 45  1  0
 12 46  1  0
 16 47  1  0
 16 48  1  0
 18 49  1  0
 19 50  1  0
 22 51  1  0
 23 52  1  0
 24 53  1  0
 25 54  1  0
 28 55  1  0
 31 56  1  0
 32 57  1  0
M  CHG  2  15  -1  28  -1
M  END
>  <UniqueID>  (9) 
9

>  <SMILES>  (9) 
CCNc1cccc(C(=O)NCC(=O)[N-]Cc2ccc(-c3ccccc3S([NH-])(=O)=O)cc2)c1F

>  <Energy>  (9) 
63.57363573610823

>  <Genealogy>  (9) 
CCNc1cccc(C(=O)NCC(=O)[N-]Cc2ccc(-c3ccccc3S([NH-])(=O)=O)cc2)c1F (protonated)
CCNc1cccc(C(=O)NCC(=O)[N-]Cc2ccc(-c3ccccc3S([NH-])(=O)=O)cc2)c1F (3D coordinates assigned)
CCNc1cccc(C(=O)NCC(=O)[N-]Cc2ccc(-c3ccccc3S([NH-])(=O)=O)cc2)c1F (optimized conformer: 63.57363573610823 kcal/mol)

>  <smiles>  (9) 
CCNc1cccc(C(=O)NCC(=O)NCc2ccc(-c3ccccc3S(N)(=O)=O)cc2)c1F

>  <score_type>  (9) 
oracle

>  <origin>  (9) 
adg

>  <m_score__min__energy>  (9) 
-12.4

>  <m_primary>  (9) 
energy

$$$$
9:0
     RDKit          3D

 32 33  0  0  0  0  0  0  0  0999 V2000
   59.6790   30.5290   46.5530 C   0  0  0  0  0  0  0  0  0  0  0  0
   58.4460   30.6260   45.6840 C   0  0  0  0  0  0  0  0  0  0  0  0
   58.2320   31.7710   44.8780 C   0  0  0  0  0  0  0  0  0  0  0  0
   59.1900   32.8410   44.9020 N   0  0  0  0  0  0  0  0  0  0  0  0
   59.1410   34.2200   45.9500 S   0  0  0  0  0  0  0  0  0  0  0  0
   59.3880   35.4740   45.1580 O   0  0  0  0  0  0  0  0  0  0  0  0
   57.8010   34.2880   46.6260 O   0  0  0  0  0  0  0  0  0  0  0  0
   60.3900   34.0550   47.1680 C   0  0  0  0  0  0  0  0  0  0  0  0
   60.2670   34.4010   48.5060 C   0  0  0  0  0  0  0  0  0  0  0  0
   61.4280   34.1440   49.2450 C   0  0  0  0  0  0  0  0  0  0  0  0
   62.4500   33.5970   48.4820 C   0  0  0  0  0  0  0  0  0  0  0  0
   64.1780   33.1080   49.1200 Br  0  0  0  0  0  0  0  0  0  0  0  0
   61.9260   33.4300   46.8930 S   0  0  0  0  0  0  0  0  0  0  0  0
   57.0820   31.8460   44.0730 C   0  0  0  0  0  0  0  0  0  0  0  0
   56.1490   30.8110   44.0730 C   0  0  0  0  0  0  0  0  0  0  0  0
   56.3350   29.6950   44.8860 C   0  0  0  0  0  0  0  0  0  0  0  0
   55.3880   28.6780   44.8690 O   0  0  0  0  0  0  0  0  0  0  0  0
   57.4660   29.6030   45.7130 C   0  0  0  0  0  0  0  0  0  0  0  0
   57.6440   28.1570   46.7830 S   0  0  0  0  0  0  0  0  0  0  0  0
   57.0260   26.9600   45.5490 C   0  0  0  0  0  0  0  0  0  0  0  0
   55.9810   26.0790   46.1500 C   0  0  0  0  0  0  0  0  0  0  0  0
   54.7600   26.3120   45.9480 O   0  0  0  0  0  0  0  0  0  0  0  0
   56.3540   24.9800   46.9130 O   0  0  0  0  0  0  0  0  0  0  0  0
   59.3837   30.5522   47.6124 H   0  0  0  0  0  0  0  0  0  0  0  0
   60.2048   29.5867   46.3395 H   0  0  0  0  0  0  0  0  0  0  0  0
   60.3457   31.3775   46.3395 H   0  0  0  0  0  0  0  0  0  0  0  0
   59.3531   34.8321   48.9406 H   0  0  0  0  0  0  0  0  0  0  0  0
   61.5207   34.3542   50.3207 H   0  0  0  0  0  0  0  0  0  0  0  0
   56.9173   32.7289   43.4379 H   0  0  0  0  0  0  0  0  0  0  0  0
   55.2607   30.8755   43.4275 H   0  0  0  0  0  0  0  0  0  0  0  0
   56.5923   27.5078   44.6994 H   0  0  0  0  0  0  0  0  0  0  0  0
   57.8651   26.3348   45.2097 H   0  0  0  0  0  0  0  0  0  0  0  0
  1  2  1  0
  2  3  2  0
  3  4  1  0
  4  5  1  0
  5  6  2  0
  5  7  2  0
  5  8  1  0
  8  9  2  0
  9 10  1  0
 10 11  2  0
 11 12  1  0
 11 13  1  0
  3 14  1  0
 14 15  2  0
 15 16  1  0
 16 17  1  0
 16 18  2  0
 18 19  1  0
 19 20  1  0
 20 21  1  0
 21 22  2  0
 21 23  1  0
 18  2  1  0
 13  8  1  0
  1 24  1  0
  1 25  1  0
  1 26  1  0
  9 27  1  0
 10 28  1  0
 14 29  1  0
 15 30  1  0
 20 31  1  0
 20 32  1  0
M  CHG  3   4  -1  17  -1  23  -1
M  END
>  <UniqueID>  (10) 
10

>  <SMILES>  (10) 
Cc1c([N-]S(=O)(=O)c2ccc(Br)s2)ccc([O-])c1SCC(=O)[O-]

>  <Energy>  (10) 
60.66125737746649

>  <Genealogy>  (10) 
Cc1c([N-]S(=O)(=O)c2ccc(Br)s2)ccc([O-])c1SCC(=O)[O-] (protonated)
Cc1c([N-]S(=O)(=O)c2ccc(Br)s2)ccc([O-])c1SCC(=O)[O-] (3D coordinates assigned)
Cc1c([N-]S(=O)(=O)c2ccc(Br)s2)ccc([O-])c1SCC(=O)[O-] (optimized conformer: 60.66125737746649 kcal/mol)

>  <smiles>  (10) 
Cc1c(NS(=O)(=O)c2ccc(Br)s2)ccc(O)c1SCC(=O)O

>  <score_type>  (10) 
oracle

>  <origin>  (10) 
adg

>  <m_score__min__energy>  (10) 
-15.32

>  <m_primary>  (10) 
energy

$$$$
10:0
     RDKit          3D

 42 44  0  0  0  0  0  0  0  0999 V2000
   55.1440   26.3910   45.9240 N   0  0  0  0  0  0  0  0  0  0  0  0
   56.8450   26.6850   45.8320 S   0  0  0  0  0  0  0  0  0  0  0  0
   57.4750   25.7130   44.8730 O   0  0  0  0  0  0  0  0  0  0  0  0
   57.4550   26.4870   47.1930 O   0  0  0  0  0  0  0  0  0  0  0  0
   57.1290   28.3310   45.2760 C   0  0  0  0  0  0  0  0  0  0  0  0
   56.0680   29.0850   44.7590 C   0  0  0  0  0  0  0  0  0  0  0  0
   56.2790   30.3970   44.3270 C   0  0  0  0  0  0  0  0  0  0  0  0
   57.5590   30.9770   44.4120 C   0  0  0  0  0  0  0  0  0  0  0  0
   57.8090   32.3310   43.9870 N   0  0  0  0  0  0  0  0  0  0  0  0
   57.4150   33.5200   44.7460 C   0  0  0  0  0  0  0  0  0  0  0  0
   58.2800   33.6870   45.9730 C   0  0  0  0  0  0  0  0  0  0  0  0
   58.1600   32.7710   47.0330 C   0  0  0  0  0  0  0  0  0  0  0  0
   58.9470   32.8960   48.1910 C   0  0  0  0  0  0  0  0  0  0  0  0
   58.7900   31.9390   49.3140 C   0  0  0  0  0  0  0  0  0  0  0  0
   59.2740   30.6220   49.2050 C   0  0  0  0  0  0  0  0  0  0  0  0
   59.1230   29.7210   50.2630 C   0  0  0  0  0  0  0  0  0  0  0  0
   58.4910   30.1240   51.4410 C   0  0  0  0  0  0  0  0  0  0  0  0
   58.0060   31.4280   51.5640 C   0  0  0  0  0  0  0  0  0  0  0  0
   57.3950   31.8190   52.7090 F   0  0  0  0  0  0  0  0  0  0  0  0
   58.1530   32.3320   50.5070 C   0  0  0  0  0  0  0  0  0  0  0  0
   59.8810   33.9420   48.2680 C   0  0  0  0  0  0  0  0  0  0  0  0
   60.0220   34.8440   47.2130 C   0  0  0  0  0  0  0  0  0  0  0  0
   59.2310   34.7220   46.0620 C   0  0  0  0  0  0  0  0  0  0  0  0
   59.3920   35.6280   45.0130 O   0  0  0  0  0  0  0  0  0  0  0  0
   58.6170   30.2140   44.9270 C   0  0  0  0  0  0  0  0  0  0  0  0
   58.4050   28.9030   45.3610 C   0  0  0  0  0  0  0  0  0  0  0  0
   54.7500   27.0900   46.5950 H   0  0  0  0  0  0  0  0  0  0  0  0
   55.0633   28.6420   44.6927 H   0  0  0  0  0  0  0  0  0  0  0  0
   55.4404   30.9798   43.9183 H   0  0  0  0  0  0  0  0  0  0  0  0
   58.3640   32.4850   43.1130 H   0  0  0  0  0  0  0  0  0  0  0  0
   57.5227   34.4080   44.1058 H   0  0  0  0  0  0  0  0  0  0  0  0
   56.3693   33.4020   45.0664 H   0  0  0  0  0  0  0  0  0  0  0  0
   57.4391   31.9438   46.9549 H   0  0  0  0  0  0  0  0  0  0  0  0
   59.7748   30.2992   48.2804 H   0  0  0  0  0  0  0  0  0  0  0  0
   59.5026   28.6930   50.1674 H   0  0  0  0  0  0  0  0  0  0  0  0
   58.3750   29.4138   52.2730 H   0  0  0  0  0  0  0  0  0  0  0  0
   57.7682   33.3575   50.6082 H   0  0  0  0  0  0  0  0  0  0  0  0
   60.5059   34.0509   49.1667 H   0  0  0  0  0  0  0  0  0  0  0  0
   60.7594   35.6571   47.2849 H   0  0  0  0  0  0  0  0  0  0  0  0
   60.0260   36.4170   45.0840 H   0  0  0  0  0  0  0  0  0  0  0  0
   59.6240   30.6522   44.9899 H   0  0  0  0  0  0  0  0  0  0  0  0
   59.2421   28.3185   45.7705 H   0  0  0  0  0  0  0  0  0  0  0  0
  1  2  1  0
  2  3  2  0
  2  4  2  0
  2  5  1  0
  5  6  2  0
  6  7  1  0
  7  8  2  0
  8  9  1  0
  9 10  1  0
 10 11  1  0
 11 12  2  0
 12 13  1  0
 13 14  1  0
 14 15  2  0
 15 16  1  0
 16 17  2  0
 17 18  1  0
 18 19  1  0
 18 20  2  0
 13 21  2  0
 21 22  1  0
 22 23  2  0
 23 24  1  0
  8 25  1  0
 25 26  2  0
 26  5  1  0
 23 11  1  0
 20 14  1  0
  1 27  1  0
  6 28  1  0
  7 29  1  0
  9 30  1  0
 10 31  1  0
 10 32  1  0
 12 33  1  0
 15 34  1  0
 16 35  1  0
 17 36  1  0
 20 37  1  0
 21 38  1  0
 22 39  1  0
 24 40  1  0
 25 41  1  0
 26 42  1  0
M  CHG  1   1  -1
M  END
>  <UniqueID>  (11) 
11

>  <SMILES>  (11) 
[NH-]S(=O)(=O)c1ccc(NCc2cc(-c3cccc(F)c3)ccc2O)cc1

>  <Energy>  (11) 
49.243792227648704

>  <Genealogy>  (11) 
[NH-]S(=O)(=O)c1ccc(NCc2cc(-c3cccc(F)c3)ccc2O)cc1 (protonated)
[NH-]S(=O)(=O)c1ccc(NCc2cc(-c3cccc(F)c3)ccc2O)cc1 (3D coordinates assigned)
[NH-]S(=O)(=O)c1ccc(NCc2cc(-c3cccc(F)c3)ccc2O)cc1 (optimized conformer: 49.243792227648704 kcal/mol)

>  <smiles>  (11) 
NS(=O)(=O)c1ccc(NCc2cc(-c3cccc(F)c3)ccc2O)cc1

>  <score_type>  (11) 
oracle

>  <origin>  (11) 
adg

>  <m_score__min__energy>  (11) 
-10.92

>  <m_primary>  (11) 
energy

$$$$
11:0
     RDKit          3D

 56 57  0  0  0  0  0  0  0  0999 V2000
   57.8820   32.3300   41.7190 C   0  0  0  0  0  0  0  0  0  0  0  0
   56.9850   31.2060   42.2380 C   0  0  0  0  0  0  0  0  0  0  0  0
   57.2080   30.9010   43.7360 C   0  0  2  0  0  0  0  0  0  0  0  0
   56.2360   29.8080   44.2040 C   0  0  0  0  0  0  0  0  0  0  0  0
   57.0840   32.1500   44.6340 C   0  0  0  0  0  0  0  0  0  0  0  0
   57.5580   31.8950   45.9570 O   0  0  0  0  0  0  0  0  0  0  0  0
   57.7800   32.8890   46.9180 C   0  0  0  0  0  0  0  0  0  0  0  0
   56.8090   33.4740   47.4730 O   0  0  0  0  0  0  0  0  0  0  0  0
   59.1970   33.3250   47.2020 C   0  0  2  0  0  0  0  0  0  0  0  0
   59.9490   33.8230   45.9820 C   0  0  0  0  0  0  0  0  0  0  0  0
   59.2610   34.5430   44.8600 C   0  0  0  0  0  0  0  0  0  0  0  0
   61.2490   33.8130   45.9860 N   0  0  0  0  0  0  0  0  0  0  0  0
   62.0510   33.2610   47.0420 C   0  0  0  0  0  0  0  0  0  0  0  0
   63.5200   33.5730   47.0050 C   0  0  0  0  0  0  0  0  0  0  0  0
   61.4790   32.5020   48.0130 C   0  0  0  0  0  0  0  0  0  0  0  0
   62.2570   31.8470   49.1000 C   0  0  0  0  0  0  0  0  0  0  0  0
   62.0610   30.6270   49.3550 O   0  0  0  0  0  0  0  0  0  0  0  0
   63.2360   32.5530   49.8090 O   0  0  0  0  0  0  0  0  0  0  0  0
   62.9700   33.7880   50.4610 C   0  0  0  0  0  0  0  0  0  0  0  0
   59.9880   32.2050   47.9370 C   0  0  2  0  0  0  0  0  0  0  0  0
   59.7630   30.8180   47.3440 C   0  0  0  0  0  0  0  0  0  0  0  0
   58.9340   29.8730   47.9770 C   0  0  0  0  0  0  0  0  0  0  0  0
   58.7630   28.5990   47.4310 C   0  0  0  0  0  0  0  0  0  0  0  0
   59.4310   28.2370   46.2530 C   0  0  0  0  0  0  0  0  0  0  0  0
   59.2140   26.8820   45.6490 C   0  0  0  0  0  0  0  0  0  0  0  0
   60.2490   29.1780   45.6110 C   0  0  0  0  0  0  0  0  0  0  0  0
   60.4200   30.4530   46.1560 C   0  0  0  0  0  0  0  0  0  0  0  0
   58.3167   32.8748   42.5700 H   0  0  0  0  0  0  0  0  0  0  0  0
   58.6893   31.9018   41.1068 H   0  0  0  0  0  0  0  0  0  0  0  0
   57.2853   33.0222   41.1068 H   0  0  0  0  0  0  0  0  0  0  0  0
   55.9349   31.4995   42.0922 H   0  0  0  0  0  0  0  0  0  0  0  0
   57.2380   30.2956   41.6749 H   0  0  0  0  0  0  0  0  0  0  0  0
   58.2438   30.5447   43.8363 H   0  0  0  0  0  0  0  0  0  0  0  0
   56.2140   29.7832   45.3035 H   0  0  0  0  0  0  0  0  0  0  0  0
   55.2278   30.0258   43.8219 H   0  0  0  0  0  0  0  0  0  0  0  0
   56.5701   28.8321   43.8219 H   0  0  0  0  0  0  0  0  0  0  0  0
   57.6756   32.9663   44.1939 H   0  0  0  0  0  0  0  0  0  0  0  0
   56.0208   32.4250   44.6963 H   0  0  0  0  0  0  0  0  0  0  0  0
   59.1133   34.1966   47.8678 H   0  0  0  0  0  0  0  0  0  0  0  0
   58.5570   35.2797   45.2742 H   0  0  0  0  0  0  0  0  0  0  0  0
   60.0101   35.0591   44.2416 H   0  0  0  0  0  0  0  0  0  0  0  0
   58.7114   33.8181   44.2416 H   0  0  0  0  0  0  0  0  0  0  0  0
   63.9035   33.6545   48.0327 H   0  0  0  0  0  0  0  0  0  0  0  0
   64.0527   32.7680   46.4776 H   0  0  0  0  0  0  0  0  0  0  0  0
   63.6795   34.5251   46.4776 H   0  0  0  0  0  0  0  0  0  0  0  0
   63.0015   33.6415   51.5507 H   0  0  0  0  0  0  0  0  0  0  0  0
   63.7293   34.5281   50.1684 H   0  0  0  0  0  0  0  0  0  0  0  0
   61.9733   34.1499   50.1684 H   0  0  0  0  0  0  0  0  0  0  0  0
   59.5806   32.1979   48.9587 H   0  0  0  0  0  0  0  0  0  0  0  0
   58.4162   30.1402   48.9100 H   0  0  0  0  0  0  0  0  0  0  0  0
   58.1003   27.8754   47.9282 H   0  0  0  0  0  0  0  0  0  0  0  0
   59.0949   26.1381   46.4505 H   0  0  0  0  0  0  0  0  0  0  0  0
   58.3071   26.8989   45.0267 H   0  0  0  0  0  0  0  0  0  0  0  0
   60.0808   26.6149   45.0267 H   0  0  0  0  0  0  0  0  0  0  0  0
   60.7586   28.9108   44.6735 H   0  0  0  0  0  0  0  0  0  0  0  0
   61.0749   31.1781   45.6507 H   0  0  0  0  0  0  0  0  0  0  0  0
  1  2  1  0
  2  3  1  0
  3  4  1  0
  3  5  1  0
  5  6  1  0
  6  7  1  0
  7  8  2  0
  7  9  1  0
  9 10  1  0
 10 11  1  0
 10 12  2  0
 12 13  1  0
 13 14  1  0
 13 15  2  0
 15 16  1  0
 16 17  2  0
 16 18  1  0
 18 19  1  0
 15 20  1  0
 20 21  1  0
 21 22  2  0
 22 23  1  0
 23 24  2  0
 24 25  1  0
 24 26  1  0
 26 27  2  0
 20  9  1  0
 27 21  1  0
  1 28  1  0
  1 29  1  0
  1 30  1  0
  2 31  1  0
  2 32  1  0
  3 33  1  6
  4 34  1  0
  4 35  1  0
  4 36  1  0
  5 37  1  0
  5 38  1  0
  9 39  1  1
 11 40  1  0
 11 41  1  0
 11 42  1  0
 14 43  1  0
 14 44  1  0
 14 45  1  0
 19 46  1  0
 19 47  1  0
 19 48  1  0
 20 49  1  1
 22 50  1  0
 23 51  1  0
 25 52  1  0
 25 53  1  0
 25 54  1  0
 26 55  1  0
 27 56  1  0
M  END
>  <UniqueID>  (12) 
12

>  <SMILES>  (12) 
CC[C@H](C)COC(=O)[C@@H]1C(C)=NC(C)=C(C(=O)OC)C1c1ccc(C)cc1

>  <Energy>  (12) 
52.30295783556224

>  <Genealogy>  (12) 
CC[C@H](C)COC(=O)[C@@H]1C(C)=NC(C)=C(C(=O)OC)C1c1ccc(C)cc1 (chirality)
CC[C@H](C)COC(=O)[C@@H]1C(C)=NC(C)=C(C(=O)OC)C1c1ccc(C)cc1 (3D coordinates assigned)
CC[C@H](C)COC(=O)[C@@H]1C(C)=NC(C)=C(C(=O)OC)C1c1ccc(C)cc1 (nonaromatic ring conformer: 52.30295783556224 kcal/mol)

>  <smiles>  (12) 
CCC(C)COC(=O)C1C(C)=NC(C)=C(C(=O)OC)C1c1ccc(C)cc1

>  <score_type>  (12) 
oracle

>  <origin>  (12) 
adg

>  <m_score__min__energy>  (12) 
-7.5199999999999996

>  <m_primary>  (12) 
energy

$$$$
12:0
     RDKit          3D

 40 42  0  0  0  0  0  0  0  0999 V2000
   58.3939   33.2013   42.5684 H   0  0  0  0  0  0  0  0  0  0  0  0
   57.8430   32.5490   43.2620 C   0  0  0  0  0  0  0  0  0  0  0  0
   57.3250   30.9800   42.9450 S   0  0  0  0  0  0  0  0  0  0  0  0
   56.6340   30.7860   44.4690 C   0  0  0  0  0  0  0  0  0  0  0  0
   56.0260   29.7270   44.9190 N   0  0  0  0  0  0  0  0  0  0  0  0
   56.6130   28.4720   45.3050 C   0  0  0  0  0  0  0  0  0  0  0  0
   55.8940   27.4870   45.6170 O   0  0  0  0  0  0  0  0  0  0  0  0
   58.0350   28.3400   45.3950 N   0  0  0  0  0  0  0  0  0  0  0  0
   58.8350   28.6310   46.5520 C   0  0  0  0  0  0  0  0  0  0  0  0
   59.4590   27.5720   47.2240 C   0  0  0  0  0  0  0  0  0  0  0  0
   59.3135   26.5396   46.8734 H   0  0  0  0  0  0  0  0  0  0  0  0
   60.2650   27.8210   48.3370 C   0  0  0  0  0  0  0  0  0  0  0  0
   60.7496   26.9845   48.8618 H   0  0  0  0  0  0  0  0  0  0  0  0
   60.4570   29.1290   48.7850 C   0  0  0  0  0  0  0  0  0  0  0  0
   61.0905   29.3187   49.6640 H   0  0  0  0  0  0  0  0  0  0  0  0
   59.8480   30.2000   48.1220 C   0  0  0  0  0  0  0  0  0  0  0  0
   60.0950   31.5030   48.5740 O   0  0  0  0  0  0  0  0  0  0  0  0
   61.2560   32.2470   48.3130 C   0  0  0  0  0  0  0  0  0  0  0  0
   61.4680   33.4390   49.0170 C   0  0  0  0  0  0  0  0  0  0  0  0
   60.7327   33.7695   49.7654 H   0  0  0  0  0  0  0  0  0  0  0  0
   62.6080   34.2120   48.7750 C   0  0  0  0  0  0  0  0  0  0  0  0
   62.7730   35.1407   49.3409 H   0  0  0  0  0  0  0  0  0  0  0  0
   63.5370   33.8050   47.8150 C   0  0  0  0  0  0  0  0  0  0  0  0
   64.4370   34.4094   47.6287 H   0  0  0  0  0  0  0  0  0  0  0  0
   63.3220   32.6300   47.0920 C   0  0  0  0  0  0  0  0  0  0  0  0
   64.0478   32.3162   46.3273 H   0  0  0  0  0  0  0  0  0  0  0  0
   62.1870   31.8510   47.3370 C   0  0  0  0  0  0  0  0  0  0  0  0
   62.0222   30.9262   46.7647 H   0  0  0  0  0  0  0  0  0  0  0  0
   59.0540   29.9490   46.9890 C   0  0  0  0  0  0  0  0  0  0  0  0
   58.6016   30.7889   46.4414 H   0  0  0  0  0  0  0  0  0  0  0  0
   56.7930   31.8900   45.2250 N   0  0  0  0  0  0  0  0  0  0  0  0
   57.4510   32.8760   44.5580 C   0  0  0  0  0  0  0  0  0  0  0  0
   57.7710   34.1930   45.2020 C   0  0  0  0  0  0  0  0  0  0  0  0
   56.8319   34.7161   45.4354 H   0  0  0  0  0  0  0  0  0  0  0  0
   58.3803   34.7843   44.5026 H   0  0  0  0  0  0  0  0  0  0  0  0
   58.5520   34.0010   46.4680 C   0  0  0  0  0  0  0  0  0  0  0  0
   59.6000   34.6690   46.6680 O   0  0  0  0  0  0  0  0  0  0  0  0
   58.1380   33.0330   47.4320 N   0  0  0  0  0  0  0  0  0  0  0  0
   58.6610   32.9250   48.3300 H   0  0  0  0  0  0  0  0  0  0  0  0
   57.3240   32.4070   47.2440 H   0  0  0  0  0  0  0  0  0  0  0  0
  1  2  1  0
  2  3  1  0
  3  4  1  0
  4  5  2  0
  5  6  1  0
  6  7  2  0
  6  8  1  0
  8  9  1  0
  9 10  2  0
 10 11  1  0
 10 12  1  0
 12 13  1  0
 12 14  2  0
 14 15  1  0
 14 16  1  0
 16 17  1  0
 17 18  1  0
 18 19  2  0
 19 20  1  0
 19 21  1  0
 21 22  1  0
 21 23  2  0
 23 24  1  0
 23 25  1  0
 25 26  1  0
 25 27  2  0
 27 28  1  0
 16 29  2  0
 29 30  1  0
  4 31  1  0
 31 32  1  0
 32 33  1  0
 33 34  1  0
 33 35  1  0
 33 36  1  0
 36 37  2  0
 36 38  1  0
 38 39  1  0
 38 40  1  0
 32  2  2  0
 29  9  1  0
 27 18  1  0
M  CHG  2   8  -1  31  -1
M  END
>  <UniqueID>  (13) 
13

>  <SMILES>  (13) 
NC(=O)Cc1cs/c(=N\C(=O)[N-]c2cccc(Oc3ccccc3)c2)[n-]1

>  <Energy>  (13) 
80.06966922890942

>  <Genealogy>  (13) 
NC(=O)Cc1csc(=NC(=O)[N-]c2cccc(Oc3ccccc3)c2)[n-]1 (protonated)
NC(=O)Cc1cs/c(=N\C(=O)[N-]c2cccc(Oc3ccccc3)c2)[n-]1 (cis-trans isomerization)
NC(=O)Cc1cs/c(=N\C(=O)[N-]c2cccc(Oc3ccccc3)c2)[n-]1 (3D coordinates assigned)
NC(=O)Cc1cs/c(=N\C(=O)[N-]c2cccc(Oc3ccccc3)c2)[n-]1 (optimized conformer: 80.06966922890942 kcal/mol)

>  <smiles>  (13) 
NC(=O)Cc1csc(=NC(=O)Nc2cccc(Oc3ccccc3)c2)[nH]1

>  <score_type>  (13) 
oracle

>  <origin>  (13) 
adg

>  <m_score__min__energy>  (13) 
-10.619999999999999

>  <m_primary>  (13) 
energy

$$$$
13:0
     RDKit          3D

 53 56  0  0  1  0  0  0  0  0999 V2000
   54.3080   23.6220   46.4260 C   0  0  0  0  0  0  0  0  0  0  0  0
   55.4470   24.4790   46.2970 N   0  0  0  0  0  0  0  0  0  0  0  0
   56.2840   24.1380   45.1450 C   0  0  0  0  0  0  0  0  0  0  0  0
   57.0530   25.3910   44.7910 C   0  0  0  0  0  0  0  0  0  0  0  0
   57.5430   25.9820   46.0010 N   0  0  0  0  0  0  0  0  0  0  0  0
   57.9840   27.3500   46.0500 C   0  0  0  0  0  0  0  0  0  0  0  0
   58.8420   27.7690   46.9990 N   0  0  0  0  0  0  0  0  0  0  0  0
   57.9120   29.4970   45.1390 C   0  0  0  0  0  0  0  0  0  0  0  0
   57.4580   30.2820   44.2520 N   0  0  0  0  0  0  0  0  0  0  0  0
   60.3080   30.8540   48.0790 C   0  0  0  0  0  0  0  0  0  0  0  0
   59.4790   31.6080   48.8850 C   0  0  0  0  0  0  0  0  0  0  0  0
   59.7360   32.9650   49.0970 C   0  0  0  0  0  0  0  0  0  0  0  0
   60.8310   33.5260   48.4820 C   0  0  0  0  0  0  0  0  0  0  0  0
   61.6740   32.7860   47.6700 C   0  0  0  0  0  0  0  0  0  0  0  0
   63.1820   33.5890   46.8350 Br  0  0  0  0  0  0  0  0  0  0  0  0
   61.4170   31.4470   47.4640 C   0  0  0  0  0  0  0  0  0  0  0  0
   58.7590   29.9210   46.0740 N   0  0  0  0  0  0  0  0  0  0  0  0
   59.2030   29.0540   46.9770 C   0  0  0  0  0  0  0  0  0  0  0  0
   60.0240   29.4700   47.8790 N   0  0  0  0  0  0  0  0  0  0  0  0
   56.6820   31.4570   44.4960 C   0  0  0  0  0  0  0  0  0  0  0  0
   57.5410   32.6120   44.9400 C   0  0  0  0  0  0  0  0  0  0  0  0
   57.3790   33.1540   46.1990 C   0  0  0  0  0  0  0  0  0  0  0  0
   58.1500   34.2120   46.6350 C   0  0  0  0  0  0  0  0  0  0  0  0
   59.1160   34.7640   45.8190 C   0  0  0  0  0  0  0  0  0  0  0  0
   59.2900   34.2320   44.5580 C   0  0  0  0  0  0  0  0  0  0  0  0
   58.5020   33.1670   44.1370 C   0  0  0  0  0  0  0  0  0  0  0  0
   57.5200   28.2100   45.1230 N   0  0  0  0  0  0  0  0  0  0  0  0
   57.5900   25.1700   47.2000 C   0  0  0  0  0  0  0  0  0  0  0  0
   56.2680   24.5100   47.4920 C   0  0  0  0  0  0  0  0  0  0  0  0
   54.0909   23.4586   47.4919 H   0  0  0  0  0  0  0  0  0  0  0  0
   53.4389   24.0920   45.9426 H   0  0  0  0  0  0  0  0  0  0  0  0
   54.5188   22.6567   45.9426 H   0  0  0  0  0  0  0  0  0  0  0  0
   56.9787   23.3262   45.4064 H   0  0  0  0  0  0  0  0  0  0  0  0
   55.6744   23.7911   44.2976 H   0  0  0  0  0  0  0  0  0  0  0  0
   57.8978   25.1347   44.1348 H   0  0  0  0  0  0  0  0  0  0  0  0
   56.3965   26.0996   44.2649 H   0  0  0  0  0  0  0  0  0  0  0  0
   58.6085   31.1365   49.3645 H   0  0  0  0  0  0  0  0  0  0  0  0
   59.0791   33.5695   49.7396 H   0  0  0  0  0  0  0  0  0  0  0  0
   61.0433   34.5937   48.6398 H   0  0  0  0  0  0  0  0  0  0  0  0
   62.0790   30.8488   46.8207 H   0  0  0  0  0  0  0  0  0  0  0  0
   59.0490   30.9000   46.0730 H   0  0  0  0  0  0  0  0  0  0  0  0
   56.1594   31.7374   43.5696 H   0  0  0  0  0  0  0  0  0  0  0  0
   55.9666   31.2334   45.3011 H   0  0  0  0  0  0  0  0  0  0  0  0
   56.6169   32.7324   46.8709 H   0  0  0  0  0  0  0  0  0  0  0  0
   57.9928   34.6199   47.6444 H   0  0  0  0  0  0  0  0  0  0  0  0
   59.7319   35.6071   46.1652 H   0  0  0  0  0  0  0  0  0  0  0  0
   60.0528   34.6509   43.8852 H   0  0  0  0  0  0  0  0  0  0  0  0
   58.6549   32.7572   43.1277 H   0  0  0  0  0  0  0  0  0  0  0  0
   56.8580   27.8810   44.3910 H   0  0  0  0  0  0  0  0  0  0  0  0
   58.3544   24.3898   47.0698 H   0  0  0  0  0  0  0  0  0  0  0  0
   57.8321   25.8302   48.0459 H   0  0  0  0  0  0  0  0  0  0  0  0
   56.4446   23.4808   47.8379 H   0  0  0  0  0  0  0  0  0  0  0  0
   55.7452   25.0844   48.2709 H   0  0  0  0  0  0  0  0  0  0  0  0
  1  2  1  0
  2  3  1  0
  3  4  1  0
  4  5  1  0
  5  6  1  0
  6  7  2  0
  7  8  1  0
  8  9  2  0
  9 10  1  0
 10 11  2  0
 11 12  1  0
 12 13  2  0
 13 14  1  0
 14 15  1  0
 14 16  2  0
  8 17  1  0
 17 18  1  0
 18 19  2  0
 19 20  1  0
 20 21  1  0
 21 22  2  0
 22 23  1  0
 23 24  2  0
 24 25  1  0
 25 26  2  0
 18 27  1  0
  5 28  1  0
 28 29  1  0
 29  2  1  0
 27  6  1  0
 16 10  1  0
 26 21  1  0
  1 30  1  0
  1 31  1  0
  1 32  1  0
  3 33  1  0
  3 34  1  0
  4 35  1  0
  4 36  1  0
 11 37  1  0
 12 38  1  0
 13 39  1  0
 16 40  1  0
 17 41  1  0
 20 42  1  0
 20 43  1  0
 22 44  1  0
 23 45  1  0
 24 46  1  0
 25 47  1  0
 26 48  1  0
 27 49  1  0
 28 50  1  0
 28 51  1  0
 29 52  1  0
 29 53  1  0
M  END
>  <smiles>  (14) 
CN1CCN(c2nc(=Nc3cccc(Br)c3)[nH]c(=NCc3ccccc3)[nH]2)CC1

>  <score_type>  (14) 
oracle

>  <origin>  (14) 
adg

>  <m_score__min__energy>  (14) 
-8.9000000000000004

>  <m_primary>  (14) 
energy

$$$$
14:0
     RDKit          3D

 39 41  0  0  0  0  0  0  0  0999 V2000
   59.9970   34.5420   48.5540 C   0  0  0  0  0  0  0  0  0  0  0  0
   59.8940   33.3090   47.7070 C   0  0  0  0  0  0  0  0  0  0  0  0
   60.8190   32.2750   47.6550 C   0  0  0  0  0  0  0  0  0  0  0  0
   62.0860   32.1780   48.3380 N   0  0  0  0  0  0  0  0  0  0  0  0
   63.0610   33.1240   47.8400 C   0  0  0  0  0  0  0  0  0  0  0  0
   62.8580   33.8220   46.3620 S   0  0  0  0  0  0  0  0  0  0  0  0
   64.4010   33.0900   48.3590 N   0  0  0  0  0  0  0  0  0  0  0  0
   64.6890   32.8610   49.7150 N   0  0  0  0  0  0  0  0  0  0  0  0
   64.1840   33.5290   50.7630 C   0  0  0  0  0  0  0  0  0  0  0  0
   64.5420   32.9350   51.9180 N   0  0  0  0  0  0  0  0  0  0  0  0
   65.2580   31.8620   51.6020 N   0  0  0  0  0  0  0  0  0  0  0  0
   65.3330   31.8150   50.2580 C   0  0  0  0  0  0  0  0  0  0  0  0
   60.3110   31.3940   46.7230 C   0  0  0  0  0  0  0  0  0  0  0  0
   60.8410   30.3040   46.3730 O   0  0  0  0  0  0  0  0  0  0  0  0
   59.1460   31.8680   46.2390 N   0  0  0  0  0  0  0  0  0  0  0  0
   58.3070   31.2080   45.2740 C   0  0  0  0  0  0  0  0  0  0  0  0
   57.6990   29.9820   45.5850 C   0  0  0  0  0  0  0  0  0  0  0  0
   56.8730   29.3480   44.6520 C   0  0  0  0  0  0  0  0  0  0  0  0
   56.6450   29.9380   43.4050 C   0  0  0  0  0  0  0  0  0  0  0  0
   57.2390   31.1630   43.0920 C   0  0  0  0  0  0  0  0  0  0  0  0
   58.0640   31.8000   44.0240 C   0  0  0  0  0  0  0  0  0  0  0  0
   58.9020   33.0440   46.8170 N   0  0  0  0  0  0  0  0  0  0  0  0
   57.7660   33.9190   46.5110 C   0  0  0  0  0  0  0  0  0  0  0  0
   59.9734   34.2597   49.6169 H   0  0  0  0  0  0  0  0  0  0  0  0
   60.9416   35.0606   48.3332 H   0  0  0  0  0  0  0  0  0  0  0  0
   59.1515   35.2102   48.3332 H   0  0  0  0  0  0  0  0  0  0  0  0
   62.4720   31.2140   48.2150 H   0  0  0  0  0  0  0  0  0  0  0  0
   61.9230   32.3240   49.3570 H   0  0  0  0  0  0  0  0  0  0  0  0
   65.1990   33.1890   47.6910 H   0  0  0  0  0  0  0  0  0  0  0  0
   63.5644   34.4349   50.6896 H   0  0  0  0  0  0  0  0  0  0  0  0
   65.8492   31.0302   49.6856 H   0  0  0  0  0  0  0  0  0  0  0  0
   57.8731   29.5179   46.5670 H   0  0  0  0  0  0  0  0  0  0  0  0
   56.4024   28.3849   44.8990 H   0  0  0  0  0  0  0  0  0  0  0  0
   55.9976   29.4373   42.6701 H   0  0  0  0  0  0  0  0  0  0  0  0
   57.0575   31.6270   42.1113 H   0  0  0  0  0  0  0  0  0  0  0  0
   58.5242   32.7681   43.7772 H   0  0  0  0  0  0  0  0  0  0  0  0
   57.3104   34.2699   47.4487 H   0  0  0  0  0  0  0  0  0  0  0  0
   58.1157   34.7833   45.9274 H   0  0  0  0  0  0  0  0  0  0  0  0
   57.0196   33.3602   45.9274 H   0  0  0  0  0  0  0  0  0  0  0  0
  1  2  1  0
  2  3  2  0
  3  4  1  0
  4  5  1  0
  5  6  2  0
  5  7  1  0
  7  8  1  0
  8  9  1  0
  9 10  2  0
 10 11  1  0
 11 12  2  0
  3 13  1  0
 13 14  2  0
 13 15  1  0
 15 16  1  0
 16 17  2  0
 17 18  1  0
 18 19  2  0
 19 20  1  0
 20 21  2  0
 15 22  1  0
 22 23  1  0
 22  2  1  0
 12  8  1  0
 21 16  1  0
  1 24  1  0
  1 25  1  0
  1 26  1  0
  4 27  1  0
  4 28  1  0
  7 29  1  0
  9 30  1  0
 12 31  1  0
 17 32  1  0
 18 33  1  0
 19 34  1  0
 20 35  1  0
 21 36  1  0
 23 37  1  0
 23 38  1  0
 23 39  1  0
M  CHG  1   4   1
M  END
>  <UniqueID>  (15) 
14

>  <SMILES>  (15) 
Cc1c([NH2+]C(=S)Nn2cnnc2)c(=O)n(-c2ccccc2)n1C

>  <Energy>  (15) 
125.42870414841045

>  <Genealogy>  (15) 
Cc1c([NH2+]C(=S)Nn2cnnc2)c(=O)n(-c2ccccc2)n1C (protonated)
Cc1c([NH2+]C(=S)Nn2cnnc2)c(=O)n(-c2ccccc2)n1C (3D coordinates assigned)
Cc1c([NH2+]C(=S)Nn2cnnc2)c(=O)n(-c2ccccc2)n1C (optimized conformer: 125.42870414841045 kcal/mol)

>  <smiles>  (15) 
Cc1c(NC(=S)Nn2cnnc2)c(=O)n(-c2ccccc2)n1C

>  <score_type>  (15) 
oracle

>  <origin>  (15) 
adg

>  <m_score__min__energy>  (15) 
-6

>  <m_primary>  (15) 
energy

$$$$
15:0
     RDKit          3D

 40 42  0  0  0  0  0  0  0  0999 V2000
   55.2270   28.2850   44.8910 H   0  0  0  0  0  0  0  0  0  0  0  0
   55.5130   29.2350   45.2140 N   0  0  0  0  0  0  0  0  0  0  0  0
   56.1470   30.0450   44.4320 C   0  0  0  0  0  0  0  0  0  0  0  0
   56.7940   31.1460   44.8690 N   0  0  0  0  0  0  0  0  0  0  0  0
   57.3730   31.8170   43.8370 C   0  0  0  0  0  0  0  0  0  0  0  0
   58.1810   33.0580   44.0570 C   0  0  0  0  0  0  0  0  0  0  0  0
   59.2196   32.8754   43.7442 H   0  0  0  0  0  0  0  0  0  0  0  0
   57.7484   33.8774   43.4642 H   0  0  0  0  0  0  0  0  0  0  0  0
   58.1610   33.4290   45.4660 N   0  0  0  0  0  0  0  0  0  0  0  0
   59.2170   34.1460   46.1130 C   0  0  0  0  0  0  0  0  0  0  0  0
   59.2290   35.4060   46.0890 O   0  0  0  0  0  0  0  0  0  0  0  0
   60.2830   33.4220   46.8290 C   0  0  0  0  0  0  0  0  0  0  0  0
   60.1600   32.3470   47.7020 C   0  0  0  0  0  0  0  0  0  0  0  0
   58.6530   31.4720   48.1440 S   0  0  0  0  0  0  0  0  0  0  0  0
   59.0080   30.0960   47.0470 C   0  0  0  0  0  0  0  0  0  0  0  0
   59.7330   30.3100   45.8670 C   0  0  0  0  0  0  0  0  0  0  0  0
   60.0894   31.3203   45.6174 H   0  0  0  0  0  0  0  0  0  0  0  0
   60.0040   29.2430   45.0070 C   0  0  0  0  0  0  0  0  0  0  0  0
   60.5669   29.4152   44.0777 H   0  0  0  0  0  0  0  0  0  0  0  0
   59.5600   27.9560   45.3270 C   0  0  0  0  0  0  0  0  0  0  0  0
   59.7713   27.1167   44.6480 H   0  0  0  0  0  0  0  0  0  0  0  0
   58.8480   27.7360   46.5090 C   0  0  0  0  0  0  0  0  0  0  0  0
   58.5028   26.7227   46.7623 H   0  0  0  0  0  0  0  0  0  0  0  0
   58.5740   28.8030   47.3700 C   0  0  0  0  0  0  0  0  0  0  0  0
   58.0170   28.6274   48.3022 H   0  0  0  0  0  0  0  0  0  0  0  0
   61.4390   32.0580   48.1540 C   0  0  0  0  0  0  0  0  0  0  0  0
   61.8130   30.9530   49.0960 C   0  0  0  0  0  0  0  0  0  0  0  0
   61.6956   31.2999   50.1332 H   0  0  0  0  0  0  0  0  0  0  0  0
   61.1582   30.0863   48.9229 H   0  0  0  0  0  0  0  0  0  0  0  0
   62.8596   30.6621   48.9229 H   0  0  0  0  0  0  0  0  0  0  0  0
   62.3270   32.8850   47.5600 N   0  0  0  0  0  0  0  0  0  0  0  0
   63.7730   32.9120   47.7670 C   0  0  0  0  0  0  0  0  0  0  0  0
   63.9890   32.9160   48.8456 H   0  0  0  0  0  0  0  0  0  0  0  0
   64.2261   32.0222   47.3056 H   0  0  0  0  0  0  0  0  0  0  0  0
   64.1926   33.8181   47.3056 H   0  0  0  0  0  0  0  0  0  0  0  0
   61.6330   33.7230   46.7660 C   0  0  0  0  0  0  0  0  0  0  0  0
   62.0733   34.5270   46.1579 H   0  0  0  0  0  0  0  0  0  0  0  0
   57.1930   31.2420   42.5800 C   0  0  0  0  0  0  0  0  0  0  0  0
   57.5873   31.6311   41.6297 H   0  0  0  0  0  0  0  0  0  0  0  0
   56.2670   29.8480   42.7690 S   0  0  0  0  0  0  0  0  0  0  0  0
  1  2  1  0
  2  3  2  0
  3  4  1  0
  4  5  1  0
  5  6  1  0
  6  7  1  0
  6  8  1  0
  6  9  1  0
  9 10  1  0
 10 11  2  0
 10 12  1  0
 12 13  1  0
 13 14  1  0
 14 15  1  0
 15 16  2  0
 16 17  1  0
 16 18  1  0
 18 19  1  0
 18 20  2  0
 20 21  1  0
 20 22  1  0
 22 23  1  0
 22 24  2  0
 24 25  1  0
 13 26  2  0
 26 27  1  0
 27 28  1  0
 27 29  1  0
 27 30  1  0
 26 31  1  0
 31 32  1  0
 32 33  1  0
 32 34  1  0
 32 35  1  0
 31 36  1  0
 36 37  1  0
  5 38  2  0
 38 39  1  0
 38 40  1  0
 40  3  1  0
 36 12  2  0
 24 15  1  0
M  CHG  2   4  -1   9  -1
M  END
>  <UniqueID>  (16) 
15

>  <SMILES>  (16) 
[H]/N=c1\[n-]c(C[N-]C(=O)c2cn(C)c(C)c2Sc2ccccc2)cs1

>  <Energy>  (16) 
89.15597881428944

>  <Genealogy>  (16) 
Cc1c(Sc2ccccc2)c(C(=O)[N-]Cc2csc(=N)[n-]2)cn1C (protonated)
[H]/N=c1\[n-]c(C[N-]C(=O)c2cn(C)c(C)c2Sc2ccccc2)cs1 (cis-trans isomerization)
[H]/N=c1\[n-]c(C[N-]C(=O)c2cn(C)c(C)c2Sc2ccccc2)cs1 (3D coordinates assigned)
[H]/N=c1\[n-]c(C[N-]C(=O)c2cn(C)c(C)c2Sc2ccccc2)cs1 (optimized conformer: 89.15597881428944 kcal/mol)

>  <smiles>  (16) 
Cc1c(Sc2ccccc2)c(C(=O)NCc2csc(=N)[nH]2)cn1C

>  <score_type>  (16) 
oracle

>  <origin>  (16) 
adg

>  <m_score__min__energy>  (16) 
-11.26

>  <m_primary>  (16) 
energy

$$$$
16:0
     RDKit          3D

 19 19  0  0  0  0  0  0  0  0999 V2000
   57.6930   32.0270   42.3010 O   0  0  0  0  0  0  0  0  0  0  0  0
   57.7100   31.8060   43.5400 C   0  0  0  0  0  0  0  0  0  0  0  0
   57.7920   30.4490   44.0840 C   0  0  0  0  0  0  0  0  0  0  0  0
   58.9680   29.7970   44.1530 N   0  0  0  0  0  0  0  0  0  0  0  0
   59.0790   28.5700   44.6390 N   0  0  0  0  0  0  0  0  0  0  0  0
   57.9420   27.9570   45.0830 C   0  0  0  0  0  0  0  0  0  0  0  0
   58.1410   26.3020   45.7310 S   0  0  0  0  0  0  0  0  0  0  0  0
   56.9190   25.1720   45.0410 C   0  0  0  0  0  0  0  0  0  0  0  0
   55.6150   25.4330   45.7020 C   0  0  0  0  0  0  0  0  0  0  0  0
   54.8500   24.4760   46.0030 O   0  0  0  0  0  0  0  0  0  0  0  0
   55.1630   26.7060   46.0220 O   0  0  0  0  0  0  0  0  0  0  0  0
   56.7500   28.5810   45.0290 N   0  0  0  0  0  0  0  0  0  0  0  0
   56.6240   29.8390   44.5330 C   0  0  0  0  0  0  0  0  0  0  0  0
   55.5200   30.4210   44.4790 O   0  0  0  0  0  0  0  0  0  0  0  0
   57.6618   32.6575   44.2347 H   0  0  0  0  0  0  0  0  0  0  0  0
   60.0030   28.0860   44.6820 H   0  0  0  0  0  0  0  0  0  0  0  0
   56.8270   25.3402   43.9578 H   0  0  0  0  0  0  0  0  0  0  0  0
   57.2280   24.1302   45.2117 H   0  0  0  0  0  0  0  0  0  0  0  0
   55.1450   27.4690   45.3440 H   0  0  0  0  0  0  0  0  0  0  0  0
  1  2  2  0
  2  3  1  0
  3  4  2  0
  4  5  1  0
  5  6  1  0
  6  7  1  0
  7  8  1  0
  8  9  1  0
  9 10  2  0
  9 11  1  0
  6 12  2  0
 12 13  1  0
 13 14  2  0
 13  3  1  0
  2 15  1  0
  5 16  1  0
  8 17  1  0
  8 18  1  0
 11 19  1  0
M  END
>  <smiles>  (17) 
O=Cc1n[nH]c(SCC(=O)O)nc1=O

>  <score_type>  (17) 
oracle

>  <origin>  (17) 
adg

>  <m_score__min__energy>  (17) 
-6.8600000000000003

>  <m_primary>  (17) 
energy

$$$$
17:0
     RDKit          3D

 42 44  0  0  0  0  0  0  0  0999 V2000
   60.0240   33.3250   50.7410 N   0  0  0  0  0  0  0  0  0  0  0  0
   61.3840   33.6570   50.4550 C   0  0  0  0  0  0  0  0  0  0  0  0
   62.1740   33.8890   51.4090 O   0  0  0  0  0  0  0  0  0  0  0  0
   61.8890   33.6880   49.0620 C   0  0  0  0  0  0  0  0  0  0  0  0
   63.2700   33.5490   48.8390 C   0  0  0  0  0  0  0  0  0  0  0  0
   63.7830   33.5500   47.5400 C   0  0  0  0  0  0  0  0  0  0  0  0
   62.9250   33.6900   46.4510 C   0  0  0  0  0  0  0  0  0  0  0  0
   61.5530   33.8520   46.6550 C   0  0  0  0  0  0  0  0  0  0  0  0
   61.0240   33.8820   47.9590 C   0  0  0  0  0  0  0  0  0  0  0  0
   59.6200   34.0930   48.1820 N   0  0  0  0  0  0  0  0  0  0  0  0
   58.5500   33.1940   47.8610 C   0  0  0  0  0  0  0  0  0  0  0  0
   57.8730   32.6610   48.7810 O   0  0  0  0  0  0  0  0  0  0  0  0
   58.2680   32.8530   46.4460 C   0  0  0  0  0  0  0  0  0  0  0  0
   58.2920   33.8510   45.4550 C   0  0  0  0  0  0  0  0  0  0  0  0
   58.0280   33.5290   44.1210 C   0  0  0  0  0  0  0  0  0  0  0  0
   57.7520   32.2100   43.7590 C   0  0  0  0  0  0  0  0  0  0  0  0
   57.7450   31.1990   44.7240 C   0  0  0  0  0  0  0  0  0  0  0  0
   57.4490   29.8540   44.3130 N   0  0  0  0  0  0  0  0  0  0  0  0
   56.6350   28.9020   45.0120 C   0  0  0  0  0  0  0  0  0  0  0  0
   55.3840   29.0450   44.9790 O   0  0  0  0  0  0  0  0  0  0  0  0
   57.2160   27.7250   45.7060 C   0  0  0  0  0  0  0  0  0  0  0  0
   58.6050   27.6390   45.9090 C   0  0  0  0  0  0  0  0  0  0  0  0
   59.1600   26.5390   46.5690 C   0  0  0  0  0  0  0  0  0  0  0  0
   58.3380   25.5050   47.0190 C   0  0  0  0  0  0  0  0  0  0  0  0
   56.9600   25.5670   46.8080 C   0  0  0  0  0  0  0  0  0  0  0  0
   56.3940   26.6680   46.1540 C   0  0  0  0  0  0  0  0  0  0  0  0
   55.0150   26.7110   45.9740 O   0  0  0  0  0  0  0  0  0  0  0  0
   57.9780   31.5280   46.0720 C   0  0  0  0  0  0  0  0  0  0  0  0
   59.6710   33.3570   51.7230 H   0  0  0  0  0  0  0  0  0  0  0  0
   59.3930   32.9600   49.9950 H   0  0  0  0  0  0  0  0  0  0  0  0
   63.9523   33.4385   49.6948 H   0  0  0  0  0  0  0  0  0  0  0  0
   64.8652   33.4402   47.3764 H   0  0  0  0  0  0  0  0  0  0  0  0
   63.3294   33.6729   45.4282 H   0  0  0  0  0  0  0  0  0  0  0  0
   60.8810   33.9569   45.7905 H   0  0  0  0  0  0  0  0  0  0  0  0
   58.5199   34.8910   45.7317 H   0  0  0  0  0  0  0  0  0  0  0  0
   58.0378   34.3176   43.3542 H   0  0  0  0  0  0  0  0  0  0  0  0
   57.5387   31.9645   42.7082 H   0  0  0  0  0  0  0  0  0  0  0  0
   59.2602   28.4443   45.5453 H   0  0  0  0  0  0  0  0  0  0  0  0
   60.2464   26.4883   46.7339 H   0  0  0  0  0  0  0  0  0  0  0  0
   58.7763   24.6411   47.5401 H   0  0  0  0  0  0  0  0  0  0  0  0
   56.3153   24.7469   47.1572 H   0  0  0  0  0  0  0  0  0  0  0  0
   57.9330   30.7422   46.8404 H   0  0  0  0  0  0  0  0  0  0  0  0
  1  2  1  0
  2  3  2  0
  2  4  1  0
  4  5  2  0
  5  6  1  0
  6  7  2  0
  7  8  1  0
  8  9  2  0
  9 10  1  0
 10 11  1  0
 11 12  2  0
 11 13  1  0
 13 14  2  0
 14 15  1  0
 15 16  2  0
 16 17  1  0
 17 18  1  0
 18 19  1  0
 19 20  2  0
 19 21  1  0
 21 22  2  0
 22 23  1  0
 23 24  2  0
 24 25  1  0
 25 26  2  0
 26 27  1  0
 17 28  2  0
  9  4  1  0
 28 13  1  0
 26 21  1  0
  1 29  1  0
  1 30  1  0
  5 31  1  0
  6 32  1  0
  7 33  1  0
  8 34  1  0
 14 35  1  0
 15 36  1  0
 16 37  1  0
 22 38  1  0
 23 39  1  0
 24 40  1  0
 25 41  1  0
 28 42  1  0
M  CHG  3  10  -1  18  -1  27  -1
M  END
>  <UniqueID>  (18) 
16

>  <SMILES>  (18) 
NC(=O)c1ccccc1[N-]C(=O)c1cccc([N-]C(=O)c2ccccc2[O-])c1

>  <Energy>  (18) 
59.17556247078529

>  <Genealogy>  (18) 
NC(=O)c1ccccc1[N-]C(=O)c1cccc([N-]C(=O)c2ccccc2[O-])c1 (protonated)
NC(=O)c1ccccc1[N-]C(=O)c1cccc([N-]C(=O)c2ccccc2[O-])c1 (3D coordinates assigned)
NC(=O)c1ccccc1[N-]C(=O)c1cccc([N-]C(=O)c2ccccc2[O-])c1 (optimized conformer: 59.17556247078529 kcal/mol)

>  <smiles>  (18) 
NC(=O)c1ccccc1NC(=O)c1cccc(NC(=O)c2ccccc2O)c1

>  <score_type>  (18) 
oracle

>  <origin>  (18) 
adg

>  <m_score__min__energy>  (18) 
-14.960000000000001

>  <m_primary>  (18) 
energy

$$$$
18:0
     RDKit          3D

 50 52  0  0  0  0  0  0  0  0999 V2000
   56.8087   30.8740   41.1868 H   0  0  0  0  0  0  0  0  0  0  0  0
   57.0460   31.1640   42.2210 C   0  0  0  0  0  0  0  0  0  0  0  0
   57.7870   32.3230   42.4700 C   0  0  0  0  0  0  0  0  0  0  0  0
   58.1323   32.9450   41.6310 H   0  0  0  0  0  0  0  0  0  0  0  0
   58.0900   32.6930   43.7850 C   0  0  0  0  0  0  0  0  0  0  0  0
   58.6771   33.6032   43.9769 H   0  0  0  0  0  0  0  0  0  0  0  0
   57.6470   31.9060   44.8610 C   0  0  0  0  0  0  0  0  0  0  0  0
   58.0090   32.2880   46.2700 C   0  0  0  0  0  0  0  0  0  0  0  0
   57.2092   31.9577   46.9491 H   0  0  0  0  0  0  0  0  0  0  0  0
   58.1279   33.3805   46.3177 H   0  0  0  0  0  0  0  0  0  0  0  0
   59.2760   31.6600   46.6770 N   0  0  0  0  0  0  0  0  0  0  0  0
   59.4040   30.2250   46.6400 C   0  0  0  0  0  0  0  0  0  0  0  0
   60.0390   29.5980   45.5570 C   0  0  0  0  0  0  0  0  0  0  0  0
   60.4810   30.2072   44.7548 H   0  0  0  0  0  0  0  0  0  0  0  0
   60.1130   28.2040   45.4920 C   0  0  0  0  0  0  0  0  0  0  0  0
   60.6322   27.7222   44.6504 H   0  0  0  0  0  0  0  0  0  0  0  0
   59.5300   27.4180   46.4920 C   0  0  0  0  0  0  0  0  0  0  0  0
   59.5730   25.9870   46.3730 N   0  0  0  0  0  0  0  0  0  0  0  0
   58.6030   25.1960   46.6410 N   0  0  0  0  0  0  0  0  0  0  0  0
   57.8260   24.4860   45.6610 C   0  0  0  0  0  0  0  0  0  0  0  0
   58.3550   23.3040   45.1290 C   0  0  0  0  0  0  0  0  0  0  0  0
   59.3689   22.9849   45.4121 H   0  0  0  0  0  0  0  0  0  0  0  0
   57.6080   22.5270   44.2430 C   0  0  0  0  0  0  0  0  0  0  0  0
   58.0309   21.5963   43.8369 H   0  0  0  0  0  0  0  0  0  0  0  0
   56.3250   22.9300   43.8720 C   0  0  0  0  0  0  0  0  0  0  0  0
   55.7291   22.3054   43.1903 H   0  0  0  0  0  0  0  0  0  0  0  0
   55.7960   24.1240   44.3640 C   0  0  0  0  0  0  0  0  0  0  0  0
   54.7855   24.4372   44.0627 H   0  0  0  0  0  0  0  0  0  0  0  0
   56.5440   24.9320   45.2430 C   0  0  0  0  0  0  0  0  0  0  0  0
   55.9860   26.2390   45.6630 C   0  0  0  0  0  0  0  0  0  0  0  0
   54.7730   26.3370   45.9910 O   0  0  0  0  0  0  0  0  0  0  0  0
   56.7780   27.3800   45.6710 O   0  0  0  0  0  0  0  0  0  0  0  0
   58.9470   28.0430   47.6070 C   0  0  0  0  0  0  0  0  0  0  0  0
   58.5412   27.4330   48.4275 H   0  0  0  0  0  0  0  0  0  0  0  0
   58.8810   29.4360   47.6770 C   0  0  0  0  0  0  0  0  0  0  0  0
   58.4165   29.9181   48.5498 H   0  0  0  0  0  0  0  0  0  0  0  0
   60.4730   32.4850   46.9310 C   0  0  0  0  0  0  0  0  0  0  0  0
   61.3587   31.9507   46.5569 H   0  0  0  0  0  0  0  0  0  0  0  0
   60.5425   32.6592   48.0149 H   0  0  0  0  0  0  0  0  0  0  0  0
   60.3870   33.8510   46.2350 C   0  0  0  0  0  0  0  0  0  0  0  0
   59.8329   33.7325   45.2922 H   0  0  0  0  0  0  0  0  0  0  0  0
   61.4145   34.2018   46.0584 H   0  0  0  0  0  0  0  0  0  0  0  0
   59.6790   34.8990   47.0910 C   0  0  0  0  0  0  0  0  0  0  0  0
   59.8344   34.6689   48.1554 H   0  0  0  0  0  0  0  0  0  0  0  0
   60.0905   35.8942   46.8671 H   0  0  0  0  0  0  0  0  0  0  0  0
   58.6021   34.8887   46.8671 H   0  0  0  0  0  0  0  0  0  0  0  0
   56.9060   30.7390   44.6030 C   0  0  0  0  0  0  0  0  0  0  0  0
   56.5609   30.1120   45.4384 H   0  0  0  0  0  0  0  0  0  0  0  0
   56.6070   30.3740   43.2870 C   0  0  0  0  0  0  0  0  0  0  0  0
   56.0243   29.4621   43.0899 H   0  0  0  0  0  0  0  0  0  0  0  0
  1  2  1  0
  2  3  2  0
  3  4  1  0
  3  5  1  0
  5  6  1  0
  5  7  2  0
  7  8  1  0
  8  9  1  0
  8 10  1  0
  8 11  1  0
 11 12  1  0
 12 13  2  0
 13 14  1  0
 13 15  1  0
 15 16  1  0
 15 17  2  0
 17 18  1  0
 18 19  2  0
 19 20  1  0
 20 21  2  0
 21 22  1  0
 21 23  1  0
 23 24  1  0
 23 25  2  0
 25 26  1  0
 25 27  1  0
 27 28  1  0
 27 29  2  0
 29 30  1  0
 30 31  2  0
 30 32  1  0
 17 33  1  0
 33 34  1  0
 33 35  2  0
 35 36  1  0
 11 37  1  0
 37 38  1  0
 37 39  1  0
 37 40  1  0
 40 41  1  0
 40 42  1  0
 40 43  1  0
 43 44  1  0
 43 45  1  0
 43 46  1  0
  7 47  1  0
 47 48  1  0
 47 49  2  0
 49 50  1  0
 49  2  1  0
 35 12  1  0
 29 20  1  0
M  CHG  1  32  -1
M  END
>  <UniqueID>  (19) 
17

>  <SMILES>  (19) 
CCCN(Cc1ccccc1)c1ccc(/N=N\c2ccccc2C(=O)[O-])cc1

>  <Energy>  (19) 
67.97061441963399

>  <Genealogy>  (19) 
CCCN(Cc1ccccc1)c1ccc(N=Nc2ccccc2C(=O)[O-])cc1 (protonated)
CCCN(Cc1ccccc1)c1ccc(/N=N\c2ccccc2C(=O)[O-])cc1 (cis-trans isomerization)
CCCN(Cc1ccccc1)c1ccc(/N=N\c2ccccc2C(=O)[O-])cc1 (3D coordinates assigned)
CCCN(Cc1ccccc1)c1ccc(/N=N\c2ccccc2C(=O)[O-])cc1 (optimized conformer: 67.97061441963399 kcal/mol)

>  <smiles>  (19) 
CCCN(Cc1ccccc1)c1ccc(N=Nc2ccccc2C(=O)O)cc1

>  <score_type>  (19) 
oracle

>  <origin>  (19) 
adg

>  <m_score__min__energy>  (19) 
-11.59

>  <m_primary>  (19) 
energy

$$$$
19:0
     RDKit          3D

 37 38  0  0  1  0  0  0  0  0999 V2000
   61.1900   30.6070   49.5740 N   0  0  0  0  0  0  0  0  0  0  0  0
   60.7020   29.2620   49.3350 C   0  0  0  0  0  0  0  0  0  0  0  0
   61.1310   28.3930   50.1130 O   0  0  0  0  0  0  0  0  0  0  0  0
   59.7900   29.1180   48.2330 C   0  0  0  0  0  0  0  0  0  0  0  0
   59.6930   27.8170   47.7100 C   0  0  0  0  0  0  0  0  0  0  0  0
   58.9050   27.5010   46.6830 N   0  0  0  0  0  0  0  0  0  0  0  0
   59.0280   30.0670   47.6400 C   0  0  0  0  0  0  0  0  0  0  0  0
   58.9170   31.2310   48.0540 N   0  0  0  0  0  0  0  0  0  0  0  0
   57.7750   28.2220   43.7640 C   0  0  0  0  0  0  0  0  0  0  0  0
   56.8220   29.1970   43.0790 C   0  0  0  0  0  0  0  0  0  0  0  0
   56.1400   29.9060   44.2230 C   0  0  0  0  0  0  0  0  0  0  0  0
   56.5290   31.0640   44.5240 O   0  0  0  0  0  0  0  0  0  0  0  0
   55.1100   29.3340   44.9420 O   0  0  0  0  0  0  0  0  0  0  0  0
   58.2250   29.7090   46.5800 N   0  0  0  0  0  0  0  0  0  0  0  0
   58.1740   28.4550   46.1220 C   0  0  0  0  0  0  0  0  0  0  0  0
   57.4240   28.1700   45.1400 N   0  0  0  0  0  0  0  0  0  0  0  0
   58.8950   32.3870   47.2860 C   0  0  0  0  0  0  0  0  0  0  0  0
   60.1150   33.0690   47.1200 C   0  0  0  0  0  0  0  0  0  0  0  0
   60.1590   34.2000   46.3020 C   0  0  0  0  0  0  0  0  0  0  0  0
   59.0110   34.6430   45.6640 C   0  0  0  0  0  0  0  0  0  0  0  0
   57.7900   33.9720   45.8220 C   0  0  0  0  0  0  0  0  0  0  0  0
   56.7140   34.4670   45.1670 F   0  0  0  0  0  0  0  0  0  0  0  0
   57.7400   32.8520   46.6290 C   0  0  0  0  0  0  0  0  0  0  0  0
   60.5690   31.4380   49.4490 H   0  0  0  0  0  0  0  0  0  0  0  0
   62.1780   30.7580   49.8780 H   0  0  0  0  0  0  0  0  0  0  0  0
   60.2967   27.0213   48.1707 H   0  0  0  0  0  0  0  0  0  0  0  0
   58.8530   26.5220   46.3130 H   0  0  0  0  0  0  0  0  0  0  0  0
   58.8119   28.5725   43.6548 H   0  0  0  0  0  0  0  0  0  0  0  0
   57.6980   27.2237   43.3086 H   0  0  0  0  0  0  0  0  0  0  0  0
   57.3768   29.9105   42.4519 H   0  0  0  0  0  0  0  0  0  0  0  0
   56.1101   28.6927   42.4090 H   0  0  0  0  0  0  0  0  0  0  0  0
   55.1410   28.3510   45.2520 H   0  0  0  0  0  0  0  0  0  0  0  0
   57.6450   30.4200   46.1230 H   0  0  0  0  0  0  0  0  0  0  0  0
   61.0237   32.7151   47.6289 H   0  0  0  0  0  0  0  0  0  0  0  0
   61.1070   34.7406   46.1637 H   0  0  0  0  0  0  0  0  0  0  0  0
   59.0586   35.5358   45.0231 H   0  0  0  0  0  0  0  0  0  0  0  0
   56.7874   32.3177   46.7597 H   0  0  0  0  0  0  0  0  0  0  0  0
  1  2  1  0
  2  3  2  0
  2  4  1  0
  4  5  2  0
  5  6  1  0
  6  7  1  0
  7  8  2  0
  8  9  1  0
  9 10  1  0
 10 11  1  0
 11 12  2  0
 11 13  1  0
  7 14  1  0
 14 15  1  0
 15 16  2  0
 16 17  1  0
 17 18  2  0
 18 19  1  0
 19 20  2  0
 20 21  1  0
 21 22  1  0
 21 23  2  0
 15  4  1  0
 23 17  1  0
  1 24  1  0
  1 25  1  0
  5 26  1  0
  6 27  1  0
  9 28  1  0
  9 29  1  0
 10 30  1  0
 10 31  1  0
 13 32  1  0
 14 33  1  0
 18 34  1  0
 19 35  1  0
 20 36  1  0
 23 37  1  0
M  END
>  <smiles>  (20) 
NC(=O)c1c[nH]c(=NCCC(=O)O)[nH]c1=Nc1cccc(F)c1

>  <score_type>  (20) 
oracle

>  <origin>  (20) 
adg

>  <m_score__min__energy>  (20) 
-7.2800000000000002

>  <m_primary>  (20) 
energy

$$$$
20:0
     RDKit          3D

 42 44  0  0  0  0  0  0  0  0999 V2000
   54.7340   25.9030   45.6670 O   0  0  0  0  0  0  0  0  0  0  0  0
   55.7240   26.5960   46.0180 C   0  0  0  0  0  0  0  0  0  0  0  0
   56.6400   26.0600   46.9810 N   0  0  0  0  0  0  0  0  0  0  0  0
   58.0520   26.3110   47.0450 C   0  0  0  0  0  0  0  0  0  0  0  0
   58.9170   25.4710   46.3320 C   0  0  0  0  0  0  0  0  0  0  0  0
   60.3000   25.6750   46.3810 C   0  0  0  0  0  0  0  0  0  0  0  0
   60.8280   26.7120   47.1550 C   0  0  0  0  0  0  0  0  0  0  0  0
   59.9740   27.5360   47.8920 C   0  0  0  0  0  0  0  0  0  0  0  0
   60.4890   28.5300   48.6600 F   0  0  0  0  0  0  0  0  0  0  0  0
   58.5920   27.3320   47.8490 C   0  0  0  0  0  0  0  0  0  0  0  0
   55.8980   27.8980   45.4450 N   0  0  0  0  0  0  0  0  0  0  0  0
   57.1490   28.5640   45.2200 C   0  0  0  0  0  0  0  0  0  0  0  0
   57.4670   29.7580   45.8930 C   0  0  0  0  0  0  0  0  0  0  0  0
   58.7240   30.3590   45.7250 C   0  0  0  0  0  0  0  0  0  0  0  0
   59.0560   31.5590   46.4450 N   0  0  0  0  0  0  0  0  0  0  0  0
   60.0090   31.5650   47.5560 C   0  0  0  0  0  0  0  0  0  0  0  0
   61.2600   32.4130   47.2360 C   0  0  0  0  0  0  0  0  0  0  0  0
   61.0180   33.6700   46.3610 C   0  0  0  0  0  0  0  0  0  0  0  0
   59.6230   34.2830   46.5160 C   0  0  0  0  0  0  0  0  0  0  0  0
   58.4220   33.0940   45.9640 S   0  0  0  0  0  0  0  0  0  0  0  0
   58.3050   33.1610   44.4680 O   0  0  0  0  0  0  0  0  0  0  0  0
   57.0880   33.3420   46.6060 O   0  0  0  0  0  0  0  0  0  0  0  0
   59.6600   29.7670   44.8660 C   0  0  0  0  0  0  0  0  0  0  0  0
   59.3500   28.5840   44.1920 C   0  0  0  0  0  0  0  0  0  0  0  0
   58.1040   27.9740   44.3720 C   0  0  0  0  0  0  0  0  0  0  0  0
   57.8360   26.7850   43.6920 O   0  0  0  0  0  0  0  0  0  0  0  0
   58.5065   24.6466   45.7304 H   0  0  0  0  0  0  0  0  0  0  0  0
   60.9727   25.0185   45.8097 H   0  0  0  0  0  0  0  0  0  0  0  0
   61.9148   26.8792   47.1838 H   0  0  0  0  0  0  0  0  0  0  0  0
   57.9245   27.9714   48.4453 H   0  0  0  0  0  0  0  0  0  0  0  0
   56.7239   30.2244   46.5566 H   0  0  0  0  0  0  0  0  0  0  0  0
   59.5150   31.9815   48.4462 H   0  0  0  0  0  0  0  0  0  0  0  0
   60.3347   30.5291   47.7319 H   0  0  0  0  0  0  0  0  0  0  0  0
   61.6958   32.7447   48.1900 H   0  0  0  0  0  0  0  0  0  0  0  0
   61.9198   31.7606   46.6453 H   0  0  0  0  0  0  0  0  0  0  0  0
   61.7622   34.4314   46.6375 H   0  0  0  0  0  0  0  0  0  0  0  0
   61.1074   33.3480   45.3130 H   0  0  0  0  0  0  0  0  0  0  0  0
   59.4417   34.5311   47.5722 H   0  0  0  0  0  0  0  0  0  0  0  0
   59.5462   35.2029   45.9178 H   0  0  0  0  0  0  0  0  0  0  0  0
   60.6441   30.2368   44.7220 H   0  0  0  0  0  0  0  0  0  0  0  0
   60.0893   28.1294   43.5161 H   0  0  0  0  0  0  0  0  0  0  0  0
   56.9250   26.3430   43.7100 H   0  0  0  0  0  0  0  0  0  0  0  0
  1  2  2  0
  2  3  1  0
  3  4  1  0
  4  5  2  0
  5  6  1  0
  6  7  2  0
  7  8  1  0
  8  9  1  0
  8 10  2  0
  2 11  1  0
 11 12  1  0
 12 13  2  0
 13 14  1  0
 14 15  1  0
 15 16  1  0
 16 17  1  0
 17 18  1  0
 18 19  1  0
 19 20  1  0
 20 21  2  0
 20 22  2  0
 14 23  2  0
 23 24  1  0
 24 25  2  0
 25 26  1  0
 10  4  1  0
 25 12  1  0
 20 15  1  0
  5 27  1  0
  6 28  1  0
  7 29  1  0
 10 30  1  0
 13 31  1  0
 16 32  1  0
 16 33  1  0
 17 34  1  0
 17 35  1  0
 18 36  1  0
 18 37  1  0
 19 38  1  0
 19 39  1  0
 23 40  1  0
 24 41  1  0
 26 42  1  0
M  CHG  2   3  -1  11  -1
M  END
>  <UniqueID>  (21) 
18

>  <SMILES>  (21) 
O=C([N-]c1cccc(F)c1)[N-]c1cc(N2CCCCS2(=O)=O)ccc1O

>  <Energy>  (21) 
54.95600470414745

>  <Genealogy>  (21) 
O=C([N-]c1cccc(F)c1)[N-]c1cc(N2CCCCS2(=O)=O)ccc1O (protonated)
O=C([N-]c1cccc(F)c1)[N-]c1cc(N2CCCCS2(=O)=O)ccc1O (3D coordinates assigned)
O=C([N-]c1cccc(F)c1)[N-]c1cc(N2CCCCS2(=O)=O)ccc1O (nonaromatic ring conformer: 54.95600470414745 kcal/mol)

>  <smiles>  (21) 
O=C(Nc1cccc(F)c1)Nc1cc(N2CCCCS2(=O)=O)ccc1O

>  <score_type>  (21) 
oracle

>  <origin>  (21) 
adg

>  <m_score__min__energy>  (21) 
-11.550000000000001

>  <m_primary>  (21) 
energy

$$$$
21:0
     RDKit          3D

 31 32  0  0  0  0  0  0  0  0999 V2000
   57.9360   28.7320   44.7280 O   0  0  0  0  0  0  0  0  0  0  0  0
   56.8570   28.3420   45.2500 C   0  0  0  0  0  0  0  0  0  0  0  0
   55.6850   29.1590   45.1530 N   0  0  0  0  0  0  0  0  0  0  0  0
   55.1810   29.7130   43.9000 C   0  0  0  0  0  0  0  0  0  0  0  0
   56.2750   30.5050   43.1760 C   0  0  0  0  0  0  0  0  0  0  0  0
   57.1930   31.1110   44.1410 N   0  0  0  0  0  0  0  0  0  0  0  0
   57.8370   32.3690   43.8840 C   0  0  0  0  0  0  0  0  0  0  0  0
   58.0990   32.7080   42.6980 O   0  0  0  0  0  0  0  0  0  0  0  0
   58.1690   33.2910   44.9850 C   0  0  0  0  0  0  0  0  0  0  0  0
   57.8870   33.0960   46.3210 C   0  0  0  0  0  0  0  0  0  0  0  0
   58.4370   34.1760   46.9800 C   0  0  0  0  0  0  0  0  0  0  0  0
   59.0170   34.9750   46.1150 O   0  0  0  0  0  0  0  0  0  0  0  0
   58.8800   34.4740   44.9090 C   0  0  0  0  0  0  0  0  0  0  0  0
   56.7890   27.0300   45.9330 C   0  0  0  0  0  0  0  0  0  0  0  0
   57.9210   26.4880   46.5650 C   0  0  0  0  0  0  0  0  0  0  0  0
   57.8340   25.2690   47.2400 C   0  0  0  0  0  0  0  0  0  0  0  0
   56.6120   24.5950   47.2770 C   0  0  0  0  0  0  0  0  0  0  0  0
   56.5150   23.4950   47.8820 O   0  0  0  0  0  0  0  0  0  0  0  0
   55.5230   25.1260   46.6620 N   0  0  0  0  0  0  0  0  0  0  0  0
   55.5820   26.3140   45.9990 C   0  0  0  0  0  0  0  0  0  0  0  0
   54.8426   28.8907   43.2524 H   0  0  0  0  0  0  0  0  0  0  0  0
   54.3452   30.3916   44.1255 H   0  0  0  0  0  0  0  0  0  0  0  0
   56.8377   29.8265   42.5179 H   0  0  0  0  0  0  0  0  0  0  0  0
   55.8035   31.3032   42.5839 H   0  0  0  0  0  0  0  0  0  0  0  0
   57.1980   30.7210   45.1090 H   0  0  0  0  0  0  0  0  0  0  0  0
   57.3377   32.2543   46.7681 H   0  0  0  0  0  0  0  0  0  0  0  0
   58.3957   34.3425   48.0665 H   0  0  0  0  0  0  0  0  0  0  0  0
   59.2695   34.9246   43.9842 H   0  0  0  0  0  0  0  0  0  0  0  0
   58.8795   27.0263   46.5277 H   0  0  0  0  0  0  0  0  0  0  0  0
   58.7186   24.8443   47.7372 H   0  0  0  0  0  0  0  0  0  0  0  0
   54.6804   26.7149   45.5128 H   0  0  0  0  0  0  0  0  0  0  0  0
  1  2  2  0
  2  3  1  0
  3  4  1  0
  4  5  1  0
  5  6  1  0
  6  7  1  0
  7  8  2  0
  7  9  1  0
  9 10  1  0
 10 11  2  0
 11 12  1  0
 12 13  1  0
  2 14  1  0
 14 15  1  0
 15 16  2  0
 16 17  1  0
 17 18  2  0
 17 19  1  0
 19 20  1  0
 13  9  2  0
 20 14  2  0
  4 21  1  0
  4 22  1  0
  5 23  1  0
  5 24  1  0
  6 25  1  0
 10 26  1  0
 11 27  1  0
 13 28  1  0
 15 29  1  0
 16 30  1  0
 20 31  1  0
M  CHG  2   3  -1  19  -1
M  END
>  <UniqueID>  (22) 
19

>  <SMILES>  (22) 
O=C([N-]CCNC(=O)c1ccoc1)c1ccc(=O)[n-]c1

>  <Energy>  (22) 
52.91116894291912

>  <Genealogy>  (22) 
O=C([N-]CCNC(=O)c1ccoc1)c1ccc(=O)[n-]c1 (protonated)
O=C([N-]CCNC(=O)c1ccoc1)c1ccc(=O)[n-]c1 (3D coordinates assigned)
O=C([N-]CCNC(=O)c1ccoc1)c1ccc(=O)[n-]c1 (optimized conformer: 52.91116894291912 kcal/mol)

>  <smiles>  (22) 
O=C(NCCNC(=O)c1ccoc1)c1ccc(=O)[nH]c1

>  <score_type>  (22) 
oracle

>  <origin>  (22) 
adg

>  <m_score__min__energy>  (22) 
-10.220000000000001

>  <m_primary>  (22) 
energy

$$$$
22:0
     RDKit          3D

 43 45  0  0  1  0  0  0  0  0999 V2000
   57.4710   28.8730   43.5620 N   0  0  0  0  0  0  0  0  0  0  0  0
   56.6830   30.3500   43.9210 S   0  0  0  0  0  0  0  0  0  0  0  0
   56.7260   31.2020   42.6790 O   0  0  0  0  0  0  0  0  0  0  0  0
   55.2490   30.1180   44.3680 O   0  0  0  0  0  0  0  0  0  0  0  0
   57.5150   31.1910   45.2160 C   0  0  0  0  0  0  0  0  0  0  0  0
   58.2900   30.4260   46.0690 C   0  0  0  0  0  0  0  0  0  0  0  0
   58.9700   31.0260   47.1070 C   0  0  0  0  0  0  0  0  0  0  0  0
   58.8830   32.4080   47.3060 C   0  0  0  0  0  0  0  0  0  0  0  0
   59.6020   32.9700   48.3920 N   0  0  0  0  0  0  0  0  0  0  0  0
   59.2870   32.8450   49.6270 C   0  0  0  0  0  0  0  0  0  0  0  0
   58.2680   32.0250   49.9960 C   0  0  0  0  0  0  0  0  0  0  0  0
   57.9110   31.8780   51.3340 C   0  0  0  0  0  0  0  0  0  0  0  0
   56.8160   30.9950   51.7000 C   0  0  0  0  0  0  0  0  0  0  0  0
   57.0080   29.7610   51.7860 O   0  0  0  0  0  0  0  0  0  0  0  0
   55.5290   31.5350   51.9610 N   0  0  0  0  0  0  0  0  0  0  0  0
   54.3760   30.7810   52.3300 C   0  0  0  0  0  0  0  0  0  0  0  0
   53.2300   30.8910   51.4090 C   0  0  0  0  0  0  0  0  0  0  0  0
   52.8640   29.9400   50.4920 C   0  0  0  0  0  0  0  0  0  0  0  0
   51.7790   30.0930   49.6510 C   0  0  0  0  0  0  0  0  0  0  0  0
   51.0550   31.2780   49.7730 C   0  0  0  0  0  0  0  0  0  0  0  0
   51.3920   32.2270   50.6640 N   0  0  0  0  0  0  0  0  0  0  0  0
   52.4690   32.0430   51.4780 C   0  0  0  0  0  0  0  0  0  0  0  0
   58.6290   32.5900   52.2160 N   0  0  0  0  0  0  0  0  0  0  0  0
   59.6380   33.4020   51.8430 C   0  0  0  0  0  0  0  0  0  0  0  0
   59.9780   33.5380   50.5450 N   0  0  0  0  0  0  0  0  0  0  0  0
   58.1030   33.1430   46.4390 C   0  0  0  0  0  0  0  0  0  0  0  0
   57.4050   32.5710   45.3850 C   0  0  0  0  0  0  0  0  0  0  0  0
   58.1510   28.9640   42.7720 H   0  0  0  0  0  0  0  0  0  0  0  0
   56.7660   28.1570   43.3330 H   0  0  0  0  0  0  0  0  0  0  0  0
   58.3636   29.3388   45.9189 H   0  0  0  0  0  0  0  0  0  0  0  0
   59.5851   30.4142   47.7833 H   0  0  0  0  0  0  0  0  0  0  0  0
   57.7159   31.4680   49.2247 H   0  0  0  0  0  0  0  0  0  0  0  0
   55.4390   32.5920   51.8690 H   0  0  0  0  0  0  0  0  0  0  0  0
   54.6664   29.7215   52.3861 H   0  0  0  0  0  0  0  0  0  0  0  0
   54.0356   31.1961   53.2901 H   0  0  0  0  0  0  0  0  0  0  0  0
   53.4588   29.0172   50.4231 H   0  0  0  0  0  0  0  0  0  0  0  0
   51.5002   29.3184   48.9214 H   0  0  0  0  0  0  0  0  0  0  0  0
   50.1835   31.4413   49.1220 H   0  0  0  0  0  0  0  0  0  0  0  0
   52.7378   32.8252   52.2032 H   0  0  0  0  0  0  0  0  0  0  0  0
   60.1930   33.9627   52.6095 H   0  0  0  0  0  0  0  0  0  0  0  0
   60.7450   34.1560   50.2620 H   0  0  0  0  0  0  0  0  0  0  0  0
   58.0308   34.2303   46.5893 H   0  0  0  0  0  0  0  0  0  0  0  0
   56.7889   33.1822   44.7091 H   0  0  0  0  0  0  0  0  0  0  0  0
  1  2  1  0
  2  3  2  0
  2  4  2  0
  2  5  1  0
  5  6  2  0
  6  7  1  0
  7  8  2  0
  8  9  1  0
  9 10  2  0
 10 11  1  0
 11 12  2  0
 12 13  1  0
 13 14  2  0
 13 15  1  0
 15 16  1  0
 16 17  1  0
 17 18  2  0
 18 19  1  0
 19 20  2  0
 20 21  1  0
 21 22  2  0
 12 23  1  0
 23 24  2  0
 24 25  1  0
  8 26  1  0
 26 27  2  0
 27  5  1  0
 25 10  1  0
 22 17  1  0
  1 28  1  0
  1 29  1  0
  6 30  1  0
  7 31  1  0
 11 32  1  0
 15 33  1  0
 16 34  1  0
 16 35  1  0
 18 36  1  0
 19 37  1  0
 20 38  1  0
 22 39  1  0
 24 40  1  0
 25 41  1  0
 26 42  1  0
 27 43  1  0
M  END
>  <smiles>  (23) 
NS(=O)(=O)c1ccc(N=c2cc(C(=O)NCc3cccnc3)nc[nH]2)cc1

>  <score_type>  (23) 
oracle

>  <origin>  (23) 
adg

>  <m_score__min__energy>  (23) 
-9.1699999999999999

>  <m_primary>  (23) 
energy

$$$$
23:0
     RDKit          3D

 63 66  0  0  0  0  0  0  0  0999 V2000
   60.7570   25.8090   51.3700 C   0  0  0  0  0  0  0  0  0  0  0  0
   61.9080   26.4430   52.0890 C   0  0  0  0  0  0  0  0  0  0  0  0
   62.6050   25.7290   52.8610 O   0  0  0  0  0  0  0  0  0  0  0  0
   62.2170   27.8450   51.9250 N   0  0  0  0  0  0  0  0  0  0  0  0
   63.4640   28.3930   52.4790 C   0  0  0  0  0  0  0  0  0  0  0  0
   64.0610   29.4310   51.5220 C   0  0  0  0  0  0  0  0  0  0  0  0
   63.0460   30.3920   51.0730 N   0  0  0  0  0  0  0  0  0  0  0  0
   63.4550   31.5220   50.2860 C   0  0  0  0  0  0  0  0  0  0  0  0
   64.3750   32.3910   50.7890 N   0  0  0  0  0  0  0  0  0  0  0  0
   64.7840   33.4720   50.0750 C   0  0  0  0  0  0  0  0  0  0  0  0
   64.2730   33.7080   48.8420 N   0  0  0  0  0  0  0  0  0  0  0  0
   63.3480   32.8820   48.2890 C   0  0  0  0  0  0  0  0  0  0  0  0
   62.8100   33.2040   46.9250 C   0  0  0  0  0  0  0  0  0  0  0  0
   62.9080   31.7550   49.0100 C   0  0  0  0  0  0  0  0  0  0  0  0
   61.8870   30.8850   48.4750 C   0  0  0  0  0  0  0  0  0  0  0  0
   61.0370   30.1590   48.0220 C   0  0  0  0  0  0  0  0  0  0  0  0
   60.0310   29.2900   47.4750 C   0  0  0  0  0  0  0  0  0  0  0  0
   59.6280   28.1490   48.1740 C   0  0  0  0  0  0  0  0  0  0  0  0
   58.6860   27.3260   47.6440 N   0  0  0  0  0  0  0  0  0  0  0  0
   58.1020   27.5770   46.4400 C   0  0  0  0  0  0  0  0  0  0  0  0
   57.0570   26.6340   45.9230 C   0  0  0  0  0  0  0  0  0  0  0  0
   58.4620   28.7270   45.7140 C   0  0  0  0  0  0  0  0  0  0  0  0
   57.8570   28.9910   44.4450 N   0  0  0  0  0  0  0  0  0  0  0  0
   56.8250   30.3470   44.1270 S   0  0  0  0  0  0  0  0  0  0  0  0
   56.5200   30.4710   42.6610 O   0  0  0  0  0  0  0  0  0  0  0  0
   55.5300   30.1550   44.8680 O   0  0  0  0  0  0  0  0  0  0  0  0
   57.6340   31.8090   44.6770 C   0  0  0  0  0  0  0  0  0  0  0  0
   58.1880   32.6920   43.7430 C   0  0  0  0  0  0  0  0  0  0  0  0
   58.8470   33.8430   44.1780 C   0  0  0  0  0  0  0  0  0  0  0  0
   58.9500   34.0990   45.5500 C   0  0  0  0  0  0  0  0  0  0  0  0
   59.6560   35.3230   46.0410 C   0  0  0  0  0  0  0  0  0  0  0  0
   58.4070   33.2260   46.4430 N   0  0  0  0  0  0  0  0  0  0  0  0
   57.7600   32.0990   46.0420 C   0  0  0  0  0  0  0  0  0  0  0  0
   59.4480   29.5750   46.2370 C   0  0  0  0  0  0  0  0  0  0  0  0
   61.6380   30.2160   51.4430 C   0  0  0  0  0  0  0  0  0  0  0  0
   61.2350   28.7460   51.2960 C   0  0  0  0  0  0  0  0  0  0  0  0
   60.0392   25.4136   52.1038 H   0  0  0  0  0  0  0  0  0  0  0  0
   60.2599   26.5606   50.7391 H   0  0  0  0  0  0  0  0  0  0  0  0
   61.1266   24.9872   50.7391 H   0  0  0  0  0  0  0  0  0  0  0  0
   63.2517   28.8714   53.4465 H   0  0  0  0  0  0  0  0  0  0  0  0
   64.1858   27.5739   52.6136 H   0  0  0  0  0  0  0  0  0  0  0  0
   64.8645   29.9750   52.0401 H   0  0  0  0  0  0  0  0  0  0  0  0
   64.4525   28.9035   50.6397 H   0  0  0  0  0  0  0  0  0  0  0  0
   64.7890   32.2240   51.7340 H   0  0  0  0  0  0  0  0  0  0  0  0
   65.5322   34.1579   50.4989 H   0  0  0  0  0  0  0  0  0  0  0  0
   61.8700   33.7666   47.0250 H   0  0  0  0  0  0  0  0  0  0  0  0
   63.5441   33.8113   46.3753 H   0  0  0  0  0  0  0  0  0  0  0  0
   62.6216   32.2700   46.3753 H   0  0  0  0  0  0  0  0  0  0  0  0
   60.0733   27.9174   49.1528 H   0  0  0  0  0  0  0  0  0  0  0  0
   56.5360   26.1639   46.7701 H   0  0  0  0  0  0  0  0  0  0  0  0
   56.3325   27.1900   45.3098 H   0  0  0  0  0  0  0  0  0  0  0  0
   57.5359   25.8564   45.3098 H   0  0  0  0  0  0  0  0  0  0  0  0
   58.1041   32.4791   42.6671 H   0  0  0  0  0  0  0  0  0  0  0  0
   59.2815   34.5427   43.4489 H   0  0  0  0  0  0  0  0  0  0  0  0
   59.6590   35.3281   47.1410 H   0  0  0  0  0  0  0  0  0  0  0  0
   60.6921   35.3217   45.6715 H   0  0  0  0  0  0  0  0  0  0  0  0
   59.1361   36.2192   45.6715 H   0  0  0  0  0  0  0  0  0  0  0  0
   57.3349   31.4140   46.7904 H   0  0  0  0  0  0  0  0  0  0  0  0
   59.7631   30.4652   45.6729 H   0  0  0  0  0  0  0  0  0  0  0  0
   61.4943   30.5299   52.4874 H   0  0  0  0  0  0  0  0  0  0  0  0
   61.0118   30.8292   50.7783 H   0  0  0  0  0  0  0  0  0  0  0  0
   60.2559   28.5955   51.7742 H   0  0  0  0  0  0  0  0  0  0  0  0
   61.1908   28.5087   50.2228 H   0  0  0  0  0  0  0  0  0  0  0  0
  1  2  1  0
  2  3  2  0
  2  4  1  0
  4  5  1  0
  5  6  1  0
  6  7  1  0
  7  8  1  0
  8  9  2  0
  9 10  1  0
 10 11  2  0
 11 12  1  0
 12 13  1  0
 12 14  2  0
 14 15  1  0
 15 16  3  0
 16 17  1  0
 17 18  2  0
 18 19  1  0
 19 20  2  0
 20 21  1  0
 20 22  1  0
 22 23  1  0
 23 24  1  0
 24 25  2  0
 24 26  2  0
 24 27  1  0
 27 28  2  0
 28 29  1  0
 29 30  2  0
 30 31  1  0
 30 32  1  0
 32 33  2  0
 22 34  2  0
  7 35  1  0
 35 36  1  0
 36  4  1  0
 14  8  1  0
 34 17  1  0
 33 27  1  0
  1 37  1  0
  1 38  1  0
  1 39  1  0
  5 40  1  0
  5 41  1  0
  6 42  1  0
  6 43  1  0
  9 44  1  0
 10 45  1  0
 13 46  1  0
 13 47  1  0
 13 48  1  0
 18 49  1  0
 21 50  1  0
 21 51  1  0
 21 52  1  0
 28 53  1  0
 29 54  1  0
 31 55  1  0
 31 56  1  0
 31 57  1  0
 33 58  1  0
 34 59  1  0
 35 60  1  0
 35 61  1  0
 36 62  1  0
 36 63  1  0
M  CHG  2   9   1  23  -1
M  END
>  <UniqueID>  (24) 
20

>  <SMILES>  (24) 
CC(=O)N1CCN(c2[nH+]cnc(C)c2C#Cc2cnc(C)c([N-]S(=O)(=O)c3ccc(C)nc3)c2)CC1

>  <Energy>  (24) 
73.03063707660588

>  <Genealogy>  (24) 
CC(=O)N1CCN(c2[nH+]cnc(C)c2C#Cc2cnc(C)c([N-]S(=O)(=O)c3ccc(C)nc3)c2)CC1 (protonated)
CC(=O)N1CCN(c2[nH+]cnc(C)c2C#Cc2cnc(C)c([N-]S(=O)(=O)c3ccc(C)nc3)c2)CC1 (3D coordinates assigned)
CC(=O)N1CCN(c2[nH+]cnc(C)c2C#Cc2cnc(C)c([N-]S(=O)(=O)c3ccc(C)nc3)c2)CC1 (nonaromatic ring conformer: 73.03063707660588 kcal/mol)

>  <smiles>  (24) 
CC(=O)N1CCN(c2ncnc(C)c2C#Cc2cnc(C)c(NS(=O)(=O)c3ccc(C)nc3)c2)CC1

>  <score_type>  (24) 
oracle

>  <origin>  (24) 
adg

>  <m_score__min__energy>  (24) 
-9.7200000000000006

>  <m_primary>  (24) 
energy

$$$$
24:0
     RDKit          3D

 35 37  0  0  0  0  0  0  0  0999 V2000
   58.8190   32.6170   43.1050 H   0  0  0  0  0  0  0  0  0  0  0  0
   58.5130   32.8940   42.2030 O   0  0  0  0  0  0  0  0  0  0  0  0
   57.5850   31.9280   41.7940 C   0  0  0  0  0  0  0  0  0  0  0  0
   58.0303   31.3024   41.0064 H   0  0  0  0  0  0  0  0  0  0  0  0
   56.6860   32.4266   41.4026 H   0  0  0  0  0  0  0  0  0  0  0  0
   57.2110   31.0710   42.9580 C   0  0  0  0  0  0  0  0  0  0  0  0
   58.0300   30.7770   43.9440 O   0  0  0  0  0  0  0  0  0  0  0  0
   57.4060   29.9910   44.7920 C   0  0  0  0  0  0  0  0  0  0  0  0
   57.9860   29.4530   46.0390 C   0  0  0  0  0  0  0  0  0  0  0  0
   58.1678   28.3702   46.1064 H   0  0  0  0  0  0  0  0  0  0  0  0
   58.2930   30.1970   47.0630 N   0  0  0  0  0  0  0  0  0  0  0  0
   59.4230   31.0390   47.1000 N   0  0  0  0  0  0  0  0  0  0  0  0
   60.5870   30.5430   47.6120 C   0  0  0  0  0  0  0  0  0  0  0  0
   60.6310   29.3660   48.0640 O   0  0  0  0  0  0  0  0  0  0  0  0
   61.7450   31.3200   47.6310 C   0  0  0  0  0  0  0  0  0  0  0  0
   62.6764   30.9048   48.0433 H   0  0  0  0  0  0  0  0  0  0  0  0
   61.7270   32.6250   47.1280 C   0  0  0  0  0  0  0  0  0  0  0  0
   63.0020   33.4280   47.1440 C   0  0  0  0  0  0  0  0  0  0  0  0
   63.3029   33.6175   48.1849 H   0  0  0  0  0  0  0  0  0  0  0  0
   63.7955   32.8664   46.6294 H   0  0  0  0  0  0  0  0  0  0  0  0
   62.8383   34.3863   46.6294 H   0  0  0  0  0  0  0  0  0  0  0  0
   60.5160   33.1500   46.6220 C   0  0  0  0  0  0  0  0  0  0  0  0
   60.4310   34.4620   46.1100 C   0  0  0  0  0  0  0  0  0  0  0  0
   61.3263   35.1009   46.0964 H   0  0  0  0  0  0  0  0  0  0  0  0
   59.2220   34.9560   45.6210 C   0  0  0  0  0  0  0  0  0  0  0  0
   59.1699   35.9797   45.2218 H   0  0  0  0  0  0  0  0  0  0  0  0
   58.0810   34.1590   45.6360 C   0  0  0  0  0  0  0  0  0  0  0  0
   57.1295   34.5560   45.2526 H   0  0  0  0  0  0  0  0  0  0  0  0
   58.1410   32.8580   46.1360 C   0  0  0  0  0  0  0  0  0  0  0  0
   57.2335   32.2364   46.1450 H   0  0  0  0  0  0  0  0  0  0  0  0
   59.3520   32.3310   46.6300 C   0  0  0  0  0  0  0  0  0  0  0  0
   56.1320   29.7550   44.3260 C   0  0  0  0  0  0  0  0  0  0  0  0
   55.1600   28.9700   44.9350 O   0  0  0  0  0  0  0  0  0  0  0  0
   55.9910   30.4430   43.1430 C   0  0  0  0  0  0  0  0  0  0  0  0
   55.1067   30.4848   42.4901 H   0  0  0  0  0  0  0  0  0  0  0  0
  1  2  1  0
  2  3  1  0
  3  4  1  0
  3  5  1  0
  3  6  1  0
  6  7  1  0
  7  8  1  0
  8  9  1  0
  9 10  1  0
  9 11  2  0
 11 12  1  0
 12 13  1  0
 13 14  2  0
 13 15  1  0
 15 16  1  0
 15 17  2  0
 17 18  1  0
 18 19  1  0
 18 20  1  0
 18 21  1  0
 17 22  1  0
 22 23  2  0
 23 24  1  0
 23 25  1  0
 25 26  1  0
 25 27  2  0
 27 28  1  0
 27 29  1  0
 29 30  1  0
 29 31  2  0
  8 32  2  0
 32 33  1  0
 32 34  1  0
 34 35  1  0
 34  6  2  0
 31 12  1  0
 31 22  1  0
M  CHG  1  33  -1
M  END
>  <UniqueID>  (25) 
21

>  <SMILES>  (25) 
Cc1cc(=O)n(/N=C\c2oc(CO)cc2[O-])c2ccccc12

>  <Energy>  (25) 
78.63103015254997

>  <Genealogy>  (25) 
Cc1cc(=O)n(N=Cc2oc(CO)cc2[O-])c2ccccc12 (protonated)
Cc1cc(=O)n(/N=C\c2oc(CO)cc2[O-])c2ccccc12 (cis-trans isomerization)
Cc1cc(=O)n(/N=C\c2oc(CO)cc2[O-])c2ccccc12 (3D coordinates assigned)
Cc1cc(=O)n(/N=C\c2oc(CO)cc2[O-])c2ccccc12 (optimized conformer: 78.63103015254997 kcal/mol)

>  <smiles>  (25) 
Cc1cc(=O)n(N=Cc2oc(CO)cc2O)c2ccccc12

>  <score_type>  (25) 
oracle

>  <origin>  (25) 
adg

>  <m_score__min__energy>  (25) 
-10.51

>  <m_primary>  (25) 
energy

$$$$
25:0
     RDKit          3D

 39 41  0  0  0  0  0  0  0  0999 V2000
   59.4460   30.2740   47.5130 O   0  0  0  0  0  0  0  0  0  0  0  0
   58.9210   31.3640   47.1650 C   0  0  0  0  0  0  0  0  0  0  0  0
   58.8000   32.4200   48.1210 N   0  0  0  0  0  0  0  0  0  0  0  0
   59.8580   32.7970   49.0490 C   0  0  0  0  0  0  0  0  0  0  0  0
   61.1630   32.8870   48.3070 C   0  0  0  0  0  0  0  0  0  0  0  0
   61.2720   33.7300   47.1890 C   0  0  0  0  0  0  0  0  0  0  0  0
   62.4810   33.8370   46.4970 C   0  0  0  0  0  0  0  0  0  0  0  0
   63.5950   33.1120   46.9220 C   0  0  0  0  0  0  0  0  0  0  0  0
   63.5050   32.2820   48.0390 C   0  0  0  0  0  0  0  0  0  0  0  0
   62.2970   32.1620   48.7340 C   0  0  0  0  0  0  0  0  0  0  0  0
   62.2410   31.1020   50.1370 Cl  0  0  0  0  0  0  0  0  0  0  0  0
   58.4690   31.5330   45.7750 C   0  0  0  0  0  0  0  0  0  0  0  0
   58.5190   32.8060   45.1900 C   0  0  0  0  0  0  0  0  0  0  0  0
   58.0850   32.9960   43.8770 C   0  0  0  0  0  0  0  0  0  0  0  0
   57.5980   31.9160   43.1390 C   0  0  0  0  0  0  0  0  0  0  0  0
   57.5570   30.6410   43.7080 C   0  0  0  0  0  0  0  0  0  0  0  0
   58.0100   30.4330   45.0240 C   0  0  0  0  0  0  0  0  0  0  0  0
   57.9670   29.1310   45.6310 N   0  0  0  0  0  0  0  0  0  0  0  0
   56.8470   28.2350   45.6340 C   0  0  0  0  0  0  0  0  0  0  0  0
   55.7560   28.5970   45.1170 O   0  0  0  0  0  0  0  0  0  0  0  0
   56.9780   26.8660   46.1960 C   0  0  0  0  0  0  0  0  0  0  0  0
   58.2360   26.3920   46.6100 C   0  0  0  0  0  0  0  0  0  0  0  0
   58.3660   25.1370   47.1120 N   0  0  0  0  0  0  0  0  0  0  0  0
   57.2940   24.3150   47.2200 C   0  0  0  0  0  0  0  0  0  0  0  0
   57.4370   23.1540   47.6800 O   0  0  0  0  0  0  0  0  0  0  0  0
   56.0670   24.7430   46.8290 N   0  0  0  0  0  0  0  0  0  0  0  0
   55.8810   25.9900   46.3250 C   0  0  0  0  0  0  0  0  0  0  0  0
   54.7230   26.3370   45.9710 O   0  0  0  0  0  0  0  0  0  0  0  0
   59.6224   33.7734   49.4974 H   0  0  0  0  0  0  0  0  0  0  0  0
   59.9378   32.0401   49.8432 H   0  0  0  0  0  0  0  0  0  0  0  0
   60.3990   34.3103   46.8557 H   0  0  0  0  0  0  0  0  0  0  0  0
   62.5547   34.4929   45.6170 H   0  0  0  0  0  0  0  0  0  0  0  0
   64.5457   33.1953   46.3750 H   0  0  0  0  0  0  0  0  0  0  0  0
   64.3882   31.7190   48.3752 H   0  0  0  0  0  0  0  0  0  0  0  0
   58.9022   33.6595   45.7686 H   0  0  0  0  0  0  0  0  0  0  0  0
   58.1268   33.9974   43.4237 H   0  0  0  0  0  0  0  0  0  0  0  0
   57.2461   32.0691   42.1081 H   0  0  0  0  0  0  0  0  0  0  0  0
   57.1681   29.7941   43.1237 H   0  0  0  0  0  0  0  0  0  0  0  0
   59.1196   27.0418   46.5266 H   0  0  0  0  0  0  0  0  0  0  0  0
  1  2  2  0
  2  3  1  0
  3  4  1  0
  4  5  1  0
  5  6  2  0
  6  7  1  0
  7  8  2  0
  8  9  1  0
  9 10  2  0
 10 11  1  0
  2 12  1  0
 12 13  2  0
 13 14  1  0
 14 15  2  0
 15 16  1  0
 16 17  2  0
 17 18  1  0
 18 19  1  0
 19 20  2  0
 19 21  1  0
 21 22  2  0
 22 23  1  0
 23 24  1  0
 24 25  2  0
 24 26  1  0
 26 27  1  0
 27 28  2  0
 10  5  1  0
 17 12  1  0
 27 21  1  0
  4 29  1  0
  4 30  1  0
  6 31  1  0
  7 32  1  0
  8 33  1  0
  9 34  1  0
 13 35  1  0
 14 36  1  0
 15 37  1  0
 16 38  1  0
 22 39  1  0
M  CHG  4   3  -1  18  -1  23  -1  26  -1
M  END
>  <UniqueID>  (26) 
22

>  <SMILES>  (26) 
O=C([N-]Cc1ccccc1Cl)c1ccccc1[N-]C(=O)c1c[n-]c(=O)[n-]c1=O

>  <Energy>  (26) 
55.03414565262188

>  <Genealogy>  (26) 
O=C([N-]Cc1ccccc1Cl)c1ccccc1[N-]C(=O)c1c[n-]c(=O)[n-]c1=O (protonated)
O=C([N-]Cc1ccccc1Cl)c1ccccc1[N-]C(=O)c1c[n-]c(=O)[n-]c1=O (3D coordinates assigned)
O=C([N-]Cc1ccccc1Cl)c1ccccc1[N-]C(=O)c1c[n-]c(=O)[n-]c1=O (optimized conformer: 55.03414565262188 kcal/mol)

>  <smiles>  (26) 
O=C(NCc1ccccc1Cl)c1ccccc1NC(=O)c1c[nH]c(=O)[nH]c1=O

>  <score_type>  (26) 
oracle

>  <origin>  (26) 
adg

>  <m_score__min__energy>  (26) 
-15.470000000000001

>  <m_primary>  (26) 
energy

$$$$
26:0
     RDKit          3D

 47 49  0  0  0  0  0  0  0  0999 V2000
   56.4500   29.3280   42.6040 N   0  0  0  0  0  0  0  0  0  0  0  0
   56.4710   29.6980   44.2930 S   0  0  0  0  0  0  0  0  0  0  0  0
   55.1410   29.3520   44.8990 O   0  0  0  0  0  0  0  0  0  0  0  0
   56.7210   31.1680   44.4860 O   0  0  0  0  0  0  0  0  0  0  0  0
   57.7450   28.7700   45.0780 C   0  0  0  0  0  0  0  0  0  0  0  0
   58.1670   27.5490   44.5350 C   0  0  0  0  0  0  0  0  0  0  0  0
   59.1800   26.8170   45.1580 C   0  0  0  0  0  0  0  0  0  0  0  0
   59.7810   27.3020   46.3240 C   0  0  0  0  0  0  0  0  0  0  0  0
   59.3730   28.5290   46.8660 C   0  0  0  0  0  0  0  0  0  0  0  0
   60.1000   29.1460   48.3480 S   0  0  0  0  0  0  0  0  0  0  0  0
   59.0440   29.7640   49.2240 O   0  0  0  0  0  0  0  0  0  0  0  0
   60.7310   27.9990   49.0870 O   0  0  0  0  0  0  0  0  0  0  0  0
   61.3170   30.3380   47.9600 N   0  0  0  0  0  0  0  0  0  0  0  0
   60.7880   31.2900   46.9620 C   0  0  0  0  0  0  0  0  0  0  0  0
   61.6010   32.5910   46.9520 C   0  0  0  0  0  0  0  0  0  0  0  0
   61.5670   33.2890   48.2640 N   0  0  0  0  0  0  0  0  0  0  0  0
   60.6540   34.4500   48.2560 C   0  0  0  0  0  0  0  0  0  0  0  0
   59.6330   34.3130   47.1500 C   0  0  0  0  0  0  0  0  0  0  0  0
   59.8380   35.0280   45.9570 C   0  0  0  0  0  0  0  0  0  0  0  0
   58.9290   34.9270   44.9020 C   0  0  0  0  0  0  0  0  0  0  0  0
   57.8030   34.1110   45.0240 C   0  0  0  0  0  0  0  0  0  0  0  0
   57.5840   33.3950   46.2040 C   0  0  0  0  0  0  0  0  0  0  0  0
   58.4890   33.4880   47.2690 C   0  0  0  0  0  0  0  0  0  0  0  0
   58.1460   32.5530   48.7210 Cl  0  0  0  0  0  0  0  0  0  0  0  0
   61.2500   32.3910   49.4000 C   0  0  0  0  0  0  0  0  0  0  0  0
   61.8370   30.9880   49.1870 C   0  0  0  0  0  0  0  0  0  0  0  0
   58.3560   29.2600   46.2400 C   0  0  0  0  0  0  0  0  0  0  0  0
   56.5510   28.2920   42.5170 H   0  0  0  0  0  0  0  0  0  0  0  0
   55.4960   29.5680   42.2520 H   0  0  0  0  0  0  0  0  0  0  0  0
   57.6992   27.1663   43.6159 H   0  0  0  0  0  0  0  0  0  0  0  0
   59.5059   25.8571   44.7308 H   0  0  0  0  0  0  0  0  0  0  0  0
   60.5744   26.7204   46.8162 H   0  0  0  0  0  0  0  0  0  0  0  0
   60.8368   30.8286   45.9647 H   0  0  0  0  0  0  0  0  0  0  0  0
   59.7479   31.5309   47.2270 H   0  0  0  0  0  0  0  0  0  0  0  0
   62.6462   32.3528   46.7053 H   0  0  0  0  0  0  0  0  0  0  0  0
   61.1535   33.2611   46.2032 H   0  0  0  0  0  0  0  0  0  0  0  0
   60.1339   34.5082   49.2236 H   0  0  0  0  0  0  0  0  0  0  0  0
   61.2421   35.3639   48.0860 H   0  0  0  0  0  0  0  0  0  0  0  0
   60.7229   35.6731   45.8537 H   0  0  0  0  0  0  0  0  0  0  0  0
   59.1004   35.4912   43.9734 H   0  0  0  0  0  0  0  0  0  0  0  0
   57.0883   34.0316   44.1916 H   0  0  0  0  0  0  0  0  0  0  0  0
   56.6949   32.7541   46.2970 H   0  0  0  0  0  0  0  0  0  0  0  0
   61.6706   32.8185   50.3221 H   0  0  0  0  0  0  0  0  0  0  0  0
   60.1563   32.3006   49.4746 H   0  0  0  0  0  0  0  0  0  0  0  0
   62.9309   31.0713   49.1062 H   0  0  0  0  0  0  0  0  0  0  0  0
   61.5424   30.3672   50.0460 H   0  0  0  0  0  0  0  0  0  0  0  0
   58.0351   30.2236   46.6624 H   0  0  0  0  0  0  0  0  0  0  0  0
  1  2  1  0
  2  3  2  0
  2  4  2  0
  2  5  1  0
  5  6  2  0
  6  7  1  0
  7  8  2  0
  8  9  1  0
  9 10  1  0
 10 11  2  0
 10 12  2  0
 10 13  1  0
 13 14  1  0
 14 15  1  0
 15 16  1  0
 16 17  1  0
 17 18  1  0
 18 19  2  0
 19 20  1  0
 20 21  2  0
 21 22  1  0
 22 23  2  0
 23 24  1  0
 16 25  1  0
 25 26  1  0
  9 27  2  0
 27  5  1  0
 26 13  1  0
 23 18  1  0
  1 28  1  0
  1 29  1  0
  6 30  1  0
  7 31  1  0
  8 32  1  0
 14 33  1  0
 14 34  1  0
 15 35  1  0
 15 36  1  0
 17 37  1  0
 17 38  1  0
 19 39  1  0
 20 40  1  0
 21 41  1  0
 22 42  1  0
 25 43  1  0
 25 44  1  0
 26 45  1  0
 26 46  1  0
 27 47  1  0
M  END
>  <UniqueID>  (27) 
23

>  <SMILES>  (27) 
NS(=O)(=O)c1cccc(S(=O)(=O)N2CCN(Cc3ccccc3Cl)CC2)c1

>  <Energy>  (27) 
59.328597128644375

>  <Genealogy>  (27) 
NS(=O)(=O)c1cccc(S(=O)(=O)N2CCN(Cc3ccccc3Cl)CC2)c1 (3D coordinates assigned)
NS(=O)(=O)c1cccc(S(=O)(=O)N2CCN(Cc3ccccc3Cl)CC2)c1 (nonaromatic ring conformer: 59.328597128644375 kcal/mol)

>  <smiles>  (27) 
NS(=O)(=O)c1cccc(S(=O)(=O)N2CCN(Cc3ccccc3Cl)CC2)c1

>  <score_type>  (27) 
oracle

>  <origin>  (27) 
adg

>  <m_score__min__energy>  (27) 
-10.210000000000001

>  <m_primary>  (27) 
energy

$$$$
27:0
     RDKit          3D

 29 31  0  0  0  0  0  0  0  0999 V2000
   54.5500   23.7310   46.1070 C   0  0  0  0  0  0  0  0  0  0  0  0
   55.3500   24.4250   47.0590 O   0  0  0  0  0  0  0  0  0  0  0  0
   56.5250   25.1300   46.7520 C   0  0  0  0  0  0  0  0  0  0  0  0
   57.7930   24.6350   47.0860 C   0  0  0  0  0  0  0  0  0  0  0  0
   58.9360   25.3290   46.7110 C   0  0  0  0  0  0  0  0  0  0  0  0
   58.8390   26.5570   46.0440 C   0  0  0  0  0  0  0  0  0  0  0  0
   60.0130   27.1890   45.6270 C   0  0  0  0  0  0  0  0  0  0  0  0
   59.9700   28.4000   44.9430 C   0  0  0  0  0  0  0  0  0  0  0  0
   61.1600   28.9780   44.4950 O   0  0  0  0  0  0  0  0  0  0  0  0
   58.7400   29.0420   44.7280 C   0  0  0  0  0  0  0  0  0  0  0  0
   58.7120   30.2940   44.0810 C   0  0  0  0  0  0  0  0  0  0  0  0
   57.5170   30.9920   43.9400 C   0  0  0  0  0  0  0  0  0  0  0  0
   56.3420   30.4700   44.4670 C   0  0  0  0  0  0  0  0  0  0  0  0
   56.3440   29.2270   45.1010 C   0  0  0  0  0  0  0  0  0  0  0  0
   57.5270   28.4490   45.1910 C   0  0  0  0  0  0  0  0  0  0  0  0
   57.5660   27.1390   45.7780 C   0  0  0  0  0  0  0  0  0  0  0  0
   56.4110   26.3520   46.0730 C   0  0  0  0  0  0  0  0  0  0  0  0
   55.1410   26.7160   45.6450 O   0  0  0  0  0  0  0  0  0  0  0  0
   53.8203   23.0980   46.6332 H   0  0  0  0  0  0  0  0  0  0  0  0
   54.0173   24.4579   45.4762 H   0  0  0  0  0  0  0  0  0  0  0  0
   55.1944   23.1010   45.4762 H   0  0  0  0  0  0  0  0  0  0  0  0
   57.8832   23.6933   47.6473 H   0  0  0  0  0  0  0  0  0  0  0  0
   59.9271   24.9103   46.9400 H   0  0  0  0  0  0  0  0  0  0  0  0
   60.9856   26.7225   45.8425 H   0  0  0  0  0  0  0  0  0  0  0  0
   61.7290   28.5430   43.7790 H   0  0  0  0  0  0  0  0  0  0  0  0
   59.6438   30.7231   43.6839 H   0  0  0  0  0  0  0  0  0  0  0  0
   57.5022   31.9567   43.4116 H   0  0  0  0  0  0  0  0  0  0  0  0
   55.4049   31.0400   44.3839 H   0  0  0  0  0  0  0  0  0  0  0  0
   55.4109   28.8431   45.5392 H   0  0  0  0  0  0  0  0  0  0  0  0
  1  2  1  0
  2  3  1  0
  3  4  2  0
  4  5  1  0
  5  6  2  0
  6  7  1  0
  7  8  2  0
  8  9  1  0
  8 10  1  0
 10 11  2  0
 11 12  1  0
 12 13  2  0
 13 14  1  0
 14 15  2  0
 15 16  1  0
 16 17  2  0
 17 18  1  0
 17  3  1  0
 16  6  1  0
 15 10  1  0
  1 19  1  0
  1 20  1  0
  1 21  1  0
  4 22  1  0
  5 23  1  0
  7 24  1  0
  9 25  1  0
 11 26  1  0
 12 27  1  0
 13 28  1  0
 14 29  1  0
M  CHG  1  18  -1
M  END
>  <UniqueID>  (28) 
24

>  <SMILES>  (28) 
COc1ccc2cc(O)c3ccccc3c2c1[O-]

>  <Energy>  (28) 
50.259931224307735

>  <Genealogy>  (28) 
COc1ccc2cc(O)c3ccccc3c2c1[O-] (protonated)
COc1ccc2cc(O)c3ccccc3c2c1[O-] (3D coordinates assigned)
COc1ccc2cc(O)c3ccccc3c2c1[O-] (optimized conformer: 50.259931224307735 kcal/mol)

>  <smiles>  (28) 
COc1ccc2cc(O)c3ccccc3c2c1O

>  <score_type>  (28) 
oracle

>  <origin>  (28) 
adg

>  <m_score__min__energy>  (28) 
-9.9399999999999995

>  <m_primary>  (28) 
energy

$$$$
28:0
     RDKit          3D

 38 40  0  0  0  0  0  0  0  0999 V2000
   59.9860   36.0890   46.0310 O   0  0  0  0  0  0  0  0  0  0  0  0
   60.0880   34.8880   46.3960 C   0  0  0  0  0  0  0  0  0  0  0  0
   58.9310   34.1550   46.8240 N   0  0  0  0  0  0  0  0  0  0  0  0
   58.3460   33.0160   46.1760 C   0  0  0  0  0  0  0  0  0  0  0  0
   58.5570   31.7500   46.7310 C   0  0  0  0  0  0  0  0  0  0  0  0
   57.9890   30.6140   46.1460 C   0  0  0  0  0  0  0  0  0  0  0  0
   57.1840   30.7290   44.9990 C   0  0  0  0  0  0  0  0  0  0  0  0
   56.5830   29.5250   44.3770 C   0  0  0  0  0  0  0  0  0  0  0  0
   56.6530   29.3600   43.1290 O   0  0  0  0  0  0  0  0  0  0  0  0
   55.9710   28.5220   45.2010 N   0  0  0  0  0  0  0  0  0  0  0  0
   56.5970   27.3390   45.7190 C   0  0  0  0  0  0  0  0  0  0  0  0
   57.9960   27.2190   45.8130 C   0  0  0  0  0  0  0  0  0  0  0  0
   58.5720   26.0420   46.3010 C   0  0  0  0  0  0  0  0  0  0  0  0
   57.7590   24.9710   46.6830 C   0  0  0  0  0  0  0  0  0  0  0  0
   56.3710   25.0720   46.5700 C   0  0  0  0  0  0  0  0  0  0  0  0
   55.7900   26.2480   46.0840 C   0  0  0  0  0  0  0  0  0  0  0  0
   54.4060   26.3320   45.9690 O   0  0  0  0  0  0  0  0  0  0  0  0
   56.9530   32.0060   44.4580 C   0  0  0  0  0  0  0  0  0  0  0  0
   57.5220   33.1410   45.0450 C   0  0  0  0  0  0  0  0  0  0  0  0
   61.3790   34.2680   46.3840 N   0  0  0  0  0  0  0  0  0  0  0  0
   62.1250   33.8400   47.5320 C   0  0  0  0  0  0  0  0  0  0  0  0
   63.4500   33.3810   47.4350 C   0  0  0  0  0  0  0  0  0  0  0  0
   64.1410   33.0000   48.5880 C   0  0  0  0  0  0  0  0  0  0  0  0
   63.5070   33.0940   49.8270 C   0  0  0  0  0  0  0  0  0  0  0  0
   62.2340   33.5640   49.9070 N   0  0  0  0  0  0  0  0  0  0  0  0
   61.5420   33.9410   48.7990 C   0  0  0  0  0  0  0  0  0  0  0  0
   59.1749   31.6469   47.6352 H   0  0  0  0  0  0  0  0  0  0  0  0
   58.1733   29.6230   46.5864 H   0  0  0  0  0  0  0  0  0  0  0  0
   58.6394   28.0550   45.5011 H   0  0  0  0  0  0  0  0  0  0  0  0
   59.6657   25.9588   46.3843 H   0  0  0  0  0  0  0  0  0  0  0  0
   58.2130   24.0480   47.0729 H   0  0  0  0  0  0  0  0  0  0  0  0
   55.7332   24.2253   46.8637 H   0  0  0  0  0  0  0  0  0  0  0  0
   56.3193   32.1135   43.5653 H   0  0  0  0  0  0  0  0  0  0  0  0
   57.3235   34.1357   44.6193 H   0  0  0  0  0  0  0  0  0  0  0  0
   63.9421   33.3219   46.4530 H   0  0  0  0  0  0  0  0  0  0  0  0
   65.1745   32.6297   48.5194 H   0  0  0  0  0  0  0  0  0  0  0  0
   64.0378   32.7874   50.7404 H   0  0  0  0  0  0  0  0  0  0  0  0
   60.5172   34.3278   48.8999 H   0  0  0  0  0  0  0  0  0  0  0  0
  1  2  2  0
  2  3  1  0
  3  4  1  0
  4  5  2  0
  5  6  1  0
  6  7  2  0
  7  8  1  0
  8  9  2  0
  8 10  1  0
 10 11  1  0
 11 12  2  0
 12 13  1  0
 13 14  2  0
 14 15  1  0
 15 16  2  0
 16 17  1  0
  7 18  1  0
 18 19  2  0
  2 20  1  0
 20 21  1  0
 21 22  2  0
 22 23  1  0
 23 24  2  0
 24 25  1  0
 25 26  2  0
 19  4  1  0
 26 21  1  0
 16 11  1  0
  5 27  1  0
  6 28  1  0
 12 29  1  0
 13 30  1  0
 14 31  1  0
 15 32  1  0
 18 33  1  0
 19 34  1  0
 22 35  1  0
 23 36  1  0
 24 37  1  0
 26 38  1  0
M  CHG  4   3  -1  10  -1  17  -1  20  -1
M  END
>  <UniqueID>  (29) 
25

>  <SMILES>  (29) 
O=C([N-]c1ccc(C(=O)[N-]c2ccccc2[O-])cc1)[N-]c1cccnc1

>  <Energy>  (29) 
53.585647032607376

>  <Genealogy>  (29) 
O=C([N-]c1ccc(C(=O)[N-]c2ccccc2[O-])cc1)[N-]c1cccnc1 (protonated)
O=C([N-]c1ccc(C(=O)[N-]c2ccccc2[O-])cc1)[N-]c1cccnc1 (3D coordinates assigned)
O=C([N-]c1ccc(C(=O)[N-]c2ccccc2[O-])cc1)[N-]c1cccnc1 (optimized conformer: 53.585647032607376 kcal/mol)

>  <smiles>  (29) 
O=C(Nc1ccc(C(=O)Nc2ccccc2O)cc1)Nc1cccnc1

>  <score_type>  (29) 
oracle

>  <origin>  (29) 
adg

>  <m_score__min__energy>  (29) 
-15.52

>  <m_primary>  (29) 
energy

$$$$
29:0
     RDKit          3D

 73 77  0  0  0  0  0  0  0  0999 V2000
   56.2640   29.4080   42.2590 N   0  0  0  0  0  0  0  0  0  0  0  0
   56.8860   30.1970   43.6660 S   0  0  0  0  0  0  0  0  0  0  0  0
   57.8860   31.2450   43.2610 O   0  0  0  0  0  0  0  0  0  0  0  0
   55.7550   30.8660   44.4000 O   0  0  0  0  0  0  0  0  0  0  0  0
   57.6600   29.0100   44.7100 C   0  0  0  0  0  0  0  0  0  0  0  0
   59.0470   28.8300   44.6550 C   0  0  0  0  0  0  0  0  0  0  0  0
   59.6660   27.8600   45.4490 C   0  0  0  0  0  0  0  0  0  0  0  0
   58.8970   27.0460   46.2960 C   0  0  0  0  0  0  0  0  0  0  0  0
   59.5480   25.9630   47.1160 C   0  0  0  0  0  0  0  0  0  0  0  0
   60.7210   26.4490   47.7740 O   0  0  0  0  0  0  0  0  0  0  0  0
   60.7720   27.5700   48.6200 C   0  0  0  0  0  0  0  0  0  0  0  0
   60.7730   27.3570   50.0050 C   0  0  0  0  0  0  0  0  0  0  0  0
   60.7850   28.4390   50.8890 C   0  0  0  0  0  0  0  0  0  0  0  0
   60.7810   29.7480   50.3970 C   0  0  0  0  0  0  0  0  0  0  0  0
   60.7800   29.9790   49.0140 C   0  0  0  0  0  0  0  0  0  0  0  0
   60.8100   31.3780   48.4690 C   0  0  0  0  0  0  0  0  0  0  0  0
   59.9550   32.2460   49.2980 N   0  0  0  0  0  0  0  0  0  0  0  0
   58.5660   31.7460   49.4160 C   0  0  0  0  0  0  0  0  0  0  0  0
   58.1380   31.7540   50.8620 C   0  0  0  0  0  0  0  0  0  0  0  0
   58.8060   32.5630   51.7950 C   0  0  0  0  0  0  0  0  0  0  0  0
   58.4490   32.5160   53.1460 C   0  0  0  0  0  0  0  0  0  0  0  0
   57.4260   31.6640   53.5780 C   0  0  0  0  0  0  0  0  0  0  0  0
   56.7590   30.8430   52.6650 C   0  0  0  0  0  0  0  0  0  0  0  0
   55.7170   30.0190   53.1240 O   0  0  0  0  0  0  0  0  0  0  0  0
   54.4090   30.0650   52.6260 C   0  0  0  0  0  0  0  0  0  0  0  0
   53.5000   29.0280   52.8890 C   0  0  0  0  0  0  0  0  0  0  0  0
   52.2050   29.0780   52.3660 C   0  0  0  0  0  0  0  0  0  0  0  0
   51.8100   30.1660   51.5790 C   0  0  0  0  0  0  0  0  0  0  0  0
   52.7060   31.2100   51.3310 C   0  0  0  0  0  0  0  0  0  0  0  0
   53.9970   31.1710   51.8710 C   0  0  0  0  0  0  0  0  0  0  0  0
   57.1290   30.8810   51.3110 C   0  0  0  0  0  0  0  0  0  0  0  0
   60.0230   33.8990   48.7360 S   0  0  0  0  0  0  0  0  0  0  0  0
   59.3580   34.8010   49.7400 O   0  0  0  0  0  0  0  0  0  0  0  0
   61.4480   34.3400   48.5420 O   0  0  0  0  0  0  0  0  0  0  0  0
   59.2070   33.9910   47.1790 C   0  0  0  0  0  0  0  0  0  0  0  0
   59.8400   34.5580   46.0630 C   0  0  0  0  0  0  0  0  0  0  0  0
   59.1760   34.6090   44.8330 C   0  0  0  0  0  0  0  0  0  0  0  0
   57.8800   34.1000   44.7120 C   0  0  0  0  0  0  0  0  0  0  0  0
   57.2460   33.5370   45.8220 C   0  0  0  0  0  0  0  0  0  0  0  0
   57.9050   33.4830   47.0530 C   0  0  0  0  0  0  0  0  0  0  0  0
   60.8110   28.8870   48.1300 C   0  0  0  0  0  0  0  0  0  0  0  0
   57.5100   27.2510   46.3710 C   0  0  0  0  0  0  0  0  0  0  0  0
   56.8910   28.2190   45.5740 C   0  0  0  0  0  0  0  0  0  0  0  0
   56.3530   28.3790   42.4160 H   0  0  0  0  0  0  0  0  0  0  0  0
   55.2440   29.6200   42.2170 H   0  0  0  0  0  0  0  0  0  0  0  0
   59.6534   29.4553   43.9832 H   0  0  0  0  0  0  0  0  0  0  0  0
   60.7581   27.7342   45.4101 H   0  0  0  0  0  0  0  0  0  0  0  0
   58.8334   25.6068   47.8726 H   0  0  0  0  0  0  0  0  0  0  0  0
   59.8397   25.1433   46.4429 H   0  0  0  0  0  0  0  0  0  0  0  0
   60.7643   26.3301   50.3993 H   0  0  0  0  0  0  0  0  0  0  0  0
   60.7976   28.2607   51.9744 H   0  0  0  0  0  0  0  0  0  0  0  0
   60.7786   30.5975   51.0958 H   0  0  0  0  0  0  0  0  0  0  0  0
   61.8428   31.7562   48.4862 H   0  0  0  0  0  0  0  0  0  0  0  0
   60.4375   31.3766   47.4340 H   0  0  0  0  0  0  0  0  0  0  0  0
   57.8945   32.3939   48.8334 H   0  0  0  0  0  0  0  0  0  0  0  0
   58.5178   30.7171   49.0300 H   0  0  0  0  0  0  0  0  0  0  0  0
   59.6112   33.2347   51.4627 H   0  0  0  0  0  0  0  0  0  0  0  0
   58.9749   33.1520   53.8733 H   0  0  0  0  0  0  0  0  0  0  0  0
   57.1457   31.6406   54.6414 H   0  0  0  0  0  0  0  0  0  0  0  0
   53.8081   28.1731   53.5089 H   0  0  0  0  0  0  0  0  0  0  0  0
   51.4963   28.2625   52.5728 H   0  0  0  0  0  0  0  0  0  0  0  0
   50.7952   30.1995   51.1559 H   0  0  0  0  0  0  0  0  0  0  0  0
   52.3961   32.0637   50.7104 H   0  0  0  0  0  0  0  0  0  0  0  0
   54.6887   32.0096   51.7024 H   0  0  0  0  0  0  0  0  0  0  0  0
   56.6237   30.2198   50.5916 H   0  0  0  0  0  0  0  0  0  0  0  0
   60.8587   34.9626   46.1552 H   0  0  0  0  0  0  0  0  0  0  0  0
   59.6754   35.0511   43.9582 H   0  0  0  0  0  0  0  0  0  0  0  0
   57.3598   34.1427   43.7437 H   0  0  0  0  0  0  0  0  0  0  0  0
   56.2263   33.1355   45.7269 H   0  0  0  0  0  0  0  0  0  0  0  0
   57.4018   33.0411   47.9256 H   0  0  0  0  0  0  0  0  0  0  0  0
   60.8662   29.0642   47.0458 H   0  0  0  0  0  0  0  0  0  0  0  0
   56.9055   26.6453   47.0622 H   0  0  0  0  0  0  0  0  0  0  0  0
   55.8012   28.3594   45.6253 H   0  0  0  0  0  0  0  0  0  0  0  0
  1  2  1  0
  2  3  2  0
  2  4  2  0
  2  5  1  0
  5  6  2  0
  6  7  1  0
  7  8  2  0
  8  9  1  0
  9 10  1  0
 10 11  1  0
 11 12  2  0
 12 13  1  0
 13 14  2  0
 14 15  1  0
 15 16  1  0
 16 17  1  0
 17 18  1  0
 18 19  1  0
 19 20  2  0
 20 21  1  0
 21 22  2  0
 22 23  1  0
 23 24  1  0
 24 25  1  0
 25 26  2  0
 26 27  1  0
 27 28  2  0
 28 29  1  0
 29 30  2  0
 23 31  2  0
 17 32  1  0
 32 33  2  0
 32 34  2  0
 32 35  1  0
 35 36  2  0
 36 37  1  0
 37 38  2  0
 38 39  1  0
 39 40  2  0
 15 41  2  0
  8 42  1  0
 42 43  2  0
 43  5  1  0
 41 11  1  0
 31 19  1  0
 40 35  1  0
 30 25  1  0
  1 44  1  0
  1 45  1  0
  6 46  1  0
  7 47  1  0
  9 48  1  0
  9 49  1  0
 12 50  1  0
 13 51  1  0
 14 52  1  0
 16 53  1  0
 16 54  1  0
 18 55  1  0
 18 56  1  0
 20 57  1  0
 21 58  1  0
 22 59  1  0
 26 60  1  0
 27 61  1  0
 28 62  1  0
 29 63  1  0
 30 64  1  0
 31 65  1  0
 36 66  1  0
 37 67  1  0
 38 68  1  0
 39 69  1  0
 40 70  1  0
 41 71  1  0
 42 72  1  0
 43 73  1  0
M  END
>  <UniqueID>  (30) 
26

>  <SMILES>  (30) 
NS(=O)(=O)c1ccc(COc2cccc(CN(Cc3cccc(Oc4ccccc4)c3)S(=O)(=O)c3ccccc3)c2)cc1

>  <Energy>  (30) 
80.45398530073379

>  <Genealogy>  (30) 
NS(=O)(=O)c1ccc(COc2cccc(CN(Cc3cccc(Oc4ccccc4)c3)S(=O)(=O)c3ccccc3)c2)cc1 (3D coordinates assigned)
NS(=O)(=O)c1ccc(COc2cccc(CN(Cc3cccc(Oc4ccccc4)c3)S(=O)(=O)c3ccccc3)c2)cc1 (optimized conformer: 80.45398530073379 kcal/mol)

>  <smiles>  (30) 
NS(=O)(=O)c1ccc(COc2cccc(CN(Cc3cccc(Oc4ccccc4)c3)S(=O)(=O)c3ccccc3)c2)cc1

>  <score_type>  (30) 
oracle

>  <origin>  (30) 
adg

>  <m_score__min__energy>  (30) 
-11.34

>  <m_primary>  (30) 
energy

$$$$
30:0
     RDKit          3D

 34 36  0  0  0  0  0  0  0  0999 V2000
   60.0090   34.5840   47.9470 C   0  0  0  0  0  0  0  0  0  0  0  0
   59.2760   33.8510   46.8620 C   0  0  0  0  0  0  0  0  0  0  0  0
   58.6020   34.5640   45.8630 C   0  0  0  0  0  0  0  0  0  0  0  0
   57.8880   33.8860   44.8720 C   0  0  0  0  0  0  0  0  0  0  0  0
   57.8290   32.4840   44.8730 C   0  0  0  0  0  0  0  0  0  0  0  0
   57.1330   31.8270   43.9020 N   0  0  0  0  0  0  0  0  0  0  0  0
   57.0550   30.4640   43.8610 C   0  0  0  0  0  0  0  0  0  0  0  0
   56.2820   29.8090   42.7450 C   0  0  0  0  0  0  0  0  0  0  0  0
   57.6800   29.6950   44.8710 C   0  0  0  0  0  0  0  0  0  0  0  0
   57.5840   28.2150   44.8790 C   0  0  0  0  0  0  0  0  0  0  0  0
   57.0160   27.5500   45.9770 C   0  0  0  0  0  0  0  0  0  0  0  0
   56.9220   26.1550   45.9830 C   0  0  0  0  0  0  0  0  0  0  0  0
   57.3920   25.4170   44.8920 C   0  0  0  0  0  0  0  0  0  0  0  0
   57.9550   26.0730   43.7930 C   0  0  0  0  0  0  0  0  0  0  0  0
   58.0490   27.4680   43.7840 C   0  0  0  0  0  0  0  0  0  0  0  0
   58.4060   30.3520   45.8800 C   0  0  0  0  0  0  0  0  0  0  0  0
   58.9730   29.6790   46.7860 O   0  0  0  0  0  0  0  0  0  0  0  0
   58.4890   31.7560   45.8870 C   0  0  0  0  0  0  0  0  0  0  0  0
   59.2060   32.4500   46.8810 C   0  0  0  0  0  0  0  0  0  0  0  0
   59.6579   34.2329   48.9285 H   0  0  0  0  0  0  0  0  0  0  0  0
   61.0883   34.3931   47.8539 H   0  0  0  0  0  0  0  0  0  0  0  0
   59.8181   35.6633   47.8539 H   0  0  0  0  0  0  0  0  0  0  0  0
   58.6349   35.6635   45.8585 H   0  0  0  0  0  0  0  0  0  0  0  0
   57.3690   34.4545   44.0863 H   0  0  0  0  0  0  0  0  0  0  0  0
   56.6480   32.3830   43.1600 H   0  0  0  0  0  0  0  0  0  0  0  0
   55.5081   29.1533   43.1706 H   0  0  0  0  0  0  0  0  0  0  0  0
   55.8062   30.5831   42.1250 H   0  0  0  0  0  0  0  0  0  0  0  0
   56.9675   29.2126   42.1250 H   0  0  0  0  0  0  0  0  0  0  0  0
   56.6436   28.1283   46.8355 H   0  0  0  0  0  0  0  0  0  0  0  0
   56.4781   25.6377   46.8463 H   0  0  0  0  0  0  0  0  0  0  0  0
   57.3187   24.3195   44.8985 H   0  0  0  0  0  0  0  0  0  0  0  0
   58.3240   25.4915   42.9353 H   0  0  0  0  0  0  0  0  0  0  0  0
   58.4885   27.9822   42.9166 H   0  0  0  0  0  0  0  0  0  0  0  0
   59.7151   31.8890   47.6785 H   0  0  0  0  0  0  0  0  0  0  0  0
  1  2  1  0
  2  3  2  0
  3  4  1  0
  4  5  2  0
  5  6  1  0
  6  7  1  0
  7  8  1  0
  7  9  2  0
  9 10  1  0
 10 11  2  0
 11 12  1  0
 12 13  2  0
 13 14  1  0
 14 15  2  0
  9 16  1  0
 16 17  2  0
 16 18  1  0
 18 19  2  0
 19  2  1  0
 18  5  1  0
 15 10  1  0
  1 20  1  0
  1 21  1  0
  1 22  1  0
  3 23  1  0
  4 24  1  0
  6 25  1  0
  8 26  1  0
  8 27  1  0
  8 28  1  0
 11 29  1  0
 12 30  1  0
 13 31  1  0
 14 32  1  0
 15 33  1  0
 19 34  1  0
M  END
>  <UniqueID>  (31) 
27

>  <SMILES>  (31) 
Cc1ccc2[nH]c(C)c(-c3ccccc3)c(=O)c2c1

>  <Energy>  (31) 
48.83448371864829

>  <Genealogy>  (31) 
Cc1ccc2[nH]c(C)c(-c3ccccc3)c(=O)c2c1 (3D coordinates assigned)
Cc1ccc2[nH]c(C)c(-c3ccccc3)c(=O)c2c1 (optimized conformer: 48.83448371864829 kcal/mol)

>  <smiles>  (31) 
Cc1ccc2[nH]c(C)c(-c3ccccc3)c(=O)c2c1

>  <score_type>  (31) 
oracle

>  <origin>  (31) 
adg

>  <m_score__min__energy>  (31) 
-7.1299999999999999

>  <m_primary>  (31) 
energy

$$$$
31:0
     RDKit          3D

 67 71  0  0  0  0  0  0  0  0999 V2000
   61.7941   31.1115   51.8581 H   0  0  0  0  0  0  0  0  0  0  0  0
   61.0770   31.8220   51.4210 C   0  0  0  0  0  0  0  0  0  0  0  0
   60.6030   31.6190   50.1630 N   0  0  0  0  0  0  0  0  0  0  0  0
   59.7220   32.4740   49.5710 C   0  0  0  0  0  0  0  0  0  0  0  0
   59.2480   32.1980   48.2350 N   0  0  0  0  0  0  0  0  0  0  0  0
   58.0250   32.8450   47.7290 C   0  0  0  0  0  0  0  0  0  0  0  0
   57.9027   33.8212   48.2209 H   0  0  0  0  0  0  0  0  0  0  0  0
   57.1641   32.1968   47.9495 H   0  0  0  0  0  0  0  0  0  0  0  0
   58.1110   33.0520   46.2160 C   0  0  0  0  0  0  0  0  0  0  0  0
   58.8499   33.8359   45.9932 H   0  0  0  0  0  0  0  0  0  0  0  0
   57.1284   33.3586   45.8281 H   0  0  0  0  0  0  0  0  0  0  0  0
   58.5210   31.7980   45.5820 N   0  0  0  0  0  0  0  0  0  0  0  0
   57.5700   30.9730   44.8750 C   0  0  0  0  0  0  0  0  0  0  0  0
   56.3520   31.2950   44.8570 O   0  0  0  0  0  0  0  0  0  0  0  0
   58.0020   29.7620   44.2380 N   0  0  0  0  0  0  0  0  0  0  0  0
   58.1630   28.4720   44.8490 C   0  0  0  0  0  0  0  0  0  0  0  0
   59.4290   27.9290   45.1280 C   0  0  0  0  0  0  0  0  0  0  0  0
   60.3371   28.4949   44.8726 H   0  0  0  0  0  0  0  0  0  0  0  0
   59.5370   26.6720   45.7290 C   0  0  0  0  0  0  0  0  0  0  0  0
   60.5301   26.2424   45.9268 H   0  0  0  0  0  0  0  0  0  0  0  0
   58.3890   25.9600   46.0790 C   0  0  0  0  0  0  0  0  0  0  0  0
   58.4815   24.9630   46.5345 H   0  0  0  0  0  0  0  0  0  0  0  0
   57.1160   26.5090   45.8530 C   0  0  0  0  0  0  0  0  0  0  0  0
   55.8900   25.7670   46.2390 C   0  0  0  0  0  0  0  0  0  0  0  0
   54.7610   26.2780   46.0110 O   0  0  0  0  0  0  0  0  0  0  0  0
   55.9460   24.4480   46.8040 N   0  0  0  0  0  0  0  0  0  0  0  0
   56.4650   23.3980   46.2370 C   0  0  0  0  0  0  0  0  0  0  0  0
   57.2260   22.5160   46.9180 N   0  0  0  0  0  0  0  0  0  0  0  0
   57.6890   21.5220   46.1120 C   0  0  0  0  0  0  0  0  0  0  0  0
   58.3207   20.7039   46.4884 H   0  0  0  0  0  0  0  0  0  0  0  0
   57.3060   21.6150   44.7780 C   0  0  0  0  0  0  0  0  0  0  0  0
   57.5772   20.9109   43.9776 H   0  0  0  0  0  0  0  0  0  0  0  0
   56.3550   22.9930   44.6020 S   0  0  0  0  0  0  0  0  0  0  0  0
   57.0140   27.7650   45.2300 C   0  0  0  0  0  0  0  0  0  0  0  0
   56.0210   28.1981   45.0392 H   0  0  0  0  0  0  0  0  0  0  0  0
   59.8160   31.2670   46.0150 C   0  0  0  0  0  0  0  0  0  0  0  0
   60.6085   31.9934   45.7820 H   0  0  0  0  0  0  0  0  0  0  0  0
   60.0239   30.3232   45.4897 H   0  0  0  0  0  0  0  0  0  0  0  0
   59.7760   31.0190   47.5240 C   0  0  0  0  0  0  0  0  0  0  0  0
   60.7946   30.8084   47.8819 H   0  0  0  0  0  0  0  0  0  0  0  0
   59.1153   30.1624   47.7230 H   0  0  0  0  0  0  0  0  0  0  0  0
   59.2830   33.6030   50.2830 C   0  0  0  0  0  0  0  0  0  0  0  0
   58.5707   34.3040   49.8234 H   0  0  0  0  0  0  0  0  0  0  0  0
   59.7550   33.8300   51.5750 C   0  0  0  0  0  0  0  0  0  0  0  0
   59.4195   34.7158   52.1342 H   0  0  0  0  0  0  0  0  0  0  0  0
   60.6550   32.9330   52.1620 C   0  0  0  0  0  0  0  0  0  0  0  0
   61.1880   33.1760   53.5500 C   0  0  0  0  0  0  0  0  0  0  0  0
   60.8269   34.1515   53.9077 H   0  0  0  0  0  0  0  0  0  0  0  0
   60.8335   32.3679   54.2067 H   0  0  0  0  0  0  0  0  0  0  0  0
   62.6030   33.1750   53.5600 O   0  0  0  0  0  0  0  0  0  0  0  0
   63.1080   34.1430   52.6580 C   0  0  0  0  0  0  0  0  0  0  0  0
   62.2903   34.5150   52.0232 H   0  0  0  0  0  0  0  0  0  0  0  0
   63.5424   34.9806   53.2234 H   0  0  0  0  0  0  0  0  0  0  0  0
   64.1860   33.5060   51.7800 C   0  0  0  0  0  0  0  0  0  0  0  0
   65.0748   34.1541   51.7748 H   0  0  0  0  0  0  0  0  0  0  0  0
   64.4326   32.5161   52.1914 H   0  0  0  0  0  0  0  0  0  0  0  0
   63.6970   33.3290   50.3650 C   0  0  0  0  0  0  0  0  0  0  0  0
   62.8840   34.3070   49.7700 C   0  0  0  0  0  0  0  0  0  0  0  0
   62.5746   35.1891   50.3498 H   0  0  0  0  0  0  0  0  0  0  0  0
   62.4660   34.1640   48.4430 C   0  0  0  0  0  0  0  0  0  0  0  0
   61.8232   34.9295   47.9839 H   0  0  0  0  0  0  0  0  0  0  0  0
   62.8640   33.0500   47.7000 C   0  0  0  0  0  0  0  0  0  0  0  0
   62.5324   32.9374   46.6572 H   0  0  0  0  0  0  0  0  0  0  0  0
   63.6830   32.0790   48.2810 C   0  0  0  0  0  0  0  0  0  0  0  0
   63.9983   31.2040   47.6937 H   0  0  0  0  0  0  0  0  0  0  0  0
   64.1030   32.2170   49.6080 C   0  0  0  0  0  0  0  0  0  0  0  0
   64.7527   31.4531   50.0601 H   0  0  0  0  0  0  0  0  0  0  0  0
  1  2  1  0
  2  3  2  0
  3  4  1  0
  4  5  1  0
  5  6  1  0
  6  7  1  0
  6  8  1  0
  6  9  1  0
  9 10  1  0
  9 11  1  0
  9 12  1  0
 12 13  1  0
 13 14  2  0
 13 15  1  0
 15 16  1  0
 16 17  2  0
 17 18  1  0
 17 19  1  0
 19 20  1  0
 19 21  2  0
 21 22  1  0
 21 23  1  0
 23 24  1  0
 24 25  2  0
 24 26  1  0
 26 27  2  0
 27 28  1  0
 28 29  1  0
 29 30  1  0
 29 31  2  0
 31 32  1  0
 31 33  1  0
 23 34  2  0
 34 35  1  0
 12 36  1  0
 36 37  1  0
 36 38  1  0
 36 39  1  0
 39 40  1  0
 39 41  1  0
  4 42  2  0
 42 43  1  0
 42 44  1  0
 44 45  1  0
 44 46  2  0
 46 47  1  0
 47 48  1  0
 47 49  1  0
 47 50  1  0
 50 51  1  0
 51 52  1  0
 51 53  1  0
 51 54  1  0
 54 55  1  0
 54 56  1  0
 54 57  1  0
 57 58  2  0
 58 59  1  0
 58 60  1  0
 60 61  1  0
 60 62  2  0
 62 63  1  0
 62 64  1  0
 64 65  1  0
 64 66  2  0
 66 67  1  0
 46  2  1  0
 66 57  1  0
 39  5  1  0
 34 16  1  0
 33 27  1  0
M  CHG  2  15  -1  28  -1
M  END
>  <UniqueID>  (32) 
28

>  <SMILES>  (32) 
O=C(/N=c1/[n-]ccs1)c1cccc([N-]C(=O)N2CCN(c3ccc(COCCc4ccccc4)cn3)CC2)c1

>  <Energy>  (32) 
118.37344275224228

>  <Genealogy>  (32) 
O=C(N=c1[n-]ccs1)c1cccc([N-]C(=O)N2CCN(c3ccc(COCCc4ccccc4)cn3)CC2)c1 (protonated)
O=C(/N=c1/[n-]ccs1)c1cccc([N-]C(=O)N2CCN(c3ccc(COCCc4ccccc4)cn3)CC2)c1 (cis-trans isomerization)
O=C(/N=c1/[n-]ccs1)c1cccc([N-]C(=O)N2CCN(c3ccc(COCCc4ccccc4)cn3)CC2)c1 (3D coordinates assigned)
O=C(/N=c1/[n-]ccs1)c1cccc([N-]C(=O)N2CCN(c3ccc(COCCc4ccccc4)cn3)CC2)c1 (nonaromatic ring conformer: 118.37344275224228 kcal/mol)

>  <smiles>  (32) 
O=C(N=c1[nH]ccs1)c1cccc(NC(=O)N2CCN(c3ccc(COCCc4ccccc4)cn3)CC2)c1

>  <score_type>  (32) 
oracle

>  <origin>  (32) 
adg

>  <m_score__min__energy>  (32) 
-13.279999999999999

>  <m_primary>  (32) 
energy

$$$$
32:0
     RDKit          3D

 39 41  0  0  0  0  0  0  0  0999 V2000
   54.8690   25.9190   45.6270 N   0  0  0  0  0  0  0  0  0  0  0  0
   54.8250   24.2380   46.0330 S   0  0  0  0  0  0  0  0  0  0  0  0
   53.4550   23.7120   45.7100 O   0  0  0  0  0  0  0  0  0  0  0  0
   55.0890   24.0840   47.5040 O   0  0  0  0  0  0  0  0  0  0  0  0
   56.0530   23.3540   45.1130 C   0  0  0  0  0  0  0  0  0  0  0  0
   55.7570   22.0540   44.6710 C   0  0  0  0  0  0  0  0  0  0  0  0
   56.7120   21.3000   43.9840 C   0  0  0  0  0  0  0  0  0  0  0  0
   57.9740   21.8350   43.7300 C   0  0  0  0  0  0  0  0  0  0  0  0
   58.2810   23.1300   44.1500 C   0  0  0  0  0  0  0  0  0  0  0  0
   57.3280   23.9070   44.8300 C   0  0  0  0  0  0  0  0  0  0  0  0
   57.6930   25.2830   45.2200 C   0  0  0  0  0  0  0  0  0  0  0  0
   58.0230   25.5730   46.5500 C   0  0  0  0  0  0  0  0  0  0  0  0
   58.3770   26.8730   46.9230 C   0  0  0  0  0  0  0  0  0  0  0  0
   58.4170   27.9040   45.9660 C   0  0  0  0  0  0  0  0  0  0  0  0
   58.7890   29.2840   46.3600 C   0  0  0  0  0  0  0  0  0  0  0  0
   59.9630   29.5320   46.7460 O   0  0  0  0  0  0  0  0  0  0  0  0
   57.8000   30.3230   46.3500 N   0  0  0  0  0  0  0  0  0  0  0  0
   57.9830   31.6790   45.9130 C   0  0  0  0  0  0  0  0  0  0  0  0
   58.5240   32.6630   46.7630 C   0  0  0  0  0  0  0  0  0  0  0  0
   58.7130   33.9690   46.3020 C   0  0  0  0  0  0  0  0  0  0  0  0
   58.3800   34.3010   44.9870 C   0  0  0  0  0  0  0  0  0  0  0  0
   57.8670   33.3270   44.1280 C   0  0  0  0  0  0  0  0  0  0  0  0
   57.6760   32.0160   44.5830 C   0  0  0  0  0  0  0  0  0  0  0  0
   57.0340   30.8120   43.4740 Cl  0  0  0  0  0  0  0  0  0  0  0  0
   58.1000   27.6030   44.6290 C   0  0  0  0  0  0  0  0  0  0  0  0
   57.7470   26.3030   44.2590 C   0  0  0  0  0  0  0  0  0  0  0  0
   53.9390   26.3200   45.8850 H   0  0  0  0  0  0  0  0  0  0  0  0
   54.7633   21.6252   44.8677 H   0  0  0  0  0  0  0  0  0  0  0  0
   56.4677   20.2831   43.6432 H   0  0  0  0  0  0  0  0  0  0  0  0
   58.7281   21.2362   43.1983 H   0  0  0  0  0  0  0  0  0  0  0  0
   59.2786   23.5464   43.9467 H   0  0  0  0  0  0  0  0  0  0  0  0
   58.0035   24.7734   47.3052 H   0  0  0  0  0  0  0  0  0  0  0  0
   58.6260   27.0915   47.9719 H   0  0  0  0  0  0  0  0  0  0  0  0
   58.7994   32.4023   47.7956 H   0  0  0  0  0  0  0  0  0  0  0  0
   59.1242   34.7356   46.9753 H   0  0  0  0  0  0  0  0  0  0  0  0
   58.5220   35.3309   44.6276 H   0  0  0  0  0  0  0  0  0  0  0  0
   57.6121   33.5900   43.0908 H   0  0  0  0  0  0  0  0  0  0  0  0
   58.1303   28.3975   43.8688 H   0  0  0  0  0  0  0  0  0  0  0  0
   57.5102   26.0782   43.2086 H   0  0  0  0  0  0  0  0  0  0  0  0
  1  2  1  0
  2  3  2  0
  2  4  2  0
  2  5  1  0
  5  6  2  0
  6  7  1  0
  7  8  2  0
  8  9  1  0
  9 10  2  0
 10 11  1  0
 11 12  2  0
 12 13  1  0
 13 14  2  0
 14 15  1  0
 15 16  2  0
 15 17  1  0
 17 18  1  0
 18 19  2  0
 19 20  1  0
 20 21  2  0
 21 22  1  0
 22 23  2  0
 23 24  1  0
 14 25  1  0
 25 26  2  0
 10  5  1  0
 26 11  1  0
 23 18  1  0
  1 27  1  0
  6 28  1  0
  7 29  1  0
  8 30  1  0
  9 31  1  0
 12 32  1  0
 13 33  1  0
 19 34  1  0
 20 35  1  0
 21 36  1  0
 22 37  1  0
 25 38  1  0
 26 39  1  0
M  CHG  2   1  -1  17  -1
M  END
>  <UniqueID>  (33) 
29

>  <SMILES>  (33) 
[NH-]S(=O)(=O)c1ccccc1-c1ccc(C(=O)[N-]c2ccccc2Cl)cc1

>  <Energy>  (33) 
55.052985715330806

>  <Genealogy>  (33) 
[NH-]S(=O)(=O)c1ccccc1-c1ccc(C(=O)[N-]c2ccccc2Cl)cc1 (protonated)
[NH-]S(=O)(=O)c1ccccc1-c1ccc(C(=O)[N-]c2ccccc2Cl)cc1 (3D coordinates assigned)
[NH-]S(=O)(=O)c1ccccc1-c1ccc(C(=O)[N-]c2ccccc2Cl)cc1 (optimized conformer: 55.052985715330806 kcal/mol)

>  <smiles>  (33) 
NS(=O)(=O)c1ccccc1-c1ccc(C(=O)Nc2ccccc2Cl)cc1

>  <score_type>  (33) 
oracle

>  <origin>  (33) 
adg

>  <m_score__min__energy>  (33) 
-12.369999999999999

>  <m_primary>  (33) 
energy

$$$$
33:0
     RDKit          3D

 41 42  0  0  0  0  0  0  0  0999 V2000
   62.8820   33.9280   48.4420 C   0  0  0  0  0  0  0  0  0  0  0  0
   62.8630   33.8550   47.1080 C   0  0  0  0  0  0  0  0  0  0  0  0
   61.6010   33.5780   46.3350 C   0  0  0  0  0  0  0  0  0  0  0  0
   60.7710   32.5620   47.0180 N   0  0  0  0  0  0  0  0  0  0  0  0
   61.2910   31.3360   47.3960 C   0  0  0  0  0  0  0  0  0  0  0  0
   62.6560   30.9640   47.1400 N   0  0  0  0  0  0  0  0  0  0  0  0
   60.4760   30.4040   48.0480 C   0  0  0  0  0  0  0  0  0  0  0  0
   59.1630   30.7400   48.3410 C   0  0  0  0  0  0  0  0  0  0  0  0
   58.4180   29.9250   48.9470 O   0  0  0  0  0  0  0  0  0  0  0  0
   58.6810   31.9450   47.9670 N   0  0  0  0  0  0  0  0  0  0  0  0
   59.4510   32.8470   47.3050 C   0  0  0  0  0  0  0  0  0  0  0  0
   58.6550   34.3800   46.7740 S   0  0  0  0  0  0  0  0  0  0  0  0
   57.2090   33.5700   45.9960 C   0  0  0  0  0  0  0  0  0  0  0  0
   57.6270   32.4900   45.0490 C   0  0  0  0  0  0  0  0  0  0  0  0
   58.4030   32.7600   44.0940 O   0  0  0  0  0  0  0  0  0  0  0  0
   57.1310   31.1610   45.2500 N   0  0  0  0  0  0  0  0  0  0  0  0
   57.8470   29.9180   45.1790 C   0  0  0  0  0  0  0  0  0  0  0  0
   59.2370   29.8480   44.9630 C   0  0  0  0  0  0  0  0  0  0  0  0
   59.8900   28.6130   44.9860 C   0  0  0  0  0  0  0  0  0  0  0  0
   59.1740   27.4420   45.2420 C   0  0  0  0  0  0  0  0  0  0  0  0
   57.7950   27.5020   45.4820 C   0  0  0  0  0  0  0  0  0  0  0  0
   56.8870   26.0400   45.8450 S   0  0  0  0  0  0  0  0  0  0  0  0
   55.2070   26.4200   45.9950 N   0  0  0  0  0  0  0  0  0  0  0  0
   57.0810   25.0420   44.7390 O   0  0  0  0  0  0  0  0  0  0  0  0
   57.3640   25.4450   47.1420 O   0  0  0  0  0  0  0  0  0  0  0  0
   57.1380   28.7390   45.4390 C   0  0  0  0  0  0  0  0  0  0  0  0
   63.8261   34.1325   48.9682 H   0  0  0  0  0  0  0  0  0  0  0  0
   61.9536   33.7836   49.0140 H   0  0  0  0  0  0  0  0  0  0  0  0
   63.8024   34.0025   46.5551 H   0  0  0  0  0  0  0  0  0  0  0  0
   61.0243   34.5101   46.2426 H   0  0  0  0  0  0  0  0  0  0  0  0
   61.8766   33.1941   45.3417 H   0  0  0  0  0  0  0  0  0  0  0  0
   62.9130   30.5180   46.2310 H   0  0  0  0  0  0  0  0  0  0  0  0
   63.4080   30.9950   47.8590 H   0  0  0  0  0  0  0  0  0  0  0  0
   60.8724   29.4160   48.3250 H   0  0  0  0  0  0  0  0  0  0  0  0
   56.5794   33.1303   46.7836 H   0  0  0  0  0  0  0  0  0  0  0  0
   56.6530   34.3301   45.4276 H   0  0  0  0  0  0  0  0  0  0  0  0
   59.8100   30.7681   44.7757 H   0  0  0  0  0  0  0  0  0  0  0  0
   60.9733   28.5630   44.8016 H   0  0  0  0  0  0  0  0  0  0  0  0
   59.6927   26.4721   45.2553 H   0  0  0  0  0  0  0  0  0  0  0  0
   55.1310   27.4600   46.0270 H   0  0  0  0  0  0  0  0  0  0  0  0
   56.0526   28.7843   45.6115 H   0  0  0  0  0  0  0  0  0  0  0  0
  1  2  2  0
  2  3  1  0
  3  4  1  0
  4  5  1  0
  5  6  1  0
  5  7  2  0
  7  8  1  0
  8  9  2  0
  8 10  1  0
 10 11  2  0
 11 12  1  0
 12 13  1  0
 13 14  1  0
 14 15  2  0
 14 16  1  0
 16 17  1  0
 17 18  2  0
 18 19  1  0
 19 20  2  0
 20 21  1  0
 21 22  1  0
 22 23  1  0
 22 24  2  0
 22 25  2  0
 21 26  2  0
 11  4  1  0
 26 17  1  0
  1 27  1  0
  1 28  1  0
  2 29  1  0
  3 30  1  0
  3 31  1  0
  6 32  1  0
  6 33  1  0
  7 34  1  0
 13 35  1  0
 13 36  1  0
 18 37  1  0
 19 38  1  0
 20 39  1  0
 23 40  1  0
 26 41  1  0
M  CHG  2  16  -1  23  -1
M  END
>  <UniqueID>  (34) 
30

>  <SMILES>  (34) 
C=CCn1c(N)cc(=O)nc1SCC(=O)[N-]c1cccc(S([NH-])(=O)=O)c1

>  <Energy>  (34) 
41.23778625156828

>  <Genealogy>  (34) 
C=CCn1c(N)cc(=O)nc1SCC(=O)[N-]c1cccc(S([NH-])(=O)=O)c1 (protonated)
C=CCn1c(N)cc(=O)nc1SCC(=O)[N-]c1cccc(S([NH-])(=O)=O)c1 (3D coordinates assigned)
C=CCn1c(N)cc(=O)nc1SCC(=O)[N-]c1cccc(S([NH-])(=O)=O)c1 (optimized conformer: 41.23778625156828 kcal/mol)

>  <smiles>  (34) 
C=CCn1c(N)cc(=O)nc1SCC(=O)Nc1cccc(S(N)(=O)=O)c1

>  <score_type>  (34) 
oracle

>  <origin>  (34) 
adg

>  <m_score__min__energy>  (34) 
-11.720000000000001

>  <m_primary>  (34) 
energy

$$$$
34:0
     RDKit          3D

 50 52  0  0  0  0  0  0  0  0999 V2000
   57.0130   21.1600   43.1000 C   0  0  0  0  0  0  0  0  0  0  0  0
   55.9150   21.9250   43.5740 O   0  0  0  0  0  0  0  0  0  0  0  0
   56.0420   23.1740   44.2120 C   0  0  0  0  0  0  0  0  0  0  0  0
   57.2370   23.9230   44.1710 C   0  0  0  0  0  0  0  0  0  0  0  0
   57.3150   25.1640   44.8020 C   0  0  0  0  0  0  0  0  0  0  0  0
   56.2110   25.6900   45.4720 C   0  0  0  0  0  0  0  0  0  0  0  0
   56.3250   26.9850   46.0740 N   0  0  0  0  0  0  0  0  0  0  0  0
   56.8380   28.4210   45.2480 S   0  0  0  0  0  0  0  0  0  0  0  0
   57.4160   28.0730   43.9040 O   0  0  0  0  0  0  0  0  0  0  0  0
   55.6540   29.3240   45.0630 O   0  0  0  0  0  0  0  0  0  0  0  0
   58.0880   29.2300   46.2040 C   0  0  0  0  0  0  0  0  0  0  0  0
   58.7080   28.5140   47.2380 C   0  0  0  0  0  0  0  0  0  0  0  0
   59.7140   29.1000   48.0080 C   0  0  0  0  0  0  0  0  0  0  0  0
   60.5500   28.1040   49.4030 Br  0  0  0  0  0  0  0  0  0  0  0  0
   60.1200   30.4080   47.7530 C   0  0  0  0  0  0  0  0  0  0  0  0
   59.5020   31.1470   46.7390 C   0  0  0  0  0  0  0  0  0  0  0  0
   58.4750   30.5760   45.9650 C   0  0  0  0  0  0  0  0  0  0  0  0
   57.8830   31.3900   44.9250 N   0  0  0  0  0  0  0  0  0  0  0  0
   57.5790   32.7310   45.4500 C   0  0  0  0  0  0  0  0  0  0  0  0
   58.8610   33.4940   45.9350 C   0  0  0  0  0  0  0  0  0  0  0  0
   58.4790   34.4020   47.1240 C   0  0  0  0  0  0  0  0  0  0  0  0
   59.3850   34.3940   44.7960 C   0  0  0  0  0  0  0  0  0  0  0  0
   60.0040   32.5180   46.3740 C   0  0  0  0  0  0  0  0  0  0  0  0
   55.0250   24.9390   45.5390 C   0  0  0  0  0  0  0  0  0  0  0  0
   54.9340   23.6820   44.9040 C   0  0  0  0  0  0  0  0  0  0  0  0
   53.7590   22.9120   44.9330 O   0  0  0  0  0  0  0  0  0  0  0  0
   52.4870   23.3980   45.3410 C   0  0  0  0  0  0  0  0  0  0  0  0
   57.5807   20.7645   43.9552 H   0  0  0  0  0  0  0  0  0  0  0  0
   56.6411   20.3245   42.4888 H   0  0  0  0  0  0  0  0  0  0  0  0
   57.6680   21.7983   42.4888 H   0  0  0  0  0  0  0  0  0  0  0  0
   58.1130   23.5253   43.6377 H   0  0  0  0  0  0  0  0  0  0  0  0
   58.2558   25.7331   44.7710 H   0  0  0  0  0  0  0  0  0  0  0  0
   58.3981   27.4790   47.4446 H   0  0  0  0  0  0  0  0  0  0  0  0
   60.9266   30.8596   48.3491 H   0  0  0  0  0  0  0  0  0  0  0  0
   58.5510   31.4620   44.1220 H   0  0  0  0  0  0  0  0  0  0  0  0
   56.9840   30.9900   44.5750 H   0  0  0  0  0  0  0  0  0  0  0  0
   57.0982   33.3199   44.6550 H   0  0  0  0  0  0  0  0  0  0  0  0
   56.9168   32.6061   46.3194 H   0  0  0  0  0  0  0  0  0  0  0  0
   58.6980   33.8815   48.0680 H   0  0  0  0  0  0  0  0  0  0  0  0
   59.0613   35.3340   47.0755 H   0  0  0  0  0  0  0  0  0  0  0  0
   57.4056   34.6374   47.0755 H   0  0  0  0  0  0  0  0  0  0  0  0
   59.8946   35.2693   45.2252 H   0  0  0  0  0  0  0  0  0  0  0  0
   60.0931   33.8252   44.1755 H   0  0  0  0  0  0  0  0  0  0  0  0
   58.5408   34.7290   44.1755 H   0  0  0  0  0  0  0  0  0  0  0  0
   60.7185   32.4195   45.5434 H   0  0  0  0  0  0  0  0  0  0  0  0
   60.4731   32.9454   47.2725 H   0  0  0  0  0  0  0  0  0  0  0  0
   54.1599   25.3345   46.0914 H   0  0  0  0  0  0  0  0  0  0  0  0
   52.4370   23.4171   46.4397 H   0  0  0  0  0  0  0  0  0  0  0  0
   52.3404   24.4155   44.9495 H   0  0  0  0  0  0  0  0  0  0  0  0
   51.6993   22.7375   44.9495 H   0  0  0  0  0  0  0  0  0  0  0  0
  1  2  1  0
  2  3  1  0
  3  4  2  0
  4  5  1  0
  5  6  2  0
  6  7  1  0
  7  8  1  0
  8  9  2  0
  8 10  2  0
  8 11  1  0
 11 12  2  0
 12 13  1  0
 13 14  1  0
 13 15  2  0
 15 16  1  0
 16 17  2  0
 17 18  1  0
 18 19  1  0
 19 20  1  0
 20 21  1  0
 20 22  1  0
 20 23  1  0
  6 24  1  0
 24 25  2  0
 25 26  1  0
 26 27  1  0
 25  3  1  0
 17 11  1  0
 23 16  1  0
  1 28  1  0
  1 29  1  0
  1 30  1  0
  4 31  1  0
  5 32  1  0
 12 33  1  0
 15 34  1  0
 18 35  1  0
 18 36  1  0
 19 37  1  0
 19 38  1  0
 21 39  1  0
 21 40  1  0
 21 41  1  0
 22 42  1  0
 22 43  1  0
 22 44  1  0
 23 45  1  0
 23 46  1  0
 24 47  1  0
 27 48  1  0
 27 49  1  0
 27 50  1  0
M  CHG  2   7  -1  18   1
M  END
>  <UniqueID>  (35) 
31

>  <SMILES>  (35) 
COc1ccc([N-]S(=O)(=O)c2cc(Br)cc3c2[NH2+]CC(C)(C)C3)cc1OC

>  <Energy>  (35) 
63.8337364455459

>  <Genealogy>  (35) 
COc1ccc([N-]S(=O)(=O)c2cc(Br)cc3c2[NH2+]CC(C)(C)C3)cc1OC (protonated)
COc1ccc([N-]S(=O)(=O)c2cc(Br)cc3c2[NH2+]CC(C)(C)C3)cc1OC (3D coordinates assigned)
COc1ccc([N-]S(=O)(=O)c2cc(Br)cc3c2[NH2+]CC(C)(C)C3)cc1OC (nonaromatic ring conformer: 63.8337364455459 kcal/mol)

>  <smiles>  (35) 
COc1ccc(NS(=O)(=O)c2cc(Br)cc3c2NCC(C)(C)C3)cc1OC

>  <score_type>  (35) 
oracle

>  <origin>  (35) 
adg

>  <m_score__min__energy>  (35) 
-8.9299999999999997

>  <m_primary>  (35) 
energy

$$$$
35:0
     RDKit          3D

 30 31  0  0  0  0  0  0  0  0999 V2000
   55.9090   30.2070   44.7920 O   0  0  0  0  0  0  0  0  0  0  0  0
   56.8840   30.3800   44.0110 C   0  0  0  0  0  0  0  0  0  0  0  0
   57.8490   29.3410   43.8020 N   0  0  0  0  0  0  0  0  0  0  0  0
   57.9420   28.1410   44.5810 C   0  0  0  0  0  0  0  0  0  0  0  0
   58.0980   26.8420   44.1070 C   0  0  0  0  0  0  0  0  0  0  0  0
   58.0890   25.8860   45.1290 C   0  0  0  0  0  0  0  0  0  0  0  0
   57.9110   26.4240   46.3980 C   0  0  0  0  0  0  0  0  0  0  0  0
   57.7610   28.0930   46.2520 S   0  0  0  0  0  0  0  0  0  0  0  0
   57.0170   31.5800   43.3080 O   0  0  0  0  0  0  0  0  0  0  0  0
   58.0160   32.5480   43.6160 C   0  0  0  0  0  0  0  0  0  0  0  0
   57.4270   33.6470   44.4980 C   0  0  0  0  0  0  0  0  0  0  0  0
   58.2340   33.8260   45.7570 C   0  0  0  0  0  0  0  0  0  0  0  0
   59.2410   34.8030   45.8240 C   0  0  0  0  0  0  0  0  0  0  0  0
   60.0110   34.9430   46.9830 C   0  0  0  0  0  0  0  0  0  0  0  0
   59.7860   34.1060   48.0780 C   0  0  0  0  0  0  0  0  0  0  0  0
   58.7940   33.1230   48.0160 C   0  0  0  0  0  0  0  0  0  0  0  0
   58.0220   32.9780   46.8580 C   0  0  0  0  0  0  0  0  0  0  0  0
   58.5050   29.4500   42.9960 H   0  0  0  0  0  0  0  0  0  0  0  0
   58.2159   26.5930   43.0421 H   0  0  0  0  0  0  0  0  0  0  0  0
   58.2115   24.8084   44.9449 H   0  0  0  0  0  0  0  0  0  0  0  0
   57.8744   25.8548   47.3386 H   0  0  0  0  0  0  0  0  0  0  0  0
   58.8447   32.0588   44.1488 H   0  0  0  0  0  0  0  0  0  0  0  0
   58.3846   32.9953   42.6811 H   0  0  0  0  0  0  0  0  0  0  0  0
   57.4224   34.5933   43.9372 H   0  0  0  0  0  0  0  0  0  0  0  0
   56.4035   33.3574   44.7785 H   0  0  0  0  0  0  0  0  0  0  0  0
   59.4247   35.4605   44.9615 H   0  0  0  0  0  0  0  0  0  0  0  0
   60.7948   35.7133   47.0322 H   0  0  0  0  0  0  0  0  0  0  0  0
   60.3900   34.2203   48.9902 H   0  0  0  0  0  0  0  0  0  0  0  0
   58.6201   32.4628   48.8785 H   0  0  0  0  0  0  0  0  0  0  0  0
   57.2473   32.1986   46.8091 H   0  0  0  0  0  0  0  0  0  0  0  0
  1  2  2  0
  2  3  1  0
  3  4  1  0
  4  5  2  0
  5  6  1  0
  6  7  2  0
  7  8  1  0
  2  9  1  0
  9 10  1  0
 10 11  1  0
 11 12  1  0
 12 13  2  0
 13 14  1  0
 14 15  2  0
 15 16  1  0
 16 17  2  0
  8  4  1  0
 17 12  1  0
  3 18  1  0
  5 19  1  0
  6 20  1  0
  7 21  1  0
 10 22  1  0
 10 23  1  0
 11 24  1  0
 11 25  1  0
 13 26  1  0
 14 27  1  0
 15 28  1  0
 16 29  1  0
 17 30  1  0
M  END
>  <UniqueID>  (36) 
32

>  <SMILES>  (36) 
O=C(Nc1cccs1)OCCc1ccccc1

>  <Energy>  (36) 
53.39926830413471

>  <Genealogy>  (36) 
O=C(Nc1cccs1)OCCc1ccccc1 (3D coordinates assigned)
O=C(Nc1cccs1)OCCc1ccccc1 (optimized conformer: 53.39926830413471 kcal/mol)

>  <smiles>  (36) 
O=C(Nc1cccs1)OCCc1ccccc1

>  <score_type>  (36) 
oracle

>  <origin>  (36) 
adg

>  <m_score__min__energy>  (36) 
-6.71

>  <m_primary>  (36) 
energy

$$$$
36:0
     RDKit          3D

 56 58  0  0  0  0  0  0  0  0999 V2000
   63.5930   32.9130   47.1110 C   0  0  0  0  0  0  0  0  0  0  0  0
   62.8330   33.9900   47.6510 O   0  0  0  0  0  0  0  0  0  0  0  0
   61.8900   33.8550   48.6800 C   0  0  0  0  0  0  0  0  0  0  0  0
   62.3150   33.3470   49.9150 C   0  0  0  0  0  0  0  0  0  0  0  0
   61.4110   33.1830   50.9700 C   0  0  0  0  0  0  0  0  0  0  0  0
   60.0540   33.5170   50.8030 C   0  0  0  0  0  0  0  0  0  0  0  0
   59.0760   33.3560   51.9100 C   0  0  0  0  0  0  0  0  0  0  0  0
   58.3920   34.3500   52.2790 O   0  0  0  0  0  0  0  0  0  0  0  0
   58.8860   32.0900   52.5620 N   0  0  0  0  0  0  0  0  0  0  0  0
   58.1270   31.9570   53.8080 C   0  0  0  0  0  0  0  0  0  0  0  0
   57.2540   30.6950   53.7950 C   0  0  0  0  0  0  0  0  0  0  0  0
   57.7210   29.7090   52.7670 C   0  0  0  0  0  0  0  0  0  0  0  0
   58.2900   28.6460   53.1380 O   0  0  0  0  0  0  0  0  0  0  0  0
   57.5770   30.0200   51.3740 N   0  0  0  0  0  0  0  0  0  0  0  0
   58.6030   29.9850   50.3720 C   0  0  0  0  0  0  0  0  0  0  0  0
   59.7570   29.2280   50.6200 C   0  0  0  0  0  0  0  0  0  0  0  0
   60.7750   29.1550   49.6660 C   0  0  0  0  0  0  0  0  0  0  0  0
   60.6500   29.8410   48.4550 C   0  0  0  0  0  0  0  0  0  0  0  0
   59.5170   30.6240   48.2040 C   0  0  0  0  0  0  0  0  0  0  0  0
   59.3500   31.4370   46.6500 S   0  0  0  0  0  0  0  0  0  0  0  0
   58.2660   32.4790   46.6980 O   0  0  0  0  0  0  0  0  0  0  0  0
   60.6480   32.1100   46.3060 O   0  0  0  0  0  0  0  0  0  0  0  0
   58.9730   30.2620   45.4300 N   0  0  0  0  0  0  0  0  0  0  0  0
   57.9990   29.4030   45.5140 C   0  0  0  0  0  0  0  0  0  0  0  0
   58.0520   28.1340   46.0650 C   0  0  0  0  0  0  0  0  0  0  0  0
   56.7750   27.6400   45.8640 C   0  0  0  0  0  0  0  0  0  0  0  0
   56.2780   26.3050   46.3110 C   0  0  0  0  0  0  0  0  0  0  0  0
   56.0070   28.5620   45.2420 N   0  0  0  0  0  0  0  0  0  0  0  0
   56.7640   29.6270   45.0280 N   0  0  0  0  0  0  0  0  0  0  0  0
   56.2980   30.8320   44.3510 C   0  0  0  0  0  0  0  0  0  0  0  0
   58.5040   30.7120   49.1700 C   0  0  0  0  0  0  0  0  0  0  0  0
   59.6320   34.0430   49.5670 C   0  0  0  0  0  0  0  0  0  0  0  0
   60.5390   34.2100   48.5160 C   0  0  0  0  0  0  0  0  0  0  0  0
   64.0153   32.3146   47.9317 H   0  0  0  0  0  0  0  0  0  0  0  0
   62.9415   32.2785   46.4922 H   0  0  0  0  0  0  0  0  0  0  0  0
   64.4091   33.3142   46.4922 H   0  0  0  0  0  0  0  0  0  0  0  0
   63.3712   33.0742   50.0564 H   0  0  0  0  0  0  0  0  0  0  0  0
   61.7628   32.7908   51.9356 H   0  0  0  0  0  0  0  0  0  0  0  0
   59.2300   31.2140   52.1090 H   0  0  0  0  0  0  0  0  0  0  0  0
   58.8302   31.8979   54.6518 H   0  0  0  0  0  0  0  0  0  0  0  0
   57.4702   32.8334   53.9106 H   0  0  0  0  0  0  0  0  0  0  0  0
   57.2958   30.2223   54.7874 H   0  0  0  0  0  0  0  0  0  0  0  0
   56.2252   30.9920   53.5431 H   0  0  0  0  0  0  0  0  0  0  0  0
   59.8615   28.6878   51.5725 H   0  0  0  0  0  0  0  0  0  0  0  0
   61.6758   28.5570   49.8683 H   0  0  0  0  0  0  0  0  0  0  0  0
   61.4437   29.7656   47.6972 H   0  0  0  0  0  0  0  0  0  0  0  0
   58.9061   27.6366   46.5478 H   0  0  0  0  0  0  0  0  0  0  0  0
   56.2643   26.2681   47.4103 H   0  0  0  0  0  0  0  0  0  0  0  0
   55.2601   26.1450   45.9260 H   0  0  0  0  0  0  0  0  0  0  0  0
   56.9435   25.5183   45.9260 H   0  0  0  0  0  0  0  0  0  0  0  0
   56.0072   31.5839   45.0994 H   0  0  0  0  0  0  0  0  0  0  0  0
   57.1054   31.2344   43.7215 H   0  0  0  0  0  0  0  0  0  0  0  0
   55.4300   30.5865   43.7215 H   0  0  0  0  0  0  0  0  0  0  0  0
   57.6280   31.3519   48.9879 H   0  0  0  0  0  0  0  0  0  0  0  0
   58.5782   34.3254   49.4268 H   0  0  0  0  0  0  0  0  0  0  0  0
   60.1941   34.6212   47.5558 H   0  0  0  0  0  0  0  0  0  0  0  0
  1  2  1  0
  2  3  1  0
  3  4  2  0
  4  5  1  0
  5  6  2  0
  6  7  1  0
  7  8  2  0
  7  9  1  0
  9 10  1  0
 10 11  1  0
 11 12  1  0
 12 13  2  0
 12 14  1  0
 14 15  1  0
 15 16  2  0
 16 17  1  0
 17 18  2  0
 18 19  1  0
 19 20  1  0
 20 21  2  0
 20 22  2  0
 20 23  1  0
 23 24  2  3
 24 25  1  0
 25 26  2  0
 26 27  1  0
 26 28  1  0
 28 29  1  0
 29 30  1  0
 19 31  2  0
  6 32  1  0
 32 33  2  0
 33  3  1  0
 31 15  1  0
 29 24  1  0
  1 34  1  0
  1 35  1  0
  1 36  1  0
  4 37  1  0
  5 38  1  0
  9 39  1  0
 10 40  1  0
 10 41  1  0
 11 42  1  0
 11 43  1  0
 16 44  1  0
 17 45  1  0
 18 46  1  0
 25 47  1  0
 27 48  1  0
 27 49  1  0
 27 50  1  0
 30 51  1  0
 30 52  1  0
 30 53  1  0
 31 54  1  0
 32 55  1  0
 33 56  1  0
M  CHG  2  14  -1  28  -1
M  END
>  <UniqueID>  (37) 
33

>  <SMILES>  (37) 
COc1ccc(C(=O)NCCC(=O)[N-]c2cccc(S(=O)(=O)N=c3cc(C)[n-]n3C)c2)cc1

>  <Energy>  (37) 
89.52608261005344

>  <Genealogy>  (37) 
COc1ccc(C(=O)NCCC(=O)[N-]c2cccc(S(=O)(=O)N=c3cc(C)[n-]n3C)c2)cc1 (protonated)
COc1ccc(C(=O)NCCC(=O)[N-]c2cccc(S(=O)(=O)N=c3cc(C)[n-]n3C)c2)cc1 (3D coordinates assigned)
COc1ccc(C(=O)NCCC(=O)[N-]c2cccc(S(=O)(=O)N=c3cc(C)[n-]n3C)c2)cc1 (optimized conformer: 89.52608261005344 kcal/mol)

>  <smiles>  (37) 
COc1ccc(C(=O)NCCC(=O)Nc2cccc(S(=O)(=O)N=c3cc(C)[nH]n3C)c2)cc1

>  <score_type>  (37) 
oracle

>  <origin>  (37) 
adg

>  <m_score__min__energy>  (37) 
-11.859999999999999

>  <m_primary>  (37) 
energy

$$$$
37:0
     RDKit          3D

 48 50  0  0  0  0  0  0  0  0999 V2000
   55.2030   29.4560   44.8810 O   0  0  0  0  0  0  0  0  0  0  0  0
   56.5640   29.1140   44.7870 C   0  0  2  0  0  0  0  0  0  0  0  0
   56.9900   28.3700   46.0710 C   0  0  0  0  0  0  0  0  0  0  0  0
   58.3600   27.6950   46.0720 C   0  0  0  0  0  0  0  0  0  0  0  0
   58.3490   26.2990   46.2750 C   0  0  0  0  0  0  0  0  0  0  0  0
   59.5300   25.5830   46.4690 C   0  0  0  0  0  0  0  0  0  0  0  0
   60.7510   26.2460   46.4920 C   0  0  0  0  0  0  0  0  0  0  0  0
   60.7960   27.6270   46.3020 C   0  0  0  0  0  0  0  0  0  0  0  0
   59.6220   28.3640   46.0750 C   0  0  0  0  0  0  0  0  0  0  0  0
   59.8580   30.1200   45.7320 S   0  0  0  0  0  0  0  0  0  0  0  0
   58.8630   30.1320   44.2120 C   0  0  0  0  0  0  0  0  0  0  0  0
   57.3830   30.4120   44.5480 C   0  0  2  0  0  0  0  0  0  0  0  0
   57.2730   31.2990   45.7300 N   0  0  0  0  0  0  0  0  0  0  0  0
   57.0430   32.7110   45.3850 C   0  0  0  0  0  0  0  0  0  0  0  0
   58.3090   33.5670   45.5820 C   0  0  0  0  0  0  0  0  0  0  0  0
   58.5770   33.8610   47.0720 C   0  0  0  0  0  0  0  0  0  0  0  0
   59.1500   32.6920   47.7560 N   0  0  0  0  0  0  0  0  0  0  0  0
   60.5890   32.7940   47.7910 C   0  0  0  0  0  0  0  0  0  0  0  0
   61.3140   32.2600   48.8710 C   0  0  0  0  0  0  0  0  0  0  0  0
   62.7050   32.3750   48.9130 C   0  0  0  0  0  0  0  0  0  0  0  0
   63.3880   33.0340   47.8860 C   0  0  0  0  0  0  0  0  0  0  0  0
   64.7400   33.1480   47.9320 F   0  0  0  0  0  0  0  0  0  0  0  0
   62.6760   33.5830   46.8150 C   0  0  0  0  0  0  0  0  0  0  0  0
   63.3370   34.2310   45.8220 F   0  0  0  0  0  0  0  0  0  0  0  0
   61.2830   33.4670   46.7670 C   0  0  0  0  0  0  0  0  0  0  0  0
   55.1210   30.1300   45.6030 H   0  0  0  0  0  0  0  0  0  0  0  0
   56.7508   28.4360   43.9412 H   0  0  0  0  0  0  0  0  0  0  0  0
   56.9818   29.1005   46.8934 H   0  0  0  0  0  0  0  0  0  0  0  0
   56.2701   27.5441   46.1688 H   0  0  0  0  0  0  0  0  0  0  0  0
   57.3881   25.7636   46.2804 H   0  0  0  0  0  0  0  0  0  0  0  0
   59.4949   24.4919   46.6040 H   0  0  0  0  0  0  0  0  0  0  0  0
   61.6807   25.6825   46.6598 H   0  0  0  0  0  0  0  0  0  0  0  0
   61.7651   28.1466   46.3303 H   0  0  0  0  0  0  0  0  0  0  0  0
   59.2377   30.9167   43.5383 H   0  0  0  0  0  0  0  0  0  0  0  0
   58.9412   29.1497   43.7232 H   0  0  0  0  0  0  0  0  0  0  0  0
   56.9543   30.9139   43.6681 H   0  0  0  0  0  0  0  0  0  0  0  0
   58.1030   31.2290   46.3660 H   0  0  0  0  0  0  0  0  0  0  0  0
   56.7327   32.7732   44.3315 H   0  0  0  0  0  0  0  0  0  0  0  0
   56.2616   33.1012   46.0537 H   0  0  0  0  0  0  0  0  0  0  0  0
   59.1720   33.0272   45.1650 H   0  0  0  0  0  0  0  0  0  0  0  0
   58.1557   34.5268   45.0669 H   0  0  0  0  0  0  0  0  0  0  0  0
   59.2819   34.7019   47.1495 H   0  0  0  0  0  0  0  0  0  0  0  0
   57.6193   34.1082   47.5533 H   0  0  0  0  0  0  0  0  0  0  0  0
   58.8730   31.8200   47.2480 H   0  0  0  0  0  0  0  0  0  0  0  0
   58.7820   32.6220   48.7320 H   0  0  0  0  0  0  0  0  0  0  0  0
   60.7825   31.7489   49.6872 H   0  0  0  0  0  0  0  0  0  0  0  0
   63.2653   31.9458   49.7567 H   0  0  0  0  0  0  0  0  0  0  0  0
   60.7265   33.9039   45.9247 H   0  0  0  0  0  0  0  0  0  0  0  0
  1  2  1  0
  2  3  1  0
  3  4  1  0
  4  5  2  0
  5  6  1  0
  6  7  2  0
  7  8  1  0
  8  9  2  0
  9 10  1  0
 10 11  1  0
 11 12  1  0
 12 13  1  0
 13 14  1  0
 14 15  1  0
 15 16  1  0
 16 17  1  0
 17 18  1  0
 18 19  2  0
 19 20  1  0
 20 21  2  0
 21 22  1  0
 21 23  1  0
 23 24  1  0
 23 25  2  0
 12  2  1  0
 25 18  1  0
  9  4  1  0
  1 26  1  0
  2 27  1  6
  3 28  1  0
  3 29  1  0
  5 30  1  0
  6 31  1  0
  7 32  1  0
  8 33  1  0
 11 34  1  0
 11 35  1  0
 12 36  1  6
 13 37  1  0
 14 38  1  0
 14 39  1  0
 15 40  1  0
 15 41  1  0
 16 42  1  0
 16 43  1  0
 17 44  1  0
 17 45  1  0
 19 46  1  0
 20 47  1  0
 25 48  1  0
M  CHG  1  17   1
M  END
>  <UniqueID>  (38) 
34

>  <SMILES>  (38) 
O[C@@H]1Cc2ccccc2SC[C@@H]1NCCC[NH2+]c1ccc(F)c(F)c1

>  <Energy>  (38) 
64.63063045477216

>  <Genealogy>  (38) 
OC1Cc2ccccc2SCC1NCCC[NH2+]c1ccc(F)c(F)c1 (protonated)
O[C@@H]1Cc2ccccc2SC[C@@H]1NCCC[NH2+]c1ccc(F)c(F)c1 (chirality)
O[C@@H]1Cc2ccccc2SC[C@@H]1NCCC[NH2+]c1ccc(F)c(F)c1 (3D coordinates assigned)
O[C@@H]1Cc2ccccc2SC[C@@H]1NCCC[NH2+]c1ccc(F)c(F)c1 (nonaromatic ring conformer: 64.63063045477216 kcal/mol)

>  <smiles>  (38) 
OC1Cc2ccccc2SCC1NCCCNc1ccc(F)c(F)c1

>  <score_type>  (38) 
oracle

>  <origin>  (38) 
adg

>  <m_score__min__energy>  (38) 
-4.5099999999999998

>  <m_primary>  (38) 
energy

$$$$
38:0
     RDKit          3D

 51 53  0  0  0  0  0  0  0  0999 V2000
   58.1240   32.3660   41.6540 C   0  0  0  0  0  0  0  0  0  0  0  0
   57.3970   32.0160   42.8260 O   0  0  0  0  0  0  0  0  0  0  0  0
   57.6910   32.4940   44.1140 C   0  0  0  0  0  0  0  0  0  0  0  0
   57.4250   33.8190   44.5030 C   0  0  0  0  0  0  0  0  0  0  0  0
   57.7200   34.2420   45.8020 C   0  0  0  0  0  0  0  0  0  0  0  0
   58.2940   33.3570   46.7160 C   0  0  0  0  0  0  0  0  0  0  0  0
   58.5870   32.0370   46.3400 C   0  0  0  0  0  0  0  0  0  0  0  0
   59.1560   31.1410   47.3130 N   0  0  0  0  0  0  0  0  0  0  0  0
   60.5670   30.9240   47.4940 C   0  0  0  0  0  0  0  0  0  0  0  0
   61.4020   31.7810   47.0980 O   0  0  0  0  0  0  0  0  0  0  0  0
   61.0640   29.7210   48.2490 C   0  0  0  0  0  0  0  0  0  0  0  0
   60.3000   28.5140   47.9020 N   0  0  0  0  0  0  0  0  0  0  0  0
   60.0580   27.5010   48.9340 C   0  0  0  0  0  0  0  0  0  0  0  0
   59.7810   28.3510   46.5640 C   0  0  0  0  0  0  0  0  0  0  0  0
   60.3390   28.9470   45.6060 O   0  0  0  0  0  0  0  0  0  0  0  0
   58.5960   27.5170   46.2740 C   0  0  0  0  0  0  0  0  0  0  0  0
   57.2660   27.9000   46.3320 C   0  0  0  0  0  0  0  0  0  0  0  0
   56.5400   26.7660   46.0360 C   0  0  0  0  0  0  0  0  0  0  0  0
   55.1530   26.7170   45.9570 O   0  0  0  0  0  0  0  0  0  0  0  0
   57.3540   25.7120   45.8120 N   0  0  0  0  0  0  0  0  0  0  0  0
   56.9710   24.3640   45.4850 C   0  0  0  0  0  0  0  0  0  0  0  0
   56.5150   23.4880   46.4830 C   0  0  0  0  0  0  0  0  0  0  0  0
   56.1570   22.1760   46.1630 C   0  0  0  0  0  0  0  0  0  0  0  0
   56.2360   21.7230   44.8370 C   0  0  0  0  0  0  0  0  0  0  0  0
   55.8930   20.3010   44.5050 C   0  0  0  0  0  0  0  0  0  0  0  0
   56.7080   22.5890   43.8410 C   0  0  0  0  0  0  0  0  0  0  0  0
   57.0720   23.8990   44.1620 C   0  0  0  0  0  0  0  0  0  0  0  0
   58.6170   26.1680   45.9590 C   0  0  0  0  0  0  0  0  0  0  0  0
   58.2620   31.6090   45.0380 C   0  0  0  0  0  0  0  0  0  0  0  0
   59.0810   32.8267   41.9401 H   0  0  0  0  0  0  0  0  0  0  0  0
   58.3161   31.4617   41.0579 H   0  0  0  0  0  0  0  0  0  0  0  0
   57.5369   33.0802   41.0579 H   0  0  0  0  0  0  0  0  0  0  0  0
   56.9837   34.5241   43.7832 H   0  0  0  0  0  0  0  0  0  0  0  0
   57.4990   35.2761   46.1051 H   0  0  0  0  0  0  0  0  0  0  0  0
   58.5182   33.6964   47.7380 H   0  0  0  0  0  0  0  0  0  0  0  0
   58.5010   30.6340   47.9480 H   0  0  0  0  0  0  0  0  0  0  0  0
   62.1233   29.5567   48.0024 H   0  0  0  0  0  0  0  0  0  0  0  0
   60.9376   29.9122   49.3249 H   0  0  0  0  0  0  0  0  0  0  0  0
   60.1671   27.9577   49.9288 H   0  0  0  0  0  0  0  0  0  0  0  0
   59.0391   27.1014   48.8237 H   0  0  0  0  0  0  0  0  0  0  0  0
   60.7862   26.6840   48.8237 H   0  0  0  0  0  0  0  0  0  0  0  0
   56.8716   28.9000   46.5654 H   0  0  0  0  0  0  0  0  0  0  0  0
   56.4391   23.8369   47.5234 H   0  0  0  0  0  0  0  0  0  0  0  0
   55.8115   21.4946   46.9544 H   0  0  0  0  0  0  0  0  0  0  0  0
   55.7553   19.7303   45.4352 H   0  0  0  0  0  0  0  0  0  0  0  0
   54.9630   20.2756   43.9182 H   0  0  0  0  0  0  0  0  0  0  0  0
   56.7092   19.8544   43.9182 H   0  0  0  0  0  0  0  0  0  0  0  0
   56.7921   22.2358   42.8027 H   0  0  0  0  0  0  0  0  0  0  0  0
   57.4405   24.5718   43.3736 H   0  0  0  0  0  0  0  0  0  0  0  0
   59.5262   25.5593   45.8456 H   0  0  0  0  0  0  0  0  0  0  0  0
   58.4588   30.5677   44.7432 H   0  0  0  0  0  0  0  0  0  0  0  0
  1  2  1  0
  2  3  1  0
  3  4  2  0
  4  5  1  0
  5  6  2  0
  6  7  1  0
  7  8  1  0
  8  9  1  0
  9 10  2  0
  9 11  1  0
 11 12  1  0
 12 13  1  0
 12 14  1  0
 14 15  2  0
 14 16  1  0
 16 17  1  0
 17 18  2  0
 18 19  1  0
 18 20  1  0
 20 21  1  0
 21 22  2  0
 22 23  1  0
 23 24  2  0
 24 25  1  0
 24 26  1  0
 26 27  2  0
 20 28  1  0
  7 29  2  0
 29  3  1  0
 28 16  2  0
 27 21  1  0
  1 30  1  0
  1 31  1  0
  1 32  1  0
  4 33  1  0
  5 34  1  0
  6 35  1  0
  8 36  1  0
 11 37  1  0
 11 38  1  0
 13 39  1  0
 13 40  1  0
 13 41  1  0
 17 42  1  0
 22 43  1  0
 23 44  1  0
 25 45  1  0
 25 46  1  0
 25 47  1  0
 26 48  1  0
 27 49  1  0
 28 50  1  0
 29 51  1  0
M  CHG  1  19  -1
M  END
>  <UniqueID>  (39) 
35

>  <SMILES>  (39) 
COc1cccc(NC(=O)CN(C)C(=O)c2cc([O-])n(-c3ccc(C)cc3)c2)c1

>  <Energy>  (39) 
88.43885883534135

>  <Genealogy>  (39) 
COc1cccc(NC(=O)CN(C)C(=O)c2cc([O-])n(-c3ccc(C)cc3)c2)c1 (protonated)
COc1cccc(NC(=O)CN(C)C(=O)c2cc([O-])n(-c3ccc(C)cc3)c2)c1 (3D coordinates assigned)
COc1cccc(NC(=O)CN(C)C(=O)c2cc([O-])n(-c3ccc(C)cc3)c2)c1 (optimized conformer: 88.43885883534135 kcal/mol)

>  <smiles>  (39) 
COc1cccc(NC(=O)CN(C)C(=O)c2cc(O)n(-c3ccc(C)cc3)c2)c1

>  <score_type>  (39) 
oracle

>  <origin>  (39) 
adg

>  <m_score__min__energy>  (39) 
-10.880000000000001

>  <m_primary>  (39) 
energy

$$$$
39:0
     RDKit          3D

 34 36  0  0  0  0  0  0  0  0999 V2000
   55.1100   26.7130   45.9850 O   0  0  0  0  0  0  0  0  0  0  0  0
   56.0210   25.6860   46.1970 C   0  0  0  0  0  0  0  0  0  0  0  0
   55.8760   24.7610   47.1650 N   0  0  0  0  0  0  0  0  0  0  0  0
   56.9650   23.9760   47.0470 C   0  0  0  0  0  0  0  0  0  0  0  0
   57.2070   22.8870   47.8770 O   0  0  0  0  0  0  0  0  0  0  0  0
   57.7970   24.3880   46.0230 C   0  0  0  0  0  0  0  0  0  0  0  0
   57.1770   25.4860   45.4680 C   0  0  0  0  0  0  0  0  0  0  0  0
   57.7170   26.3540   44.3730 C   0  0  0  0  0  0  0  0  0  0  0  0
   58.2820   27.6210   44.9540 C   0  0  0  0  0  0  0  0  0  0  0  0
   59.4740   27.5930   45.6940 C   0  0  0  0  0  0  0  0  0  0  0  0
   59.9750   28.7660   46.2640 C   0  0  0  0  0  0  0  0  0  0  0  0
   59.2780   29.9690   46.1210 C   0  0  0  0  0  0  0  0  0  0  0  0
   58.0690   30.0070   45.4190 C   0  0  0  0  0  0  0  0  0  0  0  0
   57.3910   31.2290   45.3050 O   0  0  0  0  0  0  0  0  0  0  0  0
   57.9330   32.4870   45.6110 C   0  0  0  0  0  0  0  0  0  0  0  0
   58.0180   32.9610   46.9350 C   0  0  0  0  0  0  0  0  0  0  0  0
   58.5770   34.2150   47.1980 C   0  0  0  0  0  0  0  0  0  0  0  0
   59.0670   34.9980   46.1490 C   0  0  0  0  0  0  0  0  0  0  0  0
   59.0060   34.5230   44.8350 C   0  0  0  0  0  0  0  0  0  0  0  0
   58.4470   33.2700   44.5700 C   0  0  0  0  0  0  0  0  0  0  0  0
   57.5840   28.8320   44.8170 C   0  0  0  0  0  0  0  0  0  0  0  0
   57.7700   22.1060   47.5600 H   0  0  0  0  0  0  0  0  0  0  0  0
   58.7515   23.9353   45.7163 H   0  0  0  0  0  0  0  0  0  0  0  0
   58.5108   25.8131   43.8370 H   0  0  0  0  0  0  0  0  0  0  0  0
   56.9033   26.6066   43.6773 H   0  0  0  0  0  0  0  0  0  0  0  0
   60.0155   26.6446   45.8257 H   0  0  0  0  0  0  0  0  0  0  0  0
   60.9200   28.7427   46.8265 H   0  0  0  0  0  0  0  0  0  0  0  0
   59.6827   30.8913   46.5632 H   0  0  0  0  0  0  0  0  0  0  0  0
   57.6435   32.3426   47.7641 H   0  0  0  0  0  0  0  0  0  0  0  0
   58.6313   34.5861   48.2321 H   0  0  0  0  0  0  0  0  0  0  0  0
   59.5004   35.9874   46.3568 H   0  0  0  0  0  0  0  0  0  0  0  0
   59.3981   35.1358   44.0100 H   0  0  0  0  0  0  0  0  0  0  0  0
   58.4105   32.8960   43.5362 H   0  0  0  0  0  0  0  0  0  0  0  0
   56.6513   28.8618   44.2347 H   0  0  0  0  0  0  0  0  0  0  0  0
  1  2  1  0
  2  3  1  0
  3  4  1  0
  4  5  1  0
  4  6  2  0
  6  7  1  0
  7  8  1  0
  8  9  1  0
  9 10  2  0
 10 11  1  0
 11 12  2  0
 12 13  1  0
 13 14  1  0
 14 15  1  0
 15 16  2  0
 16 17  1  0
 17 18  2  0
 18 19  1  0
 19 20  2  0
 13 21  2  0
  7  2  2  0
 21  9  1  0
 20 15  1  0
  5 22  1  0
  6 23  1  0
  8 24  1  0
  8 25  1  0
 10 26  1  0
 11 27  1  0
 12 28  1  0
 16 29  1  0
 17 30  1  0
 18 31  1  0
 19 32  1  0
 20 33  1  0
 21 34  1  0
M  CHG  2   1  -1   3  -1
M  END
>  <UniqueID>  (40) 
36

>  <SMILES>  (40) 
[O-]c1[n-]c(O)cc1Cc1cccc(Oc2ccccc2)c1

>  <Energy>  (40) 
66.16323234403549

>  <Genealogy>  (40) 
[O-]c1[n-]c(O)cc1Cc1cccc(Oc2ccccc2)c1 (protonated)
[O-]c1[n-]c(O)cc1Cc1cccc(Oc2ccccc2)c1 (3D coordinates assigned)
[O-]c1[n-]c(O)cc1Cc1cccc(Oc2ccccc2)c1 (optimized conformer: 66.16323234403549 kcal/mol)

>  <smiles>  (40) 
Oc1cc(Cc2cccc(Oc3ccccc3)c2)c(O)[nH]1

>  <score_type>  (40) 
oracle

>  <origin>  (40) 
adg

>  <m_score__min__energy>  (40) 
-14.44

>  <m_primary>  (40) 
energy

$$$$
40:0
     RDKit          3D

 65 68  0  0  0  0  0  0  0  0999 V2000
   56.5450   29.6050   42.6650 C   0  0  0  0  0  0  0  0  0  0  0  0
   57.2600   29.4200   43.9400 N   0  0  0  0  0  0  0  0  0  0  0  0
   57.9730   28.2750   44.1670 C   0  0  0  0  0  0  0  0  0  0  0  0
   57.9780   27.3600   43.2960 O   0  0  0  0  0  0  0  0  0  0  0  0
   58.6840   28.1170   45.3280 N   0  0  0  0  0  0  0  0  0  0  0  0
   59.5490   26.9350   45.5330 C   0  0  0  0  0  0  0  0  0  0  0  0
   59.0440   26.0410   46.6840 C   0  0  0  0  0  0  0  0  0  0  0  0
   57.5190   26.0810   46.9020 C   0  0  0  0  0  0  0  0  0  0  0  0
   56.7460   25.0860   46.0600 C   0  0  0  0  0  0  0  0  0  0  0  0
   57.3760   23.9140   45.5950 C   0  0  0  0  0  0  0  0  0  0  0  0
   56.6810   23.0050   44.7890 C   0  0  0  0  0  0  0  0  0  0  0  0
   57.4710   21.5350   44.2420 Cl  0  0  0  0  0  0  0  0  0  0  0  0
   55.3620   23.2720   44.4150 C   0  0  0  0  0  0  0  0  0  0  0  0
   54.7370   24.4470   44.8360 C   0  0  0  0  0  0  0  0  0  0  0  0
   55.4220   25.3590   45.6460 C   0  0  0  0  0  0  0  0  0  0  0  0
   54.7800   26.5350   46.0260 O   0  0  0  0  0  0  0  0  0  0  0  0
   58.6260   29.0920   46.2840 C   0  0  0  0  0  0  0  0  0  0  0  0
   59.1940   28.9100   47.3990 O   0  0  0  0  0  0  0  0  0  0  0  0
   57.9840   30.2750   46.0320 N   0  0  0  0  0  0  0  0  0  0  0  0
   58.1360   31.4220   46.9520 C   0  0  0  0  0  0  0  0  0  0  0  0
   59.5260   32.0000   46.8300 C   0  0  0  0  0  0  0  0  0  0  0  0
   60.6510   31.2400   47.1840 C   0  0  0  0  0  0  0  0  0  0  0  0
   61.9290   31.8110   47.1490 C   0  0  0  0  0  0  0  0  0  0  0  0
   62.1000   33.1540   46.7710 C   0  0  0  0  0  0  0  0  0  0  0  0
   63.4320   33.7980   46.8320 C   0  0  0  0  0  0  0  0  0  0  0  0
   63.7570   34.6850   45.9960 O   0  0  0  0  0  0  0  0  0  0  0  0
   64.3760   33.3700   47.8170 N   0  0  0  0  0  0  0  0  0  0  0  0
   64.0800   33.2740   49.2390 C   0  0  0  0  0  0  0  0  0  0  0  0
   62.9340   34.2280   49.5910 C   0  0  0  0  0  0  0  0  0  0  0  0
   61.6760   33.4660   49.9340 C   0  0  0  0  0  0  0  0  0  0  0  0
   60.4150   34.0500   49.7340 C   0  0  0  0  0  0  0  0  0  0  0  0
   59.2640   33.3490   50.1050 C   0  0  0  0  0  0  0  0  0  0  0  0
   59.3680   32.1120   50.6620 N   0  0  0  0  0  0  0  0  0  0  0  0
   60.5770   31.5280   50.8810 C   0  0  0  0  0  0  0  0  0  0  0  0
   61.7530   32.1950   50.5280 C   0  0  0  0  0  0  0  0  0  0  0  0
   60.9740   33.9000   46.3860 C   0  0  0  0  0  0  0  0  0  0  0  0
   59.7030   33.3230   46.3980 C   0  0  0  0  0  0  0  0  0  0  0  0
   57.3100   30.4350   44.8530 C   0  0  0  0  0  0  0  0  0  0  0  0
   56.7370   31.5350   44.6020 O   0  0  0  0  0  0  0  0  0  0  0  0
   55.4983   29.8758   42.8675 H   0  0  0  0  0  0  0  0  0  0  0  0
   57.0264   30.4082   42.0878 H   0  0  0  0  0  0  0  0  0  0  0  0
   56.5765   28.6691   42.0878 H   0  0  0  0  0  0  0  0  0  0  0  0
   59.5673   26.3434   44.6058 H   0  0  0  0  0  0  0  0  0  0  0  0
   60.5552   27.2925   45.7973 H   0  0  0  0  0  0  0  0  0  0  0  0
   59.3326   25.0025   46.4645 H   0  0  0  0  0  0  0  0  0  0  0  0
   59.5022   26.4289   47.6057 H   0  0  0  0  0  0  0  0  0  0  0  0
   57.3161   25.8675   47.9618 H   0  0  0  0  0  0  0  0  0  0  0  0
   57.1818   27.0828   46.5976 H   0  0  0  0  0  0  0  0  0  0  0  0
   58.4223   23.7121   45.8678 H   0  0  0  0  0  0  0  0  0  0  0  0
   54.8141   22.5542   43.7868 H   0  0  0  0  0  0  0  0  0  0  0  0
   53.7016   24.6567   44.5296 H   0  0  0  0  0  0  0  0  0  0  0  0
   57.3962   32.1948   46.6963 H   0  0  0  0  0  0  0  0  0  0  0  0
   57.9759   31.0804   47.9853 H   0  0  0  0  0  0  0  0  0  0  0  0
   60.5284   30.1907   47.4905 H   0  0  0  0  0  0  0  0  0  0  0  0
   62.8057   31.2041   47.4193 H   0  0  0  0  0  0  0  0  0  0  0  0
   63.7857   32.2425   49.4828 H   0  0  0  0  0  0  0  0  0  0  0  0
   64.9744   33.5483   49.8176 H   0  0  0  0  0  0  0  0  0  0  0  0
   63.2296   34.8406   50.4555 H   0  0  0  0  0  0  0  0  0  0  0  0
   62.7291   34.8642   48.7173 H   0  0  0  0  0  0  0  0  0  0  0  0
   60.3334   35.0524   49.2884 H   0  0  0  0  0  0  0  0  0  0  0  0
   58.2725   33.7982   49.9464 H   0  0  0  0  0  0  0  0  0  0  0  0
   60.6289   30.5283   51.3371 H   0  0  0  0  0  0  0  0  0  0  0  0
   62.7317   31.7285   50.7137 H   0  0  0  0  0  0  0  0  0  0  0  0
   61.0947   34.9474   46.0725 H   0  0  0  0  0  0  0  0  0  0  0  0
   58.8338   33.9099   46.0663 H   0  0  0  0  0  0  0  0  0  0  0  0
  1  2  1  0
  2  3  1  0
  3  4  2  0
  3  5  1  0
  5  6  1  0
  6  7  1  0
  7  8  1  0
  8  9  1  0
  9 10  2  0
 10 11  1  0
 11 12  1  0
 11 13  2  0
 13 14  1  0
 14 15  2  0
 15 16  1  0
  5 17  1  0
 17 18  2  0
 17 19  1  0
 19 20  1  0
 20 21  1  0
 21 22  2  0
 22 23  1  0
 23 24  2  0
 24 25  1  0
 25 26  2  0
 25 27  1  0
 27 28  1  0
 28 29  1  0
 29 30  1  0
 30 31  2  0
 31 32  1  0
 32 33  2  0
 33 34  1  0
 34 35  2  0
 24 36  1  0
 36 37  2  0
 19 38  1  0
 38 39  2  0
 38  2  1  0
 15  9  1  0
 37 21  1  0
 35 30  1  0
  1 40  1  0
  1 41  1  0
  1 42  1  0
  6 43  1  0
  6 44  1  0
  7 45  1  0
  7 46  1  0
  8 47  1  0
  8 48  1  0
 10 49  1  0
 13 50  1  0
 14 51  1  0
 20 52  1  0
 20 53  1  0
 22 54  1  0
 23 55  1  0
 28 56  1  0
 28 57  1  0
 29 58  1  0
 29 59  1  0
 31 60  1  0
 32 61  1  0
 34 62  1  0
 35 63  1  0
 36 64  1  0
 37 65  1  0
M  CHG  2  16  -1  27  -1
M  END
>  <UniqueID>  (41) 
37

>  <SMILES>  (41) 
Cn1c(=O)n(CCCc2cc(Cl)ccc2[O-])c(=O)n(Cc2ccc(C(=O)[N-]CCc3ccncc3)cc2)c1=O

>  <Energy>  (41) 
73.16909121957073

>  <Genealogy>  (41) 
Cn1c(=O)n(CCCc2cc(Cl)ccc2[O-])c(=O)n(Cc2ccc(C(=O)[N-]CCc3ccncc3)cc2)c1=O (protonated)
Cn1c(=O)n(CCCc2cc(Cl)ccc2[O-])c(=O)n(Cc2ccc(C(=O)[N-]CCc3ccncc3)cc2)c1=O (3D coordinates assigned)
Cn1c(=O)n(CCCc2cc(Cl)ccc2[O-])c(=O)n(Cc2ccc(C(=O)[N-]CCc3ccncc3)cc2)c1=O (optimized conformer: 73.16909121957073 kcal/mol)

>  <smiles>  (41) 
Cn1c(=O)n(CCCc2cc(Cl)ccc2O)c(=O)n(Cc2ccc(C(=O)NCCc3ccncc3)cc2)c1=O

>  <score_type>  (41) 
oracle

>  <origin>  (41) 
adg

>  <m_score__min__energy>  (41) 
-14.890000000000001

>  <m_primary>  (41) 
energy

$$$$
41:0
     RDKit          3D

 56 58  0  0  0  0  0  0  0  0999 V2000
   58.0230   26.6220   46.6660 C   0  0  0  0  0  0  0  0  0  0  0  0
   57.3710   26.8260   45.3020 C   0  0  0  0  0  0  0  0  0  0  0  0
   56.5550   27.9990   45.3030 O   0  0  0  0  0  0  0  0  0  0  0  0
   56.9950   29.3030   45.0090 C   0  0  0  0  0  0  0  0  0  0  0  0
   56.6690   29.8410   43.7580 C   0  0  0  0  0  0  0  0  0  0  0  0
   57.0680   31.1340   43.4090 C   0  0  0  0  0  0  0  0  0  0  0  0
   57.8080   31.9110   44.3120 C   0  0  0  0  0  0  0  0  0  0  0  0
   58.1970   33.1750   43.9820 N   0  0  0  0  0  0  0  0  0  0  0  0
   58.9090   33.9530   44.8470 C   0  0  0  0  0  0  0  0  0  0  0  0
   59.2510   35.1120   44.4970 O   0  0  0  0  0  0  0  0  0  0  0  0
   59.2640   33.4620   46.1190 C   0  0  0  0  0  0  0  0  0  0  0  0
   60.0260   34.3170   47.1010 C   0  0  0  0  0  0  0  0  0  0  0  0
   60.5960   33.5060   48.2000 N   0  0  0  0  0  0  0  0  0  0  0  0
   59.8520   33.3890   49.4370 C   0  0  0  0  0  0  0  0  0  0  0  0
   60.0990   34.1790   50.3900 O   0  0  0  0  0  0  0  0  0  0  0  0
   58.8330   32.2920   49.6550 C   0  0  0  0  0  0  0  0  0  0  0  0
   58.3440   32.2030   51.1090 C   0  0  0  0  0  0  0  0  0  0  0  0
   57.3830   31.0690   51.3050 C   0  0  0  0  0  0  0  0  0  0  0  0
   56.1870   31.3150   51.6250 O   0  0  0  0  0  0  0  0  0  0  0  0
   57.8410   29.7200   51.1230 N   0  0  0  0  0  0  0  0  0  0  0  0
   58.9040   29.3530   50.4710 C   0  0  0  0  0  0  0  0  0  0  0  0
   60.1240   29.1810   51.0300 N   0  0  0  0  0  0  0  0  0  0  0  0
   61.0450   28.7910   50.1050 C   0  0  0  0  0  0  0  0  0  0  0  0
   60.5580   28.6550   48.8090 C   0  0  0  0  0  0  0  0  0  0  0  0
   58.9190   29.0380   48.8210 S   0  0  0  0  0  0  0  0  0  0  0  0
   61.9250   32.8570   48.0710 C   0  0  0  0  0  0  0  0  0  0  0  0
   62.8790   33.6540   47.1720 C   0  0  0  0  0  0  0  0  0  0  0  0
   61.8000   31.4050   47.5900 C   0  0  0  0  0  0  0  0  0  0  0  0
   58.8920   32.1560   46.4640 C   0  0  0  0  0  0  0  0  0  0  0  0
   58.1520   31.3750   45.5710 C   0  0  0  0  0  0  0  0  0  0  0  0
   57.7460   30.0760   45.9160 C   0  0  0  0  0  0  0  0  0  0  0  0
   57.2947   26.8499   47.4583 H   0  0  0  0  0  0  0  0  0  0  0  0
   58.3540   25.5774   46.7616 H   0  0  0  0  0  0  0  0  0  0  0  0
   58.8904   27.2917   46.7616 H   0  0  0  0  0  0  0  0  0  0  0  0
   58.1560   26.9328   44.5388 H   0  0  0  0  0  0  0  0  0  0  0  0
   56.7378   25.9547   45.0787 H   0  0  0  0  0  0  0  0  0  0  0  0
   56.0918   29.2385   43.0412 H   0  0  0  0  0  0  0  0  0  0  0  0
   56.8010   31.5434   42.4235 H   0  0  0  0  0  0  0  0  0  0  0  0
   57.9450   33.5680   43.0440 H   0  0  0  0  0  0  0  0  0  0  0  0
   60.8445   34.8262   46.5712 H   0  0  0  0  0  0  0  0  0  0  0  0
   59.3276   35.0463   47.5374 H   0  0  0  0  0  0  0  0  0  0  0  0
   57.9665   32.4852   49.0055 H   0  0  0  0  0  0  0  0  0  0  0  0
   59.3232   31.3369   49.4150 H   0  0  0  0  0  0  0  0  0  0  0  0
   59.2118   32.0521   51.7679 H   0  0  0  0  0  0  0  0  0  0  0  0
   57.8213   33.1399   51.3518 H   0  0  0  0  0  0  0  0  0  0  0  0
   62.0965   28.5978   50.3639 H   0  0  0  0  0  0  0  0  0  0  0  0
   61.1428   28.3500   47.9287 H   0  0  0  0  0  0  0  0  0  0  0  0
   62.3651   32.8439   49.0790 H   0  0  0  0  0  0  0  0  0  0  0  0
   63.5734   34.2341   47.7975 H   0  0  0  0  0  0  0  0  0  0  0  0
   63.4496   32.9604   46.5369 H   0  0  0  0  0  0  0  0  0  0  0  0
   62.2980   34.3389   46.5369 H   0  0  0  0  0  0  0  0  0  0  0  0
   61.7423   30.7343   48.4599 H   0  0  0  0  0  0  0  0  0  0  0  0
   60.8892   31.2970   46.9827 H   0  0  0  0  0  0  0  0  0  0  0  0
   62.6789   31.1430   46.9827 H   0  0  0  0  0  0  0  0  0  0  0  0
   59.1832   31.7435   47.4412 H   0  0  0  0  0  0  0  0  0  0  0  0
   58.0154   29.6604   46.8982 H   0  0  0  0  0  0  0  0  0  0  0  0
  1  2  1  0
  2  3  1  0
  3  4  1  0
  4  5  2  0
  5  6  1  0
  6  7  2  0
  7  8  1  0
  8  9  1  0
  9 10  2  0
  9 11  1  0
 11 12  1  0
 12 13  1  0
 13 14  1  0
 14 15  2  0
 14 16  1  0
 16 17  1  0
 17 18  1  0
 18 19  2  0
 18 20  1  0
 20 21  2  3
 21 22  1  0
 22 23  1  0
 23 24  2  0
 24 25  1  0
 13 26  1  0
 26 27  1  0
 26 28  1  0
 11 29  2  0
 29 30  1  0
 30 31  2  0
 31  4  1  0
 30  7  1  0
 25 21  1  0
  1 32  1  0
  1 33  1  0
  1 34  1  0
  2 35  1  0
  2 36  1  0
  5 37  1  0
  6 38  1  0
  8 39  1  0
 12 40  1  0
 12 41  1  0
 16 42  1  0
 16 43  1  0
 17 44  1  0
 17 45  1  0
 23 46  1  0
 24 47  1  0
 26 48  1  0
 27 49  1  0
 27 50  1  0
 27 51  1  0
 28 52  1  0
 28 53  1  0
 28 54  1  0
 29 55  1  0
 31 56  1  0
M  CHG  1  22  -1
M  END
>  <UniqueID>  (42) 
38

>  <SMILES>  (42) 
CCOc1ccc2[nH]c(=O)c(CN(C(=O)CCC(=O)N=c3[n-]ccs3)C(C)C)cc2c1

>  <Energy>  (42) 
86.66572015730756

>  <Genealogy>  (42) 
CCOc1ccc2[nH]c(=O)c(CN(C(=O)CCC(=O)N=c3[n-]ccs3)C(C)C)cc2c1 (protonated)
CCOc1ccc2[nH]c(=O)c(CN(C(=O)CCC(=O)N=c3[n-]ccs3)C(C)C)cc2c1 (3D coordinates assigned)
CCOc1ccc2[nH]c(=O)c(CN(C(=O)CCC(=O)N=c3[n-]ccs3)C(C)C)cc2c1 (optimized conformer: 86.66572015730756 kcal/mol)

>  <smiles>  (42) 
CCOc1ccc2[nH]c(=O)c(CN(C(=O)CCC(=O)N=c3[nH]ccs3)C(C)C)cc2c1

>  <score_type>  (42) 
oracle

>  <origin>  (42) 
adg

>  <m_score__min__energy>  (42) 
-10.5

>  <m_primary>  (42) 
energy

$$$$
42:0
     RDKit          3D

 54 57  0  0  0  0  0  0  0  0999 V2000
   55.5180   23.8690   44.7760 C   0  0  0  0  0  0  0  0  0  0  0  0
   56.5200   24.7880   45.4120 C   0  0  0  0  0  0  0  0  0  0  0  0
   57.8760   24.4280   45.4740 C   0  0  0  0  0  0  0  0  0  0  0  0
   58.8050   25.2760   46.0820 C   0  0  0  0  0  0  0  0  0  0  0  0
   58.3890   26.4990   46.6320 C   0  0  0  0  0  0  0  0  0  0  0  0
   59.3210   27.3770   47.2720 N   0  0  0  0  0  0  0  0  0  0  0  0
   60.0570   28.4220   46.6270 C   0  0  0  0  0  0  0  0  0  0  0  0
   60.6680   29.2610   47.3400 O   0  0  0  0  0  0  0  0  0  0  0  0
   60.0700   28.5920   45.1260 C   0  0  0  0  0  0  0  0  0  0  0  0
   58.9090   29.3720   44.6490 N   0  0  0  0  0  0  0  0  0  0  0  0
   57.8910   28.7040   43.8670 C   0  0  0  0  0  0  0  0  0  0  0  0
   58.1330   27.6070   43.2950 O   0  0  0  0  0  0  0  0  0  0  0  0
   56.5460   29.3280   43.6950 C   0  0  0  0  0  0  0  0  0  0  0  0
   56.8070   30.9580   42.9650 S   0  0  0  0  0  0  0  0  0  0  0  0
   57.7260   31.5590   44.3880 C   0  0  0  0  0  0  0  0  0  0  0  0
   57.4380   32.8440   44.8590 C   0  0  0  0  0  0  0  0  0  0  0  0
   58.1850   33.4000   45.8960 C   0  0  0  0  0  0  0  0  0  0  0  0
   59.2410   32.6790   46.4620 C   0  0  0  0  0  0  0  0  0  0  0  0
   60.1860   33.3560   47.7870 S   0  0  0  0  0  0  0  0  0  0  0  0
   59.2880   33.6640   48.9530 O   0  0  0  0  0  0  0  0  0  0  0  0
   60.8050   34.6420   47.3140 O   0  0  0  0  0  0  0  0  0  0  0  0
   61.4560   32.2430   48.2650 N   0  0  0  0  0  0  0  0  0  0  0  0
   61.8610   32.4410   49.6710 C   0  0  0  0  0  0  0  0  0  0  0  0
   62.6760   33.7430   49.8650 C   0  0  0  0  0  0  0  0  0  0  0  0
   63.2300   34.2510   48.6640 O   0  0  0  0  0  0  0  0  0  0  0  0
   63.7520   33.2010   47.8820 C   0  0  0  0  0  0  0  0  0  0  0  0
   62.6160   32.3120   47.3430 C   0  0  0  0  0  0  0  0  0  0  0  0
   59.5190   31.3840   46.0100 C   0  0  0  0  0  0  0  0  0  0  0  0
   58.7390   30.7780   44.9990 C   0  0  0  0  0  0  0  0  0  0  0  0
   57.0320   26.8380   46.6130 C   0  0  0  0  0  0  0  0  0  0  0  0
   56.1000   25.9930   46.0020 C   0  0  0  0  0  0  0  0  0  0  0  0
   54.7910   26.3490   45.9850 F   0  0  0  0  0  0  0  0  0  0  0  0
   54.9494   23.3475   45.5600 H   0  0  0  0  0  0  0  0  0  0  0  0
   54.8281   24.4549   44.1509 H   0  0  0  0  0  0  0  0  0  0  0  0
   56.0422   23.1311   44.1509 H   0  0  0  0  0  0  0  0  0  0  0  0
   58.2086   23.4729   45.0414 H   0  0  0  0  0  0  0  0  0  0  0  0
   59.8647   24.9849   46.1299 H   0  0  0  0  0  0  0  0  0  0  0  0
   60.9931   29.1149   44.8354 H   0  0  0  0  0  0  0  0  0  0  0  0
   60.0195   27.5924   44.6696 H   0  0  0  0  0  0  0  0  0  0  0  0
   55.9261   28.7107   43.0281 H   0  0  0  0  0  0  0  0  0  0  0  0
   56.0260   29.4101   44.6608 H   0  0  0  0  0  0  0  0  0  0  0  0
   56.6164   33.4197   44.4080 H   0  0  0  0  0  0  0  0  0  0  0  0
   57.9438   34.4062   46.2693 H   0  0  0  0  0  0  0  0  0  0  0  0
   61.0420   31.2850   48.1920 H   0  0  0  0  0  0  0  0  0  0  0  0
   60.9576   32.4917   50.2965 H   0  0  0  0  0  0  0  0  0  0  0  0
   62.5008   31.5947   49.9614 H   0  0  0  0  0  0  0  0  0  0  0  0
   62.0116   34.5085   50.2923 H   0  0  0  0  0  0  0  0  0  0  0  0
   63.5176   33.5000   50.5303 H   0  0  0  0  0  0  0  0  0  0  0  0
   64.3126   33.6245   47.0356 H   0  0  0  0  0  0  0  0  0  0  0  0
   64.4162   32.5877   48.5087 H   0  0  0  0  0  0  0  0  0  0  0  0
   62.2762   32.7207   46.3800 H   0  0  0  0  0  0  0  0  0  0  0  0
   63.0150   31.2927   47.2345 H   0  0  0  0  0  0  0  0  0  0  0  0
   60.3599   30.8276   46.4496 H   0  0  0  0  0  0  0  0  0  0  0  0
   56.6959   27.7748   47.0814 H   0  0  0  0  0  0  0  0  0  0  0  0
  1  2  1  0
  2  3  2  0
  3  4  1  0
  4  5  2  0
  5  6  1  0
  6  7  1  0
  7  8  2  0
  7  9  1  0
  9 10  1  0
 10 11  1  0
 11 12  2  0
 11 13  1  0
 13 14  1  0
 14 15  1  0
 15 16  2  0
 16 17  1  0
 17 18  2  0
 18 19  1  0
 19 20  2  0
 19 21  2  0
 19 22  1  0
 22 23  1  0
 23 24  1  0
 24 25  1  0
 25 26  1  0
 26 27  1  0
 18 28  1  0
 28 29  2  0
  5 30  1  0
 30 31  2  0
 31 32  1  0
 31  2  1  0
 29 10  1  0
 29 15  1  0
 27 22  1  0
  1 33  1  0
  1 34  1  0
  1 35  1  0
  3 36  1  0
  4 37  1  0
  9 38  1  0
  9 39  1  0
 13 40  1  0
 13 41  1  0
 16 42  1  0
 17 43  1  0
 22 44  1  0
 23 45  1  0
 23 46  1  0
 24 47  1  0
 24 48  1  0
 26 49  1  0
 26 50  1  0
 27 51  1  0
 27 52  1  0
 28 53  1  0
 30 54  1  0
M  CHG  2   6  -1  22   1
M  END
>  <UniqueID>  (43) 
39

>  <SMILES>  (43) 
Cc1ccc([N-]C(=O)CN2C(=O)CSc3ccc(S(=O)(=O)[NH+]4CCOCC4)cc32)cc1F

>  <Energy>  (43) 
78.53402394530615

>  <Genealogy>  (43) 
Cc1ccc([N-]C(=O)CN2C(=O)CSc3ccc(S(=O)(=O)[NH+]4CCOCC4)cc32)cc1F (protonated)
Cc1ccc([N-]C(=O)CN2C(=O)CSc3ccc(S(=O)(=O)[NH+]4CCOCC4)cc32)cc1F (3D coordinates assigned)
Cc1ccc([N-]C(=O)CN2C(=O)CSc3ccc(S(=O)(=O)[NH+]4CCOCC4)cc32)cc1F (nonaromatic ring conformer: 78.53402394530615 kcal/mol)

>  <smiles>  (43) 
Cc1ccc(NC(=O)CN2C(=O)CSc3ccc(S(=O)(=O)N4CCOCC4)cc32)cc1F

>  <score_type>  (43) 
oracle

>  <origin>  (43) 
adg

>  <m_score__min__energy>  (43) 
-9.2300000000000004

>  <m_primary>  (43) 
energy

$$$$
43:0
     RDKit          3D

 61 64  0  0  0  0  0  0  0  0999 V2000
   59.1620   32.9380   49.4360 C   0  0  0  0  0  0  0  0  0  0  0  0
   58.5110   31.9510   48.0510 S   0  0  0  0  0  0  0  0  0  0  0  0
   58.8130   33.2380   46.8280 C   0  0  0  0  0  0  0  0  0  0  0  0
   59.7380   34.2440   47.1400 C   0  0  0  0  0  0  0  0  0  0  0  0
   59.9810   35.2860   46.2450 C   0  0  0  0  0  0  0  0  0  0  0  0
   59.3000   35.3340   45.0280 C   0  0  0  0  0  0  0  0  0  0  0  0
   58.3780   34.3370   44.7020 C   0  0  0  0  0  0  0  0  0  0  0  0
   58.1290   33.2730   45.5880 C   0  0  0  0  0  0  0  0  0  0  0  0
   57.1020   32.2360   45.2050 C   0  0  0  0  0  0  0  0  0  0  0  0
   57.7720   31.0210   44.6390 C   0  0  0  0  0  0  0  0  0  0  0  0
   57.9510   30.9420   43.3940 O   0  0  0  0  0  0  0  0  0  0  0  0
   58.2010   29.9590   45.5070 N   0  0  0  0  0  0  0  0  0  0  0  0
   58.8510   28.7260   45.0410 C   0  0  1  0  0  0  0  0  0  0  0  0
   59.6610   28.0600   46.1750 C   0  0  0  0  0  0  0  0  0  0  0  0
   60.4080   29.0780   46.9980 C   0  0  0  0  0  0  0  0  0  0  0  0
   60.4240   28.9800   48.3970 C   0  0  0  0  0  0  0  0  0  0  0  0
   61.1320   29.9090   49.1630 C   0  0  0  0  0  0  0  0  0  0  0  0
   61.8400   30.9530   48.5430 C   0  0  0  0  0  0  0  0  0  0  0  0
   62.5930   31.9390   49.3560 C   0  0  0  0  0  0  0  0  0  0  0  0
   62.1390   32.3070   50.6350 C   0  0  0  0  0  0  0  0  0  0  0  0
   62.8470   33.2430   51.3950 C   0  0  0  0  0  0  0  0  0  0  0  0
   64.0140   33.8190   50.8880 C   0  0  0  0  0  0  0  0  0  0  0  0
   64.4770   33.4590   49.6210 C   0  0  0  0  0  0  0  0  0  0  0  0
   63.7730   32.5240   48.8560 C   0  0  0  0  0  0  0  0  0  0  0  0
   61.8230   31.0480   47.1400 C   0  0  0  0  0  0  0  0  0  0  0  0
   61.1180   30.1160   46.3740 C   0  0  0  0  0  0  0  0  0  0  0  0
   57.8470   27.7790   44.4270 C   0  0  0  0  0  0  0  0  0  0  0  0
   57.7430   27.7130   43.1730 O   0  0  0  0  0  0  0  0  0  0  0  0
   57.0300   26.9560   45.2790 N   0  0  0  0  0  0  0  0  0  0  0  0
   57.2870   25.7940   45.8170 C   0  0  0  0  0  0  0  0  0  0  0  0
   58.0490   24.7920   45.1780 C   0  0  0  0  0  0  0  0  0  0  0  0
   58.2730   23.5770   45.8310 C   0  0  0  0  0  0  0  0  0  0  0  0
   57.7530   23.3570   47.0670 N   0  0  0  0  0  0  0  0  0  0  0  0
   56.9990   24.2940   47.6980 C   0  0  0  0  0  0  0  0  0  0  0  0
   56.7500   25.5220   47.0820 C   0  0  0  0  0  0  0  0  0  0  0  0
   58.8588   32.4783   50.3882 H   0  0  0  0  0  0  0  0  0  0  0  0
   60.2600   32.9714   49.3782 H   0  0  0  0  0  0  0  0  0  0  0  0
   58.7605   33.9605   49.3782 H   0  0  0  0  0  0  0  0  0  0  0  0
   60.2767   34.2115   48.0985 H   0  0  0  0  0  0  0  0  0  0  0  0
   60.7096   36.0701   46.4987 H   0  0  0  0  0  0  0  0  0  0  0  0
   59.4896   36.1581   44.3245 H   0  0  0  0  0  0  0  0  0  0  0  0
   57.8412   34.3841   43.7430 H   0  0  0  0  0  0  0  0  0  0  0  0
   56.5260   31.9496   46.0973 H   0  0  0  0  0  0  0  0  0  0  0  0
   56.4324   32.6616   44.4431 H   0  0  0  0  0  0  0  0  0  0  0  0
   58.0530   30.0670   46.5360 H   0  0  0  0  0  0  0  0  0  0  0  0
   59.5660   28.9950   44.2495 H   0  0  0  0  0  0  0  0  0  0  0  0
   58.9704   27.5090   46.8304 H   0  0  0  0  0  0  0  0  0  0  0  0
   60.3966   27.3814   45.7184 H   0  0  0  0  0  0  0  0  0  0  0  0
   59.8755   28.1664   48.8942 H   0  0  0  0  0  0  0  0  0  0  0  0
   61.1355   29.8229   50.2596 H   0  0  0  0  0  0  0  0  0  0  0  0
   61.2212   31.8557   51.0401 H   0  0  0  0  0  0  0  0  0  0  0  0
   62.4842   33.5263   52.3941 H   0  0  0  0  0  0  0  0  0  0  0  0
   64.5684   34.5564   51.4870 H   0  0  0  0  0  0  0  0  0  0  0  0
   65.3974   33.9118   49.2238 H   0  0  0  0  0  0  0  0  0  0  0  0
   64.1425   32.2437   47.8585 H   0  0  0  0  0  0  0  0  0  0  0  0
   62.3691   31.8625   46.6416 H   0  0  0  0  0  0  0  0  0  0  0  0
   61.1193   30.1960   45.2769 H   0  0  0  0  0  0  0  0  0  0  0  0
   58.4632   24.9663   44.1740 H   0  0  0  0  0  0  0  0  0  0  0  0
   58.8729   22.7952   45.3423 H   0  0  0  0  0  0  0  0  0  0  0  0
   56.5842   24.0853   48.6952 H   0  0  0  0  0  0  0  0  0  0  0  0
   56.1317   26.2765   47.5904 H   0  0  0  0  0  0  0  0  0  0  0  0
  1  2  1  0
  2  3  1  0
  3  4  2  0
  4  5  1  0
  5  6  2  0
  6  7  1  0
  7  8  2  0
  8  9  1  0
  9 10  1  0
 10 11  2  0
 10 12  1  0
 12 13  1  0
 13 14  1  0
 14 15  1  0
 15 16  2  0
 16 17  1  0
 17 18  2  0
 18 19  1  0
 19 20  2  0
 20 21  1  0
 21 22  2  0
 22 23  1  0
 23 24  2  0
 18 25  1  0
 25 26  2  0
 13 27  1  0
 27 28  2  0
 27 29  1  0
 29 30  2  3
 30 31  1  0
 31 32  2  0
 32 33  1  0
 33 34  1  0
 34 35  2  0
  8  3  1  0
 26 15  1  0
 35 30  1  0
 24 19  1  0
  1 36  1  0
  1 37  1  0
  1 38  1  0
  4 39  1  0
  5 40  1  0
  6 41  1  0
  7 42  1  0
  9 43  1  0
  9 44  1  0
 12 45  1  0
 13 46  1  6
 14 47  1  0
 14 48  1  0
 16 49  1  0
 17 50  1  0
 20 51  1  0
 21 52  1  0
 22 53  1  0
 23 54  1  0
 24 55  1  0
 25 56  1  0
 26 57  1  0
 31 58  1  0
 32 59  1  0
 34 60  1  0
 35 61  1  0
M  CHG  1  33  -1
M  END
>  <UniqueID>  (44) 
40

>  <SMILES>  (44) 
CSc1ccccc1CC(=O)N[C@@H](Cc1ccc(-c2ccccc2)cc1)C(=O)N=c1cc[n-]cc1

>  <Energy>  (44) 
67.28002526819574

>  <Genealogy>  (44) 
CSc1ccccc1CC(=O)NC(Cc1ccc(-c2ccccc2)cc1)C(=O)N=c1cc[n-]cc1 (protonated)
CSc1ccccc1CC(=O)N[C@@H](Cc1ccc(-c2ccccc2)cc1)C(=O)N=c1cc[n-]cc1 (chirality)
CSc1ccccc1CC(=O)N[C@@H](Cc1ccc(-c2ccccc2)cc1)C(=O)N=c1cc[n-]cc1 (3D coordinates assigned)
CSc1ccccc1CC(=O)N[C@@H](Cc1ccc(-c2ccccc2)cc1)C(=O)N=c1cc[n-]cc1 (optimized conformer: 67.28002526819574 kcal/mol)

>  <smiles>  (44) 
CSc1ccccc1CC(=O)NC(Cc1ccc(-c2ccccc2)cc1)C(=O)N=c1cc[nH]cc1

>  <score_type>  (44) 
oracle

>  <origin>  (44) 
adg

>  <m_score__min__energy>  (44) 
-10.970000000000001

>  <m_primary>  (44) 
energy

$$$$
44:0
     RDKit          3D

 43 45  0  0  0  0  0  0  0  0999 V2000
   58.5653   27.7546   43.7011 H   0  0  0  0  0  0  0  0  0  0  0  0
   58.8800   28.1300   44.6860 C   0  0  0  0  0  0  0  0  0  0  0  0
   58.2340   27.6840   45.8420 C   0  0  0  0  0  0  0  0  0  0  0  0
   57.4166   26.9517   45.7671 H   0  0  0  0  0  0  0  0  0  0  0  0
   58.6260   28.1680   47.0940 C   0  0  0  0  0  0  0  0  0  0  0  0
   58.1211   27.8081   48.0026 H   0  0  0  0  0  0  0  0  0  0  0  0
   59.6620   29.1120   47.1970 C   0  0  0  0  0  0  0  0  0  0  0  0
   60.0650   29.6640   48.5390 C   0  0  0  0  0  0  0  0  0  0  0  0
   60.4541   30.6841   48.4046 H   0  0  0  0  0  0  0  0  0  0  0  0
   60.8358   29.0065   48.9674 H   0  0  0  0  0  0  0  0  0  0  0  0
   58.9260   29.7050   49.4630 N   0  0  0  0  0  0  0  0  0  0  0  0
   58.0550   29.6040   48.8930 H   0  0  0  0  0  0  0  0  0  0  0  0
   58.8120   31.2460   50.2690 S   0  0  0  0  0  0  0  0  0  0  0  0
   59.8700   31.3260   51.3330 O   0  0  0  0  0  0  0  0  0  0  0  0
   57.4650   31.3880   50.9250 O   0  0  0  0  0  0  0  0  0  0  0  0
   59.0750   32.5510   49.1150 C   0  0  0  0  0  0  0  0  0  0  0  0
   60.0160   33.5450   49.4010 C   0  0  0  0  0  0  0  0  0  0  0  0
   60.5459   33.5373   50.3649 H   0  0  0  0  0  0  0  0  0  0  0  0
   60.2850   34.5470   48.4670 C   0  0  0  0  0  0  0  0  0  0  0  0
   61.0222   35.3296   48.6995 H   0  0  0  0  0  0  0  0  0  0  0  0
   59.6210   34.5590   47.2380 C   0  0  0  0  0  0  0  0  0  0  0  0
   59.8439   35.3475   46.5041 H   0  0  0  0  0  0  0  0  0  0  0  0
   58.6690   33.5690   46.9330 C   0  0  0  0  0  0  0  0  0  0  0  0
   57.9940   33.5520   45.6140 C   0  0  0  0  0  0  0  0  0  0  0  0
   57.2010   34.4850   45.3050 O   0  0  0  0  0  0  0  0  0  0  0  0
   58.2410   32.4720   44.6980 N   0  0  0  0  0  0  0  0  0  0  0  0
   57.3870   31.5560   44.3380 C   0  0  0  0  0  0  0  0  0  0  0  0
   56.7240   30.7570   45.2050 N   0  0  0  0  0  0  0  0  0  0  0  0
   55.9990   29.9630   44.3910 C   0  0  0  0  0  0  0  0  0  0  0  0
   55.1510   28.9630   44.8460 O   0  0  0  0  0  0  0  0  0  0  0  0
   56.2230   30.2760   43.0700 C   0  0  0  0  0  0  0  0  0  0  0  0
   55.7722   29.7815   42.1969 H   0  0  0  0  0  0  0  0  0  0  0  0
   57.0940   31.2970   43.0450 N   0  0  0  0  0  0  0  0  0  0  0  0
   57.6820   31.9110   41.8590 C   0  0  0  0  0  0  0  0  0  0  0  0
   58.4127   32.6741   42.1652 H   0  0  0  0  0  0  0  0  0  0  0  0
   58.1869   31.1397   41.2589 H   0  0  0  0  0  0  0  0  0  0  0  0
   56.8896   32.3821   41.2589 H   0  0  0  0  0  0  0  0  0  0  0  0
   58.3930   32.5730   47.8890 C   0  0  0  0  0  0  0  0  0  0  0  0
   57.6357   31.8050   47.6728 H   0  0  0  0  0  0  0  0  0  0  0  0
   60.3210   29.5380   46.0310 C   0  0  0  0  0  0  0  0  0  0  0  0
   61.1512   30.2561   46.1026 H   0  0  0  0  0  0  0  0  0  0  0  0
   59.9260   29.0530   44.7800 C   0  0  0  0  0  0  0  0  0  0  0  0
   60.4384   29.3978   43.8698 H   0  0  0  0  0  0  0  0  0  0  0  0
  1  2  1  0
  2  3  2  0
  3  4  1  0
  3  5  1  0
  5  6  1  0
  5  7  2  0
  7  8  1  0
  8  9  1  0
  8 10  1  0
  8 11  1  0
 11 12  1  0
 11 13  1  0
 13 14  2  0
 13 15  2  0
 13 16  1  0
 16 17  2  0
 17 18  1  0
 17 19  1  0
 19 20  1  0
 19 21  2  0
 21 22  1  0
 21 23  1  0
 23 24  1  0
 24 25  2  0
 24 26  1  0
 26 27  2  0
 27 28  1  0
 28 29  1  0
 29 30  1  0
 29 31  2  0
 31 32  1  0
 31 33  1  0
 33 34  1  0
 34 35  1  0
 34 36  1  0
 34 37  1  0
 23 38  2  0
 38 39  1  0
  7 40  1  0
 40 41  1  0
 40 42  2  0
 42 43  1  0
 42  2  1  0
 38 16  1  0
 33 27  1  0
M  CHG  2  28  -1  30  -1
M  END
>  <UniqueID>  (45) 
41

>  <SMILES>  (45) 
Cn1cc([O-])[n-]/c1=N\C(=O)c1cccc(S(=O)(=O)NCc2ccccc2)c1

>  <Energy>  (45) 
73.09982729134956

>  <Genealogy>  (45) 
Cn1cc([O-])[n-]c1=NC(=O)c1cccc(S(=O)(=O)NCc2ccccc2)c1 (protonated)
Cn1cc([O-])[n-]/c1=N\C(=O)c1cccc(S(=O)(=O)NCc2ccccc2)c1 (cis-trans isomerization)
Cn1cc([O-])[n-]/c1=N\C(=O)c1cccc(S(=O)(=O)NCc2ccccc2)c1 (3D coordinates assigned)
Cn1cc([O-])[n-]/c1=N\C(=O)c1cccc(S(=O)(=O)NCc2ccccc2)c1 (optimized conformer: 73.09982729134956 kcal/mol)

>  <smiles>  (45) 
Cn1cc(O)[nH]c1=NC(=O)c1cccc(S(=O)(=O)NCc2ccccc2)c1

>  <score_type>  (45) 
oracle

>  <origin>  (45) 
adg

>  <m_score__min__energy>  (45) 
-15.029999999999999

>  <m_primary>  (45) 
energy

$$$$
45:0
     RDKit          3D

 47 49  0  0  0  0  0  0  0  0999 V2000
   58.1230   27.0390   43.4040 C   0  0  0  0  0  0  0  0  0  0  0  0
   58.3550   28.0390   44.4520 N   0  0  0  0  0  0  0  0  0  0  0  0
   58.0980   29.4570   44.1770 C   0  0  0  0  0  0  0  0  0  0  0  0
   56.7170   29.8390   44.6360 C   0  0  0  0  0  0  0  0  0  0  0  0
   55.8860   28.9310   44.9040 O   0  0  0  0  0  0  0  0  0  0  0  0
   56.3400   31.2070   44.8420 N   0  0  0  0  0  0  0  0  0  0  0  0
   57.2310   32.3060   45.0780 C   0  0  0  0  0  0  0  0  0  0  0  0
   57.4220   32.8180   46.3730 C   0  0  0  0  0  0  0  0  0  0  0  0
   58.3180   33.8680   46.5910 C   0  0  0  0  0  0  0  0  0  0  0  0
   59.0400   34.4060   45.5220 C   0  0  0  0  0  0  0  0  0  0  0  0
   58.8740   33.8870   44.2370 C   0  0  0  0  0  0  0  0  0  0  0  0
   57.9820   32.8320   44.0130 C   0  0  0  0  0  0  0  0  0  0  0  0
   57.7990   32.1950   42.3840 Cl  0  0  0  0  0  0  0  0  0  0  0  0
   58.5490   27.5990   45.8060 C   0  0  0  0  0  0  0  0  0  0  0  0
   58.3260   26.3930   46.1020 O   0  0  0  0  0  0  0  0  0  0  0  0
   59.0200   28.5300   46.8550 C   0  0  0  0  0  0  0  0  0  0  0  0
   60.0180   29.4750   46.5660 C   0  0  0  0  0  0  0  0  0  0  0  0
   60.4690   30.3540   47.5550 C   0  0  0  0  0  0  0  0  0  0  0  0
   59.9350   30.3010   48.8550 C   0  0  0  0  0  0  0  0  0  0  0  0
   60.3710   31.1950   49.8930 N   0  0  0  0  0  0  0  0  0  0  0  0
   60.6680   32.8870   49.6520 S   0  0  0  0  0  0  0  0  0  0  0  0
   61.1500   33.5010   50.9370 O   0  0  0  0  0  0  0  0  0  0  0  0
   59.3920   33.5660   49.2400 O   0  0  0  0  0  0  0  0  0  0  0  0
   61.8580   33.1090   48.3830 C   0  0  0  0  0  0  0  0  0  0  0  0
   61.6690   33.8490   47.2270 C   0  0  0  0  0  0  0  0  0  0  0  0
   62.7870   33.8380   46.3840 C   0  0  0  0  0  0  0  0  0  0  0  0
   63.8490   33.0880   46.8780 C   0  0  0  0  0  0  0  0  0  0  0  0
   63.4000   32.4420   48.3650 S   0  0  0  0  0  0  0  0  0  0  0  0
   58.9560   29.3380   49.1470 C   0  0  0  0  0  0  0  0  0  0  0  0
   58.5040   28.4600   48.1590 C   0  0  0  0  0  0  0  0  0  0  0  0
   57.8976   26.0674   43.8678 H   0  0  0  0  0  0  0  0  0  0  0  0
   57.2738   27.3529   42.7792 H   0  0  0  0  0  0  0  0  0  0  0  0
   59.0236   26.9469   42.7792 H   0  0  0  0  0  0  0  0  0  0  0  0
   58.8396   30.0697   44.7105 H   0  0  0  0  0  0  0  0  0  0  0  0
   58.1740   29.6295   43.0933 H   0  0  0  0  0  0  0  0  0  0  0  0
   56.8636   32.3902   47.2187 H   0  0  0  0  0  0  0  0  0  0  0  0
   58.4552   34.2715   47.6051 H   0  0  0  0  0  0  0  0  0  0  0  0
   59.7388   35.2381   45.6933 H   0  0  0  0  0  0  0  0  0  0  0  0
   59.4462   34.3086   43.3975 H   0  0  0  0  0  0  0  0  0  0  0  0
   60.4477   29.5238   45.5546 H   0  0  0  0  0  0  0  0  0  0  0  0
   61.2476   31.0929   47.3146 H   0  0  0  0  0  0  0  0  0  0  0  0
   60.4330   30.8410   50.8750 H   0  0  0  0  0  0  0  0  0  0  0  0
   60.7386   34.3884   46.9958 H   0  0  0  0  0  0  0  0  0  0  0  0
   62.8220   34.3716   45.4227 H   0  0  0  0  0  0  0  0  0  0  0  0
   64.8190   32.9419   46.3803 H   0  0  0  0  0  0  0  0  0  0  0  0
   58.5409   29.2743   50.1637 H   0  0  0  0  0  0  0  0  0  0  0  0
   57.7388   27.7088   48.4042 H   0  0  0  0  0  0  0  0  0  0  0  0
  1  2  1  0
  2  3  1  0
  3  4  1  0
  4  5  2  0
  4  6  1  0
  6  7  1  0
  7  8  2  0
  8  9  1  0
  9 10  2  0
 10 11  1  0
 11 12  2  0
 12 13  1  0
  2 14  1  0
 14 15  2  0
 14 16  1  0
 16 17  2  0
 17 18  1  0
 18 19  2  0
 19 20  1  0
 20 21  1  0
 21 22  2  0
 21 23  2  0
 21 24  1  0
 24 25  2  0
 25 26  1  0
 26 27  2  0
 27 28  1  0
 19 29  1  0
 29 30  2  0
 12  7  1  0
 30 16  1  0
 28 24  1  0
  1 31  1  0
  1 32  1  0
  1 33  1  0
  3 34  1  0
  3 35  1  0
  8 36  1  0
  9 37  1  0
 10 38  1  0
 11 39  1  0
 17 40  1  0
 18 41  1  0
 20 42  1  0
 25 43  1  0
 26 44  1  0
 27 45  1  0
 29 46  1  0
 30 47  1  0
M  CHG  1   6  -1
M  END
>  <UniqueID>  (46) 
42

>  <SMILES>  (46) 
CN(CC(=O)[N-]c1ccccc1Cl)C(=O)c1ccc(NS(=O)(=O)c2cccs2)cc1

>  <Energy>  (46) 
86.94469669925829

>  <Genealogy>  (46) 
CN(CC(=O)[N-]c1ccccc1Cl)C(=O)c1ccc(NS(=O)(=O)c2cccs2)cc1 (protonated)
CN(CC(=O)[N-]c1ccccc1Cl)C(=O)c1ccc(NS(=O)(=O)c2cccs2)cc1 (3D coordinates assigned)
CN(CC(=O)[N-]c1ccccc1Cl)C(=O)c1ccc(NS(=O)(=O)c2cccs2)cc1 (optimized conformer: 86.94469669925829 kcal/mol)

>  <smiles>  (46) 
CN(CC(=O)Nc1ccccc1Cl)C(=O)c1ccc(NS(=O)(=O)c2cccs2)cc1

>  <score_type>  (46) 
oracle

>  <origin>  (46) 
adg

>  <m_score__min__energy>  (46) 
-10.85

>  <m_primary>  (46) 
energy

$$$$
46:0
     RDKit          3D

 39 41  0  0  1  0  0  0  0  0999 V2000
   56.6790   29.3940   42.6030 N   0  0  0  0  0  0  0  0  0  0  0  0
   56.6000   29.8120   44.2640 S   0  0  0  0  0  0  0  0  0  0  0  0
   55.5210   28.9810   44.9440 O   0  0  0  0  0  0  0  0  0  0  0  0
   56.3020   31.2600   44.4920 O   0  0  0  0  0  0  0  0  0  0  0  0
   58.0950   29.4340   45.0990 C   0  0  0  0  0  0  0  0  0  0  0  0
   59.2680   29.1410   44.4320 C   0  0  0  0  0  0  0  0  0  0  0  0
   60.3980   28.8550   45.1660 C   0  0  0  0  0  0  0  0  0  0  0  0
   60.4250   28.8440   46.5460 C   0  0  0  0  0  0  0  0  0  0  0  0
   59.2390   29.1400   47.1960 C   0  0  0  0  0  0  0  0  0  0  0  0
   59.4840   33.6880   48.7540 N   0  0  0  0  0  0  0  0  0  0  0  0
   59.2350   32.5980   49.3800 C   0  0  0  0  0  0  0  0  0  0  0  0
   58.7290   30.1660   50.5840 N   0  0  0  0  0  0  0  0  0  0  0  0
   58.6490   31.2960   51.3100 C   0  0  0  0  0  0  0  0  0  0  0  0
   58.9040   32.5010   50.7000 C   0  0  0  0  0  0  0  0  0  0  0  0
   58.8260   33.6480   51.4220 F   0  0  0  0  0  0  0  0  0  0  0  0
   59.0590   30.2620   49.2710 C   0  0  0  0  0  0  0  0  0  0  0  0
   59.1240   29.1640   48.6160 N   0  0  0  0  0  0  0  0  0  0  0  0
   59.0970   33.7430   47.3850 C   0  0  0  0  0  0  0  0  0  0  0  0
   57.7650   33.7410   47.0370 C   0  0  0  0  0  0  0  0  0  0  0  0
   57.3620   33.7940   45.7110 C   0  0  0  0  0  0  0  0  0  0  0  0
   58.2810   33.8500   44.6870 C   0  0  0  0  0  0  0  0  0  0  0  0
   59.6140   33.8510   45.0450 C   0  0  0  0  0  0  0  0  0  0  0  0
   60.0230   33.7990   46.3600 C   0  0  0  0  0  0  0  0  0  0  0  0
   61.7300   33.8030   46.7450 Cl  0  0  0  0  0  0  0  0  0  0  0  0
   59.3080   31.4410   48.6770 N   0  0  0  0  0  0  0  0  0  0  0  0
   58.1000   29.4280   46.4680 C   0  0  0  0  0  0  0  0  0  0  0  0
   57.5320   29.7090   42.1340 H   0  0  0  0  0  0  0  0  0  0  0  0
   55.7990   29.6090   42.0860 H   0  0  0  0  0  0  0  0  0  0  0  0
   59.2996   29.1361   43.3325 H   0  0  0  0  0  0  0  0  0  0  0  0
   61.3270   28.6234   44.6243 H   0  0  0  0  0  0  0  0  0  0  0  0
   61.3448   28.6112   47.1026 H   0  0  0  0  0  0  0  0  0  0  0  0
   58.5410   29.2350   51.0210 H   0  0  0  0  0  0  0  0  0  0  0  0
   58.3833   31.2560   52.3767 H   0  0  0  0  0  0  0  0  0  0  0  0
   57.0028   33.6963   47.8289 H   0  0  0  0  0  0  0  0  0  0  0  0
   56.2881   33.7912   45.4728 H   0  0  0  0  0  0  0  0  0  0  0  0
   57.9675   33.8920   43.6334 H   0  0  0  0  0  0  0  0  0  0  0  0
   60.3763   33.8948   44.2532 H   0  0  0  0  0  0  0  0  0  0  0  0
   59.5600   31.4730   47.6590 H   0  0  0  0  0  0  0  0  0  0  0  0
   57.1685   29.6596   47.0053 H   0  0  0  0  0  0  0  0  0  0  0  0
  1  2  1  0
  2  3  2  0
  2  4  2  0
  2  5  1  0
  5  6  2  0
  6  7  1  0
  7  8  2  0
  8  9  1  0
  9 10  1  0
 10 11  2  0
 11 12  1  0
 12 13  1  0
 13 14  2  0
 14 15  1  0
 14 16  1  0
 16 17  2  0
 17 18  1  0
 18 19  2  0
 19 20  1  0
 20 21  2  0
 21 22  1  0
 22 23  2  0
 23 24  1  0
 16 25  1  0
  9 26  2  0
 26  5  1  0
 25 11  1  0
 23 18  1  0
  1 27  1  0
  1 28  1  0
  6 29  1  0
  7 30  1  0
  8 31  1  0
 12 32  1  0
 13 33  1  0
 19 34  1  0
 20 35  1  0
 21 36  1  0
 22 37  1  0
 25 38  1  0
 26 39  1  0
M  END
>  <smiles>  (47) 
NS(=O)(=O)c1cccc(N=c2[nH]cc(F)c(=Nc3ccccc3Cl)[nH]2)c1

>  <score_type>  (47) 
oracle

>  <origin>  (47) 
adg

>  <m_score__min__energy>  (47) 
-9.0299999999999994

>  <m_primary>  (47) 
energy

$$$$
47:0
     RDKit          3D

 28 29  0  0  0  0  0  0  0  0999 V2000
   57.3980   21.3620   46.2480 C   0  0  0  0  0  0  0  0  0  0  0  0
   57.4680   22.4830   47.1200 O   0  0  0  0  0  0  0  0  0  0  0  0
   57.0600   23.7650   46.7410 C   0  0  0  0  0  0  0  0  0  0  0  0
   55.7490   24.1750   46.6260 C   0  0  0  0  0  0  0  0  0  0  0  0
   55.8150   25.4970   46.2320 C   0  0  0  0  0  0  0  0  0  0  0  0
   54.7100   26.3100   45.9940 O   0  0  0  0  0  0  0  0  0  0  0  0
   57.0980   25.9010   46.1050 N   0  0  0  0  0  0  0  0  0  0  0  0
   57.5710   27.2000   45.7130 C   0  0  0  0  0  0  0  0  0  0  0  0
   58.7990   27.4700   45.8000 O   0  0  0  0  0  0  0  0  0  0  0  0
   56.6410   28.2010   45.2750 N   0  0  0  0  0  0  0  0  0  0  0  0
   56.9560   29.4280   44.6010 C   0  0  0  0  0  0  0  0  0  0  0  0
   56.6320   29.6370   43.2470 C   0  0  0  0  0  0  0  0  0  0  0  0
   56.9330   30.8550   42.6310 C   0  0  0  0  0  0  0  0  0  0  0  0
   57.5460   31.8770   43.3600 C   0  0  0  0  0  0  0  0  0  0  0  0
   57.8490   31.6880   44.7120 C   0  0  0  0  0  0  0  0  0  0  0  0
   58.6040   32.9850   45.6220 Cl  0  0  0  0  0  0  0  0  0  0  0  0
   57.5470   30.4680   45.3330 C   0  0  0  0  0  0  0  0  0  0  0  0
   57.8380   30.2880   46.6470 F   0  0  0  0  0  0  0  0  0  0  0  0
   57.8710   24.8400   46.4160 C   0  0  0  0  0  0  0  0  0  0  0  0
   57.3403   20.4382   46.8423 H   0  0  0  0  0  0  0  0  0  0  0  0
   56.5034   21.4463   45.6135 H   0  0  0  0  0  0  0  0  0  0  0  0
   58.2962   21.3343   45.6135 H   0  0  0  0  0  0  0  0  0  0  0  0
   54.8439   23.5772   46.8089 H   0  0  0  0  0  0  0  0  0  0  0  0
   54.7710   27.0990   45.3630 H   0  0  0  0  0  0  0  0  0  0  0  0
   56.1401   28.8388   42.6717 H   0  0  0  0  0  0  0  0  0  0  0  0
   56.6867   31.0092   41.5701 H   0  0  0  0  0  0  0  0  0  0  0  0
   57.7905   32.8311   42.8701 H   0  0  0  0  0  0  0  0  0  0  0  0
   58.9709   24.8301   46.4121 H   0  0  0  0  0  0  0  0  0  0  0  0
  1  2  1  0
  2  3  1  0
  3  4  1  0
  4  5  2  0
  5  6  1  0
  5  7  1  0
  7  8  1  0
  8  9  2  0
  8 10  1  0
 10 11  1  0
 11 12  2  0
 12 13  1  0
 13 14  2  0
 14 15  1  0
 15 16  1  0
 15 17  2  0
 17 18  1  0
  7 19  1  0
 19  3  2  0
 17 11  1  0
  1 20  1  0
  1 21  1  0
  1 22  1  0
  4 23  1  0
  6 24  1  0
 12 25  1  0
 13 26  1  0
 14 27  1  0
 19 28  1  0
M  CHG  1  10  -1
M  END
>  <UniqueID>  (48) 
43

>  <SMILES>  (48) 
COc1cc(O)n(C(=O)[N-]c2cccc(Cl)c2F)c1

>  <Energy>  (48) 
58.113432103623445

>  <Genealogy>  (48) 
COc1cc(O)n(C(=O)[N-]c2cccc(Cl)c2F)c1 (protonated)
COc1cc(O)n(C(=O)[N-]c2cccc(Cl)c2F)c1 (3D coordinates assigned)
COc1cc(O)n(C(=O)[N-]c2cccc(Cl)c2F)c1 (optimized conformer: 58.113432103623445 kcal/mol)

>  <smiles>  (48) 
COc1cc(O)n(C(=O)Nc2cccc(Cl)c2F)c1

>  <score_type>  (48) 
oracle

>  <origin>  (48) 
adg

>  <m_score__min__energy>  (48) 
-9.0999999999999996

>  <m_primary>  (48) 
energy

$$$$
48:0
     RDKit          3D

 35 37  0  0  0  0  0  0  0  0999 V2000
   59.1940   30.2080   46.8280 C   0  0  0  0  0  0  0  0  0  0  0  0
   58.9530   31.1780   45.9320 C   0  0  0  0  0  0  0  0  0  0  0  0
   58.2040   31.0770   44.7460 C   0  0  0  0  0  0  0  0  0  0  0  0
   57.6860   30.0040   44.1130 C   0  0  0  0  0  0  0  0  0  0  0  0
   57.4240   28.6880   44.7270 C   0  0  0  0  0  0  0  0  0  0  0  0
   56.1550   28.3900   45.2430 C   0  0  0  0  0  0  0  0  0  0  0  0
   55.1430   29.3440   45.2310 O   0  0  0  0  0  0  0  0  0  0  0  0
   55.9090   27.1620   45.7710 N   0  0  0  0  0  0  0  0  0  0  0  0
   56.8710   26.2040   45.7940 C   0  0  0  0  0  0  0  0  0  0  0  0
   56.5450   24.7390   46.4370 S   0  0  0  0  0  0  0  0  0  0  0  0
   58.0980   26.4580   45.2750 N   0  0  0  0  0  0  0  0  0  0  0  0
   58.3940   27.6700   44.7350 C   0  0  0  0  0  0  0  0  0  0  0  0
   59.5370   27.8640   44.2410 O   0  0  0  0  0  0  0  0  0  0  0  0
   58.0660   32.3670   44.2620 C   0  0  0  0  0  0  0  0  0  0  0  0
   58.7690   33.1920   45.1140 C   0  0  0  0  0  0  0  0  0  0  0  0
   58.8940   34.6760   44.9490 C   0  0  0  0  0  0  0  0  0  0  0  0
   59.3060   32.4750   46.1260 N   0  0  0  0  0  0  0  0  0  0  0  0
   60.0880   33.0090   47.2100 C   0  0  0  0  0  0  0  0  0  0  0  0
   59.4580   33.5840   48.3250 C   0  0  0  0  0  0  0  0  0  0  0  0
   60.2210   34.1100   49.3720 C   0  0  0  0  0  0  0  0  0  0  0  0
   61.6180   34.0640   49.3120 C   0  0  0  0  0  0  0  0  0  0  0  0
   62.3740   34.5860   50.3540 O   0  0  0  0  0  0  0  0  0  0  0  0
   62.2520   33.4930   48.2050 C   0  0  0  0  0  0  0  0  0  0  0  0
   61.4910   32.9670   47.1560 C   0  0  0  0  0  0  0  0  0  0  0  0
   59.8004   30.4219   47.7204 H   0  0  0  0  0  0  0  0  0  0  0  0
   58.7851   29.1992   46.6698 H   0  0  0  0  0  0  0  0  0  0  0  0
   57.4377   30.1202   43.0477 H   0  0  0  0  0  0  0  0  0  0  0  0
   57.5030   32.6747   43.3685 H   0  0  0  0  0  0  0  0  0  0  0  0
   58.9342   35.1529   45.9394 H   0  0  0  0  0  0  0  0  0  0  0  0
   59.8148   34.9069   44.3932 H   0  0  0  0  0  0  0  0  0  0  0  0
   58.0248   35.0576   44.3932 H   0  0  0  0  0  0  0  0  0  0  0  0
   58.3598   33.6209   48.3752 H   0  0  0  0  0  0  0  0  0  0  0  0
   59.7227   34.5602   50.2432 H   0  0  0  0  0  0  0  0  0  0  0  0
   63.3504   33.4573   48.1587 H   0  0  0  0  0  0  0  0  0  0  0  0
   61.9929   32.5189   46.2858 H   0  0  0  0  0  0  0  0  0  0  0  0
  1  2  2  0
  2  3  1  0
  3  4  2  3
  4  5  1  0
  5  6  2  0
  6  7  1  0
  6  8  1  0
  8  9  1  0
  9 10  2  0
  9 11  1  0
 11 12  1  0
 12 13  2  0
  3 14  1  0
 14 15  2  0
 15 16  1  0
 15 17  1  0
 17 18  1  0
 18 19  2  0
 19 20  1  0
 20 21  2  0
 21 22  1  0
 21 23  1  0
 23 24  2  0
 17  2  1  0
 24 18  1  0
 12  5  1  0
  1 25  1  0
  1 26  1  0
  4 27  1  0
 14 28  1  0
 16 29  1  0
 16 30  1  0
 16 31  1  0
 19 32  1  0
 20 33  1  0
 23 34  1  0
 24 35  1  0
M  CHG  4   7  -1   8  -1  11  -1  22  -1
M  END
>  <UniqueID>  (49) 
44

>  <SMILES>  (49) 
C=c1c(=Cc2c([O-])[n-]c(=S)[n-]c2=O)cc(C)n1-c1ccc([O-])cc1

>  <Energy>  (49) 
86.55286140229263

>  <Genealogy>  (49) 
C=c1c(=Cc2c([O-])[n-]c(=S)[n-]c2=O)cc(C)n1-c1ccc([O-])cc1 (protonated)
C=c1c(=Cc2c([O-])[n-]c(=S)[n-]c2=O)cc(C)n1-c1ccc([O-])cc1 (3D coordinates assigned)
C=c1c(=Cc2c([O-])[n-]c(=S)[n-]c2=O)cc(C)n1-c1ccc([O-])cc1 (optimized conformer: 86.55286140229263 kcal/mol)

>  <smiles>  (49) 
C=c1c(=Cc2c(O)[nH]c(=S)[nH]c2=O)cc(C)n1-c1ccc(O)cc1

>  <score_type>  (49) 
oracle

>  <origin>  (49) 
adg

>  <m_score__min__energy>  (49) 
-15.49

>  <m_primary>  (49) 
energy

$$$$
49:0
     RDKit          3D

 49 51  0  0  0  0  0  0  0  0999 V2000
   58.1622   31.7653   48.9714 H   0  0  0  0  0  0  0  0  0  0  0  0
   58.4160   32.4680   48.1640 C   0  0  0  0  0  0  0  0  0  0  0  0
   57.8890   32.2950   46.9220 N   0  0  0  0  0  0  0  0  0  0  0  0
   58.1760   33.1300   45.8860 C   0  0  0  0  0  0  0  0  0  0  0  0
   57.6330   32.8870   44.7260 N   0  0  0  0  0  0  0  0  0  0  0  0
   57.4180   31.6050   44.1200 C   0  0  0  0  0  0  0  0  0  0  0  0
   56.9670   31.5570   42.9460 O   0  0  0  0  0  0  0  0  0  0  0  0
   57.6160   30.3980   44.8770 N   0  0  0  0  0  0  0  0  0  0  0  0
   57.7910   30.4950   45.9020 H   0  0  0  0  0  0  0  0  0  0  0  0
   57.4900   29.0750   44.3290 C   0  0  0  0  0  0  0  0  0  0  0  0
   57.0380   28.9120   43.1620 O   0  0  0  0  0  0  0  0  0  0  0  0
   57.8450   27.8840   45.1350 C   0  0  0  0  0  0  0  0  0  0  0  0
   59.1990   27.5570   45.3280 C   0  0  0  0  0  0  0  0  0  0  0  0
   59.9821   28.1893   44.8841 H   0  0  0  0  0  0  0  0  0  0  0  0
   59.5570   26.4340   46.0800 C   0  0  0  0  0  0  0  0  0  0  0  0
   60.6187   26.1814   46.2179 H   0  0  0  0  0  0  0  0  0  0  0  0
   58.5700   25.6330   46.6560 C   0  0  0  0  0  0  0  0  0  0  0  0
   58.8535   24.7468   47.2428 H   0  0  0  0  0  0  0  0  0  0  0  0
   57.2230   25.9570   46.4870 C   0  0  0  0  0  0  0  0  0  0  0  0
   56.4469   25.3289   46.9487 H   0  0  0  0  0  0  0  0  0  0  0  0
   56.8550   27.0770   45.7330 C   0  0  0  0  0  0  0  0  0  0  0  0
   55.5390   27.3920   45.6360 F   0  0  0  0  0  0  0  0  0  0  0  0
   59.0170   34.2390   46.1160 C   0  0  0  0  0  0  0  0  0  0  0  0
   59.2369   34.9453   45.3019 H   0  0  0  0  0  0  0  0  0  0  0  0
   59.5680   34.4340   47.3830 C   0  0  0  0  0  0  0  0  0  0  0  0
   60.2293   35.2930   47.5694 H   0  0  0  0  0  0  0  0  0  0  0  0
   59.2790   33.5370   48.4150 C   0  0  0  0  0  0  0  0  0  0  0  0
   60.0190   33.7490   50.0340 S   0  0  0  0  0  0  0  0  0  0  0  0
   59.0400   32.4240   50.7430 C   0  0  0  0  0  0  0  0  0  0  0  0
   59.4420   31.0940   50.5820 C   0  0  0  0  0  0  0  0  0  0  0  0
   60.3756   30.8642   50.0477 H   0  0  0  0  0  0  0  0  0  0  0  0
   58.6610   30.0560   51.0980 C   0  0  0  0  0  0  0  0  0  0  0  0
   58.9809   29.0119   50.9659 H   0  0  0  0  0  0  0  0  0  0  0  0
   57.4650   30.3420   51.7870 C   0  0  0  0  0  0  0  0  0  0  0  0
   56.6330   29.3420   52.3150 O   0  0  0  0  0  0  0  0  0  0  0  0
   55.4290   29.5660   53.0480 C   0  0  0  0  0  0  0  0  0  0  0  0
   55.4572   30.5724   53.4911 H   0  0  0  0  0  0  0  0  0  0  0  0
   55.3475   28.8052   53.8382 H   0  0  0  0  0  0  0  0  0  0  0  0
   54.2100   29.4550   52.1270 C   0  0  0  0  0  0  0  0  0  0  0  0
   53.4014   28.9365   52.6630 H   0  0  0  0  0  0  0  0  0  0  0  0
   54.5028   28.8924   51.2282 H   0  0  0  0  0  0  0  0  0  0  0  0
   53.7170   30.8330   51.6950 C   0  0  0  0  0  0  0  0  0  0  0  0
   53.4996   31.4406   52.5859 H   0  0  0  0  0  0  0  0  0  0  0  0
   54.4936   31.3284   51.0939 H   0  0  0  0  0  0  0  0  0  0  0  0
   52.8023   30.7233   51.0939 H   0  0  0  0  0  0  0  0  0  0  0  0
   57.0840   31.6790   51.9630 C   0  0  0  0  0  0  0  0  0  0  0  0
   56.1629   31.9149   52.5161 H   0  0  0  0  0  0  0  0  0  0  0  0
   57.8640   32.7160   51.4420 C   0  0  0  0  0  0  0  0  0  0  0  0
   57.5528   33.7617   51.5818 H   0  0  0  0  0  0  0  0  0  0  0  0
  1  2  1  0
  2  3  1  0
  3  4  1  0
  4  5  2  0
  5  6  1  0
  6  7  2  0
  6  8  1  0
  8  9  1  0
  8 10  1  0
 10 11  2  0
 10 12  1  0
 12 13  2  0
 13 14  1  0
 13 15  1  0
 15 16  1  0
 15 17  2  0
 17 18  1  0
 17 19  1  0
 19 20  1  0
 19 21  2  0
 21 22  1  0
  4 23  1  0
 23 24  1  0
 23 25  2  0
 25 26  1  0
 25 27  1  0
 27 28  1  0
 28 29  1  0
 29 30  2  0
 30 31  1  0
 30 32  1  0
 32 33  1  0
 32 34  2  0
 34 35  1  0
 35 36  1  0
 36 37  1  0
 36 38  1  0
 36 39  1  0
 39 40  1  0
 39 41  1  0
 39 42  1  0
 42 43  1  0
 42 44  1  0
 42 45  1  0
 34 46  1  0
 46 47  1  0
 46 48  2  0
 48 49  1  0
 27  2  2  0
 48 29  1  0
 21 12  1  0
M  CHG  1   3  -1
M  END
>  <UniqueID>  (50) 
45

>  <SMILES>  (50) 
CCCOc1ccc(Sc2cc/c(=N\C(=O)NC(=O)c3ccccc3F)[n-]c2)cc1

>  <Energy>  (50) 
55.13257165032586

>  <Genealogy>  (50) 
CCCOc1ccc(Sc2ccc(=NC(=O)NC(=O)c3ccccc3F)[n-]c2)cc1 (protonated)
CCCOc1ccc(Sc2cc/c(=N\C(=O)NC(=O)c3ccccc3F)[n-]c2)cc1 (cis-trans isomerization)
CCCOc1ccc(Sc2cc/c(=N\C(=O)NC(=O)c3ccccc3F)[n-]c2)cc1 (3D coordinates assigned)
CCCOc1ccc(Sc2cc/c(=N\C(=O)NC(=O)c3ccccc3F)[n-]c2)cc1 (optimized conformer: 55.13257165032586 kcal/mol)

>  <smiles>  (50) 
CCCOc1ccc(Sc2ccc(=NC(=O)NC(=O)c3ccccc3F)[nH]c2)cc1

>  <score_type>  (50) 
oracle

>  <origin>  (50) 
adg

>  <m_score__min__energy>  (50) 
-10.460000000000001

>  <m_primary>  (50) 
energy

$$$$
50:0
     RDKit          3D

 55 58  0  0  0  0  0  0  0  0999 V2000
   55.1780   28.1070   44.8700 H   0  0  0  0  0  0  0  0  0  0  0  0
   61.5800   34.2100   50.4110 N   0  0  0  0  0  0  0  0  0  0  0  0
   61.7980   34.0910   49.1310 C   0  0  0  0  0  0  0  0  0  0  0  0
   60.7540   34.2930   48.2800 N   0  0  0  0  0  0  0  0  0  0  0  0
   57.3420   31.5520   43.2110 C   0  0  0  0  0  0  0  0  0  0  0  0
   57.3129   32.3522   42.4568 H   0  0  0  0  0  0  0  0  0  0  0  0
   58.5060   31.3280   43.9430 C   0  0  0  0  0  0  0  0  0  0  0  0
   59.3913   31.9603   43.7802 H   0  0  0  0  0  0  0  0  0  0  0  0
   58.5440   30.2920   44.8890 C   0  0  0  0  0  0  0  0  0  0  0  0
   59.6920   30.0550   45.6630 O   0  0  0  0  0  0  0  0  0  0  0  0
   59.9180   30.5440   46.9580 C   0  0  0  0  0  0  0  0  0  0  0  0
   58.8880   31.2330   47.6050 C   0  0  0  0  0  0  0  0  0  0  0  0
   57.9278   31.3882   47.0913 H   0  0  0  0  0  0  0  0  0  0  0  0
   59.0700   31.7260   48.9000 C   0  0  0  0  0  0  0  0  0  0  0  0
   58.2500   32.2618   49.4004 H   0  0  0  0  0  0  0  0  0  0  0  0
   60.2880   31.5430   49.5650 C   0  0  0  0  0  0  0  0  0  0  0  0
   60.4270   32.0550   50.8970 N   0  0  0  0  0  0  0  0  0  0  0  0
   60.7280   33.4120   51.2440 C   0  0  0  0  0  0  0  0  0  0  0  0
   60.3570   33.8770   52.3550 O   0  0  0  0  0  0  0  0  0  0  0  0
   55.1500   29.0900   44.5180 N   0  0  0  0  0  0  0  0  0  0  0  0
   56.2320   29.7820   44.3480 C   0  0  0  0  0  0  0  0  0  0  0  0
   56.2450   30.7850   43.4270 N   0  0  0  0  0  0  0  0  0  0  0  0
   60.8760   34.1840   46.9290 C   0  0  0  0  0  0  0  0  0  0  0  0
   59.6860   34.4090   46.0530 C   0  0  0  0  0  0  0  0  0  0  0  0
   58.7969   34.5771   46.6784 H   0  0  0  0  0  0  0  0  0  0  0  0
   59.8596   35.2902   45.4180 H   0  0  0  0  0  0  0  0  0  0  0  0
   59.5258   33.5252   45.4180 H   0  0  0  0  0  0  0  0  0  0  0  0
   62.1110   33.8340   46.3710 C   0  0  0  0  0  0  0  0  0  0  0  0
   62.2228   33.7430   45.2805 H   0  0  0  0  0  0  0  0  0  0  0  0
   63.1980   33.6020   47.2130 C   0  0  0  0  0  0  0  0  0  0  0  0
   64.1730   33.3231   46.7868 H   0  0  0  0  0  0  0  0  0  0  0  0
   57.3910   29.5100   45.1080 C   0  0  0  0  0  0  0  0  0  0  0  0
   63.9049   33.5331   49.2619 H   0  0  0  0  0  0  0  0  0  0  0  0
   61.3110   30.8050   48.9370 C   0  0  0  0  0  0  0  0  0  0  0  0
   62.4590   30.5030   49.5930 F   0  0  0  0  0  0  0  0  0  0  0  0
   61.1240   30.3120   47.6420 C   0  0  0  0  0  0  0  0  0  0  0  0
   61.9264   29.7385   47.1549 H   0  0  0  0  0  0  0  0  0  0  0  0
   63.0510   33.7230   48.5950 C   0  0  0  0  0  0  0  0  0  0  0  0
   57.4200   28.4190   46.1610 C   0  0  0  0  0  0  0  0  0  0  0  0
   58.4505   28.2978   46.5261 H   0  0  0  0  0  0  0  0  0  0  0  0
   56.7524   28.7082   46.9860 H   0  0  0  0  0  0  0  0  0  0  0  0
   56.9500   27.1330   45.6000 N   0  0  0  0  0  0  0  0  0  0  0  0
   56.8680   26.0790   46.6410 C   0  0  0  0  0  0  0  0  0  0  0  0
   56.9000   26.5557   47.6318 H   0  0  0  0  0  0  0  0  0  0  0  0
   55.9269   25.5291   46.4932 H   0  0  0  0  0  0  0  0  0  0  0  0
   58.0270   25.0720   46.5370 C   0  0  0  0  0  0  0  0  0  0  0  0
   58.9728   25.6117   46.6927 H   0  0  0  0  0  0  0  0  0  0  0  0
   57.8571   24.3012   47.3031 H   0  0  0  0  0  0  0  0  0  0  0  0
   58.0880   24.4090   45.2810 O   0  0  0  0  0  0  0  0  0  0  0  0
   57.6430   25.2080   44.1910 C   0  0  0  0  0  0  0  0  0  0  0  0
   58.2423   24.9504   43.3053 H   0  0  0  0  0  0  0  0  0  0  0  0
   56.5729   24.9935   44.0537 H   0  0  0  0  0  0  0  0  0  0  0  0
   57.7670   26.7190   44.4360 C   0  0  0  0  0  0  0  0  0  0  0  0
   58.8211   26.9676   44.6288 H   0  0  0  0  0  0  0  0  0  0  0  0
   57.4044   27.2512   43.5442 H   0  0  0  0  0  0  0  0  0  0  0  0
  1  2  1  0
  2  3  2  0
  3  4  1  0
  4  5  1  0
  5  6  1  0
  5  7  2  0
  7  8  1  0
  7  9  1  0
  9 10  1  0
 10 11  1  0
 11 12  2  0
 12 13  1  0
 12 14  1  0
 14 15  1  0
 14 16  2  0
 16 17  1  0
 17 18  1  0
 18 19  2  0
 18 20  1  0
 20 21  2  0
 21 22  1  0
 22 23  1  0
 23 24  1  0
 24 25  1  0
 24 26  1  0
 24 27  1  0
 23 28  2  0
 28 29  1  0
 28 30  1  0
 30 31  1  0
 30 32  2  0
 32 33  1  0
 16 34  1  0
 34 35  1  0
 34 36  2  0
 36 37  1  0
  9 38  2  0
 38 39  1  0
 39 40  1  0
 39 41  1  0
 39 42  1  0
 42 43  1  0
 43 44  1  0
 43 45  1  0
 43 46  1  0
 46 47  1  0
 46 48  1  0
 46 49  1  0
 49 50  1  0
 50 51  1  0
 50 52  1  0
 50 53  1  0
 53 54  1  0
 53 55  1  0
 38  3  1  0
 53 42  1  0
 36 11  1  0
 32 21  1  0
M  CHG  3   4  -1  17  -1  22  -1
M  END
>  <UniqueID>  (51) 
46

>  <SMILES>  (51) 
[H]/N=c1\[n-]ccc(Oc2ccc([N-]C(=O)/N=c3\cccc(C)[n-]3)c(F)c2)c1CN1CCOCC1

>  <Energy>  (51) 
92.99092519278916

>  <Genealogy>  (51) 
Cc1cccc(=NC(=O)[N-]c2ccc(Oc3cc[n-]c(=N)c3CN3CCOCC3)cc2F)[n-]1 (protonated)
[H]/N=c1\[n-]ccc(Oc2ccc([N-]C(=O)/N=c3\cccc(C)[n-]3)c(F)c2)c1CN1CCOCC1 (cis-trans isomerization)
[H]/N=c1\[n-]ccc(Oc2ccc([N-]C(=O)/N=c3\cccc(C)[n-]3)c(F)c2)c1CN1CCOCC1 (3D coordinates assigned)
[H]/N=c1\[n-]ccc(Oc2ccc([N-]C(=O)/N=c3\cccc(C)[n-]3)c(F)c2)c1CN1CCOCC1 (nonaromatic ring conformer: 92.99092519278916 kcal/mol)

>  <smiles>  (51) 
Cc1cccc(=NC(=O)Nc2ccc(Oc3cc[nH]c(=N)c3CN3CCOCC3)cc2F)[nH]1

>  <score_type>  (51) 
oracle

>  <origin>  (51) 
adg

>  <m_score__min__energy>  (51) 
-11.66

>  <m_primary>  (51) 
energy

$$$$
51:0
     RDKit          3D

 54 57  0  0  0  0  0  0  0  0999 V2000
   63.3800   34.1300   46.3660 C   0  0  0  0  0  0  0  0  0  0  0  0
   62.8270   33.4350   47.5420 N   0  0  0  0  0  0  0  0  0  0  0  0
   63.9140   33.1440   48.4910 C   0  0  0  0  0  0  0  0  0  0  0  0
   62.1440   32.1770   47.1610 C   0  0  0  0  0  0  0  0  0  0  0  0
   61.1120   31.7300   48.2290 C   0  0  1  0  0  0  0  0  0  0  0  0
   59.8910   32.6760   48.3890 C   0  0  1  0  0  0  0  0  0  0  0  0
   59.2730   33.0720   47.0610 C   0  0  0  0  0  0  0  0  0  0  0  0
   59.7260   34.1990   46.3490 C   0  0  0  0  0  0  0  0  0  0  0  0
   59.1150   34.5740   45.1500 C   0  0  0  0  0  0  0  0  0  0  0  0
   58.0430   33.8340   44.6480 C   0  0  0  0  0  0  0  0  0  0  0  0
   57.5790   32.7150   45.3450 C   0  0  0  0  0  0  0  0  0  0  0  0
   56.5090   31.9810   44.8470 O   0  0  0  0  0  0  0  0  0  0  0  0
   58.1880   32.3360   46.5460 C   0  0  0  0  0  0  0  0  0  0  0  0
   58.5720   32.0150   49.5130 S   0  0  0  0  0  0  0  0  0  0  0  0
   59.3940   30.5550   50.1930 C   0  0  0  0  0  0  0  0  0  0  0  0
   59.1090   30.1430   51.4990 C   0  0  0  0  0  0  0  0  0  0  0  0
   59.6480   28.9480   51.9930 C   0  0  0  0  0  0  0  0  0  0  0  0
   59.3420   28.5180   53.3320 C   0  0  0  0  0  0  0  0  0  0  0  0
   59.0950   28.1730   54.4090 N   0  0  0  0  0  0  0  0  0  0  0  0
   60.4810   28.1670   51.1800 C   0  0  0  0  0  0  0  0  0  0  0  0
   60.7850   28.5880   49.8820 C   0  0  0  0  0  0  0  0  0  0  0  0
   60.2390   29.7800   49.3850 C   0  0  0  0  0  0  0  0  0  0  0  0
   60.6740   30.3210   48.1330 N   0  0  0  0  0  0  0  0  0  0  0  0
   60.4600   29.5880   46.8970 C   0  0  0  0  0  0  0  0  0  0  0  0
   61.3460   29.5720   46.0020 O   0  0  0  0  0  0  0  0  0  0  0  0
   59.2090   28.8360   46.6410 C   0  0  0  0  0  0  0  0  0  0  0  0
   58.1620   29.4250   45.9090 C   0  0  0  0  0  0  0  0  0  0  0  0
   56.9870   28.7120   45.6580 C   0  0  0  0  0  0  0  0  0  0  0  0
   56.8470   27.3990   46.1230 C   0  0  0  0  0  0  0  0  0  0  0  0
   55.6800   26.6800   45.8780 O   0  0  0  0  0  0  0  0  0  0  0  0
   57.8880   26.8020   46.8380 C   0  0  0  0  0  0  0  0  0  0  0  0
   59.0670   27.5120   47.0970 C   0  0  0  0  0  0  0  0  0  0  0  0
   60.0840   26.8970   47.8210 O   0  0  0  0  0  0  0  0  0  0  0  0
   64.0329   34.9505   46.6984 H   0  0  0  0  0  0  0  0  0  0  0  0
   63.9628   33.4199   45.7609 H   0  0  0  0  0  0  0  0  0  0  0  0
   62.5571   34.5383   45.7609 H   0  0  0  0  0  0  0  0  0  0  0  0
   63.5389   33.2444   49.5202 H   0  0  0  0  0  0  0  0  0  0  0  0
   64.2754   32.1175   48.3310 H   0  0  0  0  0  0  0  0  0  0  0  0
   64.7400   33.8527   48.3310 H   0  0  0  0  0  0  0  0  0  0  0  0
   61.6218   32.3318   46.2053 H   0  0  0  0  0  0  0  0  0  0  0  0
   62.9066   31.3890   47.0745 H   0  0  0  0  0  0  0  0  0  0  0  0
   61.7042   31.8088   49.1526 H   0  0  0  0  0  0  0  0  0  0  0  0
   60.3142   33.5738   48.8633 H   0  0  0  0  0  0  0  0  0  0  0  0
   60.5680   34.7891   46.7400 H   0  0  0  0  0  0  0  0  0  0  0  0
   59.4794   35.4543   44.6002 H   0  0  0  0  0  0  0  0  0  0  0  0
   57.5635   34.1316   43.7038 H   0  0  0  0  0  0  0  0  0  0  0  0
   57.8167   31.4565   47.0924 H   0  0  0  0  0  0  0  0  0  0  0  0
   58.4603   30.7586   52.1395 H   0  0  0  0  0  0  0  0  0  0  0  0
   60.8955   27.2229   51.5633 H   0  0  0  0  0  0  0  0  0  0  0  0
   61.4528   27.9838   49.2503 H   0  0  0  0  0  0  0  0  0  0  0  0
   58.2690   30.4528   45.5321 H   0  0  0  0  0  0  0  0  0  0  0  0
   56.1694   29.1838   45.0933 H   0  0  0  0  0  0  0  0  0  0  0  0
   54.7650   27.1030   45.9800 H   0  0  0  0  0  0  0  0  0  0  0  0
   57.7811   25.7686   47.1996 H   0  0  0  0  0  0  0  0  0  0  0  0
  1  2  1  0
  2  3  1  0
  2  4  1  0
  4  5  1  0
  5  6  1  0
  6  7  1  0
  7  8  2  0
  8  9  1  0
  9 10  2  0
 10 11  1  0
 11 12  1  0
 11 13  2  0
  6 14  1  0
 14 15  1  0
 15 16  2  0
 16 17  1  0
 17 18  1  0
 18 19  3  0
 17 20  2  0
 20 21  1  0
 21 22  2  0
 22 23  1  0
 23 24  1  0
 24 25  2  0
 24 26  1  0
 26 27  2  0
 27 28  1  0
 28 29  2  0
 29 30  1  0
 29 31  1  0
 31 32  2  0
 32 33  1  0
 23  5  1  0
 32 26  1  0
 13  7  1  0
 22 15  1  0
  1 34  1  0
  1 35  1  0
  1 36  1  0
  3 37  1  0
  3 38  1  0
  3 39  1  0
  4 40  1  0
  4 41  1  0
  5 42  1  1
  6 43  1  1
  8 44  1  0
  9 45  1  0
 10 46  1  0
 13 47  1  0
 16 48  1  0
 20 49  1  0
 21 50  1  0
 27 51  1  0
 28 52  1  0
 30 53  1  0
 31 54  1  0
M  CHG  2  12  -1  33  -1
M  END
>  <UniqueID>  (52) 
47

>  <SMILES>  (52) 
CN(C)C[C@H]1[C@@H](c2cccc([O-])c2)Sc2cc(C#N)ccc2N1C(=O)c1ccc(O)cc1[O-]

>  <Energy>  (52) 
85.40965577739165

>  <Genealogy>  (52) 
CN(C)CC1C(c2cccc([O-])c2)Sc2cc(C#N)ccc2N1C(=O)c1ccc(O)cc1[O-] (protonated)
CN(C)C[C@H]1[C@@H](c2cccc([O-])c2)Sc2cc(C#N)ccc2N1C(=O)c1ccc(O)cc1[O-] (chirality)
CN(C)C[C@H]1[C@@H](c2cccc([O-])c2)Sc2cc(C#N)ccc2N1C(=O)c1ccc(O)cc1[O-] (3D coordinates assigned)
CN(C)C[C@H]1[C@@H](c2cccc([O-])c2)Sc2cc(C#N)ccc2N1C(=O)c1ccc(O)cc1[O-] (nonaromatic ring conformer: 85.40965577739165 kcal/mol)

>  <smiles>  (52) 
CN(C)CC1C(c2cccc(O)c2)Sc2cc(C#N)ccc2N1C(=O)c1ccc(O)cc1O

>  <score_type>  (52) 
oracle

>  <origin>  (52) 
adg

>  <m_score__min__energy>  (52) 
-11.220000000000001

>  <m_primary>  (52) 
energy

$$$$
52:0
     RDKit          3D

 32 33  0  0  0  0  0  0  0  0999 V2000
   59.5240   34.3460   48.5270 N   0  0  0  0  0  0  0  0  0  0  0  0
   59.9010   34.2490   46.8430 S   0  0  0  0  0  0  0  0  0  0  0  0
   59.6480   35.5810   46.1930 O   0  0  0  0  0  0  0  0  0  0  0  0
   61.3520   33.8970   46.6730 O   0  0  0  0  0  0  0  0  0  0  0  0
   58.8960   33.0170   46.0890 C   0  0  0  0  0  0  0  0  0  0  0  0
   57.9380   33.3770   45.1310 C   0  0  0  0  0  0  0  0  0  0  0  0
   57.1490   32.3980   44.5220 C   0  0  0  0  0  0  0  0  0  0  0  0
   57.3100   31.0460   44.8630 C   0  0  0  0  0  0  0  0  0  0  0  0
   56.4800   29.9830   44.1950 C   0  0  0  0  0  0  0  0  0  0  0  0
   56.4930   28.7570   44.9910 N   0  0  0  0  0  0  0  0  0  0  0  0
   57.3810   27.6650   44.7060 C   0  0  0  0  0  0  0  0  0  0  0  0
   58.2550   27.7860   43.8050 O   0  0  0  0  0  0  0  0  0  0  0  0
   57.3150   26.4060   45.4830 C   0  0  0  0  0  0  0  0  0  0  0  0
   58.4520   25.5890   45.5770 C   0  0  0  0  0  0  0  0  0  0  0  0
   58.4100   24.4050   46.3140 C   0  0  0  0  0  0  0  0  0  0  0  0
   57.2210   24.0370   46.9450 C   0  0  0  0  0  0  0  0  0  0  0  0
   57.1650   22.9740   47.6190 O   0  0  0  0  0  0  0  0  0  0  0  0
   56.1190   24.8230   46.8310 N   0  0  0  0  0  0  0  0  0  0  0  0
   56.1300   25.9820   46.1190 C   0  0  0  0  0  0  0  0  0  0  0  0
   54.9540   26.7150   46.0080 O   0  0  0  0  0  0  0  0  0  0  0  0
   58.2770   30.6860   45.8140 C   0  0  0  0  0  0  0  0  0  0  0  0
   59.0670   31.6670   46.4230 C   0  0  0  0  0  0  0  0  0  0  0  0
   59.3170   35.3480   48.7350 H   0  0  0  0  0  0  0  0  0  0  0  0
   57.8070   34.4344   44.8577 H   0  0  0  0  0  0  0  0  0  0  0  0
   56.3984   32.6880   43.7720 H   0  0  0  0  0  0  0  0  0  0  0  0
   55.4444   30.3402   44.0950 H   0  0  0  0  0  0  0  0  0  0  0  0
   56.9018   29.7701   43.2016 H   0  0  0  0  0  0  0  0  0  0  0  0
   55.8810   28.7170   45.8360 H   0  0  0  0  0  0  0  0  0  0  0  0
   59.3811   25.8835   45.0671 H   0  0  0  0  0  0  0  0  0  0  0  0
   59.3037   23.7691   46.3967 H   0  0  0  0  0  0  0  0  0  0  0  0
   58.4145   29.6280   46.0818 H   0  0  0  0  0  0  0  0  0  0  0  0
   59.8246   31.3776   47.1662 H   0  0  0  0  0  0  0  0  0  0  0  0
  1  2  1  0
  2  3  2  0
  2  4  2  0
  2  5  1  0
  5  6  2  0
  6  7  1  0
  7  8  2  0
  8  9  1  0
  9 10  1  0
 10 11  1  0
 11 12  2  0
 11 13  1  0
 13 14  1  0
 14 15  2  0
 15 16  1  0
 16 17  2  0
 16 18  1  0
 18 19  1  0
 19 20  1  0
  8 21  1  0
 21 22  2  0
 22  5  1  0
 19 13  2  0
  1 23  1  0
  6 24  1  0
  7 25  1  0
  9 26  1  0
  9 27  1  0
 10 28  1  0
 14 29  1  0
 15 30  1  0
 21 31  1  0
 22 32  1  0
M  CHG  3   1  -1  18  -1  20  -1
M  END
>  <UniqueID>  (53) 
48

>  <SMILES>  (53) 
[NH-]S(=O)(=O)c1ccc(CNC(=O)c2ccc(=O)[n-]c2[O-])cc1

>  <Energy>  (53) 
35.50583397039283

>  <Genealogy>  (53) 
[NH-]S(=O)(=O)c1ccc(CNC(=O)c2ccc(=O)[n-]c2[O-])cc1 (protonated)
[NH-]S(=O)(=O)c1ccc(CNC(=O)c2ccc(=O)[n-]c2[O-])cc1 (3D coordinates assigned)
[NH-]S(=O)(=O)c1ccc(CNC(=O)c2ccc(=O)[n-]c2[O-])cc1 (optimized conformer: 35.50583397039283 kcal/mol)

>  <smiles>  (53) 
NS(=O)(=O)c1ccc(CNC(=O)c2ccc(=O)[nH]c2O)cc1

>  <score_type>  (53) 
oracle

>  <origin>  (53) 
adg

>  <m_score__min__energy>  (53) 
-13.93

>  <m_primary>  (53) 
energy

$$$$
53:0
     RDKit          3D

 40 42  0  0  0  0  0  0  0  0999 V2000
   57.7310   31.6700   42.6960 C   0  0  0  0  0  0  0  0  0  0  0  0
   57.3710   30.3340   43.8140 S   0  0  0  0  0  0  0  0  0  0  0  0
   56.2040   30.7230   44.6760 O   0  0  0  0  0  0  0  0  0  0  0  0
   57.0230   29.1100   43.0120 O   0  0  0  0  0  0  0  0  0  0  0  0
   58.7800   30.0020   44.8160 C   0  0  0  0  0  0  0  0  0  0  0  0
   59.6950   29.0660   44.4960 N   0  0  0  0  0  0  0  0  0  0  0  0
   60.5410   29.0190   45.5100 N   0  0  0  0  0  0  0  0  0  0  0  0
   60.1390   29.9040   46.4390 C   0  0  0  0  0  0  0  0  0  0  0  0
   60.8310   30.0730   47.7650 C   0  0  0  0  0  0  0  0  0  0  0  0
   61.7350   31.2840   47.8160 C   0  0  0  0  0  0  0  0  0  0  0  0
   62.5990   31.4510   48.9090 C   0  0  0  0  0  0  0  0  0  0  0  0
   63.4620   32.5470   48.9510 C   0  0  0  0  0  0  0  0  0  0  0  0
   63.4830   33.4390   47.9270 N   0  0  0  0  0  0  0  0  0  0  0  0
   62.6820   33.2910   46.8390 C   0  0  0  0  0  0  0  0  0  0  0  0
   61.8060   32.2060   46.7550 C   0  0  0  0  0  0  0  0  0  0  0  0
   59.0380   30.5710   46.0200 N   0  0  0  0  0  0  0  0  0  0  0  0
   58.1980   31.5240   46.7590 C   0  0  0  0  0  0  0  0  0  0  0  0
   58.6690   32.9530   46.6070 C   0  0  0  0  0  0  0  0  0  0  0  0
   58.6760   33.5340   45.3250 C   0  0  0  0  0  0  0  0  0  0  0  0
   59.1500   34.8350   45.1350 C   0  0  0  0  0  0  0  0  0  0  0  0
   59.6270   35.5710   46.2200 C   0  0  0  0  0  0  0  0  0  0  0  0
   59.6400   35.0040   47.4960 C   0  0  0  0  0  0  0  0  0  0  0  0
   59.1760   33.6990   47.6970 C   0  0  0  0  0  0  0  0  0  0  0  0
   59.2550   33.0420   49.3280 Cl  0  0  0  0  0  0  0  0  0  0  0  0
   57.9748   32.5747   43.2722 H   0  0  0  0  0  0  0  0  0  0  0  0
   58.5876   31.3970   42.0622 H   0  0  0  0  0  0  0  0  0  0  0  0
   56.8532   31.8644   42.0622 H   0  0  0  0  0  0  0  0  0  0  0  0
   61.3610   28.3740   45.5670 H   0  0  0  0  0  0  0  0  0  0  0  0
   60.0654   30.1752   48.5482 H   0  0  0  0  0  0  0  0  0  0  0  0
   61.4638   29.1864   47.9184 H   0  0  0  0  0  0  0  0  0  0  0  0
   62.5961   30.7198   49.7308 H   0  0  0  0  0  0  0  0  0  0  0  0
   64.1269   32.6888   49.8157 H   0  0  0  0  0  0  0  0  0  0  0  0
   62.7236   34.0272   46.0227 H   0  0  0  0  0  0  0  0  0  0  0  0
   61.1748   32.0729   45.8640 H   0  0  0  0  0  0  0  0  0  0  0  0
   57.1671   31.4508   46.3824 H   0  0  0  0  0  0  0  0  0  0  0  0
   58.2592   31.2645   47.8262 H   0  0  0  0  0  0  0  0  0  0  0  0
   58.3048   32.9585   44.4642 H   0  0  0  0  0  0  0  0  0  0  0  0
   59.1470   35.2792   44.1287 H   0  0  0  0  0  0  0  0  0  0  0  0
   59.9927   36.5976   46.0703 H   0  0  0  0  0  0  0  0  0  0  0  0
   60.0175   35.5870   48.3490 H   0  0  0  0  0  0  0  0  0  0  0  0
  1  2  1  0
  2  3  2  0
  2  4  2  0
  2  5  1  0
  5  6  2  0
  6  7  1  0
  7  8  2  0
  8  9  1  0
  9 10  1  0
 10 11  2  0
 11 12  1  0
 12 13  2  0
 13 14  1  0
 14 15  2  0
  8 16  1  0
 16 17  1  0
 17 18  1  0
 18 19  2  0
 19 20  1  0
 20 21  2  0
 21 22  1  0
 22 23  2  0
 23 24  1  0
 16  5  1  0
 23 18  1  0
 15 10  1  0
  1 25  1  0
  1 26  1  0
  1 27  1  0
  7 28  1  0
  9 29  1  0
  9 30  1  0
 11 31  1  0
 12 32  1  0
 14 33  1  0
 15 34  1  0
 17 35  1  0
 17 36  1  0
 19 37  1  0
 20 38  1  0
 21 39  1  0
 22 40  1  0
M  CHG  1   7   1
M  END
>  <UniqueID>  (54) 
49

>  <SMILES>  (54) 
CS(=O)(=O)c1n[nH+]c(Cc2ccncc2)n1Cc1ccccc1Cl

>  <Energy>  (54) 
73.99516133261872

>  <Genealogy>  (54) 
CS(=O)(=O)c1n[nH+]c(Cc2ccncc2)n1Cc1ccccc1Cl (protonated)
CS(=O)(=O)c1n[nH+]c(Cc2ccncc2)n1Cc1ccccc1Cl (3D coordinates assigned)
CS(=O)(=O)c1n[nH+]c(Cc2ccncc2)n1Cc1ccccc1Cl (optimized conformer: 73.99516133261872 kcal/mol)

>  <smiles>  (54) 
CS(=O)(=O)c1nnc(Cc2ccncc2)n1Cc1ccccc1Cl

>  <score_type>  (54) 
oracle

>  <origin>  (54) 
adg

>  <m_score__min__energy>  (54) 
-6.9000000000000004

>  <m_primary>  (54) 
energy

$$$$
54:0
     RDKit          3D

 47 50  0  0  0  0  0  0  0  0999 V2000
   53.2424   28.8156   53.7170 H   0  0  0  0  0  0  0  0  0  0  0  0
   53.6890   29.4510   52.9380 C   0  0  0  0  0  0  0  0  0  0  0  0
   54.9810   29.5240   52.8330 N   0  0  0  0  0  0  0  0  0  0  0  0
   55.7300   30.7050   52.5060 C   0  0  0  0  0  0  0  0  0  0  0  0
   55.4050   31.3490   51.4720 O   0  0  0  0  0  0  0  0  0  0  0  0
   56.9240   31.1660   53.3040 C   0  0  0  0  0  0  0  0  0  0  0  0
   56.5754   31.7552   54.1650 H   0  0  0  0  0  0  0  0  0  0  0  0
   57.4818   30.2807   53.6432 H   0  0  0  0  0  0  0  0  0  0  0  0
   57.8440   32.0210   52.4590 C   0  0  0  0  0  0  0  0  0  0  0  0
   58.2980   33.2520   52.9700 C   0  0  0  0  0  0  0  0  0  0  0  0
   57.9714   33.5810   53.9676 H   0  0  0  0  0  0  0  0  0  0  0  0
   59.1580   34.0590   52.2240 C   0  0  0  0  0  0  0  0  0  0  0  0
   59.5045   35.0186   52.6352 H   0  0  0  0  0  0  0  0  0  0  0  0
   59.5790   33.6520   50.9590 C   0  0  0  0  0  0  0  0  0  0  0  0
   60.2622   34.2872   50.3761 H   0  0  0  0  0  0  0  0  0  0  0  0
   59.1340   32.4390   50.4320 C   0  0  0  0  0  0  0  0  0  0  0  0
   59.4742   32.1205   49.4356 H   0  0  0  0  0  0  0  0  0  0  0  0
   58.2540   31.6190   51.1630 C   0  0  0  0  0  0  0  0  0  0  0  0
   57.8140   30.3700   50.6010 N   0  0  0  0  0  0  0  0  0  0  0  0
   56.8170   30.0930   50.7340 H   0  0  0  0  0  0  0  0  0  0  0  0
   58.6830   29.4440   49.9240 C   0  0  0  0  0  0  0  0  0  0  0  0
   59.7470   28.8140   50.5980 C   0  0  0  0  0  0  0  0  0  0  0  0
   59.9158   29.0210   51.6651 H   0  0  0  0  0  0  0  0  0  0  0  0
   60.5900   27.9280   49.9220 C   0  0  0  0  0  0  0  0  0  0  0  0
   61.4108   27.4319   50.4607 H   0  0  0  0  0  0  0  0  0  0  0  0
   60.3920   27.6710   48.5620 C   0  0  0  0  0  0  0  0  0  0  0  0
   61.2130   26.8090   47.9040 N   0  0  0  0  0  0  0  0  0  0  0  0
   61.0530   26.5400   46.5800 C   0  0  0  0  0  0  0  0  0  0  0  0
   61.8350   25.7360   46.0070 O   0  0  0  0  0  0  0  0  0  0  0  0
   60.0260   27.1560   45.8580 C   0  0  0  0  0  0  0  0  0  0  0  0
   59.8956   26.9413   44.7871 H   0  0  0  0  0  0  0  0  0  0  0  0
   59.1670   28.0460   46.5070 C   0  0  0  0  0  0  0  0  0  0  0  0
   58.3556   28.5357   45.9487 H   0  0  0  0  0  0  0  0  0  0  0  0
   59.3420   28.3130   47.8710 C   0  0  0  0  0  0  0  0  0  0  0  0
   58.4980   29.2010   48.5540 C   0  0  0  0  0  0  0  0  0  0  0  0
   57.6866   29.7098   48.0130 H   0  0  0  0  0  0  0  0  0  0  0  0
   52.8120   30.2100   52.0250 C   0  0  0  0  0  0  0  0  0  0  0  0
   52.6650   29.7800   50.6950 C   0  0  0  0  0  0  0  0  0  0  0  0
   53.1966   28.8815   50.3483 H   0  0  0  0  0  0  0  0  0  0  0  0
   51.8460   30.4890   49.8100 C   0  0  0  0  0  0  0  0  0  0  0  0
   51.7350   30.1455   48.7709 H   0  0  0  0  0  0  0  0  0  0  0  0
   51.1680   31.6330   50.2420 C   0  0  0  0  0  0  0  0  0  0  0  0
   50.3580   32.3320   49.3560 O   0  0  0  0  0  0  0  0  0  0  0  0
   51.3080   32.0690   51.5640 C   0  0  0  0  0  0  0  0  0  0  0  0
   50.6380   33.2060   51.9990 O   0  0  0  0  0  0  0  0  0  0  0  0
   52.1270   31.3620   52.4530 C   0  0  0  0  0  0  0  0  0  0  0  0
   52.2353   31.7090   53.4912 H   0  0  0  0  0  0  0  0  0  0  0  0
  1  2  1  0
  2  3  2  0
  3  4  1  0
  4  5  2  0
  4  6  1  0
  6  7  1  0
  6  8  1  0
  6  9  1  0
  9 10  2  0
 10 11  1  0
 10 12  1  0
 12 13  1  0
 12 14  2  0
 14 15  1  0
 14 16  1  0
 16 17  1  0
 16 18  2  0
 18 19  1  0
 19 20  1  0
 19 21  1  0
 21 22  2  0
 22 23  1  0
 22 24  1  0
 24 25  1  0
 24 26  2  0
 26 27  1  0
 27 28  1  0
 28 29  2  0
 28 30  1  0
 30 31  1  0
 30 32  2  0
 32 33  1  0
 32 34  1  0
 34 35  2  0
 35 36  1  0
  2 37  1  0
 37 38  2  0
 38 39  1  0
 38 40  1  0
 40 41  1  0
 40 42  2  0
 42 43  1  0
 42 44  1  0
 44 45  1  0
 44 46  2  0
 46 47  1  0
 18  9  1  0
 35 21  1  0
 46 37  1  0
 34 26  1  0
M  CHG  3  27  -1  43  -1  45  -1
M  END
>  <UniqueID>  (55) 
50

>  <SMILES>  (55) 
O=C(Cc1ccccc1Nc1ccc2[n-]c(=O)ccc2c1)/N=C/c1ccc([O-])c([O-])c1

>  <Energy>  (55) 
63.067306232382506

>  <Genealogy>  (55) 
O=C(Cc1ccccc1Nc1ccc2[n-]c(=O)ccc2c1)N=Cc1ccc([O-])c([O-])c1 (protonated)
O=C(Cc1ccccc1Nc1ccc2[n-]c(=O)ccc2c1)/N=C/c1ccc([O-])c([O-])c1 (cis-trans isomerization)
O=C(Cc1ccccc1Nc1ccc2[n-]c(=O)ccc2c1)/N=C/c1ccc([O-])c([O-])c1 (3D coordinates assigned)
O=C(Cc1ccccc1Nc1ccc2[n-]c(=O)ccc2c1)/N=C/c1ccc([O-])c([O-])c1 (optimized conformer: 63.067306232382506 kcal/mol)

>  <smiles>  (55) 
O=C(Cc1ccccc1Nc1ccc2[nH]c(=O)ccc2c1)N=Cc1ccc(O)c(O)c1

>  <score_type>  (55) 
oracle

>  <origin>  (55) 
adg

>  <m_score__min__energy>  (55) 
-18.350000000000001

>  <m_primary>  (55) 
energy

$$$$
55:0
     RDKit          3D

 38 39  0  0  0  0  0  0  0  0999 V2000
   57.3730   25.3970   46.8900 N   0  0  0  0  0  0  0  0  0  0  0  0
   56.8950   26.4070   45.9910 C   0  0  0  0  0  0  0  0  0  0  0  0
   55.5200   26.7890   46.0410 N   0  0  0  0  0  0  0  0  0  0  0  0
   57.6810   26.9940   45.1330 N   0  0  0  0  0  0  0  0  0  0  0  0
   57.3660   28.1670   44.3190 C   0  0  0  0  0  0  0  0  0  0  0  0
   56.6580   29.2210   45.1320 C   0  0  0  0  0  0  0  0  0  0  0  0
   55.5150   29.6150   44.7840 O   0  0  0  0  0  0  0  0  0  0  0  0
   57.2390   29.7700   46.3230 N   0  0  0  0  0  0  0  0  0  0  0  0
   58.3540   30.6720   46.3920 C   0  0  0  0  0  0  0  0  0  0  0  0
   58.1800   32.0550   46.2110 C   0  0  0  0  0  0  0  0  0  0  0  0
   59.2760   32.9210   46.2760 C   0  0  0  0  0  0  0  0  0  0  0  0
   59.0480   34.6440   46.0400 Cl  0  0  0  0  0  0  0  0  0  0  0  0
   60.5520   32.4140   46.5360 C   0  0  0  0  0  0  0  0  0  0  0  0
   60.7300   31.0440   46.7450 C   0  0  0  0  0  0  0  0  0  0  0  0
   59.6340   30.1680   46.6910 C   0  0  0  0  0  0  0  0  0  0  0  0
   59.8280   28.7620   46.9130 N   0  0  0  0  0  0  0  0  0  0  0  0
   60.2900   27.9130   45.8130 C   0  0  0  0  0  0  0  0  0  0  0  0
   61.0350   26.7020   46.3830 C   0  0  0  0  0  0  0  0  0  0  0  0
   60.2450   26.0350   47.3500 O   0  0  0  0  0  0  0  0  0  0  0  0
   60.0300   26.8820   48.4640 C   0  0  0  0  0  0  0  0  0  0  0  0
   59.2040   28.1090   48.0650 C   0  0  0  0  0  0  0  0  0  0  0  0
   56.7150   24.9550   47.5700 H   0  0  0  0  0  0  0  0  0  0  0  0
   58.3610   25.0650   46.8920 H   0  0  0  0  0  0  0  0  0  0  0  0
   55.1490   27.5240   45.3990 H   0  0  0  0  0  0  0  0  0  0  0  0
   54.8680   26.3370   46.7210 H   0  0  0  0  0  0  0  0  0  0  0  0
   58.3006   28.5888   43.9208 H   0  0  0  0  0  0  0  0  0  0  0  0
   56.7015   27.8543   43.5001 H   0  0  0  0  0  0  0  0  0  0  0  0
   57.1753   32.4586   46.0170 H   0  0  0  0  0  0  0  0  0  0  0  0
   61.4162   33.0934   46.5761 H   0  0  0  0  0  0  0  0  0  0  0  0
   61.7353   30.6491   46.9532 H   0  0  0  0  0  0  0  0  0  0  0  0
   59.4251   27.5691   45.2267 H   0  0  0  0  0  0  0  0  0  0  0  0
   60.9666   28.4884   45.1640 H   0  0  0  0  0  0  0  0  0  0  0  0
   61.2687   26.0046   45.5650 H   0  0  0  0  0  0  0  0  0  0  0  0
   61.9603   27.0518   46.8642 H   0  0  0  0  0  0  0  0  0  0  0  0
   59.4913   26.3228   49.2432 H   0  0  0  0  0  0  0  0  0  0  0  0
   61.0058   27.2221   48.8411 H   0  0  0  0  0  0  0  0  0  0  0  0
   58.1838   27.7942   47.8002 H   0  0  0  0  0  0  0  0  0  0  0  0
   59.1622   28.8138   48.9085 H   0  0  0  0  0  0  0  0  0  0  0  0
  1  2  1  0
  2  3  1  0
  2  4  2  3
  4  5  1  0
  5  6  1  0
  6  7  2  0
  6  8  1  0
  8  9  1  0
  9 10  2  0
 10 11  1  0
 11 12  1  0
 11 13  2  0
 13 14  1  0
 14 15  2  0
 15 16  1  0
 16 17  1  0
 17 18  1  0
 18 19  1  0
 19 20  1  0
 20 21  1  0
 15  9  1  0
 21 16  1  0
  1 22  1  0
  1 23  1  0
  3 24  1  0
  3 25  1  0
  5 26  1  0
  5 27  1  0
 10 28  1  0
 13 29  1  0
 14 30  1  0
 17 31  1  0
 17 32  1  0
 18 33  1  0
 18 34  1  0
 20 35  1  0
 20 36  1  0
 21 37  1  0
 21 38  1  0
M  CHG  1   8  -1
M  END
>  <UniqueID>  (56) 
51

>  <SMILES>  (56) 
NC(N)=NCC(=O)[N-]c1cc(Cl)ccc1N1CCOCC1

>  <Energy>  (56) 
45.79379458751366

>  <Genealogy>  (56) 
NC(N)=NCC(=O)[N-]c1cc(Cl)ccc1N1CCOCC1 (protonated)
NC(N)=NCC(=O)[N-]c1cc(Cl)ccc1N1CCOCC1 (3D coordinates assigned)
NC(N)=NCC(=O)[N-]c1cc(Cl)ccc1N1CCOCC1 (nonaromatic ring conformer: 45.79379458751366 kcal/mol)

>  <smiles>  (56) 
NC(N)=NCC(=O)Nc1cc(Cl)ccc1N1CCOCC1

>  <score_type>  (56) 
oracle

>  <origin>  (56) 
adg

>  <m_score__min__energy>  (56) 
-8.3399999999999999

>  <m_primary>  (56) 
energy

$$$$
56:0
     RDKit          3D

 50 53  0  0  0  0  0  0  0  0999 V2000
   55.2810   29.0840   44.8560 O   0  0  0  0  0  0  0  0  0  0  0  0
   56.4540   29.5390   44.9350 C   0  0  0  0  0  0  0  0  0  0  0  0
   56.6910   30.9390   44.7710 N   0  0  0  0  0  0  0  0  0  0  0  0
   58.1400   31.5640   44.0580 S   0  0  0  0  0  0  0  0  0  0  0  0
   57.8200   32.0330   42.6660 O   0  0  0  0  0  0  0  0  0  0  0  0
   59.1610   30.4640   43.9750 O   0  0  0  0  0  0  0  0  0  0  0  0
   58.8040   32.9000   45.0170 C   0  0  0  0  0  0  0  0  0  0  0  0
   58.6960   34.2020   44.5010 C   0  0  0  0  0  0  0  0  0  0  0  0
   59.1610   35.2990   45.2270 C   0  0  0  0  0  0  0  0  0  0  0  0
   59.7400   35.1120   46.4810 C   0  0  0  0  0  0  0  0  0  0  0  0
   59.8660   33.8270   47.0080 C   0  0  0  0  0  0  0  0  0  0  0  0
   59.4160   32.7090   46.2850 C   0  0  0  0  0  0  0  0  0  0  0  0
   59.5900   31.3710   46.8890 C   0  0  0  0  0  0  0  0  0  0  0  0
   60.5710   30.4910   46.4060 C   0  0  0  0  0  0  0  0  0  0  0  0
   60.6980   29.2100   46.9510 C   0  0  0  0  0  0  0  0  0  0  0  0
   59.8660   28.8040   48.0060 C   0  0  0  0  0  0  0  0  0  0  0  0
   59.9480   27.4030   48.5440 C   0  0  0  0  0  0  0  0  0  0  0  0
   60.6580   27.4040   49.8190 N   0  0  0  0  0  0  0  0  0  0  0  0
   61.1140   26.3350   50.4940 C   0  0  0  0  0  0  0  0  0  0  0  0
   61.6390   26.6970   51.6850 N   0  0  0  0  0  0  0  0  0  0  0  0
   61.4710   28.0380   51.6910 C   0  0  0  0  0  0  0  0  0  0  0  0
   60.8730   28.4690   50.5670 N   0  0  0  0  0  0  0  0  0  0  0  0
   58.9020   29.6930   48.5060 C   0  0  0  0  0  0  0  0  0  0  0  0
   58.7720   30.9710   47.9570 C   0  0  0  0  0  0  0  0  0  0  0  0
   57.5540   28.6790   45.2540 N   0  0  0  0  0  0  0  0  0  0  0  0
   57.4430   27.2530   45.3840 C   0  0  0  0  0  0  0  0  0  0  0  0
   57.0220   26.7010   46.6030 C   0  0  0  0  0  0  0  0  0  0  0  0
   56.9280   25.3150   46.7590 C   0  0  0  0  0  0  0  0  0  0  0  0
   57.2660   24.4680   45.7010 C   0  0  0  0  0  0  0  0  0  0  0  0
   57.1770   23.1230   45.8540 F   0  0  0  0  0  0  0  0  0  0  0  0
   57.7040   25.0060   44.4870 C   0  0  0  0  0  0  0  0  0  0  0  0
   57.7990   26.3920   44.3280 C   0  0  0  0  0  0  0  0  0  0  0  0
   58.2393   34.3586   43.5126 H   0  0  0  0  0  0  0  0  0  0  0  0
   59.0706   36.3126   44.8093 H   0  0  0  0  0  0  0  0  0  0  0  0
   60.0980   35.9790   47.0556 H   0  0  0  0  0  0  0  0  0  0  0  0
   60.3220   33.6871   47.9992 H   0  0  0  0  0  0  0  0  0  0  0  0
   61.2425   30.8106   45.5955 H   0  0  0  0  0  0  0  0  0  0  0  0
   61.4532   28.5172   46.5514 H   0  0  0  0  0  0  0  0  0  0  0  0
   58.9319   27.0086   48.6921 H   0  0  0  0  0  0  0  0  0  0  0  0
   60.4904   26.7696   47.8267 H   0  0  0  0  0  0  0  0  0  0  0  0
   61.0660   25.2999   50.1247 H   0  0  0  0  0  0  0  0  0  0  0  0
   61.7851   28.6960   52.5146 H   0  0  0  0  0  0  0  0  0  0  0  0
   60.6090   29.4500   50.3250 H   0  0  0  0  0  0  0  0  0  0  0  0
   58.2466   29.3824   49.3330 H   0  0  0  0  0  0  0  0  0  0  0  0
   58.0244   31.6677   48.3640 H   0  0  0  0  0  0  0  0  0  0  0  0
   58.4510   29.1320   45.5410 H   0  0  0  0  0  0  0  0  0  0  0  0
   56.7640   27.3636   47.4422 H   0  0  0  0  0  0  0  0  0  0  0  0
   56.5877   24.8912   47.7154 H   0  0  0  0  0  0  0  0  0  0  0  0
   57.9742   24.3380   43.6559 H   0  0  0  0  0  0  0  0  0  0  0  0
   58.1531   26.8113   43.3747 H   0  0  0  0  0  0  0  0  0  0  0  0
  1  2  2  0
  2  3  1  0
  3  4  1  0
  4  5  2  0
  4  6  2  0
  4  7  1  0
  7  8  2  0
  8  9  1  0
  9 10  2  0
 10 11  1  0
 11 12  2  0
 12 13  1  0
 13 14  2  0
 14 15  1  0
 15 16  2  0
 16 17  1  0
 17 18  1  0
 18 19  1  0
 19 20  2  0
 20 21  1  0
 21 22  2  0
 16 23  1  0
 23 24  2  0
  2 25  1  0
 25 26  1  0
 26 27  2  0
 27 28  1  0
 28 29  2  0
 29 30  1  0
 29 31  1  0
 31 32  2  0
 12  7  1  0
 24 13  1  0
 32 26  1  0
 22 18  1  0
  8 33  1  0
  9 34  1  0
 10 35  1  0
 11 36  1  0
 14 37  1  0
 15 38  1  0
 17 39  1  0
 17 40  1  0
 19 41  1  0
 21 42  1  0
 22 43  1  0
 23 44  1  0
 24 45  1  0
 25 46  1  0
 27 47  1  0
 28 48  1  0
 31 49  1  0
 32 50  1  0
M  CHG  2   3  -1  22   1
M  END
>  <UniqueID>  (57) 
52

>  <SMILES>  (57) 
O=C([N-]S(=O)(=O)c1ccccc1-c1ccc(Cn2cnc[nH+]2)cc1)Nc1ccc(F)cc1

>  <Energy>  (57) 
95.65099823524271

>  <Genealogy>  (57) 
O=C([N-]S(=O)(=O)c1ccccc1-c1ccc(Cn2cnc[nH+]2)cc1)Nc1ccc(F)cc1 (protonated)
O=C([N-]S(=O)(=O)c1ccccc1-c1ccc(Cn2cnc[nH+]2)cc1)Nc1ccc(F)cc1 (3D coordinates assigned)
O=C([N-]S(=O)(=O)c1ccccc1-c1ccc(Cn2cnc[nH+]2)cc1)Nc1ccc(F)cc1 (optimized conformer: 95.65099823524271 kcal/mol)

>  <smiles>  (57) 
O=C(Nc1ccc(F)cc1)NS(=O)(=O)c1ccccc1-c1ccc(Cn2cncn2)cc1

>  <score_type>  (57) 
oracle

>  <origin>  (57) 
adg

>  <m_score__min__energy>  (57) 
-8.6799999999999997

>  <m_primary>  (57) 
energy

$$$$
57:0
     RDKit          3D

 46 49  0  0  0  0  0  0  0  0999 V2000
   65.0280   36.1290   53.3210 O   0  0  0  0  0  0  0  0  0  0  0  0
   64.5350   35.0550   52.8830 C   0  0  0  0  0  0  0  0  0  0  0  0
   63.3400   34.5960   53.4200 O   0  0  0  0  0  0  0  0  0  0  0  0
   65.2510   34.2710   51.8480 C   0  0  0  0  0  0  0  0  0  0  0  0
   66.6580   34.3440   51.7890 C   0  0  0  0  0  0  0  0  0  0  0  0
   67.3740   33.5460   50.8950 C   0  0  0  0  0  0  0  0  0  0  0  0
   66.7010   32.6590   50.0520 C   0  0  0  0  0  0  0  0  0  0  0  0
   65.3070   32.5840   50.0860 C   0  0  0  0  0  0  0  0  0  0  0  0
   64.5690   33.4010   50.9570 C   0  0  0  0  0  0  0  0  0  0  0  0
   63.1360   33.3340   50.9070 N   0  0  0  0  0  0  0  0  0  0  0  0
   62.3900   33.0990   49.6990 C   0  0  0  0  0  0  0  0  0  0  0  0
   62.3010   31.8020   49.1260 C   0  0  0  0  0  0  0  0  0  0  0  0
   61.5680   31.5890   47.9450 C   0  0  0  0  0  0  0  0  0  0  0  0
   60.9310   32.6860   47.3710 C   0  0  0  0  0  0  0  0  0  0  0  0
   60.1890   32.7110   46.2550 N   0  0  0  0  0  0  0  0  0  0  0  0
   59.8450   34.0210   46.1660 C   0  0  0  0  0  0  0  0  0  0  0  0
   58.7980   34.6560   44.8590 S   0  0  0  0  0  0  0  0  0  0  0  0
   57.3880   33.5410   45.2000 C   0  0  0  0  0  0  0  0  0  0  0  0
   57.4400   32.2780   44.3400 C   0  0  0  0  0  0  0  0  0  0  0  0
   56.7950   31.2030   45.0170 O   0  0  0  0  0  0  0  0  0  0  0  0
   57.3620   29.9350   45.2210 C   0  0  0  0  0  0  0  0  0  0  0  0
   58.7340   29.7570   45.4900 C   0  0  0  0  0  0  0  0  0  0  0  0
   59.2510   28.4720   45.6870 C   0  0  0  0  0  0  0  0  0  0  0  0
   58.4090   27.3600   45.6190 C   0  0  0  0  0  0  0  0  0  0  0  0
   57.0480   27.5270   45.3510 C   0  0  0  0  0  0  0  0  0  0  0  0
   56.5260   28.8090   45.1520 C   0  0  0  0  0  0  0  0  0  0  0  0
   55.1730   28.9650   44.8710 O   0  0  0  0  0  0  0  0  0  0  0  0
   60.3190   34.8030   47.1670 N   0  0  0  0  0  0  0  0  0  0  0  0
   61.0040   33.9260   47.9160 C   0  0  0  0  0  0  0  0  0  0  0  0
   61.7180   34.1780   49.0840 C   0  0  0  0  0  0  0  0  0  0  0  0
   67.1962   35.0360   52.4534 H   0  0  0  0  0  0  0  0  0  0  0  0
   68.4710   33.6160   50.8544 H   0  0  0  0  0  0  0  0  0  0  0  0
   67.2693   32.0191   49.3609 H   0  0  0  0  0  0  0  0  0  0  0  0
   64.7826   31.8786   49.4246 H   0  0  0  0  0  0  0  0  0  0  0  0
   62.6210   33.3050   51.8140 H   0  0  0  0  0  0  0  0  0  0  0  0
   62.8104   30.9562   49.6109 H   0  0  0  0  0  0  0  0  0  0  0  0
   61.5002   30.5898   47.4901 H   0  0  0  0  0  0  0  0  0  0  0  0
   57.4126   33.2505   46.2607 H   0  0  0  0  0  0  0  0  0  0  0  0
   56.4603   34.0804   44.9584 H   0  0  0  0  0  0  0  0  0  0  0  0
   56.9288   32.4662   43.3844 H   0  0  0  0  0  0  0  0  0  0  0  0
   58.4904   32.0100   44.1535 H   0  0  0  0  0  0  0  0  0  0  0  0
   59.4001   30.6307   45.5452 H   0  0  0  0  0  0  0  0  0  0  0  0
   60.3226   28.3374   45.8958 H   0  0  0  0  0  0  0  0  0  0  0  0
   58.8179   26.3511   45.7767 H   0  0  0  0  0  0  0  0  0  0  0  0
   56.3867   26.6496   45.2965 H   0  0  0  0  0  0  0  0  0  0  0  0
   61.7576   35.1890   49.5157 H   0  0  0  0  0  0  0  0  0  0  0  0
  1  2  2  0
  2  3  1  0
  2  4  1  0
  4  5  2  0
  5  6  1  0
  6  7  2  0
  7  8  1  0
  8  9  2  0
  9 10  1  0
 10 11  1  0
 11 12  2  0
 12 13  1  0
 13 14  2  0
 14 15  1  0
 15 16  2  0
 16 17  1  0
 17 18  1  0
 18 19  1  0
 19 20  1  0
 20 21  1  0
 21 22  2  0
 22 23  1  0
 23 24  2  0
 24 25  1  0
 25 26  2  0
 26 27  1  0
 16 28  1  0
 28 29  1  0
 29 30  2  0
  9  4  1  0
 30 11  1  0
 29 14  1  0
 26 21  1  0
  5 31  1  0
  6 32  1  0
  7 33  1  0
  8 34  1  0
 10 35  1  0
 12 36  1  0
 13 37  1  0
 18 38  1  0
 18 39  1  0
 19 40  1  0
 19 41  1  0
 22 42  1  0
 23 43  1  0
 24 44  1  0
 25 45  1  0
 30 46  1  0
M  CHG  3   3  -1  27  -1  28  -1
M  END
>  <UniqueID>  (58) 
53

>  <SMILES>  (58) 
O=C([O-])c1ccccc1Nc1ccc2nc(SCCOc3ccccc3[O-])[n-]c2c1

>  <Energy>  (58) 
89.20196068109264

>  <Genealogy>  (58) 
O=C([O-])c1ccccc1Nc1ccc2nc(SCCOc3ccccc3[O-])[n-]c2c1 (protonated)
O=C([O-])c1ccccc1Nc1ccc2nc(SCCOc3ccccc3[O-])[n-]c2c1 (3D coordinates assigned)
O=C([O-])c1ccccc1Nc1ccc2nc(SCCOc3ccccc3[O-])[n-]c2c1 (optimized conformer: 89.20196068109264 kcal/mol)

>  <smiles>  (58) 
O=C(O)c1ccccc1Nc1ccc2nc(SCCOc3ccccc3O)[nH]c2c1

>  <score_type>  (58) 
oracle

>  <origin>  (58) 
adg

>  <m_score__min__energy>  (58) 
-15

>  <m_primary>  (58) 
energy

$$$$
58:0
     RDKit          3D

 36 37  0  0  0  0  0  0  0  0999 V2000
   54.9040   26.3370   45.9820 O   0  0  0  0  0  0  0  0  0  0  0  0
   56.2640   26.4780   46.1430 C   0  0  0  0  0  0  0  0  0  0  0  0
   57.0150   25.4680   46.7900 C   0  0  0  0  0  0  0  0  0  0  0  0
   58.7890   25.5770   46.3100 S   0  0  0  0  0  0  0  0  0  0  0  0
   59.3760   27.1380   46.9960 C   0  0  0  0  0  0  0  0  0  0  0  0
   59.5190   28.1160   46.0360 N   0  0  0  0  0  0  0  0  0  0  0  0
   59.9450   29.3430   46.4090 C   0  0  0  0  0  0  0  0  0  0  0  0
   60.1060   30.2860   45.6110 O   0  0  0  0  0  0  0  0  0  0  0  0
   60.2360   29.6190   47.7460 C   0  0  0  0  0  0  0  0  0  0  0  0
   60.0630   28.5900   48.6280 C   0  0  0  0  0  0  0  0  0  0  0  0
   59.6390   27.3510   48.2790 N   0  0  0  0  0  0  0  0  0  0  0  0
   56.4540   27.6700   45.5700 N   0  0  0  0  0  0  0  0  0  0  0  0
   56.4590   28.8800   44.9820 C   0  0  0  0  0  0  0  0  0  0  0  0
   55.1540   29.1700   44.8730 O   0  0  0  0  0  0  0  0  0  0  0  0
   57.4520   29.6940   44.5520 N   0  0  0  0  0  0  0  0  0  0  0  0
   57.1870   30.9740   43.9850 C   0  0  0  0  0  0  0  0  0  0  0  0
   57.7790   32.1170   44.7070 C   0  0  0  0  0  0  0  0  0  0  0  0
   57.7680   31.9510   46.1180 C   0  0  0  0  0  0  0  0  0  0  0  0
   58.2790   32.8880   46.9680 C   0  0  0  0  0  0  0  0  0  0  0  0
   58.8200   34.0320   46.4390 C   0  0  0  0  0  0  0  0  0  0  0  0
   58.8410   34.2140   45.0630 C   0  0  0  0  0  0  0  0  0  0  0  0
   58.3190   33.2490   44.1870 C   0  0  0  0  0  0  0  0  0  0  0  0
   56.9263   25.5925   47.8793 H   0  0  0  0  0  0  0  0  0  0  0  0
   56.6242   24.4851   46.4879 H   0  0  0  0  0  0  0  0  0  0  0  0
   60.5852   30.6100   48.0715 H   0  0  0  0  0  0  0  0  0  0  0  0
   60.2819   28.7793   49.6893 H   0  0  0  0  0  0  0  0  0  0  0  0
   59.5030   26.5740   48.9550 H   0  0  0  0  0  0  0  0  0  0  0  0
   55.1600   27.7750   45.4670 H   0  0  0  0  0  0  0  0  0  0  0  0
   58.4010   29.2610   44.6870 H   0  0  0  0  0  0  0  0  0  0  0  0
   57.5813   30.9793   42.9581 H   0  0  0  0  0  0  0  0  0  0  0  0
   56.0969   31.1113   44.0385 H   0  0  0  0  0  0  0  0  0  0  0  0
   57.3317   31.0338   46.5405 H   0  0  0  0  0  0  0  0  0  0  0  0
   58.2575   32.7291   48.0562 H   0  0  0  0  0  0  0  0  0  0  0  0
   59.2363   34.8034   47.1036 H   0  0  0  0  0  0  0  0  0  0  0  0
   59.2767   35.1355   44.6495 H   0  0  0  0  0  0  0  0  0  0  0  0
   58.3470   33.4072   43.0988 H   0  0  0  0  0  0  0  0  0  0  0  0
  1  2  2  0
  2  3  1  0
  3  4  1  0
  4  5  1  0
  5  6  2  0
  6  7  1  0
  7  8  2  0
  7  9  1  0
  9 10  2  0
 10 11  1  0
  2 12  1  0
 12 13  1  0
 13 14  2  0
 13 15  1  0
 15 16  1  0
 16 17  1  0
 17 18  2  0
 18 19  1  0
 19 20  2  0
 20 21  1  0
 21 22  2  0
 11  5  1  0
 22 17  1  0
  3 23  1  0
  3 24  1  0
  9 25  1  0
 10 26  1  0
 11 27  1  0
 12 28  1  0
 15 29  1  0
 16 30  1  0
 16 31  1  0
 18 32  1  0
 19 33  1  0
 20 34  1  0
 21 35  1  0
 22 36  1  0
M  END
>  <smiles>  (59) 
O=C(CSc1nc(=O)cc[nH]1)NC(=O)NCc1ccccc1

>  <score_type>  (59) 
oracle

>  <origin>  (59) 
adg

>  <m_score__min__energy>  (59) 
-7.8399999999999999

>  <m_primary>  (59) 
energy

$$$$
59:0
     RDKit          3D

 68 73  0  0  0  0  0  0  0  0999 V2000
   59.5400   33.9290   55.7150 C   0  0  0  0  0  0  0  0  0  0  0  0
   59.2510   35.0990   54.7830 C   0  0  0  0  0  0  0  0  0  0  0  0
   58.9890   34.6370   53.4600 O   0  0  0  0  0  0  0  0  0  0  0  0
   59.8480   33.7870   52.7530 C   0  0  0  0  0  0  0  0  0  0  0  0
   61.0920   33.8330   52.9550 O   0  0  0  0  0  0  0  0  0  0  0  0
   59.2870   32.8350   51.7710 C   0  0  0  0  0  0  0  0  0  0  0  0
   58.5900   31.6710   52.1260 C   0  0  0  0  0  0  0  0  0  0  0  0
   58.4170   31.1380   53.4440 N   0  0  0  0  0  0  0  0  0  0  0  0
   59.4470   30.5440   54.2430 C   0  0  0  0  0  0  0  0  0  0  0  0
   59.4360   30.7360   55.4880 O   0  0  0  0  0  0  0  0  0  0  0  0
   60.5170   29.6720   53.6430 C   0  0  0  0  0  0  0  0  0  0  0  0
   61.4770   30.4900   52.8850 N   0  0  0  0  0  0  0  0  0  0  0  0
   62.3890   31.2560   53.5820 C   0  0  0  0  0  0  0  0  0  0  0  0
   63.2830   32.0550   52.9280 N   0  0  0  0  0  0  0  0  0  0  0  0
   63.2600   32.0870   51.5750 C   0  0  0  0  0  0  0  0  0  0  0  0
   62.3590   31.3500   50.8550 C   0  0  0  0  0  0  0  0  0  0  0  0
   61.4410   30.5380   51.5090 C   0  0  0  0  0  0  0  0  0  0  0  0
   60.5940   29.8730   50.8530 O   0  0  0  0  0  0  0  0  0  0  0  0
   62.5970   31.6470   49.5270 C   0  0  0  0  0  0  0  0  0  0  0  0
   61.9860   31.2150   48.3500 C   0  0  0  0  0  0  0  0  0  0  0  0
   62.4630   31.7360   47.1350 C   0  0  0  0  0  0  0  0  0  0  0  0
   63.5230   32.6690   47.1210 C   0  0  0  0  0  0  0  0  0  0  0  0
   64.1220   33.0920   48.3210 C   0  0  0  0  0  0  0  0  0  0  0  0
   63.6400   32.5570   49.5190 C   0  0  0  0  0  0  0  0  0  0  0  0
   64.0630   32.8270   50.7780 N   0  0  0  0  0  0  0  0  0  0  0  0
   65.0860   33.7860   51.1900 C   0  0  0  0  0  0  0  0  0  0  0  0
   57.9270   30.9550   50.7560 S   0  0  0  0  0  0  0  0  0  0  0  0
   58.5340   32.0970   49.6860 C   0  0  0  0  0  0  0  0  0  0  0  0
   59.2810   33.0450   50.3740 C   0  0  0  0  0  0  0  0  0  0  0  0
   59.8530   34.2390   49.6510 C   0  0  0  0  0  0  0  0  0  0  0  0
   59.8490   34.0250   48.1260 C   0  0  0  0  0  0  0  0  0  0  0  0
   58.5550   33.4700   47.6820 N   0  0  0  0  0  0  0  0  0  0  0  0
   58.4750   33.4610   45.9380 S   0  0  0  0  0  0  0  0  0  0  0  0
   59.6960   34.1430   45.3850 O   0  0  0  0  0  0  0  0  0  0  0  0
   57.2670   34.2310   45.4800 O   0  0  0  0  0  0  0  0  0  0  0  0
   58.3880   31.8160   45.3020 C   0  0  0  0  0  0  0  0  0  0  0  0
   57.3260   31.4360   44.4700 C   0  0  0  0  0  0  0  0  0  0  0  0
   57.2460   30.1270   43.9850 C   0  0  0  0  0  0  0  0  0  0  0  0
   58.2310   29.1930   44.3240 C   0  0  0  0  0  0  0  0  0  0  0  0
   58.1270   27.5520   43.7170 Cl  0  0  0  0  0  0  0  0  0  0  0  0
   59.2940   29.5690   45.1520 C   0  0  0  0  0  0  0  0  0  0  0  0
   59.3740   30.8770   45.6400 C   0  0  0  0  0  0  0  0  0  0  0  0
   58.3680   32.1010   48.2010 C   0  0  0  0  0  0  0  0  0  0  0  0
   59.4574   34.2633   56.7597 H   0  0  0  0  0  0  0  0  0  0  0  0
   58.8137   33.1241   55.5291 H   0  0  0  0  0  0  0  0  0  0  0  0
   60.5576   33.5548   55.5291 H   0  0  0  0  0  0  0  0  0  0  0  0
   58.3730   35.6479   55.1542 H   0  0  0  0  0  0  0  0  0  0  0  0
   60.1314   35.7580   54.7594 H   0  0  0  0  0  0  0  0  0  0  0  0
   61.0476   29.1427   54.4482 H   0  0  0  0  0  0  0  0  0  0  0  0
   60.0476   28.9475   52.9612 H   0  0  0  0  0  0  0  0  0  0  0  0
   62.3961   31.2226   54.6815 H   0  0  0  0  0  0  0  0  0  0  0  0
   61.1584   30.4907   48.3719 H   0  0  0  0  0  0  0  0  0  0  0  0
   62.0069   31.4144   46.1871 H   0  0  0  0  0  0  0  0  0  0  0  0
   63.8838   33.0689   46.1619 H   0  0  0  0  0  0  0  0  0  0  0  0
   64.9450   33.8218   48.3170 H   0  0  0  0  0  0  0  0  0  0  0  0
   65.1294   33.8266   52.2884 H   0  0  0  0  0  0  0  0  0  0  0  0
   66.0636   33.4713   50.7958 H   0  0  0  0  0  0  0  0  0  0  0  0
   64.8350   34.7818   50.7958 H   0  0  0  0  0  0  0  0  0  0  0  0
   59.2480   35.1261   49.8899 H   0  0  0  0  0  0  0  0  0  0  0  0
   60.8937   34.3776   49.9792 H   0  0  0  0  0  0  0  0  0  0  0  0
   60.0195   34.9895   47.6253 H   0  0  0  0  0  0  0  0  0  0  0  0
   60.6474   33.3145   47.8658 H   0  0  0  0  0  0  0  0  0  0  0  0
   56.5531   32.1698   44.1977 H   0  0  0  0  0  0  0  0  0  0  0  0
   56.4081   29.8314   43.3365 H   0  0  0  0  0  0  0  0  0  0  0  0
   60.0681   28.8347   45.4196 H   0  0  0  0  0  0  0  0  0  0  0  0
   60.2115   31.1702   46.2901 H   0  0  0  0  0  0  0  0  0  0  0  0
   57.3580   31.7480   47.9452 H   0  0  0  0  0  0  0  0  0  0  0  0
   59.1181   31.4351   47.7493 H   0  0  0  0  0  0  0  0  0  0  0  0
  1  2  1  0
  2  3  1  0
  3  4  1  0
  4  5  2  0
  4  6  1  0
  6  7  2  0
  7  8  1  0
  8  9  1  0
  9 10  2  0
  9 11  1  0
 11 12  1  0
 12 13  1  0
 13 14  2  0
 14 15  1  0
 15 16  2  0
 16 17  1  0
 17 18  2  0
 16 19  1  0
 19 20  2  0
 20 21  1  0
 21 22  2  0
 22 23  1  0
 23 24  2  0
 24 25  1  0
 25 26  1  0
  7 27  1  0
 27 28  1  0
 28 29  2  0
 29 30  1  0
 30 31  1  0
 31 32  1  0
 32 33  1  0
 33 34  2  0
 33 35  2  0
 33 36  1  0
 36 37  2  0
 37 38  1  0
 38 39  2  0
 39 40  1  0
 39 41  1  0
 41 42  2  0
 32 43  1  0
 29  6  1  0
 42 36  1  0
 17 12  1  0
 24 19  1  0
 43 28  1  0
 25 15  1  0
  1 44  1  0
  1 45  1  0
  1 46  1  0
  2 47  1  0
  2 48  1  0
 11 49  1  0
 11 50  1  0
 13 51  1  0
 20 52  1  0
 21 53  1  0
 22 54  1  0
 23 55  1  0
 26 56  1  0
 26 57  1  0
 26 58  1  0
 30 59  1  0
 30 60  1  0
 31 61  1  0
 31 62  1  0
 37 63  1  0
 38 64  1  0
 41 65  1  0
 42 66  1  0
 43 67  1  0
 43 68  1  0
M  CHG  1   8  -1
M  END
>  <UniqueID>  (60) 
54

>  <SMILES>  (60) 
CCOC(=O)c1c([N-]C(=O)Cn2cnc3c(c2=O)c2ccccc2n3C)sc2c1CCN(S(=O)(=O)c1ccc(Cl)cc1)C2

>  <Energy>  (60) 
153.01824338201752

>  <Genealogy>  (60) 
CCOC(=O)c1c([N-]C(=O)Cn2cnc3c(c2=O)c2ccccc2n3C)sc2c1CCN(S(=O)(=O)c1ccc(Cl)cc1)C2 (protonated)
CCOC(=O)c1c([N-]C(=O)Cn2cnc3c(c2=O)c2ccccc2n3C)sc2c1CCN(S(=O)(=O)c1ccc(Cl)cc1)C2 (3D coordinates assigned)
CCOC(=O)c1c([N-]C(=O)Cn2cnc3c(c2=O)c2ccccc2n3C)sc2c1CCN(S(=O)(=O)c1ccc(Cl)cc1)C2 (nonaromatic ring conformer: 153.01824338201752 kcal/mol)

>  <smiles>  (60) 
CCOC(=O)c1c(NC(=O)Cn2cnc3c(c2=O)c2ccccc2n3C)sc2c1CCN(S(=O)(=O)c1ccc(Cl)cc1)C2

>  <score_type>  (60) 
oracle

>  <origin>  (60) 
adg

>  <m_score__min__energy>  (60) 
-10.220000000000001

>  <m_primary>  (60) 
energy

$$$$
60:0
     RDKit          3D

 54 58  0  0  0  0  0  0  0  0999 V2000
   53.7790   25.0490   45.6130 N   0  0  0  0  0  0  0  0  0  0  0  0
   55.4650   25.3750   45.8200 S   0  0  0  0  0  0  0  0  0  0  0  0
   56.2330   24.7060   44.7150 O   0  0  0  0  0  0  0  0  0  0  0  0
   55.9330   24.8340   47.1410 O   0  0  0  0  0  0  0  0  0  0  0  0
   55.7450   27.0850   45.7500 N   0  0  0  0  0  0  0  0  0  0  0  0
   56.9220   27.7050   45.2160 C   0  0  0  0  0  0  0  0  0  0  0  0
   57.7490   27.0660   44.2770 C   0  0  0  0  0  0  0  0  0  0  0  0
   58.8510   27.7000   43.7950 N   0  0  0  0  0  0  0  0  0  0  0  0
   59.1930   28.9510   44.2000 C   0  0  0  0  0  0  0  0  0  0  0  0
   58.4080   29.6240   45.1460 C   0  0  0  0  0  0  0  0  0  0  0  0
   58.7700   30.9890   45.5820 C   0  0  0  0  0  0  0  0  0  0  0  0
   58.1240   32.0720   44.9670 C   0  0  0  0  0  0  0  0  0  0  0  0
   58.4280   33.3800   45.3360 C   0  0  0  0  0  0  0  0  0  0  0  0
   59.3760   33.6240   46.3260 C   0  0  0  0  0  0  0  0  0  0  0  0
   60.0390   32.5620   46.9570 C   0  0  0  0  0  0  0  0  0  0  0  0
   60.9960   32.8600   47.9820 N   0  0  0  0  0  0  0  0  0  0  0  0
   62.3540   33.3980   47.7430 C   0  0  0  0  0  0  0  0  0  0  0  0
   62.7860   33.7260   49.1340 C   0  0  0  0  0  0  0  0  0  0  0  0
   63.9030   34.2010   49.7060 N   0  0  0  0  0  0  0  0  0  0  0  0
   63.5260   34.1920   51.0220 C   0  0  0  0  0  0  0  0  0  0  0  0
   64.4370   34.6150   52.1290 C   0  0  0  0  0  0  0  0  0  0  0  0
   65.8600   34.2880   51.7750 C   0  0  0  0  0  0  0  0  0  0  0  0
   66.1830   33.0450   51.2010 C   0  0  0  0  0  0  0  0  0  0  0  0
   67.5050   32.7560   50.8430 C   0  0  0  0  0  0  0  0  0  0  0  0
   68.5100   33.7080   51.0420 C   0  0  0  0  0  0  0  0  0  0  0  0
   68.1940   34.9510   51.5970 C   0  0  0  0  0  0  0  0  0  0  0  0
   66.8740   35.2430   51.9600 C   0  0  0  0  0  0  0  0  0  0  0  0
   62.2910   33.7370   51.2310 O   0  0  0  0  0  0  0  0  0  0  0  0
   61.8630   33.4570   50.0370 C   0  0  0  0  0  0  0  0  0  0  0  0
   60.7060   32.9250   49.3860 C   0  0  0  0  0  0  0  0  0  0  0  0
   59.6220   32.5780   49.9270 O   0  0  0  0  0  0  0  0  0  0  0  0
   59.7540   31.2260   46.5790 C   0  0  0  0  0  0  0  0  0  0  0  0
   60.5500   30.0700   47.1610 C   0  0  0  0  0  0  0  0  0  0  0  0
   60.1600   29.8250   48.4850 O   0  0  0  0  0  0  0  0  0  0  0  0
   57.2600   28.9930   45.6410 C   0  0  0  0  0  0  0  0  0  0  0  0
   53.5080   24.3620   46.3510 H   0  0  0  0  0  0  0  0  0  0  0  0
   57.5045   26.0508   43.9311 H   0  0  0  0  0  0  0  0  0  0  0  0
   60.0882   29.4367   43.7844 H   0  0  0  0  0  0  0  0  0  0  0  0
   57.3711   31.8864   44.1868 H   0  0  0  0  0  0  0  0  0  0  0  0
   57.9183   34.2218   44.8445 H   0  0  0  0  0  0  0  0  0  0  0  0
   59.6070   34.6597   46.6158 H   0  0  0  0  0  0  0  0  0  0  0  0
   63.0110   32.6444   47.2842 H   0  0  0  0  0  0  0  0  0  0  0  0
   62.3858   34.2501   47.0480 H   0  0  0  0  0  0  0  0  0  0  0  0
   64.3405   35.6994   52.2863 H   0  0  0  0  0  0  0  0  0  0  0  0
   64.1610   34.0792   53.0492 H   0  0  0  0  0  0  0  0  0  0  0  0
   65.3938   32.2974   51.0329 H   0  0  0  0  0  0  0  0  0  0  0  0
   67.7538   31.7784   50.4044 H   0  0  0  0  0  0  0  0  0  0  0  0
   69.5487   33.4785   50.7618 H   0  0  0  0  0  0  0  0  0  0  0  0
   68.9840   35.7013   51.7489 H   0  0  0  0  0  0  0  0  0  0  0  0
   66.6294   36.2246   52.3921 H   0  0  0  0  0  0  0  0  0  0  0  0
   60.3719   29.1675   46.5579 H   0  0  0  0  0  0  0  0  0  0  0  0
   61.6188   30.3299   47.1464 H   0  0  0  0  0  0  0  0  0  0  0  0
   59.9580   30.7100   48.8870 H   0  0  0  0  0  0  0  0  0  0  0  0
   56.6204   29.5141   46.3686 H   0  0  0  0  0  0  0  0  0  0  0  0
  1  2  1  0
  2  3  2  0
  2  4  2  0
  2  5  1  0
  5  6  1  0
  6  7  2  0
  7  8  1  0
  8  9  2  0
  9 10  1  0
 10 11  1  0
 11 12  2  0
 12 13  1  0
 13 14  2  0
 14 15  1  0
 15 16  1  0
 16 17  1  0
 17 18  1  0
 18 19  1  0
 19 20  2  0
 20 21  1  0
 21 22  1  0
 22 23  2  0
 23 24  1  0
 24 25  2  0
 25 26  1  0
 26 27  2  0
 20 28  1  0
 28 29  1  0
 29 30  1  0
 30 31  2  0
 15 32  2  0
 32 33  1  0
 33 34  1  0
 10 35  2  0
 35  6  1  0
 32 11  1  0
 30 16  1  0
 29 18  2  0
 27 22  1  0
  1 36  1  0
  7 37  1  0
  9 38  1  0
 12 39  1  0
 13 40  1  0
 14 41  1  0
 17 42  1  0
 17 43  1  0
 21 44  1  0
 21 45  1  0
 23 46  1  0
 24 47  1  0
 25 48  1  0
 26 49  1  0
 27 50  1  0
 33 51  1  0
 33 52  1  0
 34 53  1  0
 35 54  1  0
M  CHG  2   1  -1   5  -1
M  END
>  <UniqueID>  (61) 
55

>  <SMILES>  (61) 
[NH-]S(=O)(=O)[N-]c1cncc(-c2cccc(N3Cc4nc(Cc5ccccc5)oc4C3=O)c2CO)c1

>  <Energy>  (61) 
149.32722082718016

>  <Genealogy>  (61) 
[NH-]S(=O)(=O)[N-]c1cncc(-c2cccc(N3Cc4nc(Cc5ccccc5)oc4C3=O)c2CO)c1 (protonated)
[NH-]S(=O)(=O)[N-]c1cncc(-c2cccc(N3Cc4nc(Cc5ccccc5)oc4C3=O)c2CO)c1 (3D coordinates assigned)
[NH-]S(=O)(=O)[N-]c1cncc(-c2cccc(N3Cc4nc(Cc5ccccc5)oc4C3=O)c2CO)c1 (nonaromatic ring conformer: 149.32722082718016 kcal/mol)

>  <smiles>  (61) 
NS(=O)(=O)Nc1cncc(-c2cccc(N3Cc4nc(Cc5ccccc5)oc4C3=O)c2CO)c1

>  <score_type>  (61) 
oracle

>  <origin>  (61) 
adg

>  <m_score__min__energy>  (61) 
-14.35

>  <m_primary>  (61) 
energy

$$$$
61:0
     RDKit          3D

 29 30  0  0  0  0  0  0  0  0999 V2000
   56.0600   30.4600   44.7120 N   0  0  0  0  0  0  0  0  0  0  0  0
   56.6480   29.6490   44.1330 C   0  0  0  0  0  0  0  0  0  0  0  0
   57.3930   28.6200   43.4000 C   0  0  0  0  0  0  0  0  0  0  0  0
   58.1240   27.7680   44.3320 N   0  0  0  0  0  0  0  0  0  0  0  0
   59.3710   28.1630   44.9230 C   0  0  0  0  0  0  0  0  0  0  0  0
   59.9150   29.2520   44.5930 O   0  0  0  0  0  0  0  0  0  0  0  0
   60.0140   27.3100   45.9730 C   0  0  0  0  0  0  0  0  0  0  0  0
   58.8670   27.0210   47.3640 S   0  0  0  0  0  0  0  0  0  0  0  0
   57.7240   26.0270   46.4090 C   0  0  0  0  0  0  0  0  0  0  0  0
   56.3960   26.3500   46.3880 N   0  0  0  0  0  0  0  0  0  0  0  0
   55.5100   25.6250   45.6510 C   0  0  0  0  0  0  0  0  0  0  0  0
   54.2910   25.9390   45.6380 O   0  0  0  0  0  0  0  0  0  0  0  0
   55.9800   24.5390   44.9150 C   0  0  0  0  0  0  0  0  0  0  0  0
   57.3090   24.2290   44.9550 C   0  0  0  0  0  0  0  0  0  0  0  0
   58.1820   24.9610   45.6920 N   0  0  0  0  0  0  0  0  0  0  0  0
   57.6480   23.0590   44.1230 C   0  0  0  0  0  0  0  0  0  0  0  0
   56.2930   22.6370   43.5170 C   0  0  0  0  0  0  0  0  0  0  0  0
   55.2190   23.6140   44.0440 C   0  0  0  0  0  0  0  0  0  0  0  0
   56.6888   28.0047   42.8208 H   0  0  0  0  0  0  0  0  0  0  0  0
   58.1090   29.1087   42.7229 H   0  0  0  0  0  0  0  0  0  0  0  0
   57.6780   26.8740   44.6410 H   0  0  0  0  0  0  0  0  0  0  0  0
   60.2949   26.3431   45.5301 H   0  0  0  0  0  0  0  0  0  0  0  0
   60.9057   27.8301   46.3530 H   0  0  0  0  0  0  0  0  0  0  0  0
   58.3628   23.3331   43.3331 H   0  0  0  0  0  0  0  0  0  0  0  0
   58.1284   22.2526   44.6965 H   0  0  0  0  0  0  0  0  0  0  0  0
   56.3409   22.6893   42.4193 H   0  0  0  0  0  0  0  0  0  0  0  0
   56.0478   21.6036   43.8032 H   0  0  0  0  0  0  0  0  0  0  0  0
   54.7437   24.1584   43.2147 H   0  0  0  0  0  0  0  0  0  0  0  0
   54.4032   23.1028   44.5762 H   0  0  0  0  0  0  0  0  0  0  0  0
  1  2  3  0
  2  3  1  0
  3  4  1  0
  4  5  1  0
  5  6  2  0
  5  7  1  0
  7  8  1  0
  8  9  1  0
  9 10  2  0
 10 11  1  0
 11 12  2  0
 11 13  1  0
 13 14  2  0
 14 15  1  0
 14 16  1  0
 16 17  1  0
 17 18  1  0
 15  9  1  0
 18 13  1  0
  3 19  1  0
  3 20  1  0
  4 21  1  0
  7 22  1  0
  7 23  1  0
 16 24  1  0
 16 25  1  0
 17 26  1  0
 17 27  1  0
 18 28  1  0
 18 29  1  0
M  CHG  1  15  -1
M  END
>  <UniqueID>  (62) 
56

>  <SMILES>  (62) 
N#CCNC(=O)CSc1nc(=O)c2c([n-]1)CCC2

>  <Energy>  (62) 
28.557355417191573

>  <Genealogy>  (62) 
N#CCNC(=O)CSc1nc(=O)c2c([n-]1)CCC2 (protonated)
N#CCNC(=O)CSc1nc(=O)c2c([n-]1)CCC2 (3D coordinates assigned)
N#CCNC(=O)CSc1nc(=O)c2c([n-]1)CCC2 (nonaromatic ring conformer: 28.557355417191573 kcal/mol)

>  <smiles>  (62) 
N#CCNC(=O)CSc1nc(=O)c2c([nH]1)CCC2

>  <score_type>  (62) 
oracle

>  <origin>  (62) 
adg

>  <m_score__min__energy>  (62) 
-7.7699999999999996

>  <m_primary>  (62) 
energy

$$$$
62:0
     RDKit          3D

 28 29  0  0  0  0  0  0  0  0999 V2000
   55.1440   29.3450   44.6220 N   0  0  0  0  0  0  0  0  0  0  0  0
   56.8330   29.7120   44.6510 S   0  0  0  0  0  0  0  0  0  0  0  0
   57.3990   29.5940   43.2650 O   0  0  0  0  0  0  0  0  0  0  0  0
   57.0130   31.1190   45.1470 O   0  0  0  0  0  0  0  0  0  0  0  0
   57.6650   28.5870   45.7200 C   0  0  0  0  0  0  0  0  0  0  0  0
   58.8130   28.9900   46.4150 C   0  0  0  0  0  0  0  0  0  0  0  0
   59.4820   28.0880   47.2460 C   0  0  0  0  0  0  0  0  0  0  0  0
   59.0070   26.7820   47.3920 C   0  0  0  0  0  0  0  0  0  0  0  0
   57.8460   26.3720   46.7120 C   0  0  0  0  0  0  0  0  0  0  0  0
   57.3390   25.0330   46.8100 N   0  0  0  0  0  0  0  0  0  0  0  0
   56.2800   24.4590   46.0300 C   0  0  0  0  0  0  0  0  0  0  0  0
   55.1060   24.9060   46.1450 O   0  0  0  0  0  0  0  0  0  0  0  0
   56.5630   23.3790   45.0450 C   0  0  0  0  0  0  0  0  0  0  0  0
   57.8560   22.8240   44.9740 C   0  0  0  0  0  0  0  0  0  0  0  0
   58.1430   21.8110   44.0590 C   0  0  0  0  0  0  0  0  0  0  0  0
   57.1390   21.3510   43.2120 C   0  0  0  0  0  0  0  0  0  0  0  0
   55.8930   21.8880   43.2810 N   0  0  0  0  0  0  0  0  0  0  0  0
   55.5790   22.8770   44.1600 C   0  0  0  0  0  0  0  0  0  0  0  0
   54.4040   23.3320   44.1650 O   0  0  0  0  0  0  0  0  0  0  0  0
   57.1950   27.2750   45.8610 C   0  0  0  0  0  0  0  0  0  0  0  0
   54.8110   29.3650   45.6120 H   0  0  0  0  0  0  0  0  0  0  0  0
   59.1881   30.0183   46.3061 H   0  0  0  0  0  0  0  0  0  0  0  0
   60.3852   28.4068   47.7869 H   0  0  0  0  0  0  0  0  0  0  0  0
   59.5424   26.0728   48.0403 H   0  0  0  0  0  0  0  0  0  0  0  0
   58.6455   23.1925   45.6455 H   0  0  0  0  0  0  0  0  0  0  0  0
   59.1536   21.3797   44.0073 H   0  0  0  0  0  0  0  0  0  0  0  0
   57.3544   20.5526   42.4867 H   0  0  0  0  0  0  0  0  0  0  0  0
   56.3070   26.9507   45.2987 H   0  0  0  0  0  0  0  0  0  0  0  0
  1  2  1  0
  2  3  2  0
  2  4  2  0
  2  5  1  0
  5  6  2  0
  6  7  1  0
  7  8  2  0
  8  9  1  0
  9 10  1  0
 10 11  1  0
 11 12  2  0
 11 13  1  0
 13 14  2  0
 14 15  1  0
 15 16  2  0
 16 17  1  0
 17 18  1  0
 18 19  2  0
  9 20  2  0
 20  5  1  0
 18 13  1  0
  1 21  1  0
  6 22  1  0
  7 23  1  0
  8 24  1  0
 14 25  1  0
 15 26  1  0
 16 27  1  0
 20 28  1  0
M  CHG  3   1  -1  10  -1  17  -1
M  END
>  <UniqueID>  (63) 
57

>  <SMILES>  (63) 
[NH-]S(=O)(=O)c1cccc([N-]C(=O)c2ccc[n-]c2=O)c1

>  <Energy>  (63) 
36.06593645138895

>  <Genealogy>  (63) 
[NH-]S(=O)(=O)c1cccc([N-]C(=O)c2ccc[n-]c2=O)c1 (protonated)
[NH-]S(=O)(=O)c1cccc([N-]C(=O)c2ccc[n-]c2=O)c1 (3D coordinates assigned)
[NH-]S(=O)(=O)c1cccc([N-]C(=O)c2ccc[n-]c2=O)c1 (optimized conformer: 36.06593645138895 kcal/mol)

>  <smiles>  (63) 
NS(=O)(=O)c1cccc(NC(=O)c2ccc[nH]c2=O)c1

>  <score_type>  (63) 
oracle

>  <origin>  (63) 
adg

>  <m_score__min__energy>  (63) 
-13.49

>  <m_primary>  (63) 
energy

$$$$
63:0
     RDKit          3D

 52 54  0  0  0  0  0  0  0  0999 V2000
   60.1762   35.8409   45.1933 H   0  0  0  0  0  0  0  0  0  0  0  0
   59.6520   35.0610   45.7650 C   0  0  0  0  0  0  0  0  0  0  0  0
   58.6850   34.3150   45.1670 N   0  0  0  0  0  0  0  0  0  0  0  0
   58.0180   33.3290   45.8330 C   0  0  0  0  0  0  0  0  0  0  0  0
   56.9780   32.6150   45.1500 N   0  0  0  0  0  0  0  0  0  0  0  0
   57.0140   31.3660   44.7760 C   0  0  0  0  0  0  0  0  0  0  0  0
   55.9080   30.5880   44.7800 N   0  0  0  0  0  0  0  0  0  0  0  0
   56.1740   29.3360   44.3190 C   0  0  0  0  0  0  0  0  0  0  0  0
   55.4060   28.5511   44.2545 H   0  0  0  0  0  0  0  0  0  0  0  0
   57.4940   29.1280   43.9360 C   0  0  0  0  0  0  0  0  0  0  0  0
   58.1700   27.6040   43.2850 S   0  0  0  0  0  0  0  0  0  0  0  0
   58.2890   26.8600   44.9130 C   0  0  0  0  0  0  0  0  0  0  0  0
   59.2970   27.2660   45.7950 C   0  0  0  0  0  0  0  0  0  0  0  0
   60.0157   28.0405   45.4892 H   0  0  0  0  0  0  0  0  0  0  0  0
   59.3910   26.6880   47.0640 C   0  0  0  0  0  0  0  0  0  0  0  0
   60.1735   27.0198   47.7623 H   0  0  0  0  0  0  0  0  0  0  0  0
   58.4910   25.6880   47.4470 C   0  0  0  0  0  0  0  0  0  0  0  0
   58.5674   25.2363   48.4471 H   0  0  0  0  0  0  0  0  0  0  0  0
   57.4900   25.2580   46.5600 C   0  0  0  0  0  0  0  0  0  0  0  0
   56.5610   24.1860   46.9700 C   0  0  0  0  0  0  0  0  0  0  0  0
   57.0100   23.2050   47.6170 O   0  0  0  0  0  0  0  0  0  0  0  0
   55.1690   24.1960   46.6210 N   0  0  0  0  0  0  0  0  0  0  0  0
   54.5260   23.3880   45.5840 C   0  0  0  0  0  0  0  0  0  0  0  0
   53.5757   23.8612   45.2959 H   0  0  0  0  0  0  0  0  0  0  0  0
   54.3463   22.3794   45.9845 H   0  0  0  0  0  0  0  0  0  0  0  0
   55.4320   23.2710   44.3370 C   0  0  0  0  0  0  0  0  0  0  0  0
   56.2733   23.9694   44.4570 H   0  0  0  0  0  0  0  0  0  0  0  0
   54.7993   23.5044   43.4680 H   0  0  0  0  0  0  0  0  0  0  0  0
   55.9860   21.9140   44.1030 N   0  0  0  0  0  0  0  0  0  0  0  0
   57.2590   21.8520   43.3490 C   0  0  0  0  0  0  0  0  0  0  0  0
   57.2260   22.5784   42.5237 H   0  0  0  0  0  0  0  0  0  0  0  0
   57.3881   20.8333   42.9546 H   0  0  0  0  0  0  0  0  0  0  0  0
   58.4420   22.1810   44.2610 C   0  0  0  0  0  0  0  0  0  0  0  0
   58.1298   22.0942   45.3122 H   0  0  0  0  0  0  0  0  0  0  0  0
   59.2641   21.4774   44.0633 H   0  0  0  0  0  0  0  0  0  0  0  0
   58.7828   23.2080   44.0633 H   0  0  0  0  0  0  0  0  0  0  0  0
   55.8430   20.9370   45.2130 C   0  0  0  0  0  0  0  0  0  0  0  0
   56.6581   21.1102   45.9310 H   0  0  0  0  0  0  0  0  0  0  0  0
   54.8462   21.1002   45.6487 H   0  0  0  0  0  0  0  0  0  0  0  0
   55.8940   19.4710   44.7750 C   0  0  0  0  0  0  0  0  0  0  0  0
   55.9165   18.8233   45.6638 H   0  0  0  0  0  0  0  0  0  0  0  0
   55.0035   19.2369   44.1732 H   0  0  0  0  0  0  0  0  0  0  0  0
   56.7987   19.2994   44.1732 H   0  0  0  0  0  0  0  0  0  0  0  0
   57.3820   25.8660   45.2990 C   0  0  0  0  0  0  0  0  0  0  0  0
   56.5805   25.5596   44.6108 H   0  0  0  0  0  0  0  0  0  0  0  0
   58.3670   30.5420   44.1740 S   0  0  0  0  0  0  0  0  0  0  0  0
   58.3000   33.1000   47.1930 C   0  0  0  0  0  0  0  0  0  0  0  0
   57.7433   32.3348   47.7539 H   0  0  0  0  0  0  0  0  0  0  0  0
   59.2930   33.8530   47.8240 C   0  0  0  0  0  0  0  0  0  0  0  0
   59.5336   33.6724   48.8821 H   0  0  0  0  0  0  0  0  0  0  0  0
   59.9810   34.8380   47.1060 C   0  0  0  0  0  0  0  0  0  0  0  0
   60.7713   35.4299   47.5908 H   0  0  0  0  0  0  0  0  0  0  0  0
  1  2  1  0
  2  3  2  0
  3  4  1  0
  4  5  1  0
  5  6  2  0
  6  7  1  0
  7  8  1  0
  8  9  1  0
  8 10  2  0
 10 11  1  0
 11 12  1  0
 12 13  2  0
 13 14  1  0
 13 15  1  0
 15 16  1  0
 15 17  2  0
 17 18  1  0
 17 19  1  0
 19 20  1  0
 20 21  2  0
 20 22  1  0
 22 23  1  0
 23 24  1  0
 23 25  1  0
 23 26  1  0
 26 27  1  0
 26 28  1  0
 26 29  1  0
 29 30  1  0
 30 31  1  0
 30 32  1  0
 30 33  1  0
 33 34  1  0
 33 35  1  0
 33 36  1  0
 29 37  1  0
 37 38  1  0
 37 39  1  0
 37 40  1  0
 40 41  1  0
 40 42  1  0
 40 43  1  0
 19 44  2  0
 44 45  1  0
 10 46  1  0
  4 47  2  0
 47 48  1  0
 47 49  1  0
 49 50  1  0
 49 51  2  0
 51 52  1  0
 51  2  1  0
 46  6  1  0
 44 12  1  0
M  CHG  2   7  -1  22  -1
M  END
>  <UniqueID>  (64) 
58

>  <SMILES>  (64) 
CCN(CC)CC[N-]C(=O)c1cccc(Sc2c[n-]/c(=N/c3ccccn3)s2)c1

>  <Energy>  (64) 
97.48140262930785

>  <Genealogy>  (64) 
CCN(CC)CC[N-]C(=O)c1cccc(Sc2c[n-]c(=Nc3ccccn3)s2)c1 (protonated)
CCN(CC)CC[N-]C(=O)c1cccc(Sc2c[n-]/c(=N/c3ccccn3)s2)c1 (cis-trans isomerization)
CCN(CC)CC[N-]C(=O)c1cccc(Sc2c[n-]/c(=N/c3ccccn3)s2)c1 (3D coordinates assigned)
CCN(CC)CC[N-]C(=O)c1cccc(Sc2c[n-]/c(=N/c3ccccn3)s2)c1 (optimized conformer: 97.48140262930785 kcal/mol)

>  <smiles>  (64) 
CCN(CC)CCNC(=O)c1cccc(Sc2c[nH]c(=Nc3ccccn3)s2)c1

>  <score_type>  (64) 
oracle

>  <origin>  (64) 
adg

>  <m_score__min__energy>  (64) 
-11.789999999999999

>  <m_primary>  (64) 
energy

$$$$
64:0
     RDKit          3D

 39 41  0  0  0  0  0  0  0  0999 V2000
   55.0580   29.7490   43.6160 O   0  0  0  0  0  0  0  0  0  0  0  0
   56.2310   29.3220   43.6290 N   0  0  0  0  0  0  0  0  0  0  0  0
   57.0220   29.2530   44.8250 C   0  0  0  0  0  0  0  0  0  0  0  0
   56.6810   28.3100   45.8030 C   0  0  0  0  0  0  0  0  0  0  0  0
   55.5960   27.4630   45.6100 O   0  0  0  0  0  0  0  0  0  0  0  0
   57.4050   28.2120   46.9470 N   0  0  0  0  0  0  0  0  0  0  0  0
   58.4760   29.0090   47.1930 C   0  0  0  0  0  0  0  0  0  0  0  0
   59.1850   28.8730   48.3920 C   0  0  0  0  0  0  0  0  0  0  0  0
   60.2840   29.6940   48.6550 C   0  0  0  0  0  0  0  0  0  0  0  0
   60.6830   30.6600   47.7220 C   0  0  0  0  0  0  0  0  0  0  0  0
   62.0550   31.7130   48.0560 S   0  0  0  0  0  0  0  0  0  0  0  0
   62.6470   32.1770   46.7560 O   0  0  0  0  0  0  0  0  0  0  0  0
   63.1060   30.9850   48.8450 O   0  0  0  0  0  0  0  0  0  0  0  0
   61.5170   33.0850   48.9650 N   0  0  0  0  0  0  0  0  0  0  0  0
   60.4920   33.9590   48.4890 C   0  0  0  0  0  0  0  0  0  0  0  0
   59.7920   34.6190   49.3060 O   0  0  0  0  0  0  0  0  0  0  0  0
   60.2590   34.0730   47.0810 N   0  0  0  0  0  0  0  0  0  0  0  0
   59.1670   34.8890   46.5370 C   0  0  0  0  0  0  0  0  0  0  0  0
   59.2640   34.9910   45.0170 C   0  0  0  0  0  0  0  0  0  0  0  0
   58.4670   33.8160   44.4580 C   0  0  0  0  0  0  0  0  0  0  0  0
   57.6170   33.2720   45.6050 C   0  0  0  0  0  0  0  0  0  0  0  0
   57.8250   34.2120   46.7850 C   0  0  0  0  0  0  0  0  0  0  0  0
   59.9800   30.7990   46.5180 C   0  0  0  0  0  0  0  0  0  0  0  0
   58.8680   29.9800   46.2430 C   0  0  0  0  0  0  0  0  0  0  0  0
   58.1290   30.1000   45.0500 C   0  0  0  0  0  0  0  0  0  0  0  0
   58.4590   30.9600   44.1880 O   0  0  0  0  0  0  0  0  0  0  0  0
   58.8759   28.1175   49.1293 H   0  0  0  0  0  0  0  0  0  0  0  0
   60.8384   29.5817   49.5984 H   0  0  0  0  0  0  0  0  0  0  0  0
   60.8800   33.5310   46.4360 H   0  0  0  0  0  0  0  0  0  0  0  0
   59.2443   35.8723   47.0240 H   0  0  0  0  0  0  0  0  0  0  0  0
   58.8338   35.9423   44.6707 H   0  0  0  0  0  0  0  0  0  0  0  0
   60.3107   34.9610   44.6799 H   0  0  0  0  0  0  0  0  0  0  0  0
   57.8202   34.1547   43.6352 H   0  0  0  0  0  0  0  0  0  0  0  0
   59.1366   33.0390   44.0606 H   0  0  0  0  0  0  0  0  0  0  0  0
   56.5558   33.2549   45.3159 H   0  0  0  0  0  0  0  0  0  0  0  0
   57.9090   32.2430   45.8615 H   0  0  0  0  0  0  0  0  0  0  0  0
   57.0195   34.9599   46.8269 H   0  0  0  0  0  0  0  0  0  0  0  0
   57.8122   33.6719   47.7432 H   0  0  0  0  0  0  0  0  0  0  0  0
   60.2988   31.5527   45.7829 H   0  0  0  0  0  0  0  0  0  0  0  0
  1  2  2  0
  2  3  1  0
  3  4  2  0
  4  5  1  0
  4  6  1  0
  6  7  1  0
  7  8  2  0
  8  9  1  0
  9 10  2  0
 10 11  1  0
 11 12  2  0
 11 13  2  0
 11 14  1  0
 14 15  1  0
 15 16  2  0
 15 17  1  0
 17 18  1  0
 18 19  1  0
 19 20  1  0
 20 21  1  0
 21 22  1  0
 10 23  1  0
 23 24  2  0
 24 25  1  0
 25 26  2  0
 25  3  1  0
 24  7  1  0
 22 18  1  0
  8 27  1  0
  9 28  1  0
 17 29  1  0
 18 30  1  0
 19 31  1  0
 19 32  1  0
 20 33  1  0
 20 34  1  0
 21 35  1  0
 21 36  1  0
 22 37  1  0
 22 38  1  0
 23 39  1  0
M  CHG  3   5  -1   6  -1  14  -1
M  END
>  <UniqueID>  (65) 
59

>  <SMILES>  (65) 
O=Nc1c([O-])[n-]c2ccc(S(=O)(=O)[N-]C(=O)NC3CCCC3)cc2c1=O

>  <Energy>  (65) 
47.523078932480196

>  <Genealogy>  (65) 
O=Nc1c([O-])[n-]c2ccc(S(=O)(=O)[N-]C(=O)NC3CCCC3)cc2c1=O (protonated)
O=Nc1c([O-])[n-]c2ccc(S(=O)(=O)[N-]C(=O)NC3CCCC3)cc2c1=O (3D coordinates assigned)
O=Nc1c([O-])[n-]c2ccc(S(=O)(=O)[N-]C(=O)NC3CCCC3)cc2c1=O (nonaromatic ring conformer: 47.523078932480196 kcal/mol)

>  <smiles>  (65) 
O=Nc1c(O)[nH]c2ccc(S(=O)(=O)NC(=O)NC3CCCC3)cc2c1=O

>  <score_type>  (65) 
oracle

>  <origin>  (65) 
adg

>  <m_score__min__energy>  (65) 
-13.5

>  <m_primary>  (65) 
energy

$$$$
65:0
     RDKit          3D

 53 57  0  0  0  0  0  0  0  0999 V2000
   56.8430   25.8790   47.0510 O   0  0  0  0  0  0  0  0  0  0  0  0
   58.0460   26.2600   46.9970 C   0  0  0  0  0  0  0  0  0  0  0  0
   59.0900   25.2950   46.7790 N   0  0  0  0  0  0  0  0  0  0  0  0
   58.9360   24.1470   45.9240 C   0  0  0  0  0  0  0  0  0  0  0  0
   60.0570   23.3570   45.6100 C   0  0  0  0  0  0  0  0  0  0  0  0
   59.9370   22.2680   44.7330 C   0  0  0  0  0  0  0  0  0  0  0  0
   58.6980   21.9730   44.1500 C   0  0  0  0  0  0  0  0  0  0  0  0
   57.5780   22.7770   44.4270 C   0  0  0  0  0  0  0  0  0  0  0  0
   56.0460   22.4860   43.5910 S   0  0  0  0  0  0  0  0  0  0  0  0
   55.7460   23.6800   42.7070 O   0  0  0  0  0  0  0  0  0  0  0  0
   56.1340   21.2390   42.7310 O   0  0  0  0  0  0  0  0  0  0  0  0
   54.7590   22.2910   44.7410 N   0  0  0  0  0  0  0  0  0  0  0  0
   54.9560   22.1460   46.1610 C   0  0  0  0  0  0  0  0  0  0  0  0
   54.2030   22.9520   47.0220 C   0  0  0  0  0  0  0  0  0  0  0  0
   54.4170   22.9000   48.4050 C   0  0  0  0  0  0  0  0  0  0  0  0
   55.3830   22.0370   48.9330 C   0  0  0  0  0  0  0  0  0  0  0  0
   56.1120   21.2010   48.0890 C   0  0  0  0  0  0  0  0  0  0  0  0
   57.3050   20.1040   48.7550 Cl  0  0  0  0  0  0  0  0  0  0  0  0
   55.8990   21.2520   46.7070 C   0  0  0  0  0  0  0  0  0  0  0  0
   57.6980   23.8540   45.3200 C   0  0  0  0  0  0  0  0  0  0  0  0
   58.3740   27.6950   47.1750 C   0  0  0  0  0  0  0  0  0  0  0  0
   58.9440   28.1500   48.3710 C   0  0  0  0  0  0  0  0  0  0  0  0
   59.2540   29.5030   48.5370 C   0  0  0  0  0  0  0  0  0  0  0  0
   58.9890   30.4430   47.5200 C   0  0  0  0  0  0  0  0  0  0  0  0
   58.3940   29.9840   46.3290 C   0  0  0  0  0  0  0  0  0  0  0  0
   58.0990   28.6230   46.1580 C   0  0  0  0  0  0  0  0  0  0  0  0
   57.9930   31.0890   45.0370 S   0  0  0  0  0  0  0  0  0  0  0  0
   56.4990   31.1450   44.8710 O   0  0  0  0  0  0  0  0  0  0  0  0
   58.6410   30.6260   43.7620 O   0  0  0  0  0  0  0  0  0  0  0  0
   58.5890   32.6780   45.4460 C   0  0  0  0  0  0  0  0  0  0  0  0
   58.4560   33.7020   44.4940 C   0  0  0  0  0  0  0  0  0  0  0  0
   58.9170   34.9880   44.7760 C   0  0  0  0  0  0  0  0  0  0  0  0
   59.5050   35.2590   46.0130 C   0  0  0  0  0  0  0  0  0  0  0  0
   59.6370   34.2450   46.9670 C   0  0  0  0  0  0  0  0  0  0  0  0
   59.1880   32.9350   46.6970 C   0  0  0  0  0  0  0  0  0  0  0  0
   59.3670   31.8710   47.7280 C   0  0  0  0  0  0  0  0  0  0  0  0
   59.8880   32.1920   48.8350 O   0  0  0  0  0  0  0  0  0  0  0  0
   59.9800   25.4060   47.3120 H   0  0  0  0  0  0  0  0  0  0  0  0
   61.0345   23.5946   46.0551 H   0  0  0  0  0  0  0  0  0  0  0  0
   60.8152   21.6466   44.5036 H   0  0  0  0  0  0  0  0  0  0  0  0
   58.6009   21.1106   43.4741 H   0  0  0  0  0  0  0  0  0  0  0  0
   53.4399   23.6292   46.6109 H   0  0  0  0  0  0  0  0  0  0  0  0
   53.8247   23.5386   49.0769 H   0  0  0  0  0  0  0  0  0  0  0  0
   55.5678   22.0181   50.0172 H   0  0  0  0  0  0  0  0  0  0  0  0
   56.4719   20.5893   46.0416 H   0  0  0  0  0  0  0  0  0  0  0  0
   56.8185   24.4735   45.5495 H   0  0  0  0  0  0  0  0  0  0  0  0
   59.1489   27.4384   49.1844 H   0  0  0  0  0  0  0  0  0  0  0  0
   59.7130   29.8404   49.4780 H   0  0  0  0  0  0  0  0  0  0  0  0
   57.6469   28.2790   45.2160 H   0  0  0  0  0  0  0  0  0  0  0  0
   57.9865   33.4891   43.5223 H   0  0  0  0  0  0  0  0  0  0  0  0
   58.8175   35.7864   44.0259 H   0  0  0  0  0  0  0  0  0  0  0  0
   59.8657   36.2736   46.2380 H   0  0  0  0  0  0  0  0  0  0  0  0
   60.0967   34.4716   47.9403 H   0  0  0  0  0  0  0  0  0  0  0  0
  1  2  2  0
  2  3  1  0
  3  4  1  0
  4  5  2  0
  5  6  1  0
  6  7  2  0
  7  8  1  0
  8  9  1  0
  9 10  2  0
  9 11  2  0
  9 12  1  0
 12 13  1  0
 13 14  2  0
 14 15  1  0
 15 16  2  0
 16 17  1  0
 17 18  1  0
 17 19  2  0
  8 20  2  0
  2 21  1  0
 21 22  2  0
 22 23  1  0
 23 24  2  0
 24 25  1  0
 25 26  2  0
 25 27  1  0
 27 28  2  0
 27 29  2  0
 27 30  1  0
 30 31  2  0
 31 32  1  0
 32 33  2  0
 33 34  1  0
 34 35  2  0
 35 36  1  0
 36 37  2  0
 20  4  1  0
 26 21  1  0
 35 30  1  0
 19 13  1  0
 36 24  1  0
  3 38  1  0
  5 39  1  0
  6 40  1  0
  7 41  1  0
 14 42  1  0
 15 43  1  0
 16 44  1  0
 19 45  1  0
 20 46  1  0
 22 47  1  0
 23 48  1  0
 26 49  1  0
 31 50  1  0
 32 51  1  0
 33 52  1  0
 34 53  1  0
M  CHG  1  12  -1
M  END
>  <UniqueID>  (66) 
60

>  <SMILES>  (66) 
O=C(Nc1cccc(S(=O)(=O)[N-]c2cccc(Cl)c2)c1)c1ccc2c(c1)S(=O)(=O)c1ccccc1C2=O

>  <Energy>  (66) 
78.43818218428594

>  <Genealogy>  (66) 
O=C(Nc1cccc(S(=O)(=O)[N-]c2cccc(Cl)c2)c1)c1ccc2c(c1)S(=O)(=O)c1ccccc1C2=O (protonated)
O=C(Nc1cccc(S(=O)(=O)[N-]c2cccc(Cl)c2)c1)c1ccc2c(c1)S(=O)(=O)c1ccccc1C2=O (3D coordinates assigned)
O=C(Nc1cccc(S(=O)(=O)[N-]c2cccc(Cl)c2)c1)c1ccc2c(c1)S(=O)(=O)c1ccccc1C2=O (nonaromatic ring conformer: 78.43818218428594 kcal/mol)

>  <smiles>  (66) 
O=C(Nc1cccc(S(=O)(=O)Nc2cccc(Cl)c2)c1)c1ccc2c(c1)S(=O)(=O)c1ccccc1C2=O

>  <score_type>  (66) 
oracle

>  <origin>  (66) 
adg

>  <m_score__min__energy>  (66) 
-11.66

>  <m_primary>  (66) 
energy

$$$$
66:0
     RDKit          3D

 38 40  0  0  0  0  0  0  0  0999 V2000
   58.7320   27.3840   47.2850 C   0  0  0  0  0  0  0  0  0  0  0  0
   57.8750   28.2150   46.3670 C   0  0  0  0  0  0  0  0  0  0  0  0
   56.6500   27.7750   45.8210 C   0  0  0  0  0  0  0  0  0  0  0  0
   56.0300   26.4420   45.9400 C   0  0  0  0  0  0  0  0  0  0  0  0
   54.7750   26.3390   45.9900 O   0  0  0  0  0  0  0  0  0  0  0  0
   56.8020   25.2880   45.9490 O   0  0  0  0  0  0  0  0  0  0  0  0
   55.9630   29.0220   44.9040 S   0  0  0  0  0  0  0  0  0  0  0  0
   57.2170   30.0960   45.1560 C   0  0  0  0  0  0  0  0  0  0  0  0
   57.3130   31.3490   44.6540 N   0  0  0  0  0  0  0  0  0  0  0  0
   58.4210   32.0880   44.9390 C   0  0  0  0  0  0  0  0  0  0  0  0
   58.5700   33.7550   44.3040 S   0  0  0  0  0  0  0  0  0  0  0  0
   58.0970   34.5550   45.8760 C   0  0  0  0  0  0  0  0  0  0  0  0
   59.2770   35.2150   46.5140 C   0  0  0  0  0  0  0  0  0  0  0  0
   59.9890   36.0120   45.8460 O   0  0  0  0  0  0  0  0  0  0  0  0
   59.5810   34.9500   47.8860 N   0  0  0  0  0  0  0  0  0  0  0  0
   59.7790   33.6030   48.4020 C   0  0  0  0  0  0  0  0  0  0  0  0
   61.1800   33.1560   48.1000 C   0  0  0  0  0  0  0  0  0  0  0  0
   61.9420   33.8210   47.1260 C   0  0  0  0  0  0  0  0  0  0  0  0
   63.2340   33.3790   46.8230 C   0  0  0  0  0  0  0  0  0  0  0  0
   63.7690   32.2680   47.4810 C   0  0  0  0  0  0  0  0  0  0  0  0
   63.0100   31.5930   48.4410 C   0  0  0  0  0  0  0  0  0  0  0  0
   61.7170   32.0310   48.7470 C   0  0  0  0  0  0  0  0  0  0  0  0
   59.4240   31.5580   45.6990 N   0  0  0  0  0  0  0  0  0  0  0  0
   59.3450   30.2970   46.2090 C   0  0  0  0  0  0  0  0  0  0  0  0
   60.3050   29.8440   46.8840 O   0  0  0  0  0  0  0  0  0  0  0  0
   58.1980   29.5290   45.9490 C   0  0  0  0  0  0  0  0  0  0  0  0
   58.4868   27.6218   48.3306 H   0  0  0  0  0  0  0  0  0  0  0  0
   58.5424   26.3168   47.0975 H   0  0  0  0  0  0  0  0  0  0  0  0
   59.7928   27.6064   47.0975 H   0  0  0  0  0  0  0  0  0  0  0  0
   57.3246   35.3124   45.6767 H   0  0  0  0  0  0  0  0  0  0  0  0
   57.7118   33.7850   46.5606 H   0  0  0  0  0  0  0  0  0  0  0  0
   59.6188   33.5993   49.4903 H   0  0  0  0  0  0  0  0  0  0  0  0
   59.0630   32.9173   47.9254 H   0  0  0  0  0  0  0  0  0  0  0  0
   61.5221   34.6912   46.6003 H   0  0  0  0  0  0  0  0  0  0  0  0
   63.8307   33.9072   46.0648 H   0  0  0  0  0  0  0  0  0  0  0  0
   64.7868   31.9251   47.2434 H   0  0  0  0  0  0  0  0  0  0  0  0
   63.4296   30.7165   48.9565 H   0  0  0  0  0  0  0  0  0  0  0  0
   61.1189   31.4925   49.4969 H   0  0  0  0  0  0  0  0  0  0  0  0
  1  2  1  0
  2  3  2  0
  3  4  1  0
  4  5  2  0
  4  6  1  0
  3  7  1  0
  7  8  1  0
  8  9  1  0
  9 10  1  0
 10 11  1  0
 11 12  1  0
 12 13  1  0
 13 14  2  0
 13 15  1  0
 15 16  1  0
 16 17  1  0
 17 18  2  0
 18 19  1  0
 19 20  2  0
 20 21  1  0
 21 22  2  0
 10 23  2  0
 23 24  1  0
 24 25  2  0
 24 26  1  0
 26  2  1  0
 26  8  2  0
 22 17  1  0
  1 27  1  0
  1 28  1  0
  1 29  1  0
 12 30  1  0
 12 31  1  0
 16 32  1  0
 16 33  1  0
 18 34  1  0
 19 35  1  0
 20 36  1  0
 21 37  1  0
 22 38  1  0
M  CHG  3   6  -1   9  -1  15  -1
M  END
>  <UniqueID>  (67) 
61

>  <SMILES>  (67) 
Cc1c(C(=O)[O-])sc2[n-]c(SCC(=O)[N-]Cc3ccccc3)nc(=O)c12

>  <Energy>  (67) 
69.85960286885076

>  <Genealogy>  (67) 
Cc1c(C(=O)[O-])sc2[n-]c(SCC(=O)[N-]Cc3ccccc3)nc(=O)c12 (protonated)
Cc1c(C(=O)[O-])sc2[n-]c(SCC(=O)[N-]Cc3ccccc3)nc(=O)c12 (3D coordinates assigned)
Cc1c(C(=O)[O-])sc2[n-]c(SCC(=O)[N-]Cc3ccccc3)nc(=O)c12 (optimized conformer: 69.85960286885076 kcal/mol)

>  <smiles>  (67) 
Cc1c(C(=O)O)sc2[nH]c(SCC(=O)NCc3ccccc3)nc(=O)c12

>  <score_type>  (67) 
oracle

>  <origin>  (67) 
adg

>  <m_score__min__energy>  (67) 
-13.08

>  <m_primary>  (67) 
energy

$$$$
67:0
     RDKit          3D

 47 49  0  0  0  0  0  0  0  0999 V2000
   56.0301   21.0755   50.7913 H   0  0  0  0  0  0  0  0  0  0  0  0
   55.2160   21.4170   50.1350 C   0  0  0  0  0  0  0  0  0  0  0  0
   53.8970   21.0420   50.4050 C   0  0  0  0  0  0  0  0  0  0  0  0
   53.6718   20.4156   51.2807 H   0  0  0  0  0  0  0  0  0  0  0  0
   52.8630   21.4630   49.5620 C   0  0  0  0  0  0  0  0  0  0  0  0
   51.5860   21.0780   49.8110 F   0  0  0  0  0  0  0  0  0  0  0  0
   53.1460   22.2710   48.4550 C   0  0  0  0  0  0  0  0  0  0  0  0
   52.3319   22.5890   47.7871 H   0  0  0  0  0  0  0  0  0  0  0  0
   54.4680   22.6790   48.1920 C   0  0  0  0  0  0  0  0  0  0  0  0
   54.7940   23.4930   47.0520 N   0  0  0  0  0  0  0  0  0  0  0  0
   54.6340   24.5250   47.1270 H   0  0  0  0  0  0  0  0  0  0  0  0
   55.2430   22.9820   45.7860 C   0  0  0  0  0  0  0  0  0  0  0  0
   55.1350   21.7550   45.5130 O   0  0  0  0  0  0  0  0  0  0  0  0
   55.7890   23.9170   44.7510 C   0  0  0  0  0  0  0  0  0  0  0  0
   54.9672   24.2701   44.1107 H   0  0  0  0  0  0  0  0  0  0  0  0
   56.5357   23.3840   44.1440 H   0  0  0  0  0  0  0  0  0  0  0  0
   56.4420   25.0900   45.4080 C   0  0  0  0  0  0  0  0  0  0  0  0
   58.0990   25.2520   45.6790 S   0  0  0  0  0  0  0  0  0  0  0  0
   57.9120   26.7170   46.4860 C   0  0  0  0  0  0  0  0  0  0  0  0
   58.9040   27.3830   47.0000 N   0  0  0  0  0  0  0  0  0  0  0  0
   59.0880   28.8070   46.9390 C   0  0  0  0  0  0  0  0  0  0  0  0
   58.8320   29.4700   45.7320 C   0  0  0  0  0  0  0  0  0  0  0  0
   58.5122   28.8949   44.8505 H   0  0  0  0  0  0  0  0  0  0  0  0
   58.9800   30.8580   45.6390 C   0  0  0  0  0  0  0  0  0  0  0  0
   58.7945   31.3670   44.6816 H   0  0  0  0  0  0  0  0  0  0  0  0
   59.3640   31.6010   46.7630 C   0  0  0  0  0  0  0  0  0  0  0  0
   59.5490   33.3530   46.6510 S   0  0  0  0  0  0  0  0  0  0  0  0
   61.0130   33.6970   46.6460 O   0  0  0  0  0  0  0  0  0  0  0  0
   58.9290   33.9920   47.8630 O   0  0  0  0  0  0  0  0  0  0  0  0
   58.7920   33.9930   45.2120 N   0  0  0  0  0  0  0  0  0  0  0  0
   57.3340   34.0300   45.3900 C   0  0  0  0  0  0  0  0  0  0  0  0
   57.0958   34.0360   46.4639 H   0  0  0  0  0  0  0  0  0  0  0  0
   56.9301   34.9387   44.9197 H   0  0  0  0  0  0  0  0  0  0  0  0
   56.8846   33.1430   44.9197 H   0  0  0  0  0  0  0  0  0  0  0  0
   59.3030   35.3430   44.9370 C   0  0  0  0  0  0  0  0  0  0  0  0
   59.4992   35.8614   45.8871 H   0  0  0  0  0  0  0  0  0  0  0  0
   60.2361   35.2712   44.3590 H   0  0  0  0  0  0  0  0  0  0  0  0
   58.5562   35.9071   44.3590 H   0  0  0  0  0  0  0  0  0  0  0  0
   59.5850   30.9470   47.9840 C   0  0  0  0  0  0  0  0  0  0  0  0
   59.8726   31.5278   48.8728 H   0  0  0  0  0  0  0  0  0  0  0  0
   59.4410   29.5600   48.0750 C   0  0  0  0  0  0  0  0  0  0  0  0
   59.6041   29.0544   49.0382 H   0  0  0  0  0  0  0  0  0  0  0  0
   56.6140   27.0860   46.5860 N   0  0  0  0  0  0  0  0  0  0  0  0
   55.7970   26.1800   45.9890 C   0  0  0  0  0  0  0  0  0  0  0  0
   54.4180   26.3380   45.9770 O   0  0  0  0  0  0  0  0  0  0  0  0
   55.5010   22.2260   49.0310 C   0  0  0  0  0  0  0  0  0  0  0  0
   56.5419   22.5103   48.8171 H   0  0  0  0  0  0  0  0  0  0  0  0
  1  2  1  0
  2  3  2  0
  3  4  1  0
  3  5  1  0
  5  6  1  0
  5  7  2  0
  7  8  1  0
  7  9  1  0
  9 10  1  0
 10 11  1  0
 10 12  1  0
 12 13  2  0
 12 14  1  0
 14 15  1  0
 14 16  1  0
 14 17  1  0
 17 18  1  0
 18 19  1  0
 19 20  2  0
 20 21  1  0
 21 22  2  0
 22 23  1  0
 22 24  1  0
 24 25  1  0
 24 26  2  0
 26 27  1  0
 27 28  2  0
 27 29  2  0
 27 30  1  0
 30 31  1  0
 31 32  1  0
 31 33  1  0
 31 34  1  0
 30 35  1  0
 35 36  1  0
 35 37  1  0
 35 38  1  0
 26 39  1  0
 39 40  1  0
 39 41  2  0
 41 42  1  0
 19 43  1  0
 43 44  1  0
 44 45  1  0
  9 46  2  0
 46 47  1  0
 46  2  1  0
 44 17  2  0
 41 21  1  0
M  CHG  2  43  -1  45  -1
M  END
>  <UniqueID>  (68) 
62

>  <SMILES>  (68) 
CN(C)S(=O)(=O)c1ccc(/N=c2\[n-]c([O-])c(CC(=O)Nc3cccc(F)c3)s2)cc1

>  <Energy>  (68) 
84.34863690000468

>  <Genealogy>  (68) 
CN(C)S(=O)(=O)c1ccc(N=c2[n-]c([O-])c(CC(=O)Nc3cccc(F)c3)s2)cc1 (protonated)
CN(C)S(=O)(=O)c1ccc(/N=c2\[n-]c([O-])c(CC(=O)Nc3cccc(F)c3)s2)cc1 (cis-trans isomerization)
CN(C)S(=O)(=O)c1ccc(/N=c2\[n-]c([O-])c(CC(=O)Nc3cccc(F)c3)s2)cc1 (3D coordinates assigned)
CN(C)S(=O)(=O)c1ccc(/N=c2\[n-]c([O-])c(CC(=O)Nc3cccc(F)c3)s2)cc1 (optimized conformer: 84.34863690000468 kcal/mol)

>  <smiles>  (68) 
CN(C)S(=O)(=O)c1ccc(N=c2[nH]c(O)c(CC(=O)Nc3cccc(F)c3)s2)cc1

>  <score_type>  (68) 
oracle

>  <origin>  (68) 
adg

>  <m_score__min__energy>  (68) 
-12.56

>  <m_primary>  (68) 
energy

$$$$
68:0
     RDKit          3D

 48 51  0  0  0  0  0  0  0  0999 V2000
   60.9690   33.9060   47.3810 C   0  0  0  0  0  0  0  0  0  0  0  0
   59.7340   33.5800   46.5860 C   0  0  0  0  0  0  0  0  0  0  0  0
   59.0060   34.6010   45.9670 C   0  0  0  0  0  0  0  0  0  0  0  0
   57.8700   34.2960   45.2260 C   0  0  0  0  0  0  0  0  0  0  0  0
   57.4610   32.9680   45.1030 C   0  0  0  0  0  0  0  0  0  0  0  0
   58.1660   31.9570   45.7040 N   0  0  0  0  0  0  0  0  0  0  0  0
   57.7580   30.6510   45.5800 C   0  0  0  0  0  0  0  0  0  0  0  0
   56.7270   30.3520   44.9160 O   0  0  0  0  0  0  0  0  0  0  0  0
   58.4820   29.6250   46.1900 C   0  0  0  0  0  0  0  0  0  0  0  0
   59.6250   29.9460   46.9190 C   0  0  0  0  0  0  0  0  0  0  0  0
   60.4200   28.8760   47.6100 C   0  0  0  0  0  0  0  0  0  0  0  0
   60.1930   28.9020   49.0200 O   0  0  0  0  0  0  0  0  0  0  0  0
   59.8520   30.0440   49.7630 C   0  0  0  0  0  0  0  0  0  0  0  0
   60.7990   31.0190   50.1320 C   0  0  0  0  0  0  0  0  0  0  0  0
   60.4050   32.1350   50.8740 C   0  0  0  0  0  0  0  0  0  0  0  0
   59.0680   32.2980   51.2440 C   0  0  0  0  0  0  0  0  0  0  0  0
   58.1080   31.3450   50.8630 C   0  0  0  0  0  0  0  0  0  0  0  0
   56.7290   31.4760   51.2470 N   0  0  0  0  0  0  0  0  0  0  0  0
   55.9800   30.4410   51.9140 C   0  0  0  0  0  0  0  0  0  0  0  0
   56.5510   29.3680   52.2510 O   0  0  0  0  0  0  0  0  0  0  0  0
   54.5410   30.6130   52.2270 C   0  0  0  0  0  0  0  0  0  0  0  0
   53.6230   31.0400   51.2480 C   0  0  0  0  0  0  0  0  0  0  0  0
   52.2720   31.2040   51.5680 C   0  0  0  0  0  0  0  0  0  0  0  0
   51.8220   30.9500   52.8670 C   0  0  0  0  0  0  0  0  0  0  0  0
   50.5120   31.1100   53.1740 F   0  0  0  0  0  0  0  0  0  0  0  0
   52.7250   30.5370   53.8490 C   0  0  0  0  0  0  0  0  0  0  0  0
   54.0770   30.3740   53.5340 C   0  0  0  0  0  0  0  0  0  0  0  0
   58.5150   30.2110   50.1440 C   0  0  0  0  0  0  0  0  0  0  0  0
   59.9950   31.2450   47.0390 N   0  0  0  0  0  0  0  0  0  0  0  0
   59.2960   32.2480   46.4420 C   0  0  0  0  0  0  0  0  0  0  0  0
   60.7401   33.8456   48.4552 H   0  0  0  0  0  0  0  0  0  0  0  0
   61.7641   33.1870   47.1345 H   0  0  0  0  0  0  0  0  0  0  0  0
   61.3057   34.9238   47.1345 H   0  0  0  0  0  0  0  0  0  0  0  0
   59.3326   35.6467   46.0665 H   0  0  0  0  0  0  0  0  0  0  0  0
   57.2962   35.0982   44.7389 H   0  0  0  0  0  0  0  0  0  0  0  0
   56.5616   32.7288   44.5165 H   0  0  0  0  0  0  0  0  0  0  0  0
   58.1549   28.5789   46.0965 H   0  0  0  0  0  0  0  0  0  0  0  0
   60.1211   27.8937   47.2152 H   0  0  0  0  0  0  0  0  0  0  0  0
   61.4888   29.0565   47.4229 H   0  0  0  0  0  0  0  0  0  0  0  0
   61.8516   30.9014   49.8351 H   0  0  0  0  0  0  0  0  0  0  0  0
   61.1506   32.8884   51.1681 H   0  0  0  0  0  0  0  0  0  0  0  0
   58.7656   33.1749   51.8353 H   0  0  0  0  0  0  0  0  0  0  0  0
   56.2760   32.3990   51.0750 H   0  0  0  0  0  0  0  0  0  0  0  0
   53.9712   31.2458   50.2251 H   0  0  0  0  0  0  0  0  0  0  0  0
   51.5614   31.5337   50.7958 H   0  0  0  0  0  0  0  0  0  0  0  0
   52.3717   30.3397   54.8719 H   0  0  0  0  0  0  0  0  0  0  0  0
   54.7843   30.0562   54.3142 H   0  0  0  0  0  0  0  0  0  0  0  0
   57.7742   29.4432   49.8762 H   0  0  0  0  0  0  0  0  0  0  0  0
  1  2  1  0
  2  3  2  0
  3  4  1  0
  4  5  2  0
  5  6  1  0
  6  7  1  0
  7  8  2  0
  7  9  1  0
  9 10  2  0
 10 11  1  0
 11 12  1  0
 12 13  1  0
 13 14  2  0
 14 15  1  0
 15 16  2  0
 16 17  1  0
 17 18  1  0
 18 19  1  0
 19 20  2  0
 19 21  1  0
 21 22  2  0
 22 23  1  0
 23 24  2  0
 24 25  1  0
 24 26  1  0
 26 27  2  0
 17 28  2  0
 10 29  1  0
 29 30  2  0
 30  2  1  0
 30  6  1  0
 28 13  1  0
 27 21  1  0
  1 31  1  0
  1 32  1  0
  1 33  1  0
  3 34  1  0
  4 35  1  0
  5 36  1  0
  9 37  1  0
 11 38  1  0
 11 39  1  0
 14 40  1  0
 15 41  1  0
 16 42  1  0
 18 43  1  0
 22 44  1  0
 23 45  1  0
 26 46  1  0
 27 47  1  0
 28 48  1  0
M  END
>  <UniqueID>  (69) 
63

>  <SMILES>  (69) 
Cc1cccn2c(=O)cc(COc3cccc(NC(=O)c4ccc(F)cc4)c3)nc12

>  <Energy>  (69) 
64.59904987691402

>  <Genealogy>  (69) 
Cc1cccn2c(=O)cc(COc3cccc(NC(=O)c4ccc(F)cc4)c3)nc12 (3D coordinates assigned)
Cc1cccn2c(=O)cc(COc3cccc(NC(=O)c4ccc(F)cc4)c3)nc12 (optimized conformer: 64.59904987691402 kcal/mol)

>  <smiles>  (69) 
Cc1cccn2c(=O)cc(COc3cccc(NC(=O)c4ccc(F)cc4)c3)nc12

>  <score_type>  (69) 
oracle

>  <origin>  (69) 
adg

>  <m_score__min__energy>  (69) 
-8.8300000000000001

>  <m_primary>  (69) 
energy

$$$$
69:0
     RDKit          3D

 27 28  0  0  0  0  0  0  0  0999 V2000
   57.9520   33.9250   45.0910 C   0  0  0  0  0  0  0  0  0  0  0  0
   59.1690   34.3890   45.8850 C   0  0  0  0  0  0  0  0  0  0  0  0
   60.1080   33.2190   46.1920 C   0  0  0  0  0  0  0  0  0  0  0  0
   59.3230   32.0050   46.5830 C   0  0  0  0  0  0  0  0  0  0  0  0
   58.4790   32.0880   47.5170 O   0  0  0  0  0  0  0  0  0  0  0  0
   59.6000   30.7420   45.9620 N   0  0  0  0  0  0  0  0  0  0  0  0
   58.7990   29.5700   46.1630 C   0  0  0  0  0  0  0  0  0  0  0  0
   59.3580   28.1840   46.9600 S   0  0  0  0  0  0  0  0  0  0  0  0
   57.9500   27.3030   46.7000 C   0  0  0  0  0  0  0  0  0  0  0  0
   57.6270   26.0040   47.0720 C   0  0  0  0  0  0  0  0  0  0  0  0
   58.4330   25.2940   47.7270 O   0  0  0  0  0  0  0  0  0  0  0  0
   56.4100   25.5120   46.7090 N   0  0  0  0  0  0  0  0  0  0  0  0
   55.5230   26.2670   45.9910 C   0  0  0  0  0  0  0  0  0  0  0  0
   54.4080   25.7830   45.6670 O   0  0  0  0  0  0  0  0  0  0  0  0
   55.8440   27.5420   45.6220 N   0  0  0  0  0  0  0  0  0  0  0  0
   57.0480   28.0600   45.9780 C   0  0  0  0  0  0  0  0  0  0  0  0
   57.5110   29.3400   45.6570 C   0  0  0  0  0  0  0  0  0  0  0  0
   56.7840   30.2540   44.8140 C   0  0  0  0  0  0  0  0  0  0  0  0
   56.1980   30.9890   44.1380 N   0  0  0  0  0  0  0  0  0  0  0  0
   57.1551   33.6212   45.7857 H   0  0  0  0  0  0  0  0  0  0  0  0
   57.5917   34.7488   44.4574 H   0  0  0  0  0  0  0  0  0  0  0  0
   58.2316   33.0704   44.4574 H   0  0  0  0  0  0  0  0  0  0  0  0
   59.7145   35.1426   45.2980 H   0  0  0  0  0  0  0  0  0  0  0  0
   58.8217   34.8164   46.8372 H   0  0  0  0  0  0  0  0  0  0  0  0
   60.7062   32.9907   45.2976 H   0  0  0  0  0  0  0  0  0  0  0  0
   60.7665   33.5009   47.0268 H   0  0  0  0  0  0  0  0  0  0  0  0
   60.5040   30.6300   45.4510 H   0  0  0  0  0  0  0  0  0  0  0  0
  1  2  1  0
  2  3  1  0
  3  4  1  0
  4  5  2  0
  4  6  1  0
  6  7  1  0
  7  8  1  0
  8  9  1  0
  9 10  1  0
 10 11  2  0
 10 12  1  0
 12 13  1  0
 13 14  2  0
 13 15  1  0
 15 16  1  0
 16 17  1  0
 17 18  1  0
 18 19  3  0
 17  7  2  0
 16  9  2  0
  1 20  1  0
  1 21  1  0
  1 22  1  0
  2 23  1  0
  2 24  1  0
  3 25  1  0
  3 26  1  0
  6 27  1  0
M  CHG  2  12  -1  15  -1
M  END
>  <UniqueID>  (70) 
64

>  <SMILES>  (70) 
CCCC(=O)Nc1sc2c(=O)[n-]c(=O)[n-]c2c1C#N

>  <Energy>  (70) 
58.846982361792456

>  <Genealogy>  (70) 
CCCC(=O)Nc1sc2c(=O)[n-]c(=O)[n-]c2c1C#N (protonated)
CCCC(=O)Nc1sc2c(=O)[n-]c(=O)[n-]c2c1C#N (3D coordinates assigned)
CCCC(=O)Nc1sc2c(=O)[n-]c(=O)[n-]c2c1C#N (optimized conformer: 58.846982361792456 kcal/mol)

>  <smiles>  (70) 
CCCC(=O)Nc1sc2c(=O)[nH]c(=O)[nH]c2c1C#N

>  <score_type>  (70) 
oracle

>  <origin>  (70) 
adg

>  <m_score__min__energy>  (70) 
-10.42

>  <m_primary>  (70) 
energy

$$$$
70:0
     RDKit          3D

 33 34  0  0  0  0  0  0  0  0999 V2000
   58.1260   27.0870   43.0740 C   0  0  0  0  0  0  0  0  0  0  0  0
   58.0420   28.1640   44.0710 N   0  0  0  0  0  0  0  0  0  0  0  0
   56.8230   28.9640   43.8500 C   0  0  0  0  0  0  0  0  0  0  0  0
   56.9550   30.3050   44.5080 C   0  0  0  0  0  0  0  0  0  0  0  0
   55.9730   31.0960   44.4960 O   0  0  0  0  0  0  0  0  0  0  0  0
   58.1730   30.6640   45.1800 N   0  0  0  0  0  0  0  0  0  0  0  0
   58.5080   32.0060   45.5740 C   0  0  0  0  0  0  0  0  0  0  0  0
   59.1100   32.2260   46.8240 C   0  0  0  0  0  0  0  0  0  0  0  0
   59.4690   33.5190   47.2190 C   0  0  0  0  0  0  0  0  0  0  0  0
   59.2410   34.6010   46.3640 C   0  0  0  0  0  0  0  0  0  0  0  0
   59.5920   35.8530   46.7470 F   0  0  0  0  0  0  0  0  0  0  0  0
   58.6640   34.3890   45.1090 C   0  0  0  0  0  0  0  0  0  0  0  0
   58.3040   33.0980   44.7110 C   0  0  0  0  0  0  0  0  0  0  0  0
   58.0270   27.4580   45.6720 S   0  0  0  0  0  0  0  0  0  0  0  0
   57.6800   28.5040   46.6950 O   0  0  0  0  0  0  0  0  0  0  0  0
   59.3750   26.8800   46.0040 O   0  0  0  0  0  0  0  0  0  0  0  0
   56.8420   26.1680   45.7430 C   0  0  0  0  0  0  0  0  0  0  0  0
   57.0940   24.8360   45.5360 C   0  0  0  0  0  0  0  0  0  0  0  0
   55.9420   24.1560   45.6590 N   0  0  0  0  0  0  0  0  0  0  0  0
   55.0250   25.1060   45.9380 C   0  0  0  0  0  0  0  0  0  0  0  0
   55.5360   26.3540   45.9980 N   0  0  0  0  0  0  0  0  0  0  0  0
   58.2016   26.1171   43.5874 H   0  0  0  0  0  0  0  0  0  0  0  0
   57.2242   27.0991   42.4443 H   0  0  0  0  0  0  0  0  0  0  0  0
   59.0150   27.2388   42.4443 H   0  0  0  0  0  0  0  0  0  0  0  0
   56.6711   29.1032   42.7695 H   0  0  0  0  0  0  0  0  0  0  0  0
   55.9631   28.4343   44.2859 H   0  0  0  0  0  0  0  0  0  0  0  0
   58.8270   29.8950   45.4520 H   0  0  0  0  0  0  0  0  0  0  0  0
   59.3002   31.3764   47.4963 H   0  0  0  0  0  0  0  0  0  0  0  0
   59.9312   33.6844   48.2034 H   0  0  0  0  0  0  0  0  0  0  0  0
   58.4927   35.2396   44.4329 H   0  0  0  0  0  0  0  0  0  0  0  0
   57.8591   32.9354   43.7182 H   0  0  0  0  0  0  0  0  0  0  0  0
   58.0764   24.3972   45.3072 H   0  0  0  0  0  0  0  0  0  0  0  0
   53.9601   24.8840   46.1013 H   0  0  0  0  0  0  0  0  0  0  0  0
  1  2  1  0
  2  3  1  0
  3  4  1  0
  4  5  2  0
  4  6  1  0
  6  7  1  0
  7  8  2  0
  8  9  1  0
  9 10  2  0
 10 11  1  0
 10 12  1  0
 12 13  2  0
  2 14  1  0
 14 15  2  0
 14 16  2  0
 14 17  1  0
 17 18  2  0
 18 19  1  0
 19 20  1  0
 20 21  2  0
 13  7  1  0
 21 17  1  0
  1 22  1  0
  1 23  1  0
  1 24  1  0
  3 25  1  0
  3 26  1  0
  6 27  1  0
  8 28  1  0
  9 29  1  0
 12 30  1  0
 13 31  1  0
 18 32  1  0
 20 33  1  0
M  CHG  1  19  -1
M  END
>  <UniqueID>  (71) 
65

>  <SMILES>  (71) 
CN(CC(=O)Nc1ccc(F)cc1)S(=O)(=O)c1c[n-]cn1

>  <Energy>  (71) 
62.05717541389523

>  <Genealogy>  (71) 
CN(CC(=O)Nc1ccc(F)cc1)S(=O)(=O)c1c[n-]cn1 (protonated)
CN(CC(=O)Nc1ccc(F)cc1)S(=O)(=O)c1c[n-]cn1 (3D coordinates assigned)
CN(CC(=O)Nc1ccc(F)cc1)S(=O)(=O)c1c[n-]cn1 (optimized conformer: 62.05717541389523 kcal/mol)

>  <smiles>  (71) 
CN(CC(=O)Nc1ccc(F)cc1)S(=O)(=O)c1c[nH]cn1

>  <score_type>  (71) 
oracle

>  <origin>  (71) 
adg

>  <m_score__min__energy>  (71) 
-8.7100000000000009

>  <m_primary>  (71) 
energy

$$$$
71:0
     RDKit          3D

 72 75  0  0  0  0  0  0  0  0999 V2000
   56.5460   22.7110   42.6560 C   0  0  0  0  0  0  0  0  0  0  0  0
   55.9820   21.6730   43.5060 N   0  0  0  0  0  0  0  0  0  0  0  0
   56.0200   21.7360   44.9370 C   0  0  0  0  0  0  0  0  0  0  0  0
   56.5520   20.8000   45.5900 O   0  0  0  0  0  0  0  0  0  0  0  0
   55.4480   22.8420   45.6540 N   0  0  0  0  0  0  0  0  0  0  0  0
   55.9320   24.0450   45.7710 C   0  0  0  0  0  0  0  0  0  0  0  0
   57.3200   24.2190   45.8250 C   0  0  0  0  0  0  0  0  0  0  0  0
   57.8470   25.5000   45.9980 C   0  0  0  0  0  0  0  0  0  0  0  0
   56.9950   26.6010   46.1300 C   0  0  0  0  0  0  0  0  0  0  0  0
   57.5740   27.9020   46.3430 N   0  0  0  0  0  0  0  0  0  0  0  0
   57.3200   28.9940   45.6810 C   0  0  0  0  0  0  0  0  0  0  0  0
   57.9830   30.1520   45.9480 N   0  0  0  0  0  0  0  0  0  0  0  0
   57.7590   31.2960   45.2460 C   0  0  0  0  0  0  0  0  0  0  0  0
   58.4960   32.5360   45.6280 C   0  0  0  0  0  0  0  0  0  0  0  0
   58.2380   33.7370   44.9380 C   0  0  0  0  0  0  0  0  0  0  0  0
   58.9410   34.9020   45.2490 C   0  0  0  0  0  0  0  0  0  0  0  0
   59.9160   34.8920   46.2430 C   0  0  0  0  0  0  0  0  0  0  0  0
   60.2070   33.7040   46.9290 C   0  0  0  0  0  0  0  0  0  0  0  0
   61.2130   33.6590   47.9510 N   0  0  0  0  0  0  0  0  0  0  0  0
   62.5490   33.1650   47.7860 C   0  0  0  0  0  0  0  0  0  0  0  0
   63.1610   33.4300   46.7170 O   0  0  0  0  0  0  0  0  0  0  0  0
   63.2450   32.4150   48.8580 C   0  0  0  0  0  0  0  0  0  0  0  0
   62.5690   31.4330   49.5940 C   0  0  0  0  0  0  0  0  0  0  0  0
   63.2290   30.7210   50.5910 C   0  0  0  0  0  0  0  0  0  0  0  0
   64.5730   30.9860   50.8990 C   0  0  0  0  0  0  0  0  0  0  0  0
   65.2220   30.1880   51.9110 N   0  0  0  0  0  0  0  0  0  0  0  0
   65.9130   30.8710   53.0090 C   0  0  0  0  0  0  0  0  0  0  0  0
   65.5610   28.7860   51.6050 C   0  0  0  0  0  0  0  0  0  0  0  0
   67.0450   28.6090   51.2440 C   0  0  0  0  0  0  0  0  0  0  0  0
   67.2370   27.5770   50.2040 N   0  0  0  0  0  0  0  0  0  0  0  0
   68.6570   27.4560   49.8290 C   0  0  0  0  0  0  0  0  0  0  0  0
   66.7470   26.2770   50.6880 C   0  0  0  0  0  0  0  0  0  0  0  0
   65.2610   32.0110   50.1920 C   0  0  0  0  0  0  0  0  0  0  0  0
   66.7110   32.3470   50.4720 C   0  0  0  0  0  0  0  0  0  0  0  0
   66.8260   33.0960   51.6260 F   0  0  0  0  0  0  0  0  0  0  0  0
   67.4370   31.1790   50.6110 F   0  0  0  0  0  0  0  0  0  0  0  0
   67.2630   33.0870   49.4390 F   0  0  0  0  0  0  0  0  0  0  0  0
   64.5850   32.6980   49.1650 C   0  0  0  0  0  0  0  0  0  0  0  0
   59.4890   32.5390   46.6290 C   0  0  0  0  0  0  0  0  0  0  0  0
   56.8340   31.2600   44.1870 C   0  0  0  0  0  0  0  0  0  0  0  0
   56.1610   30.0660   43.9250 C   0  0  0  0  0  0  0  0  0  0  0  0
   56.4160   28.9610   44.6710 N   0  0  0  0  0  0  0  0  0  0  0  0
   55.6090   26.3940   46.0110 C   0  0  0  0  0  0  0  0  0  0  0  0
   55.1200   25.1350   45.8510 N   0  0  0  0  0  0  0  0  0  0  0  0
   56.9773   23.5047   43.2837 H   0  0  0  0  0  0  0  0  0  0  0  0
   57.3327   22.2776   42.0209 H   0  0  0  0  0  0  0  0  0  0  0  0
   55.7543   23.1352   42.0209 H   0  0  0  0  0  0  0  0  0  0  0  0
   57.9908   23.3522   45.7317 H   0  0  0  0  0  0  0  0  0  0  0  0
   58.9370   25.6440   46.0306 H   0  0  0  0  0  0  0  0  0  0  0  0
   57.4748   33.7567   44.1461 H   0  0  0  0  0  0  0  0  0  0  0  0
   58.7235   35.8334   44.7057 H   0  0  0  0  0  0  0  0  0  0  0  0
   60.4583   35.8165   46.4903 H   0  0  0  0  0  0  0  0  0  0  0  0
   61.5101   31.2235   49.3825 H   0  0  0  0  0  0  0  0  0  0  0  0
   62.6898   29.9391   51.1459 H   0  0  0  0  0  0  0  0  0  0  0  0
   65.5334   30.4958   53.9709 H   0  0  0  0  0  0  0  0  0  0  0  0
   66.9934   30.6760   52.9400 H   0  0  0  0  0  0  0  0  0  0  0  0
   65.7306   31.9536   52.9400 H   0  0  0  0  0  0  0  0  0  0  0  0
   65.3352   28.1673   52.4860 H   0  0  0  0  0  0  0  0  0  0  0  0
   64.9641   28.4783   50.7338 H   0  0  0  0  0  0  0  0  0  0  0  0
   67.4377   29.5668   50.8721 H   0  0  0  0  0  0  0  0  0  0  0  0
   67.5811   28.2867   52.1488 H   0  0  0  0  0  0  0  0  0  0  0  0
   69.2733   27.4035   50.7386 H   0  0  0  0  0  0  0  0  0  0  0  0
   68.8026   26.5422   49.2342 H   0  0  0  0  0  0  0  0  0  0  0  0
   68.9551   28.3320   49.2342 H   0  0  0  0  0  0  0  0  0  0  0  0
   66.7452   26.2723   51.7880 H   0  0  0  0  0  0  0  0  0  0  0  0
   65.7243   26.1101   50.3189 H   0  0  0  0  0  0  0  0  0  0  0  0
   67.4051   25.4766   50.3189 H   0  0  0  0  0  0  0  0  0  0  0  0
   65.1177   33.4715   48.5923 H   0  0  0  0  0  0  0  0  0  0  0  0
   59.7031   31.6129   47.1826 H   0  0  0  0  0  0  0  0  0  0  0  0
   56.6448   32.1557   43.5772 H   0  0  0  0  0  0  0  0  0  0  0  0
   55.4218   30.0201   43.1117 H   0  0  0  0  0  0  0  0  0  0  0  0
   54.9201   27.2508   46.0474 H   0  0  0  0  0  0  0  0  0  0  0  0
  1  2  1  0
  2  3  1  0
  3  4  2  0
  3  5  1  0
  5  6  2  3
  6  7  1  0
  7  8  2  0
  8  9  1  0
  9 10  1  0
 10 11  2  3
 11 12  1  0
 12 13  2  0
 13 14  1  0
 14 15  2  0
 15 16  1  0
 16 17  2  0
 17 18  1  0
 18 19  1  0
 19 20  1  0
 20 21  2  0
 20 22  1  0
 22 23  2  0
 23 24  1  0
 24 25  2  0
 25 26  1  0
 26 27  1  0
 26 28  1  0
 28 29  1  0
 29 30  1  0
 30 31  1  0
 30 32  1  0
 25 33  1  0
 33 34  1  0
 34 35  1  0
 34 36  1  0
 34 37  1  0
 33 38  2  0
 18 39  2  0
 13 40  1  0
 40 41  2  0
 41 42  1  0
  9 43  2  0
 43 44  1  0
 44  6  1  0
 42 11  1  0
 39 14  1  0
 38 22  1  0
  1 45  1  0
  1 46  1  0
  1 47  1  0
  7 48  1  0
  8 49  1  0
 15 50  1  0
 16 51  1  0
 17 52  1  0
 23 53  1  0
 24 54  1  0
 27 55  1  0
 27 56  1  0
 27 57  1  0
 28 58  1  0
 28 59  1  0
 29 60  1  0
 29 61  1  0
 31 62  1  0
 31 63  1  0
 31 64  1  0
 32 65  1  0
 32 66  1  0
 32 67  1  0
 38 68  1  0
 39 69  1  0
 40 70  1  0
 41 71  1  0
 43 72  1  0
M  CHG  4   2  -1  19  -1  42  -1  44  -1
M  END
>  <UniqueID>  (72) 
66

>  <SMILES>  (72) 
C[N-]C(=O)N=c1ccc(N=c2nc(-c3cccc([N-]C(=O)c4ccc(N(C)CCN(C)C)c(C(F)(F)F)c4)c3)cc[n-]2)c[n-]1

>  <Energy>  (72) 
100.55928262109

>  <Genealogy>  (72) 
C[N-]C(=O)N=c1ccc(N=c2nc(-c3cccc([N-]C(=O)c4ccc(N(C)CCN(C)C)c(C(F)(F)F)c4)c3)cc[n-]2)c[n-]1 (protonated)
C[N-]C(=O)N=c1ccc(N=c2nc(-c3cccc([N-]C(=O)c4ccc(N(C)CCN(C)C)c(C(F)(F)F)c4)c3)cc[n-]2)c[n-]1 (3D coordinates assigned)
C[N-]C(=O)N=c1ccc(N=c2nc(-c3cccc([N-]C(=O)c4ccc(N(C)CCN(C)C)c(C(F)(F)F)c4)c3)cc[n-]2)c[n-]1 (optimized conformer: 100.55928262109 kcal/mol)

>  <smiles>  (72) 
CNC(=O)N=c1ccc(N=c2nc(-c3cccc(NC(=O)c4ccc(N(C)CCN(C)C)c(C(F)(F)F)c4)c3)cc[nH]2)c[nH]1

>  <score_type>  (72) 
oracle

>  <origin>  (72) 
adg

>  <m_score__min__energy>  (72) 
-14.44

>  <m_primary>  (72) 
energy

$$$$
72:0
     RDKit          3D

 57 59  0  0  0  0  0  0  0  0999 V2000
   59.6620   24.9160   45.9830 C   0  0  0  0  0  0  0  0  0  0  0  0
   58.9840   26.2060   45.6010 C   0  0  0  0  0  0  0  0  0  0  0  0
   59.7840   27.3380   45.3730 C   0  0  0  0  0  0  0  0  0  0  0  0
   59.2080   28.5610   45.0310 C   0  0  0  0  0  0  0  0  0  0  0  0
   57.8240   28.6700   44.9000 C   0  0  0  0  0  0  0  0  0  0  0  0
   57.0870   30.2250   44.5130 S   0  0  0  0  0  0  0  0  0  0  0  0
   55.5910   30.1130   44.6290 O   0  0  0  0  0  0  0  0  0  0  0  0
   57.4280   30.5910   43.0950 O   0  0  0  0  0  0  0  0  0  0  0  0
   57.6890   31.4540   45.5970 N   0  0  0  0  0  0  0  0  0  0  0  0
   58.9790   31.0310   46.1730 C   0  0  0  0  0  0  0  0  0  0  0  0
   59.4960   32.0670   47.1960 C   0  0  0  0  0  0  0  0  0  0  0  0
   58.7890   33.3600   47.0790 N   0  0  0  0  0  0  0  0  0  0  0  0
   59.4760   34.3950   47.8770 C   0  0  0  0  0  0  0  0  0  0  0  0
   60.9530   34.1100   47.9500 C   0  0  0  0  0  0  0  0  0  0  0  0
   61.5830   33.9890   49.2000 C   0  0  0  0  0  0  0  0  0  0  0  0
   62.9580   33.7430   49.2740 C   0  0  0  0  0  0  0  0  0  0  0  0
   63.7120   33.6200   48.1040 C   0  0  0  0  0  0  0  0  0  0  0  0
   63.0930   33.7440   46.8570 C   0  0  0  0  0  0  0  0  0  0  0  0
   61.7180   33.9890   46.7780 C   0  0  0  0  0  0  0  0  0  0  0  0
   58.6890   33.7550   45.6610 C   0  0  0  0  0  0  0  0  0  0  0  0
   57.8210   32.7450   44.8840 C   0  0  0  0  0  0  0  0  0  0  0  0
   57.0170   27.5470   45.1110 C   0  0  0  0  0  0  0  0  0  0  0  0
   57.5740   26.3010   45.4430 C   0  0  0  0  0  0  0  0  0  0  0  0
   56.5170   24.8930   45.7360 S   0  0  0  0  0  0  0  0  0  0  0  0
   56.2310   24.2370   44.4130 O   0  0  0  0  0  0  0  0  0  0  0  0
   55.2170   25.3800   46.3150 O   0  0  0  0  0  0  0  0  0  0  0  0
   57.1490   23.6810   46.8310 N   0  0  0  0  0  0  0  0  0  0  0  0
   57.1060   22.3410   46.2310 C   0  0  0  0  0  0  0  0  0  0  0  0
   56.5350   23.7330   48.1690 C   0  0  0  0  0  0  0  0  0  0  0  0
   59.7047   24.8348   47.0792 H   0  0  0  0  0  0  0  0  0  0  0  0
   59.0932   24.0678   45.5744 H   0  0  0  0  0  0  0  0  0  0  0  0
   60.6832   24.9035   45.5744 H   0  0  0  0  0  0  0  0  0  0  0  0
   60.8773   27.2587   45.4653 H   0  0  0  0  0  0  0  0  0  0  0  0
   59.8464   29.4412   44.8643 H   0  0  0  0  0  0  0  0  0  0  0  0
   56.9880   31.5570   46.3690 H   0  0  0  0  0  0  0  0  0  0  0  0
   58.8472   30.0624   46.6775 H   0  0  0  0  0  0  0  0  0  0  0  0
   59.7144   30.9454   45.3594 H   0  0  0  0  0  0  0  0  0  0  0  0
   59.3451   31.6701   48.2108 H   0  0  0  0  0  0  0  0  0  0  0  0
   60.5626   32.2429   46.9925 H   0  0  0  0  0  0  0  0  0  0  0  0
   59.3196   35.3774   47.4075 H   0  0  0  0  0  0  0  0  0  0  0  0
   59.0620   34.3918   48.8961 H   0  0  0  0  0  0  0  0  0  0  0  0
   60.9932   34.0880   50.1232 H   0  0  0  0  0  0  0  0  0  0  0  0
   63.4465   33.6462   50.2548 H   0  0  0  0  0  0  0  0  0  0  0  0
   64.7930   33.4255   48.1644 H   0  0  0  0  0  0  0  0  0  0  0  0
   63.6878   33.6488   45.9366 H   0  0  0  0  0  0  0  0  0  0  0  0
   61.2342   34.0872   45.7950 H   0  0  0  0  0  0  0  0  0  0  0  0
   58.2320   34.7533   45.5938 H   0  0  0  0  0  0  0  0  0  0  0  0
   59.6976   33.7719   45.2223 H   0  0  0  0  0  0  0  0  0  0  0  0
   56.8186   33.1752   44.7422 H   0  0  0  0  0  0  0  0  0  0  0  0
   58.3133   32.5489   43.9201 H   0  0  0  0  0  0  0  0  0  0  0  0
   55.9253   27.6415   45.0151 H   0  0  0  0  0  0  0  0  0  0  0  0
   57.0817   21.5831   47.0278 H   0  0  0  0  0  0  0  0  0  0  0  0
   56.2044   22.2470   45.6079 H   0  0  0  0  0  0  0  0  0  0  0  0
   57.9997   22.1894   45.6079 H   0  0  0  0  0  0  0  0  0  0  0  0
   57.3208   23.6664   48.9359 H   0  0  0  0  0  0  0  0  0  0  0  0
   55.9886   24.6806   48.2851 H   0  0  0  0  0  0  0  0  0  0  0  0
   55.8371   22.8907   48.2851 H   0  0  0  0  0  0  0  0  0  0  0  0
  1  2  1  0
  2  3  2  0
  3  4  1  0
  4  5  2  0
  5  6  1  0
  6  7  2  0
  6  8  2  0
  6  9  1  0
  9 10  1  0
 10 11  1  0
 11 12  1  0
 12 13  1  0
 13 14  1  0
 14 15  2  0
 15 16  1  0
 16 17  2  0
 17 18  1  0
 18 19  2  0
 12 20  1  0
 20 21  1  0
  5 22  1  0
 22 23  2  0
 23 24  1  0
 24 25  2  0
 24 26  2  0
 24 27  1  0
 27 28  1  0
 27 29  1  0
 23  2  1  0
 21  9  1  0
 19 14  1  0
  1 30  1  0
  1 31  1  0
  1 32  1  0
  3 33  1  0
  4 34  1  0
  9 35  1  0
 10 36  1  0
 10 37  1  0
 11 38  1  0
 11 39  1  0
 13 40  1  0
 13 41  1  0
 15 42  1  0
 16 43  1  0
 17 44  1  0
 18 45  1  0
 19 46  1  0
 20 47  1  0
 20 48  1  0
 21 49  1  0
 21 50  1  0
 22 51  1  0
 28 52  1  0
 28 53  1  0
 28 54  1  0
 29 55  1  0
 29 56  1  0
 29 57  1  0
M  CHG  1   9   1
M  END
>  <UniqueID>  (73) 
67

>  <SMILES>  (73) 
Cc1ccc(S(=O)(=O)[NH+]2CCN(Cc3ccccc3)CC2)cc1S(=O)(=O)N(C)C

>  <Energy>  (73) 
69.95077337888482

>  <Genealogy>  (73) 
Cc1ccc(S(=O)(=O)[NH+]2CCN(Cc3ccccc3)CC2)cc1S(=O)(=O)N(C)C (protonated)
Cc1ccc(S(=O)(=O)[NH+]2CCN(Cc3ccccc3)CC2)cc1S(=O)(=O)N(C)C (3D coordinates assigned)
Cc1ccc(S(=O)(=O)[NH+]2CCN(Cc3ccccc3)CC2)cc1S(=O)(=O)N(C)C (nonaromatic ring conformer: 69.95077337888482 kcal/mol)

>  <smiles>  (73) 
Cc1ccc(S(=O)(=O)N2CCN(Cc3ccccc3)CC2)cc1S(=O)(=O)N(C)C

>  <score_type>  (73) 
oracle

>  <origin>  (73) 
adg

>  <m_score__min__energy>  (73) 
-9.2300000000000004

>  <m_primary>  (73) 
energy

$$$$
73:0
     RDKit          3D

 48 51  0  0  0  0  0  0  0  0999 V2000
   60.8277   29.9796   47.4493 H   0  0  0  0  0  0  0  0  0  0  0  0
   60.2070   29.4310   48.1730 C   0  0  0  0  0  0  0  0  0  0  0  0
   60.0760   28.1030   48.0340 C   0  0  0  0  0  0  0  0  0  0  0  0
   60.7826   27.4531   48.5710 H   0  0  0  0  0  0  0  0  0  0  0  0
   59.0320   27.4610   47.1970 C   0  0  0  0  0  0  0  0  0  0  0  0
   59.1310   26.0850   46.9420 C   0  0  0  0  0  0  0  0  0  0  0  0
   59.9746   25.5129   47.3555 H   0  0  0  0  0  0  0  0  0  0  0  0
   58.1680   25.4360   46.1680 C   0  0  0  0  0  0  0  0  0  0  0  0
   58.2471   24.3536   45.9885 H   0  0  0  0  0  0  0  0  0  0  0  0
   57.1050   26.1560   45.6210 C   0  0  0  0  0  0  0  0  0  0  0  0
   56.3386   25.6348   45.0285 H   0  0  0  0  0  0  0  0  0  0  0  0
   57.0090   27.5360   45.8220 C   0  0  0  0  0  0  0  0  0  0  0  0
   55.8970   28.2370   45.2440 N   0  0  0  0  0  0  0  0  0  0  0  0
   55.9550   29.3990   44.4060 C   0  0  0  0  0  0  0  0  0  0  0  0
   54.9160   29.8320   43.8400 O   0  0  0  0  0  0  0  0  0  0  0  0
   57.1940   30.0830   44.1950 N   0  0  0  0  0  0  0  0  0  0  0  0
   57.6130   31.2950   44.8380 C   0  0  0  0  0  0  0  0  0  0  0  0
   58.1290   31.3030   46.1450 C   0  0  0  0  0  0  0  0  0  0  0  0
   58.2368   30.3576   46.6969 H   0  0  0  0  0  0  0  0  0  0  0  0
   58.5060   32.5070   46.7470 C   0  0  0  0  0  0  0  0  0  0  0  0
   58.9222   32.5012   47.7652 H   0  0  0  0  0  0  0  0  0  0  0  0
   58.3580   33.7200   46.0640 C   0  0  0  0  0  0  0  0  0  0  0  0
   58.7540   34.9010   46.7100 O   0  0  0  0  0  0  0  0  0  0  0  0
   59.6800   34.9530   47.7910 C   0  0  0  0  0  0  0  0  0  0  0  0
   59.1325   34.9223   48.7446 H   0  0  0  0  0  0  0  0  0  0  0  0
   60.3617   34.0917   47.7316 H   0  0  0  0  0  0  0  0  0  0  0  0
   60.2610   35.8852   47.7316 H   0  0  0  0  0  0  0  0  0  0  0  0
   57.8170   33.7150   44.7650 C   0  0  0  0  0  0  0  0  0  0  0  0
   57.6895   34.6620   44.2201 H   0  0  0  0  0  0  0  0  0  0  0  0
   57.4410   32.5090   44.1650 C   0  0  0  0  0  0  0  0  0  0  0  0
   57.0061   32.5152   43.1547 H   0  0  0  0  0  0  0  0  0  0  0  0
   57.9650   28.1870   46.6250 C   0  0  0  0  0  0  0  0  0  0  0  0
   57.8799   29.2684   46.8078 H   0  0  0  0  0  0  0  0  0  0  0  0
   59.5520   30.1830   49.2570 C   0  0  0  0  0  0  0  0  0  0  0  0
   58.5770   29.5800   49.9880 N   0  0  0  0  0  0  0  0  0  0  0  0
   57.9390   30.2280   50.9980 C   0  0  0  0  0  0  0  0  0  0  0  0
   57.0420   29.6290   51.6480 O   0  0  0  0  0  0  0  0  0  0  0  0
   58.2880   31.5550   51.3010 C   0  0  0  0  0  0  0  0  0  0  0  0
   57.6680   32.2840   52.3330 C   0  0  0  0  0  0  0  0  0  0  0  0
   56.8776   31.8166   52.9387 H   0  0  0  0  0  0  0  0  0  0  0  0
   58.0570   33.6020   52.5880 C   0  0  0  0  0  0  0  0  0  0  0  0
   57.5705   34.1702   53.3945 H   0  0  0  0  0  0  0  0  0  0  0  0
   59.0610   34.2010   51.8230 C   0  0  0  0  0  0  0  0  0  0  0  0
   59.3622   35.2387   52.0291 H   0  0  0  0  0  0  0  0  0  0  0  0
   59.6840   33.4850   50.7960 C   0  0  0  0  0  0  0  0  0  0  0  0
   60.4747   33.9590   50.1959 H   0  0  0  0  0  0  0  0  0  0  0  0
   59.3010   32.1650   50.5320 C   0  0  0  0  0  0  0  0  0  0  0  0
   59.9050   31.4680   49.5340 N   0  0  0  0  0  0  0  0  0  0  0  0
  1  2  1  0
  2  3  2  0
  3  4  1  0
  3  5  1  0
  5  6  2  0
  6  7  1  0
  6  8  1  0
  8  9  1  0
  8 10  2  0
 10 11  1  0
 10 12  1  0
 12 13  1  0
 13 14  1  0
 14 15  2  0
 14 16  1  0
 16 17  1  0
 17 18  2  0
 18 19  1  0
 18 20  1  0
 20 21  1  0
 20 22  2  0
 22 23  1  0
 23 24  1  0
 24 25  1  0
 24 26  1  0
 24 27  1  0
 22 28  1  0
 28 29  1  0
 28 30  2  0
 30 31  1  0
 12 32  2  0
 32 33  1  0
  2 34  1  0
 34 35  2  0
 35 36  1  0
 36 37  2  0
 36 38  1  0
 38 39  2  0
 39 40  1  0
 39 41  1  0
 41 42  1  0
 41 43  2  0
 43 44  1  0
 43 45  1  0
 45 46  1  0
 45 47  2  0
 47 48  1  0
 32  5  1  0
 48 34  1  0
 30 17  1  0
 47 38  1  0
M  CHG  3  13  -1  16  -1  48  -1
M  END
>  <UniqueID>  (74) 
68

>  <SMILES>  (74) 
COc1ccc([N-]C(=O)[N-]c2cccc(/C=C/c3nc(=O)c4ccccc4[n-]3)c2)cc1

>  <Energy>  (74) 
65.76974430954742

>  <Genealogy>  (74) 
COc1ccc([N-]C(=O)[N-]c2cccc(C=Cc3nc(=O)c4ccccc4[n-]3)c2)cc1 (protonated)
COc1ccc([N-]C(=O)[N-]c2cccc(/C=C/c3nc(=O)c4ccccc4[n-]3)c2)cc1 (cis-trans isomerization)
COc1ccc([N-]C(=O)[N-]c2cccc(/C=C/c3nc(=O)c4ccccc4[n-]3)c2)cc1 (3D coordinates assigned)
COc1ccc([N-]C(=O)[N-]c2cccc(/C=C/c3nc(=O)c4ccccc4[n-]3)c2)cc1 (optimized conformer: 65.76974430954742 kcal/mol)

>  <smiles>  (74) 
COc1ccc(NC(=O)Nc2cccc(C=Cc3nc(=O)c4ccccc4[nH]3)c2)cc1

>  <score_type>  (74) 
oracle

>  <origin>  (74) 
adg

>  <m_score__min__energy>  (74) 
-14.859999999999999

>  <m_primary>  (74) 
energy

$$$$
74:0
     RDKit          3D

 39 40  0  0  0  0  0  0  0  0999 V2000
   59.6520   22.0960   44.5200 C   0  0  0  0  0  0  0  0  0  0  0  0
   59.3460   22.9330   45.6310 O   0  0  0  0  0  0  0  0  0  0  0  0
   58.2250   23.7500   45.7440 N   0  0  0  0  0  0  0  0  0  0  0  0
   58.4610   25.0910   45.7620 C   0  0  0  0  0  0  0  0  0  0  0  0
   57.4160   26.0160   45.8830 C   0  0  0  0  0  0  0  0  0  0  0  0
   57.7340   27.4700   45.9160 C   0  0  0  0  0  0  0  0  0  0  0  0
   57.8700   28.0390   47.0340 O   0  0  0  0  0  0  0  0  0  0  0  0
   57.8510   28.3090   44.6700 C   0  0  0  0  0  0  0  0  0  0  0  0
   56.7170   29.2900   44.5720 C   0  0  0  0  0  0  0  0  0  0  0  0
   55.5460   28.9000   44.8270 O   0  0  0  0  0  0  0  0  0  0  0  0
   56.9660   30.7090   44.2370 C   0  0  0  0  0  0  0  0  0  0  0  0
   57.2290   31.0290   43.0480 O   0  0  0  0  0  0  0  0  0  0  0  0
   56.9890   31.7300   45.2440 N   0  0  0  0  0  0  0  0  0  0  0  0
   58.1410   32.4730   45.6730 C   0  0  0  0  0  0  0  0  0  0  0  0
   59.2130   31.8300   46.3210 C   0  0  0  0  0  0  0  0  0  0  0  0
   60.3190   32.5660   46.7570 C   0  0  0  0  0  0  0  0  0  0  0  0
   61.6540   31.7520   47.5530 Cl  0  0  0  0  0  0  0  0  0  0  0  0
   60.3560   33.9480   46.5680 C   0  0  0  0  0  0  0  0  0  0  0  0
   59.2870   34.6010   45.9510 C   0  0  0  0  0  0  0  0  0  0  0  0
   58.1700   33.8730   45.5070 C   0  0  0  0  0  0  0  0  0  0  0  0
   57.0240   34.5860   44.8430 C   0  0  0  0  0  0  0  0  0  0  0  0
   56.1080   25.5090   45.9580 C   0  0  0  0  0  0  0  0  0  0  0  0
   55.1150   26.2840   46.0170 O   0  0  0  0  0  0  0  0  0  0  0  0
   55.9010   24.1680   45.9430 N   0  0  0  0  0  0  0  0  0  0  0  0
   56.9340   23.2880   45.8390 C   0  0  0  0  0  0  0  0  0  0  0  0
   56.6790   22.0550   45.8300 O   0  0  0  0  0  0  0  0  0  0  0  0
   60.0086   21.1207   44.8829 H   0  0  0  0  0  0  0  0  0  0  0  0
   58.7484   21.9520   43.9095 H   0  0  0  0  0  0  0  0  0  0  0  0
   60.4354   22.5688   43.9095 H   0  0  0  0  0  0  0  0  0  0  0  0
   59.4954   25.4561   45.6797 H   0  0  0  0  0  0  0  0  0  0  0  0
   58.8024   28.8606   44.6959 H   0  0  0  0  0  0  0  0  0  0  0  0
   57.8147   27.6434   43.7950 H   0  0  0  0  0  0  0  0  0  0  0  0
   59.1802   30.7428   46.4851 H   0  0  0  0  0  0  0  0  0  0  0  0
   61.2297   34.5246   46.9060 H   0  0  0  0  0  0  0  0  0  0  0  0
   59.3194   35.6917   45.8117 H   0  0  0  0  0  0  0  0  0  0  0  0
   56.3559   35.0016   45.6117 H   0  0  0  0  0  0  0  0  0  0  0  0
   57.4135   35.4015   44.2159 H   0  0  0  0  0  0  0  0  0  0  0  0
   56.4645   33.8763   44.2159 H   0  0  0  0  0  0  0  0  0  0  0  0
   54.9230   23.8020   46.0040 H   0  0  0  0  0  0  0  0  0  0  0  0
  1  2  1  0
  2  3  1  0
  3  4  1  0
  4  5  2  0
  5  6  1  0
  6  7  2  0
  6  8  1  0
  8  9  1  0
  9 10  2  0
  9 11  1  0
 11 12  2  0
 11 13  1  0
 13 14  1  0
 14 15  2  0
 15 16  1  0
 16 17  1  0
 16 18  2  0
 18 19  1  0
 19 20  2  0
 20 21  1  0
  5 22  1  0
 22 23  2  0
 22 24  1  0
 24 25  1  0
 25 26  2  0
 25  3  1  0
 20 14  1  0
  1 27  1  0
  1 28  1  0
  1 29  1  0
  4 30  1  0
  8 31  1  0
  8 32  1  0
 15 33  1  0
 18 34  1  0
 19 35  1  0
 21 36  1  0
 21 37  1  0
 21 38  1  0
 24 39  1  0
M  CHG  1  13  -1
M  END
>  <UniqueID>  (75) 
69

>  <SMILES>  (75) 
COn1cc(C(=O)CC(=O)C(=O)[N-]c2cc(Cl)ccc2C)c(=O)[nH]c1=O

>  <Energy>  (75) 
52.31435090840521

>  <Genealogy>  (75) 
COn1cc(C(=O)CC(=O)C(=O)[N-]c2cc(Cl)ccc2C)c(=O)[nH]c1=O (protonated)
COn1cc(C(=O)CC(=O)C(=O)[N-]c2cc(Cl)ccc2C)c(=O)[nH]c1=O (3D coordinates assigned)
COn1cc(C(=O)CC(=O)C(=O)[N-]c2cc(Cl)ccc2C)c(=O)[nH]c1=O (optimized conformer: 52.31435090840521 kcal/mol)

>  <smiles>  (75) 
COn1cc(C(=O)CC(=O)C(=O)Nc2cc(Cl)ccc2C)c(=O)[nH]c1=O

>  <score_type>  (75) 
oracle

>  <origin>  (75) 
adg

>  <m_score__min__energy>  (75) 
-10.42

>  <m_primary>  (75) 
energy

$$$$
75:0
     RDKit          3D

 44 46  0  0  0  0  0  0  0  0999 V2000
   56.9580   21.6090   43.0250 C   0  0  0  0  0  0  0  0  0  0  0  0
   55.8970   22.5020   42.7780 O   0  0  0  0  0  0  0  0  0  0  0  0
   55.8920   23.5120   43.7640 C   0  0  0  0  0  0  0  0  0  0  0  0
   55.5640   22.9090   45.1300 C   0  0  0  0  0  0  0  0  0  0  0  0
   55.6730   23.8890   46.1630 O   0  0  0  0  0  0  0  0  0  0  0  0
   56.4560   25.0570   46.1220 C   0  0  0  0  0  0  0  0  0  0  0  0
   57.8640   25.0360   46.1830 C   0  0  0  0  0  0  0  0  0  0  0  0
   58.5960   26.2360   46.1330 C   0  0  0  0  0  0  0  0  0  0  0  0
   60.0000   26.2620   46.1890 C   0  0  0  0  0  0  0  0  0  0  0  0
   60.6670   25.1960   46.2930 O   0  0  0  0  0  0  0  0  0  0  0  0
   60.6640   27.4870   46.1330 C   0  0  0  0  0  0  0  0  0  0  0  0
   59.9160   28.6680   46.0110 C   0  0  0  0  0  0  0  0  0  0  0  0
   60.5500   29.9530   45.9630 N   0  0  0  0  0  0  0  0  0  0  0  0
   60.0210   31.1820   46.4770 C   0  0  0  0  0  0  0  0  0  0  0  0
   60.8010   31.9820   47.0580 O   0  0  0  0  0  0  0  0  0  0  0  0
   58.5550   31.5150   46.3910 C   0  0  0  0  0  0  0  0  0  0  0  0
   58.1110   31.5830   44.9550 C   0  0  0  0  0  0  0  0  0  0  0  0
   57.3320   30.5530   44.4000 C   0  0  0  0  0  0  0  0  0  0  0  0
   56.9460   30.6080   43.0570 C   0  0  0  0  0  0  0  0  0  0  0  0
   57.3410   31.6850   42.2570 C   0  0  0  0  0  0  0  0  0  0  0  0
   56.9670   31.7350   40.9550 F   0  0  0  0  0  0  0  0  0  0  0  0
   58.1260   32.7060   42.7980 C   0  0  0  0  0  0  0  0  0  0  0  0
   58.5140   32.6560   44.1410 C   0  0  0  0  0  0  0  0  0  0  0  0
   58.5870   28.6110   45.9790 O   0  0  0  0  0  0  0  0  0  0  0  0
   57.9120   27.4660   46.0290 C   0  0  0  0  0  0  0  0  0  0  0  0
   56.5160   27.4840   45.9810 C   0  0  0  0  0  0  0  0  0  0  0  0
   55.7930   26.2890   46.0280 C   0  0  0  0  0  0  0  0  0  0  0  0
   54.4040   26.3290   45.9760 O   0  0  0  0  0  0  0  0  0  0  0  0
   57.0950   21.4937   44.1103 H   0  0  0  0  0  0  0  0  0  0  0  0
   56.7254   20.6308   42.5788 H   0  0  0  0  0  0  0  0  0  0  0  0
   57.8821   22.0051   42.5788 H   0  0  0  0  0  0  0  0  0  0  0  0
   56.8836   23.9866   43.8041 H   0  0  0  0  0  0  0  0  0  0  0  0
   55.1290   24.2619   43.5082 H   0  0  0  0  0  0  0  0  0  0  0  0
   54.5361   22.5177   45.1127 H   0  0  0  0  0  0  0  0  0  0  0  0
   56.2812   22.1011   45.3371 H   0  0  0  0  0  0  0  0  0  0  0  0
   58.3934   24.0757   46.2702 H   0  0  0  0  0  0  0  0  0  0  0  0
   61.7621   27.5271   46.1839 H   0  0  0  0  0  0  0  0  0  0  0  0
   57.9765   30.7378   46.9119 H   0  0  0  0  0  0  0  0  0  0  0  0
   58.3856   32.4948   46.8615 H   0  0  0  0  0  0  0  0  0  0  0  0
   57.0250   29.7008   45.0241 H   0  0  0  0  0  0  0  0  0  0  0  0
   56.3307   29.8028   42.6291 H   0  0  0  0  0  0  0  0  0  0  0  0
   58.4395   33.5506   42.1669 H   0  0  0  0  0  0  0  0  0  0  0  0
   59.1367   33.4592   44.5617 H   0  0  0  0  0  0  0  0  0  0  0  0
   55.9833   28.4434   45.9058 H   0  0  0  0  0  0  0  0  0  0  0  0
  1  2  1  0
  2  3  1  0
  3  4  1  0
  4  5  1  0
  5  6  1  0
  6  7  2  0
  7  8  1  0
  8  9  1  0
  9 10  2  0
  9 11  1  0
 11 12  2  0
 12 13  1  0
 13 14  1  0
 14 15  2  0
 14 16  1  0
 16 17  1  0
 17 18  2  0
 18 19  1  0
 19 20  2  0
 20 21  1  0
 20 22  1  0
 22 23  2  0
 12 24  1  0
 24 25  1  0
 25 26  1  0
 26 27  2  0
 27 28  1  0
 27  6  1  0
 25  8  2  0
 23 17  1  0
  1 29  1  0
  1 30  1  0
  1 31  1  0
  3 32  1  0
  3 33  1  0
  4 34  1  0
  4 35  1  0
  7 36  1  0
 11 37  1  0
 16 38  1  0
 16 39  1  0
 18 40  1  0
 19 41  1  0
 22 42  1  0
 23 43  1  0
 26 44  1  0
M  CHG  2  13  -1  28  -1
M  END
>  <UniqueID>  (76) 
70

>  <SMILES>  (76) 
COCCOc1cc2c(=O)cc([N-]C(=O)Cc3ccc(F)cc3)oc2cc1[O-]

>  <Energy>  (76) 
55.776785742779865

>  <Genealogy>  (76) 
COCCOc1cc2c(=O)cc([N-]C(=O)Cc3ccc(F)cc3)oc2cc1[O-] (protonated)
COCCOc1cc2c(=O)cc([N-]C(=O)Cc3ccc(F)cc3)oc2cc1[O-] (3D coordinates assigned)
COCCOc1cc2c(=O)cc([N-]C(=O)Cc3ccc(F)cc3)oc2cc1[O-] (optimized conformer: 55.776785742779865 kcal/mol)

>  <smiles>  (76) 
COCCOc1cc2c(=O)cc(NC(=O)Cc3ccc(F)cc3)oc2cc1O

>  <score_type>  (76) 
oracle

>  <origin>  (76) 
adg

>  <m_score__min__energy>  (76) 
-12.35

>  <m_primary>  (76) 
energy

$$$$
76:0
     RDKit          3D

 44 48  0  0  1  0  0  0  0  0999 V2000
   58.1680   27.6810   43.7070 C   0  0  0  0  0  0  0  0  0  0  0  0
   58.6180   27.6790   45.1670 C   0  0  0  0  0  0  0  0  0  0  0  0
   59.1820   26.4860   45.6500 C   0  0  0  0  0  0  0  0  0  0  0  0
   59.5680   26.9230   47.4120 S   0  0  0  0  0  0  0  0  0  0  0  0
   59.5440   33.1300   48.4730 C   0  0  0  0  0  0  0  0  0  0  0  0
   59.8680   34.0310   49.3220 N   0  0  0  0  0  0  0  0  0  0  0  0
   59.0630   30.9070   47.8800 C   0  0  0  0  0  0  0  0  0  0  0  0
   59.4170   31.8090   48.8640 C   0  0  0  0  0  0  0  0  0  0  0  0
   58.9170   28.6370   47.2360 C   0  0  0  0  0  0  0  0  0  0  0  0
   58.9010   29.5000   48.1670 N   0  0  0  0  0  0  0  0  0  0  0  0
   61.2440   34.4910   49.3550 C   0  0  0  0  0  0  0  0  0  0  0  0
   62.1990   33.4060   49.8470 C   0  0  0  0  0  0  0  0  0  0  0  0
   62.2410   33.8090   48.4170 C   0  0  0  0  0  0  0  0  0  0  0  0
   59.3330   33.5270   47.1920 N   0  0  0  0  0  0  0  0  0  0  0  0
   59.4070   34.7450   46.6300 N   0  0  0  0  0  0  0  0  0  0  0  0
   59.1100   34.6110   45.3330 C   0  0  0  0  0  0  0  0  0  0  0  0
   58.8420   33.2820   45.0690 C   0  0  0  0  0  0  0  0  0  0  0  0
   58.5090   32.7190   43.9260 C   0  0  0  0  0  0  0  0  0  0  0  0
   57.4880   31.6760   43.8140 C   0  0  0  0  0  0  0  0  0  0  0  0
   56.8680   31.0370   44.8410 N   0  0  0  0  0  0  0  0  0  0  0  0
   56.0050   30.1560   44.2930 C   0  0  0  0  0  0  0  0  0  0  0  0
   55.2190   29.3500   44.8760 O   0  0  0  0  0  0  0  0  0  0  0  0
   56.0820   30.2410   42.9390 N   0  0  0  0  0  0  0  0  0  0  0  0
   56.9950   31.1770   42.6190 C   0  0  0  0  0  0  0  0  0  0  0  0
   57.3950   31.5910   41.3580 O   0  0  0  0  0  0  0  0  0  0  0  0
   58.9910   32.6250   46.2550 C   0  0  0  0  0  0  0  0  0  0  0  0
   58.8590   31.3340   46.6070 N   0  0  0  0  0  0  0  0  0  0  0  0
   58.4980   28.6930   45.9340 N   0  0  0  0  0  0  0  0  0  0  0  0
   57.0689   27.6859   43.6621 H   0  0  0  0  0  0  0  0  0  0  0  0
   58.5595   28.5774   43.2039 H   0  0  0  0  0  0  0  0  0  0  0  0
   58.5515   26.7811   43.2039 H   0  0  0  0  0  0  0  0  0  0  0  0
   59.3512   25.5371   45.1200 H   0  0  0  0  0  0  0  0  0  0  0  0
   59.5889   31.4938   49.9038 H   0  0  0  0  0  0  0  0  0  0  0  0
   61.0092   35.5421   49.5789 H   0  0  0  0  0  0  0  0  0  0  0  0
   63.0315   33.6716   50.5151 H   0  0  0  0  0  0  0  0  0  0  0  0
   62.0742   32.4498   50.3762 H   0  0  0  0  0  0  0  0  0  0  0  0
   63.1039   34.3720   48.0317 H   0  0  0  0  0  0  0  0  0  0  0  0
   62.1596   33.2727   47.4601 H   0  0  0  0  0  0  0  0  0  0  0  0
   59.0834   35.4270   44.5958 H   0  0  0  0  0  0  0  0  0  0  0  0
   59.0230   33.0485   43.0110 H   0  0  0  0  0  0  0  0  0  0  0  0
   57.0190   31.1880   45.8700 H   0  0  0  0  0  0  0  0  0  0  0  0
   55.5490   29.7000   42.2190 H   0  0  0  0  0  0  0  0  0  0  0  0
   58.3700   31.5900   41.0540 H   0  0  0  0  0  0  0  0  0  0  0  0
   58.0750   29.6350   45.6220 H   0  0  0  0  0  0  0  0  0  0  0  0
  1  2  1  0
  2  3  2  0
  3  4  1  0
  4  5  1  0
  5  6  2  0
  6  7  1  0
  7  8  2  0
  8  9  1  0
  9 10  2  0
 10 11  1  0
 11 12  1  0
 12 13  1  0
  9 14  1  0
 14 15  1  0
 15 16  2  0
 16 17  1  0
 17 18  2  0
 18 19  1  0
 19 20  1  0
 20 21  1  0
 21 22  2  0
 21 23  1  0
 23 24  1  0
 24 25  1  0
 17 26  1  0
 26 27  2  0
  5 28  1  0
 28  2  1  0
 27  7  1  0
 13 11  1  0
 26 14  1  0
 24 19  2  0
  1 29  1  0
  1 30  1  0
  1 31  1  0
  3 32  1  0
  8 33  1  0
 11 34  1  0
 12 35  1  0
 12 36  1  0
 13 37  1  0
 13 38  1  0
 16 39  1  0
 18 40  1  0
 20 41  1  0
 23 42  1  0
 25 43  1  0
 28 44  1  0
M  END
>  <smiles>  (77) 
Cc1csc(=Nc2cc(=NC3CC3)n3ncc(=Cc4[nH]c(=O)[nH]c4O)c3n2)[nH]1

>  <score_type>  (77) 
oracle

>  <origin>  (77) 
adg

>  <m_score__min__energy>  (77) 
-9

>  <m_primary>  (77) 
energy

$$$$
77:0
     RDKit          3D

 43 44  0  0  0  0  0  0  0  0999 V2000
   54.8800   26.3070   45.9670 N   0  0  0  0  0  0  0  0  0  0  0  0
   56.5510   25.8690   45.9370 S   0  0  0  0  0  0  0  0  0  0  0  0
   56.7610   24.7510   44.9540 O   0  0  0  0  0  0  0  0  0  0  0  0
   56.9650   25.3960   47.3030 O   0  0  0  0  0  0  0  0  0  0  0  0
   57.5170   27.2640   45.4650 C   0  0  0  0  0  0  0  0  0  0  0  0
   58.8680   27.0980   45.1340 C   0  0  0  0  0  0  0  0  0  0  0  0
   59.6320   28.1970   44.7370 C   0  0  0  0  0  0  0  0  0  0  0  0
   59.0530   29.4690   44.6720 C   0  0  0  0  0  0  0  0  0  0  0  0
   57.7020   29.6490   45.0170 C   0  0  0  0  0  0  0  0  0  0  0  0
   57.0600   30.9300   44.9390 N   0  0  0  0  0  0  0  0  0  0  0  0
   57.5120   32.0700   44.1970 C   0  0  0  0  0  0  0  0  0  0  0  0
   57.4400   32.0950   42.9400 O   0  0  0  0  0  0  0  0  0  0  0  0
   58.0860   33.2430   44.9280 C   0  0  0  0  0  0  0  0  0  0  0  0
   58.2930   32.8920   46.3430 N   0  0  0  0  0  0  0  0  0  0  0  0
   59.6920   32.5530   46.6850 C   0  0  0  0  0  0  0  0  0  0  0  0
   59.7720   31.1840   47.4080 C   0  0  0  0  0  0  0  0  0  0  0  0
   61.1910   30.5980   47.4930 C   0  0  0  0  0  0  0  0  0  0  0  0
   62.2520   31.5300   48.0990 C   0  0  0  0  0  0  0  0  0  0  0  0
   62.7750   32.6100   47.1350 C   0  0  0  0  0  0  0  0  0  0  0  0
   61.9190   33.8970   47.0200 C   0  0  0  0  0  0  0  0  0  0  0  0
   60.4320   33.7370   47.3910 C   0  0  0  0  0  0  0  0  0  0  0  0
   56.9350   28.5370   45.3900 C   0  0  0  0  0  0  0  0  0  0  0  0
   54.7770   27.0730   46.6710 H   0  0  0  0  0  0  0  0  0  0  0  0
   59.3277   26.1001   45.1870 H   0  0  0  0  0  0  0  0  0  0  0  0
   60.6918   28.0625   44.4747 H   0  0  0  0  0  0  0  0  0  0  0  0
   59.6564   30.3306   44.3501 H   0  0  0  0  0  0  0  0  0  0  0  0
   59.0493   33.5205   44.4752 H   0  0  0  0  0  0  0  0  0  0  0  0
   57.3888   34.0912   44.8609 H   0  0  0  0  0  0  0  0  0  0  0  0
   57.6870   32.0720   46.5840 H   0  0  0  0  0  0  0  0  0  0  0  0
   60.2624   32.4137   45.7548 H   0  0  0  0  0  0  0  0  0  0  0  0
   59.3896   31.3115   48.4315 H   0  0  0  0  0  0  0  0  0  0  0  0
   59.1734   30.4775   46.8143 H   0  0  0  0  0  0  0  0  0  0  0  0
   61.1464   29.6880   48.1093 H   0  0  0  0  0  0  0  0  0  0  0  0
   61.5060   30.4131   46.4554 H   0  0  0  0  0  0  0  0  0  0  0  0
   61.8101   32.0328   48.9718 H   0  0  0  0  0  0  0  0  0  0  0  0
   63.1136   30.8976   48.3591 H   0  0  0  0  0  0  0  0  0  0  0  0
   63.7794   32.9041   47.4735 H   0  0  0  0  0  0  0  0  0  0  0  0
   62.7505   32.1499   46.1361 H   0  0  0  0  0  0  0  0  0  0  0  0
   62.3554   34.6555   47.6865 H   0  0  0  0  0  0  0  0  0  0  0  0
   61.9375   34.1794   45.9570 H   0  0  0  0  0  0  0  0  0  0  0  0
   60.3677   33.5787   48.4776 H   0  0  0  0  0  0  0  0  0  0  0  0
   59.9322   34.6556   47.0499 H   0  0  0  0  0  0  0  0  0  0  0  0
   55.8681   28.6641   45.6257 H   0  0  0  0  0  0  0  0  0  0  0  0
  1  2  1  0
  2  3  2  0
  2  4  2  0
  2  5  1  0
  5  6  2  0
  6  7  1  0
  7  8  2  0
  8  9  1  0
  9 10  1  0
 10 11  1  0
 11 12  2  0
 11 13  1  0
 13 14  1  0
 14 15  1  0
 15 16  1  0
 16 17  1  0
 17 18  1  0
 18 19  1  0
 19 20  1  0
 20 21  1  0
  9 22  2  0
 22  5  1  0
 21 15  1  0
  1 23  1  0
  6 24  1  0
  7 25  1  0
  8 26  1  0
 13 27  1  0
 13 28  1  0
 14 29  1  0
 15 30  1  0
 16 31  1  0
 16 32  1  0
 17 33  1  0
 17 34  1  0
 18 35  1  0
 18 36  1  0
 19 37  1  0
 19 38  1  0
 20 39  1  0
 20 40  1  0
 21 41  1  0
 21 42  1  0
 22 43  1  0
M  CHG  2   1  -1  10  -1
M  END
>  <UniqueID>  (78) 
71

>  <SMILES>  (78) 
[NH-]S(=O)(=O)c1cccc([N-]C(=O)CNC2CCCCCC2)c1

>  <Energy>  (78) 
54.86685961905556

>  <Genealogy>  (78) 
[NH-]S(=O)(=O)c1cccc([N-]C(=O)CNC2CCCCCC2)c1 (protonated)
[NH-]S(=O)(=O)c1cccc([N-]C(=O)CNC2CCCCCC2)c1 (3D coordinates assigned)
[NH-]S(=O)(=O)c1cccc([N-]C(=O)CNC2CCCCCC2)c1 (nonaromatic ring conformer: 54.86685961905556 kcal/mol)

>  <smiles>  (78) 
NS(=O)(=O)c1cccc(NC(=O)CNC2CCCCCC2)c1

>  <score_type>  (78) 
oracle

>  <origin>  (78) 
adg

>  <m_score__min__energy>  (78) 
-10.24

>  <m_primary>  (78) 
energy

$$$$
78:0
     RDKit          3D

 67 71  0  0  1  0  0  0  0  0999 V2000
   50.3350   34.8310   54.7910 C   0  0  0  0  0  0  0  0  0  0  0  0
   50.3410   33.3790   54.7280 N   0  0  0  0  0  0  0  0  0  0  0  0
   50.3060   32.7820   53.4310 C   0  0  0  0  0  0  0  0  0  0  0  0
   50.2710   33.5010   52.3760 O   0  0  0  0  0  0  0  0  0  0  0  0
   50.3090   31.3010   53.2590 C   0  0  0  0  0  0  0  0  0  0  0  0
   51.5210   30.7170   53.8240 N   0  0  0  0  0  0  0  0  0  0  0  0
   51.6300   30.2730   55.0980 C   0  0  0  0  0  0  0  0  0  0  0  0
   52.8910   29.7870   55.3070 C   0  0  0  0  0  0  0  0  0  0  0  0
   53.5620   29.9460   54.1110 C   0  0  0  0  0  0  0  0  0  0  0  0
   54.8580   29.6400   53.7240 C   0  0  0  0  0  0  0  0  0  0  0  0
   55.2710   29.9160   52.4330 C   0  0  0  0  0  0  0  0  0  0  0  0
   56.6180   29.5860   52.0640 N   0  0  0  0  0  0  0  0  0  0  0  0
   57.3610   30.5420   51.5660 C   0  0  0  0  0  0  0  0  0  0  0  0
   58.1160   30.2820   50.4870 N   0  0  0  0  0  0  0  0  0  0  0  0
   58.9120   31.1940   49.8980 C   0  0  0  0  0  0  0  0  0  0  0  0
   59.7110   30.9460   48.7680 N   0  0  0  0  0  0  0  0  0  0  0  0
   59.2020   30.1610   47.6960 C   0  0  0  0  0  0  0  0  0  0  0  0
   59.7550   29.0950   47.3470 O   0  0  0  0  0  0  0  0  0  0  0  0
   58.0720   30.5610   47.0020 O   0  0  0  0  0  0  0  0  0  0  0  0
   58.0880   31.3790   45.8800 C   0  0  0  0  0  0  0  0  0  0  0  0
   58.1440   32.7660   46.0000 C   0  0  0  0  0  0  0  0  0  0  0  0
   58.1870   33.4090   47.3380 C   0  0  0  0  0  0  0  0  0  0  0  0
   58.1600   33.5760   44.8850 C   0  0  0  0  0  0  0  0  0  0  0  0
   58.1200   32.9670   43.6580 C   0  0  0  0  0  0  0  0  0  0  0  0
   58.0640   31.5800   43.5110 C   0  0  0  0  0  0  0  0  0  0  0  0
   58.0490   30.7980   44.6520 C   0  0  0  0  0  0  0  0  0  0  0  0
   57.9890   29.3060   44.4990 C   0  0  0  0  0  0  0  0  0  0  0  0
   61.0300   31.4750   48.6820 C   0  0  0  0  0  0  0  0  0  0  0  0
   61.8980   31.1050   49.7150 C   0  0  0  0  0  0  0  0  0  0  0  0
   63.1860   31.5960   49.6690 C   0  0  0  0  0  0  0  0  0  0  0  0
   63.6490   32.4220   48.6670 C   0  0  0  0  0  0  0  0  0  0  0  0
   62.7570   32.7730   47.6480 C   0  0  0  0  0  0  0  0  0  0  0  0
   63.3420   33.8210   46.3730 Cl  0  0  0  0  0  0  0  0  0  0  0  0
   61.4470   32.2980   47.6570 C   0  0  0  0  0  0  0  0  0  0  0  0
   58.9370   32.4720   50.4610 C   0  0  0  0  0  0  0  0  0  0  0  0
   58.1590   32.7380   51.5740 C   0  0  0  0  0  0  0  0  0  0  0  0
   57.3830   31.7740   52.1100 N   0  0  0  0  0  0  0  0  0  0  0  0
   54.4030   30.4950   51.5240 C   0  0  0  0  0  0  0  0  0  0  0  0
   53.1060   30.8090   51.8890 C   0  0  0  0  0  0  0  0  0  0  0  0
   52.7120   30.5250   53.1870 C   0  0  0  0  0  0  0  0  0  0  0  0
   50.3337   35.1524   55.8430 H   0  0  0  0  0  0  0  0  0  0  0  0
   51.2315   35.2235   54.2888 H   0  0  0  0  0  0  0  0  0  0  0  0
   49.4353   35.2161   54.2888 H   0  0  0  0  0  0  0  0  0  0  0  0
   50.3700   32.7970   55.5930 H   0  0  0  0  0  0  0  0  0  0  0  0
   49.4321   30.8767   53.7698 H   0  0  0  0  0  0  0  0  0  0  0  0
   50.2741   31.0705   52.1840 H   0  0  0  0  0  0  0  0  0  0  0  0
   50.8274   30.2991   55.8498 H   0  0  0  0  0  0  0  0  0  0  0  0
   53.2893   29.3572   56.2379 H   0  0  0  0  0  0  0  0  0  0  0  0
   55.5545   29.1799   54.4404 H   0  0  0  0  0  0  0  0  0  0  0  0
   58.1353   32.6355   48.1184 H   0  0  0  0  0  0  0  0  0  0  0  0
   59.1249   33.9740   47.4433 H   0  0  0  0  0  0  0  0  0  0  0  0
   57.3326   34.0938   47.4433 H   0  0  0  0  0  0  0  0  0  0  0  0
   58.2033   34.6713   44.9766 H   0  0  0  0  0  0  0  0  0  0  0  0
   58.1325   33.5948   42.7549 H   0  0  0  0  0  0  0  0  0  0  0  0
   58.0326   31.1201   42.5123 H   0  0  0  0  0  0  0  0  0  0  0  0
   57.9701   28.8359   45.4933 H   0  0  0  0  0  0  0  0  0  0  0  0
   57.0790   29.0304   43.9458 H   0  0  0  0  0  0  0  0  0  0  0  0
   58.8739   28.9583   43.9458 H   0  0  0  0  0  0  0  0  0  0  0  0
   61.5660   30.4479   50.5323 H   0  0  0  0  0  0  0  0  0  0  0  0
   63.8803   31.3137   50.4741 H   0  0  0  0  0  0  0  0  0  0  0  0
   64.6847   32.7925   48.6687 H   0  0  0  0  0  0  0  0  0  0  0  0
   60.7507   32.5774   46.8526 H   0  0  0  0  0  0  0  0  0  0  0  0
   59.5689   33.2592   50.0240 H   0  0  0  0  0  0  0  0  0  0  0  0
   58.1736   33.7416   52.0242 H   0  0  0  0  0  0  0  0  0  0  0  0
   56.7940   31.9760   52.9530 H   0  0  0  0  0  0  0  0  0  0  0  0
   54.7476   30.7077   50.5013 H   0  0  0  0  0  0  0  0  0  0  0  0
   52.4100   31.2692   51.1722 H   0  0  0  0  0  0  0  0  0  0  0  0
  1  2  1  0
  2  3  1  0
  3  4  2  0
  3  5  1  0
  5  6  1  0
  6  7  1  0
  7  8  2  0
  8  9  1  0
  9 10  2  0
 10 11  1  0
 11 12  1  0
 12 13  2  0
 13 14  1  0
 14 15  2  0
 15 16  1  0
 16 17  1  0
 17 18  2  0
 17 19  1  0
 19 20  1  0
 20 21  2  0
 21 22  1  0
 21 23  1  0
 23 24  2  0
 24 25  1  0
 25 26  2  0
 26 27  1  0
 16 28  1  0
 28 29  2  0
 29 30  1  0
 30 31  2  0
 31 32  1  0
 32 33  1  0
 32 34  2  0
 15 35  1  0
 35 36  2  0
 36 37  1  0
 11 38  2  0
 38 39  1  0
 39 40  2  0
 40  6  1  0
 40  9  1  0
 37 13  1  0
 26 20  1  0
 34 28  1  0
  1 41  1  0
  1 42  1  0
  1 43  1  0
  2 44  1  0
  5 45  1  0
  5 46  1  0
  7 47  1  0
  8 48  1  0
 10 49  1  0
 22 50  1  0
 22 51  1  0
 22 52  1  0
 23 53  1  0
 24 54  1  0
 25 55  1  0
 27 56  1  0
 27 57  1  0
 27 58  1  0
 29 59  1  0
 30 60  1  0
 31 61  1  0
 34 62  1  0
 35 63  1  0
 36 64  1  0
 37 65  1  0
 38 66  1  0
 39 67  1  0
M  END
>  <smiles>  (79) 
CNC(=O)Cn1ccc2cc(N=c3nc(N(C(=O)Oc4c(C)cccc4C)c4cccc(Cl)c4)cc[nH]3)ccc21

>  <score_type>  (79) 
oracle

>  <origin>  (79) 
adg

>  <m_score__min__energy>  (79) 
-10.68

>  <m_primary>  (79) 
energy

$$$$
79:0
     RDKit          3D

 44 46  0  0  0  0  0  0  0  0999 V2000
   54.9870   26.3250   45.9600 N   0  0  0  0  0  0  0  0  0  0  0  0
   56.4990   25.5220   46.1900 S   0  0  0  0  0  0  0  0  0  0  0  0
   56.6340   24.4080   45.1880 O   0  0  0  0  0  0  0  0  0  0  0  0
   56.5540   24.9350   47.5730 O   0  0  0  0  0  0  0  0  0  0  0  0
   57.8110   26.6770   45.9820 C   0  0  0  0  0  0  0  0  0  0  0  0
   58.3010   26.9650   44.7020 C   0  0  0  0  0  0  0  0  0  0  0  0
   59.3470   27.8760   44.5400 C   0  0  0  0  0  0  0  0  0  0  0  0
   59.9000   28.5140   45.6530 C   0  0  0  0  0  0  0  0  0  0  0  0
   59.3980   28.2600   46.9390 C   0  0  0  0  0  0  0  0  0  0  0  0
   59.9940   28.9190   48.0690 N   0  0  0  0  0  0  0  0  0  0  0  0
   60.6460   28.2290   49.1470 C   0  0  0  0  0  0  0  0  0  0  0  0
   60.6150   26.9710   49.2180 O   0  0  0  0  0  0  0  0  0  0  0  0
   61.3600   29.0010   50.2170 C   0  0  0  0  0  0  0  0  0  0  0  0
   61.1360   30.4030   50.0600 O   0  0  0  0  0  0  0  0  0  0  0  0
   62.0550   31.3190   49.5200 C   0  0  0  0  0  0  0  0  0  0  0  0
   63.1910   31.7540   50.2310 C   0  0  0  0  0  0  0  0  0  0  0  0
   64.0790   32.6660   49.6550 C   0  0  0  0  0  0  0  0  0  0  0  0
   63.8390   33.1610   48.3730 C   0  0  0  0  0  0  0  0  0  0  0  0
   62.7140   32.7420   47.6610 C   0  0  0  0  0  0  0  0  0  0  0  0
   61.8270   31.8080   48.2210 C   0  0  0  0  0  0  0  0  0  0  0  0
   60.6560   31.3800   47.5110 N   0  0  0  0  0  0  0  0  0  0  0  0
   59.3490   31.9550   47.6270 C   0  0  0  0  0  0  0  0  0  0  0  0
   58.6640   31.7010   48.6520 O   0  0  0  0  0  0  0  0  0  0  0  0
   58.7620   32.7780   46.5520 C   0  0  0  0  0  0  0  0  0  0  0  0
   57.9590   32.3070   45.5190 C   0  0  0  0  0  0  0  0  0  0  0  0
   57.5860   33.3030   44.6090 C   0  0  0  0  0  0  0  0  0  0  0  0
   58.1000   34.5570   44.9100 C   0  0  0  0  0  0  0  0  0  0  0  0
   59.0220   34.4240   46.3090 S   0  0  0  0  0  0  0  0  0  0  0  0
   58.3610   27.3230   47.0980 C   0  0  0  0  0  0  0  0  0  0  0  0
   55.1460   27.0810   45.2570 H   0  0  0  0  0  0  0  0  0  0  0  0
   57.8610   26.4725   43.8223 H   0  0  0  0  0  0  0  0  0  0  0  0
   59.7362   28.0916   43.5340 H   0  0  0  0  0  0  0  0  0  0  0  0
   60.7336   29.2194   45.5208 H   0  0  0  0  0  0  0  0  0  0  0  0
   59.8500   29.9490   48.1630 H   0  0  0  0  0  0  0  0  0  0  0  0
   60.9870   28.6834   51.2019 H   0  0  0  0  0  0  0  0  0  0  0  0
   62.4391   28.8032   50.1368 H   0  0  0  0  0  0  0  0  0  0  0  0
   63.3799   31.3733   51.2456 H   0  0  0  0  0  0  0  0  0  0  0  0
   64.9684   32.9941   50.2130 H   0  0  0  0  0  0  0  0  0  0  0  0
   64.5370   33.8822   47.9228 H   0  0  0  0  0  0  0  0  0  0  0  0
   62.5210   33.1454   46.6560 H   0  0  0  0  0  0  0  0  0  0  0  0
   57.6478   31.2560   45.4262 H   0  0  0  0  0  0  0  0  0  0  0  0
   56.9450   33.1100   43.7362 H   0  0  0  0  0  0  0  0  0  0  0  0
   57.9328   35.4783   44.3327 H   0  0  0  0  0  0  0  0  0  0  0  0
   57.9792   27.0957   48.1043 H   0  0  0  0  0  0  0  0  0  0  0  0
  1  2  1  0
  2  3  2  0
  2  4  2  0
  2  5  1  0
  5  6  2  0
  6  7  1  0
  7  8  2  0
  8  9  1  0
  9 10  1  0
 10 11  1  0
 11 12  2  0
 11 13  1  0
 13 14  1  0
 14 15  1  0
 15 16  2  0
 16 17  1  0
 17 18  2  0
 18 19  1  0
 19 20  2  0
 20 21  1  0
 21 22  1  0
 22 23  2  0
 22 24  1  0
 24 25  2  0
 25 26  1  0
 26 27  2  0
 27 28  1  0
  9 29  2  0
 29  5  1  0
 20 15  1  0
 28 24  1  0
  1 30  1  0
  6 31  1  0
  7 32  1  0
  8 33  1  0
 10 34  1  0
 13 35  1  0
 13 36  1  0
 16 37  1  0
 17 38  1  0
 18 39  1  0
 19 40  1  0
 25 41  1  0
 26 42  1  0
 27 43  1  0
 29 44  1  0
M  CHG  2   1  -1  21  -1
M  END
>  <UniqueID>  (80) 
72

>  <SMILES>  (80) 
[NH-]S(=O)(=O)c1cccc(NC(=O)COc2ccccc2[N-]C(=O)c2cccs2)c1

>  <Energy>  (80) 
80.43625960582779

>  <Genealogy>  (80) 
[NH-]S(=O)(=O)c1cccc(NC(=O)COc2ccccc2[N-]C(=O)c2cccs2)c1 (protonated)
[NH-]S(=O)(=O)c1cccc(NC(=O)COc2ccccc2[N-]C(=O)c2cccs2)c1 (3D coordinates assigned)
[NH-]S(=O)(=O)c1cccc(NC(=O)COc2ccccc2[N-]C(=O)c2cccs2)c1 (optimized conformer: 80.43625960582779 kcal/mol)

>  <smiles>  (80) 
NS(=O)(=O)c1cccc(NC(=O)COc2ccccc2NC(=O)c2cccs2)c1

>  <score_type>  (80) 
oracle

>  <origin>  (80) 
adg

>  <m_score__min__energy>  (80) 
-11.949999999999999

>  <m_primary>  (80) 
energy

$$$$
80:0
     RDKit          3D

 28 29  0  0  0  0  0  0  0  0999 V2000
   54.0140   26.3400   45.0630 H   0  0  0  0  0  0  0  0  0  0  0  0
   54.3860   26.0290   45.9880 N   0  0  0  0  0  0  0  0  0  0  0  0
   55.7860   26.0520   46.2590 C   0  0  0  0  0  0  0  0  0  0  0  0
   56.2690   25.2360   47.0900 O   0  0  0  0  0  0  0  0  0  0  0  0
   56.6520   27.0240   45.5690 C   0  0  0  0  0  0  0  0  0  0  0  0
   56.3230   28.3450   45.5890 N   0  0  0  0  0  0  0  0  0  0  0  0
   57.0680   29.3040   44.9720 C   0  0  0  0  0  0  0  0  0  0  0  0
   56.6650   30.5410   45.0610 N   0  0  0  0  0  0  0  0  0  0  0  0
   57.4300   31.7600   45.0350 C   0  0  0  0  0  0  0  0  0  0  0  0
   56.9400   32.8240   44.5730 O   0  0  0  0  0  0  0  0  0  0  0  0
   58.7580   31.7910   45.5670 N   0  0  0  0  0  0  0  0  0  0  0  0
   59.1330   31.5450   46.9320 C   0  0  0  0  0  0  0  0  0  0  0  0
   59.3550   30.2390   47.4030 C   0  0  0  0  0  0  0  0  0  0  0  0
   59.2605   29.3859   46.7151 H   0  0  0  0  0  0  0  0  0  0  0  0
   59.6950   30.0190   48.7400 C   0  0  0  0  0  0  0  0  0  0  0  0
   59.8810   28.9957   49.0980 H   0  0  0  0  0  0  0  0  0  0  0  0
   59.7990   31.0950   49.6220 C   0  0  0  0  0  0  0  0  0  0  0  0
   60.0754   30.9182   50.6719 H   0  0  0  0  0  0  0  0  0  0  0  0
   59.5530   32.3980   49.1760 C   0  0  0  0  0  0  0  0  0  0  0  0
   59.6790   33.7230   50.3240 Cl  0  0  0  0  0  0  0  0  0  0  0  0
   59.2100   32.6260   47.8300 C   0  0  0  0  0  0  0  0  0  0  0  0
   58.8940   34.2630   47.2580 Cl  0  0  0  0  0  0  0  0  0  0  0  0
   58.2480   28.9200   44.3020 C   0  0  0  0  0  0  0  0  0  0  0  0
   58.8803   29.6765   43.8143 H   0  0  0  0  0  0  0  0  0  0  0  0
   58.6070   27.5700   44.2630 C   0  0  0  0  0  0  0  0  0  0  0  0
   59.5207   27.2603   43.7347 H   0  0  0  0  0  0  0  0  0  0  0  0
   57.8100   26.6150   44.8920 C   0  0  0  0  0  0  0  0  0  0  0  0
   58.0867   25.5509   44.8577 H   0  0  0  0  0  0  0  0  0  0  0  0
  1  2  1  0
  2  3  1  0
  3  4  2  0
  3  5  1  0
  5  6  1  0
  6  7  1  0
  7  8  2  0
  8  9  1  0
  9 10  2  0
  9 11  1  0
 11 12  1  0
 12 13  2  0
 13 14  1  0
 13 15  1  0
 15 16  1  0
 15 17  2  0
 17 18  1  0
 17 19  1  0
 19 20  1  0
 19 21  2  0
 21 22  1  0
  7 23  1  0
 23 24  1  0
 23 25  2  0
 25 26  1  0
 25 27  1  0
 27 28  1  0
 27  5  2  0
 21 12  1  0
M  CHG  3   2  -1   6  -1  11  -1
M  END
>  <UniqueID>  (81) 
73

>  <SMILES>  (81) 
[NH-]C(=O)c1ccc/c(=N\C(=O)[N-]c2cccc(Cl)c2Cl)[n-]1

>  <Energy>  (81) 
41.33918790519549

>  <Genealogy>  (81) 
[NH-]C(=O)c1cccc(=NC(=O)[N-]c2cccc(Cl)c2Cl)[n-]1 (protonated)
[NH-]C(=O)c1ccc/c(=N\C(=O)[N-]c2cccc(Cl)c2Cl)[n-]1 (cis-trans isomerization)
[NH-]C(=O)c1ccc/c(=N\C(=O)[N-]c2cccc(Cl)c2Cl)[n-]1 (3D coordinates assigned)
[NH-]C(=O)c1ccc/c(=N\C(=O)[N-]c2cccc(Cl)c2Cl)[n-]1 (optimized conformer: 41.33918790519549 kcal/mol)

>  <smiles>  (81) 
NC(=O)c1cccc(=NC(=O)Nc2cccc(Cl)c2Cl)[nH]1

>  <score_type>  (81) 
oracle

>  <origin>  (81) 
adg

>  <m_score__min__energy>  (81) 
-14

>  <m_primary>  (81) 
energy

$$$$
81:0
     RDKit          3D

 70 74  0  0  0  0  0  0  0  0999 V2000
   57.0516   32.6785   43.1729 H   0  0  0  0  0  0  0  0  0  0  0  0
   57.1300   31.7140   43.6960 C   0  0  0  0  0  0  0  0  0  0  0  0
   56.6540   30.5500   43.0890 C   0  0  0  0  0  0  0  0  0  0  0  0
   56.2126   30.5961   42.0825 H   0  0  0  0  0  0  0  0  0  0  0  0
   56.7380   29.3250   43.7600 C   0  0  0  0  0  0  0  0  0  0  0  0
   56.3711   28.4082   43.2753 H   0  0  0  0  0  0  0  0  0  0  0  0
   57.2890   29.2620   45.0500 C   0  0  0  0  0  0  0  0  0  0  0  0
   57.3740   28.0010   45.7290 N   0  0  0  0  0  0  0  0  0  0  0  0
   56.4370   27.0750   45.5890 N   0  0  0  0  0  0  0  0  0  0  0  0
   56.8710   25.9360   46.1710 C   0  0  0  0  0  0  0  0  0  0  0  0
   56.1030   24.6270   46.1670 C   0  0  0  0  0  0  0  0  0  0  0  0
   54.6920   24.8730   45.6040 C   0  0  0  0  0  0  0  0  0  0  0  0
   53.9821   24.9968   46.4351 H   0  0  0  0  0  0  0  0  0  0  0  0
   54.6970   25.7838   44.9873 H   0  0  0  0  0  0  0  0  0  0  0  0
   54.3884   24.0142   44.9873 H   0  0  0  0  0  0  0  0  0  0  0  0
   55.9850   24.0660   47.6000 C   0  0  0  0  0  0  0  0  0  0  0  0
   56.1552   24.8750   48.3256 H   0  0  0  0  0  0  0  0  0  0  0  0
   54.9790   23.6465   47.7478 H   0  0  0  0  0  0  0  0  0  0  0  0
   56.7368   23.2767   47.7478 H   0  0  0  0  0  0  0  0  0  0  0  0
   56.8360   23.5910   45.2900 C   0  0  0  0  0  0  0  0  0  0  0  0
   57.3508   22.8634   45.9347 H   0  0  0  0  0  0  0  0  0  0  0  0
   56.1068   23.0667   44.6550 H   0  0  0  0  0  0  0  0  0  0  0  0
   57.5731   24.1042   44.6550 H   0  0  0  0  0  0  0  0  0  0  0  0
   58.1500   26.1310   46.6710 C   0  0  0  0  0  0  0  0  0  0  0  0
   58.7997   25.3965   47.1695 H   0  0  0  0  0  0  0  0  0  0  0  0
   58.4210   27.4540   46.4010 C   0  0  0  0  0  0  0  0  0  0  0  0
   59.5190   28.0510   46.7750 N   0  0  0  0  0  0  0  0  0  0  0  0
   59.7570   28.7590   47.9950 C   0  0  0  0  0  0  0  0  0  0  0  0
   59.4510   29.9790   48.0860 O   0  0  0  0  0  0  0  0  0  0  0  0
   60.3440   28.0670   49.1060 N   0  0  0  0  0  0  0  0  0  0  0  0
   60.7000   27.0990   48.9290 H   0  0  0  0  0  0  0  0  0  0  0  0
   60.7050   28.7030   50.3420 C   0  0  0  0  0  0  0  0  0  0  0  0
   61.8720   29.4770   50.4510 C   0  0  0  0  0  0  0  0  0  0  0  0
   62.5493   29.5726   49.5895 H   0  0  0  0  0  0  0  0  0  0  0  0
   62.1750   30.1260   51.6510 C   0  0  0  0  0  0  0  0  0  0  0  0
   63.0930   30.7265   51.7325 H   0  0  0  0  0  0  0  0  0  0  0  0
   61.3160   30.0150   52.7480 C   0  0  0  0  0  0  0  0  0  0  0  0
   61.5586   30.5329   53.6876 H   0  0  0  0  0  0  0  0  0  0  0  0
   60.1500   29.2490   52.6570 C   0  0  0  0  0  0  0  0  0  0  0  0
   59.2940   29.1840   53.7680 O   0  0  0  0  0  0  0  0  0  0  0  0
   57.9050   29.3650   53.7110 C   0  0  0  0  0  0  0  0  0  0  0  0
   57.3930   30.6570   53.6070 C   0  0  0  0  0  0  0  0  0  0  0  0
   58.0769   31.5185   53.6013 H   0  0  0  0  0  0  0  0  0  0  0  0
   56.0160   30.8620   53.5100 C   0  0  0  0  0  0  0  0  0  0  0  0
   55.6260   31.8855   53.4078 H   0  0  0  0  0  0  0  0  0  0  0  0
   55.1210   29.7800   53.5410 C   0  0  0  0  0  0  0  0  0  0  0  0
   53.3970   30.1520   53.3390 S   0  0  0  0  0  0  0  0  0  0  0  0
   52.7290   30.4930   54.6420 O   0  0  0  0  0  0  0  0  0  0  0  0
   52.7060   28.9360   52.7860 O   0  0  0  0  0  0  0  0  0  0  0  0
   53.2020   31.4550   52.2130 N   0  0  0  0  0  0  0  0  0  0  0  0
   52.3040   31.4150   51.1030 C   0  0  0  0  0  0  0  0  0  0  0  0
   52.3090   30.4750   50.1430 N   0  0  0  0  0  0  0  0  0  0  0  0
   51.3020   30.8710   49.3330 C   0  0  0  0  0  0  0  0  0  0  0  0
   50.9840   30.2400   48.2920 O   0  0  0  0  0  0  0  0  0  0  0  0
   50.6680   32.0020   49.7210 N   0  0  0  0  0  0  0  0  0  0  0  0
   51.3200   32.3310   50.8480 C   0  0  0  0  0  0  0  0  0  0  0  0
   51.0220   33.4460   51.6220 O   0  0  0  0  0  0  0  0  0  0  0  0
   55.6310   28.4680   53.7240 C   0  0  0  0  0  0  0  0  0  0  0  0
   54.7430   27.2560   53.7950 C   0  0  0  0  0  0  0  0  0  0  0  0
   54.5555   27.0000   54.8482 H   0  0  0  0  0  0  0  0  0  0  0  0
   53.7876   27.4716   53.2943 H   0  0  0  0  0  0  0  0  0  0  0  0
   55.2366   26.4100   53.2943 H   0  0  0  0  0  0  0  0  0  0  0  0
   57.0230   28.2770   53.7880 C   0  0  0  0  0  0  0  0  0  0  0  0
   57.4259   27.2596   53.9001 H   0  0  0  0  0  0  0  0  0  0  0  0
   59.8400   28.6050   51.4440 C   0  0  0  0  0  0  0  0  0  0  0  0
   58.9123   28.0201   51.3587 H   0  0  0  0  0  0  0  0  0  0  0  0
   57.8050   30.4300   45.6350 C   0  0  0  0  0  0  0  0  0  0  0  0
   58.2888   30.3811   46.6217 H   0  0  0  0  0  0  0  0  0  0  0  0
   57.7060   31.6540   44.9680 C   0  0  0  0  0  0  0  0  0  0  0  0
   58.0819   32.5713   45.4447 H   0  0  0  0  0  0  0  0  0  0  0  0
  1  2  1  0
  2  3  2  0
  3  4  1  0
  3  5  1  0
  5  6  1  0
  5  7  2  0
  7  8  1  0
  8  9  1  0
  9 10  1  0
 10 11  1  0
 11 12  1  0
 12 13  1  0
 12 14  1  0
 12 15  1  0
 11 16  1  0
 16 17  1  0
 16 18  1  0
 16 19  1  0
 11 20  1  0
 20 21  1  0
 20 22  1  0
 20 23  1  0
 10 24  2  0
 24 25  1  0
 24 26  1  0
 26 27  2  0
 27 28  1  0
 28 29  2  0
 28 30  1  0
 30 31  1  0
 30 32  1  0
 32 33  2  0
 33 34  1  0
 33 35  1  0
 35 36  1  0
 35 37  2  0
 37 38  1  0
 37 39  1  0
 39 40  1  0
 40 41  1  0
 41 42  2  0
 42 43  1  0
 42 44  1  0
 44 45  1  0
 44 46  2  0
 46 47  1  0
 47 48  2  0
 47 49  2  0
 47 50  1  0
 50 51  1  0
 51 52  1  0
 52 53  1  0
 53 54  2  0
 53 55  1  0
 55 56  1  0
 56 57  1  0
 46 58  1  0
 58 59  1  0
 59 60  1  0
 59 61  1  0
 59 62  1  0
 58 63  2  0
 63 64  1  0
 39 65  2  0
 65 66  1  0
  7 67  1  0
 67 68  1  0
 67 69  2  0
 69 70  1  0
 69  2  1  0
 26  8  1  0
 65 32  1  0
 63 41  1  0
 56 51  2  0
M  CHG  5   9  -1  50  -1  52  -1  55  -1  57  -1
M  END
>  <UniqueID>  (82) 
74

>  <SMILES>  (82) 
Cc1cc(Oc2cccc(NC(=O)/N=c3/cc(C(C)(C)C)[n-]n3-c3ccccc3)c2)ccc1S(=O)(=O)[N-]c1[n-]c(=O)[n-]c1[O-]

>  <Energy>  (82) 
162.90652951755254

>  <Genealogy>  (82) 
Cc1cc(Oc2cccc(NC(=O)N=c3cc(C(C)(C)C)[n-]n3-c3ccccc3)c2)ccc1S(=O)(=O)[N-]c1[n-]c(=O)[n-]c1[O-] (protonated)
Cc1cc(Oc2cccc(NC(=O)/N=c3/cc(C(C)(C)C)[n-]n3-c3ccccc3)c2)ccc1S(=O)(=O)[N-]c1[n-]c(=O)[n-]c1[O-] (cis-trans isomerization)
Cc1cc(Oc2cccc(NC(=O)/N=c3/cc(C(C)(C)C)[n-]n3-c3ccccc3)c2)ccc1S(=O)(=O)[N-]c1[n-]c(=O)[n-]c1[O-] (3D coordinates assigned)
Cc1cc(Oc2cccc(NC(=O)/N=c3/cc(C(C)(C)C)[n-]n3-c3ccccc3)c2)ccc1S(=O)(=O)[N-]c1[n-]c(=O)[n-]c1[O-] (optimized conformer: 162.90652951755254 kcal/mol)

>  <smiles>  (82) 
Cc1cc(Oc2cccc(NC(=O)N=c3cc(C(C)(C)C)[nH]n3-c3ccccc3)c2)ccc1S(=O)(=O)Nc1[nH]c(=O)[nH]c1O

>  <score_type>  (82) 
oracle

>  <origin>  (82) 
adg

>  <m_score__min__energy>  (82) 
-22.870000000000001

>  <m_primary>  (82) 
energy

$$$$
82:0
     RDKit          3D

 55 57  0  0  0  0  0  0  0  0999 V2000
   57.9120   32.6140   42.4450 C   0  0  0  0  0  0  0  0  0  0  0  0
   58.0810   32.7270   43.8920 N   0  0  0  0  0  0  0  0  0  0  0  0
   59.0280   33.4870   44.4180 N   0  0  0  0  0  0  0  0  0  0  0  0
   58.8660   33.5040   45.7580 C   0  0  0  0  0  0  0  0  0  0  0  0
   59.7470   34.2810   46.7220 C   0  0  0  0  0  0  0  0  0  0  0  0
   59.6780   35.7820   46.3830 C   0  0  0  0  0  0  0  0  0  0  0  0
   61.2010   33.7890   46.5980 C   0  0  0  0  0  0  0  0  0  0  0  0
   59.2720   34.0780   48.1750 C   0  0  0  0  0  0  0  0  0  0  0  0
   57.7630   32.7380   46.1010 C   0  0  0  0  0  0  0  0  0  0  0  0
   57.3100   32.2400   44.9000 C   0  0  0  0  0  0  0  0  0  0  0  0
   56.2660   31.4640   44.8030 N   0  0  0  0  0  0  0  0  0  0  0  0
   56.1760   30.1300   44.2900 C   0  0  0  0  0  0  0  0  0  0  0  0
   55.1580   29.4220   44.5180 O   0  0  0  0  0  0  0  0  0  0  0  0
   57.2510   29.6130   43.3870 C   0  0  0  0  0  0  0  0  0  0  0  0
   58.8270   29.4610   44.2960 S   0  0  0  0  0  0  0  0  0  0  0  0
   58.3920   27.9140   45.0870 C   0  0  0  0  0  0  0  0  0  0  0  0
   59.3650   27.0380   45.4420 N   0  0  0  0  0  0  0  0  0  0  0  0
   59.0620   25.8680   46.0570 C   0  0  0  0  0  0  0  0  0  0  0  0
   59.9890   25.0730   46.3670 O   0  0  0  0  0  0  0  0  0  0  0  0
   57.7270   25.5410   46.3290 C   0  0  0  0  0  0  0  0  0  0  0  0
   57.4280   24.2980   46.9810 N   0  0  0  0  0  0  0  0  0  0  0  0
   56.1150   23.8380   47.3120 C   0  0  0  0  0  0  0  0  0  0  0  0
   55.7160   23.9230   48.5020 O   0  0  0  0  0  0  0  0  0  0  0  0
   55.2880   23.2340   46.3110 N   0  0  0  0  0  0  0  0  0  0  0  0
   55.7390   22.7260   45.0470 C   0  0  0  0  0  0  0  0  0  0  0  0
   55.8020   23.5510   43.9080 C   0  0  0  0  0  0  0  0  0  0  0  0
   56.2810   23.0430   42.6970 C   0  0  0  0  0  0  0  0  0  0  0  0
   56.7100   21.7190   42.6140 C   0  0  0  0  0  0  0  0  0  0  0  0
   56.6730   20.8990   43.7450 C   0  0  0  0  0  0  0  0  0  0  0  0
   56.1960   21.3990   44.9620 C   0  0  0  0  0  0  0  0  0  0  0  0
   56.1710   20.3450   46.3700 Cl  0  0  0  0  0  0  0  0  0  0  0  0
   56.7310   26.4850   45.9870 C   0  0  0  0  0  0  0  0  0  0  0  0
   55.3610   26.3120   46.3580 N   0  0  0  0  0  0  0  0  0  0  0  0
   57.0940   27.6330   45.3580 N   0  0  0  0  0  0  0  0  0  0  0  0
   57.0159   32.0148   42.2262 H   0  0  0  0  0  0  0  0  0  0  0  0
   57.7972   33.6177   42.0098 H   0  0  0  0  0  0  0  0  0  0  0  0
   58.7957   32.1244   42.0098 H   0  0  0  0  0  0  0  0  0  0  0  0
   59.6511   36.3673   47.3140 H   0  0  0  0  0  0  0  0  0  0  0  0
   60.5640   36.0665   45.7965 H   0  0  0  0  0  0  0  0  0  0  0  0
   58.7696   35.9841   45.7965 H   0  0  0  0  0  0  0  0  0  0  0  0
   61.6263   33.6451   47.6022 H   0  0  0  0  0  0  0  0  0  0  0  0
   61.2198   32.8345   46.0516 H   0  0  0  0  0  0  0  0  0  0  0  0
   61.7955   34.5360   46.0516 H   0  0  0  0  0  0  0  0  0  0  0  0
   60.0576   34.4137   48.8679 H   0  0  0  0  0  0  0  0  0  0  0  0
   58.3568   34.6636   48.3468 H   0  0  0  0  0  0  0  0  0  0  0  0
   59.0627   33.0118   48.3468 H   0  0  0  0  0  0  0  0  0  0  0  0
   57.3449   32.5670   47.1040 H   0  0  0  0  0  0  0  0  0  0  0  0
   56.9575   28.6250   43.0027 H   0  0  0  0  0  0  0  0  0  0  0  0
   57.3864   30.3178   42.5534 H   0  0  0  0  0  0  0  0  0  0  0  0
   55.4732   24.5988   43.9712 H   0  0  0  0  0  0  0  0  0  0  0  0
   56.3195   23.6892   41.8076 H   0  0  0  0  0  0  0  0  0  0  0  0
   57.0779   21.3195   41.6574 H   0  0  0  0  0  0  0  0  0  0  0  0
   57.0199   19.8573   43.6785 H   0  0  0  0  0  0  0  0  0  0  0  0
   54.6420   27.0370   46.1480 H   0  0  0  0  0  0  0  0  0  0  0  0
   55.0370   25.3970   46.7410 H   0  0  0  0  0  0  0  0  0  0  0  0
  1  2  1  0
  2  3  1  0
  3  4  1  0
  4  5  1  0
  5  6  1  0
  5  7  1  0
  5  8  1  0
  4  9  2  0
  9 10  1  0
 10 11  2  3
 11 12  1  0
 12 13  2  0
 12 14  1  0
 14 15  1  0
 15 16  1  0
 16 17  2  0
 17 18  1  0
 18 19  2  0
 18 20  1  0
 20 21  1  0
 21 22  1  0
 22 23  2  0
 22 24  1  0
 24 25  1  0
 25 26  2  0
 26 27  1  0
 27 28  2  0
 28 29  1  0
 29 30  2  0
 30 31  1  0
 20 32  2  0
 32 33  1  0
 32 34  1  0
 10  2  1  0
 34 16  1  0
 30 25  1  0
  1 35  1  0
  1 36  1  0
  1 37  1  0
  6 38  1  0
  6 39  1  0
  6 40  1  0
  7 41  1  0
  7 42  1  0
  7 43  1  0
  8 44  1  0
  8 45  1  0
  8 46  1  0
  9 47  1  0
 14 48  1  0
 14 49  1  0
 26 50  1  0
 27 51  1  0
 28 52  1  0
 29 53  1  0
 33 54  1  0
 33 55  1  0
M  CHG  4   3  -1  21  -1  24  -1  34  -1
M  END
>  <UniqueID>  (83) 
75

>  <SMILES>  (83) 
Cn1[n-]c(C(C)(C)C)cc1=NC(=O)CSc1nc(=O)c([N-]C(=O)[N-]c2ccccc2Cl)c(N)[n-]1

>  <Energy>  (83) 
96.57103215632804

>  <Genealogy>  (83) 
Cn1[n-]c(C(C)(C)C)cc1=NC(=O)CSc1nc(=O)c([N-]C(=O)[N-]c2ccccc2Cl)c(N)[n-]1 (protonated)
Cn1[n-]c(C(C)(C)C)cc1=NC(=O)CSc1nc(=O)c([N-]C(=O)[N-]c2ccccc2Cl)c(N)[n-]1 (3D coordinates assigned)
Cn1[n-]c(C(C)(C)C)cc1=NC(=O)CSc1nc(=O)c([N-]C(=O)[N-]c2ccccc2Cl)c(N)[n-]1 (optimized conformer: 96.57103215632804 kcal/mol)

>  <smiles>  (83) 
Cn1[nH]c(C(C)(C)C)cc1=NC(=O)CSc1nc(=O)c(NC(=O)Nc2ccccc2Cl)c(N)[nH]1

>  <score_type>  (83) 
oracle

>  <origin>  (83) 
adg

>  <m_score__min__energy>  (83) 
-14.75

>  <m_primary>  (83) 
energy

$$$$
83:0
     RDKit          3D

 55 57  0  0  0  0  0  0  0  0999 V2000
   65.1750   32.3590   49.7690 C   0  0  0  0  0  0  0  0  0  0  0  0
   64.3860   33.4930   49.4330 O   0  0  0  0  0  0  0  0  0  0  0  0
   63.5080   33.5040   48.3440 C   0  0  0  0  0  0  0  0  0  0  0  0
   63.8340   32.9500   47.2590 O   0  0  0  0  0  0  0  0  0  0  0  0
   62.2530   34.1870   48.4240 N   0  0  0  0  0  0  0  0  0  0  0  0
   60.9520   33.5880   48.3440 C   0  0  0  0  0  0  0  0  0  0  0  0
   60.2890   33.0880   49.4800 C   0  0  0  0  0  0  0  0  0  0  0  0
   59.0250   32.4870   49.3620 C   0  0  0  0  0  0  0  0  0  0  0  0
   58.2990   32.0080   50.5890 C   0  0  0  0  0  0  0  0  0  0  0  0
   58.1380   30.5210   50.5440 C   0  0  0  0  0  0  0  0  0  0  0  0
   58.7030   29.8510   49.6400 O   0  0  0  0  0  0  0  0  0  0  0  0
   57.3880   29.8720   51.5170 O   0  0  0  0  0  0  0  0  0  0  0  0
   58.4240   32.3830   48.0980 C   0  0  0  0  0  0  0  0  0  0  0  0
   59.0950   32.8410   46.9520 C   0  0  0  0  0  0  0  0  0  0  0  0
   58.4460   32.7280   45.6000 C   0  0  0  0  0  0  0  0  0  0  0  0
   57.8880   31.3520   45.4050 C   0  0  0  0  0  0  0  0  0  0  0  0
   56.7100   31.2190   44.9770 O   0  0  0  0  0  0  0  0  0  0  0  0
   58.6680   30.2020   45.7790 N   0  0  0  0  0  0  0  0  0  0  0  0
   58.2850   28.8440   45.5000 C   0  0  0  0  0  0  0  0  0  0  0  0
   57.0160   28.3570   45.8630 C   0  0  0  0  0  0  0  0  0  0  0  0
   56.6480   27.0430   45.5610 C   0  0  0  0  0  0  0  0  0  0  0  0
   55.4180   26.5910   45.9250 F   0  0  0  0  0  0  0  0  0  0  0  0
   57.5440   26.2000   44.8870 C   0  0  0  0  0  0  0  0  0  0  0  0
   57.1650   24.8120   44.5660 C   0  0  0  0  0  0  0  0  0  0  0  0
   56.9960   24.4580   43.2180 C   0  0  0  0  0  0  0  0  0  0  0  0
   56.6490   23.1500   42.8690 C   0  0  0  0  0  0  0  0  0  0  0  0
   56.4680   22.1880   43.8620 C   0  0  0  0  0  0  0  0  0  0  0  0
   56.6300   22.5280   45.2080 C   0  0  0  0  0  0  0  0  0  0  0  0
   56.9760   23.8390   45.5750 C   0  0  0  0  0  0  0  0  0  0  0  0
   57.1610   24.2390   47.2900 S   0  0  0  0  0  0  0  0  0  0  0  0
   57.3870   22.7890   48.2020 N   0  0  0  0  0  0  0  0  0  0  0  0
   58.3460   25.1440   47.4700 O   0  0  0  0  0  0  0  0  0  0  0  0
   55.9320   24.9450   47.7970 O   0  0  0  0  0  0  0  0  0  0  0  0
   58.7950   26.6930   44.4920 C   0  0  0  0  0  0  0  0  0  0  0  0
   59.1640   28.0070   44.7940 C   0  0  0  0  0  0  0  0  0  0  0  0
   60.3850   28.4580   44.4150 F   0  0  0  0  0  0  0  0  0  0  0  0
   60.3540   33.4480   47.0850 C   0  0  0  0  0  0  0  0  0  0  0  0
   65.2385   32.2677   50.8634 H   0  0  0  0  0  0  0  0  0  0  0  0
   64.7112   31.4530   49.3518 H   0  0  0  0  0  0  0  0  0  0  0  0
   66.1857   32.4789   49.3518 H   0  0  0  0  0  0  0  0  0  0  0  0
   60.7646   33.1685   50.4686 H   0  0  0  0  0  0  0  0  0  0  0  0
   58.8756   32.2845   51.4840 H   0  0  0  0  0  0  0  0  0  0  0  0
   57.3045   32.4767   50.6247 H   0  0  0  0  0  0  0  0  0  0  0  0
   57.4215   31.9402   48.0041 H   0  0  0  0  0  0  0  0  0  0  0  0
   57.6317   33.4638   45.5257 H   0  0  0  0  0  0  0  0  0  0  0  0
   59.2006   32.9216   44.8234 H   0  0  0  0  0  0  0  0  0  0  0  0
   59.5160   30.3610   46.3690 H   0  0  0  0  0  0  0  0  0  0  0  0
   56.3083   29.0152   46.3883 H   0  0  0  0  0  0  0  0  0  0  0  0
   57.1375   25.2145   42.4320 H   0  0  0  0  0  0  0  0  0  0  0  0
   56.5186   22.8793   41.8108 H   0  0  0  0  0  0  0  0  0  0  0  0
   56.1969   21.1585   43.5852 H   0  0  0  0  0  0  0  0  0  0  0  0
   56.4855   21.7634   45.9855 H   0  0  0  0  0  0  0  0  0  0  0  0
   57.3780   21.9960   47.5220 H   0  0  0  0  0  0  0  0  0  0  0  0
   59.4903   26.0424   43.9413 H   0  0  0  0  0  0  0  0  0  0  0  0
   60.8767   33.8178   46.1905 H   0  0  0  0  0  0  0  0  0  0  0  0
  1  2  1  0
  2  3  1  0
  3  4  2  0
  3  5  1  0
  5  6  1  0
  6  7  2  0
  7  8  1  0
  8  9  1  0
  9 10  1  0
 10 11  2  0
 10 12  1  0
  8 13  2  0
 13 14  1  0
 14 15  1  0
 15 16  1  0
 16 17  2  0
 16 18  1  0
 18 19  1  0
 19 20  2  0
 20 21  1  0
 21 22  1  0
 21 23  2  0
 23 24  1  0
 24 25  2  0
 25 26  1  0
 26 27  2  0
 27 28  1  0
 28 29  2  0
 29 30  1  0
 30 31  1  0
 30 32  2  0
 30 33  2  0
 23 34  1  0
 34 35  2  0
 35 36  1  0
 14 37  2  0
 37  6  1  0
 35 19  1  0
 29 24  1  0
  1 38  1  0
  1 39  1  0
  1 40  1  0
  7 41  1  0
  9 42  1  0
  9 43  1  0
 13 44  1  0
 15 45  1  0
 15 46  1  0
 18 47  1  0
 20 48  1  0
 25 49  1  0
 26 50  1  0
 27 51  1  0
 28 52  1  0
 31 53  1  0
 34 54  1  0
 37 55  1  0
M  CHG  3   5  -1  12  -1  31  -1
M  END
>  <UniqueID>  (84) 
76

>  <SMILES>  (84) 
COC(=O)[N-]c1cc(CC(=O)[O-])cc(CC(=O)Nc2cc(F)c(-c3ccccc3S([NH-])(=O)=O)cc2F)c1

>  <Energy>  (84) 
66.31300790251753

>  <Genealogy>  (84) 
COC(=O)[N-]c1cc(CC(=O)[O-])cc(CC(=O)Nc2cc(F)c(-c3ccccc3S([NH-])(=O)=O)cc2F)c1 (protonated)
COC(=O)[N-]c1cc(CC(=O)[O-])cc(CC(=O)Nc2cc(F)c(-c3ccccc3S([NH-])(=O)=O)cc2F)c1 (3D coordinates assigned)
COC(=O)[N-]c1cc(CC(=O)[O-])cc(CC(=O)Nc2cc(F)c(-c3ccccc3S([NH-])(=O)=O)cc2F)c1 (optimized conformer: 66.31300790251753 kcal/mol)

>  <smiles>  (84) 
COC(=O)Nc1cc(CC(=O)O)cc(CC(=O)Nc2cc(F)c(-c3ccccc3S(N)(=O)=O)cc2F)c1

>  <score_type>  (84) 
oracle

>  <origin>  (84) 
adg

>  <m_score__min__energy>  (84) 
-12.76

>  <m_primary>  (84) 
energy

$$$$
84:0
     RDKit          3D

 57 61  0  0  0  0  0  0  0  0999 V2000
   57.5640   26.6590   46.8620 O   0  0  0  0  0  0  0  0  0  0  0  0
   58.6370   26.0420   46.6190 C   0  0  0  0  0  0  0  0  0  0  0  0
   58.5840   24.5850   46.2770 C   0  0  0  0  0  0  0  0  0  0  0  0
   57.2800   24.2670   45.6050 C   0  0  0  0  0  0  0  0  0  0  0  0
   57.2670   23.7130   44.2990 C   0  0  0  0  0  0  0  0  0  0  0  0
   56.0480   23.4440   43.6490 C   0  0  0  0  0  0  0  0  0  0  0  0
   54.8710   23.7510   44.3250 C   0  0  0  0  0  0  0  0  0  0  0  0
   54.8750   24.2930   45.5680 C   0  0  0  0  0  0  0  0  0  0  0  0
   56.0580   24.5740   46.2470 C   0  0  0  0  0  0  0  0  0  0  0  0
   53.5740   24.4960   45.9870 O   0  0  0  0  0  0  0  0  0  0  0  0
   52.6980   24.0490   44.9420 C   0  0  0  0  0  0  0  0  0  0  0  0
   53.5670   23.5820   43.9000 O   0  0  0  0  0  0  0  0  0  0  0  0
   59.8980   26.7240   46.6800 N   0  0  0  0  0  0  0  0  0  0  0  0
   60.0500   28.0340   47.2480 C   0  0  0  0  0  0  0  0  0  0  0  0
   60.0150   28.2080   48.6400 C   0  0  0  0  0  0  0  0  0  0  0  0
   60.1970   29.4740   49.2010 C   0  0  0  0  0  0  0  0  0  0  0  0
   60.3980   30.5880   48.3760 C   0  0  0  0  0  0  0  0  0  0  0  0
   60.5940   31.8920   48.9290 N   0  0  0  0  0  0  0  0  0  0  0  0
   60.8850   33.3070   47.9690 S   0  0  0  0  0  0  0  0  0  0  0  0
   61.1150   34.4750   48.8860 O   0  0  0  0  0  0  0  0  0  0  0  0
   62.1240   33.0990   47.1450 O   0  0  0  0  0  0  0  0  0  0  0  0
   59.5270   33.6740   46.9070 C   0  0  0  0  0  0  0  0  0  0  0  0
   59.7400   34.3830   45.7140 C   0  0  0  0  0  0  0  0  0  0  0  0
   58.6710   34.6380   44.8490 C   0  0  0  0  0  0  0  0  0  0  0  0
   57.3870   34.1890   45.1710 C   0  0  0  0  0  0  0  0  0  0  0  0
   57.1700   33.4850   46.3600 C   0  0  0  0  0  0  0  0  0  0  0  0
   58.2370   33.2270   47.2260 C   0  0  0  0  0  0  0  0  0  0  0  0
   60.4740   30.4150   46.9910 C   0  0  0  0  0  0  0  0  0  0  0  0
   60.2910   29.1480   46.4210 C   0  0  0  0  0  0  0  0  0  0  0  0
   60.3170   28.9960   44.6290 S   0  0  0  0  0  0  0  0  0  0  0  0
   58.6300   29.5820   44.4630 C   0  0  0  0  0  0  0  0  0  0  0  0
   58.3730   30.8230   43.8640 C   0  0  0  0  0  0  0  0  0  0  0  0
   57.0560   31.2710   43.7190 C   0  0  0  0  0  0  0  0  0  0  0  0
   55.9940   30.4830   44.1750 C   0  0  0  0  0  0  0  0  0  0  0  0
   56.2480   29.2490   44.7810 C   0  0  0  0  0  0  0  0  0  0  0  0
   57.5650   28.7990   44.9290 C   0  0  0  0  0  0  0  0  0  0  0  0
   59.4140   24.3389   45.5984 H   0  0  0  0  0  0  0  0  0  0  0  0
   58.6709   23.9922   47.1995 H   0  0  0  0  0  0  0  0  0  0  0  0
   58.2170   23.4920   43.7905 H   0  0  0  0  0  0  0  0  0  0  0  0
   56.0264   23.0057   42.6403 H   0  0  0  0  0  0  0  0  0  0  0  0
   56.0423   25.0211   47.2519 H   0  0  0  0  0  0  0  0  0  0  0  0
   52.0529   23.2336   45.3012 H   0  0  0  0  0  0  0  0  0  0  0  0
   52.0299   24.8503   44.5933 H   0  0  0  0  0  0  0  0  0  0  0  0
   60.7320   26.2670   46.2470 H   0  0  0  0  0  0  0  0  0  0  0  0
   59.8429   27.3407   49.2943 H   0  0  0  0  0  0  0  0  0  0  0  0
   60.1825   29.5966   50.2940 H   0  0  0  0  0  0  0  0  0  0  0  0
   60.7493   34.7385   45.4593 H   0  0  0  0  0  0  0  0  0  0  0  0
   58.8408   35.1925   43.9143 H   0  0  0  0  0  0  0  0  0  0  0  0
   56.5472   34.3893   44.4893 H   0  0  0  0  0  0  0  0  0  0  0  0
   56.1589   33.1340   46.6140 H   0  0  0  0  0  0  0  0  0  0  0  0
   58.0639   32.6720   48.1598 H   0  0  0  0  0  0  0  0  0  0  0  0
   60.6791   31.2802   46.3434 H   0  0  0  0  0  0  0  0  0  0  0  0
   59.2075   31.4448   43.5078 H   0  0  0  0  0  0  0  0  0  0  0  0
   56.8552   32.2436   43.2461 H   0  0  0  0  0  0  0  0  0  0  0  0
   54.9584   30.8345   44.0567 H   0  0  0  0  0  0  0  0  0  0  0  0
   55.4123   28.6314   45.1417 H   0  0  0  0  0  0  0  0  0  0  0  0
   57.7643   27.8306   45.4112 H   0  0  0  0  0  0  0  0  0  0  0  0
  1  2  2  0
  2  3  1  0
  3  4  1  0
  4  5  2  0
  5  6  1  0
  6  7  2  0
  7  8  1  0
  8  9  2  0
  8 10  1  0
 10 11  1  0
 11 12  1  0
  2 13  1  0
 13 14  1  0
 14 15  2  0
 15 16  1  0
 16 17  2  0
 17 18  1  0
 18 19  1  0
 19 20  2  0
 19 21  2  0
 19 22  1  0
 22 23  2  0
 23 24  1  0
 24 25  2  0
 25 26  1  0
 26 27  2  0
 17 28  1  0
 28 29  2  0
 29 30  1  0
 30 31  1  0
 31 32  2  0
 32 33  1  0
 33 34  2  0
 34 35  1  0
 35 36  2  0
  9  4  1  0
 29 14  1  0
 36 31  1  0
 12  7  1  0
 27 22  1  0
  3 37  1  0
  3 38  1  0
  5 39  1  0
  6 40  1  0
  9 41  1  0
 11 42  1  0
 11 43  1  0
 13 44  1  0
 15 45  1  0
 16 46  1  0
 23 47  1  0
 24 48  1  0
 25 49  1  0
 26 50  1  0
 27 51  1  0
 28 52  1  0
 32 53  1  0
 33 54  1  0
 34 55  1  0
 35 56  1  0
 36 57  1  0
M  CHG  1  18  -1
M  END
>  <UniqueID>  (85) 
77

>  <SMILES>  (85) 
O=C(Cc1ccc2c(c1)OCO2)Nc1ccc([N-]S(=O)(=O)c2ccccc2)cc1Sc1ccccc1

>  <Energy>  (85) 
96.09195915404742

>  <Genealogy>  (85) 
O=C(Cc1ccc2c(c1)OCO2)Nc1ccc([N-]S(=O)(=O)c2ccccc2)cc1Sc1ccccc1 (protonated)
O=C(Cc1ccc2c(c1)OCO2)Nc1ccc([N-]S(=O)(=O)c2ccccc2)cc1Sc1ccccc1 (3D coordinates assigned)
O=C(Cc1ccc2c(c1)OCO2)Nc1ccc([N-]S(=O)(=O)c2ccccc2)cc1Sc1ccccc1 (nonaromatic ring conformer: 96.09195915404742 kcal/mol)

>  <smiles>  (85) 
O=C(Cc1ccc2c(c1)OCO2)Nc1ccc(NS(=O)(=O)c2ccccc2)cc1Sc1ccccc1

>  <score_type>  (85) 
oracle

>  <origin>  (85) 
adg

>  <m_score__min__energy>  (85) 
-11.4

>  <m_primary>  (85) 
energy

$$$$
85:0
     RDKit          3D

 42 44  0  0  0  0  0  0  0  0999 V2000
   58.4360   22.8620   44.8070 C   0  0  0  0  0  0  0  0  0  0  0  0
   59.0530   23.9770   45.6430 C   0  0  0  0  0  0  0  0  0  0  0  0
   58.1010   25.1230   45.7760 C   0  0  0  0  0  0  0  0  0  0  0  0
   58.4790   26.4160   45.6950 N   0  0  0  0  0  0  0  0  0  0  0  0
   57.3660   27.1200   45.8080 N   0  0  0  0  0  0  0  0  0  0  0  0
   57.2850   28.5800   45.7020 C   0  0  0  0  0  0  0  0  0  0  0  0
   56.2590   28.9790   44.6210 C   0  0  0  0  0  0  0  0  0  0  0  0
   56.4530   30.4300   44.1330 C   0  0  0  0  0  0  0  0  0  0  0  0
   57.2080   31.2120   45.1280 N   0  0  0  0  0  0  0  0  0  0  0  0
   57.1230   32.6740   44.9190 C   0  0  0  0  0  0  0  0  0  0  0  0
   58.0840   33.4760   45.7720 C   0  0  0  0  0  0  0  0  0  0  0  0
   58.2030   33.2170   47.1480 C   0  0  0  0  0  0  0  0  0  0  0  0
   59.0920   33.9600   47.9330 C   0  0  0  0  0  0  0  0  0  0  0  0
   59.8740   34.9580   47.3490 C   0  0  0  0  0  0  0  0  0  0  0  0
   59.7720   35.2160   45.9800 C   0  0  0  0  0  0  0  0  0  0  0  0
   58.8840   34.4760   45.1920 C   0  0  0  0  0  0  0  0  0  0  0  0
   58.5990   30.7240   45.2650 C   0  0  0  0  0  0  0  0  0  0  0  0
   58.6650   29.1850   45.3940 C   0  0  0  0  0  0  0  0  0  0  0  0
   56.3490   26.2500   45.9190 C   0  0  0  0  0  0  0  0  0  0  0  0
   55.1380   26.5860   46.0130 O   0  0  0  0  0  0  0  0  0  0  0  0
   56.7620   24.9700   45.9040 N   0  0  0  0  0  0  0  0  0  0  0  0
   58.0121   22.0960   45.4730 H   0  0  0  0  0  0  0  0  0  0  0  0
   57.6394   23.2775   44.1723 H   0  0  0  0  0  0  0  0  0  0  0  0
   59.2111   22.4078   44.1723 H   0  0  0  0  0  0  0  0  0  0  0  0
   59.2929   23.5882   46.6436 H   0  0  0  0  0  0  0  0  0  0  0  0
   59.9668   24.3310   45.1434 H   0  0  0  0  0  0  0  0  0  0  0  0
   56.9492   28.9815   46.6695 H   0  0  0  0  0  0  0  0  0  0  0  0
   56.3682   28.3000   43.7625 H   0  0  0  0  0  0  0  0  0  0  0  0
   55.2562   28.9064   45.0672 H   0  0  0  0  0  0  0  0  0  0  0  0
   57.0073   30.4214   43.1829 H   0  0  0  0  0  0  0  0  0  0  0  0
   55.4653   30.8930   43.9913 H   0  0  0  0  0  0  0  0  0  0  0  0
   57.3403   32.8853   43.8616 H   0  0  0  0  0  0  0  0  0  0  0  0
   56.1075   32.9785   45.2123 H   0  0  0  0  0  0  0  0  0  0  0  0
   57.5942   32.4261   47.6105 H   0  0  0  0  0  0  0  0  0  0  0  0
   59.1746   33.7574   49.0110 H   0  0  0  0  0  0  0  0  0  0  0  0
   60.5714   35.5419   47.9676 H   0  0  0  0  0  0  0  0  0  0  0  0
   60.3903   36.0016   45.5212 H   0  0  0  0  0  0  0  0  0  0  0  0
   58.8114   34.6776   44.1131 H   0  0  0  0  0  0  0  0  0  0  0  0
   59.1715   31.0304   44.3771 H   0  0  0  0  0  0  0  0  0  0  0  0
   59.0220   31.1594   46.1823 H   0  0  0  0  0  0  0  0  0  0  0  0
   59.0358   28.7636   44.4480 H   0  0  0  0  0  0  0  0  0  0  0  0
   59.3405   28.9395   46.2267 H   0  0  0  0  0  0  0  0  0  0  0  0
  1  2  1  0
  2  3  1  0
  3  4  2  0
  4  5  1  0
  5  6  1  0
  6  7  1  0
  7  8  1  0
  8  9  1  0
  9 10  1  0
 10 11  1  0
 11 12  2  0
 12 13  1  0
 13 14  2  0
 14 15  1  0
 15 16  2  0
  9 17  1  0
 17 18  1  0
  5 19  1  0
 19 20  2  0
 19 21  1  0
 21  3  1  0
 18  6  1  0
 16 11  1  0
  1 22  1  0
  1 23  1  0
  1 24  1  0
  2 25  1  0
  2 26  1  0
  6 27  1  0
  7 28  1  0
  7 29  1  0
  8 30  1  0
  8 31  1  0
 10 32  1  0
 10 33  1  0
 12 34  1  0
 13 35  1  0
 14 36  1  0
 15 37  1  0
 16 38  1  0
 17 39  1  0
 17 40  1  0
 18 41  1  0
 18 42  1  0
M  CHG  1  21  -1
M  END
>  <UniqueID>  (86) 
78

>  <SMILES>  (86) 
CCc1nn(C2CCN(Cc3ccccc3)CC2)c(=O)[n-]1

>  <Energy>  (86) 
80.88038307115959

>  <Genealogy>  (86) 
CCc1nn(C2CCN(Cc3ccccc3)CC2)c(=O)[n-]1 (protonated)
CCc1nn(C2CCN(Cc3ccccc3)CC2)c(=O)[n-]1 (3D coordinates assigned)
CCc1nn(C2CCN(Cc3ccccc3)CC2)c(=O)[n-]1 (nonaromatic ring conformer: 80.88038307115959 kcal/mol)

>  <smiles>  (86) 
CCc1nn(C2CCN(Cc3ccccc3)CC2)c(=O)[nH]1

>  <score_type>  (86) 
oracle

>  <origin>  (86) 
adg

>  <m_score__min__energy>  (86) 
-9.6400000000000006

>  <m_primary>  (86) 
energy

$$$$
86:0
     RDKit          3D

 45 47  0  0  0  0  0  0  0  0999 V2000
   57.4010   32.3340   41.4500 C   0  0  0  0  0  0  0  0  0  0  0  0
   58.1480   31.9910   42.6140 O   0  0  0  0  0  0  0  0  0  0  0  0
   58.0680   32.6730   43.8430 C   0  0  0  0  0  0  0  0  0  0  0  0
   58.9470   33.7280   44.1610 C   0  0  0  0  0  0  0  0  0  0  0  0
   58.8830   34.3480   45.4150 C   0  0  0  0  0  0  0  0  0  0  0  0
   57.9530   33.9240   46.3640 C   0  0  0  0  0  0  0  0  0  0  0  0
   57.0710   32.8870   46.0580 C   0  0  0  0  0  0  0  0  0  0  0  0
   57.1020   32.2770   44.7940 C   0  0  0  0  0  0  0  0  0  0  0  0
   56.1740   31.2170   44.5250 N   0  0  0  0  0  0  0  0  0  0  0  0
   56.4990   29.8210   44.5260 C   0  0  0  0  0  0  0  0  0  0  0  0
   55.7730   29.0280   45.1830 O   0  0  0  0  0  0  0  0  0  0  0  0
   57.5980   29.3210   43.7470 N   0  0  0  0  0  0  0  0  0  0  0  0
   57.9930   27.9130   43.7440 C   0  0  0  0  0  0  0  0  0  0  0  0
   58.5840   27.5530   45.0800 C   0  0  0  0  0  0  0  0  0  0  0  0
   59.6200   28.3360   45.6160 C   0  0  0  0  0  0  0  0  0  0  0  0
   60.1420   28.0470   46.8790 C   0  0  0  0  0  0  0  0  0  0  0  0
   59.6220   26.9900   47.6260 C   0  0  0  0  0  0  0  0  0  0  0  0
   58.5850   26.2100   47.1090 C   0  0  0  0  0  0  0  0  0  0  0  0
   58.0670   26.4740   45.8270 C   0  0  0  0  0  0  0  0  0  0  0  0
   57.0120   25.7150   45.2960 O   0  0  0  0  0  0  0  0  0  0  0  0
   57.1390   24.4450   44.7150 C   0  0  0  0  0  0  0  0  0  0  0  0
   58.1610   23.5550   45.0960 C   0  0  0  0  0  0  0  0  0  0  0  0
   58.2600   22.3000   44.4900 C   0  0  0  0  0  0  0  0  0  0  0  0
   57.3560   21.9310   43.4890 C   0  0  0  0  0  0  0  0  0  0  0  0
   56.3530   22.8200   43.0910 C   0  0  0  0  0  0  0  0  0  0  0  0
   56.2490   24.0760   43.6980 C   0  0  0  0  0  0  0  0  0  0  0  0
   56.4389   32.7758   41.7487 H   0  0  0  0  0  0  0  0  0  0  0  0
   57.9685   33.0617   40.8514 H   0  0  0  0  0  0  0  0  0  0  0  0
   57.2189   31.4293   40.8514 H   0  0  0  0  0  0  0  0  0  0  0  0
   59.6869   34.0660   43.4205 H   0  0  0  0  0  0  0  0  0  0  0  0
   59.5698   35.1737   45.6528 H   0  0  0  0  0  0  0  0  0  0  0  0
   57.9149   34.4062   47.3519 H   0  0  0  0  0  0  0  0  0  0  0  0
   56.3467   32.5453   46.8121 H   0  0  0  0  0  0  0  0  0  0  0  0
   58.0580   29.9570   43.0610 H   0  0  0  0  0  0  0  0  0  0  0  0
   57.1101   27.2853   43.5529 H   0  0  0  0  0  0  0  0  0  0  0  0
   58.7414   27.7447   42.9556 H   0  0  0  0  0  0  0  0  0  0  0  0
   60.0222   29.1811   45.0380 H   0  0  0  0  0  0  0  0  0  0  0  0
   60.9645   28.6540   47.2852 H   0  0  0  0  0  0  0  0  0  0  0  0
   60.0293   26.7703   48.6239 H   0  0  0  0  0  0  0  0  0  0  0  0
   58.1708   25.3848   47.7070 H   0  0  0  0  0  0  0  0  0  0  0  0
   58.8830   23.8482   45.8723 H   0  0  0  0  0  0  0  0  0  0  0  0
   59.0504   21.6010   44.8009 H   0  0  0  0  0  0  0  0  0  0  0  0
   57.4340   20.9415   43.0148 H   0  0  0  0  0  0  0  0  0  0  0  0
   55.6451   22.5316   42.3000 H   0  0  0  0  0  0  0  0  0  0  0  0
   55.4650   24.7769   43.3754 H   0  0  0  0  0  0  0  0  0  0  0  0
  1  2  1  0
  2  3  1  0
  3  4  2  0
  4  5  1  0
  5  6  2  0
  6  7  1  0
  7  8  2  0
  8  9  1  0
  9 10  1  0
 10 11  2  0
 10 12  1  0
 12 13  1  0
 13 14  1  0
 14 15  2  0
 15 16  1  0
 16 17  2  0
 17 18  1  0
 18 19  2  0
 19 20  1  0
 20 21  1  0
 21 22  2  0
 22 23  1  0
 23 24  2  0
 24 25  1  0
 25 26  2  0
  8  3  1  0
 19 14  1  0
 26 21  1  0
  1 27  1  0
  1 28  1  0
  1 29  1  0
  4 30  1  0
  5 31  1  0
  6 32  1  0
  7 33  1  0
 12 34  1  0
 13 35  1  0
 13 36  1  0
 15 37  1  0
 16 38  1  0
 17 39  1  0
 18 40  1  0
 22 41  1  0
 23 42  1  0
 24 43  1  0
 25 44  1  0
 26 45  1  0
M  CHG  1   9  -1
M  END
>  <UniqueID>  (87) 
79

>  <SMILES>  (87) 
COc1ccccc1[N-]C(=O)NCc1ccccc1Oc1ccccc1

>  <Energy>  (87) 
55.056812971180285

>  <Genealogy>  (87) 
COc1ccccc1[N-]C(=O)NCc1ccccc1Oc1ccccc1 (protonated)
COc1ccccc1[N-]C(=O)NCc1ccccc1Oc1ccccc1 (3D coordinates assigned)
COc1ccccc1[N-]C(=O)NCc1ccccc1Oc1ccccc1 (optimized conformer: 55.056812971180285 kcal/mol)

>  <smiles>  (87) 
COc1ccccc1NC(=O)NCc1ccccc1Oc1ccccc1

>  <score_type>  (87) 
oracle

>  <origin>  (87) 
adg

>  <m_score__min__energy>  (87) 
-9.8499999999999996

>  <m_primary>  (87) 
energy

$$$$
87:0
     RDKit          3D

 37 38  0  0  0  0  0  0  0  0999 V2000
   50.6440   32.7030   49.3570 O   0  0  0  0  0  0  0  0  0  0  0  0
   51.1880   31.9110   50.3620 C   0  0  0  0  0  0  0  0  0  0  0  0
   51.7620   30.6780   50.0400 C   0  0  0  0  0  0  0  0  0  0  0  0
   52.3170   29.8790   51.0450 C   0  0  0  0  0  0  0  0  0  0  0  0
   52.2830   30.3000   52.3850 C   0  0  0  0  0  0  0  0  0  0  0  0
   52.8940   29.4480   53.4700 C   0  0  0  0  0  0  0  0  0  0  0  0
   54.2710   29.9590   53.9240 C   0  0  0  0  0  0  0  0  0  0  0  0
   55.2860   29.8450   52.8660 N   0  0  0  0  0  0  0  0  0  0  0  0
   55.6700   31.1620   52.3350 C   0  0  0  0  0  0  0  0  0  0  0  0
   56.9760   31.0950   51.5130 C   0  0  2  0  0  0  0  0  0  0  0  0
   57.3720   29.7700   51.2450 O   0  0  0  0  0  0  0  0  0  0  0  0
   58.1030   31.9070   52.1310 C   0  0  0  0  0  0  0  0  0  0  0  0
   57.7990   32.9780   52.9900 C   0  0  0  0  0  0  0  0  0  0  0  0
   58.8200   33.7410   53.5640 C   0  0  0  0  0  0  0  0  0  0  0  0
   60.1580   33.4350   53.2990 C   0  0  0  0  0  0  0  0  0  0  0  0
   61.1690   34.1960   53.8760 O   0  0  0  0  0  0  0  0  0  0  0  0
   60.4760   32.3590   52.4650 C   0  0  0  0  0  0  0  0  0  0  0  0
   61.8050   32.0390   52.2130 O   0  0  0  0  0  0  0  0  0  0  0  0
   59.4560   31.5980   51.8850 C   0  0  0  0  0  0  0  0  0  0  0  0
   51.6960   31.5380   52.7010 C   0  0  0  0  0  0  0  0  0  0  0  0
   51.1620   32.3450   51.6910 C   0  0  0  0  0  0  0  0  0  0  0  0
   50.6080   33.5790   52.0130 O   0  0  0  0  0  0  0  0  0  0  0  0
   51.7773   30.3355   48.9948 H   0  0  0  0  0  0  0  0  0  0  0  0
   52.7822   28.9167   50.7851 H   0  0  0  0  0  0  0  0  0  0  0  0
   52.2171   29.4443   54.3371 H   0  0  0  0  0  0  0  0  0  0  0  0
   53.0349   28.4378   53.0581 H   0  0  0  0  0  0  0  0  0  0  0  0
   54.1782   31.0164   54.2126 H   0  0  0  0  0  0  0  0  0  0  0  0
   54.5974   29.3381   54.7713 H   0  0  0  0  0  0  0  0  0  0  0  0
   54.8460   29.3010   52.0880 H   0  0  0  0  0  0  0  0  0  0  0  0
   54.8617   31.5337   51.6881 H   0  0  0  0  0  0  0  0  0  0  0  0
   55.8388   31.8364   53.1874 H   0  0  0  0  0  0  0  0  0  0  0  0
   56.7472   31.5647   50.5450 H   0  0  0  0  0  0  0  0  0  0  0  0
   56.6960   29.1530   51.6200 H   0  0  0  0  0  0  0  0  0  0  0  0
   56.7486   33.2175   53.2122 H   0  0  0  0  0  0  0  0  0  0  0  0
   58.5701   34.5837   54.2254 H   0  0  0  0  0  0  0  0  0  0  0  0
   59.7118   30.7511   51.2313 H   0  0  0  0  0  0  0  0  0  0  0  0
   51.6565   31.8736   53.7478 H   0  0  0  0  0  0  0  0  0  0  0  0
  1  2  1  0
  2  3  2  0
  3  4  1  0
  4  5  2  0
  5  6  1  0
  6  7  1  0
  7  8  1  0
  8  9  1  0
  9 10  1  0
 10 11  1  0
 10 12  1  0
 12 13  2  0
 13 14  1  0
 14 15  2  0
 15 16  1  0
 15 17  1  0
 17 18  1  0
 17 19  2  0
  5 20  1  0
 20 21  2  0
 21 22  1  0
 21  2  1  0
 19 12  1  0
  3 23  1  0
  4 24  1  0
  6 25  1  0
  6 26  1  0
  7 27  1  0
  7 28  1  0
  8 29  1  0
  9 30  1  0
  9 31  1  0
 10 32  1  6
 11 33  1  0
 13 34  1  0
 14 35  1  0
 19 36  1  0
 20 37  1  0
M  CHG  4   1  -1  16  -1  18  -1  22  -1
M  END
>  <UniqueID>  (88) 
80

>  <SMILES>  (88) 
[O-]c1ccc(CCNC[C@H](O)c2ccc([O-])c([O-])c2)cc1[O-]

>  <Energy>  (88) 
33.94266767622882

>  <Genealogy>  (88) 
[O-]c1ccc(CCNCC(O)c2ccc([O-])c([O-])c2)cc1[O-] (protonated)
[O-]c1ccc(CCNC[C@H](O)c2ccc([O-])c([O-])c2)cc1[O-] (chirality)
[O-]c1ccc(CCNC[C@H](O)c2ccc([O-])c([O-])c2)cc1[O-] (3D coordinates assigned)
[O-]c1ccc(CCNC[C@H](O)c2ccc([O-])c([O-])c2)cc1[O-] (optimized conformer: 33.94266767622882 kcal/mol)

>  <smiles>  (88) 
Oc1ccc(CCNCC(O)c2ccc(O)c(O)c2)cc1O

>  <score_type>  (88) 
oracle

>  <origin>  (88) 
adg

>  <m_score__min__energy>  (88) 
-16.550000000000001

>  <m_primary>  (88) 
energy

$$$$
88:0
     RDKit          3D

 44 46  0  0  0  0  0  0  0  0999 V2000
   56.7120   22.7640   43.1190 C   0  0  0  0  0  0  0  0  0  0  0  0
   55.8460   23.4940   44.0960 C   0  0  0  0  0  0  0  0  0  0  0  0
   54.4530   23.4140   44.0080 C   0  0  0  0  0  0  0  0  0  0  0  0
   53.6830   24.0850   44.9640 C   0  0  0  0  0  0  0  0  0  0  0  0
   52.1900   24.0550   44.8970 C   0  0  0  0  0  0  0  0  0  0  0  0
   54.3000   24.8020   45.9390 N   0  0  0  0  0  0  0  0  0  0  0  0
   55.6580   24.8620   46.0210 C   0  0  0  0  0  0  0  0  0  0  0  0
   56.2410   25.5370   46.9660 N   0  0  0  0  0  0  0  0  0  0  0  0
   57.6770   25.5160   47.2460 C   0  0  0  0  0  0  0  0  0  0  0  0
   58.3890   26.5740   46.4450 C   0  0  0  0  0  0  0  0  0  0  0  0
   59.7910   26.6160   46.4020 C   0  0  0  0  0  0  0  0  0  0  0  0
   60.4420   27.5760   45.6240 C   0  0  0  0  0  0  0  0  0  0  0  0
   59.7020   28.5070   44.8910 C   0  0  0  0  0  0  0  0  0  0  0  0
   58.2970   28.4940   44.9450 C   0  0  0  0  0  0  0  0  0  0  0  0
   57.5000   29.4170   44.1900 N   0  0  0  0  0  0  0  0  0  0  0  0
   56.2980   30.0580   44.6300 C   0  0  0  0  0  0  0  0  0  0  0  0
   55.2800   29.3540   44.8530 O   0  0  0  0  0  0  0  0  0  0  0  0
   56.2570   31.4800   44.8160 N   0  0  0  0  0  0  0  0  0  0  0  0
   57.3340   32.3190   45.2540 C   0  0  0  0  0  0  0  0  0  0  0  0
   58.2340   31.8130   46.2030 C   0  0  0  0  0  0  0  0  0  0  0  0
   59.2870   32.6050   46.6740 C   0  0  0  0  0  0  0  0  0  0  0  0
   59.4380   33.9140   46.2110 C   0  0  0  0  0  0  0  0  0  0  0  0
   58.5320   34.4370   45.2850 C   0  0  0  0  0  0  0  0  0  0  0  0
   57.4780   33.6480   44.8110 C   0  0  0  0  0  0  0  0  0  0  0  0
   57.6490   27.5100   45.7050 C   0  0  0  0  0  0  0  0  0  0  0  0
   56.4170   24.2070   45.1040 N   0  0  0  0  0  0  0  0  0  0  0  0
   57.4422   22.1485   43.6648 H   0  0  0  0  0  0  0  0  0  0  0  0
   56.0865   22.1166   42.4869 H   0  0  0  0  0  0  0  0  0  0  0  0
   57.2442   23.4901   42.4869 H   0  0  0  0  0  0  0  0  0  0  0  0
   53.9729   22.8361   43.2046 H   0  0  0  0  0  0  0  0  0  0  0  0
   51.7773   24.0467   45.9166 H   0  0  0  0  0  0  0  0  0  0  0  0
   51.8290   24.9461   44.3625 H   0  0  0  0  0  0  0  0  0  0  0  0
   51.8651   23.1501   44.3625 H   0  0  0  0  0  0  0  0  0  0  0  0
   57.8391   25.7038   48.3177 H   0  0  0  0  0  0  0  0  0  0  0  0
   58.0782   24.5304   46.9673 H   0  0  0  0  0  0  0  0  0  0  0  0
   60.3792   25.8904   46.9830 H   0  0  0  0  0  0  0  0  0  0  0  0
   61.5412   27.5991   45.5883 H   0  0  0  0  0  0  0  0  0  0  0  0
   60.2200   29.2525   44.2697 H   0  0  0  0  0  0  0  0  0  0  0  0
   58.1114   30.7868   46.5796 H   0  0  0  0  0  0  0  0  0  0  0  0
   59.9961   32.1965   47.4091 H   0  0  0  0  0  0  0  0  0  0  0  0
   60.2707   34.5335   46.5756 H   0  0  0  0  0  0  0  0  0  0  0  0
   58.6474   35.4710   44.9278 H   0  0  0  0  0  0  0  0  0  0  0  0
   56.7601   34.0669   44.0905 H   0  0  0  0  0  0  0  0  0  0  0  0
   56.5498   27.4709   45.7217 H   0  0  0  0  0  0  0  0  0  0  0  0
  1  2  1  0
  2  3  1  0
  3  4  2  0
  4  5  1  0
  4  6  1  0
  6  7  1  0
  7  8  2  3
  8  9  1  0
  9 10  1  0
 10 11  2  0
 11 12  1  0
 12 13  2  0
 13 14  1  0
 14 15  1  0
 15 16  1  0
 16 17  2  0
 16 18  1  0
 18 19  1  0
 19 20  2  0
 20 21  1  0
 21 22  2  0
 22 23  1  0
 23 24  2  0
 14 25  2  0
  7 26  1  0
 26  2  2  0
 25 10  1  0
 24 19  1  0
  1 27  1  0
  1 28  1  0
  1 29  1  0
  3 30  1  0
  5 31  1  0
  5 32  1  0
  5 33  1  0
  9 34  1  0
  9 35  1  0
 11 36  1  0
 12 37  1  0
 13 38  1  0
 20 39  1  0
 21 40  1  0
 22 41  1  0
 23 42  1  0
 24 43  1  0
 25 44  1  0
M  CHG  3   6  -1  15  -1  18  -1
M  END
>  <UniqueID>  (89) 
81

>  <SMILES>  (89) 
Cc1cc(C)[n-]c(=NCc2cccc([N-]C(=O)[N-]c3ccccc3)c2)n1

>  <Energy>  (89) 
50.358736177799734

>  <Genealogy>  (89) 
Cc1cc(C)[n-]c(=NCc2cccc([N-]C(=O)[N-]c3ccccc3)c2)n1 (protonated)
Cc1cc(C)[n-]c(=NCc2cccc([N-]C(=O)[N-]c3ccccc3)c2)n1 (3D coordinates assigned)
Cc1cc(C)[n-]c(=NCc2cccc([N-]C(=O)[N-]c3ccccc3)c2)n1 (optimized conformer: 50.358736177799734 kcal/mol)

>  <smiles>  (89) 
Cc1cc(C)[nH]c(=NCc2cccc(NC(=O)Nc3ccccc3)c2)n1

>  <score_type>  (89) 
oracle

>  <origin>  (89) 
adg

>  <m_score__min__energy>  (89) 
-12.91

>  <m_primary>  (89) 
energy

$$$$
89:0
     RDKit          3D

 50 53  0  0  0  0  0  0  0  0999 V2000
   58.5870   29.0720   48.9140 O   0  0  0  0  0  0  0  0  0  0  0  0
   59.7590   28.8950   48.4870 C   0  0  0  0  0  0  0  0  0  0  0  0
   60.3950   27.5470   48.5960 C   0  0  0  0  0  0  0  0  0  0  0  0
   60.5310   26.7450   46.9620 S   0  0  0  0  0  0  0  0  0  0  0  0
   59.0910   27.5560   46.2330 C   0  0  0  0  0  0  0  0  0  0  0  0
   59.3160   28.7270   45.5860 N   0  0  0  0  0  0  0  0  0  0  0  0
   58.3230   29.3990   44.9590 C   0  0  0  0  0  0  0  0  0  0  0  0
   58.5990   30.6010   44.3000 C   0  0  0  0  0  0  0  0  0  0  0  0
   57.5750   31.2990   43.6550 C   0  0  0  0  0  0  0  0  0  0  0  0
   56.2720   30.7920   43.6600 C   0  0  0  0  0  0  0  0  0  0  0  0
   55.9910   29.5840   44.3070 C   0  0  0  0  0  0  0  0  0  0  0  0
   57.0190   28.8770   44.9600 C   0  0  0  0  0  0  0  0  0  0  0  0
   56.7930   27.6560   45.6180 C   0  0  0  0  0  0  0  0  0  0  0  0
   55.6320   27.1580   45.6210 O   0  0  0  0  0  0  0  0  0  0  0  0
   57.8260   27.0080   46.2570 N   0  0  0  0  0  0  0  0  0  0  0  0
   57.5410   25.7350   46.9580 C   0  0  0  0  0  0  0  0  0  0  0  0
   57.4760   24.5460   46.0180 C   0  0  0  0  0  0  0  0  0  0  0  0
   58.6350   23.8810   45.5680 C   0  0  0  0  0  0  0  0  0  0  0  0
   58.5360   22.8070   44.6780 C   0  0  0  0  0  0  0  0  0  0  0  0
   57.2860   22.3900   44.2190 C   0  0  0  0  0  0  0  0  0  0  0  0
   56.1310   23.0480   44.6440 C   0  0  0  0  0  0  0  0  0  0  0  0
   56.2210   24.1240   45.5340 C   0  0  0  0  0  0  0  0  0  0  0  0
   55.0850   24.7570   45.9230 F   0  0  0  0  0  0  0  0  0  0  0  0
   60.4890   29.9760   47.8980 N   0  0  0  0  0  0  0  0  0  0  0  0
   60.5290   31.3220   48.4570 C   0  0  0  0  0  0  0  0  0  0  0  0
   59.8210   32.2950   47.5540 C   0  0  0  0  0  0  0  0  0  0  0  0
   60.5500   33.2140   46.7810 C   0  0  0  0  0  0  0  0  0  0  0  0
   59.8850   34.0910   45.9170 C   0  0  0  0  0  0  0  0  0  0  0  0
   58.4920   34.0580   45.8220 C   0  0  0  0  0  0  0  0  0  0  0  0
   57.7590   33.1610   46.6040 C   0  0  0  0  0  0  0  0  0  0  0  0
   58.4190   32.2830   47.4680 C   0  0  0  0  0  0  0  0  0  0  0  0
   61.4016   27.6592   49.0252 H   0  0  0  0  0  0  0  0  0  0  0  0
   59.7654   26.9167   49.2412 H   0  0  0  0  0  0  0  0  0  0  0  0
   59.6248   30.9979   44.2894 H   0  0  0  0  0  0  0  0  0  0  0  0
   57.7939   32.2477   43.1431 H   0  0  0  0  0  0  0  0  0  0  0  0
   55.4662   31.3441   43.1542 H   0  0  0  0  0  0  0  0  0  0  0  0
   54.9656   29.1858   44.3057 H   0  0  0  0  0  0  0  0  0  0  0  0
   58.3359   25.5554   47.6969 H   0  0  0  0  0  0  0  0  0  0  0  0
   56.5545   25.8338   47.4345 H   0  0  0  0  0  0  0  0  0  0  0  0
   59.6242   24.2094   45.9196 H   0  0  0  0  0  0  0  0  0  0  0  0
   59.4456   22.2897   44.3389 H   0  0  0  0  0  0  0  0  0  0  0  0
   57.2110   21.5424   43.5220 H   0  0  0  0  0  0  0  0  0  0  0  0
   55.1469   22.7198   44.2782 H   0  0  0  0  0  0  0  0  0  0  0  0
   60.0370   31.3190   49.4408 H   0  0  0  0  0  0  0  0  0  0  0  0
   61.5797   31.6323   48.5562 H   0  0  0  0  0  0  0  0  0  0  0  0
   61.6471   33.2442   46.8552 H   0  0  0  0  0  0  0  0  0  0  0  0
   60.4601   34.8073   45.3119 H   0  0  0  0  0  0  0  0  0  0  0  0
   57.9717   34.7381   45.1316 H   0  0  0  0  0  0  0  0  0  0  0  0
   56.6610   33.1461   46.5393 H   0  0  0  0  0  0  0  0  0  0  0  0
   57.8384   31.5798   48.0831 H   0  0  0  0  0  0  0  0  0  0  0  0
  1  2  2  0
  2  3  1  0
  3  4  1  0
  4  5  1  0
  5  6  2  0
  6  7  1  0
  7  8  2  0
  8  9  1  0
  9 10  2  0
 10 11  1  0
 11 12  2  0
 12 13  1  0
 13 14  2  0
 13 15  1  0
 15 16  1  0
 16 17  1  0
 17 18  2  0
 18 19  1  0
 19 20  2  0
 20 21  1  0
 21 22  2  0
 22 23  1  0
  2 24  1  0
 24 25  1  0
 25 26  1  0
 26 27  2  0
 27 28  1  0
 28 29  2  0
 29 30  1  0
 30 31  2  0
 15  5  1  0
 22 17  1  0
 31 26  1  0
 12  7  1  0
  3 32  1  0
  3 33  1  0
  8 34  1  0
  9 35  1  0
 10 36  1  0
 11 37  1  0
 16 38  1  0
 16 39  1  0
 18 40  1  0
 19 41  1  0
 20 42  1  0
 21 43  1  0
 25 44  1  0
 25 45  1  0
 27 46  1  0
 28 47  1  0
 29 48  1  0
 30 49  1  0
 31 50  1  0
M  CHG  1  24  -1
M  END
>  <UniqueID>  (90) 
82

>  <SMILES>  (90) 
O=C(CSc1nc2ccccc2c(=O)n1Cc1ccccc1F)[N-]Cc1ccccc1

>  <Energy>  (90) 
55.96329936943645

>  <Genealogy>  (90) 
O=C(CSc1nc2ccccc2c(=O)n1Cc1ccccc1F)[N-]Cc1ccccc1 (protonated)
O=C(CSc1nc2ccccc2c(=O)n1Cc1ccccc1F)[N-]Cc1ccccc1 (3D coordinates assigned)
O=C(CSc1nc2ccccc2c(=O)n1Cc1ccccc1F)[N-]Cc1ccccc1 (optimized conformer: 55.96329936943645 kcal/mol)

>  <smiles>  (90) 
O=C(CSc1nc2ccccc2c(=O)n1Cc1ccccc1F)NCc1ccccc1

>  <score_type>  (90) 
oracle

>  <origin>  (90) 
adg

>  <m_score__min__energy>  (90) 
-10.380000000000001

>  <m_primary>  (90) 
energy

$$$$
90:0
     RDKit          3D

 39 41  0  0  0  0  0  0  0  0999 V2000
   61.5110   34.0260   46.7450 C   0  0  0  0  0  0  0  0  0  0  0  0
   60.1510   34.3090   46.2680 N   0  0  0  0  0  0  0  0  0  0  0  0
   59.7230   35.7070   46.1360 C   0  0  0  0  0  0  0  0  0  0  0  0
   59.2450   33.2250   45.9360 C   0  0  0  0  0  0  0  0  0  0  0  0
   58.0980   33.4550   45.1480 C   0  0  0  0  0  0  0  0  0  0  0  0
   57.2280   32.4090   44.8280 C   0  0  0  0  0  0  0  0  0  0  0  0
   57.4860   31.1080   45.2690 C   0  0  0  0  0  0  0  0  0  0  0  0
   56.5540   30.0700   44.9330 N   0  0  0  0  0  0  0  0  0  0  0  0
   56.8150   28.6620   44.9070 C   0  0  0  0  0  0  0  0  0  0  0  0
   57.8350   28.2100   44.3210 O   0  0  0  0  0  0  0  0  0  0  0  0
   55.8970   27.7770   45.5590 N   0  0  0  0  0  0  0  0  0  0  0  0
   56.1610   26.4330   45.9890 C   0  0  0  0  0  0  0  0  0  0  0  0
   57.2820   26.1940   46.7900 C   0  0  0  0  0  0  0  0  0  0  0  0
   57.5680   24.9050   47.2480 C   0  0  0  0  0  0  0  0  0  0  0  0
   56.7210   23.8310   46.9230 C   0  0  0  0  0  0  0  0  0  0  0  0
   57.0200   22.4660   47.4070 C   0  0  0  0  0  0  0  0  0  0  0  0
   57.2280   21.4100   46.5950 N   0  0  0  0  0  0  0  0  0  0  0  0
   57.4560   20.4170   47.4770 C   0  0  0  0  0  0  0  0  0  0  0  0
   57.3920   20.8430   48.7500 N   0  0  0  0  0  0  0  0  0  0  0  0
   57.1170   22.1350   48.7080 N   0  0  0  0  0  0  0  0  0  0  0  0
   55.5800   24.0760   46.1410 C   0  0  0  0  0  0  0  0  0  0  0  0
   55.2970   25.3670   45.6830 C   0  0  0  0  0  0  0  0  0  0  0  0
   58.6100   30.8700   46.0760 C   0  0  0  0  0  0  0  0  0  0  0  0
   59.4820   31.9140   46.3990 C   0  0  0  0  0  0  0  0  0  0  0  0
   61.5208   34.0240   47.8450 H   0  0  0  0  0  0  0  0  0  0  0  0
   61.8324   33.0417   46.3736 H   0  0  0  0  0  0  0  0  0  0  0  0
   62.1984   34.8004   46.3736 H   0  0  0  0  0  0  0  0  0  0  0  0
   59.5888   36.1453   47.1359 H   0  0  0  0  0  0  0  0  0  0  0  0
   60.4885   36.2745   45.5866 H   0  0  0  0  0  0  0  0  0  0  0  0
   58.7709   35.7487   45.5866 H   0  0  0  0  0  0  0  0  0  0  0  0
   57.8856   34.4699   44.7808 H   0  0  0  0  0  0  0  0  0  0  0  0
   56.3317   32.6116   44.2233 H   0  0  0  0  0  0  0  0  0  0  0  0
   57.9450   27.0285   47.0622 H   0  0  0  0  0  0  0  0  0  0  0  0
   58.4608   24.7298   47.8662 H   0  0  0  0  0  0  0  0  0  0  0  0
   57.6699   19.3774   47.1882 H   0  0  0  0  0  0  0  0  0  0  0  0
   54.9040   23.2463   45.8869 H   0  0  0  0  0  0  0  0  0  0  0  0
   54.3946   25.5490   45.0809 H   0  0  0  0  0  0  0  0  0  0  0  0
   58.8056   29.8565   46.4562 H   0  0  0  0  0  0  0  0  0  0  0  0
   60.3649   31.7102   47.0227 H   0  0  0  0  0  0  0  0  0  0  0  0
  1  2  1  0
  2  3  1  0
  2  4  1  0
  4  5  2  0
  5  6  1  0
  6  7  2  0
  7  8  1  0
  8  9  1  0
  9 10  2  0
  9 11  1  0
 11 12  1  0
 12 13  2  0
 13 14  1  0
 14 15  2  0
 15 16  1  0
 16 17  1  0
 17 18  2  0
 18 19  1  0
 19 20  1  0
 15 21  1  0
 21 22  2  0
  7 23  1  0
 23 24  2  0
 24  4  1  0
 22 12  1  0
 20 16  2  0
  1 25  1  0
  1 26  1  0
  1 27  1  0
  3 28  1  0
  3 29  1  0
  3 30  1  0
  5 31  1  0
  6 32  1  0
 13 33  1  0
 14 34  1  0
 18 35  1  0
 21 36  1  0
 22 37  1  0
 23 38  1  0
 24 39  1  0
M  CHG  3   8  -1  11  -1  19  -1
M  END
>  <UniqueID>  (91) 
83

>  <SMILES>  (91) 
CN(C)c1ccc([N-]C(=O)[N-]c2ccc(-c3nc[n-]n3)cc2)cc1

>  <Energy>  (91) 
82.03596048374321

>  <Genealogy>  (91) 
CN(C)c1ccc([N-]C(=O)[N-]c2ccc(-c3nc[n-]n3)cc2)cc1 (protonated)
CN(C)c1ccc([N-]C(=O)[N-]c2ccc(-c3nc[n-]n3)cc2)cc1 (3D coordinates assigned)
CN(C)c1ccc([N-]C(=O)[N-]c2ccc(-c3nc[n-]n3)cc2)cc1 (optimized conformer: 82.03596048374321 kcal/mol)

>  <smiles>  (91) 
CN(C)c1ccc(NC(=O)Nc2ccc(-c3nc[nH]n3)cc2)cc1

>  <score_type>  (91) 
oracle

>  <origin>  (91) 
adg

>  <m_score__min__energy>  (91) 
-11.720000000000001

>  <m_primary>  (91) 
energy

$$$$
91:0
     RDKit          3D

 49 51  0  0  0  0  0  0  0  0999 V2000
   59.5840   35.1040   45.9100 C   0  0  0  0  0  0  0  0  0  0  0  0
   58.5770   34.6200   44.8700 C   0  0  0  0  0  0  0  0  0  0  0  0
   58.3240   33.1450   45.0200 C   0  0  0  0  0  0  0  0  0  0  0  0
   57.7400   32.4160   43.9740 C   0  0  0  0  0  0  0  0  0  0  0  0
   57.4740   31.0520   44.1250 C   0  0  0  0  0  0  0  0  0  0  0  0
   57.7690   30.3970   45.3320 C   0  0  0  0  0  0  0  0  0  0  0  0
   57.5030   28.9900   45.4910 N   0  0  0  0  0  0  0  0  0  0  0  0
   58.3820   28.0560   45.9130 C   0  0  0  0  0  0  0  0  0  0  0  0
   57.7700   26.8140   45.9440 C   0  0  0  0  0  0  0  0  0  0  0  0
   58.3560   25.5240   46.4540 C   0  0  1  0  0  0  0  0  0  0  0  0
   59.6690   25.7230   46.9130 O   0  0  0  0  0  0  0  0  0  0  0  0
   57.5120   24.9600   47.5170 N   0  0  0  0  0  0  0  0  0  0  0  0
   56.3930   24.0870   47.2740 C   0  0  0  0  0  0  0  0  0  0  0  0
   56.1350   22.9630   48.0840 C   0  0  0  0  0  0  0  0  0  0  0  0
   55.0350   22.1410   47.8250 C   0  0  0  0  0  0  0  0  0  0  0  0
   54.1770   22.4260   46.7560 C   0  0  0  0  0  0  0  0  0  0  0  0
   52.7970   21.3880   46.4130 S   0  0  0  0  0  0  0  0  0  0  0  0
   51.9700   21.9750   45.3010 O   0  0  0  0  0  0  0  0  0  0  0  0
   53.2950   20.0410   45.9730 O   0  0  0  0  0  0  0  0  0  0  0  0
   51.8190   21.1950   47.8360 N   0  0  0  0  0  0  0  0  0  0  0  0
   50.8120   22.2470   47.8870 C   0  0  0  0  0  0  0  0  0  0  0  0
   54.4350   23.5360   45.9410 C   0  0  0  0  0  0  0  0  0  0  0  0
   55.5310   24.3610   46.2010 C   0  0  0  0  0  0  0  0  0  0  0  0
   56.4560   27.0000   45.5540 C   0  0  0  0  0  0  0  0  0  0  0  0
   56.3340   28.3450   45.2850 C   0  0  0  0  0  0  0  0  0  0  0  0
   55.1470   28.9640   44.9050 O   0  0  0  0  0  0  0  0  0  0  0  0
   58.3530   31.1320   46.3800 C   0  0  0  0  0  0  0  0  0  0  0  0
   58.6210   32.4950   46.2280 C   0  0  0  0  0  0  0  0  0  0  0  0
   59.1890   34.9142   46.9189 H   0  0  0  0  0  0  0  0  0  0  0  0
   60.5334   34.5638   45.7803 H   0  0  0  0  0  0  0  0  0  0  0  0
   59.7553   36.1828   45.7803 H   0  0  0  0  0  0  0  0  0  0  0  0
   57.6303   35.1640   45.0037 H   0  0  0  0  0  0  0  0  0  0  0  0
   58.9872   34.8079   43.8668 H   0  0  0  0  0  0  0  0  0  0  0  0
   57.4898   32.9205   43.0291 H   0  0  0  0  0  0  0  0  0  0  0  0
   57.0301   30.4871   43.2920 H   0  0  0  0  0  0  0  0  0  0  0  0
   59.4281   28.2523   46.1907 H   0  0  0  0  0  0  0  0  0  0  0  0
   58.3898   24.8051   45.6221 H   0  0  0  0  0  0  0  0  0  0  0  0
   60.1350   26.2960   46.2480 H   0  0  0  0  0  0  0  0  0  0  0  0
   57.7170   25.2250   48.5100 H   0  0  0  0  0  0  0  0  0  0  0  0
   56.8040   22.7312   48.9258 H   0  0  0  0  0  0  0  0  0  0  0  0
   54.8424   21.2664   48.4637 H   0  0  0  0  0  0  0  0  0  0  0  0
   50.5837   22.4855   48.9363 H   0  0  0  0  0  0  0  0  0  0  0  0
   51.1949   23.1459   47.3816 H   0  0  0  0  0  0  0  0  0  0  0  0
   49.8972   21.9038   47.3816 H   0  0  0  0  0  0  0  0  0  0  0  0
   53.7712   23.7585   45.0926 H   0  0  0  0  0  0  0  0  0  0  0  0
   55.7206   25.2338   45.5589 H   0  0  0  0  0  0  0  0  0  0  0  0
   55.6715   26.2329   45.4751 H   0  0  0  0  0  0  0  0  0  0  0  0
   58.6006   30.6296   47.3267 H   0  0  0  0  0  0  0  0  0  0  0  0
   59.0668   33.0612   47.0590 H   0  0  0  0  0  0  0  0  0  0  0  0
  1  2  1  0
  2  3  1  0
  3  4  2  0
  4  5  1  0
  5  6  2  0
  6  7  1  0
  7  8  1  0
  8  9  2  0
  9 10  1  0
 10 11  1  0
 10 12  1  0
 12 13  1  0
 13 14  2  0
 14 15  1  0
 15 16  2  0
 16 17  1  0
 17 18  2  0
 17 19  2  0
 17 20  1  0
 20 21  1  0
 16 22  1  0
 22 23  2  0
  9 24  1  0
 24 25  2  0
 25 26  1  0
  6 27  1  0
 27 28  2  0
 28  3  1  0
 25  7  1  0
 23 13  1  0
  1 29  1  0
  1 30  1  0
  1 31  1  0
  2 32  1  0
  2 33  1  0
  4 34  1  0
  5 35  1  0
  8 36  1  0
 10 37  1  6
 11 38  1  0
 12 39  1  0
 14 40  1  0
 15 41  1  0
 21 42  1  0
 21 43  1  0
 21 44  1  0
 22 45  1  0
 23 46  1  0
 24 47  1  0
 27 48  1  0
 28 49  1  0
M  CHG  2  20  -1  26  -1
M  END
>  <UniqueID>  (92) 
84

>  <SMILES>  (92) 
CCc1ccc(-n2cc([C@@H](O)Nc3ccc(S(=O)(=O)[N-]C)cc3)cc2[O-])cc1

>  <Energy>  (92) 
78.44153058990985

>  <Genealogy>  (92) 
CCc1ccc(-n2cc(C(O)Nc3ccc(S(=O)(=O)[N-]C)cc3)cc2[O-])cc1 (protonated)
CCc1ccc(-n2cc([C@@H](O)Nc3ccc(S(=O)(=O)[N-]C)cc3)cc2[O-])cc1 (chirality)
CCc1ccc(-n2cc([C@@H](O)Nc3ccc(S(=O)(=O)[N-]C)cc3)cc2[O-])cc1 (3D coordinates assigned)
CCc1ccc(-n2cc([C@@H](O)Nc3ccc(S(=O)(=O)[N-]C)cc3)cc2[O-])cc1 (optimized conformer: 78.44153058990985 kcal/mol)

>  <smiles>  (92) 
CCc1ccc(-n2cc(C(O)Nc3ccc(S(=O)(=O)NC)cc3)cc2O)cc1

>  <score_type>  (92) 
oracle

>  <origin>  (92) 
adg

>  <m_score__min__energy>  (92) 
-11.699999999999999

>  <m_primary>  (92) 
energy

$$$$
